data_PCOD9276846
_publ_section_title
;
Structure prediction by ZEFSAII (Michael W. Deem and Ramdas Pophale) SiO2 
 PCOD9276846
Probable space group: C 2/C
;
_chemical_formula_sum "Si O2"
_cell_formula_units_Z 64
_cell_length_a 18.550550
_cell_length_b 18.675902
_cell_length_c 14.408594
_cell_angle_alpha 90.000000
_cell_angle_beta 32.262525
_cell_angle_gamma 90.000000
_cell_volume 2664.636957
_symmetry_space_group_name_H-M "C 2/C"
_symmetry_group_IT_number 15
_symmetry_cell_setting 'monoclinic'
loop_
_space_group_symop_operation_xyz
x,y,z
-x,y,1/2-z
-x,-y,-z
x,-y,1/2+z
1/2+x,1/2+y,z
1/2-x,1/2+y,1/2-z
1/2-x,1/2-y,-z
1/2+x,1/2-y,1/2+z
loop_
_atom_site_type_symbol
_atom_site_label
_atom_site_fract_x
_atom_site_fract_y
_atom_site_fract_z
Si Si1 0.274860 0.727125 0.261039
Si Si2 0.904606 0.612947 0.125601
Si Si3 0.454558 0.413855 0.398393
Si Si4 0.705778 0.828085 0.584159
Si Si5 0.233006 0.862730 0.175097
Si Si6 0.753284 0.025636 0.675661
Si Si7 0.414987 0.112427 0.755276
Si Si8 0.499900 0.731149 0.155702
O O1 0.220326 0.650824 0.288968
O O2 0.272422 0.788303 0.183870
O O3 0.416654 0.711095 0.155220
O O4 0.153022 0.753822 0.460072
O O5 0.913212 0.661255 0.210316
O O6 0.864936 0.533834 0.198422
O O7 0.012242 0.611297 0.925482
O O8 0.500000 0.445424 0.250000
O O9 0.336666 0.360161 0.493366
O O10 0.576251 0.371128 0.314404
O O11 0.389260 0.479319 0.525226
O O12 0.750000 0.750000 0.500000
O O13 0.686467 0.870675 0.509131
O O14 0.255100 0.926029 0.224084
O O15 0.725101 0.074111 0.615391
O O16 0.500000 0.081684 0.750000
O O17 0.413074 0.197025 0.776117
O O18 0.500000 0.686125 0.250000
#
# Coordination Sequence:
#
# PCOD9276846 Si02
#       8
#     8   8   8   8   8   8   8   8
#     4  11  22  39  69  95 135 176 232 285 348 409
#     4  10  23  40  64  99 131 177 236 279 342 410
#     4   9  22  40  62  94 133 175 225 286 346 416
#     4  10  20  40  65  94 137 176 225 284 351 409
#     4  11  22  39  65  96 132 183 223 280 349 411
#     4  11  22  42  67  90 142 172 232 281 353 414
#     4  10  22  42  66  92 130 179 226 287 342 410
#     4  10  22  41  65  95 131 173 228 286 344 405
#
# _framework density 24.018281000000002
#
# number of rings (size 3 to 8) (size 9 to 14) (size 15 to 20)
#    0.000    1.750    2.500    1.125    3.500    3.000 
#    0.000    1.250    0.000    0.000    0.000    0.000 
#    0.000    0.000    0.000    0.000    0.000    0.000 
#
# Total GULP energy -178420.890886 kJ/mol
# GULP energy per Si atom -5575.652840 kJ/mol
# Density = 2.396361 g / cm^3
# Si number density = 24.018281 Si / 1000 Ang^3
#
#
#
# Elastic Constant Matrix: (Units=GPa)
#
#
# Indices 1 2 3 4 5 6 
#
# 1 141.5042 19.3732 53.2427 -0.0003 7.0855 0.0003
# 2 19.3732 76.8557 3.2236 -0.0005 5.3314 0.0004
# 3 53.2427 3.2236 90.7435 -0.0009 21.2082 0.0007
# 4 -0.0003 -0.0005 -0.0009 18.6202 0.0006 4.0196
# 5 7.0855 5.3314 21.2082 0.0006 37.8936 -0.0005
# 6 0.0003 0.0004 0.0007 4.0196 -0.0005 14.0150
#
#
#
# Elastic Compliance Matrix: (Units=1/GPa)
#
#
# Indices 1 2 3 4 5 6 
#
# 1 0.009521 -0.002280 -0.005942 0.000000 0.001866 0.000000
# 2 -0.002280 0.013686 0.001383 0.000001 -0.002273 -0.000001
# 3 -0.005942 0.001383 0.016386 0.000001 -0.008255 -0.000001
# 4 0.000000 0.000001 0.000001 0.057250 -0.000002 -0.016420
# 5 0.001866 -0.002273 -0.008255 -0.000002 0.030981 0.000002
# 6 0.000000 -0.000001 -0.000001 -0.016420 0.000002 0.076061
#
#
# Mechanical properties :
#
#
# Convention : Reuss Voigt Hill
#
# Bulk Modulus (GPa) = 38.58643 51.19805 44.89224
# Shear Modulus (GPa) = 22.10419 29.65667 25.88043
#
# Velocity S-wave (km/s) = 3.03695 3.51772 3.28614
# Velocity P-wave (km/s) = 5.32895 6.15319 5.75584
#
# Compressibility (1/GPa) = 0.02591585
#
# Stress axis : x y z
#
# Youngs Moduli (GPa) = 105.02787 73.06806 61.02638
#
# Poissons Ratio (x) = 0.16662 0.36259
# Poissons Ratio (y) = 0.23949 -0.08440
# Poissons Ratio (z) = 0.62403 -0.10106
#
# Static dielectric constant tensor:
#      x y z
#    x 2.033430 0.000000 0.022640 
#    y 0.000000 1.927520 0.000000 
#    z 0.022640 0.000000 2.070690 
# 
# From -- ./inp_files/163242.got.cif
#   From: 2010.05.17/outbox.cif.g08.bks.cpg/sg15_82_cif.got.tgz:163242.got - 2010.06.03 18:47:42.
