data_PCOD9276469
_publ_section_title
;
Structure prediction by ZEFSAII (Michael W. Deem and Ramdas Pophale) SiO2 
 PCOD9276469
Probable space group: C 2/C
;
_chemical_formula_sum "Si O2"
_cell_formula_units_Z 44
_cell_length_a 11.973390
_cell_length_b 10.592420
_cell_length_c 15.610243
_cell_angle_alpha 90.000000
_cell_angle_beta 101.208117
_cell_angle_gamma 90.000000
_cell_volume 1942.043493
_symmetry_space_group_name_H-M "C 2/C"
_symmetry_group_IT_number 15
_symmetry_cell_setting 'monoclinic'
loop_
_space_group_symop_operation_xyz
x,y,z
-x,y,1/2-z
-x,-y,-z
x,-y,1/2+z
1/2+x,1/2+y,z
1/2-x,1/2+y,1/2-z
1/2-x,1/2-y,-z
1/2+x,1/2-y,1/2+z
loop_
_atom_site_type_symbol
_atom_site_label
_atom_site_fract_x
_atom_site_fract_y
_atom_site_fract_z
Si Si1 0.481422 0.787827 0.924241
Si Si2 0.768529 0.826747 0.682446
Si Si3 0.500000 0.681598 0.750000
Si Si4 0.240740 0.076205 0.763709
Si Si5 0.338105 0.369101 0.520758
Si Si6 0.296894 0.883734 0.472441
O O1 0.357031 0.837744 0.879267
O O2 0.535983 0.756477 0.840308
O O3 0.445776 0.667527 0.978419
O O4 0.569121 0.877161 0.985902
O O5 0.794478 0.684677 0.713526
O O6 0.860621 0.870938 0.626287
O O7 0.751875 0.928215 0.755181
O O8 0.607611 0.604231 0.736776
O O9 0.278956 0.101387 0.867475
O O10 0.250000 0.250000 0.500000
O O11 0.271719 0.499728 0.494000
O O12 0.250000 0.750000 0.500000
#
# Coordination Sequence:
#
# PCOD9276469 Si02
#       6
#     8   8   4   8   8   8
#     4  10  21  42  67  90 129 172 210 268 330 378
#     4   9  21  41  64  92 128 167 207 262 320 382
#     4  10  20  40  62  88 126 170 202 260 328 376
#     4  10  21  40  63  91 127 162 211 260 313 384
#     4   9  21  40  62  93 130 165 203 268 326 375
#     4  11  22  39  66  97 119 165 227 259 312 397
#
# _framework density 22.656548999999998
#
# number of rings (size 3 to 8) (size 9 to 14) (size 15 to 20)
#    0.000    2.182    1.818    0.000    0.000   11.636 
#    6.545    0.000    0.000    0.000    0.000    0.000 
#    0.000    0.000    0.000    0.000    0.000    0.000 
#
# Total GULP energy -122504.958622 kJ/mol
# GULP energy per Si atom -5568.407210 kJ/mol
# Density = 2.260498 g / cm^3
# Si number density = 22.656549 Si / 1000 Ang^3
#
#
#
# Elastic Constant Matrix: (Units=GPa)
#
#
# Indices 1 2 3 4 5 6 
#
# 1 40.5659 6.8622 17.8962 0.0000 -9.5860 0.0000
# 2 6.8622 124.1886 22.7178 0.0000 -22.0543 0.0000
# 3 17.8962 22.7178 58.4301 0.0000 -1.5316 0.0000
# 4 0.0000 0.0000 0.0000 28.2091 0.0000 -1.3648
# 5 -9.5860 -22.0543 -1.5316 0.0000 32.5414 0.0000
# 6 0.0000 0.0000 0.0000 -1.3648 0.0000 24.2892
#
#
#
# Elastic Compliance Matrix: (Units=1/GPa)
#
#
# Indices 1 2 3 4 5 6 
#
# 1 0.031097 0.001879 -0.009994 0.000000 0.009964 0.000000
# 2 0.001879 0.009996 -0.004275 0.000000 0.007127 0.000000
# 3 -0.009994 -0.004275 0.021711 0.000000 -0.004820 0.000000
# 4 0.000000 0.000000 0.000000 0.035546 0.000000 0.001997
# 5 0.009964 0.007127 -0.004820 0.000000 0.038269 0.000000
# 6 0.000000 0.000000 0.000000 0.001997 0.000000 0.041283
#
#
# Mechanical properties :
#
#
# Convention : Reuss Voigt Hill
#
# Bulk Modulus (GPa) = 26.29890 35.34857 30.82374
# Shear Modulus (GPa) = 23.21729 28.72183 25.96956
#
# Velocity S-wave (km/s) = 3.20464 3.56435 3.38927
# Velocity P-wave (km/s) = 5.03248 5.70747 5.38057
#
# Compressibility (1/GPa) = 0.03802440
#
# Stress axis : x y z
#
# Youngs Moduli (GPa) = 32.15763 100.03811 46.05878
#
# Poissons Ratio (x) = -0.18800 0.46031
# Poissons Ratio (y) = -0.06043 0.19692
# Poissons Ratio (z) = 0.32138 0.42770
#
# Static dielectric constant tensor:
#      x y z
#    x 1.903440 0.000000 -0.043630 
#    y 0.000000 7.606950 0.000000 
#    z -0.043630 0.000000 2.007510 
# 
# From -- ./inp_files/142313.got.cif
#   From: 2010.05.17/outbox.cif.g08.bks.cpg/sg15_72_cif.got.tgz:142313.got - 2010.06.03 18:47:42.
