data_PCOD9276630
_publ_section_title
;
Structure prediction by ZEFSAII (Michael W. Deem and Ramdas Pophale) SiO2 
 PCOD9276630
Probable space group: C 2/C
;
_chemical_formula_sum "Si O2"
_cell_formula_units_Z 44
_cell_length_a 22.632658
_cell_length_b 9.661188
_cell_length_c 9.196185
_cell_angle_alpha 90.000000
_cell_angle_beta 62.343088
_cell_angle_gamma 90.000000
_cell_volume 1781.072087
_symmetry_space_group_name_H-M "C 2/C"
_symmetry_group_IT_number 15
_symmetry_cell_setting 'monoclinic'
loop_
_space_group_symop_operation_xyz
x,y,z
-x,y,1/2-z
-x,-y,-z
x,-y,1/2+z
1/2+x,1/2+y,z
1/2-x,1/2+y,1/2-z
1/2-x,1/2-y,-z
1/2+x,1/2-y,1/2+z
loop_
_atom_site_type_symbol
_atom_site_label
_atom_site_fract_x
_atom_site_fract_y
_atom_site_fract_z
Si Si1 0.320309 0.962866 0.618079
Si Si2 0.500000 0.792622 0.750000
Si Si3 0.356414 0.308797 0.895551
Si Si4 0.627855 0.755841 0.458401
Si Si5 0.000000 0.500000 0.500000
Si Si6 0.732458 0.428300 0.984292
Si Si7 0.000000 0.733690 0.750000
O O1 0.380231 0.074828 0.546061
O O2 0.296212 0.927082 0.805274
O O3 0.334071 0.830859 0.503561
O O4 0.259392 0.046758 0.614717
O O5 0.558196 0.707939 0.604390
O O6 0.469515 0.893199 0.661891
O O7 0.351532 0.290632 0.726411
O O8 0.433964 0.324385 0.840702
O O9 0.311479 0.435226 0.996453
O O10 0.684692 0.698650 0.500831
O O11 0.992869 0.632775 0.620708
#
# Coordination Sequence:
#
# PCOD9276630 Si02
#       7
#     8   4   8   8   4   8   4
#     4  12  24  46  77 103 137 188 242 295 346 409
#     4  11  24  41  70 106 138 184 230 288 350 418
#     4  12  26  48  71 105 150 181 233 300 349 420
#     4  12  26  47  72 106 146 184 236 294 349 427
#     4  10  20  40  64 102 142 166 236 280 336 408
#     4  12  26  47  73 103 145 191 234 283 359 420
#     4  11  24  41  72 104 140 188 226 292 358 410
#
# _framework density 24.704222000000001
#
# number of rings (size 3 to 8) (size 9 to 14) (size 15 to 20)
#    0.000    0.364    5.455    4.364    0.000    3.636 
#    0.000    1.818    0.000    0.000    0.000    0.000 
#    0.000    0.000    0.000    0.000    0.000    0.000 
#
# Total GULP energy -122785.601970 kJ/mol
# GULP energy per Si atom -5581.163726 kJ/mol
# Density = 2.464799 g / cm^3
# Si number density = 24.704222 Si / 1000 Ang^3
#
#
#
# Elastic Constant Matrix: (Units=GPa)
#
#
# Indices 1 2 3 4 5 6 
#
# 1 47.4434 4.3761 14.3956 0.0000 -1.4248 0.0000
# 2 4.3761 95.9073 31.6690 0.0000 -4.8191 0.0000
# 3 14.3956 31.6690 169.8798 0.0000 1.0408 0.0000
# 4 0.0000 0.0000 0.0000 444.5027 0.0000 921.5774
# 5 -1.4248 -4.8191 1.0408 0.0000 41.8510 0.0000
# 6 0.0000 0.0000 0.0000 921.5774 0.0000 2040.6047
#
#
#
# Elastic Compliance Matrix: (Units=1/GPa)
#
#
# Indices 1 2 3 4 5 6 
#
# 1 0.021672 -0.000366 -0.001773 0.000000 0.000740 0.000000
# 2 -0.000366 0.011192 -0.002063 0.000000 0.001328 0.000000
# 3 -0.001773 -0.002063 0.006424 0.000000 -0.000458 0.000000
# 4 0.000000 0.000000 0.000000 0.035336 0.000000 -0.015958
# 5 0.000740 0.001328 -0.000458 0.000000 0.024084 0.000000
# 6 0.000000 0.000000 0.000000 -0.015958 0.000000 0.007697
#
#
# Mechanical properties :
#
#
# Convention : Reuss Voigt Hill
#
# Bulk Modulus (GPa) = 32.38081 46.01243 39.19662
# Shear Modulus (GPa) = 39.96717 522.91101 281.43909
#
# Velocity S-wave (km/s) = 4.02659 14.56462 10.68507
# Velocity P-wave (km/s) = 5.89523 17.36385 12.96644
#
# Compressibility (1/GPa) = 0.03088249
#
# Stress axis : x y z
#
# Youngs Moduli (GPa) = 46.14323 89.35349 155.66141
#
# Poissons Ratio (x) = 0.03273 0.27594
# Poissons Ratio (y) = 0.01690 0.32119
# Poissons Ratio (z) = 0.08180 0.18437
#
# Static dielectric constant tensor:
#      x y z
#    x 1.484550 0.000000 0.052490 
#    y 0.000000 1.945190 0.000000 
#    z 0.052490 0.000000 1.846900 
# 
# From -- ./inp_files/54451.got.cif
#   From: 2010.05.17/outbox.cif.g08.bks.cpg/sg15_28_cif.got.tgz:54451.got - 2010.06.03 18:47:42.
