data_PCOD9276816
_publ_section_title
;
Structure prediction by ZEFSAII (Michael W. Deem and Ramdas Pophale) SiO2 
 PCOD9276816
Probable space group: C 2/C
;
_chemical_formula_sum "Si O2"
_cell_formula_units_Z 40
_cell_length_a 26.090030
_cell_length_b 4.997305
_cell_length_c 17.923721
_cell_angle_alpha 90.000000
_cell_angle_beta 140.924968
_cell_angle_gamma 90.000000
_cell_volume 1473.030710
_symmetry_space_group_name_H-M "C 2/C"
_symmetry_group_IT_number 15
_symmetry_cell_setting 'monoclinic'
loop_
_space_group_symop_operation_xyz
x,y,z
-x,y,1/2-z
-x,-y,-z
x,-y,1/2+z
1/2+x,1/2+y,z
1/2-x,1/2+y,1/2-z
1/2-x,1/2-y,-z
1/2+x,1/2-y,1/2+z
loop_
_atom_site_type_symbol
_atom_site_label
_atom_site_fract_x
_atom_site_fract_y
_atom_site_fract_z
Si Si1 0.868782 0.765831 0.551090
Si Si2 0.923347 0.699254 0.916235
Si Si3 0.302857 0.772237 0.398368
Si Si4 0.178152 0.110496 0.870398
Si Si5 0.979403 0.000534 0.347729
O O1 0.859073 0.462079 0.514950
O O2 0.816595 0.963947 0.437537
O O3 0.838338 0.840839 0.599251
O O4 0.960632 0.851374 0.639504
O O5 0.835105 0.642148 0.852936
O O6 0.920504 0.811624 0.830243
O O7 0.000000 0.500000 0.000000
O O8 0.958791 0.896988 0.019417
O O9 0.214896 0.860960 0.328561
O O10 0.084176 0.209680 0.758998
O O11 0.250000 0.250000 0.000000
#
# Coordination Sequence:
#
# PCOD9276816 Si02
#       5
#     8   8   8   8   8
#     4  10  20  40  65  91 129 169 219 268 327 401
#     4  10  20  41  63  88 126 169 230 269 316 399
#     4  10  21  40  63  92 129 169 212 279 327 391
#     4  10  22  42  63  99 135 172 215 278 347 405
#     4  10  21  40  65  94 126 176 221 274 331 397
#
# _framework density 27.154900999999999
#
# number of rings (size 3 to 8) (size 9 to 14) (size 15 to 20)
#    0.000    2.000    2.000    1.200    0.000    0.000 
#   18.000    4.000    0.000    0.000    0.000    0.000 
#    0.000    0.000    0.000    0.000    0.000    0.000 
#
# Total GULP energy -111466.639190 kJ/mol
# GULP energy per Si atom -5573.331959 kJ/mol
# Density = 2.709309 g / cm^3
# Si number density = 27.154901 Si / 1000 Ang^3
#
#
#
# Elastic Constant Matrix: (Units=GPa)
#
#
# Indices 1 2 3 4 5 6 
#
# 1 173.5407 18.1164 20.0763 0.0000 28.7202 -0.0005
# 2 18.1164 49.9873 5.1370 0.0042 -10.8805 0.0004
# 3 20.0763 5.1370 103.0159 0.0013 17.8025 0.0000
# 4 0.0000 0.0042 0.0013 22.2122 -0.0001 2.0447
# 5 28.7202 -10.8805 17.8025 -0.0001 55.5985 -0.0003
# 6 -0.0005 0.0004 0.0000 2.0447 -0.0003 34.7828
#
#
#
# Elastic Compliance Matrix: (Units=1/GPa)
#
#
# Indices 1 2 3 4 5 6 
#
# 1 0.006827 -0.003301 -0.000471 0.000001 -0.004022 0.000000
# 2 -0.003301 0.022830 -0.001653 -0.000004 0.006703 0.000000
# 3 -0.000471 -0.001653 0.010475 0.000000 -0.003434 0.000000
# 4 0.000001 -0.000004 0.000000 0.045265 -0.000001 -0.002661
# 5 -0.004022 0.006703 -0.003434 -0.000001 0.022475 0.000000
# 6 0.000000 0.000000 0.000000 -0.002661 0.000000 0.028906
#
#
# Mechanical properties :
#
#
# Convention : Reuss Voigt Hill
#
# Bulk Modulus (GPa) = 34.15144 45.91146 40.03145
# Shear Modulus (GPa) = 31.76813 41.39964 36.58388
#
# Velocity S-wave (km/s) = 3.42407 3.90881 3.67444
# Velocity P-wave (km/s) = 5.31377 6.10866 5.72503
#
# Compressibility (1/GPa) = 0.02928134
#
# Stress axis : x y z
#
# Youngs Moduli (GPa) = 146.47624 43.80132 95.46582
#
# Poissons Ratio (x) = 0.14460 0.04495
# Poissons Ratio (y) = 0.48356 0.15784
# Poissons Ratio (z) = 0.06897 0.07242
#
# Static dielectric constant tensor:
#      x y z
#    x 2.310000 0.000000 -0.098760 
#    y 0.000000 2.223690 0.000010 
#    z -0.098760 0.000010 2.330580 
# 
# From -- ./inp_files/254529.got.cif
#   From: 2010.05.17/outbox.cif.g08.bks.cpg/sg15_128_cif.got.tgz:254529.got - 2010.06.03 18:47:42.
