data_PCOD9276027
_publ_section_title
;
Structure prediction by ZEFSAII (Michael W. Deem and Ramdas Pophale) SiO2 
 PCOD9276027
Probable space group: C 2/C
;
_chemical_formula_sum "Si O2"
_cell_formula_units_Z 56
_cell_length_a 11.856963
_cell_length_b 24.149775
_cell_length_c 9.129850
_cell_angle_alpha 90.000000
_cell_angle_beta 108.665279
_cell_angle_gamma 90.000000
_cell_volume 2476.769497
_symmetry_space_group_name_H-M "C 2/C"
_symmetry_group_IT_number 15
_symmetry_cell_setting 'monoclinic'
loop_
_space_group_symop_operation_xyz
x,y,z
-x,y,1/2-z
-x,-y,-z
x,-y,1/2+z
1/2+x,1/2+y,z
1/2-x,1/2+y,1/2-z
1/2-x,1/2-y,-z
1/2+x,1/2-y,1/2+z
loop_
_atom_site_type_symbol
_atom_site_label
_atom_site_fract_x
_atom_site_fract_y
_atom_site_fract_z
Si Si1 0.578012 0.028987 0.162182
Si Si2 0.789485 0.824839 0.639111
Si Si3 0.113366 0.093946 0.896527
Si Si4 0.233990 0.508924 0.982903
Si Si5 0.150045 0.209089 0.013924
Si Si6 0.439602 0.777925 0.077513
Si Si7 0.446747 0.425889 0.585471
O O1 0.500000 0.064270 0.250000
O O2 0.640838 0.990902 0.311287
O O3 0.500000 0.000000 0.000000
O O4 0.687790 0.045408 0.102329
O O5 0.802245 0.819763 0.818084
O O6 0.650908 0.820807 0.536030
O O7 0.856581 0.770583 0.606330
O O8 0.869658 0.873327 0.604165
O O9 0.000000 0.079201 0.750000
O O10 0.226500 0.052357 0.942810
O O11 0.137433 0.159551 0.890242
O O12 0.055656 0.090095 0.032250
O O13 0.354919 0.533792 0.970783
O O14 0.034517 0.246282 0.011533
O O15 0.250000 0.250000 0.000000
O O16 0.500000 0.802502 0.250000
O O17 0.500000 0.454272 0.750000
#
# Coordination Sequence:
#
# PCOD9276027 Si02
#       7
#     8   8   8   8   8   8   8
#     4   9  20  41  64  86 123 176 222 266 320 377
#     4  10  20  39  67  89 124 173 215 260 334 395
#     4  12  25  39  61  98 136 169 213 273 339 395
#     4  11  22  39  66  99 131 171 219 267 330 400
#     4  11  24  40  63  93 132 171 217 277 337 390
#     4   9  19  39  63  90 118 162 216 267 323 394
#     4  12  21  40  66  95 132 172 214 268 335 405
#
# _framework density 22.610098000000001
#
# number of rings (size 3 to 8) (size 9 to 14) (size 15 to 20)
#    0.000    1.429    2.857    3.000    2.000    1.143 
#    0.000    6.429    0.000    0.000    0.000    0.000 
#    0.000    0.000    0.000    0.000    0.000    0.000 
#
# Total GULP energy -155912.642334 kJ/mol
# GULP energy per Si atom -5568.308655 kJ/mol
# Density = 2.255864 g / cm^3
# Si number density = 22.610098 Si / 1000 Ang^3
#
#
#
# Elastic Constant Matrix: (Units=GPa)
#
#
# Indices 1 2 3 4 5 6 
#
# 1 88.3297 15.7856 42.3389 0.0000 4.1595 0.0000
# 2 15.7856 71.5201 23.5920 0.0000 4.3970 0.0000
# 3 42.3389 23.5920 105.9078 0.0000 11.7061 0.0000
# 4 0.0000 0.0000 0.0000 15.4457 0.0000 3.7825
# 5 4.1595 4.3970 11.7061 0.0000 39.4994 0.0000
# 6 0.0000 0.0000 0.0000 3.7825 0.0000 28.2929
#
#
#
# Elastic Compliance Matrix: (Units=1/GPa)
#
#
# Indices 1 2 3 4 5 6 
#
# 1 0.014128 -0.001362 -0.005373 0.000000 0.000256 0.000000
# 2 -0.001362 0.015241 -0.002770 0.000000 -0.000732 0.000000
# 3 -0.005373 -0.002770 0.012521 0.000000 -0.002836 0.000000
# 4 0.000000 0.000000 0.000000 0.066934 0.000000 -0.008948
# 5 0.000256 -0.000732 -0.002836 0.000000 0.026212 0.000000
# 6 0.000000 0.000000 0.000000 -0.008948 0.000000 0.036541
#
#
# Mechanical properties :
#
#
# Convention : Reuss Voigt Hill
#
# Bulk Modulus (GPa) = 43.70437 47.68786 45.69611
# Shear Modulus (GPa) = 25.22540 28.91700 27.07120
#
# Velocity S-wave (km/s) = 3.34379 3.58011 3.46396
# Velocity P-wave (km/s) = 5.85486 6.18278 6.02105
#
# Compressibility (1/GPa) = 0.02288101
#
# Stress axis : x y z
#
# Youngs Moduli (GPa) = 70.78193 65.61110 79.86807
#
# Poissons Ratio (x) = 0.08934 0.42912
# Poissons Ratio (y) = 0.09638 0.22122
# Poissons Ratio (z) = 0.38031 0.18173
#
# Static dielectric constant tensor:
#      x y z
#    x 2.223640 0.000000 0.217670 
#    y 0.000000 2.012870 0.000000 
#    z 0.217670 0.000000 2.069070 
# 
# From -- ./inp_files/34331.got.cif
#   From: 2010.05.17/outbox.cif.g08.bks.cpg/sg15_18_cif.got.tgz:34331.got - 2010.06.03 18:47:42.
