data_PCOD9276988
_publ_section_title
;
Structure prediction by ZEFSAII (Michael W. Deem and Ramdas Pophale) SiO2 
 PCOD9276988
Probable space group: C 2/C
;
_chemical_formula_sum "Si O2"
_cell_formula_units_Z 60
_cell_length_a 10.585816
_cell_length_b 19.736286
_cell_length_c 23.457394
_cell_angle_alpha 90.000000
_cell_angle_beta 33.141055
_cell_angle_gamma 90.000000
_cell_volume 2679.293328
_symmetry_space_group_name_H-M "C 2/C"
_symmetry_group_IT_number 15
_symmetry_cell_setting 'monoclinic'
loop_
_space_group_symop_operation_xyz
x,y,z
-x,y,1/2-z
-x,-y,-z
x,-y,1/2+z
1/2+x,1/2+y,z
1/2-x,1/2+y,1/2-z
1/2-x,1/2-y,-z
1/2+x,1/2-y,1/2+z
loop_
_atom_site_type_symbol
_atom_site_label
_atom_site_fract_x
_atom_site_fract_y
_atom_site_fract_z
Si Si1 0.000000 0.856854 0.250000
Si Si2 0.118718 0.070831 0.970375
Si Si3 0.468338 0.241686 0.344744
Si Si4 0.196978 0.324892 0.934235
Si Si5 0.972015 0.803952 0.060513
Si Si6 0.449040 0.074407 0.614709
Si Si7 0.761198 0.563712 0.172508
Si Si8 0.342567 0.637193 0.179640
O O1 0.885173 0.804959 0.338259
O O2 0.183578 0.900417 0.216668
O O3 0.378124 0.066915 0.897449
O O4 0.115961 0.121422 0.918142
O O5 0.959324 0.106730 0.079396
O O6 0.000000 0.000000 0.000000
O O7 0.249052 0.199215 0.448892
O O8 0.586467 0.274537 0.355671
O O9 0.648513 0.193641 0.244543
O O10 0.168021 0.368300 0.887306
O O11 0.459223 0.328424 0.856609
O O12 0.125392 0.248357 0.949693
O O13 0.063759 0.368771 0.031557
O O14 0.426136 0.999208 0.597171
O O15 0.500000 0.548730 0.250000
O O16 0.756136 0.578432 0.241828
#
# Coordination Sequence:
#
# PCOD9276988 Si02
#       8
#     4   8   8   8   8   8   8   8
#     4  12  24  42  64 104 134 172 238 282 356 402
#     4  11  28  48  67  99 142 191 229 282 360 430
#     4  11  24  42  71 101 134 179 227 303 338 417
#     4  10  21  41  66 100 133 179 232 287 346 413
#     4  11  24  44  69  99 138 178 232 286 352 414
#     4  11  24  42  67  97 142 180 225 292 344 423
#     4  10  20  40  66  99 132 175 231 282 342 410
#     4  10  23  41  73  96 135 184 231 282 350 416
#
# _framework density 22.393964
#
# number of rings (size 3 to 8) (size 9 to 14) (size 15 to 20)
#    0.000    1.333    3.333    1.200    3.733    2.133 
#    2.400    1.333    0.000    0.000    0.000    0.000 
#    0.000    0.000    0.000    0.000    0.000    0.000 
#
# Total GULP energy -167650.747544 kJ/mol
# GULP energy per Si atom -5588.358251 kJ/mol
# Density = 2.234299 g / cm^3
# Si number density = 22.393964 Si / 1000 Ang^3
#
#
#
# Elastic Constant Matrix: (Units=GPa)
#
#
# Indices 1 2 3 4 5 6 
#
# 1 107.9937 57.3432 19.4712 -0.0046 -16.1277 0.0015
# 2 57.3432 130.0785 13.6301 -0.0087 -24.9033 0.0022
# 3 19.4712 13.6301 34.9346 0.0059 -19.0992 0.0113
# 4 -0.0046 -0.0087 0.0059 19.4365 0.0110 -9.0897
# 5 -16.1277 -24.9033 -19.0992 0.0110 27.8554 -0.0014
# 6 0.0015 0.0022 0.0113 -9.0897 -0.0014 31.0325
#
#
#
# Elastic Compliance Matrix: (Units=1/GPa)
#
#
# Indices 1 2 3 4 5 6 
#
# 1 0.012960 -0.005346 -0.005836 0.000005 -0.001278 0.000003
# 2 -0.005346 0.011528 0.003878 -0.000004 0.009870 -0.000003
# 3 -0.005836 0.003878 0.048649 -0.000047 0.033445 -0.000030
# 4 0.000005 -0.000004 -0.000047 0.059616 -0.000056 0.017462
# 5 -0.001278 0.009870 0.033445 -0.000056 0.066915 -0.000026
# 6 0.000003 -0.000003 -0.000030 0.017462 -0.000026 0.037339
#
#
# Mechanical properties :
#
#
# Convention : Reuss Voigt Hill
#
# Bulk Modulus (GPa) = 17.08571 50.43284 33.75927
# Shear Modulus (GPa) = 18.44164 27.83570 23.13867
#
# Velocity S-wave (km/s) = 2.87280 3.52945 3.21792
# Velocity P-wave (km/s) = 4.31858 6.25931 5.37722
#
# Compressibility (1/GPa) = 0.05852844
#
# Stress axis : x y z
#
# Youngs Moduli (GPa) = 77.16020 86.74783 20.55527
#
# Poissons Ratio (x) = 0.46378 0.11996
# Poissons Ratio (y) = 0.41252 -0.07971
# Poissons Ratio (z) = 0.45031 -0.33641
#
# Static dielectric constant tensor:
#      x y z
#    x 1.846680 0.000000 0.015820 
#    y 0.000000 1.796890 0.000000 
#    z 0.015820 0.000000 1.861200 
# 
# From -- ./inp_files/293514.got.cif
#   From: 2010.05.17/outbox.cif.g08.bks.cpg/sg15_147_cif.got.tgz:293514.got - 2010.06.03 18:47:42.
