data_PCOD9276836
_publ_section_title
;
Structure prediction by ZEFSAII (Michael W. Deem and Ramdas Pophale) SiO2 
 PCOD9276836
Probable space group: C 2/C
;
_chemical_formula_sum "Si O2"
_cell_formula_units_Z 64
_cell_length_a 21.754890
_cell_length_b 8.971334
_cell_length_c 19.792256
_cell_angle_alpha 90.000000
_cell_angle_beta 125.962796
_cell_angle_gamma 90.000000
_cell_volume 3126.594847
_symmetry_space_group_name_H-M "C 2/C"
_symmetry_group_IT_number 15
_symmetry_cell_setting 'monoclinic'
loop_
_space_group_symop_operation_xyz
x,y,z
-x,y,1/2-z
-x,-y,-z
x,-y,1/2+z
1/2+x,1/2+y,z
1/2-x,1/2+y,1/2-z
1/2-x,1/2-y,-z
1/2+x,1/2-y,1/2+z
loop_
_atom_site_type_symbol
_atom_site_label
_atom_site_fract_x
_atom_site_fract_y
_atom_site_fract_z
Si Si1 0.030995 0.110343 0.200862
Si Si2 0.662076 0.606345 0.075700
Si Si3 0.710589 0.451573 0.807767
Si Si4 0.435144 0.686982 0.619915
Si Si5 0.191043 0.825629 0.175272
Si Si6 0.048429 0.363445 0.612225
Si Si7 0.713100 0.715481 0.903499
Si Si8 0.952419 0.299511 0.415345
O O1 0.121502 0.085566 0.258952
O O2 0.012024 0.207788 0.123050
O O3 0.000000 0.181075 0.250000
O O4 0.989366 0.951727 0.168991
O O5 0.661047 0.436366 0.097755
O O6 0.747554 0.665498 0.120441
O O7 0.619137 0.705884 0.103657
O O8 0.616090 0.636359 0.977240
O O9 0.755182 0.299713 0.821942
O O10 0.723560 0.561496 0.752368
O O11 0.733548 0.551972 0.887462
O O12 0.486343 0.824211 0.628680
O O13 0.377016 0.722304 0.642729
O O14 0.121250 0.740588 0.165255
O O15 0.069584 0.536147 0.623411
O O16 0.009155 0.321662 0.514998
O O17 0.750000 0.750000 0.000000
#
# Coordination Sequence:
#
# PCOD9276836 Si02
#       8
#     8   8   8   8   8   8   8   8
#     4  12  23  42  63  90 132 169 215 263 321 402
#     4  10  20  40  67  93 127 167 219 275 319 385
#     4  12  25  40  65  94 128 173 216 269 329 382
#     4  10  20  40  65  93 123 175 215 256 332 392
#     4  12  24  40  65  95 125 166 217 277 321 390
#     4  10  21  39  69  94 124 162 217 272 321 383
#     4  10  22  42  64  91 132 174 215 261 318 389
#     4  10  21  40  66  98 125 163 216 273 321 383
#
# _framework density 20.469553999999999
#
# number of rings (size 3 to 8) (size 9 to 14) (size 15 to 20)
#    0.000    1.250    3.750    2.250    1.750    3.000 
#    2.250    3.125    0.000    0.000    0.000    0.000 
#    0.000    0.000    0.000    0.000    0.000    0.000 
#
# Total GULP energy -178824.342017 kJ/mol
# GULP energy per Si atom -5588.260688 kJ/mol
# Density = 2.042296 g / cm^3
# Si number density = 20.469554 Si / 1000 Ang^3
#
#
#
# Elastic Constant Matrix: (Units=GPa)
#
#
# Indices 1 2 3 4 5 6 
#
# 1 146.1723 61.6902 25.5333 0.0000 -2.4372 0.0000
# 2 61.6902 126.3392 24.8042 0.0000 5.8381 0.0000
# 3 25.5333 24.8042 36.5130 0.0000 -7.1987 0.0000
# 4 0.0000 0.0000 0.0000 26.2753 0.0000 8.8611
# 5 -2.4372 5.8381 -7.1987 0.0000 31.1010 0.0000
# 6 0.0000 0.0000 0.0000 8.8611 0.0000 34.0652
#
#
#
# Elastic Compliance Matrix: (Units=1/GPa)
#
#
# Indices 1 2 3 4 5 6 
#
# 1 0.009070 -0.003728 -0.003701 0.000000 0.000554 0.000000
# 2 -0.003728 0.011001 -0.005586 0.000000 -0.003650 0.000000
# 3 -0.003701 -0.005586 0.035542 0.000000 0.008985 0.000000
# 4 0.000000 0.000000 0.000000 0.041718 0.000000 -0.010852
# 5 0.000554 -0.003650 0.008985 0.000000 0.034962 0.000000
# 6 0.000000 0.000000 0.000000 -0.010852 0.000000 0.032178
#
#
# Mechanical properties :
#
#
# Convention : Reuss Voigt Hill
#
# Bulk Modulus (GPa) = 33.80309 59.23110 46.51709
# Shear Modulus (GPa) = 24.95483 31.42141 28.18812
#
# Velocity S-wave (km/s) = 3.49538 3.92220 3.71492
# Velocity P-wave (km/s) = 5.73061 7.03637 6.41679
#
# Compressibility (1/GPa) = 0.02958309
#
# Stress axis : x y z
#
# Youngs Moduli (GPa) = 110.24998 90.90215 28.13585
#
# Poissons Ratio (x) = 0.33887 0.10414
# Poissons Ratio (y) = 0.41100 0.15716
# Poissons Ratio (z) = 0.40805 0.50777
#
# Static dielectric constant tensor:
#      x y z
#    x 1.738840 0.000000 -0.005920 
#    y 0.000000 1.686850 0.000000 
#    z -0.005920 0.000000 1.794060 
# 
# From -- ./inp_files/251907.got.cif
#   From: 2010.05.17/outbox.cif.g08.bks.cpg/sg15_126_cif.got.tgz:251907.got - 2010.06.03 18:47:42.
