data_PCOD9276392
_publ_section_title
;
Structure prediction by ZEFSAII (Michael W. Deem and Ramdas Pophale) SiO2 
 PCOD9276392
Probable space group: C 2/C
;
_chemical_formula_sum "Si O2"
_cell_formula_units_Z 48
_cell_length_a 12.356725
_cell_length_b 7.509060
_cell_length_c 26.496542
_cell_angle_alpha 90.000000
_cell_angle_beta 56.316463
_cell_angle_gamma 90.000000
_cell_volume 2045.788485
_symmetry_space_group_name_H-M "C 2/C"
_symmetry_group_IT_number 15
_symmetry_cell_setting 'monoclinic'
loop_
_space_group_symop_operation_xyz
x,y,z
-x,y,1/2-z
-x,-y,-z
x,-y,1/2+z
1/2+x,1/2+y,z
1/2-x,1/2+y,1/2-z
1/2-x,1/2-y,-z
1/2+x,1/2-y,1/2+z
loop_
_atom_site_type_symbol
_atom_site_label
_atom_site_fract_x
_atom_site_fract_y
_atom_site_fract_z
Si Si1 0.603618 0.514343 0.350049
Si Si2 0.861535 0.376089 0.107467
Si Si3 0.624876 0.111613 0.687144
Si Si4 0.359745 0.066746 0.929329
Si Si5 0.814940 0.002558 0.439237
Si Si6 0.370636 0.486714 0.772160
O O1 0.609889 0.668946 0.390354
O O2 0.732392 0.403517 0.326451
O O3 0.460486 0.429953 0.392571
O O4 0.624501 0.575964 0.286849
O O5 0.785266 0.431895 0.076959
O O6 0.764264 0.424433 0.178544
O O7 0.003384 0.462467 0.077623
O O8 0.500000 0.044137 0.750000
O O9 0.625033 0.020071 0.632900
O O10 0.611631 0.325458 0.692740
O O11 0.328503 0.280360 0.933901
O O12 0.246559 0.971382 0.989712
O O13 0.500000 0.603053 0.750000
#
# Coordination Sequence:
#
# PCOD9276392 Si02
#       6
#     8   8   8   8   8   8
#     4  11  23  37  59  91 123 155 200 253 304 367
#     4  11  20  39  62  89 116 157 207 252 299 358
#     4  11  22  41  59  85 125 155 195 250 308 362
#     4  10  21  38  64  87 116 161 203 245 302 365
#     4  10  20  40  61  88 118 158 206 245 297 370
#     4  11  19  38  63  84 116 157 203 247 303 359
#
# _framework density 23.462834999999998
#
# number of rings (size 3 to 8) (size 9 to 14) (size 15 to 20)
#    0.000    1.333    3.333    5.500    0.000    1.333 
#    6.000    0.833    0.000    0.000    0.000    0.000 
#    0.000    0.000    0.000    0.000    0.000    0.000 
#
# Total GULP energy -133957.360268 kJ/mol
# GULP energy per Si atom -5581.556678 kJ/mol
# Density = 2.340943 g / cm^3
# Si number density = 23.462835 Si / 1000 Ang^3
#
#
#
# Elastic Constant Matrix: (Units=GPa)
#
#
# Indices 1 2 3 4 5 6 
#
# 1 146.6776 17.5340 57.4715 0.0000 0.0203 0.0000
# 2 17.5340 20.2106 -6.4903 0.0001 1.1548 0.0001
# 3 57.4715 -6.4903 172.3668 0.0000 -2.8765 0.0000
# 4 0.0000 0.0001 0.0000 105.3263 0.0000 62.1486
# 5 0.0203 1.1548 -2.8765 0.0000 33.6736 0.0000
# 6 0.0000 0.0001 0.0000 62.1486 0.0000 78.7585
#
#
#
# Elastic Compliance Matrix: (Units=1/GPa)
#
#
# Indices 1 2 3 4 5 6 
#
# 1 0.009252 -0.009129 -0.003428 0.000000 0.000015 0.000000
# 2 -0.009129 0.059173 0.005246 0.000000 -0.001576 0.000000
# 3 -0.003428 0.005246 0.007149 0.000000 0.000433 0.000000
# 4 0.000000 0.000000 0.000000 0.017767 0.000000 -0.014020
# 5 0.000015 -0.001576 0.000433 0.000000 0.029788 0.000000
# 6 0.000000 0.000000 0.000000 -0.014020 0.000000 0.023760
#
#
# Mechanical properties :
#
#
# Convention : Reuss Voigt Hill
#
# Bulk Modulus (GPa) = 16.40641 52.92060 34.66350
# Shear Modulus (GPa) = 27.49816 61.60099 44.54957
#
# Velocity S-wave (km/s) = 3.42714 5.12949 4.36217
# Velocity P-wave (km/s) = 4.76110 7.59515 6.33855
#
# Compressibility (1/GPa) = 0.06095178
#
# Stress axis : x y z
#
# Youngs Moduli (GPa) = 108.08172 16.89952 139.87101
#
# Poissons Ratio (x) = 0.15427 0.47954
# Poissons Ratio (y) = 0.98665 -0.73370
# Poissons Ratio (z) = 0.37055 -0.08865
#
# Static dielectric constant tensor:
#      x y z
#    x 2.080160 0.000000 -0.060780 
#    y 0.000000 1.950200 0.000000 
#    z -0.060780 0.000000 1.909630 
# 
# From -- ./inp_files/291046.got.cif
#   From: 2010.05.17/outbox.cif.g08.bks.cpg/sg15_146_cif.got.tgz:291046.got - 2010.06.03 18:47:42.
