data_PCOD9276490
_publ_section_title
;
Structure prediction by ZEFSAII (Michael W. Deem and Ramdas Pophale) SiO2 
 PCOD9276490
Probable space group: C 2/C
;
_chemical_formula_sum "Si O2"
_cell_formula_units_Z 52
_cell_length_a 12.700327
_cell_length_b 11.790803
_cell_length_c 17.714426
_cell_angle_alpha 90.000000
_cell_angle_beta 126.371677
_cell_angle_gamma 90.000000
_cell_volume 2135.906064
_symmetry_space_group_name_H-M "C 2/C"
_symmetry_group_IT_number 15
_symmetry_cell_setting 'monoclinic'
loop_
_space_group_symop_operation_xyz
x,y,z
-x,y,1/2-z
-x,-y,-z
x,-y,1/2+z
1/2+x,1/2+y,z
1/2-x,1/2+y,1/2-z
1/2-x,1/2-y,-z
1/2+x,1/2-y,1/2+z
loop_
_atom_site_type_symbol
_atom_site_label
_atom_site_fract_x
_atom_site_fract_y
_atom_site_fract_z
Si Si1 0.261091 0.564402 0.840338
Si Si2 0.159259 0.307756 0.551250
Si Si3 0.444540 0.282817 0.648456
Si Si4 0.938013 0.989667 0.303690
Si Si5 0.573513 0.848628 0.942588
Si Si6 0.338353 0.399596 0.997355
Si Si7 0.000000 0.576386 0.250000
O O1 0.301976 0.683929 0.895625
O O2 0.300723 0.562232 0.769467
O O3 0.119747 0.508549 0.786964
O O4 0.339133 0.470510 0.921685
O O5 0.308002 0.351666 0.605362
O O6 0.092657 0.291125 0.440349
O O7 0.053724 0.369722 0.559551
O O8 0.500000 0.230406 0.750000
O O9 0.555046 0.375715 0.679103
O O10 0.000000 0.966623 0.250000
O O11 0.038115 0.934075 0.403104
O O12 0.638785 0.734196 0.003608
O O13 0.523096 0.846699 0.834181
O O14 0.702987 0.925432 0.985056
#
# Coordination Sequence:
#
# PCOD9276490 Si02
#       7
#     8   8   8   8   8   8   4
#     4  11  22  43  67  88 131 170 221 254 334 388
#     4  11  22  43  66  94 130 176 212 275 327 395
#     4  10  24  41  64  95 129 169 225 262 326 396
#     4  11  22  38  63  94 121 165 214 264 308 388
#     4  10  22  39  62  92 131 163 216 263 326 370
#     4  10  20  40  62  91 121 168 206 265 321 381
#     4  10  26  40  62 100 130 172 212 278 314 392
#
# _framework density 24.345638000000001
#
# number of rings (size 3 to 8) (size 9 to 14) (size 15 to 20)
#    0.000    1.538    3.077    1.385    6.462    0.000 
#    2.769    0.769    0.000    0.000    0.000    0.000 
#    0.000    0.000    0.000    0.000    0.000    0.000 
#
# Total GULP energy -145009.997113 kJ/mol
# GULP energy per Si atom -5577.307581 kJ/mol
# Density = 2.429023 g / cm^3
# Si number density = 24.345638 Si / 1000 Ang^3
#
#
#
# Elastic Constant Matrix: (Units=GPa)
#
#
# Indices 1 2 3 4 5 6 
#
# 1 141.5919 -10.8488 40.7973 0.0000 -21.1230 0.0000
# 2 -10.8488 51.5107 -6.7971 0.0000 -8.7203 0.0000
# 3 40.7973 -6.7971 70.9433 0.0000 -1.3776 0.0000
# 4 0.0000 0.0000 0.0000 1.3402 0.0000 1.9664
# 5 -21.1230 -8.7203 -1.3776 0.0000 32.7809 0.0000
# 6 0.0000 0.0000 0.0000 1.9664 0.0000 19.8312
#
#
#
# Elastic Compliance Matrix: (Units=1/GPa)
#
#
# Indices 1 2 3 4 5 6 
#
# 1 0.009773 0.002507 -0.005249 0.000000 0.006744 0.000000
# 2 0.002507 0.021276 0.000738 0.000000 0.007306 0.000000
# 3 -0.005249 0.000738 0.017137 0.000000 -0.002466 0.000000
# 4 0.000000 0.000000 0.000000 0.873179 0.000000 -0.086581
# 5 0.006744 0.007306 -0.002466 0.000000 0.036691 0.000000
# 6 0.000000 0.000000 0.000000 -0.086581 0.000000 0.059011
#
#
# Mechanical properties :
#
#
# Convention : Reuss Voigt Hill
#
# Bulk Modulus (GPa) = 22.63478 34.48317 28.55898
# Shear Modulus (GPa) = 4.82719 26.85010 15.83864
#
# Velocity S-wave (km/s) = 1.40964 3.32455 2.55340
# Velocity P-wave (km/s) = 3.45932 5.37881 4.52209
#
# Compressibility (1/GPa) = 0.04417979
#
# Stress axis : x y z
#
# Youngs Moduli (GPa) = 102.32096 47.00154 58.35258
#
# Poissons Ratio (x) = -0.11785 0.30630
# Poissons Ratio (y) = -0.25656 -0.04309
# Poissons Ratio (z) = 0.53709 -0.03471
#
# Static dielectric constant tensor:
#      x y z
#    x 2.121950 0.000000 -0.048650 
#    y 0.000000 2.007750 0.000000 
#    z -0.048650 0.000000 1.916260 
# 
# From -- ./inp_files/144334.got.cif
#   From: 2010.05.17/outbox.cif.g08.bks.cpg/sg15_73_cif.got.tgz:144334.got - 2010.06.03 18:47:42.
