data_PCOD9276562
_publ_section_title
;
Structure prediction by ZEFSAII (Michael W. Deem and Ramdas Pophale) SiO2 
 PCOD9276562
Probable space group: C 2/C
;
_chemical_formula_sum "Si O2"
_cell_formula_units_Z 48
_cell_length_a 14.142759
_cell_length_b 17.963830
_cell_length_c 18.116639
_cell_angle_alpha 90.000000
_cell_angle_beta 148.130784
_cell_angle_gamma 90.000000
_cell_volume 2430.132335
_symmetry_space_group_name_H-M "C 2/C"
_symmetry_group_IT_number 15
_symmetry_cell_setting 'monoclinic'
loop_
_space_group_symop_operation_xyz
x,y,z
-x,y,1/2-z
-x,-y,-z
x,-y,1/2+z
1/2+x,1/2+y,z
1/2-x,1/2+y,1/2-z
1/2-x,1/2-y,-z
1/2+x,1/2-y,1/2+z
loop_
_atom_site_type_symbol
_atom_site_label
_atom_site_fract_x
_atom_site_fract_y
_atom_site_fract_z
Si Si1 0.482295 0.404457 0.828482
Si Si2 0.411758 0.843964 0.376696
Si Si3 0.418986 0.427077 0.279733
Si Si4 0.340889 0.170803 0.584803
Si Si5 0.818851 0.286037 0.829932
Si Si6 0.949645 0.224890 0.632391
O O1 0.500000 0.397357 0.750000
O O2 0.442323 0.489531 0.823145
O O3 0.321202 0.350987 0.746862
O O4 0.667081 0.377807 0.988532
O O5 0.286260 0.899604 0.340597
O O6 0.563168 0.871419 0.420591
O O7 0.288816 0.790998 0.244501
O O8 0.521909 0.791701 0.505668
O O9 0.500000 0.431972 0.250000
O O10 0.526356 0.357529 0.386296
O O11 0.500000 0.181615 0.750000
O O12 0.250000 0.250000 0.500000
O O13 0.920049 0.284040 0.819175
O O14 0.750000 0.250000 0.500000
O O15 0.000000 0.217091 0.750000
#
# Coordination Sequence:
#
# PCOD9276562 Si02
#       6
#     8   8   8   8   8   8
#     4  11  22  41  62  92 127 163 206 256 313 369
#     4  11  22  38  63  94 120 161 213 253 307 368
#     4   9  21  40  61  88 125 161 205 257 302 365
#     4  12  23  40  64  92 126 164 207 259 313 373
#     4  11  21  35  65  91 119 161 208 256 305 364
#     4  10  20  40  63  88 119 161 209 253 300 362
#
# _framework density 19.752009999999999
#
# number of rings (size 3 to 8) (size 9 to 14) (size 15 to 20)
#    0.000    1.333    3.333    4.500    0.000    0.667 
#    3.000    1.667    0.000    0.000    0.000    0.000 
#    0.000    0.000    0.000    0.000    0.000    0.000 
#
# Total GULP energy -133637.578881 kJ/mol
# GULP energy per Si atom -5568.232453 kJ/mol
# Density = 1.970705 g / cm^3
# Si number density = 19.752010 Si / 1000 Ang^3
#
#
#
# Elastic Constant Matrix: (Units=GPa)
#
#
# Indices 1 2 3 4 5 6 
#
# 1 118.7281 52.3724 20.8254 0.0021 31.2014 0.0001
# 2 52.3724 122.3403 48.8069 0.0034 21.1961 0.0010
# 3 20.8254 48.8069 100.0924 0.0087 19.7385 0.0028
# 4 0.0021 0.0034 0.0087 18.5255 0.0018 5.6840
# 5 31.2014 21.1961 19.7385 0.0018 36.7380 -0.0003
# 6 0.0001 0.0010 0.0028 5.6840 -0.0003 30.9650
#
#
#
# Elastic Compliance Matrix: (Units=1/GPa)
#
#
# Indices 1 2 3 4 5 6 
#
# 1 0.012385 -0.004284 0.001229 0.000000 -0.008707 0.000000
# 2 -0.004284 0.012067 -0.004852 0.000001 -0.000718 0.000000
# 3 0.001229 -0.004852 0.013148 -0.000005 -0.005309 0.000000
# 4 0.000000 0.000001 -0.000005 0.057201 0.000000 -0.010500
# 5 -0.008707 -0.000718 -0.005309 0.000000 0.037881 0.000001
# 6 0.000000 0.000000 0.000000 -0.010500 0.000001 0.034222
#
#
# Mechanical properties :
#
#
# Convention : Reuss Voigt Hill
#
# Bulk Modulus (GPa) = 45.89722 65.01893 55.45807
# Shear Modulus (GPa) = 26.31871 31.85611 29.08741
#
# Velocity S-wave (km/s) = 3.65424 4.02033 3.84165
# Velocity P-wave (km/s) = 6.41029 7.38511 6.91490
#
# Compressibility (1/GPa) = 0.02178781
#
# Stress axis : x y z
#
# Youngs Moduli (GPa) = 80.74425 82.86726 76.05940
#
# Poissons Ratio (x) = 0.35496 -0.09348
# Poissons Ratio (y) = 0.34587 0.36901
# Poissons Ratio (z) = -0.09924 0.40203
#
# Static dielectric constant tensor:
#      x y z
#    x 1.788130 0.000000 -0.017580 
#    y 0.000000 1.709370 0.000000 
#    z -0.017580 0.000000 1.707640 
# 
# From -- ./inp_files/206498.got.cif
#   From: 2010.05.17/outbox.cif.g08.bks.cpg/sg15_104_cif.got.tgz:206498.got - 2010.06.03 18:47:42.
