data_PCOD9276286
_publ_section_title
;
Structure prediction by ZEFSAII (Michael W. Deem and Ramdas Pophale) SiO2 
 PCOD9276286
Probable space group: C 2/C
;
_chemical_formula_sum "Si O2"
_cell_formula_units_Z 44
_cell_length_a 15.582830
_cell_length_b 16.988870
_cell_length_c 8.832177
_cell_angle_alpha 90.000000
_cell_angle_beta 81.967979
_cell_angle_gamma 90.000000
_cell_volume 2315.246225
_symmetry_space_group_name_H-M "C 2/C"
_symmetry_group_IT_number 15
_symmetry_cell_setting 'monoclinic'
loop_
_space_group_symop_operation_xyz
x,y,z
-x,y,1/2-z
-x,-y,-z
x,-y,1/2+z
1/2+x,1/2+y,z
1/2-x,1/2+y,1/2-z
1/2-x,1/2-y,-z
1/2+x,1/2-y,1/2+z
loop_
_atom_site_type_symbol
_atom_site_label
_atom_site_fract_x
_atom_site_fract_y
_atom_site_fract_z
Si Si1 0.289574 0.783410 0.144532
Si Si2 0.268269 0.082139 0.142860
Si Si3 0.000000 0.635281 0.250000
Si Si4 0.140614 0.738378 0.392760
Si Si5 0.401629 0.338306 0.809566
Si Si6 0.848433 0.433198 0.958299
O O1 0.207209 0.788523 0.275717
O O2 0.358512 0.721922 0.197710
O O3 0.250000 0.750000 0.000000
O O4 0.330306 0.865940 0.087006
O O5 0.301158 0.164972 0.065348
O O6 0.164505 0.088340 0.161405
O O7 0.295427 0.079169 0.313662
O O8 0.316655 0.013667 0.041118
O O9 0.932424 0.693462 0.185619
O O10 0.947176 0.580076 0.379213
O O11 0.100638 0.789566 0.534267
O O12 0.500000 0.359562 0.750000
#
# Coordination Sequence:
#
# PCOD9276286 Si02
#       6
#     8   8   4   8   8   8
#     4  11  19  40  64  87 120 168 198 248 315 356
#     4  10  23  40  57  88 123 165 197 244 307 371
#     4  10  20  40  58  98 120 154 206 256 304 364
#     4  10  22  37  64  91 123 153 208 252 306 364
#     4  11  23  40  65  92 121 156 214 260 293 359
#     4  11  23  37  64  83 129 163 200 246 311 370
#
# _framework density 19.004459000000001
#
# number of rings (size 3 to 8) (size 9 to 14) (size 15 to 20)
#    0.000    1.455    5.455    3.273    5.091    2.909 
#    1.636    0.909    2.000    0.000    0.000    0.000 
#    0.000    0.000    0.000    0.000    0.000    0.000 
#
# Total GULP energy -122731.610566 kJ/mol
# GULP energy per Si atom -5578.709571 kJ/mol
# Density = 1.896120 g / cm^3
# Si number density = 19.004459 Si / 1000 Ang^3
#
#
#
# Elastic Constant Matrix: (Units=GPa)
#
#
# Indices 1 2 3 4 5 6 
#
# 1 131.7545 17.5126 43.5250 0.0000 -30.1092 0.0000
# 2 17.5126 69.6162 41.3716 0.0000 -31.8817 0.0000
# 3 43.5250 41.3716 90.1775 0.0000 -19.2648 0.0000
# 4 0.0000 0.0000 0.0000 33.6081 0.0000 -9.4315
# 5 -30.1092 -31.8817 -19.2648 0.0000 39.1353 0.0000
# 6 0.0000 0.0000 0.0000 -9.4315 0.0000 18.7953
#
#
#
# Elastic Compliance Matrix: (Units=1/GPa)
#
#
# Indices 1 2 3 4 5 6 
#
# 1 0.010986 0.005001 -0.005499 0.000000 0.009819 0.000000
# 2 0.005001 0.030467 -0.011474 0.000000 0.023020 0.000000
# 3 -0.005499 -0.011474 0.018000 0.000000 -0.004718 0.000000
# 4 0.000000 0.000000 0.000000 0.034632 0.000000 0.017378
# 5 0.009819 0.023020 -0.004718 0.000000 0.049538 0.000000
# 6 0.000000 0.000000 0.000000 0.017378 0.000000 0.061925
#
#
# Mechanical properties :
#
#
# Convention : Reuss Voigt Hill
#
# Bulk Modulus (GPa) = 28.16161 55.15184 41.65672
# Shear Modulus (GPa) = 20.71871 30.91702 25.81786
#
# Velocity S-wave (km/s) = 3.30540 4.03777 3.68980
# Velocity P-wave (km/s) = 5.42385 7.12893 6.33403
#
# Compressibility (1/GPa) = 0.03550933
#
# Stress axis : x y z
#
# Youngs Moduli (GPa) = 91.02730 32.82189 55.55660
#
# Poissons Ratio (x) = -0.16416 0.30552
# Poissons Ratio (y) = -0.45527 0.63746
# Poissons Ratio (z) = 0.50057 0.37660
#
# Static dielectric constant tensor:
#      x y z
#    x 1.705680 0.000000 -0.001700 
#    y 0.000000 1.665250 0.000000 
#    z -0.001700 0.000000 1.680530 
# 
# From -- ./inp_files/39135.got.cif
#   From: 2010.05.17/outbox.cif.g08.bks.cpg/sg15_20_cif.got.tgz:39135.got - 2010.06.03 18:47:42.
