data_PCOD9276181
_publ_section_title
;
Structure prediction by ZEFSAII (Michael W. Deem and Ramdas Pophale) SiO2 
 PCOD9276181
Probable space group: C 2/C
;
_chemical_formula_sum "Si O2"
_cell_formula_units_Z 48
_cell_length_a 22.742369
_cell_length_b 8.475616
_cell_length_c 16.583053
_cell_angle_alpha 90.000000
_cell_angle_beta 140.373399
_cell_angle_gamma 90.000000
_cell_volume 2038.653810
_symmetry_space_group_name_H-M "C 2/C"
_symmetry_group_IT_number 15
_symmetry_cell_setting 'monoclinic'
loop_
_space_group_symop_operation_xyz
x,y,z
-x,y,1/2-z
-x,-y,-z
x,-y,1/2+z
1/2+x,1/2+y,z
1/2-x,1/2+y,1/2-z
1/2-x,1/2-y,-z
1/2+x,1/2-y,1/2+z
loop_
_atom_site_type_symbol
_atom_site_label
_atom_site_fract_x
_atom_site_fract_y
_atom_site_fract_z
Si Si1 0.023978 0.260923 0.488152
Si Si2 0.425914 0.968759 0.101414
Si Si3 0.944813 0.045345 0.267919
Si Si4 0.422329 0.296890 0.041329
Si Si5 0.296341 0.436586 0.332615
Si Si6 0.760278 0.853355 0.637749
O O1 0.029737 0.411240 0.436401
O O2 0.124800 0.188038 0.613671
O O3 0.978995 0.128012 0.384859
O O4 0.959245 0.268261 0.495880
O O5 0.500000 0.957884 0.250000
O O6 0.389678 0.147670 0.057077
O O7 0.336531 0.858212 0.011120
O O8 0.000000 0.112281 0.250000
O O9 0.837576 0.080468 0.159006
O O10 0.986444 0.871515 0.321654
O O11 0.346945 0.432198 0.942545
O O12 0.228869 0.323134 0.313263
O O13 0.258695 0.528566 0.214374
#
# Coordination Sequence:
#
# PCOD9276181 Si02
#       6
#     8   8   8   8   8   8
#     4  10  20  41  68  94 136 182 238 280 344 418
#     4  11  25  42  64 102 146 183 234 288 355 413
#     4  11  22  41  70 101 144 190 226 285 359 422
#     4  11  20  43  69  98 137 187 239 285 346 417
#     4  10  20  39  70 106 131 173 235 301 342 405
#     4  11  22  41  71 104 144 174 239 294 349 418
#
# _framework density 23.544948000000002
#
# number of rings (size 3 to 8) (size 9 to 14) (size 15 to 20)
#    0.000    1.333    3.333    3.500    0.000    0.000 
#    0.000   17.500    0.000    0.000    0.000    0.000 
#    0.000    0.000    0.000    0.000    0.000    0.000 
#
# Total GULP energy -134051.640162 kJ/mol
# GULP energy per Si atom -5585.485007 kJ/mol
# Density = 2.349136 g / cm^3
# Si number density = 23.544948 Si / 1000 Ang^3
#
#
#
# Elastic Constant Matrix: (Units=GPa)
#
#
# Indices 1 2 3 4 5 6 
#
# 1 75.8249 10.2970 46.9549 0.0000 -1.9712 0.0000
# 2 10.2970 122.0185 38.9969 0.0000 -6.1305 0.0000
# 3 46.9549 38.9969 113.6052 0.0000 6.1184 0.0000
# 4 0.0000 0.0000 0.0000 20.7375 0.0000 -1.1861
# 5 -1.9712 -6.1305 6.1184 0.0000 25.2730 0.0000
# 6 0.0000 0.0000 0.0000 -1.1861 0.0000 14.4728
#
#
#
# Elastic Compliance Matrix: (Units=1/GPa)
#
#
# Indices 1 2 3 4 5 6 
#
# 1 0.018148 0.001252 -0.008129 0.000000 0.003687 0.000000
# 2 0.001252 0.009528 -0.003969 0.000000 0.003370 0.000000
# 3 -0.008129 -0.003969 0.013791 0.000000 -0.004936 0.000000
# 4 0.000000 0.000000 0.000000 0.048449 0.000000 0.003971
# 5 0.003687 0.003370 -0.004936 0.000000 0.041868 0.000000
# 6 0.000000 0.000000 0.000000 0.003971 0.000000 0.069421
#
#
# Mechanical properties :
#
#
# Convention : Reuss Voigt Hill
#
# Bulk Modulus (GPa) = 50.57399 55.99401 53.28400
# Shear Modulus (GPa) = 21.78754 26.44330 24.11542
#
# Velocity S-wave (km/s) = 3.04527 3.35490 3.20383
# Velocity P-wave (km/s) = 5.82162 6.23222 6.03042
#
# Compressibility (1/GPa) = 0.01977301
#
# Stress axis : x y z
#
# Youngs Moduli (GPa) = 55.10190 104.95626 72.51233
#
# Poissons Ratio (x) = -0.13139 0.58947
# Poissons Ratio (y) = -0.06898 0.28783
# Poissons Ratio (z) = 0.44794 0.41662
#
# Static dielectric constant tensor:
#      x y z
#    x 2.003810 0.000000 -0.011640 
#    y 0.000000 1.962230 0.000000 
#    z -0.011640 0.000000 1.941170 
# 
# From -- ./inp_files/180925.got.cif
#   From: 2010.05.17/outbox.cif.g08.bks.cpg/sg15_91_cif.got.tgz:180925.got - 2010.06.03 18:47:42.
