data_PCOD9276635
_publ_section_title
;
Structure prediction by ZEFSAII (Michael W. Deem and Ramdas Pophale) SiO2 
 PCOD9276635
Probable space group: C 2/C
;
_chemical_formula_sum "Si O2"
_cell_formula_units_Z 60
_cell_length_a 10.924321
_cell_length_b 14.995662
_cell_length_c 22.723997
_cell_angle_alpha 90.000000
_cell_angle_beta 49.100736
_cell_angle_gamma 90.000000
_cell_volume 2813.761366
_symmetry_space_group_name_H-M "C 2/C"
_symmetry_group_IT_number 15
_symmetry_cell_setting 'monoclinic'
loop_
_space_group_symop_operation_xyz
x,y,z
-x,y,1/2-z
-x,-y,-z
x,-y,1/2+z
1/2+x,1/2+y,z
1/2-x,1/2+y,1/2-z
1/2-x,1/2-y,-z
1/2+x,1/2-y,1/2+z
loop_
_atom_site_type_symbol
_atom_site_label
_atom_site_fract_x
_atom_site_fract_y
_atom_site_fract_z
Si Si1 0.764995 0.228868 0.591024
Si Si2 0.057194 0.327586 0.861629
Si Si3 0.755638 0.440835 0.348701
Si Si4 0.391771 0.632982 0.444547
Si Si5 0.705663 0.570985 0.277781
Si Si6 0.932500 0.860228 0.387760
Si Si7 0.000000 0.966181 0.250000
Si Si8 0.296313 0.031831 0.458404
O O1 0.856397 0.292969 0.606877
O O2 0.663174 0.149527 0.653493
O O3 0.654182 0.288699 0.585048
O O4 0.893085 0.176678 0.508775
O O5 0.195762 0.341819 0.769573
O O6 0.941527 0.246234 0.879621
O O7 0.971330 0.423148 0.896669
O O8 0.820796 0.501551 0.275805
O O9 0.595250 0.397712 0.368510
O O10 0.735048 0.504468 0.412321
O O11 0.555697 0.590066 0.368788
O O12 0.248574 0.558743 0.492022
O O13 0.630562 0.528022 0.242395
O O14 0.925142 0.906447 0.326060
O O15 0.796362 0.892901 0.475287
#
# Coordination Sequence:
#
# PCOD9276635 Si02
#       8
#     8   8   8   8   8   8   4   8
#     4   9  21  40  62  95 122 153 216 262 297 373
#     4  11  25  38  58  98 130 155 206 264 313 352
#     4   9  20  38  68  84 119 161 213 245 304 372
#     4  10  20  41  68  89 118 170 211 249 314 369
#     4  11  22  40  63  89 120 171 203 255 311 377
#     4  10  21  40  59  90 119 166 204 252 304 377
#     4  10  20  40  64  84 124 158 212 246 318 372
#     4  11  21  39  66  89 118 167 208 250 304 376
#
# _framework density 21.323771000000001
#
# number of rings (size 3 to 8) (size 9 to 14) (size 15 to 20)
#    0.000    1.867    2.667    1.600    3.733    2.133 
#    2.400   14.667    0.000    0.000    0.000    0.000 
#    0.000    0.000    0.000    0.000    0.000    0.000 
#
# Total GULP energy -167196.516232 kJ/mol
# GULP energy per Si atom -5573.217208 kJ/mol
# Density = 2.127524 g / cm^3
# Si number density = 21.323771 Si / 1000 Ang^3
#
#
#
# Elastic Constant Matrix: (Units=GPa)
#
#
# Indices 1 2 3 4 5 6 
#
# 1 48.2627 37.9955 26.4995 0.0000 27.9414 0.0000
# 2 37.9955 119.2454 57.2912 0.0000 15.9887 0.0000
# 3 26.4995 57.2912 68.0704 0.0001 16.0483 0.0000
# 4 0.0000 0.0000 0.0001 34.9647 0.0000 10.0413
# 5 27.9414 15.9887 16.0483 0.0000 25.9592 0.0000
# 6 0.0000 0.0000 0.0000 10.0413 0.0000 23.0898
#
#
#
# Elastic Compliance Matrix: (Units=1/GPa)
#
#
# Indices 1 2 3 4 5 6 
#
# 1 0.070239 -0.013169 -0.000408 0.000000 -0.067239 0.000000
# 2 -0.013169 0.016604 -0.011447 0.000000 0.011025 0.000000
# 3 -0.000408 -0.011447 0.026594 0.000000 -0.008952 0.000000
# 4 0.000000 0.000000 0.000000 0.032682 0.000000 -0.014213
# 5 -0.067239 0.011025 -0.008952 0.000000 0.109638 0.000000
# 6 0.000000 0.000000 0.000000 -0.014213 0.000000 0.049490
#
#
# Mechanical properties :
#
#
# Convention : Reuss Voigt Hill
#
# Bulk Modulus (GPa) = 15.77557 53.23899 34.50728
# Shear Modulus (GPa) = 13.28291 24.38890 18.83591
#
# Velocity S-wave (km/s) = 2.49854 3.38560 2.97531
# Velocity P-wave (km/s) = 3.96708 6.34856 5.29348
#
# Compressibility (1/GPa) = 0.06338917
#
# Stress axis : x y z
#
# Youngs Moduli (GPa) = 14.23719 60.22808 37.60232
#
# Poissons Ratio (x) = 0.79314 0.01533
# Poissons Ratio (y) = 0.18749 0.43043
# Poissons Ratio (z) = 0.00580 0.68943
#
# Static dielectric constant tensor:
#      x y z
#    x 1.774410 0.000000 -0.022360 
#    y 0.000000 1.808160 0.000000 
#    z -0.022360 0.000000 1.799550 
# 
# From -- ./inp_files/269953.got.cif
#   From: 2010.05.17/outbox.cif.g08.bks.cpg/sg15_135_cif.got.tgz:269953.got - 2010.06.03 18:47:42.
