data_PCOD9276442
_publ_section_title
;
Structure prediction by ZEFSAII (Michael W. Deem and Ramdas Pophale) SiO2 
 PCOD9276442
Probable space group: C 2/C
;
_chemical_formula_sum "Si O2"
_cell_formula_units_Z 60
_cell_length_a 13.509532
_cell_length_b 20.429908
_cell_length_c 11.958416
_cell_angle_alpha 90.000000
_cell_angle_beta 79.343543
_cell_angle_gamma 90.000000
_cell_volume 3243.583048
_symmetry_space_group_name_H-M "C 2/C"
_symmetry_group_IT_number 15
_symmetry_cell_setting 'monoclinic'
loop_
_space_group_symop_operation_xyz
x,y,z
-x,y,1/2-z
-x,-y,-z
x,-y,1/2+z
1/2+x,1/2+y,z
1/2-x,1/2+y,1/2-z
1/2-x,1/2-y,-z
1/2+x,1/2-y,1/2+z
loop_
_atom_site_type_symbol
_atom_site_label
_atom_site_fract_x
_atom_site_fract_y
_atom_site_fract_z
Si Si1 0.313087 0.612618 0.687049
Si Si2 0.479954 0.862992 0.545076
Si Si3 0.106171 0.255667 0.793038
Si Si4 0.261544 0.564614 0.931035
Si Si5 0.009356 0.979080 0.127627
Si Si6 0.500000 0.960533 0.750000
Si Si7 0.195596 0.685639 0.057329
Si Si8 0.146355 0.546008 0.581323
O O1 0.338974 0.689012 0.686671
O O2 0.248262 0.596105 0.811887
O O3 0.421149 0.575370 0.660665
O O4 0.243965 0.585628 0.601930
O O5 0.414979 0.800546 0.595766
O O6 0.478512 0.913148 0.650101
O O7 0.592961 0.834657 0.513728
O O8 0.434675 0.903973 0.453160
O O9 0.167093 0.298322 0.690033
O O10 0.000000 0.241200 0.750000
O O11 0.374535 0.540158 0.897886
O O12 0.260817 0.621143 0.024903
O O13 0.184318 0.508038 0.983155
O O14 0.000000 0.018187 0.250000
O O15 0.000000 0.000000 0.000000
O O16 0.592990 0.005364 0.691582
O O17 0.250000 0.750000 0.000000
#
# Coordination Sequence:
#
# PCOD9276442 Si02
#       8
#     8   8   8   8   8   4   8   8
#     4  11  23  38  62  89 124 166 206 258 314 376
#     4  11  23  40  60  89 123 157 200 255 306 377
#     4  10  20  40  62  85 114 160 209 253 299 366
#     4  11  21  38  63  91 121 164 210 258 313 375
#     4  10  21  39  61  91 124 161 214 261 313 369
#     4  12  22  40  62  88 122 162 200 254 310 372
#     4  11  21  36  63  91 111 151 210 259 297 360
#     4  12  25  37  60  92 131 160 199 250 329 381
#
# _framework density 18.498062999999998
#
# number of rings (size 3 to 8) (size 9 to 14) (size 15 to 20)
#    0.000    1.067    6.000    2.400    3.733    0.533 
#    0.000    0.000    0.000    0.000    0.000    0.000 
#    0.000    0.000    0.000    0.000    0.000    0.000 
#
# Total GULP energy -167109.723653 kJ/mol
# GULP energy per Si atom -5570.324122 kJ/mol
# Density = 1.845596 g / cm^3
# Si number density = 18.498063 Si / 1000 Ang^3
#
#
#
# Elastic Constant Matrix: (Units=GPa)
#
#
# Indices 1 2 3 4 5 6 
#
# 1 45.1095 23.8925 14.6861 0.0000 -18.3256 0.0000
# 2 23.8925 97.0756 31.8742 0.0000 -7.2154 0.0000
# 3 14.6861 31.8742 77.0382 0.0000 -17.9375 0.0000
# 4 0.0000 0.0000 0.0000 20.3503 0.0000 -7.2951
# 5 -18.3256 -7.2154 -17.9375 0.0000 34.4183 0.0000
# 6 0.0000 0.0000 0.0000 -7.2951 0.0000 27.0349
#
#
#
# Elastic Compliance Matrix: (Units=1/GPa)
#
#
# Indices 1 2 3 4 5 6 
#
# 1 0.032118 -0.006860 0.000413 0.000000 0.015878 0.000000
# 2 -0.006860 0.013386 -0.005039 0.000000 -0.003473 0.000000
# 3 0.000413 -0.005039 0.016835 0.000000 0.007937 0.000000
# 4 0.000000 0.000000 0.000000 0.054402 0.000000 0.014680
# 5 0.015878 -0.003473 0.007937 0.000000 0.040917 0.000000
# 6 0.000000 0.000000 0.000000 0.014680 0.000000 0.040950
#
#
# Mechanical properties :
#
#
# Convention : Reuss Voigt Hill
#
# Bulk Modulus (GPa) = 25.40326 40.01433 32.70880
# Shear Modulus (GPa) = 21.30351 26.27874 23.79113
#
# Velocity S-wave (km/s) = 3.39730 3.77320 3.59017
# Velocity P-wave (km/s) = 5.39922 6.37662 5.90817
#
# Compressibility (1/GPa) = 0.03936502
#
# Stress axis : x y z
#
# Youngs Moduli (GPa) = 31.13542 74.70383 59.40036
#
# Poissons Ratio (x) = 0.51249 -0.02451
# Poissons Ratio (y) = 0.21360 0.29933
# Poissons Ratio (z) = -0.01284 0.37645
#
# Static dielectric constant tensor:
#      x y z
#    x 1.664230 0.000000 0.030870 
#    y 0.000000 1.636960 0.000000 
#    z 0.030870 0.000000 1.615120 
# 
# From -- ./inp_files/98732.got.cif
#   From: 2010.05.17/outbox.cif.g08.bks.cpg/sg15_50_cif.got.tgz:98732.got - 2010.06.03 18:47:42.
