data_PCOD9276197
_publ_section_title
;
Structure prediction by ZEFSAII (Michael W. Deem and Ramdas Pophale) SiO2 
 PCOD9276197
Probable space group: C 2/C
;
_chemical_formula_sum "Si O2"
_cell_formula_units_Z 56
_cell_length_a 8.534339
_cell_length_b 15.290862
_cell_length_c 20.778187
_cell_angle_alpha 90.000000
_cell_angle_beta 108.230885
_cell_angle_gamma 90.000000
_cell_volume 2575.391738
_symmetry_space_group_name_H-M "C 2/C"
_symmetry_group_IT_number 15
_symmetry_cell_setting 'monoclinic'
loop_
_space_group_symop_operation_xyz
x,y,z
-x,y,1/2-z
-x,-y,-z
x,-y,1/2+z
1/2+x,1/2+y,z
1/2-x,1/2+y,1/2-z
1/2-x,1/2-y,-z
1/2+x,1/2-y,1/2+z
loop_
_atom_site_type_symbol
_atom_site_label
_atom_site_fract_x
_atom_site_fract_y
_atom_site_fract_z
Si Si1 0.884104 0.962223 0.173693
Si Si2 0.655087 0.991884 0.473874
Si Si3 0.123748 0.241699 0.824037
Si Si4 0.902089 0.880717 0.575332
Si Si5 0.235902 0.832363 0.544295
Si Si6 0.999972 0.742351 0.678504
Si Si7 0.509675 0.037919 0.678304
O O1 0.909777 0.859347 0.159632
O O2 0.694560 0.970788 0.173648
O O3 0.000000 0.979313 0.250000
O O4 0.922750 0.033361 0.123489
O O5 0.758969 0.907960 0.507956
O O6 0.609420 0.995807 0.392970
O O7 0.500000 0.000000 0.500000
O O8 0.745662 0.082613 0.496825
O O9 0.126965 0.309417 0.883453
O O10 0.311860 0.244938 0.822399
O O11 0.000000 0.262797 0.750000
O O12 0.063800 0.851647 0.557505
O O13 0.876692 0.798463 0.619082
O O14 0.250000 0.750000 0.500000
O O15 0.959364 0.640183 0.676361
O O16 0.000000 0.780023 0.750000
O O17 0.500000 0.001939 0.750000
#
# Coordination Sequence:
#
# PCOD9276197 Si02
#       7
#     8   8   8   8   8   8   8
#     4  10  20  39  70  98 132 176 222 274 340 408
#     4  12  26  44  68  99 135 174 226 287 344 407
#     4   9  20  40  66  91 125 168 221 271 328 396
#     4  11  23  42  68  95 133 178 225 279 344 409
#     4  11  26  46  65  92 136 176 223 280 339 411
#     4   9  20  40  64  95 131 171 214 270 334 407
#     4  10  23  44  66  97 140 173 221 282 339 403
#
# _framework density 21.744264000000001
#
# number of rings (size 3 to 8) (size 9 to 14) (size 15 to 20)
#    0.000    1.714    1.429    1.714    6.000    2.286 
#   10.286    0.000    0.000    0.000    0.000    0.000 
#    0.000    0.000    0.000    0.000    0.000    0.000 
#
# Total GULP energy -156259.921711 kJ/mol
# GULP energy per Si atom -5580.711490 kJ/mol
# Density = 2.169477 g / cm^3
# Si number density = 21.744264 Si / 1000 Ang^3
#
#
#
# Elastic Constant Matrix: (Units=GPa)
#
#
# Indices 1 2 3 4 5 6 
#
# 1 48.6474 33.2723 24.4349 0.0000 -10.6274 0.0000
# 2 33.2723 83.0656 46.1319 0.0000 -8.7446 0.0000
# 3 24.4349 46.1319 135.0014 0.0000 0.7981 0.0000
# 4 0.0000 0.0000 0.0000 36.0197 0.0000 -3.1052
# 5 -10.6274 -8.7446 0.7981 0.0000 32.8704 0.0000
# 6 0.0000 0.0000 0.0000 -3.1052 0.0000 24.6498
#
#
#
# Elastic Compliance Matrix: (Units=1/GPa)
#
#
# Indices 1 2 3 4 5 6 
#
# 1 0.030075 -0.010191 -0.002003 0.000000 0.007061 0.000000
# 2 -0.010191 0.018879 -0.004617 0.000000 0.001840 0.000000
# 3 -0.002003 -0.004617 0.009360 0.000000 -0.002103 0.000000
# 4 0.000000 0.000000 0.000000 0.028067 0.000000 0.003536
# 5 0.007061 0.001840 -0.002103 0.000000 0.033246 0.000000
# 6 0.000000 0.000000 0.000000 0.003536 0.000000 0.041014
#
#
# Mechanical properties :
#
#
# Convention : Reuss Voigt Hill
#
# Bulk Modulus (GPa) = 40.50037 52.71030 46.60533
# Shear Modulus (GPa) = 24.69217 29.56631 27.12924
#
# Velocity S-wave (km/s) = 3.37348 3.69145 3.53604
# Velocity P-wave (km/s) = 5.81722 6.51634 6.17668
#
# Compressibility (1/GPa) = 0.02469113
#
# Stress axis : x y z
#
# Youngs Moduli (GPa) = 33.25061 52.96953 106.83610
#
# Poissons Ratio (x) = 0.53981 0.21397
# Poissons Ratio (y) = 0.33885 0.49332
# Poissons Ratio (z) = 0.06659 0.24459
#
# Static dielectric constant tensor:
#      x y z
#    x 1.729630 0.000000 -0.009660 
#    y 0.000000 1.387730 0.000000 
#    z -0.009660 0.000000 1.894980 
# 
# From -- ./inp_files/264820.got.cif
#   From: 2010.05.17/outbox.cif.g08.bks.cpg/sg15_133_cif.got.tgz:264820.got - 2010.06.03 18:47:42.
