data_PCOD9276137
_publ_section_title
;
Structure prediction by ZEFSAII (Michael W. Deem and Ramdas Pophale) SiO2 
 PCOD9276137
Probable space group: C 2/C
;
_chemical_formula_sum "Si O2"
_cell_formula_units_Z 36
_cell_length_a 17.722851
_cell_length_b 16.473113
_cell_length_c 11.511771
_cell_angle_alpha 90.000000
_cell_angle_beta 25.416815
_cell_angle_gamma 90.000000
_cell_volume 1442.485129
_symmetry_space_group_name_H-M "C 2/C"
_symmetry_group_IT_number 15
_symmetry_cell_setting 'monoclinic'
loop_
_space_group_symop_operation_xyz
x,y,z
-x,y,1/2-z
-x,-y,-z
x,-y,1/2+z
1/2+x,1/2+y,z
1/2-x,1/2+y,1/2-z
1/2-x,1/2-y,-z
1/2+x,1/2-y,1/2+z
loop_
_atom_site_type_symbol
_atom_site_label
_atom_site_fract_x
_atom_site_fract_y
_atom_site_fract_z
Si Si1 0.139999 0.191506 0.293733
Si Si2 0.094737 0.687758 0.239681
Si Si3 0.320538 0.003722 0.362996
Si Si4 0.730769 0.969155 0.804377
Si Si5 0.000000 0.782836 0.750000
O O1 0.159914 0.114355 0.348536
O O2 0.051772 0.169355 0.293877
O O3 0.032997 0.266129 0.495308
O O4 0.334888 0.224592 0.002273
O O5 0.154253 0.599542 0.195190
O O6 0.000000 0.673318 0.250000
O O7 0.250000 0.750000 0.000000
O O8 0.232111 0.977561 0.363293
O O9 0.236141 0.998704 0.608522
O O10 0.515320 0.963649 0.100821
#
# Coordination Sequence:
#
# PCOD9276137 Si02
#       5
#     8   8   8   8   4
#     4  11  23  43  71 107 142 193 242 301 359 439
#     4  12  24  43  70 101 142 187 240 291 357 436
#     4  10  21  41  68 102 135 197 233 291 367 445
#     4  10  20  39  68  98 136 182 244 287 355 436
#     4  10  22  40  68 104 148 180 248 300 362 416
#
# _framework density 24.956928000000001
#
# number of rings (size 3 to 8) (size 9 to 14) (size 15 to 20)
#    0.000    1.333    2.222    5.333    0.000    7.111 
#    4.000    1.111    2.444    0.000    0.000    0.000 
#    0.000    0.000    0.000    0.000    0.000    0.000 
#
# Total GULP energy -100634.972123 kJ/mol
# GULP energy per Si atom -5590.831785 kJ/mol
# Density = 2.490012 g / cm^3
# Si number density = 24.956928 Si / 1000 Ang^3
#
#
#
# Elastic Constant Matrix: (Units=GPa)
#
#
# Indices 1 2 3 4 5 6 
#
# 1 229.9049 12.0219 17.0198 -0.0014 29.5755 0.0001
# 2 12.0219 75.3747 11.7078 -0.0019 -5.5719 -0.0003
# 3 17.0198 11.7078 68.3372 -0.0032 5.7068 -0.0003
# 4 -0.0014 -0.0019 -0.0032 21.2692 0.0015 15.1200
# 5 29.5755 -5.5719 5.7068 0.0015 45.1174 0.0002
# 6 0.0001 -0.0003 -0.0003 15.1200 0.0002 18.2948
#
#
#
# Elastic Compliance Matrix: (Units=1/GPa)
#
#
# Indices 1 2 3 4 5 6 
#
# 1 0.004866 -0.000890 -0.000792 0.000001 -0.003200 -0.000001
# 2 -0.000890 0.013973 -0.002390 0.000001 0.002611 -0.000001
# 3 -0.000792 -0.002390 0.015384 0.000005 -0.001722 -0.000004
# 4 0.000001 0.000001 0.000005 0.113985 -0.000004 -0.094204
# 5 -0.003200 0.002611 -0.001722 -0.000004 0.024802 0.000003
# 6 -0.000001 -0.000001 -0.000004 -0.094204 0.000003 0.132516
#
#
# Mechanical properties :
#
#
# Convention : Reuss Voigt Hill
#
# Bulk Modulus (GPa) = 38.34540 50.56842 44.45691
# Shear Modulus (GPa) = 15.51041 39.12743 27.31892
#
# Velocity S-wave (km/s) = 2.49567 3.96384 3.31213
# Velocity P-wave (km/s) = 4.86852 6.42305 5.69904
#
# Compressibility (1/GPa) = 0.02607875
#
# Stress axis : x y z
#
# Youngs Moduli (GPa) = 205.48989 71.56514 65.00269
#
# Poissons Ratio (x) = 0.06367 0.05151
# Poissons Ratio (y) = 0.18281 0.15539
# Poissons Ratio (z) = 0.16283 0.17107
#
# Static dielectric constant tensor:
#      x y z
#    x 2.063920 0.000000 0.072350 
#    y 0.000000 2.485720 0.000000 
#    z 0.072350 0.000000 1.971640 
# 
# From -- ./inp_files/107232.got.cif
#   From: 2010.05.17/outbox.cif.g08.bks.cpg/sg15_54_cif.got.tgz:107232.got - 2010.06.03 18:47:42.
