data_PCOD9276510
_publ_section_title
;
Structure prediction by ZEFSAII (Michael W. Deem and Ramdas Pophale) SiO2 
 PCOD9276510
Probable space group: C 2/C
;
_chemical_formula_sum "Si O2"
_cell_formula_units_Z 64
_cell_length_a 10.447631
_cell_length_b 24.352735
_cell_length_c 11.479210
_cell_angle_alpha 90.000000
_cell_angle_beta 104.977970
_cell_angle_gamma 90.000000
_cell_volume 2821.409058
_symmetry_space_group_name_H-M "C 2/C"
_symmetry_group_IT_number 15
_symmetry_cell_setting 'monoclinic'
loop_
_space_group_symop_operation_xyz
x,y,z
-x,y,1/2-z
-x,-y,-z
x,-y,1/2+z
1/2+x,1/2+y,z
1/2-x,1/2+y,1/2-z
1/2-x,1/2-y,-z
1/2+x,1/2-y,1/2+z
loop_
_atom_site_type_symbol
_atom_site_label
_atom_site_fract_x
_atom_site_fract_y
_atom_site_fract_z
Si Si1 0.847499 0.770805 0.917425
Si Si2 0.716795 0.433711 0.207640
Si Si3 0.065462 0.159168 0.390266
Si Si4 0.118967 0.466250 0.705694
Si Si5 0.711038 0.879010 0.911090
Si Si6 0.335905 0.895723 0.006342
Si Si7 0.970512 0.062946 0.519644
Si Si8 0.601104 0.845793 0.125069
O O1 0.772624 0.826006 0.862176
O O2 0.865350 0.717381 0.842700
O O3 0.998043 0.796317 0.964107
O O4 0.750000 0.750000 0.000000
O O5 0.759761 0.491216 0.273595
O O6 0.562824 0.422626 0.150672
O O7 0.795752 0.385448 0.288529
O O8 0.766799 0.434292 0.085428
O O9 0.223638 0.147315 0.433173
O O10 0.000000 0.172341 0.250000
O O11 0.011406 0.099934 0.418775
O O12 0.148198 0.417251 0.801062
O O13 0.103764 0.436429 0.577844
O O14 0.000000 0.496151 0.750000
O O15 0.820843 0.917162 0.000613
O O16 0.619283 0.855584 0.990415
O O17 0.449580 0.863163 0.103158
O O18 0.000000 0.000000 0.500000
#
# Coordination Sequence:
#
# PCOD9276510 Si02
#       8
#     8   8   8   8   8   8   8   8
#     4   9  21  43  70  91 131 177 223 282 332 397
#     4  11  26  39  62  98 131 174 220 275 346 410
#     4  10  22  40  66  99 130 171 230 279 328 402
#     4  12  23  39  66  93 131 175 221 275 339 417
#     4  10  21  42  65  96 125 170 229 269 333 405
#     4  11  24  41  62  96 134 168 223 277 339 407
#     4  10  20  40  62  92 133 171 213 277 336 400
#     4  11  23  42  64  92 133 175 217 276 337 404
#
# _framework density 22.683700000000002
#
# number of rings (size 3 to 8) (size 9 to 14) (size 15 to 20)
#    0.000    1.500    2.500    2.625    1.750    3.000 
#    0.000    6.250    0.000    0.000    0.000    0.000 
#    0.000    0.000    0.000    0.000    0.000    0.000 
#
# Total GULP energy -178311.533630 kJ/mol
# GULP energy per Si atom -5572.235426 kJ/mol
# Density = 2.263207 g / cm^3
# Si number density = 22.683700 Si / 1000 Ang^3
#
#
#
# Elastic Constant Matrix: (Units=GPa)
#
#
# Indices 1 2 3 4 5 6 
#
# 1 55.2730 7.0926 18.3604 0.0000 1.7632 0.0000
# 2 7.0926 120.6020 22.7806 0.0000 9.8255 0.0000
# 3 18.3604 22.7806 71.3386 0.0000 5.9341 0.0000
# 4 0.0000 0.0000 0.0000 22.5794 0.0000 3.6165
# 5 1.7632 9.8255 5.9341 0.0000 42.3185 0.0000
# 6 0.0000 0.0000 0.0000 3.6165 0.0000 9.8992
#
#
#
# Elastic Compliance Matrix: (Units=1/GPa)
#
#
# Indices 1 2 3 4 5 6 
#
# 1 0.019789 -0.000210 -0.005020 0.000000 -0.000072 0.000000
# 2 -0.000210 0.008945 -0.002661 0.000000 -0.001695 0.000000
# 3 -0.005020 -0.002661 0.016281 0.000000 -0.001456 0.000000
# 4 0.000000 0.000000 0.000000 0.047041 0.000000 -0.017186
# 5 -0.000072 -0.001695 -0.001456 0.000000 0.024231 0.000000
# 6 0.000000 0.000000 0.000000 -0.017186 0.000000 0.107297
#
#
# Mechanical properties :
#
#
# Convention : Reuss Voigt Hill
#
# Bulk Modulus (GPa) = 34.20918 38.18676 36.19797
# Shear Modulus (GPa) = 20.07148 28.22473 24.14811
#
# Velocity S-wave (km/s) = 2.97786 3.53125 3.26630
# Velocity P-wave (km/s) = 5.19010 5.78769 5.49702
#
# Compressibility (1/GPa) = 0.02923192
#
# Stress axis : x y z
#
# Youngs Moduli (GPa) = 50.53367 111.79587 61.42255
#
# Poissons Ratio (x) = 0.02344 0.30835
# Poissons Ratio (y) = 0.01060 0.16347
# Poissons Ratio (z) = 0.25368 0.29754
#
# Static dielectric constant tensor:
#      x y z
#    x 2.058100 0.000000 -0.052780 
#    y 0.000000 1.804250 0.000000 
#    z -0.052780 0.000000 1.867090 
# 
# From -- ./inp_files/91276.got.cif
#   From: 2010.05.17/outbox.cif.g08.bks.cpg/sg15_46_cif.got.tgz:91276.got - 2010.06.03 18:47:42.
