data_PCOD9276879
_publ_section_title
;
Structure prediction by ZEFSAII (Michael W. Deem and Ramdas Pophale) SiO2 
 PCOD9276879
Probable space group: C 2/C
;
_chemical_formula_sum "Si O2"
_cell_formula_units_Z 52
_cell_length_a 11.414034
_cell_length_b 23.424252
_cell_length_c 12.261955
_cell_angle_alpha 90.000000
_cell_angle_beta 45.062495
_cell_angle_gamma 90.000000
_cell_volume 2320.720300
_symmetry_space_group_name_H-M "C 2/C"
_symmetry_group_IT_number 15
_symmetry_cell_setting 'monoclinic'
loop_
_space_group_symop_operation_xyz
x,y,z
-x,y,1/2-z
-x,-y,-z
x,-y,1/2+z
1/2+x,1/2+y,z
1/2-x,1/2+y,1/2-z
1/2-x,1/2-y,-z
1/2+x,1/2-y,1/2+z
loop_
_atom_site_type_symbol
_atom_site_label
_atom_site_fract_x
_atom_site_fract_y
_atom_site_fract_z
Si Si1 0.955053 0.522848 0.406655
Si Si2 0.955976 0.079131 0.580860
Si Si3 0.199330 0.626428 0.228670
Si Si4 0.398173 0.285791 0.707280
Si Si5 0.500000 0.217348 0.250000
Si Si6 0.615999 0.299529 0.352387
Si Si7 0.396069 0.525372 0.408053
O O1 0.761061 0.509251 0.529693
O O2 0.000000 0.502665 0.250000
O O3 0.000000 0.500000 0.500000
O O4 0.044249 0.585008 0.349186
O O5 0.144248 0.091481 0.417798
O O6 0.971784 0.021950 0.638803
O O7 0.885909 0.135017 0.685082
O O8 0.854506 0.064510 0.538576
O O9 0.262014 0.663168 0.290938
O O10 0.151961 0.674473 0.170408
O O11 0.500000 0.280783 0.750000
O O12 0.528177 0.299685 0.527012
O O13 0.295188 0.228906 0.745904
O O14 0.504922 0.258959 0.349428
O O15 0.500000 0.559830 0.250000
#
# Coordination Sequence:
#
# PCOD9276879 Si02
#       7
#     8   8   8   8   4   8   8
#     4  12  25  45  71 100 138 183 239 287 344 414
#     4  10  22  41  63  94 134 175 229 272 358 400
#     4  10  20  42  71  95 131 187 219 279 337 423
#     4  10  22  42  67  96 136 175 221 268 344 414
#     4  10  20  40  66 104 130 170 232 270 348 392
#     4  10  23  39  66  96 132 174 217 283 327 415
#     4  11  24  42  66  92 135 181 231 290 344 414
#
# _framework density 22.406835999999998
#
# number of rings (size 3 to 8) (size 9 to 14) (size 15 to 20)
#    0.000    1.538    2.308    1.385    3.231   10.462 
#    5.538    0.769    0.000    0.000    0.000    0.000 
#    0.000    0.000    0.000    0.000    0.000    0.000 
#
# Total GULP energy -144918.270988 kJ/mol
# GULP energy per Si atom -5573.779653 kJ/mol
# Density = 2.235584 g / cm^3
# Si number density = 22.406836 Si / 1000 Ang^3
#
#
#
# Elastic Constant Matrix: (Units=GPa)
#
#
# Indices 1 2 3 4 5 6 
#
# 1 125.9760 34.6606 7.7061 0.0000 19.0586 0.0000
# 2 34.6606 93.0552 -3.4337 0.0000 4.9824 0.0000
# 3 7.7061 -3.4337 41.6424 0.0000 11.8776 0.0000
# 4 0.0000 0.0000 0.0000 26.6783 0.0000 -8.7214
# 5 19.0586 4.9824 11.8776 0.0000 37.1712 0.0000
# 6 0.0000 0.0000 0.0000 -8.7214 0.0000 1.4020
#
#
#
# Elastic Compliance Matrix: (Units=1/GPa)
#
#
# Indices 1 2 3 4 5 6 
#
# 1 0.009547 -0.003364 -0.000854 0.000000 -0.004171 0.000000
# 2 -0.003364 0.012088 0.001749 0.000000 -0.000454 0.000000
# 3 -0.000854 0.001749 0.026691 0.000000 -0.008325 0.000000
# 4 0.000000 0.000000 0.000000 -0.036263 0.000000 -0.225585
# 5 -0.004171 -0.000454 -0.008325 0.000000 0.031762 0.000000
# 6 0.000000 0.000000 0.000000 -0.225585 0.000000 -0.690049
#
#
# Mechanical properties :
#
#
# Convention : Reuss Voigt Hill
#
# Bulk Modulus (GPa) = 23.04859 37.61552 30.33206
# Shear Modulus (GPa) = -7.97674 27.83299 9.92812
#
# Velocity S-wave (km/s) = -1.88883 3.52826 2.10724
# Velocity P-wave (km/s) = 2.35623 5.78119 4.41440
#
# Compressibility (1/GPa) = 0.04338660
#
# Stress axis : x y z
#
# Youngs Moduli (GPa) = 104.74583 82.72508 37.46597
#
# Poissons Ratio (x) = 0.27830 0.03201
# Poissons Ratio (y) = 0.35238 -0.06552
# Poissons Ratio (z) = 0.08950 -0.14468
#
# Static dielectric constant tensor:
#      x y z
#    x 1.863650 0.000000 0.036090 
#    y 0.000000 1.851350 0.000000 
#    z 0.036090 0.000000 1.842070 
# 
# From -- ./inp_files/91194.got.cif
#   From: 2010.05.17/outbox.cif.g08.bks.cpg/sg15_46_cif.got.tgz:91194.got - 2010.06.03 18:47:42.
