data_PCOD9276620
_publ_section_title
;
Structure prediction by ZEFSAII (Michael W. Deem and Ramdas Pophale) SiO2 
 PCOD9276620
Probable space group: C 2/C
;
_chemical_formula_sum "Si O2"
_cell_formula_units_Z 64
_cell_length_a 23.470940
_cell_length_b 14.285223
_cell_length_c 32.579089
_cell_angle_alpha 90.000000
_cell_angle_beta 165.037644
_cell_angle_gamma 90.000000
_cell_volume 2820.242040
_symmetry_space_group_name_H-M "C 2/C"
_symmetry_group_IT_number 15
_symmetry_cell_setting 'monoclinic'
loop_
_space_group_symop_operation_xyz
x,y,z
-x,y,1/2-z
-x,-y,-z
x,-y,1/2+z
1/2+x,1/2+y,z
1/2-x,1/2+y,1/2-z
1/2-x,1/2-y,-z
1/2+x,1/2-y,1/2+z
loop_
_atom_site_type_symbol
_atom_site_label
_atom_site_fract_x
_atom_site_fract_y
_atom_site_fract_z
Si Si1 0.479327 0.576735 0.924978
Si Si2 0.849592 0.116000 0.301461
Si Si3 0.565791 0.332137 0.185798
Si Si4 0.205337 0.703848 0.867034
Si Si5 0.584912 0.126766 0.035279
Si Si6 0.162270 0.047106 0.828211
Si Si7 0.338302 0.961045 0.225216
Si Si8 0.515691 0.866093 0.887439
O O1 0.403695 0.492625 0.843025
O O2 0.540039 0.653278 0.933489
O O3 0.280604 0.591053 0.819026
O O4 0.671348 0.533818 0.086654
O O5 0.685964 0.130610 0.150725
O O6 0.721997 0.139491 0.254644
O O7 0.082998 0.167025 0.460423
O O8 0.529497 0.403325 0.198414
O O9 0.492415 0.226544 0.145761
O O10 0.826420 0.349876 0.357974
O O11 0.298838 0.789475 0.907120
O O12 0.119130 0.618861 0.778274
O O13 0.000000 0.735883 0.750000
O O14 0.666155 0.029577 0.070807
O O15 0.000000 0.005283 0.750000
O O16 0.300354 0.125561 0.949267
O O17 0.520766 0.032431 0.368811
#
# Coordination Sequence:
#
# PCOD9276620 Si02
#       8
#     8   8   8   8   8   8   8   8
#     4   9  19  37  65  92 126 168 229 281 327 396
#     4  10  20  40  63  98 129 176 228 284 338 404
#     4  12  24  41  74 102 129 182 236 296 341 416
#     4  11  25  41  63 102 144 183 227 278 357 426
#     4  12  23  42  71 101 138 181 236 283 347 415
#     4  12  28  47  68 103 146 185 232 293 359 417
#     4   9  21  39  63  95 135 178 224 278 338 410
#     4  11  24  42  71 101 133 177 239 290 345 409
#
# _framework density 22.693086999999998
#
# number of rings (size 3 to 8) (size 9 to 14) (size 15 to 20)
#    0.000    1.250    3.750    3.000    3.500    3.000 
#    0.000    0.625    0.000    0.000    0.000    0.000 
#    0.000    0.000    0.000    0.000    0.000    0.000 
#
# Total GULP energy -178703.137094 kJ/mol
# GULP energy per Si atom -5584.473034 kJ/mol
# Density = 2.264144 g / cm^3
# Si number density = 22.693087 Si / 1000 Ang^3
#
#
#
# Elastic Constant Matrix: (Units=GPa)
#
#
# Indices 1 2 3 4 5 6 
#
# 1 83.0462 20.1161 23.5241 0.1158 -8.3396 -0.1259
# 2 20.1161 66.8401 9.4525 -0.2860 -7.3051 -0.0243
# 3 23.5241 9.4525 55.7909 -0.2906 -4.6956 0.3480
# 4 0.1158 -0.2860 -0.2906 18.3566 -0.0295 -6.0874
# 5 -8.3396 -7.3051 -4.6956 -0.0295 35.5530 -0.0586
# 6 -0.1259 -0.0243 0.3480 -6.0874 -0.0586 -49.5528
#
#
#
# Elastic Compliance Matrix: (Units=1/GPa)
#
#
# Indices 1 2 3 4 5 6 
#
# 1 0.014603 -0.003411 -0.005411 -0.000243 0.002009 -0.000046
# 2 -0.003411 0.016414 -0.001137 0.000250 0.002422 -0.000041
# 3 -0.005411 -0.001137 0.020501 0.000380 0.001205 0.000110
# 4 -0.000243 0.000250 0.000380 0.052356 0.000077 -0.006429
# 5 0.002009 0.002422 0.001205 0.000077 0.029255 -0.000042
# 6 -0.000046 -0.000041 0.000110 -0.006429 -0.000042 -0.019390
#
#
# Mechanical properties :
#
#
# Convention : Reuss Voigt Hill
#
# Bulk Modulus (GPa) = 31.64646 34.65141 33.14893
# Shear Modulus (GPa) = 34.67619 11.04367 22.85993
#
# Velocity S-wave (km/s) = 3.91327 2.20842 3.17732
# Velocity P-wave (km/s) = 5.86463 4.66964 5.30092
#
# Compressibility (1/GPa) = 0.03159911
#
# Stress axis : x y z
#
# Youngs Moduli (GPa) = 68.48113 60.92246 48.77798
#
# Poissons Ratio (x) = 0.20781 0.26394
# Poissons Ratio (y) = 0.23359 0.05548
# Poissons Ratio (z) = 0.37056 0.06929
#
# Static dielectric constant tensor:
#      x y z
#    x 1.914440 0.000730 -0.066740 
#    y 0.000730 2.028140 -0.001330 
#    z -0.066740 -0.001330 1.906460 
# 
# From -- ./inp_files/318008.got.cif
#   From: 2010.05.17/outbox.cif.g08.bks.cpg/sg15_160_cif.got.tgz:318008.got - 2010.06.03 18:47:42.
