data_PCOD9276345
_publ_section_title
;
Structure prediction by ZEFSAII (Michael W. Deem and Ramdas Pophale) SiO2 
 PCOD9276345
Probable space group: C 2/C
;
_chemical_formula_sum "Si O2"
_cell_formula_units_Z 48
_cell_length_a 11.086756
_cell_length_b 20.199854
_cell_length_c 12.329118
_cell_angle_alpha 90.000000
_cell_angle_beta 47.316492
_cell_angle_gamma 90.000000
_cell_volume 2029.723695
_symmetry_space_group_name_H-M "C 2/C"
_symmetry_group_IT_number 15
_symmetry_cell_setting 'monoclinic'
loop_
_space_group_symop_operation_xyz
x,y,z
-x,y,1/2-z
-x,-y,-z
x,-y,1/2+z
1/2+x,1/2+y,z
1/2-x,1/2+y,1/2-z
1/2-x,1/2-y,-z
1/2+x,1/2-y,1/2+z
loop_
_atom_site_type_symbol
_atom_site_label
_atom_site_fract_x
_atom_site_fract_y
_atom_site_fract_z
Si Si1 0.500000 0.845392 0.750000
Si Si2 0.545209 0.564428 0.402367
Si Si3 0.500000 0.942351 0.250000
Si Si4 0.863871 0.799231 0.543249
Si Si5 0.393558 0.960169 0.653393
Si Si6 0.246491 0.357972 0.992978
Si Si7 0.786752 0.246237 0.661843
O O1 0.673634 0.807063 0.619967
O O2 0.468255 0.893932 0.664319
O O3 0.500000 0.500000 0.500000
O O4 0.592932 0.624828 0.453759
O O5 0.707630 0.551804 0.231990
O O6 0.399197 0.594064 0.419987
O O7 0.581844 0.898835 0.108456
O O8 0.626171 0.990240 0.232041
O O9 0.843351 0.754313 0.663602
O O10 0.035121 0.769460 0.394032
O O11 0.500000 0.000000 0.500000
O O12 0.252080 0.309944 0.095009
O O13 0.234235 0.313225 0.894692
#
# Coordination Sequence:
#
# PCOD9276345 Si02
#       7
#     4   8   4   8   8   8   8
#     4   9  22  42  62  92 126 170 217 264 338 388
#     4  10  20  40  60  91 133 175 211 266 339 389
#     4  11  20  34  62  90 126 170 211 276 324 392
#     4  10  22  41  65  88 131 168 217 279 322 402
#     4  10  22  40  62  93 129 172 219 268 328 399
#     4  10  21  36  63  92 130 166 218 273 331 391
#     4  10  22  40  61  95 127 168 219 273 336 380
#
# _framework density 23.648540000000001
#
# number of rings (size 3 to 8) (size 9 to 14) (size 15 to 20)
#    0.000    2.000    1.667    1.000    4.667    6.000 
#    0.000    0.000    0.000    4.000    0.000    0.000 
#    0.000    0.000    0.000    0.000    0.000    0.000 
#
# Total GULP energy -133948.318783 kJ/mol
# GULP energy per Si atom -5581.179949 kJ/mol
# Density = 2.359472 g / cm^3
# Si number density = 23.648540 Si / 1000 Ang^3
#
#
#
# Elastic Constant Matrix: (Units=GPa)
#
#
# Indices 1 2 3 4 5 6 
#
# 1 93.4606 44.2658 -4.2069 0.0000 -22.5974 0.0000
# 2 44.2658 90.2832 34.3197 0.0000 -20.2750 0.0000
# 3 -4.2069 34.3197 78.8902 0.0000 -24.3820 0.0000
# 4 0.0000 0.0000 0.0000 42.9821 0.0000 -4.0371
# 5 -22.5974 -20.2750 -24.3820 0.0000 36.0744 0.0000
# 6 0.0000 0.0000 0.0000 -4.0371 0.0000 35.1325
#
#
#
# Elastic Compliance Matrix: (Units=1/GPa)
#
#
# Indices 1 2 3 4 5 6 
#
# 1 0.018800 -0.009912 0.009142 0.000000 0.012385 0.000000
# 2 -0.009912 0.019099 -0.009403 0.000000 -0.001829 0.000000
# 3 0.009142 -0.009403 0.021982 0.000000 0.015300 0.000000
# 4 0.000000 0.000000 0.000000 0.023519 0.000000 0.002703
# 5 0.012385 -0.001829 0.015300 0.000000 0.044791 0.000000
# 6 0.000000 0.000000 0.000000 0.002703 0.000000 0.028774
#
#
# Mechanical properties :
#
#
# Convention : Reuss Voigt Hill
#
# Bulk Modulus (GPa) = 25.29256 45.71012 35.50134
# Shear Modulus (GPa) = 26.24806 35.38815 30.81810
#
# Velocity S-wave (km/s) = 3.33516 3.87256 3.61386
# Velocity P-wave (km/s) = 5.05465 6.27427 5.69719
#
# Compressibility (1/GPa) = 0.03953732
#
# Stress axis : x y z
#
# Youngs Moduli (GPa) = 53.19101 52.35761 45.49103
#
# Poissons Ratio (x) = 0.51895 -0.41588
# Poissons Ratio (y) = 0.52721 0.42774
# Poissons Ratio (z) = -0.48628 0.49231
#
# Static dielectric constant tensor:
#      x y z
#    x 1.967430 0.000000 0.021480 
#    y 0.000000 1.940280 0.000000 
#    z 0.021480 0.000000 1.907730 
# 
# From -- ./inp_files/147397.got.cif
#   From: 2010.05.17/outbox.cif.g08.bks.cpg/sg15_74_cif.got.tgz:147397.got - 2010.06.03 18:47:42.
