data_PCOD9276673
_publ_section_title
;
Structure prediction by ZEFSAII (Michael W. Deem and Ramdas Pophale) SiO2 
 PCOD9276673
Probable space group: C 2/C
;
_chemical_formula_sum "Si O2"
_cell_formula_units_Z 48
_cell_length_a 26.326350
_cell_length_b 14.708419
_cell_length_c 8.224455
_cell_angle_alpha 90.000000
_cell_angle_beta 134.772181
_cell_angle_gamma 90.000000
_cell_volume 2260.834464
_symmetry_space_group_name_H-M "C 2/C"
_symmetry_group_IT_number 15
_symmetry_cell_setting 'monoclinic'
loop_
_space_group_symop_operation_xyz
x,y,z
-x,y,1/2-z
-x,-y,-z
x,-y,1/2+z
1/2+x,1/2+y,z
1/2-x,1/2+y,1/2-z
1/2-x,1/2-y,-z
1/2+x,1/2-y,1/2+z
loop_
_atom_site_type_symbol
_atom_site_label
_atom_site_fract_x
_atom_site_fract_y
_atom_site_fract_z
Si Si1 0.918297 0.875575 0.022931
Si Si2 0.828348 0.285869 0.474343
Si Si3 0.336460 0.741083 0.872750
Si Si4 0.579154 0.571902 0.351402
Si Si5 0.550611 0.867773 0.208012
Si Si6 0.938064 0.430779 0.727779
O O1 0.868843 0.794641 0.972677
O O2 0.000000 0.853011 0.250000
O O3 0.898250 0.967985 0.072995
O O4 0.917371 0.898995 0.829151
O O5 0.744530 0.274248 0.252546
O O6 0.836244 0.282534 0.689923
O O7 0.868026 0.379032 0.512228
O O8 0.372672 0.642801 0.943567
O O9 0.383555 0.801481 0.104407
O O10 0.500000 0.578351 0.250000
O O11 0.500000 0.856218 0.250000
O O12 0.580681 0.970289 0.239566
O O13 0.488165 0.856542 0.933220
O O14 0.000000 0.464841 0.750000
#
# Coordination Sequence:
#
# PCOD9276673 Si02
#       6
#     8   8   8   8   8   8
#     4  11  23  41  65  93 123 162 213 261 309 374
#     4  11  24  41  60  92 131 166 208 257 321 377
#     4  11  24  40  62  90 128 173 203 258 322 376
#     4  11  23  41  66  93 122 164 211 259 313 373
#     4  10  20  40  64  89 119 165 210 255 313 369
#     4  10  22  38  63  92 121 160 211 263 306 369
#
# _framework density 21.231097999999999
#
# number of rings (size 3 to 8) (size 9 to 14) (size 15 to 20)
#    0.000    1.333    1.667    5.000    4.667    2.000 
#    0.000    0.000    0.000    0.000    0.000    0.000 
#    0.000    0.000    0.000    0.000    0.000    0.000 
#
# Total GULP energy -133779.655009 kJ/mol
# GULP energy per Si atom -5574.152292 kJ/mol
# Density = 2.118278 g / cm^3
# Si number density = 21.231098 Si / 1000 Ang^3
#
#
#
# Elastic Constant Matrix: (Units=GPa)
#
#
# Indices 1 2 3 4 5 6 
#
# 1 43.1704 36.4098 9.9158 0.0000 15.7001 0.0000
# 2 36.4098 120.5309 37.7105 0.0000 35.8636 0.0000
# 3 9.9158 37.7105 69.8456 0.0000 27.4263 0.0000
# 4 0.0000 0.0000 0.0000 -65.4214 0.0000 -64.9787
# 5 15.7001 35.8636 27.4263 0.0000 37.7958 0.0000
# 6 0.0000 0.0000 0.0000 -64.9787 0.0000 -14.4055
#
#
#
# Elastic Compliance Matrix: (Units=1/GPa)
#
#
# Indices 1 2 3 4 5 6 
#
# 1 0.032361 -0.008444 0.002933 0.000000 -0.007558 0.000000
# 2 -0.008444 0.014141 -0.003559 0.000000 -0.007328 0.000000
# 3 0.002933 -0.003559 0.020942 0.000000 -0.013038 0.000000
# 4 0.000000 0.000000 0.000000 0.004392 0.000000 -0.019812
# 5 -0.007558 -0.007328 -0.013038 0.000000 0.046012 0.000000
# 6 0.000000 0.000000 0.000000 -0.019812 0.000000 0.019947
#
#
# Mechanical properties :
#
#
# Convention : Reuss Voigt Hill
#
# Bulk Modulus (GPa) = 20.28231 44.62437 32.45334
# Shear Modulus (GPa) = 29.00732 1.56116 15.28424
#
# Velocity S-wave (km/s) = 3.70031 0.85844 2.68600
# Velocity P-wave (km/s) = 5.27544 4.69538 4.99384
#
# Compressibility (1/GPa) = 0.04930404
#
# Stress axis : x y z
#
# Youngs Moduli (GPa) = 30.90140 70.71428 47.75129
#
# Poissons Ratio (x) = 0.59713 -0.14004
# Poissons Ratio (y) = 0.26094 0.16993
# Poissons Ratio (z) = -0.09063 0.25165
#
# Static dielectric constant tensor:
#      x y z
#    x 1.843940 0.000000 -0.052910 
#    y 0.000000 1.787120 0.000000 
#    z -0.052910 0.000000 1.861290 
# 
# From -- ./inp_files/66506.got.cif
#   From: 2010.05.17/outbox.cif.g08.bks.cpg/sg15_34_cif.got.tgz:66506.got - 2010.06.03 18:47:42.
