data_PCOD9276729
_publ_section_title
;
Structure prediction by ZEFSAII (Michael W. Deem and Ramdas Pophale) SiO2 
 PCOD9276729
Probable space group: C 2/C
;
_chemical_formula_sum "Si O2"
_cell_formula_units_Z 56
_cell_length_a 15.375374
_cell_length_b 11.862642
_cell_length_c 17.996196
_cell_angle_alpha 90.000000
_cell_angle_beta 47.715385
_cell_angle_gamma 90.000000
_cell_volume 2428.337644
_symmetry_space_group_name_H-M "C 2/C"
_symmetry_group_IT_number 15
_symmetry_cell_setting 'monoclinic'
loop_
_space_group_symop_operation_xyz
x,y,z
-x,y,1/2-z
-x,-y,-z
x,-y,1/2+z
1/2+x,1/2+y,z
1/2-x,1/2+y,1/2-z
1/2-x,1/2-y,-z
1/2+x,1/2-y,1/2+z
loop_
_atom_site_type_symbol
_atom_site_label
_atom_site_fract_x
_atom_site_fract_y
_atom_site_fract_z
Si Si1 0.206023 0.048748 0.680173
Si Si2 0.617648 0.494144 0.385349
Si Si3 0.073274 0.599584 0.390828
Si Si4 0.808927 0.109829 0.438652
Si Si5 0.641321 0.277599 0.456109
Si Si6 0.906666 0.484793 0.867321
Si Si7 0.294624 0.811139 0.826219
O O1 0.229623 0.179924 0.652899
O O2 0.115532 0.022914 0.798710
O O3 0.325856 0.986216 0.638975
O O4 0.158630 0.992866 0.632198
O O5 0.500000 0.500000 0.500000
O O6 0.675865 0.377426 0.380652
O O7 0.687835 0.605620 0.368038
O O8 0.053090 0.690876 0.467047
O O9 0.122513 0.671059 0.292949
O O10 0.968153 0.533875 0.411675
O O11 0.753139 0.203240 0.416427
O O12 0.900270 0.165805 0.442783
O O13 0.702385 0.065486 0.552387
O O14 0.856707 0.367990 0.861945
O O15 0.000000 0.524618 0.750000
#
# Coordination Sequence:
#
# PCOD9276729 Si02
#       7
#     8   8   8   8   8   8   8
#     4  10  22  41  65  96 130 171 226 269 332 397
#     4  11  23  41  66  98 132 177 218 272 336 402
#     4   9  20  37  66  93 123 169 219 269 321 391
#     4  10  22  40  67  91 128 174 213 271 331 395
#     4  10  20  42  63  89 130 172 209 266 331 390
#     4  10  21  38  62  98 128 166 224 274 333 386
#     4  10  20  40  64  93 130 171 210 279 334 387
#
# _framework density 23.061043999999999
#
# number of rings (size 3 to 8) (size 9 to 14) (size 15 to 20)
#    0.000    2.000    2.857    0.000    0.000    5.143 
#    2.571    5.000    0.000    0.000    0.000    0.000 
#    0.000    0.000    0.000    0.000    0.000    0.000 
#
# Total GULP energy -156374.831936 kJ/mol
# GULP energy per Si atom -5584.815426 kJ/mol
# Density = 2.300856 g / cm^3
# Si number density = 23.061044 Si / 1000 Ang^3
#
#
#
# Elastic Constant Matrix: (Units=GPa)
#
#
# Indices 1 2 3 4 5 6 
#
# 1 76.3670 22.5747 33.6359 0.0000 16.3492 0.0000
# 2 22.5747 148.5392 42.4977 0.0000 10.3763 0.0000
# 3 33.6359 42.4977 109.7065 0.0000 14.6080 0.0000
# 4 0.0000 0.0000 0.0000 33.3271 0.0000 19.7605
# 5 16.3492 10.3763 14.6080 0.0000 19.8559 0.0000
# 6 0.0000 0.0000 0.0000 19.7605 0.0000 24.7716
#
#
#
# Elastic Compliance Matrix: (Units=1/GPa)
#
#
# Indices 1 2 3 4 5 6 
#
# 1 0.017279 -0.000848 -0.003474 0.000000 -0.011229 0.000000
# 2 -0.000848 0.007685 -0.002522 0.000000 -0.001462 0.000000
# 3 -0.003474 -0.002522 0.011752 0.000000 -0.004467 0.000000
# 4 0.000000 0.000000 0.000000 0.056935 0.000000 -0.045417
# 5 -0.011229 -0.001462 -0.004467 0.000000 0.063659 0.000000
# 6 0.000000 0.000000 0.000000 -0.045417 0.000000 0.076598
#
#
# Mechanical properties :
#
#
# Convention : Reuss Voigt Hill
#
# Bulk Modulus (GPa) = 43.42532 59.11437 51.26984
# Shear Modulus (GPa) = 19.58682 31.31790 25.45236
#
# Velocity S-wave (km/s) = 2.91752 3.68916 3.32579
# Velocity P-wave (km/s) = 5.49733 6.62088 6.08509
#
# Compressibility (1/GPa) = 0.02302804
#
# Stress axis : x y z
#
# Youngs Moduli (GPa) = 57.87223 130.12607 85.08904
#
# Poissons Ratio (x) = 0.11031 0.29563
# Poissons Ratio (y) = 0.04906 0.21462
# Poissons Ratio (z) = 0.20107 0.32822
#
# Static dielectric constant tensor:
#      x y z
#    x 1.919150 0.000000 -0.010280 
#    y 0.000000 1.878070 0.000000 
#    z -0.010280 0.000000 1.884450 
# 
# From -- ./inp_files/210579.got.cif
#   From: 2010.05.17/outbox.cif.g08.bks.cpg/sg15_106_cif.got.tgz:210579.got - 2010.06.03 18:47:42.
