data_PCOD9276049
_publ_section_title
;
Structure prediction by ZEFSAII (Michael W. Deem and Ramdas Pophale) SiO2 
 PCOD9276049
Probable space group: C 2/C
;
_chemical_formula_sum "Si O2"
_cell_formula_units_Z 44
_cell_length_a 10.529333
_cell_length_b 19.648858
_cell_length_c 8.891512
_cell_angle_alpha 90.000000
_cell_angle_beta 92.949264
_cell_angle_gamma 90.000000
_cell_volume 1837.122787
_symmetry_space_group_name_H-M "C 2/C"
_symmetry_group_IT_number 15
_symmetry_cell_setting 'monoclinic'
loop_
_space_group_symop_operation_xyz
x,y,z
-x,y,1/2-z
-x,-y,-z
x,-y,1/2+z
1/2+x,1/2+y,z
1/2-x,1/2+y,1/2-z
1/2-x,1/2-y,-z
1/2+x,1/2-y,1/2+z
loop_
_atom_site_type_symbol
_atom_site_label
_atom_site_fract_x
_atom_site_fract_y
_atom_site_fract_z
Si Si1 0.122214 0.842275 0.486796
Si Si2 0.500000 0.727652 0.250000
Si Si3 0.745456 0.459613 0.371488
Si Si4 0.374509 0.166377 0.522606
Si Si5 0.500000 0.235695 0.250000
Si Si6 0.500000 0.056578 0.750000
Si Si7 0.862784 0.916693 0.449299
O O1 0.246579 0.888303 0.465446
O O2 0.091650 0.785320 0.357134
O O3 0.099770 0.811445 0.649566
O O4 0.007157 0.896114 0.472760
O O5 0.584805 0.773100 0.365121
O O6 0.666524 0.438537 0.220988
O O7 0.680549 0.521324 0.450953
O O8 0.883445 0.481656 0.319842
O O9 0.424409 0.188574 0.362997
O O10 0.440513 0.102386 0.612158
O O11 0.226279 0.147675 0.517061
#
# Coordination Sequence:
#
# PCOD9276049 Si02
#       7
#     8   4   8   8   4   4   8
#     4  11  22  43  62 103 128 175 218 274 331 388
#     4   9  22  40  67  93 138 170 221 268 330 395
#     4  11  24  42  66  94 135 177 219 274 320 393
#     4   9  21  43  61  98 126 174 218 276 320 389
#     4  10  20  39  67  93 131 170 212 272 326 382
#     4   9  22  45  60  94 133 166 231 264 320 391
#     4  11  24  41  67  94 139 170 224 270 324 393
#
# _framework density 23.950495
#
# number of rings (size 3 to 8) (size 9 to 14) (size 15 to 20)
#    0.000    1.818    1.818    0.545    2.545    8.000 
#    6.545    3.636    0.000    0.000    0.000    0.000 
#    0.000    0.000    0.000    0.000    0.000    0.000 
#
# Total GULP energy -123149.354647 kJ/mol
# GULP energy per Si atom -5597.697939 kJ/mol
# Density = 2.389598 g / cm^3
# Si number density = 23.950495 Si / 1000 Ang^3
#
#
#
# Elastic Constant Matrix: (Units=GPa)
#
#
# Indices 1 2 3 4 5 6 
#
# 1 62.9601 19.0070 19.4063 0.0000 -23.8317 0.0000
# 2 19.0070 69.1156 58.1968 0.0000 -16.2063 0.0000
# 3 19.4063 58.1968 163.2586 0.0000 -32.4591 0.0000
# 4 0.0000 0.0000 0.0000 45.9744 0.0000 -25.7507
# 5 -23.8317 -16.2063 -32.4591 0.0000 29.3873 0.0000
# 6 0.0000 0.0000 0.0000 -25.7507 0.0000 30.3940
#
#
#
# Elastic Compliance Matrix: (Units=1/GPa)
#
#
# Indices 1 2 3 4 5 6 
#
# 1 0.023871 -0.004052 0.002578 0.000000 0.019971 0.000000
# 2 -0.004052 0.021770 -0.007105 0.000000 0.000871 0.000000
# 3 0.002578 -0.007105 0.010236 0.000000 0.009478 0.000000
# 4 0.000000 0.000000 0.000000 0.041395 0.000000 0.035071
# 5 0.019971 0.000871 0.009478 0.000000 0.061173 0.000000
# 6 0.000000 0.000000 0.000000 0.035071 0.000000 0.062614
#
#
# Mechanical properties :
#
#
# Convention : Reuss Voigt Hill
#
# Bulk Modulus (GPa) = 25.82833 54.28383 40.05608
# Shear Modulus (GPa) = 19.91036 34.39942 27.15489
#
# Velocity S-wave (km/s) = 2.88638 3.79393 3.37084
# Velocity P-wave (km/s) = 4.68142 6.47349 5.64897
#
# Compressibility (1/GPa) = 0.03871718
#
# Stress axis : x y z
#
# Youngs Moduli (GPa) = 41.89141 45.93441 97.69291
#
# Poissons Ratio (x) = 0.18614 -0.25181
# Poissons Ratio (y) = 0.16975 0.69416
# Poissons Ratio (z) = -0.10798 0.32639
#
# Static dielectric constant tensor:
#      x y z
#    x 1.957160 0.000000 -0.033130 
#    y 0.000000 1.961710 0.000000 
#    z -0.033130 0.000000 1.959360 
# 
# From -- ./inp_files/30804.got.cif
#   From: 2010.05.17/outbox.cif.g08.bks.cpg/sg15_16_cif.got.tgz:30804.got - 2010.06.03 18:47:42.
