data_PCOD9276131
_publ_section_title
;
Structure prediction by ZEFSAII (Michael W. Deem and Ramdas Pophale) SiO2 
 PCOD9276131
Probable space group: C 2/C
;
_chemical_formula_sum "Si O2"
_cell_formula_units_Z 44
_cell_length_a 24.789401
_cell_length_b 13.443532
_cell_length_c 17.369868
_cell_angle_alpha 90.000000
_cell_angle_beta 162.280665
_cell_angle_gamma 90.000000
_cell_volume 1761.796341
_symmetry_space_group_name_H-M "C 2/C"
_symmetry_group_IT_number 15
_symmetry_cell_setting 'monoclinic'
loop_
_space_group_symop_operation_xyz
x,y,z
-x,y,1/2-z
-x,-y,-z
x,-y,1/2+z
1/2+x,1/2+y,z
1/2-x,1/2+y,1/2-z
1/2-x,1/2-y,-z
1/2+x,1/2-y,1/2+z
loop_
_atom_site_type_symbol
_atom_site_label
_atom_site_fract_x
_atom_site_fract_y
_atom_site_fract_z
Si Si1 0.193964 0.095482 0.446719
Si Si2 0.000000 0.928283 0.250000
Si Si3 0.623718 0.862782 0.994499
Si Si4 0.644606 0.811060 0.739832
Si Si5 0.199930 0.283561 0.545262
Si Si6 0.096814 0.429695 0.524073
O O1 0.197993 0.165978 0.528525
O O2 0.171342 0.169061 0.343637
O O3 0.053942 0.007268 0.257169
O O4 0.394278 0.055508 0.718887
O O5 0.169119 0.859658 0.484001
O O6 0.500000 0.877649 0.750000
O O7 0.496481 0.808351 0.883689
O O8 0.795881 0.796761 0.209131
O O9 0.679658 0.966373 0.110665
O O10 0.579744 0.889710 0.587279
O O11 0.210214 0.340416 0.638842
O O12 0.000000 0.311100 0.250000
#
# Coordination Sequence:
#
# PCOD9276131 Si02
#       6
#     8   4   8   8   8   8
#     4  10  20  39  68  97 142 182 232 286 360 428
#     4  12  24  42  68  98 142 188 240 286 362 424
#     4  12  26  51  76 101 148 198 239 293 363 438
#     4  12  29  46  74 107 142 189 249 298 355 429
#     4   9  19  37  63 103 134 180 225 286 356 429
#     4  11  25  44  73 103 141 183 238 301 356 415
#
# _framework density 24.974509000000001
#
# number of rings (size 3 to 8) (size 9 to 14) (size 15 to 20)
#    0.000    1.091    3.636    2.727    2.545    0.000 
#    0.000    1.818    0.000    0.000    0.000    0.000 
#    0.000    0.000    0.000    0.000    0.000    0.000 
#
# Total GULP energy -122859.710285 kJ/mol
# GULP energy per Si atom -5584.532286 kJ/mol
# Density = 2.491767 g / cm^3
# Si number density = 24.974509 Si / 1000 Ang^3
#
#
#
# Elastic Constant Matrix: (Units=GPa)
#
#
# Indices 1 2 3 4 5 6 
#
# 1 116.1947 33.6819 13.1555 -0.0003 14.3665 -0.0002
# 2 33.6819 71.6052 6.1277 -0.0005 2.5944 -0.0003
# 3 13.1555 6.1277 40.2665 -0.0005 4.7614 -0.0003
# 4 -0.0003 -0.0005 -0.0005 22.4635 -0.0002 14.7277
# 5 14.3665 2.5944 4.7614 -0.0002 26.9865 -0.0001
# 6 -0.0002 -0.0003 -0.0003 14.7277 -0.0001 28.8564
#
#
#
# Elastic Compliance Matrix: (Units=1/GPa)
#
#
# Indices 1 2 3 4 5 6 
#
# 1 0.010839 -0.004728 -0.002240 0.000000 -0.004920 0.000000
# 2 -0.004728 0.016239 -0.001062 0.000000 0.001143 0.000000
# 3 -0.002240 -0.001062 0.026120 0.000000 -0.003314 0.000000
# 4 0.000000 0.000000 0.000000 0.066904 0.000000 -0.034146
# 5 -0.004920 0.001143 -0.003314 0.000000 0.040150 0.000000
# 6 0.000000 0.000000 0.000000 -0.034146 0.000000 0.052082
#
#
# Mechanical properties :
#
#
# Convention : Reuss Voigt Hill
#
# Bulk Modulus (GPa) = 26.92660 37.11072 32.01866
# Shear Modulus (GPa) = 20.76650 27.33470 24.05060
#
# Velocity S-wave (km/s) = 2.88672 3.31192 3.10660
# Velocity P-wave (km/s) = 4.68144 5.43293 5.07113
#
# Compressibility (1/GPa) = 0.03713800
#
# Stress axis : x y z
#
# Youngs Moduli (GPa) = 92.26051 61.57980 38.28522
#
# Poissons Ratio (x) = 0.29118 0.08575
# Poissons Ratio (y) = 0.43625 0.04064
# Poissons Ratio (z) = 0.20664 0.06537
#
# Static dielectric constant tensor:
#      x y z
#    x 2.084340 0.000000 -0.056480 
#    y 0.000000 2.016330 0.000000 
#    z -0.056480 0.000000 2.019610 
# 
# From -- ./inp_files/219755.got.cif
#   From: 2010.05.17/outbox.cif.g08.bks.cpg/sg15_110_cif.got.tgz:219755.got - 2010.06.03 18:47:42.
