data_PCOD9276867
_publ_section_title
;
Structure prediction by ZEFSAII (Michael W. Deem and Ramdas Pophale) SiO2 
 PCOD9276867
Probable space group: C 2/C
;
_chemical_formula_sum "Si O2"
_cell_formula_units_Z 60
_cell_length_a 21.139460
_cell_length_b 9.243616
_cell_length_c 15.093681
_cell_angle_alpha 90.000000
_cell_angle_beta 71.517797
_cell_angle_gamma 90.000000
_cell_volume 2797.258802
_symmetry_space_group_name_H-M "C 2/C"
_symmetry_group_IT_number 15
_symmetry_cell_setting 'monoclinic'
loop_
_space_group_symop_operation_xyz
x,y,z
-x,y,1/2-z
-x,-y,-z
x,-y,1/2+z
1/2+x,1/2+y,z
1/2-x,1/2+y,1/2-z
1/2-x,1/2-y,-z
1/2+x,1/2-y,1/2+z
loop_
_atom_site_type_symbol
_atom_site_label
_atom_site_fract_x
_atom_site_fract_y
_atom_site_fract_z
Si Si1 0.000000 0.278849 0.250000
Si Si2 0.583474 0.821047 0.519290
Si Si3 0.195465 0.264140 0.602041
Si Si4 0.172647 0.917238 0.285233
Si Si5 0.542387 0.642231 0.950026
Si Si6 0.377486 0.721110 0.190744
Si Si7 0.793773 0.407701 0.347263
Si Si8 0.601771 0.144442 0.560609
O O1 0.946064 0.193508 0.214395
O O2 0.955166 0.368774 0.338249
O O3 0.624969 0.760491 0.583185
O O4 0.508028 0.767394 0.559147
O O5 0.608994 0.748566 0.417509
O O6 0.596429 0.993326 0.510442
O O7 0.250000 0.250000 0.500000
O O8 0.204903 0.422226 0.638178
O O9 0.221310 0.867471 0.343017
O O10 0.097071 0.888666 0.350637
O O11 0.195295 0.846560 0.183262
O O12 0.173322 0.090048 0.273981
O O13 0.500000 0.500000 0.000000
O O14 0.582085 0.714506 0.014243
O O15 0.344339 0.862207 0.247371
O O16 0.827197 0.341849 0.421143
#
# Coordination Sequence:
#
# PCOD9276867 Si02
#       8
#     4   8   8   8   8   8   8   8
#     4  10  20  40  66 100 134 174 234 276 356 402
#     4  11  23  43  69 100 141 181 229 286 345 414
#     4  11  26  47  70 102 138 181 233 292 346 416
#     4  12  25  44  70  99 141 185 230 291 350 414
#     4  12  25  42  68 105 140 180 231 284 354 416
#     4  11  23  44  70  98 140 182 229 292 347 420
#     4  10  24  45  69  99 133 182 236 281 350 412
#     4  10  23  41  68  99 133 183 231 290 339 422
#
# _framework density 21.449570000000001
#
# number of rings (size 3 to 8) (size 9 to 14) (size 15 to 20)
#    0.000    1.067    2.667    2.800    1.867    6.400 
#    4.800    0.000    0.000    0.000    0.000    0.000 
#    0.000    0.000    0.000    0.000    0.000    0.000 
#
# Total GULP energy -167545.664408 kJ/mol
# GULP energy per Si atom -5584.855480 kJ/mol
# Density = 2.140075 g / cm^3
# Si number density = 21.449570 Si / 1000 Ang^3
#
#
#
# Elastic Constant Matrix: (Units=GPa)
#
#
# Indices 1 2 3 4 5 6 
#
# 1 125.4508 35.8164 44.0399 0.0000 18.0149 0.0000
# 2 35.8164 84.8341 64.1283 0.0000 10.9894 0.0000
# 3 44.0399 64.1283 113.4080 0.0000 0.3430 0.0000
# 4 0.0000 0.0000 0.0000 14.6147 0.0000 -1.6774
# 5 18.0149 10.9894 0.3430 0.0000 38.4393 0.0000
# 6 0.0000 0.0000 0.0000 -1.6774 0.0000 19.6012
#
#
#
# Elastic Compliance Matrix: (Units=1/GPa)
#
#
# Indices 1 2 3 4 5 6 
#
# 1 0.010074 -0.001303 -0.003162 0.000000 -0.004320 0.000000
# 2 -0.001303 0.022127 -0.011989 0.000000 -0.005608 0.000000
# 3 -0.003162 -0.011989 0.016811 0.000000 0.004759 0.000000
# 4 0.000000 0.000000 0.000000 0.069103 0.000000 0.005914
# 5 -0.004320 -0.005608 0.004759 0.000000 0.029601 0.000000
# 6 0.000000 0.000000 0.000000 0.005914 0.000000 0.051523
#
#
# Mechanical properties :
#
#
# Convention : Reuss Voigt Hill
#
# Bulk Modulus (GPa) = 62.10004 67.96243 65.03124
# Shear Modulus (GPa) = 21.05128 26.51159 23.78144
#
# Velocity S-wave (km/s) = 3.13618 3.51949 3.33335
# Velocity P-wave (km/s) = 6.49066 6.94761 6.72302
#
# Compressibility (1/GPa) = 0.01610305
#
# Stress axis : x y z
#
# Youngs Moduli (GPa) = 99.26790 45.19288 59.48588
#
# Poissons Ratio (x) = 0.05889 0.18809
# Poissons Ratio (y) = 0.12937 0.71319
# Poissons Ratio (z) = 0.31388 0.54183
#
# Static dielectric constant tensor:
#      x y z
#    x 1.830610 0.000000 0.011380 
#    y 0.000000 1.779540 0.000000 
#    z 0.011380 0.000000 1.775160 
# 
# From -- ./inp_files/171853.got.cif
#   From: 2010.05.17/outbox.cif.g08.bks.cpg/sg15_86_cif.got.tgz:171853.got - 2010.06.03 18:47:42.
