data_PCOD9276646
_publ_section_title
;
Structure prediction by ZEFSAII (Michael W. Deem and Ramdas Pophale) SiO2 
 PCOD9276646
Probable space group: C 2/C
;
_chemical_formula_sum "Si O2"
_cell_formula_units_Z 60
_cell_length_a 7.447280
_cell_length_b 14.846572
_cell_length_c 25.464189
_cell_angle_alpha 90.000000
_cell_angle_beta 99.059868
_cell_angle_gamma 90.000000
_cell_volume 2780.363195
_symmetry_space_group_name_H-M "C 2/C"
_symmetry_group_IT_number 15
_symmetry_cell_setting 'monoclinic'
loop_
_space_group_symop_operation_xyz
x,y,z
-x,y,1/2-z
-x,-y,-z
x,-y,1/2+z
1/2+x,1/2+y,z
1/2-x,1/2+y,1/2-z
1/2-x,1/2-y,-z
1/2+x,1/2-y,1/2+z
loop_
_atom_site_type_symbol
_atom_site_label
_atom_site_fract_x
_atom_site_fract_y
_atom_site_fract_z
Si Si1 0.513722 0.760056 0.191458
Si Si2 0.520239 0.879045 0.624172
Si Si3 0.000000 0.937718 0.250000
Si Si4 0.396607 0.570339 0.579943
Si Si5 0.829995 0.449025 0.328496
Si Si6 0.603813 0.306522 0.159562
Si Si7 0.301585 0.341243 0.972296
Si Si8 0.938360 0.870587 0.601564
O O1 0.500000 0.726608 0.250000
O O2 0.629878 0.851460 0.194347
O O3 0.316762 0.795260 0.165481
O O4 0.547660 0.678995 0.153044
O O5 0.516012 0.791869 0.661653
O O6 0.359023 0.869555 0.574921
O O7 0.721623 0.871553 0.604919
O O8 0.522360 0.972962 0.656111
O O9 0.831777 0.989506 0.215427
O O10 0.938590 0.873850 0.295109
O O11 0.236183 0.574265 0.615618
O O12 0.527383 0.651136 0.602645
O O13 0.331205 0.583187 0.518074
O O14 0.488678 0.474938 0.595836
O O15 0.487388 0.325823 0.948122
O O16 0.250000 0.250000 0.000000
#
# Coordination Sequence:
#
# PCOD9276646 Si02
#       8
#     8   8   4   8   8   8   8   8
#     4  11  22  42  63  95 128 172 218 271 332 395
#     4  10  24  44  63  98 134 169 221 273 321 400
#     4  10  20  40  64  86 128 178 206 274 326 384
#     4  10  22  44  64  96 133 173 219 271 334 390
#     4  10  22  42  64  94 129 169 220 270 332 391
#     4  10  21  41  61  91 134 163 217 272 318 392
#     4  12  23  42  73  97 132 179 224 273 339 389
#     4  10  25  43  63 100 134 171 218 275 329 395
#
# _framework density 21.579912
#
# number of rings (size 3 to 8) (size 9 to 14) (size 15 to 20)
#    0.000    1.600    2.667    1.200    3.733    2.667 
#   22.800    0.000    0.000    0.000    0.000    0.000 
#    0.000    0.000    0.000    0.000    0.000    0.000 
#
# Total GULP energy -167372.760504 kJ/mol
# GULP energy per Si atom -5579.092017 kJ/mol
# Density = 2.153080 g / cm^3
# Si number density = 21.579912 Si / 1000 Ang^3
#
#
#
# Elastic Constant Matrix: (Units=GPa)
#
#
# Indices 1 2 3 4 5 6 
#
# 1 30.6275 1.6307 5.5906 0.0000 8.9607 0.0000
# 2 1.6307 94.3219 24.9122 0.0000 7.1825 0.0000
# 3 5.5906 24.9122 93.8392 0.0000 6.2459 0.0000
# 4 0.0000 0.0000 0.0000 25.5639 0.0000 0.5357
# 5 8.9607 7.1825 6.2459 0.0000 40.3181 0.0000
# 6 0.0000 0.0000 0.0000 0.5357 0.0000 20.7760
#
#
#
# Elastic Compliance Matrix: (Units=1/GPa)
#
#
# Indices 1 2 3 4 5 6 
#
# 1 0.035170 0.000422 -0.001700 0.000000 -0.007628 0.000000
# 2 0.000422 0.011507 -0.002968 0.000000 -0.001684 0.000000
# 3 -0.001700 -0.002968 0.011605 0.000000 -0.000891 0.000000
# 4 0.000000 0.000000 0.000000 0.039139 0.000000 -0.001009
# 5 -0.007628 -0.001684 -0.000891 0.000000 0.026936 0.000000
# 6 0.000000 0.000000 0.000000 -0.001009 0.000000 0.048158
#
#
# Mechanical properties :
#
#
# Convention : Reuss Voigt Hill
#
# Bulk Modulus (GPa) = 20.08413 31.45061 25.76737
# Shear Modulus (GPa) = 25.30321 29.77527 27.53924
#
# Velocity S-wave (km/s) = 3.42795 3.71855 3.57620
# Velocity P-wave (km/s) = 4.99948 5.74826 5.38690
#
# Compressibility (1/GPa) = 0.04979055
#
# Stress axis : x y z
#
# Youngs Moduli (GPa) = 28.43330 86.90518 86.16973
#
# Poissons Ratio (x) = -0.03665 0.14645
# Poissons Ratio (y) = -0.01199 0.25574
# Poissons Ratio (z) = 0.04832 0.25792
#
# Static dielectric constant tensor:
#      x y z
#    x 1.910160 0.000000 -0.138000 
#    y 0.000000 1.860480 0.000000 
#    z -0.138000 0.000000 2.081900 
# 
# From -- ./inp_files/264773.got.cif
#   From: 2010.05.17/outbox.cif.g08.bks.cpg/sg15_133_cif.got.tgz:264773.got - 2010.06.03 18:47:42.
