data_PCOD9276380
_publ_section_title
;
Structure prediction by ZEFSAII (Michael W. Deem and Ramdas Pophale) SiO2 
 PCOD9276380
Probable space group: C 2/C
;
_chemical_formula_sum "Si O2"
_cell_formula_units_Z 60
_cell_length_a 27.839096
_cell_length_b 15.237332
_cell_length_c 22.002415
_cell_angle_alpha 90.000000
_cell_angle_beta 160.422169
_cell_angle_gamma 90.000000
_cell_volume 3127.462021
_symmetry_space_group_name_H-M "C 2/C"
_symmetry_group_IT_number 15
_symmetry_cell_setting 'monoclinic'
loop_
_space_group_symop_operation_xyz
x,y,z
-x,y,1/2-z
-x,-y,-z
x,-y,1/2+z
1/2+x,1/2+y,z
1/2-x,1/2+y,1/2-z
1/2-x,1/2-y,-z
1/2+x,1/2-y,1/2+z
loop_
_atom_site_type_symbol
_atom_site_label
_atom_site_fract_x
_atom_site_fract_y
_atom_site_fract_z
Si Si1 0.550914 0.437647 0.186884
Si Si2 0.275433 0.843584 0.060867
Si Si3 0.500000 0.467807 0.750000
Si Si4 0.555828 0.686996 0.037645
Si Si5 0.859142 0.516145 0.560548
Si Si6 0.390427 0.141003 0.828922
Si Si7 0.861611 0.076100 0.893415
Si Si8 0.169713 0.432017 0.609614
O O1 0.492306 0.468137 0.182453
O O2 0.499594 0.347029 0.094271
O O3 0.720240 0.454069 0.393280
O O4 0.485480 0.510534 0.063249
O O5 0.345935 0.907068 0.094828
O O6 0.360540 0.825032 0.224817
O O7 0.250000 0.750000 0.000000
O O8 0.134065 0.901323 0.906952
O O9 0.441071 0.649840 0.949671
O O10 0.570652 0.788086 0.073068
O O11 0.712033 0.643014 0.235676
O O12 0.869826 0.562186 0.507918
O O13 0.000000 0.465000 0.750000
O O14 0.237917 0.103787 0.669201
O O15 0.528807 0.079808 0.982912
O O16 0.751368 0.021901 0.721212
#
# Coordination Sequence:
#
# PCOD9276380 Si02
#       8
#     8   8   4   8   8   8   8   8
#     4  10  20  40  61  86 113 168 214 242 301 364
#     4  11  24  32  52  83 127 159 184 241 309 378
#     4  10  22  38  58  86 118 162 210 244 288 386
#     4  11  22  38  62  82 125 168 210 254 297 376
#     4  11  20  36  58  85 118 159 206 242 298 377
#     4  12  24  36  55  96 127 156 201 260 318 348
#     4  11  21  40  60  84 123 165 210 252 300 374
#     4  11  21  39  58  86 119 166 209 252 301 368
#
# _framework density 19.184885999999999
#
# number of rings (size 3 to 8) (size 9 to 14) (size 15 to 20)
#    0.000    1.067    5.333    2.800    2.800    1.067 
#    0.000    0.000    0.000    0.000    1.733    5.600 
#    0.000    0.000    0.000    0.000    0.000    0.000 
#
# Total GULP energy -167248.485325 kJ/mol
# GULP energy per Si atom -5574.949511 kJ/mol
# Density = 1.914122 g / cm^3
# Si number density = 19.184886 Si / 1000 Ang^3
#
#
#
# Elastic Constant Matrix: (Units=GPa)
#
#
# Indices 1 2 3 4 5 6 
#
# 1 96.4454 18.3990 33.5197 0.0002 -8.7807 0.0002
# 2 18.3990 29.7256 24.4310 -0.0003 -8.7750 -0.0001
# 3 33.5197 24.4310 115.1262 -0.0002 -10.1032 -0.0002
# 4 0.0002 -0.0003 -0.0002 15.2727 -0.0001 -7.2308
# 5 -8.7807 -8.7750 -10.1032 -0.0001 35.6276 0.0001
# 6 0.0002 -0.0001 -0.0002 -7.2308 0.0001 27.3750
#
#
#
# Elastic Compliance Matrix: (Units=1/GPa)
#
#
# Indices 1 2 3 4 5 6 
#
# 1 0.012306 -0.005378 -0.002350 0.000000 0.001042 0.000000
# 2 -0.005378 0.045314 -0.007371 0.000001 0.007745 0.000000
# 3 -0.002350 -0.007371 0.010998 0.000000 0.000724 0.000000
# 4 0.000000 0.000001 0.000000 0.074834 0.000000 0.019767
# 5 0.001042 0.007745 0.000724 0.000000 0.030438 0.000000
# 6 0.000000 0.000000 0.000000 0.019767 0.000000 0.041751
#
#
# Mechanical properties :
#
#
# Convention : Reuss Voigt Hill
#
# Bulk Modulus (GPa) = 26.02762 43.77740 34.90251
# Shear Modulus (GPa) = 19.33144 26.65156 22.99150
#
# Velocity S-wave (km/s) = 3.17778 3.73124 3.46557
# Velocity P-wave (km/s) = 5.20197 6.43670 5.85199
#
# Compressibility (1/GPa) = 0.03842072
#
# Stress axis : x y z
#
# Youngs Moduli (GPa) = 81.25977 22.06826 90.92461
#
# Poissons Ratio (x) = 0.11868 0.21371
# Poissons Ratio (y) = 0.43700 0.67017
# Poissons Ratio (z) = 0.19099 0.16266
#
# Static dielectric constant tensor:
#      x y z
#    x 1.724140 0.000000 0.026300 
#    y 0.000000 1.646100 0.000000 
#    z 0.026300 0.000000 1.711870 
# 
# From -- ./inp_files/257886.got.cif
#   From: 2010.05.17/outbox.cif.g08.bks.cpg/sg15_129_cif.got.tgz:257886.got - 2010.06.03 18:47:42.
