data_PCOD9276275
_publ_section_title
;
Structure prediction by ZEFSAII (Michael W. Deem and Ramdas Pophale) SiO2 
 PCOD9276275
Probable space group: C 2/C
;
_chemical_formula_sum "Si O2"
_cell_formula_units_Z 52
_cell_length_a 14.533189
_cell_length_b 8.127880
_cell_length_c 30.343137
_cell_angle_alpha 90.000000
_cell_angle_beta 130.829416
_cell_angle_gamma 90.000000
_cell_volume 2712.059188
_symmetry_space_group_name_H-M "C 2/C"
_symmetry_group_IT_number 15
_symmetry_cell_setting 'monoclinic'
loop_
_space_group_symop_operation_xyz
x,y,z
-x,y,1/2-z
-x,-y,-z
x,-y,1/2+z
1/2+x,1/2+y,z
1/2-x,1/2+y,1/2-z
1/2-x,1/2-y,-z
1/2+x,1/2-y,1/2+z
loop_
_atom_site_type_symbol
_atom_site_label
_atom_site_fract_x
_atom_site_fract_y
_atom_site_fract_z
Si Si1 0.223295 0.825996 0.676921
Si Si2 0.207846 0.325756 0.261730
Si Si3 0.617918 0.145067 0.121007
Si Si4 0.370963 0.712264 0.564846
Si Si5 0.500000 0.342627 0.750000
Si Si6 0.677640 0.410454 0.351868
Si Si7 0.451932 0.478258 0.435977
O O1 0.252593 0.993797 0.711427
O O2 0.126383 0.875027 0.609039
O O3 0.186080 0.699332 0.703387
O O4 0.332494 0.740741 0.685287
O O5 0.312201 0.203051 0.312996
O O6 0.090015 0.269754 0.250820
O O7 0.692577 0.000138 0.120011
O O8 0.474340 0.144471 0.089475
O O9 0.375729 0.692467 0.908566
O O10 0.250000 0.750000 0.500000
O O11 0.338754 0.662161 0.604568
O O12 0.437513 0.557431 0.562719
O O13 0.423980 0.456935 0.692794
O O14 0.500000 0.500000 0.500000
#
# Coordination Sequence:
#
# PCOD9276275 Si02
#       7
#     8   8   8   8   4   8   8
#     4  11  22  37  65  87 123 169 202 257 331 378
#     4  10  20  40  58  89 120 160 199 262 312 385
#     4   8  21  38  62  84 124 159 206 263 317 376
#     4  10  21  38  64  86 122 160 215 264 312 388
#     4  10  22  38  60  90 122 148 212 254 310 398
#     4  11  22  39  63  91 121 171 207 263 324 382
#     4   9  19  40  63  88 126 163 207 269 320 384
#
# _framework density 19.173622000000002
#
# number of rings (size 3 to 8) (size 9 to 14) (size 15 to 20)
#    0.923    1.231    0.000    3.692    2.154    1.231 
#    2.769    0.769    0.000    0.000    0.000    0.000 
#    0.000    0.000    0.000    0.000    0.000    0.000 
#
# Total GULP energy -144749.140693 kJ/mol
# GULP energy per Si atom -5567.274642 kJ/mol
# Density = 1.912998 g / cm^3
# Si number density = 19.173622 Si / 1000 Ang^3
#
#
#
# Elastic Constant Matrix: (Units=GPa)
#
#
# Indices 1 2 3 4 5 6 
#
# 1 86.2620 12.6406 38.8349 0.0000 0.4515 0.0000
# 2 12.6406 59.6801 20.0632 0.0000 -4.1361 0.0000
# 3 38.8349 20.0632 102.0180 0.0000 -15.1316 0.0000
# 4 0.0000 0.0000 0.0000 19.0955 0.0000 -7.8082
# 5 0.4515 -4.1361 -15.1316 0.0000 41.7386 0.0000
# 6 0.0000 0.0000 0.0000 -7.8082 0.0000 15.7802
#
#
#
# Elastic Compliance Matrix: (Units=1/GPa)
#
#
# Indices 1 2 3 4 5 6 
#
# 1 0.014282 -0.001330 -0.005514 0.000000 -0.002285 0.000000
# 2 -0.001330 0.018077 -0.002939 0.000000 0.000740 0.000000
# 3 -0.005514 -0.002939 0.013152 0.000000 0.004536 0.000000
# 4 0.000000 0.000000 0.000000 0.065652 0.000000 0.032485
# 5 -0.002285 0.000740 0.004536 0.000000 0.025701 0.000000
# 6 0.000000 0.000000 0.000000 0.032485 0.000000 0.079445
#
#
# Mechanical properties :
#
#
# Convention : Reuss Voigt Hill
#
# Bulk Modulus (GPa) = 38.54280 43.44862 40.99571
# Shear Modulus (GPa) = 20.44800 27.08430 23.76615
#
# Velocity S-wave (km/s) = 3.26922 3.76251 3.52451
# Velocity P-wave (km/s) = 5.86481 6.44865 6.16365
#
# Compressibility (1/GPa) = 0.02594518
#
# Stress axis : x y z
#
# Youngs Moduli (GPa) = 70.01916 55.31888 76.03349
#
# Poissons Ratio (x) = 0.07355 0.41925
# Poissons Ratio (y) = 0.09310 0.22347
# Poissons Ratio (z) = 0.38609 0.16259
#
# Static dielectric constant tensor:
#      x y z
#    x 1.757870 0.000000 0.051610 
#    y 0.000000 1.713700 0.000000 
#    z 0.051610 0.000000 1.702360 
# 
# From -- ./inp_files/295277.got.cif
#   From: 2010.05.17/outbox.cif.g08.bks.cpg/sg15_148_cif.got.tgz:295277.got - 2010.06.03 18:47:42.
