data_PCOD9276175
_publ_section_title
;
Structure prediction by ZEFSAII (Michael W. Deem and Ramdas Pophale) SiO2 
 PCOD9276175
Probable space group: C 2/C
;
_chemical_formula_sum "Si O2"
_cell_formula_units_Z 40
_cell_length_a 9.236681
_cell_length_b 15.117922
_cell_length_c 14.194801
_cell_angle_alpha 90.000000
_cell_angle_beta 117.387727
_cell_angle_gamma 90.000000
_cell_volume 1759.982011
_symmetry_space_group_name_H-M "C 2/C"
_symmetry_group_IT_number 15
_symmetry_cell_setting 'monoclinic'
loop_
_space_group_symop_operation_xyz
x,y,z
-x,y,1/2-z
-x,-y,-z
x,-y,1/2+z
1/2+x,1/2+y,z
1/2-x,1/2+y,1/2-z
1/2-x,1/2-y,-z
1/2+x,1/2-y,1/2+z
loop_
_atom_site_type_symbol
_atom_site_label
_atom_site_fract_x
_atom_site_fract_y
_atom_site_fract_z
Si Si1 0.140649 0.881467 0.728955
Si Si2 0.869533 0.616773 0.991175
Si Si3 0.966842 0.103348 0.507980
Si Si4 0.176194 0.749002 0.083326
Si Si5 0.571921 0.979721 0.174896
O O1 0.071206 0.857654 0.606880
O O2 0.203385 0.798854 0.808450
O O3 0.288243 0.949286 0.759686
O O4 0.000000 0.925639 0.750000
O O5 0.864158 0.590425 0.880492
O O6 0.687421 0.628283 0.974442
O O7 0.007049 0.692578 0.039907
O O8 0.936551 0.535209 0.075230
O O9 0.127430 0.151338 0.593998
O O10 0.000000 0.000000 0.500000
O O11 0.250000 0.750000 0.000000
O O12 0.500000 0.943897 0.250000
#
# Coordination Sequence:
#
# PCOD9276175 Si02
#       5
#     8   8   8   8   8
#     4  11  22  43  70 101 142 182 236 286 357 418
#     4  10  23  42  68 101 144 182 236 296 352 418
#     4  12  25  46  74 104 144 185 236 303 353 423
#     4  11  25  44  71 103 141 190 236 292 360 423
#     4  10  20  39  70 102 139 185 233 286 359 418
#
# _framework density 22.727506000000002
#
# number of rings (size 3 to 8) (size 9 to 14) (size 15 to 20)
#    0.000    1.200    4.000    1.800    5.600    0.000 
#    7.200    0.000    0.000    0.000    0.000    0.000 
#    0.000    0.000    0.000    0.000    0.000    0.000 
#
# Total GULP energy -111881.611774 kJ/mol
# GULP energy per Si atom -5594.080589 kJ/mol
# Density = 2.267578 g / cm^3
# Si number density = 22.727506 Si / 1000 Ang^3
#
#
#
# Elastic Constant Matrix: (Units=GPa)
#
#
# Indices 1 2 3 4 5 6 
#
# 1 155.5109 24.7887 43.0287 0.0000 -29.5139 0.0000
# 2 24.7887 73.4985 22.1041 0.0000 -4.8027 0.0000
# 3 43.0287 22.1041 110.5969 0.0000 -26.2238 0.0000
# 4 0.0000 0.0000 0.0000 21.8667 0.0000 -9.3829
# 5 -29.5139 -4.8027 -26.2238 0.0000 46.4781 0.0000
# 6 0.0000 0.0000 0.0000 -9.3829 0.0000 19.7092
#
#
#
# Elastic Compliance Matrix: (Units=1/GPa)
#
#
# Indices 1 2 3 4 5 6 
#
# 1 0.007961 -0.001890 -0.001809 0.000000 0.003839 0.000000
# 2 -0.001890 0.014926 -0.002501 0.000000 -0.001069 0.000000
# 3 -0.001809 -0.002501 0.011443 0.000000 0.005049 0.000000
# 4 0.000000 0.000000 0.000000 0.057472 0.000000 0.027361
# 5 0.003839 -0.001069 0.005049 0.000000 0.026692 0.000000
# 6 0.000000 0.000000 0.000000 0.027361 0.000000 0.063763
#
#
# Mechanical properties :
#
#
# Convention : Reuss Voigt Hill
#
# Bulk Modulus (GPa) = 45.60306 57.71659 51.65982
# Shear Modulus (GPa) = 24.75660 34.25644 29.50652
#
# Velocity S-wave (km/s) = 3.30400 3.88657 3.60707
# Velocity P-wave (km/s) = 5.88761 6.75209 6.33461
#
# Compressibility (1/GPa) = 0.02192835
#
# Stress axis : x y z
#
# Youngs Moduli (GPa) = 125.61393 66.99931 87.39122
#
# Poissons Ratio (x) = 0.12663 0.15811
# Poissons Ratio (y) = 0.23741 0.21859
# Poissons Ratio (z) = 0.22726 0.16758
#
# Static dielectric constant tensor:
#      x y z
#    x 1.815080 0.000000 0.020080 
#    y 0.000000 1.877760 0.000000 
#    z 0.020080 0.000000 1.787490 
# 
# From -- ./inp_files/133288.got.cif
#   From: 2010.05.17/outbox.cif.g08.bks.cpg/sg15_67_cif.got.tgz:133288.got - 2010.06.03 18:47:42.
