data_PCOD9276987
_publ_section_title
;
Structure prediction by ZEFSAII (Michael W. Deem and Ramdas Pophale) SiO2 
 PCOD9276987
Probable space group: C 2/C
;
_chemical_formula_sum "Si O2"
_cell_formula_units_Z 64
_cell_length_a 14.119601
_cell_length_b 12.015810
_cell_length_c 26.740565
_cell_angle_alpha 90.000000
_cell_angle_beta 40.748277
_cell_angle_gamma 90.000000
_cell_volume 2961.312689
_symmetry_space_group_name_H-M "C 2/C"
_symmetry_group_IT_number 15
_symmetry_cell_setting 'monoclinic'
loop_
_space_group_symop_operation_xyz
x,y,z
-x,y,1/2-z
-x,-y,-z
x,-y,1/2+z
1/2+x,1/2+y,z
1/2-x,1/2+y,1/2-z
1/2-x,1/2-y,-z
1/2+x,1/2-y,1/2+z
loop_
_atom_site_type_symbol
_atom_site_label
_atom_site_fract_x
_atom_site_fract_y
_atom_site_fract_z
Si Si1 0.282724 0.947045 0.572303
Si Si2 0.779288 0.717095 0.930505
Si Si3 0.443863 0.991725 0.604416
Si Si4 0.347057 0.526006 0.035810
Si Si5 0.768622 0.553949 0.315954
Si Si6 0.977199 0.050438 0.882423
Si Si7 0.120048 0.279503 0.807080
Si Si8 0.096774 0.348017 0.284833
O O1 0.298016 0.813598 0.569629
O O2 0.321732 0.995955 0.610437
O O3 0.404789 0.985378 0.483869
O O4 0.126560 0.980757 0.612666
O O5 0.722400 0.593258 0.947265
O O6 0.943966 0.713039 0.845809
O O7 0.750000 0.750000 0.000000
O O8 0.448284 0.871752 0.629161
O O9 0.408799 0.082335 0.660821
O O10 0.256731 0.582383 0.116016
O O11 0.500000 0.500000 0.000000
O O12 0.381454 0.582272 0.969609
O O13 0.616295 0.520180 0.348157
O O14 0.844543 0.654801 0.257609
O O15 0.864209 0.442280 0.271338
O O16 0.032107 0.165357 0.836969
O O17 0.274205 0.239818 0.767422
#
# Coordination Sequence:
#
# PCOD9276987 Si02
#       8
#     8   8   8   8   8   8   8   8
#     4  11  23  40  67  97 126 166 220 271 317 389
#     4  12  22  39  70  97 124 164 219 271 332 373
#     4  10  23  42  63  92 131 165 215 268 323 387
#     4  10  22  37  63 100 130 162 219 277 321 389
#     4   9  21  40  62  93 136 171 216 276 335 388
#     4  10  20  40  66  99 130 170 225 272 319 398
#     4  10  22  41  67  91 132 184 205 266 342 389
#     4  10  21  41  64  91 128 169 215 270 327 388
#
# _framework density 21.612037000000001
#
# number of rings (size 3 to 8) (size 9 to 14) (size 15 to 20)
#    0.000    1.750    2.500    0.750    7.000    1.000 
#    2.250    9.375    8.250    0.000    0.000    0.000 
#    0.000    0.000    0.000    0.000    0.000    0.000 
#
# Total GULP energy -178821.651612 kJ/mol
# GULP energy per Si atom -5588.176613 kJ/mol
# Density = 2.156285 g / cm^3
# Si number density = 21.612037 Si / 1000 Ang^3
#
#
#
# Elastic Constant Matrix: (Units=GPa)
#
#
# Indices 1 2 3 4 5 6 
#
# 1 56.5921 -3.0194 3.4357 0.0000 -1.6670 0.0000
# 2 -3.0194 74.4171 24.9539 0.0000 -1.2743 0.0000
# 3 3.4357 24.9539 80.4966 0.0000 4.0278 0.0000
# 4 0.0000 0.0000 0.0000 30.5471 0.0000 -8.7107
# 5 -1.6670 -1.2743 4.0278 0.0000 30.0551 0.0000
# 6 0.0000 0.0000 0.0000 -8.7107 0.0000 19.2967
#
#
#
# Elastic Compliance Matrix: (Units=1/GPa)
#
#
# Indices 1 2 3 4 5 6 
#
# 1 0.017837 0.001138 -0.001174 0.000000 0.001195 0.000000
# 2 0.001138 0.015117 -0.004802 0.000000 0.001348 0.000000
# 3 -0.001174 -0.004802 0.014070 0.000000 -0.002154 0.000000
# 4 0.000000 0.000000 0.000000 0.037573 0.000000 0.016961
# 5 0.001195 0.001348 -0.002154 0.000000 0.033684 0.000000
# 6 0.000000 0.000000 0.000000 0.016961 0.000000 0.059479
#
#
# Mechanical properties :
#
#
# Convention : Reuss Voigt Hill
#
# Bulk Modulus (GPa) = 26.77550 29.13846 27.95698
# Shear Modulus (GPa) = 25.01424 28.38883 26.70153
#
# Velocity S-wave (km/s) = 3.40578 3.62825 3.51877
# Velocity P-wave (km/s) = 5.28033 5.57351 5.42890
#
# Compressibility (1/GPa) = 0.03734757
#
# Stress axis : x y z
#
# Youngs Moduli (GPa) = 56.06170 66.14916 71.07572
#
# Poissons Ratio (x) = -0.07527 0.08343
# Poissons Ratio (y) = -0.06379 0.34133
# Poissons Ratio (z) = 0.06581 0.31767
#
# Static dielectric constant tensor:
#      x y z
#    x 1.820130 0.000000 -0.001670 
#    y 0.000000 1.746330 0.000000 
#    z -0.001670 0.000000 1.808490 
# 
# From -- ./inp_files/296093.got.cif
#   From: 2010.05.17/outbox.cif.g08.bks.cpg/sg15_149_cif.got.tgz:296093.got - 2010.06.03 18:47:42.
