data_PCOD9276404
_publ_section_title
;
Structure prediction by ZEFSAII (Michael W. Deem and Ramdas Pophale) SiO2 
 PCOD9276404
Probable space group: C 2/C
;
_chemical_formula_sum "Si O2"
_cell_formula_units_Z 44
_cell_length_a 10.016367
_cell_length_b 24.095475
_cell_length_c 11.171677
_cell_angle_alpha 90.000000
_cell_angle_beta 54.400886
_cell_angle_gamma 90.000000
_cell_volume 2192.367054
_symmetry_space_group_name_H-M "C 2/C"
_symmetry_group_IT_number 15
_symmetry_cell_setting 'monoclinic'
loop_
_space_group_symop_operation_xyz
x,y,z
-x,y,1/2-z
-x,-y,-z
x,-y,1/2+z
1/2+x,1/2+y,z
1/2-x,1/2+y,1/2-z
1/2-x,1/2-y,-z
1/2+x,1/2-y,1/2+z
loop_
_atom_site_type_symbol
_atom_site_label
_atom_site_fract_x
_atom_site_fract_y
_atom_site_fract_z
Si Si1 0.000000 0.929439 0.250000
Si Si2 0.668523 0.493079 0.489575
Si Si3 0.166575 0.375112 0.084556
Si Si4 0.000000 0.449097 0.750000
Si Si5 0.500000 0.235735 0.250000
Si Si6 0.029646 0.356030 0.538718
Si Si7 0.830630 0.163123 0.717029
O O1 0.863531 0.971197 0.373286
O O2 0.965921 0.885280 0.160730
O O3 0.500000 0.500000 0.500000
O O4 0.721707 0.429881 0.487709
O O5 0.830453 0.517117 0.340290
O O6 0.267347 0.333217 0.115856
O O7 0.000000 0.387976 0.250000
O O8 0.114072 0.350790 0.984289
O O9 0.000843 0.409553 0.865043
O O10 0.442153 0.195058 0.385663
O O11 0.622390 0.278361 0.250951
O O12 0.189869 0.361712 0.374778
#
# Coordination Sequence:
#
# PCOD9276404 Si02
#       7
#     4   8   8   4   4   8   8
#     4  11  22  37  62  92 130 167 214 257 308 384
#     4  12  24  39  62  97 133 176 213 257 318 378
#     4  10  22  38  62  90 129 168 214 257 318 381
#     4  11  24  41  64  92 136 171 216 257 314 386
#     4  10  22  38  66  88 118 164 216 274 330 380
#     4  10  22  40  61  90 122 167 213 266 326 381
#     4  10  20  40  61  90 121 165 212 270 317 385
#
# _framework density 20.069631000000001
#
# number of rings (size 3 to 8) (size 9 to 14) (size 15 to 20)
#    0.000    1.455    4.545    0.545    2.545    1.455 
#    0.000    0.000    0.000    0.000    0.000    0.000 
#    0.000    0.000    0.000    0.000    0.000    0.000 
#
# Total GULP energy -122591.178827 kJ/mol
# GULP energy per Si atom -5572.326310 kJ/mol
# Density = 2.002395 g / cm^3
# Si number density = 20.069631 Si / 1000 Ang^3
#
#
#
# Elastic Constant Matrix: (Units=GPa)
#
#
# Indices 1 2 3 4 5 6 
#
# 1 113.1582 37.7568 8.0665 0.0000 16.2255 0.0000
# 2 37.7568 81.6649 14.1368 0.0000 7.0358 0.0000
# 3 8.0665 14.1368 35.7876 0.0000 0.1497 0.0000
# 4 0.0000 0.0000 0.0000 15.2666 0.0000 -2.0329
# 5 16.2255 7.0358 0.1497 0.0000 36.6292 0.0000
# 6 0.0000 0.0000 0.0000 -2.0329 0.0000 16.8140
#
#
#
# Elastic Compliance Matrix: (Units=1/GPa)
#
#
# Indices 1 2 3 4 5 6 
#
# 1 0.010999 -0.004633 -0.000632 0.000000 -0.003980 0.000000
# 2 -0.004633 0.015329 -0.005007 0.000000 -0.000872 0.000000
# 3 -0.000632 -0.005007 0.030059 0.000000 0.001119 0.000000
# 4 0.000000 0.000000 0.000000 0.066574 0.000000 0.008049
# 5 -0.003980 -0.000872 0.001119 0.000000 0.029226 0.000000
# 6 0.000000 0.000000 0.000000 0.008049 0.000000 0.060448
#
#
# Mechanical properties :
#
#
# Convention : Reuss Voigt Hill
#
# Bulk Modulus (GPa) = 27.90096 38.94787 33.42442
# Shear Modulus (GPa) = 20.39762 25.11866 22.75814
#
# Velocity S-wave (km/s) = 3.19147 3.54160 3.37108
# Velocity P-wave (km/s) = 5.24528 6.01435 5.64293
#
# Compressibility (1/GPa) = 0.03584106
#
# Stress axis : x y z
#
# Youngs Moduli (GPa) = 90.92005 65.23582 33.26844
#
# Poissons Ratio (x) = 0.30222 0.02104
# Poissons Ratio (y) = 0.42121 0.16659
# Poissons Ratio (z) = 0.05750 0.32666
#
# Static dielectric constant tensor:
#      x y z
#    x 1.818590 0.000000 -0.003000 
#    y 0.000000 1.700510 0.000000 
#    z -0.003000 0.000000 1.699920 
# 
# From -- ./inp_files/32258.got.cif
#   From: 2010.05.17/outbox.cif.g08.bks.cpg/sg15_17_cif.got.tgz:32258.got - 2010.06.03 18:47:42.
