data_PCOD9276633
_publ_section_title
;
Structure prediction by ZEFSAII (Michael W. Deem and Ramdas Pophale) SiO2 
 PCOD9276633
Probable space group: C 2/C
;
_chemical_formula_sum "Si O2"
_cell_formula_units_Z 64
_cell_length_a 24.115785
_cell_length_b 15.981179
_cell_length_c 18.027614
_cell_angle_alpha 90.000000
_cell_angle_beta 27.311283
_cell_angle_gamma 90.000000
_cell_volume 3187.829644
_symmetry_space_group_name_H-M "C 2/C"
_symmetry_group_IT_number 15
_symmetry_cell_setting 'monoclinic'
loop_
_space_group_symop_operation_xyz
x,y,z
-x,y,1/2-z
-x,-y,-z
x,-y,1/2+z
1/2+x,1/2+y,z
1/2-x,1/2+y,1/2-z
1/2-x,1/2-y,-z
1/2+x,1/2-y,1/2+z
loop_
_atom_site_type_symbol
_atom_site_label
_atom_site_fract_x
_atom_site_fract_y
_atom_site_fract_z
Si Si1 0.707667 0.927143 0.367741
Si Si2 0.701794 0.514721 0.893617
Si Si3 0.076263 0.009795 0.793055
Si Si4 0.695363 0.385713 0.023950
Si Si5 0.952677 0.575128 0.890466
Si Si6 0.720917 0.339961 0.625331
Si Si7 0.629792 0.797764 0.563593
Si Si8 0.307909 0.153759 0.851721
O O1 0.718574 0.961467 0.271937
O O2 0.840132 0.941845 0.246764
O O3 0.664586 0.834698 0.441793
O O4 0.607133 0.985603 0.525588
O O5 0.748208 0.443714 0.895601
O O6 0.702273 0.601731 0.938204
O O7 0.567428 0.487939 0.028493
O O8 0.111238 0.052255 0.672620
O O9 0.124047 0.914480 0.742967
O O10 0.783219 0.344785 0.980896
O O11 0.638983 0.302691 0.054693
O O12 0.000000 0.578192 0.750000
O O13 0.067306 0.602275 0.802328
O O14 0.838223 0.636947 0.034628
O O15 0.675426 0.247572 0.697036
O O16 0.770699 0.340150 0.481938
O O17 0.500000 0.819526 0.750000
#
# Coordination Sequence:
#
# PCOD9276633 Si02
#       8
#     8   8   8   8   8   8   8   8
#     4  10  23  39  60  89 124 163 191 245 323 363
#     4  12  23  37  59  93 127 151 202 250 309 364
#     4  10  20  40  64  83 119 165 201 249 300 357
#     4  10  22  40  66  97 112 156 219 259 294 349
#     4   9  19  38  59  80 115 158 203 240 289 363
#     4   9  19  36  57  85 111 156 201 240 289 346
#     4  10  21  41  68  87 119 160 211 258 299 358
#     4  10  21  33  57  87 116 152 200 244 285 352
#
# _framework density 20.076355
#
# number of rings (size 3 to 8) (size 9 to 14) (size 15 to 20)
#    0.000    2.000    1.250    1.875    5.250    0.500 
#    4.500    0.000    0.000    0.000    0.000    0.000 
#    0.000    0.000    0.000    0.000    0.000    0.000 
#
# Total GULP energy -178327.140450 kJ/mol
# GULP energy per Si atom -5572.723139 kJ/mol
# Density = 2.003066 g / cm^3
# Si number density = 20.076355 Si / 1000 Ang^3
#
#
#
# Elastic Constant Matrix: (Units=GPa)
#
#
# Indices 1 2 3 4 5 6 
#
# 1 34.4345 12.3295 5.3820 0.0000 11.5341 0.0000
# 2 12.3295 96.8813 18.8889 0.0000 3.1621 0.0000
# 3 5.3820 18.8889 39.2877 0.0000 0.5377 0.0000
# 4 0.0000 0.0000 0.0000 6.7827 0.0000 -2.3228
# 5 11.5341 3.1621 0.5377 0.0000 26.4547 0.0000
# 6 0.0000 0.0000 0.0000 -2.3228 0.0000 7.5770
#
#
#
# Elastic Compliance Matrix: (Units=1/GPa)
#
#
# Indices 1 2 3 4 5 6 
#
# 1 0.035832 -0.003475 -0.003031 0.000000 -0.015145 0.000000
# 2 -0.003475 0.011768 -0.005185 0.000000 0.000214 0.000000
# 3 -0.003031 -0.005185 0.028343 0.000000 0.001365 0.000000
# 4 0.000000 0.000000 0.000000 0.164727 0.000000 0.050498
# 5 -0.015145 0.000214 0.001365 0.000000 0.044351 0.000000
# 6 0.000000 0.000000 0.000000 0.050498 0.000000 0.147460
#
#
# Mechanical properties :
#
#
# Convention : Reuss Voigt Hill
#
# Bulk Modulus (GPa) = 19.02529 27.08937 23.05733
# Shear Modulus (GPa) = 10.56234 17.09641 13.82937
#
# Velocity S-wave (km/s) = 2.29619 2.92133 2.62742
# Velocity P-wave (km/s) = 4.06535 4.99013 4.55129
#
# Compressibility (1/GPa) = 0.05256160
#
# Stress axis : x y z
#
# Youngs Moduli (GPa) = 27.90833 84.97594 35.28270
#
# Poissons Ratio (x) = 0.29528 0.10693
# Poissons Ratio (y) = 0.09698 0.18293
# Poissons Ratio (z) = 0.08458 0.44058
#
# Static dielectric constant tensor:
#      x y z
#    x 1.764630 0.000000 -0.003830 
#    y 0.000000 1.723300 0.000000 
#    z -0.003830 0.000000 1.702030 
# 
# From -- ./inp_files/219700.got.cif
#   From: 2010.05.17/outbox.cif.g08.bks.cpg/sg15_110_cif.got.tgz:219700.got - 2010.06.03 18:47:42.
