data_PCOD9276638
_publ_section_title
;
Structure prediction by ZEFSAII (Michael W. Deem and Ramdas Pophale) SiO2 
 PCOD9276638
Probable space group: C 2/C
;
_chemical_formula_sum "Si O2"
_cell_formula_units_Z 60
_cell_length_a 17.096184
_cell_length_b 27.428849
_cell_length_c 5.948078
_cell_angle_alpha 90.000000
_cell_angle_beta 88.991007
_cell_angle_gamma 90.000000
_cell_volume 2788.791696
_symmetry_space_group_name_H-M "C 2/C"
_symmetry_group_IT_number 15
_symmetry_cell_setting 'monoclinic'
loop_
_space_group_symop_operation_xyz
x,y,z
-x,y,1/2-z
-x,-y,-z
x,-y,1/2+z
1/2+x,1/2+y,z
1/2-x,1/2+y,1/2-z
1/2-x,1/2-y,-z
1/2+x,1/2-y,1/2+z
loop_
_atom_site_type_symbol
_atom_site_label
_atom_site_fract_x
_atom_site_fract_y
_atom_site_fract_z
Si Si1 0.266843 0.674214 0.631173
Si Si2 0.201781 0.928476 0.609900
Si Si3 0.500000 0.802135 0.250000
Si Si4 0.472978 0.555985 0.502042
Si Si5 0.126556 0.262295 0.928883
Si Si6 0.726806 0.894972 0.499809
Si Si7 0.158377 0.492968 0.365416
Si Si8 0.581205 0.845916 0.626166
O O1 0.276404 0.623650 0.498863
O O2 0.195854 0.706788 0.543007
O O3 0.342752 0.708256 0.611255
O O4 0.247981 0.655265 0.880248
O O5 0.121165 0.943958 0.504327
O O6 0.198402 0.915492 0.874964
O O7 0.268236 0.970053 0.610336
O O8 0.450657 0.768768 0.418916
O O9 0.560136 0.838476 0.368881
O O10 0.500000 0.576467 0.250000
O O11 0.500000 0.500000 0.500000
O O12 0.500000 0.576287 0.750000
O O13 0.106712 0.292551 0.707505
O O14 0.692874 0.938256 0.350378
O O15 0.652392 0.882083 0.661422
O O16 0.119461 0.496644 0.620629
O O17 0.500000 0.859964 0.750000
#
# Coordination Sequence:
#
# PCOD9276638 Si02
#       8
#     8   8   4   8   8   8   8   8
#     4  11  22  39  64  97 133 162 229 285 345 390
#     4  11  24  41  65  95 131 176 229 281 337 403
#     4  10  20  40  64  84 134 178 210 262 354 420
#     4  10  25  40  63  88 130 178 228 270 332 403
#     4  10  22  39  63  97 128 174 217 283 338 422
#     4  11  22  37  66  99 129 171 225 288 336 400
#     4  10  22  36  64  94 132 168 222 272 333 389
#     4  10  21  39  63  95 129 172 221 267 342 424
#
# _framework density 21.514693000000001
#
# number of rings (size 3 to 8) (size 9 to 14) (size 15 to 20)
#    0.000    1.600    4.000    0.000    9.333    1.600 
#    1.200    2.000    0.000    3.200    1.733    0.000 
#    0.000    0.000    0.000    0.000    0.000    0.000 
#
# Total GULP energy -167068.327496 kJ/mol
# GULP energy per Si atom -5568.944250 kJ/mol
# Density = 2.146572 g / cm^3
# Si number density = 21.514693 Si / 1000 Ang^3
#
#
#
# Elastic Constant Matrix: (Units=GPa)
#
#
# Indices 1 2 3 4 5 6 
#
# 1 57.0333 25.1766 11.4649 0.0000 13.1200 0.0000
# 2 25.1766 98.4280 1.9673 0.0000 -10.1929 0.0000
# 3 11.4649 1.9673 99.7595 0.0000 11.2620 0.0000
# 4 0.0000 0.0000 0.0000 22.8975 0.0000 7.4977
# 5 13.1200 -10.1929 11.2620 0.0000 26.3456 0.0000
# 6 0.0000 0.0000 0.0000 7.4977 0.0000 13.3096
#
#
#
# Elastic Compliance Matrix: (Units=1/GPa)
#
#
# Indices 1 2 3 4 5 6 
#
# 1 0.024595 -0.007808 -0.000997 0.000000 -0.014843 0.000000
# 2 -0.007808 0.013110 -0.000392 0.000000 0.009128 0.000000
# 3 -0.000997 -0.000392 0.010620 0.000000 -0.004195 0.000000
# 4 0.000000 0.000000 0.000000 0.053551 0.000000 -0.030167
# 5 -0.014843 0.009128 -0.004195 0.000000 0.050674 0.000000
# 6 0.000000 0.000000 0.000000 -0.030167 0.000000 0.092128
#
#
# Mechanical properties :
#
#
# Convention : Reuss Voigt Hill
#
# Bulk Modulus (GPa) = 33.40962 36.93760 35.17361
# Shear Modulus (GPa) = 18.31171 26.95132 22.63152
#
# Velocity S-wave (km/s) = 2.92057 3.54318 3.24683
# Velocity P-wave (km/s) = 5.18994 5.82620 5.51725
#
# Compressibility (1/GPa) = 0.02993150
#
# Stress axis : x y z
#
# Youngs Moduli (GPa) = 40.65788 76.27704 94.16224
#
# Poissons Ratio (x) = 0.59560 0.09388
# Poissons Ratio (y) = 0.31747 0.03688
# Poissons Ratio (z) = 0.04054 0.02987
#
# Static dielectric constant tensor:
#      x y z
#    x 1.789290 0.000000 -0.027010 
#    y 0.000000 1.731250 0.000000 
#    z -0.027010 0.000000 1.980880 
# 
# From -- ./inp_files/11547.got.cif
#   From: 2010.05.17/outbox.cif.g08.bks.cpg/sg15_6_cif.got.tgz:11547.got - 2010.06.03 18:47:42.
