data_PCOD9276010
_publ_section_title
;
Structure prediction by ZEFSAII (Michael W. Deem and Ramdas Pophale) SiO2 
 PCOD9276010
Probable space group: C 2/C
;
_chemical_formula_sum "Si O2"
_cell_formula_units_Z 52
_cell_length_a 18.151104
_cell_length_b 12.437568
_cell_length_c 11.187350
_cell_angle_alpha 90.000000
_cell_angle_beta 115.579662
_cell_angle_gamma 90.000000
_cell_volume 2278.061586
_symmetry_space_group_name_H-M "C 2/C"
_symmetry_group_IT_number 15
_symmetry_cell_setting 'monoclinic'
loop_
_space_group_symop_operation_xyz
x,y,z
-x,y,1/2-z
-x,-y,-z
x,-y,1/2+z
1/2+x,1/2+y,z
1/2-x,1/2+y,1/2-z
1/2-x,1/2-y,-z
1/2+x,1/2-y,1/2+z
loop_
_atom_site_type_symbol
_atom_site_label
_atom_site_fract_x
_atom_site_fract_y
_atom_site_fract_z
Si Si1 0.838988 0.929018 0.270495
Si Si2 0.702785 0.142593 0.499808
Si Si3 0.092575 0.689951 0.775515
Si Si4 0.127755 0.706766 0.067432
Si Si5 0.305718 0.982650 0.738044
Si Si6 0.554152 0.255044 0.507092
Si Si7 0.000000 0.094363 0.750000
O O1 0.844525 0.811537 0.337455
O O2 0.924171 0.959264 0.267877
O O3 0.793238 0.004503 0.332929
O O4 0.767577 0.922663 0.122424
O O5 0.750000 0.250000 0.500000
O O6 0.672955 0.086472 0.361449
O O7 0.622483 0.174379 0.512661
O O8 0.146461 0.593840 0.755805
O O9 0.080929 0.780424 0.663424
O O10 0.000000 0.655662 0.750000
O O11 0.133752 0.725772 0.929120
O O12 0.168635 0.595336 0.135184
O O13 0.032755 0.698917 0.035949
O O14 0.541709 0.338765 0.389145
#
# Coordination Sequence:
#
# PCOD9276010 Si02
#       7
#     8   8   8   8   8   8   4
#     4  11  23  43  66  97 127 172 221 271 321 382
#     4  12  21  40  65  95 128 167 214 268 315 387
#     4  10  23  36  58  99 142 165 208 267 337 392
#     4  10  23  42  63  95 138 173 210 271 327 384
#     4  12  24  38  66 100 130 174 216 265 327 386
#     4  10  20  39  66  99 127 170 214 263 329 390
#     4  10  20  40  72  92 126 174 228 262 314 386
#
# _framework density 22.826422999999998
#
# number of rings (size 3 to 8) (size 9 to 14) (size 15 to 20)
#    0.000    1.231    4.615    1.846    2.154    1.846 
#    0.000    0.769    0.000    0.000    2.000    0.000 
#    0.000    0.000    0.000    0.000    0.000    0.000 
#
# Total GULP energy -144943.924245 kJ/mol
# GULP energy per Si atom -5574.766317 kJ/mol
# Density = 2.277447 g / cm^3
# Si number density = 22.826423 Si / 1000 Ang^3
#
#
#
# Elastic Constant Matrix: (Units=GPa)
#
#
# Indices 1 2 3 4 5 6 
#
# 1 136.9375 26.0351 22.6776 0.0000 -15.8431 0.0000
# 2 26.0351 41.5672 17.9243 0.0000 -9.9785 0.0000
# 3 22.6776 17.9243 125.1723 0.0000 -20.2930 0.0000
# 4 0.0000 0.0000 0.0000 -13.5313 0.0000 13.4093
# 5 -15.8431 -9.9785 -20.2930 0.0000 28.0672 0.0000
# 6 0.0000 0.0000 0.0000 13.4093 0.0000 -5.6651
#
#
#
# Elastic Compliance Matrix: (Units=1/GPa)
#
#
# Indices 1 2 3 4 5 6 
#
# 1 0.008564 -0.004473 -0.000436 0.000000 0.002929 0.000000
# 2 -0.004473 0.029376 -0.002393 0.000000 0.006189 0.000000
# 3 -0.000436 -0.002393 0.009326 0.000000 0.005646 0.000000
# 4 0.000000 0.000000 0.000000 0.054920 0.000000 0.129994
# 5 0.002929 0.006189 0.005646 0.000000 0.043564 0.000000
# 6 0.000000 0.000000 0.000000 0.129994 0.000000 0.131177
#
#
# Mechanical properties :
#
#
# Convention : Reuss Voigt Hill
#
# Bulk Modulus (GPa) = 30.61619 48.55014 39.58317
# Shear Modulus (GPa) = 16.53336 17.57683 17.05510
#
# Velocity S-wave (km/s) = 2.69422 2.77794 2.73640
# Velocity P-wave (km/s) = 4.80834 5.62180 5.23091
#
# Compressibility (1/GPa) = 0.03266246
#
# Stress axis : x y z
#
# Youngs Moduli (GPa) = 116.76689 34.04082 107.22726
#
# Poissons Ratio (x) = 0.15226 0.04678
# Poissons Ratio (y) = 0.52228 0.25658
# Poissons Ratio (z) = 0.05094 0.08146
#
# Static dielectric constant tensor:
#      x y z
#    x 2.028710 0.000000 -0.127400 
#    y 0.000000 1.893150 0.000000 
#    z -0.127400 0.000000 1.943940 
# 
# From -- ./inp_files/105482.got.cif
#   From: 2010.05.17/outbox.cif.g08.bks.cpg/sg15_53_cif.got.tgz:105482.got - 2010.06.03 18:47:42.
