data_PCOD9276632
_publ_section_title
;
Structure prediction by ZEFSAII (Michael W. Deem and Ramdas Pophale) SiO2 
 PCOD9276632
Probable space group: C 2/C
;
_chemical_formula_sum "Si O2"
_cell_formula_units_Z 60
_cell_length_a 10.494235
_cell_length_b 14.661128
_cell_length_c 17.578465
_cell_angle_alpha 90.000000
_cell_angle_beta 85.102326
_cell_angle_gamma 90.000000
_cell_volume 2694.700514
_symmetry_space_group_name_H-M "C 2/C"
_symmetry_group_IT_number 15
_symmetry_cell_setting 'monoclinic'
loop_
_space_group_symop_operation_xyz
x,y,z
-x,y,1/2-z
-x,-y,-z
x,-y,1/2+z
1/2+x,1/2+y,z
1/2-x,1/2+y,1/2-z
1/2-x,1/2-y,-z
1/2+x,1/2-y,1/2+z
loop_
_atom_site_type_symbol
_atom_site_label
_atom_site_fract_x
_atom_site_fract_y
_atom_site_fract_z
Si Si1 0.371585 0.488434 0.902497
Si Si2 0.481498 0.896204 0.437791
Si Si3 0.210688 0.544252 0.033934
Si Si4 0.138802 0.485785 0.303771
Si Si5 0.749861 0.624454 0.302115
Si Si6 0.651540 0.277138 0.572106
Si Si7 0.500000 0.523934 0.250000
Si Si8 0.155449 0.293677 0.236725
O O1 0.235820 0.493111 0.866572
O O2 0.390945 0.382083 0.920521
O O3 0.465824 0.524114 0.831714
O O4 0.342407 0.544640 0.979710
O O5 0.588436 0.913092 0.496195
O O6 0.520147 0.946110 0.357104
O O7 0.469525 0.788857 0.431170
O O8 0.342333 0.940051 0.460221
O O9 0.233986 0.589746 0.113472
O O10 0.139054 0.575655 0.252729
O O11 0.184402 0.399729 0.250943
O O12 0.621814 0.584234 0.268014
O O13 0.729819 0.731944 0.294311
O O14 0.750000 0.250000 0.500000
O O15 0.700713 0.244774 0.652865
O O16 0.000000 0.281875 0.250000
#
# Coordination Sequence:
#
# PCOD9276632 Si02
#       8
#     8   8   8   8   8   8   4   8
#     4  10  21  40  60  94 125 173 215 277 321 389
#     4  10  21  39  62  94 133 168 216 267 327 388
#     4  10  22  38  61  95 133 168 214 276 335 385
#     4  10  22  37  65  93 126 168 221 265 325 391
#     4  11  22  40  65  98 129 172 219 275 329 395
#     4  12  21  35  62  96 129 166 217 269 322 393
#     4  10  20  40  64  80 128 168 220 266 324 392
#     4  12  22  40  69  95 121 173 220 265 327 404
#
# _framework density 22.265924999999999
#
# number of rings (size 3 to 8) (size 9 to 14) (size 15 to 20)
#    0.000    1.333    6.000    0.800    0.000    0.533 
#    0.000    2.667    5.867    3.200    0.000    0.000 
#    0.000    0.000    0.000    0.000    0.000    0.000 
#
# Total GULP energy -167279.118668 kJ/mol
# GULP energy per Si atom -5575.970622 kJ/mol
# Density = 2.221525 g / cm^3
# Si number density = 22.265925 Si / 1000 Ang^3
#
#
#
# Elastic Constant Matrix: (Units=GPa)
#
#
# Indices 1 2 3 4 5 6 
#
# 1 58.6624 25.1816 19.8179 0.0000 -1.2012 0.0000
# 2 25.1816 89.6959 17.6945 0.0000 18.4747 0.0000
# 3 19.8179 17.6945 127.3409 0.0000 -8.6561 0.0000
# 4 0.0000 0.0000 0.0000 25.1140 0.0000 5.8948
# 5 -1.2012 18.4747 -8.6561 0.0000 43.3477 0.0000
# 6 0.0000 0.0000 0.0000 5.8948 0.0000 20.7630
#
#
#
# Elastic Compliance Matrix: (Units=1/GPa)
#
#
# Indices 1 2 3 4 5 6 
#
# 1 0.020332 -0.005815 -0.002179 0.000000 0.002607 0.000000
# 2 -0.005815 0.014454 -0.001554 0.000000 -0.006632 0.000000
# 3 -0.002179 -0.001554 0.008565 0.000000 0.002312 0.000000
# 4 0.000000 0.000000 0.000000 0.042661 0.000000 -0.012112
# 5 0.002607 -0.006632 0.002312 0.000000 0.026430 0.000000
# 6 0.000000 0.000000 0.000000 -0.012112 0.000000 0.051601
#
#
# Mechanical properties :
#
#
# Convention : Reuss Voigt Hill
#
# Bulk Modulus (GPa) = 41.22939 44.56526 42.89733
# Shear Modulus (GPa) = 26.14707 32.04529 29.09618
#
# Velocity S-wave (km/s) = 3.43054 3.79780 3.61883
# Velocity P-wave (km/s) = 5.85222 6.26814 6.06374
#
# Compressibility (1/GPa) = 0.02425454
#
# Stress axis : x y z
#
# Youngs Moduli (GPa) = 49.18235 69.18531 116.75138
#
# Poissons Ratio (x) = 0.40233 0.25441
# Poissons Ratio (y) = 0.28601 0.18146
# Poissons Ratio (z) = 0.10717 0.10753
#
# Static dielectric constant tensor:
#      x y z
#    x 1.874290 0.000000 -0.053760 
#    y 0.000000 1.837280 0.000000 
#    z -0.053760 0.000000 1.927510 
# 
# From -- ./inp_files/197854.got.cif
#   From: 2010.05.17/outbox.cif.g08.bks.cpg/sg15_99_cif.got.tgz:197854.got - 2010.06.03 18:47:42.
