data_PCOD9276603
_publ_section_title
;
Structure prediction by ZEFSAII (Michael W. Deem and Ramdas Pophale) SiO2 
 PCOD9276603
Probable space group: C 2/C
;
_chemical_formula_sum "Si O2"
_cell_formula_units_Z 44
_cell_length_a 22.593775
_cell_length_b 6.498701
_cell_length_c 15.582281
_cell_angle_alpha 90.000000
_cell_angle_beta 57.697814
_cell_angle_gamma 90.000000
_cell_volume 1933.869533
_symmetry_space_group_name_H-M "C 2/C"
_symmetry_group_IT_number 15
_symmetry_cell_setting 'monoclinic'
loop_
_space_group_symop_operation_xyz
x,y,z
-x,y,1/2-z
-x,-y,-z
x,-y,1/2+z
1/2+x,1/2+y,z
1/2-x,1/2+y,1/2-z
1/2-x,1/2-y,-z
1/2+x,1/2-y,1/2+z
loop_
_atom_site_type_symbol
_atom_site_label
_atom_site_fract_x
_atom_site_fract_y
_atom_site_fract_z
Si Si1 0.922723 0.071531 0.663561
Si Si2 0.316381 0.790253 0.846912
Si Si3 0.387988 0.079856 0.928744
Si Si4 0.000000 0.150433 0.250000
Si Si5 0.313838 0.485553 0.000193
Si Si6 0.570199 0.275333 0.990718
O O1 0.911471 0.867555 0.615788
O O2 0.948328 0.992870 0.736149
O O3 0.855570 0.212141 0.732249
O O4 0.987580 0.194568 0.571359
O O5 0.367604 0.928121 0.866631
O O6 0.246721 0.925817 0.891540
O O7 0.298630 0.591541 0.920045
O O8 0.456205 0.204804 0.847185
O O9 0.325585 0.243314 0.987764
O O10 0.404248 0.948455 0.000788
O O11 0.387208 0.574721 0.978287
#
# Coordination Sequence:
#
# PCOD9276603 Si02
#       6
#     8   8   8   4   8   8
#     4  11  21  42  62  95 133 179 226 278 327 406
#     4  10  21  38  66  91 130 172 228 273 331 398
#     4  11  20  37  63  97 127 180 221 280 335 390
#     4  12  20  36  66  94 130 170 236 272 324 396
#     4  10  20  40  63  93 128 172 219 280 333 402
#     4  10  23  40  64  89 137 177 218 278 344 393
#
# _framework density 22.752309
#
# number of rings (size 3 to 8) (size 9 to 14) (size 15 to 20)
#    0.000    1.455    3.636    2.727    0.000    0.727 
#    3.273    1.818    0.000    0.000    0.000    0.000 
#    0.000    0.000    0.000    0.000    0.000    0.000 
#
# Total GULP energy -123023.843416 kJ/mol
# GULP energy per Si atom -5591.992883 kJ/mol
# Density = 2.270052 g / cm^3
# Si number density = 22.752309 Si / 1000 Ang^3
#
#
#
# Elastic Constant Matrix: (Units=GPa)
#
#
# Indices 1 2 3 4 5 6 
#
# 1 40.0416 30.5184 29.5054 -0.0003 -8.3843 -0.0004
# 2 30.5184 128.2086 55.8842 -0.0004 -9.4156 -0.0001
# 3 29.5054 55.8842 120.0788 -0.0001 -24.1192 -0.0001
# 4 -0.0003 -0.0004 -0.0001 37.6586 0.0000 -3.0011
# 5 -8.3843 -9.4156 -24.1192 0.0000 37.8429 -0.0001
# 6 -0.0004 -0.0001 -0.0001 -3.0011 -0.0001 35.2245
#
#
#
# Elastic Compliance Matrix: (Units=1/GPa)
#
#
# Indices 1 2 3 4 5 6 
#
# 1 0.033552 -0.005561 -0.005093 0.000000 0.002804 0.000000
# 2 -0.005561 0.010716 -0.003822 0.000000 -0.001002 0.000000
# 3 -0.005093 -0.003822 0.012547 0.000000 0.005917 0.000000
# 4 0.000000 0.000000 0.000000 0.026736 0.000000 0.002278
# 5 0.002804 -0.001002 0.005917 0.000000 0.030568 0.000000
# 6 0.000000 0.000000 0.000000 0.002278 0.000000 0.028583
#
#
# Mechanical properties :
#
#
# Convention : Reuss Voigt Hill
#
# Bulk Modulus (GPa) = 35.88984 57.79388 46.84186
# Shear Modulus (GPa) = 27.63315 33.63993 30.63654
#
# Velocity S-wave (km/s) = 3.48878 3.84933 3.67348
# Velocity P-wave (km/s) = 5.66014 6.72406 6.21491
#
# Compressibility (1/GPa) = 0.02786304
#
# Stress axis : x y z
#
# Youngs Moduli (GPa) = 29.80409 93.32010 79.70267
#
# Poissons Ratio (x) = 0.51893 0.40595
# Poissons Ratio (y) = 0.16573 0.30462
# Poissons Ratio (z) = 0.15180 0.35666
#
# Static dielectric constant tensor:
#      x y z
#    x 1.851410 0.000000 -0.020720 
#    y 0.000000 1.862730 0.000000 
#    z -0.020720 0.000000 1.883320 
# 
# From -- ./inp_files/221124.got.cif
#   From: 2010.05.17/outbox.cif.g08.bks.cpg/sg15_111_cif.got.tgz:221124.got - 2010.06.03 18:47:42.
