data_PCOD9276862
_publ_section_title
;
Structure prediction by ZEFSAII (Michael W. Deem and Ramdas Pophale) SiO2 
 PCOD9276862
Probable space group: C 2/C
;
_chemical_formula_sum "Si O2"
_cell_formula_units_Z 32
_cell_length_a 5.980525
_cell_length_b 26.695582
_cell_length_c 8.365526
_cell_angle_alpha 90.000000
_cell_angle_beta 73.907041
_cell_angle_gamma 90.000000
_cell_volume 1283.248985
_symmetry_space_group_name_H-M "C 2/C"
_symmetry_group_IT_number 15
_symmetry_cell_setting 'monoclinic'
loop_
_space_group_symop_operation_xyz
x,y,z
-x,y,1/2-z
-x,-y,-z
x,-y,1/2+z
1/2+x,1/2+y,z
1/2-x,1/2+y,1/2-z
1/2-x,1/2-y,-z
1/2+x,1/2-y,1/2+z
loop_
_atom_site_type_symbol
_atom_site_label
_atom_site_fract_x
_atom_site_fract_y
_atom_site_fract_z
Si Si1 0.000000 0.275453 0.750000
Si Si2 0.732843 0.029824 0.602253
Si Si3 0.000000 0.889795 0.250000
Si Si4 0.869040 0.689491 0.611573
Si Si5 0.748657 0.572350 0.245519
O O1 0.774495 0.239996 0.817944
O O2 0.985545 0.303008 0.580320
O O3 0.500000 0.032857 0.750000
O O4 0.880101 0.074234 0.649207
O O5 0.686614 0.043544 0.430022
O O6 0.817321 0.973099 0.619987
O O7 0.180895 0.854008 0.123304
O O8 0.000000 0.676288 0.750000
O O9 0.500000 0.599403 0.250000
O O10 0.000000 0.595228 0.250000
#
# Coordination Sequence:
#
# PCOD9276862 Si02
#       5
#     4   8   4   8   8
#     4   9  20  38  72  96 124 160 224 254 320 392
#     4  11  23  40  64  87 124 171 222 281 335 390
#     4  11  24  38  60  86 138 172 204 266 342 400
#     4  10  20  40  65  98 128 168 208 266 321 396
#     4  11  23  40  67  94 121 165 239 288 331 393
#
# _framework density 24.936703999999999
#
# number of rings (size 3 to 8) (size 9 to 14) (size 15 to 20)
#    0.000    1.500    1.250    5.250    3.500    0.000 
#    0.000    5.000    2.750    0.000    0.000    0.000 
#    0.000    0.000    0.000    0.000    0.000    0.000 
#
# Total GULP energy -89453.089566 kJ/mol
# GULP energy per Si atom -5590.818098 kJ/mol
# Density = 2.487995 g / cm^3
# Si number density = 24.936704 Si / 1000 Ang^3
#
#
#
# Elastic Constant Matrix: (Units=GPa)
#
#
# Indices 1 2 3 4 5 6 
#
# 1 155.4250 34.1693 36.3590 0.0000 8.1228 0.0000
# 2 34.1693 77.6508 37.0373 0.0000 -4.4594 0.0000
# 3 36.3590 37.0373 173.8582 0.0000 -4.1072 0.0000
# 4 0.0000 0.0000 0.0000 24.7808 0.0000 18.7627
# 5 8.1228 -4.4594 -4.1072 0.0000 36.6126 0.0000
# 6 0.0000 0.0000 0.0000 18.7627 0.0000 26.3332
#
#
#
# Elastic Compliance Matrix: (Units=1/GPa)
#
#
# Indices 1 2 3 4 5 6 
#
# 1 0.007415 -0.002917 -0.000979 0.000000 -0.002110 0.000000
# 2 -0.002917 0.015555 -0.002651 0.000000 0.002244 0.000000
# 3 -0.000979 -0.002651 0.006536 0.000000 0.000628 0.000000
# 4 0.000000 0.000000 0.000000 0.087626 0.000000 -0.062435
# 5 -0.002110 0.002244 0.000628 0.000000 0.028125 0.000000
# 6 0.000000 0.000000 0.000000 -0.062435 0.000000 0.082460
#
#
# Mechanical properties :
#
#
# Convention : Reuss Voigt Hill
#
# Bulk Modulus (GPa) = 60.92989 69.11835 65.02412
# Shear Modulus (GPa) = 20.30203 37.50320 28.90261
#
# Velocity S-wave (km/s) = 2.85641 3.88227 3.40816
# Velocity P-wave (km/s) = 5.94690 6.91908 6.45133
#
# Compressibility (1/GPa) = 0.01641231
#
# Stress axis : x y z
#
# Youngs Moduli (GPa) = 134.87009 64.28845 152.99718
#
# Poissons Ratio (x) = 0.18752 0.14979
# Poissons Ratio (y) = 0.39340 0.40554
# Poissons Ratio (z) = 0.13205 0.17041
#
# Static dielectric constant tensor:
#      x y z
#    x 2.209920 0.000000 0.038910 
#    y 0.000000 1.932150 0.000000 
#    z 0.038910 0.000000 2.047040 
# 
# From -- ./inp_files/20182.got.cif
#   From: 2010.05.17/outbox.cif.g08.bks.cpg/sg15_11_cif.got.tgz:20182.got - 2010.06.03 18:47:42.
