data_PCOD9276300
_publ_section_title
;
Structure prediction by ZEFSAII (Michael W. Deem and Ramdas Pophale) SiO2 
 PCOD9276300
Probable space group: C 2/C
;
_chemical_formula_sum "Si O2"
_cell_formula_units_Z 52
_cell_length_a 14.114228
_cell_length_b 19.060430
_cell_length_c 14.665188
_cell_angle_alpha 90.000000
_cell_angle_beta 141.600133
_cell_angle_gamma 90.000000
_cell_volume 2450.592630
_symmetry_space_group_name_H-M "C 2/C"
_symmetry_group_IT_number 15
_symmetry_cell_setting 'monoclinic'
loop_
_space_group_symop_operation_xyz
x,y,z
-x,y,1/2-z
-x,-y,-z
x,-y,1/2+z
1/2+x,1/2+y,z
1/2-x,1/2+y,1/2-z
1/2-x,1/2-y,-z
1/2+x,1/2-y,1/2+z
loop_
_atom_site_type_symbol
_atom_site_label
_atom_site_fract_x
_atom_site_fract_y
_atom_site_fract_z
Si Si1 0.364907 0.007843 0.969757
Si Si2 0.500000 0.053075 0.750000
Si Si3 0.090907 0.772638 0.147515
Si Si4 0.617040 0.455814 0.669882
Si Si5 0.834720 0.869146 0.129250
Si Si6 0.688284 0.594788 0.606536
Si Si7 0.219755 0.167010 0.118465
O O1 0.291744 0.084276 0.918521
O O2 0.232976 0.953623 0.840882
O O3 0.500000 0.000000 0.000000
O O4 0.427241 0.992856 0.116084
O O5 0.355808 0.091014 0.689365
O O6 0.115928 0.806982 0.266339
O O7 0.167052 0.828333 0.135198
O O8 0.152907 0.696010 0.216689
O O9 0.916308 0.775580 0.984581
O O10 0.648705 0.533968 0.652397
O O11 0.447180 0.428960 0.564982
O O12 0.664175 0.404630 0.622607
O O13 0.000000 0.909554 0.250000
O O14 0.767337 0.847622 0.979960
#
# Coordination Sequence:
#
# PCOD9276300 Si02
#       7
#     8   4   8   8   8   8   8
#     4  12  24  39  59  95 134 166 214 276 326 371
#     4  12  24  36  60 100 126 158 222 272 328 378
#     4  10  20  40  59  90 129 170 211 268 328 383
#     4  10  21  41  63  86 124 175 212 258 332 385
#     4  10  21  37  60  89 126 176 218 256 318 399
#     4  10  21  40  64  89 126 170 217 268 318 393
#     4  10  22  37  64  92 124 170 219 258 328 394
#
# _framework density 21.219356999999999
#
# number of rings (size 3 to 8) (size 9 to 14) (size 15 to 20)
#    0.000    1.538    3.077    1.385    4.308    2.462 
#    0.000    0.000    0.000    8.308    0.000    0.000 
#    0.000    0.000    0.000    0.000    0.000    0.000 
#
# Total GULP energy -144851.464081 kJ/mol
# GULP energy per Si atom -5571.210157 kJ/mol
# Density = 2.117106 g / cm^3
# Si number density = 21.219357 Si / 1000 Ang^3
#
#
#
# Elastic Constant Matrix: (Units=GPa)
#
#
# Indices 1 2 3 4 5 6 
#
# 1 67.8869 13.3898 8.1335 0.0001 19.6768 0.0001
# 2 13.3898 35.3725 10.7958 0.0000 6.3202 0.0000
# 3 8.1335 10.7958 110.2507 0.0002 -3.9961 0.0002
# 4 0.0001 0.0000 0.0002 12.4885 0.0001 -1.2105
# 5 19.6768 6.3202 -3.9961 0.0001 31.6744 0.0001
# 6 0.0001 0.0000 0.0002 -1.2105 0.0001 11.2545
#
#
#
# Elastic Compliance Matrix: (Units=1/GPa)
#
#
# Indices 1 2 3 4 5 6 
#
# 1 0.019040 -0.004830 -0.001332 0.000000 -0.011033 0.000000
# 2 -0.004830 0.031633 -0.002874 0.000000 -0.003674 0.000000
# 3 -0.001332 -0.002874 0.009544 0.000000 0.002605 0.000000
# 4 0.000000 0.000000 0.000000 0.080917 0.000000 0.008703
# 5 -0.011033 -0.003674 0.002605 0.000000 0.039487 0.000000
# 6 0.000000 0.000000 0.000000 0.008703 0.000000 0.089790
#
#
# Mechanical properties :
#
#
# Convention : Reuss Voigt Hill
#
# Bulk Modulus (GPa) = 23.72723 30.90537 27.31630
# Shear Modulus (GPa) = 16.52727 23.16290 19.84509
#
# Velocity S-wave (km/s) = 2.79386 3.30751 3.06148
# Velocity P-wave (km/s) = 4.64906 5.40208 5.03965
#
# Compressibility (1/GPa) = 0.04214568
#
# Stress axis : x y z
#
# Youngs Moduli (GPa) = 52.52028 31.61304 104.77416
#
# Poissons Ratio (x) = 0.15268 0.13952
# Poissons Ratio (y) = 0.25366 0.30116
# Poissons Ratio (z) = 0.06994 0.09087
#
# Static dielectric constant tensor:
#      x y z
#    x 2.367720 0.000000 0.590780 
#    y 0.000000 1.799550 0.000000 
#    z 0.590780 0.000000 2.392240 
# 
# From -- ./inp_files/155560.got.cif
#   From: 2010.05.17/outbox.cif.g08.bks.cpg/sg15_78_cif.got.tgz:155560.got - 2010.06.03 18:47:42.
