data_PCOD9276572
_publ_section_title
;
Structure prediction by ZEFSAII (Michael W. Deem and Ramdas Pophale) SiO2 
 PCOD9276572
Probable space group: C 2/C
;
_chemical_formula_sum "Si O2"
_cell_formula_units_Z 28
_cell_length_a 7.414600
_cell_length_b 12.251505
_cell_length_c 13.144444
_cell_angle_alpha 90.000000
_cell_angle_beta 80.065469
_cell_angle_gamma 90.000000
_cell_volume 1176.137392
_symmetry_space_group_name_H-M "C 2/C"
_symmetry_group_IT_number 15
_symmetry_cell_setting 'monoclinic'
loop_
_space_group_symop_operation_xyz
x,y,z
-x,y,1/2-z
-x,-y,-z
x,-y,1/2+z
1/2+x,1/2+y,z
1/2-x,1/2+y,1/2-z
1/2-x,1/2-y,-z
1/2+x,1/2-y,1/2+z
loop_
_atom_site_type_symbol
_atom_site_label
_atom_site_fract_x
_atom_site_fract_y
_atom_site_fract_z
Si Si1 0.500000 0.571563 0.250000
Si Si2 0.435787 0.620552 0.477337
Si Si3 0.988591 0.348507 0.529386
Si Si4 0.382858 0.964382 0.172306
O O1 0.499575 0.639152 0.354549
O O2 0.681902 0.498148 0.226985
O O3 0.500000 0.500000 0.500000
O O4 0.215774 0.628747 0.495800
O O5 0.505749 0.719586 0.539599
O O6 0.991090 0.424396 0.628067
O O7 0.121120 0.393795 0.429643
O O8 0.500000 0.910881 0.250000
#
# Coordination Sequence:
#
# PCOD9276572 Si02
#       4
#     4   8   8   8
#     4  10  22  38  60  92 118 162 208 244 314 370
#     4  10  20  40  63  89 125 165 206 260 310 376
#     4   9  21  39  63  89 124 167 205 255 323 365
#     4  10  20  40  64  90 124 160 205 259 307 373
#
# _framework density 23.806740000000001
#
# number of rings (size 3 to 8) (size 9 to 14) (size 15 to 20)
#    0.000    2.286    0.000    1.714    2.000    0.000 
#    7.714   20.000    0.000    0.000    0.000    0.000 
#    0.000    0.000    0.000    0.000    0.000    0.000 
#
# Total GULP energy -78296.326199 kJ/mol
# GULP energy per Si atom -5592.594728 kJ/mol
# Density = 2.375255 g / cm^3
# Si number density = 23.806740 Si / 1000 Ang^3
#
#
#
# Elastic Constant Matrix: (Units=GPa)
#
#
# Indices 1 2 3 4 5 6 
#
# 1 77.8644 16.1685 30.3241 0.0000 -24.0496 0.0000
# 2 16.1685 142.6607 5.8583 0.0000 -0.5932 0.0000
# 3 30.3241 5.8583 83.4193 0.0000 -18.9363 0.0000
# 4 0.0000 0.0000 0.0000 12.4013 0.0000 0.1269
# 5 -24.0496 -0.5932 -18.9363 0.0000 36.4549 0.0000
# 6 0.0000 0.0000 0.0000 0.1269 0.0000 17.6772
#
#
#
# Elastic Compliance Matrix: (Units=1/GPa)
#
#
# Indices 1 2 3 4 5 6 
#
# 1 0.017789 -0.001805 -0.004175 0.000000 0.009538 0.000000
# 2 -0.001805 0.007214 -0.000107 0.000000 -0.001129 0.000000
# 3 -0.004175 -0.000107 0.014610 0.000000 0.004833 0.000000
# 4 0.000000 0.000000 0.000000 0.080642 0.000000 -0.000579
# 5 0.009538 -0.001129 0.004833 0.000000 0.036216 0.000000
# 6 0.000000 0.000000 0.000000 -0.000579 0.000000 0.056574
#
#
# Mechanical properties :
#
#
# Convention : Reuss Voigt Hill
#
# Bulk Modulus (GPa) = 36.44314 45.40512 40.92413
# Shear Modulus (GPa) = 21.33422 30.07959 25.70690
#
# Velocity S-wave (km/s) = 2.99681 3.55842 3.28962
# Velocity P-wave (km/s) = 5.22644 5.99974 5.62639
#
# Compressibility (1/GPa) = 0.02744001
#
# Stress axis : x y z
#
# Youngs Moduli (GPa) = 56.21303 138.62122 68.44697
#
# Poissons Ratio (x) = 0.25022 0.28576
# Poissons Ratio (y) = 0.10147 0.00730
# Poissons Ratio (z) = 0.23468 0.01479
#
# Static dielectric constant tensor:
#      x y z
#    x 1.947180 0.000000 0.010700 
#    y 0.000000 1.927560 0.000000 
#    z 0.010700 0.000000 1.882700 
# 
# From -- ./inp_files/75273.got.cif
#   From: 2010.05.17/outbox.cif.g08.bks.cpg/sg15_38_cif.got.tgz:75273.got - 2010.06.03 18:47:42.
