data_PCOD9276701
_publ_section_title
;
Structure prediction by ZEFSAII (Michael W. Deem and Ramdas Pophale) SiO2 
 PCOD9276701
Probable space group: C 2/C
;
_chemical_formula_sum "Si O2"
_cell_formula_units_Z 64
_cell_length_a 12.666002
_cell_length_b 14.025262
_cell_length_c 29.728039
_cell_angle_alpha 90.000000
_cell_angle_beta 37.104193
_cell_angle_gamma 90.000000
_cell_volume 3185.854238
_symmetry_space_group_name_H-M "C 2/C"
_symmetry_group_IT_number 15
_symmetry_cell_setting 'monoclinic'
loop_
_space_group_symop_operation_xyz
x,y,z
-x,y,1/2-z
-x,-y,-z
x,-y,1/2+z
1/2+x,1/2+y,z
1/2-x,1/2+y,1/2-z
1/2-x,1/2-y,-z
1/2+x,1/2-y,1/2+z
loop_
_atom_site_type_symbol
_atom_site_label
_atom_site_fract_x
_atom_site_fract_y
_atom_site_fract_z
Si Si1 0.875288 0.806960 0.249140
Si Si2 0.640262 0.054727 0.735836
Si Si3 0.816208 0.503539 0.489706
Si Si4 0.994183 0.362246 0.368206
Si Si5 0.587405 0.164042 0.403021
Si Si6 0.724684 0.619674 0.252849
Si Si7 0.495101 0.358520 0.109350
Si Si8 0.829059 0.828715 0.904309
O O1 0.688483 0.856993 0.323986
O O2 0.812318 0.703665 0.252790
O O3 0.970209 0.851014 0.172385
O O4 0.000000 0.805470 0.250000
O O5 0.500000 0.011282 0.750000
O O6 0.539503 0.133125 0.799844
O O7 0.806804 0.103357 0.656577
O O8 0.714017 0.977367 0.745170
O O9 0.891639 0.455836 0.418679
O O10 0.643509 0.567846 0.544835
O O11 0.769571 0.411476 0.535083
O O12 0.962542 0.576071 0.458303
O O13 0.882292 0.266739 0.413349
O O14 0.707431 0.130769 0.320663
O O15 0.479372 0.254060 0.420338
O O16 0.706766 0.195182 0.403814
O O17 0.516407 0.629387 0.325481
#
# Coordination Sequence:
#
# PCOD9276701 Si02
#       8
#     8   8   8   8   8   8   8   8
#     4   9  20  38  62  91 121 158 207 265 315 359
#     4  11  20  40  66  91 118 158 210 260 314 366
#     4  12  23  42  61  90 134 168 203 254 309 374
#     4  10  23  41  63  91 128 162 210 261 307 369
#     4  11  23  41  65  92 124 167 209 256 311 368
#     4  10  20  40  64  92 119 158 207 265 307 367
#     4  10  23  41  63  91 128 162 210 261 307 369
#     4  11  23  41  65  92 124 167 209 256 311 368
#
# _framework density 20.088802999999999
#
# number of rings (size 3 to 8) (size 9 to 14) (size 15 to 20)
#    0.000    1.500    2.500    3.375    0.000    2.000 
#    0.000    2.500    0.000    0.000    0.000    0.000 
#    0.000    0.000    0.000    0.000    0.000    0.000 
#
# Total GULP energy -178638.184929 kJ/mol
# GULP energy per Si atom -5582.443279 kJ/mol
# Density = 2.004308 g / cm^3
# Si number density = 20.088803 Si / 1000 Ang^3
#
#
#
# Elastic Constant Matrix: (Units=GPa)
#
#
# Indices 1 2 3 4 5 6 
#
# 1 104.4924 18.6466 38.6463 0.0000 -14.4159 0.0000
# 2 18.6466 91.2169 38.9687 0.0000 -6.5010 0.0000
# 3 38.6463 38.9687 89.4535 -0.0001 -20.1607 0.0000
# 4 0.0000 0.0000 -0.0001 47.0519 0.0000 -5.8234
# 5 -14.4159 -6.5010 -20.1607 0.0000 10.8685 0.0000
# 6 0.0000 0.0000 0.0000 -5.8234 0.0000 18.4416
#
#
#
# Elastic Compliance Matrix: (Units=1/GPa)
#
#
# Indices 1 2 3 4 5 6 
#
# 1 0.012129 -0.000639 -0.002444 0.000000 0.011173 0.000000
# 2 -0.000639 0.013654 -0.006912 0.000000 -0.005502 0.000000
# 3 -0.002444 -0.006912 0.023342 0.000000 0.035923 0.000000
# 4 0.000000 0.000000 0.000000 0.022118 0.000000 0.006984
# 5 0.011173 -0.005502 0.035923 0.000000 0.170173 0.000000
# 6 0.000000 0.000000 0.000000 0.006984 0.000000 0.056431
#
#
# Mechanical properties :
#
#
# Convention : Reuss Voigt Hill
#
# Bulk Modulus (GPa) = 34.32222 53.07623 43.69923
# Shear Modulus (GPa) = 15.26491 27.86583 21.56537
#
# Velocity S-wave (km/s) = 2.75957 3.72846 3.27999
# Velocity P-wave (km/s) = 5.22264 6.70920 6.01204
#
# Compressibility (1/GPa) = 0.02913565
#
# Stress axis : x y z
#
# Youngs Moduli (GPa) = 82.44463 73.23675 42.84116
#
# Poissons Ratio (x) = 0.04682 0.10469
# Poissons Ratio (y) = 0.05271 0.29613
# Poissons Ratio (z) = 0.20146 0.50623
#
# Static dielectric constant tensor:
#      x y z
#    x 1.681470 0.000000 0.006910 
#    y 0.000000 1.730610 0.000000 
#    z 0.006910 0.000000 1.732990 
# 
# From -- ./inp_files/293065.got.cif
#   From: 2010.05.17/outbox.cif.g08.bks.cpg/sg15_147_cif.got.tgz:293065.got - 2010.06.03 18:47:42.
