data_PCOD9276774
_publ_section_title
;
Structure prediction by ZEFSAII (Michael W. Deem and Ramdas Pophale) SiO2 
 PCOD9276774
Probable space group: C 2/C
;
_chemical_formula_sum "Si O2"
_cell_formula_units_Z 52
_cell_length_a 15.650046
_cell_length_b 8.629179
_cell_length_c 18.021471
_cell_angle_alpha 90.000000
_cell_angle_beta 85.647203
_cell_angle_gamma 90.000000
_cell_volume 2426.726612
_symmetry_space_group_name_H-M "C 2/C"
_symmetry_group_IT_number 15
_symmetry_cell_setting 'monoclinic'
loop_
_space_group_symop_operation_xyz
x,y,z
-x,y,1/2-z
-x,-y,-z
x,-y,1/2+z
1/2+x,1/2+y,z
1/2-x,1/2+y,1/2-z
1/2-x,1/2-y,-z
1/2+x,1/2-y,1/2+z
loop_
_atom_site_type_symbol
_atom_site_label
_atom_site_fract_x
_atom_site_fract_y
_atom_site_fract_z
Si Si1 0.444196 0.633901 0.967267
Si Si2 0.303226 0.034279 0.700354
Si Si3 0.000000 0.012035 0.750000
Si Si4 0.202829 0.788279 0.927024
Si Si5 0.861426 0.100244 0.364006
Si Si6 0.264755 0.119011 0.871180
Si Si7 0.584769 0.243096 0.352134
O O1 0.376516 0.540868 0.919824
O O2 0.503778 0.744954 0.913080
O O3 0.500000 0.500000 0.000000
O O4 0.395054 0.706136 0.039218
O O5 0.297807 0.172941 0.641918
O O6 0.293983 0.096092 0.783959
O O7 0.218103 0.936413 0.685074
O O8 0.385792 0.922512 0.682841
O O9 0.052972 0.906137 0.690314
O O10 0.062435 0.129510 0.790352
O O11 0.248299 0.947976 0.901576
O O12 0.250000 0.750000 0.000000
O O13 0.834778 0.264056 0.401665
O O14 0.171285 0.197133 0.885372
#
# Coordination Sequence:
#
# PCOD9276774 Si02
#       7
#     8   8   4   8   8   8   8
#     4  11  23  42  63  91 129 174 219 276 331 396
#     4  11  23  41  67 101 131 178 223 278 337 407
#     4  10  20  40  64  98 132 172 216 290 338 396
#     4  12  25  43  67  97 138 172 221 279 335 401
#     4  10  22  39  66  94 129 175 227 266 342 399
#     4  11  23  41  69  98 131 179 227 278 330 416
#     4  10  22  39  66  92 133 173 222 272 339 400
#
# _framework density 21.428041
#
# number of rings (size 3 to 8) (size 9 to 14) (size 15 to 20)
#    0.000    1.231    4.615    1.846    0.000    2.462 
#    0.000    3.846    0.000    0.000    0.000    0.000 
#    0.000    0.000    0.000    0.000    0.000    0.000 
#
# Total GULP energy -145083.605065 kJ/mol
# GULP energy per Si atom -5580.138656 kJ/mol
# Density = 2.137927 g / cm^3
# Si number density = 21.428041 Si / 1000 Ang^3
#
#
#
# Elastic Constant Matrix: (Units=GPa)
#
#
# Indices 1 2 3 4 5 6 
#
# 1 67.7619 38.6514 21.3941 0.0000 -16.0746 0.0000
# 2 38.6514 102.4915 36.9933 0.0000 -34.3920 0.0000
# 3 21.3941 36.9933 92.0278 0.0000 -31.5682 0.0000
# 4 0.0000 0.0000 0.0000 29.4871 0.0000 -8.8159
# 5 -16.0746 -34.3920 -31.5682 0.0000 28.7981 0.0000
# 6 0.0000 0.0000 0.0000 -8.8159 0.0000 42.2422
#
#
#
# Elastic Compliance Matrix: (Units=1/GPa)
#
#
# Indices 1 2 3 4 5 6 
#
# 1 0.019103 -0.006066 -0.001330 0.000000 0.001961 0.000000
# 2 -0.006066 0.018210 0.000623 0.000000 0.019044 0.000000
# 3 -0.001330 0.000623 0.017510 0.000000 0.019195 0.000000
# 4 0.000000 0.000000 0.000000 0.036170 0.000000 0.007549
# 5 0.001961 0.019044 0.019195 0.000000 0.079604 0.000000
# 6 0.000000 0.000000 0.000000 0.007549 0.000000 0.025248
#
#
# Mechanical properties :
#
#
# Convention : Reuss Voigt Hill
#
# Bulk Modulus (GPa) = 24.22715 50.70653 37.46684
# Shear Modulus (GPa) = 22.40649 31.12164 26.76407
#
# Velocity S-wave (km/s) = 3.23718 3.81514 3.53798
# Velocity P-wave (km/s) = 5.03023 6.56674 5.84916
#
# Compressibility (1/GPa) = 0.04127600
#
# Stress axis : x y z
#
# Youngs Moduli (GPa) = 52.34890 54.91436 57.11147
#
# Poissons Ratio (x) = 0.33311 0.07595
# Poissons Ratio (y) = 0.31755 -0.03557
# Poissons Ratio (z) = 0.06962 -0.03420
#
# Static dielectric constant tensor:
#      x y z
#    x 1.820440 0.000000 0.029670 
#    y 0.000000 1.813560 0.000000 
#    z 0.029670 0.000000 1.765340 
# 
# From -- ./inp_files/242433.got.cif
#   From: 2010.05.17/outbox.cif.g08.bks.cpg/sg15_122_cif.got.tgz:242433.got - 2010.06.03 18:47:42.
