data_PCOD9276499
_publ_section_title
;
Structure prediction by ZEFSAII (Michael W. Deem and Ramdas Pophale) SiO2 
 PCOD9276499
Probable space group: C 2/C
;
_chemical_formula_sum "Si O2"
_cell_formula_units_Z 32
_cell_length_a 15.733032
_cell_length_b 11.565921
_cell_length_c 8.411967
_cell_angle_alpha 90.000000
_cell_angle_beta 131.368446
_cell_angle_gamma 90.000000
_cell_volume 1148.752651
_symmetry_space_group_name_H-M "C 2/C"
_symmetry_group_IT_number 15
_symmetry_cell_setting 'monoclinic'
loop_
_space_group_symop_operation_xyz
x,y,z
-x,y,1/2-z
-x,-y,-z
x,-y,1/2+z
1/2+x,1/2+y,z
1/2-x,1/2+y,1/2-z
1/2-x,1/2-y,-z
1/2+x,1/2-y,1/2+z
loop_
_atom_site_type_symbol
_atom_site_label
_atom_site_fract_x
_atom_site_fract_y
_atom_site_fract_z
Si Si1 0.282021 0.891096 0.834661
Si Si2 0.818008 0.078965 0.609390
Si Si3 0.963391 0.197875 0.038407
Si Si4 0.405713 0.118824 0.996496
O O1 0.187372 0.894590 0.581350
O O2 0.221224 0.946589 0.911175
O O3 0.375043 0.989855 0.898077
O O4 0.353655 0.777141 0.943128
O O5 0.710606 0.146281 0.554421
O O6 0.924225 0.115799 0.845941
O O7 0.000000 0.141866 0.250000
O O8 0.055954 0.289969 0.087910
O O9 0.500000 0.116534 0.250000
#
# Coordination Sequence:
#
# PCOD9276499 Si02
#       4
#     8   8   8   8
#     4  10  20  40  62  92 122 149 201 258 292 351
#     4  10  24  38  63  94 119 156 201 250 300 349
#     4  12  22  39  64  90 122 158 203 244 299 356
#     4  10  21  37  65  93 118 152 201 250 303 341
#
# _framework density 27.856301999999999
#
# number of rings (size 3 to 8) (size 9 to 14) (size 15 to 20)
#    1.500    0.000    2.500    3.750    0.000    1.000 
#    0.000    1.250    0.000    0.000    0.000    0.000 
#    0.000    0.000    0.000    0.000    0.000    0.000 
#
# Total GULP energy -89635.512833 kJ/mol
# GULP energy per Si atom -5602.219552 kJ/mol
# Density = 2.779290 g / cm^3
# Si number density = 27.856302 Si / 1000 Ang^3
#
#
#
# Elastic Constant Matrix: (Units=GPa)
#
#
# Indices 1 2 3 4 5 6 
#
# 1 92.0126 23.4930 25.9976 0.0000 28.6875 0.0000
# 2 23.4930 67.6243 -0.9051 0.0000 -0.0270 0.0000
# 3 25.9976 -0.9051 169.3487 0.0000 -4.8099 0.0000
# 4 0.0000 0.0000 0.0000 44.9616 0.0000 4.0147
# 5 28.6875 -0.0270 -4.8099 0.0000 31.1772 0.0000
# 6 0.0000 0.0000 0.0000 4.0147 0.0000 56.5962
#
#
#
# Elastic Compliance Matrix: (Units=1/GPa)
#
#
# Indices 1 2 3 4 5 6 
#
# 1 0.019293 -0.006757 -0.003518 0.000000 -0.018301 0.000000
# 2 -0.006757 0.017155 0.001312 0.000000 0.006434 0.000000
# 3 -0.003518 0.001312 0.006573 0.000000 0.004252 0.000000
# 4 0.000000 0.000000 0.000000 0.022383 0.000000 -0.001588
# 5 -0.018301 0.006434 0.004252 0.000000 0.049576 0.000000
# 6 0.000000 0.000000 0.000000 -0.001588 0.000000 0.017782
#
#
# Mechanical properties :
#
#
# Convention : Reuss Voigt Hill
#
# Bulk Modulus (GPa) = 39.84824 47.35073 43.59949
# Shear Modulus (GPa) = 31.43634 45.24035 38.33835
#
# Velocity S-wave (km/s) = 3.36299 4.03434 3.71386
# Velocity P-wave (km/s) = 5.42361 6.22385 5.83746
#
# Compressibility (1/GPa) = 0.02509521
#
# Stress axis : x y z
#
# Youngs Moduli (GPa) = 51.83249 58.29191 152.14293
#
# Poissons Ratio (x) = 0.39387 0.53519
# Poissons Ratio (y) = 0.35022 -0.19957
# Poissons Ratio (z) = 0.18233 -0.07646
#
# Static dielectric constant tensor:
#      x y z
#    x 2.166100 0.000000 0.037030 
#    y 0.000000 2.220960 0.000000 
#    z 0.037030 0.000000 2.104950 
# 
# From -- ./inp_files/27646.got.cif
#   From: 2010.05.17/outbox.cif.g08.bks.cpg/sg15_14_cif.got.tgz:27646.got - 2010.06.03 18:47:42.
