data_PCOD9276516
_publ_section_title
;
Structure prediction by ZEFSAII (Michael W. Deem and Ramdas Pophale) SiO2 
 PCOD9276516
Probable space group: C 2/C
;
_chemical_formula_sum "Si O2"
_cell_formula_units_Z 60
_cell_length_a 8.319057
_cell_length_b 18.889551
_cell_length_c 22.412358
_cell_angle_alpha 90.000000
_cell_angle_beta 42.966391
_cell_angle_gamma 90.000000
_cell_volume 2400.453335
_symmetry_space_group_name_H-M "C 2/C"
_symmetry_group_IT_number 15
_symmetry_cell_setting 'monoclinic'
loop_
_space_group_symop_operation_xyz
x,y,z
-x,y,1/2-z
-x,-y,-z
x,-y,1/2+z
1/2+x,1/2+y,z
1/2-x,1/2+y,1/2-z
1/2-x,1/2-y,-z
1/2+x,1/2-y,1/2+z
loop_
_atom_site_type_symbol
_atom_site_label
_atom_site_fract_x
_atom_site_fract_y
_atom_site_fract_z
Si Si1 0.014964 0.660173 0.629180
Si Si2 0.427621 0.530523 0.200478
Si Si3 0.406815 0.314264 0.708056
Si Si4 0.887397 0.030336 0.958525
Si Si5 0.501396 0.317068 0.019069
Si Si6 0.500000 0.643011 0.750000
Si Si7 0.023603 0.250902 0.638706
Si Si8 0.899346 0.482615 0.360904
O O1 0.284939 0.668634 0.533198
O O2 0.077915 0.600577 0.661844
O O3 0.960653 0.741266 0.660291
O O4 0.779374 0.622613 0.667953
O O5 0.500000 0.523724 0.250000
O O6 0.486031 0.610056 0.163136
O O7 0.585358 0.476309 0.119599
O O8 0.145068 0.516956 0.275131
O O9 0.500000 0.307674 0.750000
O O10 0.125312 0.315148 0.793933
O O11 0.142981 0.994312 0.905428
O O12 0.895781 0.110043 0.981587
O O13 0.665858 0.993315 0.050966
O O14 0.442897 0.270322 0.094077
O O15 0.706610 0.272723 0.933042
O O16 0.477882 0.686042 0.694414
#
# Coordination Sequence:
#
# PCOD9276516 Si02
#       8
#     8   8   8   8   8   4   8   8
#     4  10  22  41  66  93 130 172 218 276 321 395
#     4  11  25  41  67  95 133 177 214 278 342 394
#     4  10  20  40  62  93 130 171 220 264 329 404
#     4  10  23  45  65  99 129 175 228 270 330 407
#     4  10  21  40  71  90 130 174 222 270 335 400
#     4  10  24  38  58 102 136 160 220 278 334 388
#     4  10  21  40  63  98 125 173 213 280 326 399
#     4  10  23  44  68  95 133 176 225 276 326 405
#
# _framework density 24.995277999999999
#
# number of rings (size 3 to 8) (size 9 to 14) (size 15 to 20)
#    0.000    1.867    1.333    1.200    4.667    1.067 
#   26.400    0.000    0.000    0.000    0.000    0.000 
#    0.000    0.000    0.000    0.000    0.000    0.000 
#
# Total GULP energy -167024.888749 kJ/mol
# GULP energy per Si atom -5567.496292 kJ/mol
# Density = 2.493839 g / cm^3
# Si number density = 24.995278 Si / 1000 Ang^3
#
#
#
# Elastic Constant Matrix: (Units=GPa)
#
#
# Indices 1 2 3 4 5 6 
#
# 1 60.7193 -3.8232 24.4272 -0.0064 -18.1138 -0.0026
# 2 -3.8232 114.2989 27.3696 -0.0182 6.1003 0.0025
# 3 24.4272 27.3696 121.7918 -0.0276 -4.9285 0.0048
# 4 -0.0064 -0.0182 -0.0276 15.4505 0.0093 -10.4727
# 5 -18.1138 6.1003 -4.9285 0.0093 35.5512 0.0022
# 6 -0.0026 0.0025 0.0048 -10.4727 0.0022 16.9506
#
#
#
# Elastic Compliance Matrix: (Units=1/GPa)
#
#
# Indices 1 2 3 4 5 6 
#
# 1 0.021184 0.001156 -0.004103 -0.000002 0.010026 0.000002
# 2 0.001156 0.009437 -0.002408 0.000014 -0.001364 0.000008
# 3 -0.004103 -0.002408 0.009560 0.000019 -0.000352 0.000009
# 4 -0.000002 0.000014 0.000019 0.111358 -0.000034 0.068801
# 5 0.010026 -0.001364 -0.000352 -0.000034 0.033422 -0.000024
# 6 0.000002 0.000008 0.000009 0.068801 -0.000024 0.101503
#
#
# Mechanical properties :
#
#
# Convention : Reuss Voigt Hill
#
# Bulk Modulus (GPa) = 33.93072 43.63969 38.78520
# Shear Modulus (GPa) = 16.28683 30.17956 23.23319
#
# Velocity S-wave (km/s) = 2.55541 3.47855 3.05208
# Velocity P-wave (km/s) = 4.72347 5.79921 5.28876
#
# Compressibility (1/GPa) = 0.02947182
#
# Stress axis : x y z
#
# Youngs Moduli (GPa) = 47.20648 105.96575 104.59777
#
# Poissons Ratio (x) = -0.12248 0.42913
# Poissons Ratio (y) = -0.05456 0.25185
# Poissons Ratio (z) = 0.19367 0.25514
#
# Static dielectric constant tensor:
#      x y z
#    x 2.100510 0.000000 0.001750 
#    y 0.000000 2.010400 0.000000 
#    z 0.001750 0.000000 2.101890 
# 
# From -- ./inp_files/266215.got.cif
#   From: 2010.05.17/outbox.cif.g08.bks.cpg/sg15_134_cif.got.tgz:266215.got - 2010.06.03 18:47:42.
