data_PCOD9276881
_publ_section_title
;
Structure prediction by ZEFSAII (Michael W. Deem and Ramdas Pophale) SiO2 
 PCOD9276881
Probable space group: C 2/C
;
_chemical_formula_sum "Si O2"
_cell_formula_units_Z 52
_cell_length_a 28.207583
_cell_length_b 9.691348
_cell_length_c 13.148624
_cell_angle_alpha 90.000000
_cell_angle_beta 136.117947
_cell_angle_gamma 90.000000
_cell_volume 2491.574891
_symmetry_space_group_name_H-M "C 2/C"
_symmetry_group_IT_number 15
_symmetry_cell_setting 'monoclinic'
loop_
_space_group_symop_operation_xyz
x,y,z
-x,y,1/2-z
-x,-y,-z
x,-y,1/2+z
1/2+x,1/2+y,z
1/2-x,1/2+y,1/2-z
1/2-x,1/2-y,-z
1/2+x,1/2-y,1/2+z
loop_
_atom_site_type_symbol
_atom_site_label
_atom_site_fract_x
_atom_site_fract_y
_atom_site_fract_z
Si Si1 0.000000 0.889911 0.750000
Si Si2 0.059672 0.592099 0.039780
Si Si3 0.939052 0.082412 0.955310
Si Si4 0.600977 0.829906 0.391918
Si Si5 0.242950 0.752131 0.192588
Si Si6 0.218134 0.046239 0.827588
Si Si7 0.813911 0.468715 0.152636
O O1 0.050620 0.784958 0.770107
O O2 0.951069 0.958726 0.592670
O O3 0.049715 0.754328 0.043565
O O4 0.135507 0.555866 0.198464
O O5 0.064933 0.580571 0.924775
O O6 0.000000 0.500000 0.000000
O O7 0.863780 0.051937 0.797243
O O8 0.000000 0.000000 0.000000
O O9 0.662618 0.749208 0.542428
O O10 0.635197 0.914154 0.355938
O O11 0.248629 0.825471 0.310460
O O12 0.264762 0.593818 0.209586
O O13 0.282429 0.845138 0.170773
O O14 0.253183 0.037199 0.992615
#
# Coordination Sequence:
#
# PCOD9276881 Si02
#       7
#     4   8   8   8   8   8   8
#     4  10  20  40  66  80 132 172 206 264 320 388
#     4  11  24  45  69  96 133 172 223 276 321 401
#     4  11  26  44  63  97 130 175 221 268 332 389
#     4  10  20  41  61  99 126 172 221 258 325 405
#     4  11  23  42  66  98 135 175 220 270 333 394
#     4  11  24  43  66  98 138 168 223 278 322 406
#     4  11  23  39  72  99 127 178 215 273 340 384
#
# _framework density 20.870335000000001
#
# number of rings (size 3 to 8) (size 9 to 14) (size 15 to 20)
#    0.000    1.231    3.077    5.538    6.462    0.615 
#    2.769    0.000    0.000    0.000    0.000    0.000 
#    0.000    0.000    0.000    0.000    0.000    0.000 
#
# Total GULP energy -145045.630078 kJ/mol
# GULP energy per Si atom -5578.678080 kJ/mol
# Density = 2.082283 g / cm^3
# Si number density = 20.870335 Si / 1000 Ang^3
#
#
#
# Elastic Constant Matrix: (Units=GPa)
#
#
# Indices 1 2 3 4 5 6 
#
# 1 94.5838 15.3833 15.0386 0.0000 12.3209 0.0000
# 2 15.3833 65.0649 18.3227 0.0000 11.2055 0.0000
# 3 15.0386 18.3227 123.3635 0.0000 12.7881 0.0000
# 4 0.0000 0.0000 0.0000 29.7518 0.0000 9.3880
# 5 12.3209 11.2055 12.7881 0.0000 34.0962 0.0000
# 6 0.0000 0.0000 0.0000 9.3880 0.0000 37.9678
#
#
#
# Elastic Compliance Matrix: (Units=1/GPa)
#
#
# Indices 1 2 3 4 5 6 
#
# 1 0.011427 -0.001932 -0.000774 0.000000 -0.003204 0.000000
# 2 -0.001932 0.017077 -0.001864 0.000000 -0.004215 0.000000
# 3 -0.000774 -0.001864 0.008724 0.000000 -0.002380 0.000000
# 4 0.000000 0.000000 0.000000 0.036456 0.000000 -0.009014
# 5 -0.003204 -0.004215 -0.002380 0.000000 0.032764 0.000000
# 6 0.000000 0.000000 0.000000 -0.009014 0.000000 0.028567
#
#
# Mechanical properties :
#
#
# Convention : Reuss Voigt Hill
#
# Bulk Modulus (GPa) = 35.60179 42.27792 38.93986
# Shear Modulus (GPa) = 32.56952 35.98100 34.27526
#
# Velocity S-wave (km/s) = 3.95468 4.15664 4.05692
# Velocity P-wave (km/s) = 6.16022 6.58318 6.37521
#
# Compressibility (1/GPa) = 0.02808847
#
# Stress axis : x y z
#
# Youngs Moduli (GPa) = 87.50974 58.55887 114.62622
#
# Poissons Ratio (x) = 0.11313 0.08871
# Poissons Ratio (y) = 0.16907 0.21365
# Poissons Ratio (z) = 0.06773 0.10915
#
# Static dielectric constant tensor:
#      x y z
#    x 1.810300 0.000000 -0.039150 
#    y 0.000000 1.769660 0.000000 
#    z -0.039150 0.000000 1.808450 
# 
# From -- ./inp_files/181215.got.cif
#   From: 2010.05.17/outbox.cif.g08.bks.cpg/sg15_91_cif.got.tgz:181215.got - 2010.06.03 18:47:42.
