data_PCOD9276552
_publ_section_title
;
Structure prediction by ZEFSAII (Michael W. Deem and Ramdas Pophale) SiO2 
 PCOD9276552
Probable space group: C 2/C
;
_chemical_formula_sum "Si O2"
_cell_formula_units_Z 64
_cell_length_a 28.356444
_cell_length_b 11.706541
_cell_length_c 21.262505
_cell_angle_alpha 90.000000
_cell_angle_beta 29.219243
_cell_angle_gamma 90.000000
_cell_volume 3445.486693
_symmetry_space_group_name_H-M "C 2/C"
_symmetry_group_IT_number 15
_symmetry_cell_setting 'monoclinic'
loop_
_space_group_symop_operation_xyz
x,y,z
-x,y,1/2-z
-x,-y,-z
x,-y,1/2+z
1/2+x,1/2+y,z
1/2-x,1/2+y,1/2-z
1/2-x,1/2-y,-z
1/2+x,1/2-y,1/2+z
loop_
_atom_site_type_symbol
_atom_site_label
_atom_site_fract_x
_atom_site_fract_y
_atom_site_fract_z
Si Si1 0.836713 0.510443 0.209142
Si Si2 0.272494 0.215227 0.369661
Si Si3 0.234514 0.121918 0.153669
Si Si4 0.897598 0.291910 0.552977
Si Si5 0.886004 0.457759 0.372597
Si Si6 0.105842 0.728343 0.155641
Si Si7 0.399836 0.822275 0.232602
Si Si8 0.696848 0.598134 0.767277
O O1 0.785330 0.596787 0.317952
O O2 0.903712 0.598562 0.092172
O O3 0.885288 0.411985 0.193061
O O4 0.766711 0.447908 0.240962
O O5 0.184534 0.209455 0.520730
O O6 0.366421 0.248658 0.303276
O O7 0.254777 0.312812 0.338044
O O8 0.296504 0.187466 0.134818
O O9 0.162550 0.210182 0.206068
O O10 0.176672 0.015986 0.251145
O O11 0.315360 0.075537 0.011350
O O12 0.887620 0.174366 0.603441
O O13 0.986798 0.292128 0.401667
O O14 0.876920 0.592644 0.371654
O O15 0.863512 0.384551 0.337283
O O16 0.000000 0.436999 0.250000
O O17 0.000000 0.753178 0.250000
#
# Coordination Sequence:
#
# PCOD9276552 Si02
#       8
#     8   8   8   8   8   8   8   8
#     4  10  21  37  61  89 117 159 197 247 302 356
#     4  10  20  40  63  86 126 156 195 259 303 358
#     4  11  22  39  60  86 121 158 200 243 305 360
#     4  10  22  39  59  87 120 151 201 249 290 362
#     4  11  21  38  62  88 118 152 203 260 296 355
#     4  10  21  37  64  92 115 154 206 255 306 360
#     4  12  22  38  61  87 118 157 201 240 302 359
#     4  10  21  41  61  85 126 161 195 246 306 361
#
# _framework density 18.575023999999999
#
# number of rings (size 3 to 8) (size 9 to 14) (size 15 to 20)
#    0.000    1.500    5.000    0.750    0.000    0.500 
#    4.500    1.250    0.000    1.500    0.000    0.000 
#    0.000    0.000    0.000    0.000    0.000    0.000 
#
# Total GULP energy -178392.923079 kJ/mol
# GULP energy per Si atom -5574.778846 kJ/mol
# Density = 1.853275 g / cm^3
# Si number density = 18.575024 Si / 1000 Ang^3
#
#
#
# Elastic Constant Matrix: (Units=GPa)
#
#
# Indices 1 2 3 4 5 6 
#
# 1 71.7193 15.3730 5.2934 -0.0001 6.7068 0.0000
# 2 15.3730 51.1516 16.4366 -0.0001 -6.5479 0.0000
# 3 5.2934 16.4366 45.3238 -0.0001 7.1386 0.0000
# 4 -0.0001 -0.0001 -0.0001 17.5768 0.0000 10.2031
# 5 6.7068 -6.5479 7.1386 0.0000 25.4848 0.0000
# 6 0.0000 0.0000 0.0000 10.2031 0.0000 40.6370
#
#
#
# Elastic Compliance Matrix: (Units=1/GPa)
#
#
# Indices 1 2 3 4 5 6 
#
# 1 0.015670 -0.005874 0.001242 0.000000 -0.005981 0.000000
# 2 -0.005874 0.026146 -0.010563 0.000000 0.011223 0.000000
# 3 0.001242 -0.010563 0.027439 0.000000 -0.010727 0.000000
# 4 0.000000 0.000000 0.000000 0.066600 0.000000 -0.016722
# 5 -0.005981 0.011223 -0.010727 0.000000 0.046701 0.000000
# 6 0.000000 0.000000 0.000000 -0.016722 0.000000 0.028807
#
#
# Mechanical properties :
#
#
# Convention : Reuss Voigt Hill
#
# Bulk Modulus (GPa) = 25.73073 26.93340 26.33207
# Shear Modulus (GPa) = 19.63029 25.47917 22.55473
#
# Velocity S-wave (km/s) = 3.25439 3.70765 3.48839
# Velocity P-wave (km/s) = 5.29186 5.73238 5.51652
#
# Compressibility (1/GPa) = 0.03886403
#
# Stress axis : x y z
#
# Youngs Moduli (GPa) = 63.81612 38.24653 36.44484
#
# Poissons Ratio (x) = 0.22467 -0.04527
# Poissons Ratio (y) = 0.37487 0.38498
# Poissons Ratio (z) = -0.07927 0.40401
#
# Static dielectric constant tensor:
#      x y z
#    x 1.674490 0.000000 0.008080 
#    y 0.000000 1.623280 0.000000 
#    z 0.008080 0.000000 1.621150 
# 
# From -- ./inp_files/181747.got.cif
#   From: 2010.05.17/outbox.cif.g08.bks.cpg/sg15_91_cif.got.tgz:181747.got - 2010.06.03 18:47:42.
