data_PCOD9276227
_publ_section_title
;
Structure prediction by ZEFSAII (Michael W. Deem and Ramdas Pophale) SiO2 
 PCOD9276227
Probable space group: C 2/C
;
_chemical_formula_sum "Si O2"
_cell_formula_units_Z 56
_cell_length_a 14.067109
_cell_length_b 15.553794
_cell_length_c 11.261603
_cell_angle_alpha 90.000000
_cell_angle_beta 64.511770
_cell_angle_gamma 90.000000
_cell_volume 2224.191616
_symmetry_space_group_name_H-M "C 2/C"
_symmetry_group_IT_number 15
_symmetry_cell_setting 'monoclinic'
loop_
_space_group_symop_operation_xyz
x,y,z
-x,y,1/2-z
-x,-y,-z
x,-y,1/2+z
1/2+x,1/2+y,z
1/2-x,1/2+y,1/2-z
1/2-x,1/2-y,-z
1/2+x,1/2-y,1/2+z
loop_
_atom_site_type_symbol
_atom_site_label
_atom_site_fract_x
_atom_site_fract_y
_atom_site_fract_z
Si Si1 0.902877 0.261000 0.722435
Si Si2 0.446417 0.307033 0.974036
Si Si3 0.210535 0.969153 0.753867
Si Si4 0.120530 0.650307 0.657068
Si Si5 0.824600 0.038739 0.477573
Si Si6 0.318983 0.278784 0.674649
Si Si7 0.049582 0.453459 0.856740
O O1 0.885875 0.191331 0.630110
O O2 0.788681 0.274059 0.842219
O O3 0.937185 0.350062 0.637640
O O4 0.000000 0.237044 0.750000
O O5 0.401075 0.229538 0.920419
O O6 0.567341 0.292757 0.942323
O O7 0.419830 0.393676 0.921030
O O8 0.177559 0.010630 0.646573
O O9 0.199451 0.866279 0.740258
O O10 0.332856 0.989827 0.709630
O O11 0.158921 0.988199 0.908508
O O12 0.209889 0.587683 0.554029
O O13 0.163545 0.696089 0.752189
O O14 0.000000 0.619529 0.750000
O O15 0.000000 0.456258 0.750000
O O16 0.000000 0.500000 0.000000
#
# Coordination Sequence:
#
# PCOD9276227 Si02
#       7
#     8   8   8   8   8   8   8
#     4  10  22  41  63  97 136 172 221 288 351 412
#     4  11  22  40  71  97 129 182 239 298 326 411
#     4  11  25  41  64  97 143 184 228 291 347 424
#     4  10  20  39  74 104 127 174 245 300 336 407
#     4  12  24  43  68 102 139 183 240 287 360 414
#     4  10  21  42  67  99 133 176 230 287 349 404
#     4  10  21  39  63  93 138 180 223 278 356 421
#
# _framework density 25.177686999999999
#
# number of rings (size 3 to 8) (size 9 to 14) (size 15 to 20)
#    0.000    1.429    2.857    3.000    0.000    5.143 
#    2.571    0.000    0.000    0.000    0.000    0.000 
#    0.000    0.000    0.000    0.000    0.000    0.000 
#
# Total GULP energy -156324.987847 kJ/mol
# GULP energy per Si atom -5583.035280 kJ/mol
# Density = 2.512038 g / cm^3
# Si number density = 25.177687 Si / 1000 Ang^3
#
#
#
# Elastic Constant Matrix: (Units=GPa)
#
#
# Indices 1 2 3 4 5 6 
#
# 1 143.9122 17.7173 40.5735 0.0000 -7.5754 0.0000
# 2 17.7173 42.9916 12.9328 0.0000 14.8739 0.0000
# 3 40.5735 12.9328 109.0839 0.0000 19.6030 0.0000
# 4 0.0000 0.0000 0.0000 22.6913 0.0000 2.0081
# 5 -7.5754 14.8739 19.6030 0.0000 47.7936 0.0000
# 6 0.0000 0.0000 0.0000 2.0081 0.0000 7.9132
#
#
#
# Elastic Compliance Matrix: (Units=1/GPa)
#
#
# Indices 1 2 3 4 5 6 
#
# 1 0.008614 -0.003891 -0.003461 0.000000 0.003996 0.000000
# 2 -0.003891 0.028143 -0.000221 0.000000 -0.009285 0.000000
# 3 -0.003461 -0.000221 0.011408 0.000000 -0.005159 0.000000
# 4 0.000000 0.000000 0.000000 0.045082 0.000000 -0.011441
# 5 0.003996 -0.009285 -0.005159 0.000000 0.026562 0.000000
# 6 0.000000 0.000000 0.000000 -0.011441 0.000000 0.129274
#
#
# Mechanical properties :
#
#
# Convention : Reuss Voigt Hill
#
# Bulk Modulus (GPa) = 30.28566 48.71499 39.50032
# Shear Modulus (GPa) = 18.16637 30.66389 24.41513
#
# Velocity S-wave (km/s) = 2.68904 3.49363 3.11740
# Velocity P-wave (km/s) = 4.65791 5.97197 5.35539
#
# Compressibility (1/GPa) = 0.03301893
#
# Stress axis : x y z
#
# Youngs Moduli (GPa) = 116.09404 35.53335 87.66064
#
# Poissons Ratio (x) = 0.13827 0.30335
# Poissons Ratio (y) = 0.45174 0.01935
# Poissons Ratio (z) = 0.40175 0.00784
#
# Static dielectric constant tensor:
#      x y z
#    x 2.031670 0.000000 -0.002380 
#    y 0.000000 2.058750 0.000000 
#    z -0.002380 0.000000 2.023000 
# 
# From -- ./inp_files/98661.got.cif
#   From: 2010.05.17/outbox.cif.g08.bks.cpg/sg15_50_cif.got.tgz:98661.got - 2010.06.03 18:47:42.
