data_PCOD9276117
_publ_section_title
;
Structure prediction by ZEFSAII (Michael W. Deem and Ramdas Pophale) SiO2 
 PCOD9276117
Probable space group: C 2/C
;
_chemical_formula_sum "Si O2"
_cell_formula_units_Z 52
_cell_length_a 9.633842
_cell_length_b 16.604793
_cell_length_c 16.105392
_cell_angle_alpha 90.000000
_cell_angle_beta 88.013674
_cell_angle_gamma 90.000000
_cell_volume 2574.798522
_symmetry_space_group_name_H-M "C 2/C"
_symmetry_group_IT_number 15
_symmetry_cell_setting 'monoclinic'
loop_
_space_group_symop_operation_xyz
x,y,z
-x,y,1/2-z
-x,-y,-z
x,-y,1/2+z
1/2+x,1/2+y,z
1/2-x,1/2+y,1/2-z
1/2-x,1/2-y,-z
1/2+x,1/2-y,1/2+z
loop_
_atom_site_type_symbol
_atom_site_label
_atom_site_fract_x
_atom_site_fract_y
_atom_site_fract_z
Si Si1 0.399896 0.500211 0.422509
Si Si2 0.500000 0.908202 0.250000
Si Si3 0.260869 0.288471 0.242145
Si Si4 0.295013 0.328252 0.881485
Si Si5 0.417409 0.053059 0.568487
Si Si6 0.955306 0.712188 0.996195
Si Si7 0.030572 0.832111 0.129802
O O1 0.500000 0.500000 0.500000
O O2 0.380949 0.590249 0.389203
O O3 0.242389 0.470489 0.439439
O O4 0.459439 0.428157 0.365872
O O5 0.634692 0.850686 0.238455
O O6 0.528848 0.955538 0.336539
O O7 0.221182 0.199192 0.213086
O O8 0.386709 0.311128 0.177741
O O9 0.335673 0.294619 0.328485
O O10 0.150011 0.332012 0.936319
O O11 0.368659 0.252135 0.923818
O O12 0.443310 0.145784 0.542728
O O13 0.500000 0.000000 0.500000
O O14 0.021014 0.788774 0.041424
#
# Coordination Sequence:
#
# PCOD9276117 Si02
#       7
#     8   4   8   8   8   8   8
#     4  12  24  41  66 104 138 179 233 292 351 413
#     4  12  24  44  70  98 138 182 230 290 354 416
#     4  10  22  43  67  91 136 181 227 277 347 420
#     4  10  20  39  68  94 131 177 224 275 345 416
#     4  12  26  45  70 102 140 183 241 289 350 415
#     4  10  20  40  68  94 127 180 225 273 344 420
#     4  10  22  42  68  96 135 180 225 282 356 413
#
# _framework density 20.195754999999998
#
# number of rings (size 3 to 8) (size 9 to 14) (size 15 to 20)
#    0.000    1.231    6.154    0.000    2.154    0.615 
#    5.538    1.538    0.000    0.000    0.000    0.000 
#    0.000    0.000    0.000    0.000    0.000    0.000 
#
# Total GULP energy -145002.286141 kJ/mol
# GULP energy per Si atom -5577.011005 kJ/mol
# Density = 2.014979 g / cm^3
# Si number density = 20.195755 Si / 1000 Ang^3
#
#
#
# Elastic Constant Matrix: (Units=GPa)
#
#
# Indices 1 2 3 4 5 6 
#
# 1 101.1380 17.2634 28.6491 0.0000 26.8467 0.0000
# 2 17.2634 97.6554 23.9005 0.0000 6.8321 0.0000
# 3 28.6491 23.9005 89.7019 0.0000 22.4058 0.0000
# 4 0.0000 0.0000 0.0000 35.8155 0.0000 1.8910
# 5 26.8467 6.8321 22.4058 0.0000 26.3228 0.0000
# 6 0.0000 0.0000 0.0000 1.8910 0.0000 40.6008
#
#
#
# Elastic Compliance Matrix: (Units=1/GPa)
#
#
# Indices 1 2 3 4 5 6 
#
# 1 0.013806 -0.001333 -0.000792 0.000000 -0.013061 0.000000
# 2 -0.001333 0.011087 -0.002730 0.000000 0.000805 0.000000
# 3 -0.000792 -0.002730 0.014922 0.000000 -0.011185 0.000000
# 4 0.000000 0.000000 0.000000 0.027990 0.000000 -0.001304
# 5 -0.013061 0.000805 -0.011185 0.000000 0.060623 0.000000
# 6 0.000000 0.000000 0.000000 -0.001304 0.000000 0.024691
#
#
# Mechanical properties :
#
#
# Convention : Reuss Voigt Hill
#
# Bulk Modulus (GPa) = 33.21501 47.56904 40.39203
# Shear Modulus (GPa) = 28.92444 35.12662 32.02553
#
# Velocity S-wave (km/s) = 3.78855 4.17502 3.98647
# Velocity P-wave (km/s) = 5.96823 6.84443 6.42129
#
# Compressibility (1/GPa) = 0.03010687
#
# Stress axis : x y z
#
# Youngs Moduli (GPa) = 72.43025 90.19197 67.01455
#
# Poissons Ratio (x) = 0.12023 0.05307
# Poissons Ratio (y) = 0.09656 0.18292
# Poissons Ratio (z) = 0.05736 0.24618
#
# Static dielectric constant tensor:
#      x y z
#    x 1.732210 0.000000 0.041570 
#    y 0.000000 1.737690 0.000000 
#    z 0.041570 0.000000 1.705560 
# 
# From -- ./inp_files/190449.got.cif
#   From: 2010.05.17/outbox.cif.g08.bks.cpg/sg15_96_cif.got.tgz:190449.got - 2010.06.03 18:47:42.
