data_PCOD9276335
_publ_section_title
;
Structure prediction by ZEFSAII (Michael W. Deem and Ramdas Pophale) SiO2 
 PCOD9276335
Probable space group: C 2/C
;
_chemical_formula_sum "Si O2"
_cell_formula_units_Z 64
_cell_length_a 10.675344
_cell_length_b 15.663331
_cell_length_c 29.261723
_cell_angle_alpha 90.000000
_cell_angle_beta 142.590275
_cell_angle_gamma 90.000000
_cell_volume 2972.485938
_symmetry_space_group_name_H-M "C 2/C"
_symmetry_group_IT_number 15
_symmetry_cell_setting 'monoclinic'
loop_
_space_group_symop_operation_xyz
x,y,z
-x,y,1/2-z
-x,-y,-z
x,-y,1/2+z
1/2+x,1/2+y,z
1/2-x,1/2+y,1/2-z
1/2-x,1/2-y,-z
1/2+x,1/2-y,1/2+z
loop_
_atom_site_type_symbol
_atom_site_label
_atom_site_fract_x
_atom_site_fract_y
_atom_site_fract_z
Si Si1 0.284934 0.226847 0.906401
Si Si2 0.258471 0.910908 0.578741
Si Si3 0.704118 0.596743 0.595881
Si Si4 0.734992 0.378743 0.303541
Si Si5 0.419254 0.611908 0.837155
Si Si6 0.174658 0.944474 0.910931
Si Si7 0.997478 0.481435 0.573028
Si Si8 0.252665 0.260669 0.555106
O O1 0.217077 0.324897 0.886000
O O2 0.292792 0.194332 0.856533
O O3 0.125615 0.168284 0.888568
O O4 0.510139 0.219030 0.994483
O O5 0.025584 0.909492 0.492151
O O6 0.290664 0.000917 0.613897
O O7 0.406116 0.907242 0.577504
O O8 0.680041 0.620724 0.641964
O O9 0.807445 0.674030 0.597440
O O10 0.500000 0.401814 0.250000
O O11 0.725507 0.362576 0.247054
O O12 0.882054 0.455613 0.358919
O O13 0.493602 0.513253 0.853785
O O14 0.118074 0.845198 0.895988
O O15 0.340051 0.957072 0.918506
O O16 0.303079 0.970005 0.993761
O O17 0.250000 0.250000 0.500000
#
# Coordination Sequence:
#
# PCOD9276335 Si02
#       8
#     8   8   8   8   8   8   8   8
#     4  10  21  38  63  90 120 170 208 253 308 378
#     4  10  22  37  63  90 129 162 204 259 315 368
#     4  10  23  38  58  96 133 158 202 264 316 364
#     4  10  20  40  60  89 126 165 209 258 316 377
#     4  11  22  40  62  91 130 163 210 267 315 374
#     4  11  20  34  63  95 119 162 208 264 314 365
#     4  11  19  36  62  92 121 159 214 257 304 379
#     4  11  23  36  63  95 128 159 206 262 320 369
#
# _framework density 21.530799999999999
#
# number of rings (size 3 to 8) (size 9 to 14) (size 15 to 20)
#    0.000    1.500    5.000    1.500    5.250    1.000 
#    0.000    4.375    0.000    1.500    0.000    0.000 
#    0.000    0.000    0.000    0.000    0.000    0.000 
#
# Total GULP energy -178818.056188 kJ/mol
# GULP energy per Si atom -5588.064256 kJ/mol
# Density = 2.148179 g / cm^3
# Si number density = 21.530800 Si / 1000 Ang^3
#
#
#
# Elastic Constant Matrix: (Units=GPa)
#
#
# Indices 1 2 3 4 5 6 
#
# 1 77.3792 40.4242 7.7397 0.0000 -20.5386 0.0000
# 2 40.4242 140.6905 14.6792 0.0000 -11.9912 0.0000
# 3 7.7397 14.6792 44.5129 0.0001 -3.0559 0.0000
# 4 0.0000 0.0000 0.0001 17.3157 0.0000 -2.3997
# 5 -20.5386 -11.9912 -3.0559 0.0000 26.9905 0.0000
# 6 0.0000 0.0000 0.0000 -2.3997 0.0000 27.5351
#
#
#
# Elastic Compliance Matrix: (Units=1/GPa)
#
#
# Indices 1 2 3 4 5 6 
#
# 1 0.018387 -0.004153 -0.001001 0.000000 0.012033 0.000000
# 2 -0.004153 0.008552 -0.002070 0.000000 0.000405 0.000000
# 3 -0.001001 -0.002070 0.023389 0.000000 0.000966 0.000000
# 4 0.000000 0.000000 0.000000 0.058457 0.000000 0.005094
# 5 0.012033 0.000405 0.000966 0.000000 0.046496 0.000000
# 6 0.000000 0.000000 0.000000 0.005094 0.000000 0.036761
#
#
# Mechanical properties :
#
#
# Convention : Reuss Voigt Hill
#
# Bulk Modulus (GPa) = 27.87224 43.14100 35.50662
# Shear Modulus (GPa) = 22.88850 27.68421 25.28636
#
# Velocity S-wave (km/s) = 3.26399 3.58969 3.43071
# Velocity P-wave (km/s) = 5.21328 6.10422 5.67626
#
# Compressibility (1/GPa) = 0.03587800
#
# Stress axis : x y z
#
# Youngs Moduli (GPa) = 54.38586 116.93771 42.75597
#
# Poissons Ratio (x) = 0.48565 0.04282
# Poissons Ratio (y) = 0.22587 0.08851
# Poissons Ratio (z) = 0.05446 0.24208
#
# Static dielectric constant tensor:
#      x y z
#    x 1.783470 0.000000 -0.120840 
#    y 0.000000 1.793650 0.000000 
#    z -0.120840 0.000000 1.252480 
# 
# From -- ./inp_files/311199.got.cif
#   From: 2010.05.17/outbox.cif.g08.bks.cpg/sg15_156_cif.got.tgz:311199.got - 2010.06.03 18:47:42.
