data_PCOD9276888
_publ_section_title
;
Structure prediction by ZEFSAII (Michael W. Deem and Ramdas Pophale) SiO2 
 PCOD9276888
Probable space group: C 2/C
;
_chemical_formula_sum "Si O2"
_cell_formula_units_Z 56
_cell_length_a 23.696034
_cell_length_b 20.545921
_cell_length_c 13.588482
_cell_angle_alpha 90.000000
_cell_angle_beta 22.624559
_cell_angle_gamma 90.000000
_cell_volume 2544.979313
_symmetry_space_group_name_H-M "C 2/C"
_symmetry_group_IT_number 15
_symmetry_cell_setting 'monoclinic'
loop_
_space_group_symop_operation_xyz
x,y,z
-x,y,1/2-z
-x,-y,-z
x,-y,1/2+z
1/2+x,1/2+y,z
1/2-x,1/2+y,1/2-z
1/2-x,1/2-y,-z
1/2+x,1/2-y,1/2+z
loop_
_atom_site_type_symbol
_atom_site_label
_atom_site_fract_x
_atom_site_fract_y
_atom_site_fract_z
Si Si1 0.500000 0.666068 0.250000
Si Si2 0.971560 0.643926 0.022099
Si Si3 0.000000 0.219816 0.750000
Si Si4 0.263023 0.686769 0.766086
Si Si5 0.020267 0.789362 0.426392
Si Si6 0.583480 0.063341 0.011381
Si Si7 0.205699 0.861837 0.595020
Si Si8 0.341426 0.077351 0.058250
O O1 0.381254 0.710808 0.496501
O O2 0.410210 0.627528 0.308705
O O3 0.946265 0.712128 0.119015
O O4 0.133260 0.647887 0.710742
O O5 0.981122 0.584269 0.084585
O O6 0.852231 0.629948 0.129015
O O7 0.133894 0.265545 0.501522
O O8 0.970369 0.183338 0.697821
O O9 0.355110 0.674116 0.714587
O O10 0.201604 0.620414 0.822675
O O11 0.867349 0.801624 0.728481
O O12 0.500000 0.068082 0.250000
O O13 0.658494 0.993092 0.890204
O O14 0.228582 0.912122 0.649756
O O15 0.500000 0.080989 0.750000
#
# Coordination Sequence:
#
# PCOD9276888 Si02
#       8
#     4   8   4   8   8   8   8   8
#     4  10  20  40  66  87 129 166 214 250 318 376
#     4  11  20  38  64  94 128 164 213 264 324 365
#     4  12  22  42  60  91 131 166 206 264 314 388
#     4  11  22  39  63  93 122 169 211 257 315 382
#     4  11  24  36  63  91 129 163 207 255 326 390
#     4  11  20  39  63  91 124 169 217 262 313 373
#     4  10  21  41  60  94 129 166 206 264 316 383
#     4   9  22  37  61  94 127 161 219 271 307 365
#
# _framework density 22.004107999999999
#
# number of rings (size 3 to 8) (size 9 to 14) (size 15 to 20)
#    0.000    1.429    3.571    1.286    2.000    1.143 
#   10.286    2.857    0.000    0.857    0.000    0.000 
#    0.000    0.000    0.000    0.000    0.000    0.000 
#
# Total GULP energy -156146.345231 kJ/mol
# GULP energy per Si atom -5576.655187 kJ/mol
# Density = 2.195403 g / cm^3
# Si number density = 22.004108 Si / 1000 Ang^3
#
#
#
# Elastic Constant Matrix: (Units=GPa)
#
#
# Indices 1 2 3 4 5 6 
#
# 1 180.8787 14.4379 17.3055 0.0006 3.9021 -0.0006
# 2 14.4379 39.4572 -5.9034 0.0003 4.0258 -0.0005
# 3 17.3055 -5.9034 76.8624 0.0018 7.0905 -0.0016
# 4 0.0006 0.0003 0.0018 5.1024 -0.0008 8.2865
# 5 3.9021 4.0258 7.0905 -0.0008 28.5588 0.0011
# 6 -0.0006 -0.0005 -0.0016 8.2865 0.0011 22.4364
#
#
#
# Elastic Compliance Matrix: (Units=1/GPa)
#
#
# Indices 1 2 3 4 5 6 
#
# 1 0.005862 -0.002358 -0.001492 0.000000 -0.000098 0.000000
# 2 -0.002358 0.027089 0.003003 -0.000011 -0.004242 0.000005
# 3 -0.001492 0.003003 0.013916 -0.000018 -0.003674 0.000008
# 4 0.000000 -0.000011 -0.000018 0.489725 0.000028 -0.180871
# 5 -0.000098 -0.004242 -0.003674 0.000028 0.036539 -0.000012
# 6 0.000000 0.000005 0.000008 -0.180871 -0.000012 0.111371
#
#
# Mechanical properties :
#
#
# Convention : Reuss Voigt Hill
#
# Bulk Modulus (GPa) = 22.13759 38.76425 30.45092
# Shear Modulus (GPa) = 7.13009 29.31007 18.22008
#
# Velocity S-wave (km/s) = 1.80205 3.65365 2.88067
# Velocity P-wave (km/s) = 3.79636 5.95433 4.99331
#
# Compressibility (1/GPa) = 0.04517203
#
# Stress axis : x y z
#
# Youngs Moduli (GPa) = 170.60096 36.91565 71.86111
#
# Poissons Ratio (x) = 0.08705 0.10720
# Poissons Ratio (y) = 0.40228 -0.21578
# Poissons Ratio (z) = 0.25450 -0.11085
#
# Static dielectric constant tensor:
#      x y z
#    x 1.925740 0.000000 -0.039640 
#    y 0.000000 1.809260 0.000000 
#    z -0.039640 0.000000 1.863670 
# 
# From -- ./inp_files/114715.got.cif
#   From: 2010.05.17/outbox.cif.g08.bks.cpg/sg15_58_cif.got.tgz:114715.got - 2010.06.03 18:47:42.
