data_PCOD9276553
_publ_section_title
;
Structure prediction by ZEFSAII (Michael W. Deem and Ramdas Pophale) SiO2 
 PCOD9276553
Probable space group: C 2/C
;
_chemical_formula_sum "Si O2"
_cell_formula_units_Z 52
_cell_length_a 6.491136
_cell_length_b 25.902283
_cell_length_c 16.890059
_cell_angle_alpha 90.000000
_cell_angle_beta 73.758955
_cell_angle_gamma 90.000000
_cell_volume 2726.487331
_symmetry_space_group_name_H-M "C 2/C"
_symmetry_group_IT_number 15
_symmetry_cell_setting 'monoclinic'
loop_
_space_group_symop_operation_xyz
x,y,z
-x,y,1/2-z
-x,-y,-z
x,-y,1/2+z
1/2+x,1/2+y,z
1/2-x,1/2+y,1/2-z
1/2-x,1/2-y,-z
1/2+x,1/2-y,1/2+z
loop_
_atom_site_type_symbol
_atom_site_label
_atom_site_fract_x
_atom_site_fract_y
_atom_site_fract_z
Si Si1 0.829748 0.149855 0.926064
Si Si2 0.189663 0.211943 0.288543
Si Si3 0.634995 0.102813 0.166333
Si Si4 0.626552 0.123391 0.463558
Si Si5 0.507061 0.560132 0.017009
Si Si6 0.054781 0.787097 0.537621
Si Si7 0.000000 0.200270 0.750000
O O1 0.907557 0.165351 0.830558
O O2 0.573096 0.143908 0.962891
O O3 0.930816 0.096875 0.951998
O O4 0.920343 0.193302 0.977076
O O5 0.294740 0.158295 0.305213
O O6 0.329910 0.257464 0.234934
O O7 0.000000 0.199249 0.250000
O O8 0.101667 0.235500 0.379898
O O9 0.500000 0.075242 0.250000
O O10 0.475645 0.113195 0.110491
O O11 0.841313 0.074671 0.106196
O O12 0.748913 0.074641 0.486771
O O13 0.821353 0.163814 0.438816
O O14 0.500000 0.500000 0.000000
O O15 0.250000 0.750000 0.500000
#
# Coordination Sequence:
#
# PCOD9276553 Si02
#       7
#     8   8   8   8   8   8   4
#     4  10  23  41  58  91 122 174 218 262 325 397
#     4  12  23  35  57  91 129 168 209 263 318 382
#     4  11  22  37  63  96 125 158 208 262 322 384
#     4  10  20  40  63  86 127 159 205 267 316 392
#     4  10  23  45  68  90 121 164 217 274 336 392
#     4  11  21  34  57  84 123 170 214 257 319 381
#     4  12  26  38  58  88 136 174 214 260 318 390
#
# _framework density 19.07216
#
# number of rings (size 3 to 8) (size 9 to 14) (size 15 to 20)
#    0.000    1.231    5.385    2.769    2.154    4.923 
#    0.000    3.077    0.000    0.000    0.000    0.000 
#    0.000    0.000    0.000    0.000    0.000    0.000 
#
# Total GULP energy -145065.109277 kJ/mol
# GULP energy per Si atom -5579.427280 kJ/mol
# Density = 1.902875 g / cm^3
# Si number density = 19.072160 Si / 1000 Ang^3
#
#
#
# Elastic Constant Matrix: (Units=GPa)
#
#
# Indices 1 2 3 4 5 6 
#
# 1 120.9984 36.6814 47.1180 0.0000 -3.2113 0.0000
# 2 36.6814 101.9036 37.5148 0.0000 -5.7965 0.0000
# 3 47.1180 37.5148 121.0575 0.0000 -18.5593 0.0000
# 4 0.0000 0.0000 0.0000 13.2823 0.0000 0.5487
# 5 -3.2113 -5.7965 -18.5593 0.0000 33.7589 0.0000
# 6 0.0000 0.0000 0.0000 0.5487 0.0000 22.7137
#
#
#
# Elastic Compliance Matrix: (Units=1/GPa)
#
#
# Indices 1 2 3 4 5 6 
#
# 1 0.010337 -0.002529 -0.003446 0.000000 -0.001345 0.000000
# 2 -0.002529 0.011696 -0.002587 0.000000 0.000345 0.000000
# 3 -0.003446 -0.002587 0.011232 0.000000 0.005403 0.000000
# 4 0.000000 0.000000 0.000000 0.075363 0.000000 -0.001821
# 5 -0.001345 0.000345 0.005403 0.000000 0.032523 0.000000
# 6 0.000000 0.000000 0.000000 -0.001821 0.000000 0.044070
#
#
# Mechanical properties :
#
#
# Convention : Reuss Voigt Hill
#
# Bulk Modulus (GPa) = 61.95576 65.17641 63.56609
# Shear Modulus (GPa) = 24.07012 28.79400 26.43206
#
# Velocity S-wave (km/s) = 3.55640 3.88975 3.72680
# Velocity P-wave (km/s) = 7.02989 7.37708 7.20558
#
# Compressibility (1/GPa) = 0.01614055
#
# Stress axis : x y z
#
# Youngs Moduli (GPa) = 96.73529 85.50229 89.03251
#
# Poissons Ratio (x) = 0.21623 0.30682
# Poissons Ratio (y) = 0.24464 0.23034
# Poissons Ratio (z) = 0.33336 0.22120
#
# Static dielectric constant tensor:
#      x y z
#    x 1.703550 0.000000 -0.040120 
#    y 0.000000 1.704770 0.000000 
#    z -0.040120 0.000000 1.696410 
# 
# From -- ./inp_files/185836.got.cif
#   From: 2010.05.17/outbox.cif.g08.bks.cpg/sg15_93_cif.got.tgz:185836.got - 2010.06.03 18:47:42.
