data_PCOD9276807
_publ_section_title
;
Structure prediction by ZEFSAII (Michael W. Deem and Ramdas Pophale) SiO2 
 PCOD9276807
Probable space group: C 2/C
;
_chemical_formula_sum "Si O2"
_cell_formula_units_Z 56
_cell_length_a 21.880933
_cell_length_b 8.567634
_cell_length_c 15.314075
_cell_angle_alpha 90.000000
_cell_angle_beta 126.596349
_cell_angle_gamma 90.000000
_cell_volume 2304.914820
_symmetry_space_group_name_H-M "C 2/C"
_symmetry_group_IT_number 15
_symmetry_cell_setting 'monoclinic'
loop_
_space_group_symop_operation_xyz
x,y,z
-x,y,1/2-z
-x,-y,-z
x,-y,1/2+z
1/2+x,1/2+y,z
1/2-x,1/2+y,1/2-z
1/2-x,1/2-y,-z
1/2+x,1/2-y,1/2+z
loop_
_atom_site_type_symbol
_atom_site_label
_atom_site_fract_x
_atom_site_fract_y
_atom_site_fract_z
Si Si1 0.781228 0.711649 0.707892
Si Si2 0.298290 0.050692 0.111269
Si Si3 0.340901 0.413366 0.612378
Si Si4 0.910127 0.165041 0.431425
Si Si5 0.704882 0.626915 0.797460
Si Si6 0.128513 0.520910 0.509303
Si Si7 0.560454 0.323420 0.956212
O O1 0.819126 0.547066 0.715274
O O2 0.789245 0.786641 0.619238
O O3 0.828618 0.816111 0.815288
O O4 0.704638 0.675329 0.696124
O O5 0.289507 0.224516 0.136031
O O6 0.357052 0.029727 0.082532
O O7 0.215877 0.996798 0.004229
O O8 0.360117 0.529860 0.708502
O O9 0.411236 0.348074 0.619131
O O10 0.913817 0.319535 0.496643
O O11 0.973045 0.188353 0.410205
O O12 0.919173 0.995208 0.483157
O O13 0.785868 0.537417 0.877576
O O14 0.093435 0.352693 0.503794
#
# Coordination Sequence:
#
# PCOD9276807 Si02
#       7
#     8   8   8   8   8   8   8
#     4  11  22  39  57  95 127 159 207 267 315 371
#     4  11  21  39  62  92 125 168 204 258 332 388
#     4  11  21  38  60  91 124 165 206 252 321 397
#     4  10  24  43  62  95 124 165 223 272 309 373
#     4  10  22  37  60  92 131 154 204 265 319 384
#     4  10  20  40  65  90 119 166 212 258 318 390
#     4  11  22  41  71  87 122 174 219 257 319 385
#
# _framework density 24.295907
#
# number of rings (size 3 to 8) (size 9 to 14) (size 15 to 20)
#    0.000    1.429    1.429    6.000    2.000    0.571 
#    5.143    0.000    0.000    0.000    3.714    0.000 
#    0.000    0.000    0.000    0.000    0.000    0.000 
#
# Total GULP energy -156129.405114 kJ/mol
# GULP energy per Si atom -5576.050183 kJ/mol
# Density = 2.424061 g / cm^3
# Si number density = 24.295907 Si / 1000 Ang^3
#
#
#
# Elastic Constant Matrix: (Units=GPa)
#
#
# Indices 1 2 3 4 5 6 
#
# 1 125.2737 71.2675 28.0719 0.0000 -32.6335 0.0000
# 2 71.2675 150.0205 40.0969 0.0000 -11.5683 0.0000
# 3 28.0719 40.0969 50.6674 0.0000 -31.8848 0.0000
# 4 0.0000 0.0000 0.0000 40.9582 0.0000 -18.3876
# 5 -32.6335 -11.5683 -31.8848 0.0000 37.0037 0.0000
# 6 0.0000 0.0000 0.0000 -18.3876 0.0000 49.8295
#
#
#
# Elastic Compliance Matrix: (Units=1/GPa)
#
#
# Indices 1 2 3 4 5 6 
#
# 1 0.016218 -0.009242 0.012039 0.000000 0.021786 0.000000
# 2 -0.009242 0.014589 -0.018971 0.000000 -0.019936 0.000000
# 3 0.012039 -0.018971 0.067784 0.000000 0.063093 0.000000
# 4 0.000000 0.000000 0.000000 0.029263 0.000000 0.010798
# 5 0.021786 -0.019936 0.063093 0.000000 0.094370 0.000000
# 6 0.000000 0.000000 0.000000 0.010798 0.000000 0.024053
#
#
# Mechanical properties :
#
#
# Convention : Reuss Voigt Hill
#
# Bulk Modulus (GPa) = 15.09603 67.20381 41.14992
# Shear Modulus (GPa) = 16.62753 37.99327 27.31040
#
# Velocity S-wave (km/s) = 2.61890 3.95875 3.35636
# Velocity P-wave (km/s) = 3.92068 6.97253 5.65632
#
# Compressibility (1/GPa) = 0.06624259
#
# Stress axis : x y z
#
# Youngs Moduli (GPa) = 61.66030 68.54332 14.75283
#
# Poissons Ratio (x) = 0.63348 -0.17760
# Poissons Ratio (y) = 0.56986 0.27987
# Poissons Ratio (z) = -0.74230 1.30032
#
# Static dielectric constant tensor:
#      x y z
#    x 1.884680 0.000000 -0.016140 
#    y 0.000000 2.139270 0.000000 
#    z -0.016140 0.000000 2.014080 
# 
# From -- ./inp_files/171988.got.cif
#   From: 2010.05.17/outbox.cif.g08.bks.cpg/sg15_86_cif.got.tgz:171988.got - 2010.06.03 18:47:42.
