data_PCOD9276992
_publ_section_title
;
Structure prediction by ZEFSAII (Michael W. Deem and Ramdas Pophale) SiO2 
 PCOD9276992
Probable space group: C 2/C
;
_chemical_formula_sum "Si O2"
_cell_formula_units_Z 48
_cell_length_a 5.370909
_cell_length_b 18.132412
_cell_length_c 22.360605
_cell_angle_alpha 90.000000
_cell_angle_beta 120.456414
_cell_angle_gamma 90.000000
_cell_volume 1877.161975
_symmetry_space_group_name_H-M "C 2/C"
_symmetry_group_IT_number 15
_symmetry_cell_setting 'monoclinic'
loop_
_space_group_symop_operation_xyz
x,y,z
-x,y,1/2-z
-x,-y,-z
x,-y,1/2+z
1/2+x,1/2+y,z
1/2-x,1/2+y,1/2-z
1/2-x,1/2-y,-z
1/2+x,1/2-y,1/2+z
loop_
_atom_site_type_symbol
_atom_site_label
_atom_site_fract_x
_atom_site_fract_y
_atom_site_fract_z
Si Si1 0.174298 0.480939 0.937208
Si Si2 0.174431 0.588194 0.834448
Si Si3 0.841815 0.845496 0.879287
Si Si4 0.551309 0.724810 0.892192
Si Si5 0.448837 0.848651 0.980917
Si Si6 0.149829 0.043245 0.205933
O O1 0.067378 0.550920 0.884050
O O2 0.185619 0.415477 0.889181
O O3 0.003322 0.433387 0.967167
O O4 0.500000 0.500000 0.000000
O O5 0.286608 0.669903 0.858158
O O6 0.413036 0.526906 0.843957
O O7 0.000000 0.591705 0.750000
O O8 0.115970 0.834145 0.956191
O O9 0.648494 0.774085 0.847874
O O10 0.965759 0.879639 0.833677
O O11 0.509617 0.789103 0.935934
O O12 0.821335 0.673727 0.941948
O O13 0.500000 0.052281 0.250000
O O14 0.000000 0.028522 0.250000
#
# Coordination Sequence:
#
# PCOD9276992 Si02
#       6
#     8   8   8   8   8   8
#     4  10  20  40  67 100 131 180 238 296 363 430
#     4  10  22  43  67 100 140 183 237 309 371 440
#     4  10  23  39  65  97 130 183 237 293 361 438
#     4  10  21  42  60  98 137 177 228 293 371 434
#     4  10  21  39  67  91 136 178 230 294 357 445
#     4  10  24  46  71  98 138 190 246 298 361 445
#
# _framework density 25.570516999999999
#
# number of rings (size 3 to 8) (size 9 to 14) (size 15 to 20)
#    0.000    2.000    1.667    0.500    9.333    0.667 
#    9.000    0.000    0.000    0.000    0.000    0.000 
#    0.000    0.000    0.000    0.000    0.000    0.000 
#
# Total GULP energy -133856.325434 kJ/mol
# GULP energy per Si atom -5577.346893 kJ/mol
# Density = 2.551232 g / cm^3
# Si number density = 25.570517 Si / 1000 Ang^3
#
#
#
# Elastic Constant Matrix: (Units=GPa)
#
#
# Indices 1 2 3 4 5 6 
#
# 1 65.6995 46.2661 -1.5478 0.0000 8.0812 0.0000
# 2 46.2661 193.6519 54.5806 0.0000 -4.9748 0.0000
# 3 -1.5478 54.5806 63.6114 0.0000 12.3698 0.0000
# 4 0.0000 0.0000 0.0000 23.0768 0.0000 3.4617
# 5 8.0812 -4.9748 12.3698 0.0000 36.7029 0.0000
# 6 0.0000 0.0000 0.0000 3.4617 0.0000 40.7543
#
#
#
# Elastic Compliance Matrix: (Units=1/GPa)
#
#
# Indices 1 2 3 4 5 6 
#
# 1 0.022370 -0.008229 0.009396 0.000000 -0.009207 0.000000
# 2 -0.008229 0.010184 -0.010229 0.000000 0.006640 0.000000
# 3 0.009396 -0.010229 0.027179 0.000000 -0.012615 0.000000
# 4 0.000000 0.000000 0.000000 0.043893 0.000000 -0.003728
# 5 -0.009207 0.006640 -0.012615 0.000000 0.034425 0.000000
# 6 0.000000 0.000000 0.000000 -0.003728 0.000000 0.024854
#
#
# Mechanical properties :
#
#
# Convention : Reuss Voigt Hill
#
# Bulk Modulus (GPa) = 24.03443 57.95119 40.99281
# Shear Modulus (GPa) = 25.65435 35.01772 30.33603
#
# Velocity S-wave (km/s) = 3.17089 3.70463 3.44811
# Velocity P-wave (km/s) = 4.77763 6.40403 5.64966
#
# Compressibility (1/GPa) = 0.04160698
#
# Stress axis : x y z
#
# Youngs Moduli (GPa) = 44.70336 98.19678 36.79278
#
# Poissons Ratio (x) = 0.80807 -0.34569
# Poissons Ratio (y) = 0.36787 0.37636
# Poissons Ratio (z) = -0.42001 1.00448
#
# Static dielectric constant tensor:
#      x y z
#    x 2.123310 0.000000 -0.040800 
#    y 0.000000 2.037560 0.000000 
#    z -0.040800 0.000000 2.189820 
# 
# From -- ./inp_files/260902.got.cif
#   From: 2010.05.17/outbox.cif.g08.bks.cpg/sg15_131_cif.got.tgz:260902.got - 2010.06.03 18:47:42.
