data_PCOD9276301
_publ_section_title
;
Structure prediction by ZEFSAII (Michael W. Deem and Ramdas Pophale) SiO2 
 PCOD9276301
Probable space group: C 2/C
;
_chemical_formula_sum "Si O2"
_cell_formula_units_Z 60
_cell_length_a 8.820171
_cell_length_b 21.417409
_cell_length_c 15.475447
_cell_angle_alpha 90.000000
_cell_angle_beta 85.140243
_cell_angle_gamma 90.000000
_cell_volume 2912.883097
_symmetry_space_group_name_H-M "C 2/C"
_symmetry_group_IT_number 15
_symmetry_cell_setting 'monoclinic'
loop_
_space_group_symop_operation_xyz
x,y,z
-x,y,1/2-z
-x,-y,-z
x,-y,1/2+z
1/2+x,1/2+y,z
1/2-x,1/2+y,1/2-z
1/2-x,1/2-y,-z
1/2+x,1/2-y,1/2+z
loop_
_atom_site_type_symbol
_atom_site_label
_atom_site_fract_x
_atom_site_fract_y
_atom_site_fract_z
Si Si1 0.724892 0.717357 0.379320
Si Si2 0.635552 0.021951 0.671033
Si Si3 0.810263 0.713210 0.912804
Si Si4 0.000000 0.220995 0.250000
Si Si5 0.685358 0.346534 0.053959
Si Si6 0.510853 0.904120 0.020468
Si Si7 0.908594 0.120492 0.666245
Si Si8 0.562828 0.890089 0.652956
O O1 0.639200 0.693024 0.298088
O O2 0.642113 0.693695 0.470637
O O3 0.760516 0.791081 0.382561
O O4 0.877665 0.677330 0.377388
O O5 0.500000 0.028430 0.750000
O O6 0.565469 0.043174 0.582865
O O7 0.779745 0.066928 0.681507
O O8 0.676768 0.949027 0.658659
O O9 0.916463 0.745183 0.835027
O O10 0.908873 0.657318 0.947239
O O11 0.674877 0.682521 0.863797
O O12 0.750000 0.750000 0.000000
O O13 0.543674 0.387707 0.090552
O O14 0.830073 0.391258 0.033298
O O15 0.550385 0.911180 0.917781
O O16 0.000000 0.128822 0.750000
O O17 0.500000 0.881889 0.750000
#
# Coordination Sequence:
#
# PCOD9276301 Si02
#       8
#     8   8   8   4   8   8   8   8
#     4  10  22  36  61  83 130 161 200 242 318 372
#     4  10  22  42  65  90 120 159 215 262 308 366
#     4  11  25  38  60  97 130 169 208 259 315 391
#     4  12  22  38  58  88 130 168 202 252 322 370
#     4  10  20  40  59  92 120 164 194 256 315 377
#     4  10  21  40  68  86 128 158 210 261 319 360
#     4  11  23  36  63  92 123 159 213 255 313 369
#     4  10  23  41  62  90 117 167 210 255 310 379
#
# _framework density 20.598151000000001
#
# number of rings (size 3 to 8) (size 9 to 14) (size 15 to 20)
#    0.000    1.600    1.333    2.800    9.333    0.533 
#    1.200    2.667    0.000    0.000    0.000    0.000 
#    0.000    0.000    0.000    0.000    0.000    0.000 
#
# Total GULP energy -167068.341243 kJ/mol
# GULP energy per Si atom -5568.944708 kJ/mol
# Density = 2.055127 g / cm^3
# Si number density = 20.598151 Si / 1000 Ang^3
#
#
#
# Elastic Constant Matrix: (Units=GPa)
#
#
# Indices 1 2 3 4 5 6 
#
# 1 65.6056 -0.5763 19.8129 0.0000 9.3803 0.0000
# 2 -0.5763 40.0721 9.2606 0.0000 -9.0264 0.0000
# 3 19.8129 9.2606 116.9607 0.0000 11.4731 0.0000
# 4 0.0000 0.0000 0.0000 33.0711 0.0000 -4.6639
# 5 9.3803 -9.0264 11.4731 0.0000 41.5407 0.0000
# 6 0.0000 0.0000 0.0000 -4.6639 0.0000 17.0379
#
#
#
# Elastic Compliance Matrix: (Units=1/GPa)
#
#
# Indices 1 2 3 4 5 6 
#
# 1 0.016426 0.000141 -0.002501 0.000000 -0.002988 0.000000
# 2 0.000141 0.027104 -0.002821 0.000000 0.006637 0.000000
# 3 -0.002501 -0.002821 0.009458 0.000000 -0.002660 0.000000
# 4 0.000000 0.000000 0.000000 0.031452 0.000000 0.008610
# 5 -0.002988 0.006637 -0.002660 0.000000 0.026924 0.000000
# 6 0.000000 0.000000 0.000000 0.008610 0.000000 0.061049
#
#
# Mechanical properties :
#
#
# Convention : Reuss Voigt Hill
#
# Bulk Modulus (GPa) = 23.45931 31.07030 27.26481
# Shear Modulus (GPa) = 25.38282 31.27269 28.32776
#
# Velocity S-wave (km/s) = 3.51420 3.90067 3.71247
# Velocity P-wave (km/s) = 5.28014 5.95011 5.62511
#
# Compressibility (1/GPa) = 0.04262700
#
# Stress axis : x y z
#
# Youngs Moduli (GPa) = 60.87822 36.89509 105.73267
#
# Poissons Ratio (x) = -0.00521 0.26440
# Poissons Ratio (y) = -0.00859 0.29826
# Poissons Ratio (z) = 0.15223 0.10408
#
# Static dielectric constant tensor:
#      x y z
#    x 1.827600 0.000000 0.001990 
#    y 0.000000 1.748800 0.000000 
#    z 0.001990 0.000000 1.837490 
# 
# From -- ./inp_files/137791.got.cif
#   From: 2010.05.17/outbox.cif.g08.bks.cpg/sg15_69_cif.got.tgz:137791.got - 2010.06.03 18:47:42.
