data_PCOD9276771
_publ_section_title
;
Structure prediction by ZEFSAII (Michael W. Deem and Ramdas Pophale) SiO2 
 PCOD9276771
Probable space group: C 2/C
;
_chemical_formula_sum "Si O2"
_cell_formula_units_Z 44
_cell_length_a 16.567819
_cell_length_b 8.432388
_cell_length_c 14.580679
_cell_angle_alpha 90.000000
_cell_angle_beta 117.065139
_cell_angle_gamma 90.000000
_cell_volume 1813.938784
_symmetry_space_group_name_H-M "C 2/C"
_symmetry_group_IT_number 15
_symmetry_cell_setting 'monoclinic'
loop_
_space_group_symop_operation_xyz
x,y,z
-x,y,1/2-z
-x,-y,-z
x,-y,1/2+z
1/2+x,1/2+y,z
1/2-x,1/2+y,1/2-z
1/2-x,1/2-y,-z
1/2+x,1/2-y,1/2+z
loop_
_atom_site_type_symbol
_atom_site_label
_atom_site_fract_x
_atom_site_fract_y
_atom_site_fract_z
Si Si1 0.244562 0.559567 0.000615
Si Si2 0.103858 0.060330 0.556676
Si Si3 0.393968 0.107867 0.718948
Si Si4 0.000000 0.803141 0.250000
Si Si5 0.665524 0.470356 0.782904
Si Si6 0.448393 0.108981 0.400014
O O1 0.338616 0.509810 0.000968
O O2 0.160423 0.524751 0.891785
O O3 0.250000 0.750000 0.000000
O O4 0.249237 0.498412 0.106545
O O5 0.097141 0.249686 0.565981
O O6 0.162196 0.001531 0.673471
O O7 0.000000 0.000000 0.500000
O O8 0.500000 0.122032 0.750000
O O9 0.358799 0.285582 0.716403
O O10 0.385543 0.003449 0.805659
O O11 0.996847 0.700142 0.154252
O O12 0.085682 0.916132 0.278408
O O13 0.500000 0.000000 0.500000
#
# Coordination Sequence:
#
# PCOD9276771 Si02
#       6
#     8   8   8   4   8   8
#     4  10  24  41  68  98 137 178 225 282 344 413
#     4  11  24  43  70 103 132 178 238 274 338 424
#     4  11  23  42  66  97 134 177 221 278 350 400
#     4  10  20  40  64  98 126 176 228 266 338 418
#     4  10  21  41  71  92 131 180 224 278 337 411
#     4  11  24  38  66  97 133 172 221 281 342 403
#
# _framework density 24.256606000000001
#
# number of rings (size 3 to 8) (size 9 to 14) (size 15 to 20)
#    0.000    1.455    1.818    3.273    7.636    2.909 
#    0.000    3.636    0.000    0.000    0.000    0.000 
#    0.000    0.000    0.000    0.000    0.000    0.000 
#
# Total GULP energy -123019.204867 kJ/mol
# GULP energy per Si atom -5591.782039 kJ/mol
# Density = 2.420140 g / cm^3
# Si number density = 24.256606 Si / 1000 Ang^3
#
#
#
# Elastic Constant Matrix: (Units=GPa)
#
#
# Indices 1 2 3 4 5 6 
#
# 1 80.9305 9.6417 31.2781 0.0000 -7.1647 0.0000
# 2 9.6417 106.9344 51.6734 0.0000 3.4345 0.0000
# 3 31.2781 51.6734 217.4384 0.0000 10.7082 0.0000
# 4 0.0000 0.0000 0.0000 47.1739 0.0000 -10.7190
# 5 -7.1647 3.4345 10.7082 0.0000 41.7431 0.0000
# 6 0.0000 0.0000 0.0000 -10.7190 0.0000 11.8083
#
#
#
# Elastic Compliance Matrix: (Units=1/GPa)
#
#
# Indices 1 2 3 4 5 6 
#
# 1 0.013417 -0.000340 -0.001989 0.000000 0.002841 0.000000
# 2 -0.000340 0.010575 -0.002450 0.000000 -0.000300 0.000000
# 3 -0.001989 -0.002450 0.005544 0.000000 -0.001562 0.000000
# 4 0.000000 0.000000 0.000000 0.026707 0.000000 0.024243
# 5 0.002841 -0.000300 -0.001562 0.000000 0.024869 0.000000
# 6 0.000000 0.000000 0.000000 0.024243 0.000000 0.106693
#
#
# Mechanical properties :
#
#
# Convention : Reuss Voigt Hill
#
# Bulk Modulus (GPa) = 50.05079 65.60995 57.83037
# Shear Modulus (GPa) = 24.50706 40.99238 32.74972
#
# Velocity S-wave (km/s) = 3.18201 4.11536 3.67841
# Velocity P-wave (km/s) = 5.84627 7.04901 6.47563
#
# Compressibility (1/GPa) = 0.01997970
#
# Stress axis : x y z
#
# Youngs Moduli (GPa) = 74.53194 94.55825 180.36847
#
# Poissons Ratio (x) = 0.03213 0.35879
# Poissons Ratio (y) = 0.02532 0.44183
# Poissons Ratio (z) = 0.14826 0.23163
#
# Static dielectric constant tensor:
#      x y z
#    x 2.038110 0.000000 0.079680 
#    y 0.000000 1.913140 0.000000 
#    z 0.079680 0.000000 2.118200 
# 
# From -- ./inp_files/172115.got.cif
#   From: 2010.05.17/outbox.cif.g08.bks.cpg/sg15_87_cif.got.tgz:172115.got - 2010.06.03 18:47:42.
