data_PCOD9276338
_publ_section_title
;
Structure prediction by ZEFSAII (Michael W. Deem and Ramdas Pophale) SiO2 
 PCOD9276338
Probable space group: C 2/C
;
_chemical_formula_sum "Si O2"
_cell_formula_units_Z 60
_cell_length_a 12.256714
_cell_length_b 10.215496
_cell_length_c 19.474784
_cell_angle_alpha 90.000000
_cell_angle_beta 89.721566
_cell_angle_gamma 90.000000
_cell_volume 2438.378003
_symmetry_space_group_name_H-M "C 2/C"
_symmetry_group_IT_number 15
_symmetry_cell_setting 'monoclinic'
loop_
_space_group_symop_operation_xyz
x,y,z
-x,y,1/2-z
-x,-y,-z
x,-y,1/2+z
1/2+x,1/2+y,z
1/2-x,1/2+y,1/2-z
1/2-x,1/2-y,-z
1/2+x,1/2-y,1/2+z
loop_
_atom_site_type_symbol
_atom_site_label
_atom_site_fract_x
_atom_site_fract_y
_atom_site_fract_z
Si Si1 0.491073 0.359622 0.967557
Si Si2 0.296454 0.344949 0.596383
Si Si3 0.894374 0.708262 0.089997
Si Si4 0.848096 0.225431 0.357996
Si Si5 0.917941 0.473717 0.887425
Si Si6 0.304084 0.166071 0.718927
Si Si7 0.902749 0.938332 0.197601
Si Si8 0.000000 0.486435 0.750000
O O1 0.613847 0.307539 0.959756
O O2 0.436439 0.364893 0.893050
O O3 0.500000 0.500000 0.000000
O O4 0.413538 0.276678 0.017149
O O5 0.183241 0.408091 0.574123
O O6 0.274541 0.224680 0.646453
O O7 0.355245 0.455215 0.644195
O O8 0.768581 0.689987 0.109640
O O9 0.932165 0.811523 0.149512
O O10 0.967300 0.577347 0.084729
O O11 0.887942 0.373619 0.377901
O O12 0.839574 0.225883 0.275966
O O13 0.928122 0.418745 0.808493
O O14 0.202046 0.098092 0.755293
O O15 0.410140 0.074535 0.711871
O O16 0.000000 0.969672 0.250000
#
# Coordination Sequence:
#
# PCOD9276338 Si02
#       8
#     8   8   8   8   8   8   8   4
#     4  12  25  45  68  95 140 184 230 280 339 416
#     4  12  23  41  66  99 137 175 221 286 335 413
#     4  11  24  44  70  98 130 188 226 277 348 406
#     4  10  23  46  69  99 135 176 233 287 346 412
#     4  11  23  42  68  98 136 172 227 287 338 414
#     4  10  22  39  64  98 130 173 214 282 350 390
#     4  11  23  40  63 101 136 168 226 274 345 416
#     4  10  20  40  60  90 130 168 212 276 342 402
#
# _framework density 24.60652
#
# number of rings (size 3 to 8) (size 9 to 14) (size 15 to 20)
#    0.000    1.067    5.333    2.800    7.467    1.067 
#    0.000    1.333    0.000    0.000    0.000    0.000 
#    0.000    0.000    0.000    0.000    0.000    0.000 
#
# Total GULP energy -167786.173565 kJ/mol
# GULP energy per Si atom -5592.872452 kJ/mol
# Density = 2.455051 g / cm^3
# Si number density = 24.606520 Si / 1000 Ang^3
#
#
#
# Elastic Constant Matrix: (Units=GPa)
#
#
# Indices 1 2 3 4 5 6 
#
# 1 134.4636 19.8567 16.1743 0.0000 -15.0953 0.0000
# 2 19.8567 29.1217 1.1736 0.0000 18.3376 0.0000
# 3 16.1743 1.1736 47.6129 0.0000 -14.0177 0.0000
# 4 0.0000 0.0000 0.0000 32.6903 0.0000 4.1192
# 5 -15.0953 18.3376 -14.0177 0.0000 34.3654 0.0000
# 6 0.0000 0.0000 0.0000 4.1192 0.0000 34.3154
#
#
#
# Elastic Compliance Matrix: (Units=1/GPa)
#
#
# Indices 1 2 3 4 5 6 
#
# 1 0.011444 -0.016852 0.000745 0.000000 0.014323 0.000000
# 2 -0.016852 0.081799 -0.012867 0.000000 -0.056299 0.000000
# 3 0.000745 -0.012867 0.026349 0.000000 0.017940 0.000000
# 4 0.000000 0.000000 0.000000 0.031060 0.000000 -0.003728
# 5 0.014323 -0.056299 0.017940 0.000000 0.072750 0.000000
# 6 0.000000 0.000000 0.000000 -0.003728 0.000000 0.029589
#
#
# Mechanical properties :
#
#
# Convention : Reuss Voigt Hill
#
# Bulk Modulus (GPa) = 16.22231 31.73417 23.97824
# Shear Modulus (GPa) = 15.08358 31.87380 23.47869
#
# Velocity S-wave (km/s) = 2.47855 3.60299 3.09231
# Velocity P-wave (km/s) = 3.84681 5.49848 4.74507
#
# Compressibility (1/GPa) = 0.06164348
#
# Stress axis : x y z
#
# Youngs Moduli (GPa) = 87.38253 12.22512 37.95251
#
# Poissons Ratio (x) = 0.20602 -0.02826
# Poissons Ratio (y) = 1.47258 0.48832
# Poissons Ratio (z) = -0.06507 0.15729
#
# Static dielectric constant tensor:
#      x y z
#    x 1.931790 0.000000 0.007590 
#    y 0.000000 1.962590 0.000000 
#    z 0.007590 0.000000 1.981760 
# 
# From -- ./inp_files/237605.got.cif
#   From: 2010.05.17/outbox.cif.g08.bks.cpg/sg15_119_cif.got.tgz:237605.got - 2010.06.03 18:47:42.
