data_PCOD9276984
_publ_section_title
;
Structure prediction by ZEFSAII (Michael W. Deem and Ramdas Pophale) SiO2 
 PCOD9276984
Probable space group: C 2/C
;
_chemical_formula_sum "Si O2"
_cell_formula_units_Z 44
_cell_length_a 26.358450
_cell_length_b 7.208591
_cell_length_c 14.226852
_cell_angle_alpha 90.000000
_cell_angle_beta 135.723271
_cell_angle_gamma 90.000000
_cell_volume 1887.174131
_symmetry_space_group_name_H-M "C 2/C"
_symmetry_group_IT_number 15
_symmetry_cell_setting 'monoclinic'
loop_
_space_group_symop_operation_xyz
x,y,z
-x,y,1/2-z
-x,-y,-z
x,-y,1/2+z
1/2+x,1/2+y,z
1/2-x,1/2+y,1/2-z
1/2-x,1/2-y,-z
1/2+x,1/2-y,1/2+z
loop_
_atom_site_type_symbol
_atom_site_label
_atom_site_fract_x
_atom_site_fract_y
_atom_site_fract_z
Si Si1 0.687829 0.360571 0.545576
Si Si2 0.386160 0.352119 0.447306
Si Si3 0.500000 0.330141 0.750000
Si Si4 0.912906 0.581591 0.976752
Si Si5 0.925998 0.450596 0.280870
Si Si6 0.338895 0.694809 0.690478
O O1 0.816316 0.043037 0.895892
O O2 0.629588 0.223724 0.515671
O O3 0.669098 0.422302 0.414237
O O4 0.762481 0.248011 0.636369
O O5 0.454680 0.417563 0.602985
O O6 0.389821 0.384955 0.340022
O O7 0.383182 0.128631 0.448002
O O8 0.560444 0.202371 0.779128
O O9 0.910409 0.632035 0.863185
O O10 0.997598 0.561218 0.113406
O O11 0.866912 0.607817 0.187758
#
# Coordination Sequence:
#
# PCOD9276984 Si02
#       6
#     8   8   4   8   8   8
#     4  11  24  42  63  93 134 173 212 267 324 386
#     4  10  23  40  64  93 124 163 216 264 316 384
#     4  10  20  40  66  98 130 166 218 270 326 378
#     4   9  20  40  66  91 127 169 211 266 323 375
#     4   9  18  38  65  93 126 169 215 264 319 381
#     4  10  23  41  62  95 130 173 222 257 327 392
#
# _framework density 23.315283000000001
#
# number of rings (size 3 to 8) (size 9 to 14) (size 15 to 20)
#    0.000    2.182    0.000    3.273    5.091    2.909 
#    0.000   21.818    0.000    0.000    0.000    0.000 
#    0.000    0.000    0.000    0.000    0.000    0.000 
#
# Total GULP energy -122835.420673 kJ/mol
# GULP energy per Si atom -5583.428212 kJ/mol
# Density = 2.326222 g / cm^3
# Si number density = 23.315283 Si / 1000 Ang^3
#
#
#
# Elastic Constant Matrix: (Units=GPa)
#
#
# Indices 1 2 3 4 5 6 
#
# 1 144.2452 48.6267 32.6861 0.0000 -11.8606 0.0000
# 2 48.6267 63.2458 10.3647 0.0000 0.5678 0.0000
# 3 32.6861 10.3647 91.5076 0.0000 -33.9438 0.0000
# 4 0.0000 0.0000 0.0000 -16.9017 0.0000 1.3438
# 5 -11.8606 0.5678 -33.9438 0.0000 20.5963 0.0000
# 6 0.0000 0.0000 0.0000 1.3438 0.0000 32.9462
#
#
#
# Elastic Compliance Matrix: (Units=1/GPa)
#
#
# Indices 1 2 3 4 5 6 
#
# 1 0.010107 -0.007589 -0.001323 0.000000 0.003850 0.000000
# 2 -0.007589 0.022465 -0.004334 0.000000 -0.012133 0.000000
# 3 -0.001323 -0.004334 0.029982 0.000000 0.048770 0.000000
# 4 0.000000 0.000000 0.000000 -0.058975 0.000000 0.002405
# 5 0.003850 -0.012133 0.048770 0.000000 0.131480 0.000000
# 6 0.000000 0.000000 0.000000 0.002405 0.000000 0.030254
#
#
# Mechanical properties :
#
#
# Convention : Reuss Voigt Hill
#
# Bulk Modulus (GPa) = 27.72923 53.59484 40.66203
# Shear Modulus (GPa) = 24.53063 21.14957 22.84010
#
# Velocity S-wave (km/s) = 3.24717 3.01510 3.13328
# Velocity P-wave (km/s) = 5.09684 5.92942 5.52882
#
# Compressibility (1/GPa) = 0.03606303
#
# Stress axis : x y z
#
# Youngs Moduli (GPa) = 98.93989 44.51337 33.35306
#
# Poissons Ratio (x) = 0.33780 0.04412
# Poissons Ratio (y) = 0.75083 0.14456
# Poissons Ratio (z) = 0.13087 0.19294
#
# Static dielectric constant tensor:
#      x y z
#    x 1.836030 0.000000 -0.009170 
#    y 0.000000 1.844260 0.000000 
#    z -0.009170 0.000000 1.992180 
# 
# From -- ./inp_files/181334.got.cif
#   From: 2010.05.17/outbox.cif.g08.bks.cpg/sg15_91_cif.got.tgz:181334.got - 2010.06.03 18:47:42.
