data_PCOD9276894
_publ_section_title
;
Structure prediction by ZEFSAII (Michael W. Deem and Ramdas Pophale) SiO2 
 PCOD9276894
Probable space group: C 2/C
;
_chemical_formula_sum "Si O2"
_cell_formula_units_Z 44
_cell_length_a 18.629389
_cell_length_b 6.835530
_cell_length_c 14.255960
_cell_angle_alpha 90.000000
_cell_angle_beta 76.026445
_cell_angle_gamma 90.000000
_cell_volume 1761.656864
_symmetry_space_group_name_H-M "C 2/C"
_symmetry_group_IT_number 15
_symmetry_cell_setting 'monoclinic'
loop_
_space_group_symop_operation_xyz
x,y,z
-x,y,1/2-z
-x,-y,-z
x,-y,1/2+z
1/2+x,1/2+y,z
1/2-x,1/2+y,1/2-z
1/2-x,1/2-y,-z
1/2+x,1/2-y,1/2+z
loop_
_atom_site_type_symbol
_atom_site_label
_atom_site_fract_x
_atom_site_fract_y
_atom_site_fract_z
Si Si1 0.935631 0.138130 0.128296
Si Si2 0.629614 0.992691 0.578751
Si Si3 0.243192 0.028771 0.606721
Si Si4 0.500000 0.000000 0.000000
Si Si5 0.903516 0.045507 0.440348
Si Si6 0.808766 0.315900 0.276155
O O1 0.955948 0.357491 0.087567
O O2 0.874238 0.166560 0.226290
O O3 0.013872 0.038897 0.127492
O O4 0.905958 0.020763 0.047609
O O5 0.697123 0.930627 0.491645
O O6 0.552054 0.905330 0.569970
O O7 0.615003 0.222394 0.554314
O O8 0.654600 0.005930 0.678436
O O9 0.161102 0.064941 0.593834
O O10 0.243568 0.798577 0.635132
O O11 0.266733 0.132346 0.694961
#
# Coordination Sequence:
#
# PCOD9276894 Si02
#       6
#     8   8   8   4   8   8
#     4  10  21  40  65  93 120 175 214 260 323 389
#     4  10  22  42  63  91 131 166 206 272 317 381
#     4  11  24  41  63  97 126 170 211 272 320 385
#     4  10  20  40  66  88 126 168 212 264 324 370
#     4   9  21  39  65  87 130 166 208 266 318 378
#     4  11  24  39  67  93 128 168 220 258 330 391
#
# _framework density 24.976488
#
# number of rings (size 3 to 8) (size 9 to 14) (size 15 to 20)
#    0.000    1.818    1.818    2.182    5.091    8.727 
#    0.000    0.000    0.000    0.000    0.000    0.000 
#    0.000    0.000    0.000    0.000    0.000    0.000 
#
# Total GULP energy -122500.606124 kJ/mol
# GULP energy per Si atom -5568.209369 kJ/mol
# Density = 2.491964 g / cm^3
# Si number density = 24.976488 Si / 1000 Ang^3
#
#
#
# Elastic Constant Matrix: (Units=GPa)
#
#
# Indices 1 2 3 4 5 6 
#
# 1 139.8268 -9.7057 32.0739 0.0000 36.0673 0.0000
# 2 -9.7057 33.0673 -7.5026 0.0000 -7.1551 0.0000
# 3 32.0739 -7.5026 78.3082 0.0000 14.7273 0.0000
# 4 0.0000 0.0000 0.0000 47.4309 0.0000 0.0018
# 5 36.0673 -7.1551 14.7273 0.0000 37.3983 0.0000
# 6 0.0000 0.0000 0.0000 0.0018 0.0000 12.8949
#
#
#
# Elastic Compliance Matrix: (Units=1/GPa)
#
#
# Indices 1 2 3 4 5 6 
#
# 1 0.009945 0.000523 -0.002417 0.000000 -0.008539 0.000000
# 2 0.000523 0.031879 0.001931 0.000000 0.004834 0.000000
# 3 -0.002417 0.001931 0.014512 0.000000 -0.003014 0.000000
# 4 0.000000 0.000000 0.000000 0.021083 0.000000 -0.000003
# 5 -0.008539 0.004834 -0.003014 0.000000 0.037086 0.000000
# 6 0.000000 0.000000 0.000000 -0.000003 0.000000 0.077550
#
#
# Mechanical properties :
#
#
# Convention : Reuss Voigt Hill
#
# Bulk Modulus (GPa) = 17.72767 31.21484 24.47126
# Shear Modulus (GPa) = 23.72072 35.30058 29.51065
#
# Velocity S-wave (km/s) = 3.08510 3.76354 3.44108
# Velocity P-wave (km/s) = 4.45012 5.60450 5.06034
#
# Compressibility (1/GPa) = 0.05640898
#
# Stress axis : x y z
#
# Youngs Moduli (GPa) = 100.55178 31.36864 68.90850
#
# Poissons Ratio (x) = -0.01640 0.16657
# Poissons Ratio (y) = -0.05257 -0.13306
# Poissons Ratio (z) = 0.24307 -0.06057
#
# Static dielectric constant tensor:
#      x y z
#    x 2.116650 0.000000 0.060100 
#    y 0.000000 2.182760 0.000000 
#    z 0.060100 0.000000 1.911470 
# 
# From -- ./inp_files/110112.got.cif
#   From: 2010.05.17/outbox.cif.g08.bks.cpg/sg15_56_cif.got.tgz:110112.got - 2010.06.03 18:47:42.
