data_PCOD9276913
_publ_section_title
;
Structure prediction by ZEFSAII (Michael W. Deem and Ramdas Pophale) SiO2 
 PCOD9276913
Probable space group: C 2/C
;
_chemical_formula_sum "Si O2"
_cell_formula_units_Z 60
_cell_length_a 17.964155
_cell_length_b 20.574221
_cell_length_c 12.108502
_cell_angle_alpha 90.000000
_cell_angle_beta 143.285244
_cell_angle_gamma 90.000000
_cell_volume 2675.466340
_symmetry_space_group_name_H-M "C 2/C"
_symmetry_group_IT_number 15
_symmetry_cell_setting 'monoclinic'
loop_
_space_group_symop_operation_xyz
x,y,z
-x,y,1/2-z
-x,-y,-z
x,-y,1/2+z
1/2+x,1/2+y,z
1/2-x,1/2+y,1/2-z
1/2-x,1/2-y,-z
1/2+x,1/2-y,1/2+z
loop_
_atom_site_type_symbol
_atom_site_label
_atom_site_fract_x
_atom_site_fract_y
_atom_site_fract_z
Si Si1 0.013386 0.869681 0.018736
Si Si2 0.821329 0.068790 0.455178
Si Si3 0.867876 0.631618 0.777182
Si Si4 0.359828 0.696235 0.637908
Si Si5 0.391216 0.265011 0.716600
Si Si6 0.874521 0.488576 0.420253
Si Si7 0.122891 0.070145 0.451389
Si Si8 0.000000 0.449148 0.250000
O O1 0.935272 0.908334 0.015786
O O2 0.922609 0.827456 0.830905
O O3 0.089718 0.922833 0.040355
O O4 0.105797 0.821956 0.194968
O O5 0.803714 0.131291 0.511603
O O6 0.718442 0.039595 0.248625
O O7 0.851333 0.002656 0.556231
O O8 0.904413 0.705635 0.820491
O O9 0.855714 0.587779 0.872150
O O10 0.734054 0.618876 0.561982
O O11 0.959203 0.596422 0.800459
O O12 0.500000 0.710767 0.750000
O O13 0.250000 0.750000 0.500000
O O14 0.500000 0.259806 0.750000
O O15 0.250000 0.250000 0.500000
O O16 0.894693 0.505373 0.571559
O O17 0.000000 0.500000 0.500000
O O18 0.000000 0.093708 0.250000
#
# Coordination Sequence:
#
# PCOD9276913 Si02
#       8
#     8   8   8   8   8   8   8   4
#     4  11  24  42  69  99 136 182 236 290 350 418
#     4  10  23  43  69  93 137 182 229 288 354 415
#     4  10  22  41  62  92 130 173 213 272 342 408
#     4  10  24  47  72 101 139 193 242 292 355 431
#     4  12  26  42  66  99 135 180 227 283 351 418
#     4   9  21  39  64  95 127 171 224 278 337 410
#     4  11  22  40  65 100 132 163 229 283 340 413
#     4  10  20  40  66  90 126 174 218 268 344 394
#
# _framework density 22.425996000000001
#
# number of rings (size 3 to 8) (size 9 to 14) (size 15 to 20)
#    0.000    1.600    0.667    3.600    3.733    6.400 
#   12.000    1.333   10.267    0.000    0.000    0.000 
#    0.000    0.000    0.000    0.000    0.000    0.000 
#
# Total GULP energy -167030.707123 kJ/mol
# GULP energy per Si atom -5567.690237 kJ/mol
# Density = 2.237495 g / cm^3
# Si number density = 22.425996 Si / 1000 Ang^3
#
#
#
# Elastic Constant Matrix: (Units=GPa)
#
#
# Indices 1 2 3 4 5 6 
#
# 1 35.6546 25.2002 -11.2982 0.0000 14.6758 0.0000
# 2 25.2002 135.3086 19.2567 0.0000 1.4233 0.0000
# 3 -11.2982 19.2567 79.4205 0.0000 6.2699 0.0000
# 4 0.0000 0.0000 0.0000 -24.3918 0.0000 30.3140
# 5 14.6758 1.4233 6.2699 0.0000 33.0605 0.0000
# 6 0.0000 0.0000 0.0000 30.3140 0.0000 18.7270
#
#
#
# Elastic Compliance Matrix: (Units=1/GPa)
#
#
# Indices 1 2 3 4 5 6 
#
# 1 0.048520 -0.010394 0.011256 0.000000 -0.023226 0.000000
# 2 -0.010394 0.009881 -0.004269 0.000000 0.004998 0.000000
# 3 0.011256 -0.004269 0.015845 0.000000 -0.007818 0.000000
# 4 0.000000 0.000000 0.000000 -0.013612 0.000000 0.022035
# 5 -0.023226 0.004998 -0.007818 0.000000 0.041825 0.000000
# 6 0.000000 0.000000 0.000000 0.022035 0.000000 0.017730
#
#
# Mechanical properties :
#
#
# Convention : Reuss Voigt Hill
#
# Bulk Modulus (GPa) = 14.82974 35.18900 25.00937
# Shear Modulus (GPa) = 33.44912 19.96080 26.70496
#
# Velocity S-wave (km/s) = 3.86623 2.98665 3.45455
# Velocity P-wave (km/s) = 5.15339 5.25534 5.20461
#
# Compressibility (1/GPa) = 0.06743207
#
# Stress axis : x y z
#
# Youngs Moduli (GPa) = 20.60998 101.20082 63.11226
#
# Poissons Ratio (x) = 1.05190 -0.71040
# Poissons Ratio (y) = 0.21422 0.26943
# Poissons Ratio (z) = -0.23199 0.43204
#
# Static dielectric constant tensor:
#      x y z
#    x 1.793090 0.000000 0.111020 
#    y 0.000000 1.574690 0.000000 
#    z 0.111020 0.000000 1.924630 
# 
# From -- ./inp_files/107643.got.cif
#   From: 2010.05.17/outbox.cif.g08.bks.cpg/sg15_54_cif.got.tgz:107643.got - 2010.06.03 18:47:42.
