data_PCOD9276511
_publ_section_title
;
Structure prediction by ZEFSAII (Michael W. Deem and Ramdas Pophale) SiO2 
 PCOD9276511
Probable space group: C 2/C
;
_chemical_formula_sum "Si O2"
_cell_formula_units_Z 36
_cell_length_a 9.381461
_cell_length_b 11.519203
_cell_length_c 15.296987
_cell_angle_alpha 90.000000
_cell_angle_beta 79.217762
_cell_angle_gamma 90.000000
_cell_volume 1623.913811
_symmetry_space_group_name_H-M "C 2/C"
_symmetry_group_IT_number 15
_symmetry_cell_setting 'monoclinic'
loop_
_space_group_symop_operation_xyz
x,y,z
-x,y,1/2-z
-x,-y,-z
x,-y,1/2+z
1/2+x,1/2+y,z
1/2-x,1/2+y,1/2-z
1/2-x,1/2-y,-z
1/2+x,1/2-y,1/2+z
loop_
_atom_site_type_symbol
_atom_site_label
_atom_site_fract_x
_atom_site_fract_y
_atom_site_fract_z
Si Si1 0.845155 0.154235 0.107698
Si Si2 0.262098 0.732206 0.394761
Si Si3 0.068462 0.250787 0.582833
Si Si4 0.561745 0.495549 0.145809
Si Si5 0.500000 0.223169 0.750000
O O1 0.674388 0.153122 0.110530
O O2 0.926385 0.030933 0.098812
O O3 0.894920 0.208427 0.193967
O O4 0.909569 0.235422 0.023504
O O5 0.250000 0.750000 0.500000
O O6 0.327952 0.602794 0.374163
O O7 0.375228 0.819198 0.332389
O O8 0.099890 0.738121 0.376060
O O9 0.125046 0.127335 0.612369
O O10 0.500000 0.484815 0.250000
#
# Coordination Sequence:
#
# PCOD9276511 Si02
#       5
#     8   8   8   8   4
#     4  10  21  43  63  97 131 160 221 271 304 400
#     4  11  21  41  67  93 131 173 207 273 327 366
#     4  11  24  40  72  93 122 181 213 258 336 373
#     4  11  23  42  65  95 134 168 214 266 319 388
#     4  10  20  40  62  92 134 160 212 268 308 380
#
# _framework density 22.168664
#
# number of rings (size 3 to 8) (size 9 to 14) (size 15 to 20)
#    0.000    1.333    8.889    0.667    3.111    0.000 
#    0.000    8.889    0.000    0.000    0.000    0.000 
#    0.000    0.000    0.000    0.000    0.000    0.000 
#
# Total GULP energy -100294.475350 kJ/mol
# GULP energy per Si atom -5571.915297 kJ/mol
# Density = 2.211821 g / cm^3
# Si number density = 22.168664 Si / 1000 Ang^3
#
#
#
# Elastic Constant Matrix: (Units=GPa)
#
#
# Indices 1 2 3 4 5 6 
#
# 1 137.0874 4.1313 24.7552 0.0000 -24.9762 0.0000
# 2 4.1313 50.1439 10.8725 0.0000 -4.2513 0.0000
# 3 24.7552 10.8725 140.3246 0.0000 -7.8543 0.0000
# 4 0.0000 0.0000 0.0000 18.8622 0.0000 -5.2708
# 5 -24.9762 -4.2513 -7.8543 0.0000 36.9039 0.0000
# 6 0.0000 0.0000 0.0000 -5.2708 0.0000 21.6739
#
#
#
# Elastic Compliance Matrix: (Units=1/GPa)
#
#
# Indices 1 2 3 4 5 6 
#
# 1 0.008514 0.000025 -0.001195 0.000000 0.005510 0.000000
# 2 0.000025 0.020434 -0.001473 0.000000 0.002058 0.000000
# 3 -0.001195 -0.001473 0.007486 0.000000 0.000615 0.000000
# 4 0.000000 0.000000 0.000000 0.056882 0.000000 0.013833
# 5 0.005510 0.002058 0.000615 0.000000 0.031195 0.000000
# 6 0.000000 0.000000 0.000000 0.013833 0.000000 0.049503
#
#
# Mechanical properties :
#
#
# Convention : Reuss Voigt Hill
#
# Bulk Modulus (GPa) = 32.10509 45.23044 38.66776
# Shear Modulus (GPa) = 26.36003 34.67444 30.51723
#
# Velocity S-wave (km/s) = 3.45203 3.95919 3.71427
# Velocity P-wave (km/s) = 5.51383 6.43019 5.98956
#
# Compressibility (1/GPa) = 0.03114771
#
# Stress axis : x y z
#
# Youngs Moduli (GPa) = 117.45781 48.93740 133.58777
#
# Poissons Ratio (x) = -0.00122 0.15970
# Poissons Ratio (y) = -0.00293 0.19671
# Poissons Ratio (z) = 0.14041 0.07206
#
# Static dielectric constant tensor:
#      x y z
#    x 1.867600 0.000000 -0.021080 
#    y 0.000000 1.816570 0.000000 
#    z -0.021080 0.000000 1.899310 
# 
# From -- ./inp_files/132712.got.cif
#   From: 2010.05.17/outbox.cif.g08.bks.cpg/sg15_67_cif.got.tgz:132712.got - 2010.06.03 18:47:42.
