data_PCOD9276314
_publ_section_title
;
Structure prediction by ZEFSAII (Michael W. Deem and Ramdas Pophale) SiO2 
 PCOD9276314
Probable space group: C 2/C
;
_chemical_formula_sum "Si O2"
_cell_formula_units_Z 44
_cell_length_a 7.046282
_cell_length_b 11.698701
_cell_length_c 25.477768
_cell_angle_alpha 90.000000
_cell_angle_beta 80.854211
_cell_angle_gamma 90.000000
_cell_volume 2073.492653
_symmetry_space_group_name_H-M "C 2/C"
_symmetry_group_IT_number 15
_symmetry_cell_setting 'monoclinic'
loop_
_space_group_symop_operation_xyz
x,y,z
-x,y,1/2-z
-x,-y,-z
x,-y,1/2+z
1/2+x,1/2+y,z
1/2-x,1/2+y,1/2-z
1/2-x,1/2-y,-z
1/2+x,1/2-y,1/2+z
loop_
_atom_site_type_symbol
_atom_site_label
_atom_site_fract_x
_atom_site_fract_y
_atom_site_fract_z
Si Si1 0.907606 0.462568 0.199970
Si Si2 0.964283 0.370177 0.600330
Si Si3 0.849775 0.040387 0.082664
Si Si4 0.281088 0.337745 0.159248
Si Si5 0.759546 0.883734 0.987105
Si Si6 0.500000 0.365162 0.250000
O O1 0.915197 0.541364 0.148598
O O2 0.686313 0.433090 0.220652
O O3 0.000000 0.512201 0.250000
O O4 0.055295 0.356600 0.181461
O O5 0.839837 0.257242 0.615114
O O6 0.912591 0.412845 0.544740
O O7 0.194028 0.358681 0.594521
O O8 0.051975 0.086952 0.055385
O O9 0.851119 0.961367 0.134496
O O10 0.776038 0.955814 0.039682
O O11 0.402521 0.302166 0.205217
O O12 0.750000 0.750000 0.000000
#
# Coordination Sequence:
#
# PCOD9276314 Si02
#       6
#     8   8   8   8   8   4
#     4   9  21  40  60  86 122 152 201 247 288 356
#     4  11  22  39  63  89 118 162 195 244 302 346
#     4  10  23  42  61  88 123 153 203 247 289 355
#     4  10  21  39  60  90 121 155 201 243 292 357
#     4  11  22  41  62  89 121 158 198 247 295 350
#     4  10  20  40  60  86 120 160 190 248 300 342
#
# _framework density 21.220234000000001
#
# number of rings (size 3 to 8) (size 9 to 14) (size 15 to 20)
#    0.000    1.818    1.818    1.636    1.273    2.182 
#    8.182    0.000    0.000    0.000    0.000    0.000 
#    0.000    0.000    0.000    0.000    0.000    0.000 
#
# Total GULP energy -122689.145800 kJ/mol
# GULP energy per Si atom -5576.779355 kJ/mol
# Density = 2.117194 g / cm^3
# Si number density = 21.220234 Si / 1000 Ang^3
#
#
#
# Elastic Constant Matrix: (Units=GPa)
#
#
# Indices 1 2 3 4 5 6 
#
# 1 93.1452 28.8134 0.0588 0.0000 -5.5893 0.0000
# 2 28.8134 53.9965 7.4513 0.0000 -0.7343 0.0000
# 3 0.0588 7.4513 58.5813 0.0000 11.7863 0.0000
# 4 0.0000 0.0000 0.0000 34.6357 0.0000 4.1162
# 5 -5.5893 -0.7343 11.7863 0.0000 40.7785 0.0000
# 6 0.0000 0.0000 0.0000 4.1162 0.0000 -2.9432
#
#
#
# Elastic Compliance Matrix: (Units=1/GPa)
#
#
# Indices 1 2 3 4 5 6 
#
# 1 0.012987 -0.006989 0.000577 0.000000 0.001488 0.000000
# 2 -0.006989 0.022658 -0.002935 0.000000 0.000298 0.000000
# 3 0.000577 -0.002935 0.018514 0.000000 -0.005325 0.000000
# 4 0.000000 0.000000 0.000000 0.024757 0.000000 0.034624
# 5 0.001488 0.000298 -0.005325 0.000000 0.026271 0.000000
# 6 0.000000 0.000000 0.000000 0.034624 0.000000 -0.291347
#
#
# Mechanical properties :
#
#
# Convention : Reuss Voigt Hill
#
# Bulk Modulus (GPa) = 28.19738 30.93001 29.56370
# Shear Modulus (GPa) = -32.12504 25.78750 -3.16877
#
# Velocity S-wave (km/s) = -3.89509 3.48980 -1.22332
# Velocity P-wave (km/s) = 2.62910 5.55388 3.45930
#
# Compressibility (1/GPa) = 0.03546428
#
# Stress axis : x y z
#
# Youngs Moduli (GPa) = 77.00058 44.13360 54.01191
#
# Poissons Ratio (x) = 0.30847 -0.03115
# Poissons Ratio (y) = 0.53819 0.15853
# Poissons Ratio (z) = -0.04441 0.12954
#
# Static dielectric constant tensor:
#      x y z
#    x 1.751280 0.000000 0.018100 
#    y 0.000000 1.760790 0.000000 
#    z 0.018100 0.000000 1.797960 
# 
# From -- ./inp_files/285441.got.cif
#   From: 2010.05.17/outbox.cif.g08.bks.cpg/sg15_143_cif.got.tgz:285441.got - 2010.06.03 18:47:42.
