data_PCOD9276420
_publ_section_title
;
Structure prediction by ZEFSAII (Michael W. Deem and Ramdas Pophale) SiO2 
 PCOD9276420
Probable space group: C 2/C
;
_chemical_formula_sum "Si O2"
_cell_formula_units_Z 56
_cell_length_a 11.052617
_cell_length_b 24.582785
_cell_length_c 10.541828
_cell_angle_alpha 90.000000
_cell_angle_beta 52.524287
_cell_angle_gamma 90.000000
_cell_volume 2273.107534
_symmetry_space_group_name_H-M "C 2/C"
_symmetry_group_IT_number 15
_symmetry_cell_setting 'monoclinic'
loop_
_space_group_symop_operation_xyz
x,y,z
-x,y,1/2-z
-x,-y,-z
x,-y,1/2+z
1/2+x,1/2+y,z
1/2-x,1/2+y,1/2-z
1/2-x,1/2-y,-z
1/2+x,1/2-y,1/2+z
loop_
_atom_site_type_symbol
_atom_site_label
_atom_site_fract_x
_atom_site_fract_y
_atom_site_fract_z
Si Si1 0.477159 0.247087 0.538670
Si Si2 0.768182 0.587206 0.929519
Si Si3 0.883883 0.864939 0.570530
Si Si4 0.500000 0.628668 0.750000
Si Si5 0.336636 0.848049 0.980596
Si Si6 0.547931 0.941274 0.423854
Si Si7 0.000000 0.914469 0.750000
Si Si8 0.683399 0.211322 0.622990
O O1 0.460493 0.306593 0.495850
O O2 0.442504 0.201357 0.457758
O O3 0.638446 0.246079 0.517019
O O4 0.340307 0.242029 0.727388
O O5 0.818527 0.561084 0.765828
O O6 0.735104 0.652135 0.937687
O O7 0.904854 0.583153 0.941185
O O8 0.626351 0.557087 0.084849
O O9 0.709864 0.856777 0.635985
O O10 0.966095 0.900980 0.407539
O O11 0.908175 0.880860 0.699957
O O12 0.333679 0.657990 0.846816
O O13 0.404454 0.902910 0.992444
O O14 0.500000 0.000000 0.500000
O O15 0.500000 0.187679 0.750000
#
# Coordination Sequence:
#
# PCOD9276420 Si02
#       8
#     8   8   8   4   8   8   4   8
#     4  11  19  34  55  96 141 193 249 300 356 437
#     4  11  23  47  73 108 145 196 243 323 371 455
#     4  10  22  37  61 102 146 199 242 293 370 462
#     4   8  22  36  63  92 140 202 229 300 372 448
#     4  10  20  40  61  98 138 185 249 308 371 434
#     4  11  23  48  80 103 137 196 260 319 382 437
#     4  12  24  46  69 106 152 186 241 300 380 450
#     4  11  21  32  65  99 147 200 242 289 368 458
#
# _framework density 24.635877000000001
#
# number of rings (size 3 to 8) (size 9 to 14) (size 15 to 20)
#    0.857    0.571    2.857    4.714    2.000    0.000 
#    5.143    1.429    0.000    0.000    0.000    0.000 
#    0.000    0.000    0.000    0.000    0.000    0.000 
#
# Total GULP energy -156048.348576 kJ/mol
# GULP energy per Si atom -5573.155306 kJ/mol
# Density = 2.457980 g / cm^3
# Si number density = 24.635877 Si / 1000 Ang^3
#
#
#
# Elastic Constant Matrix: (Units=GPa)
#
#
# Indices 1 2 3 4 5 6 
#
# 1 177.2454 52.6304 24.5786 0.0000 25.7222 0.0000
# 2 52.6304 86.7810 24.7839 0.0000 6.8283 0.0000
# 3 24.5786 24.7839 151.3513 0.0000 -1.6318 0.0000
# 4 0.0000 0.0000 0.0000 25.7638 0.0000 -3.8958
# 5 25.7222 6.8283 -1.6318 0.0000 43.5732 0.0000
# 6 0.0000 0.0000 0.0000 -3.8958 0.0000 -16.1137
#
#
#
# Elastic Compliance Matrix: (Units=1/GPa)
#
#
# Indices 1 2 3 4 5 6 
#
# 1 0.007484 -0.004072 -0.000590 0.000000 -0.003802 0.000000
# 2 -0.004072 0.014475 -0.001708 0.000000 0.000071 0.000000
# 3 -0.000590 -0.001708 0.006992 0.000000 0.000878 0.000000
# 4 0.000000 0.000000 0.000000 0.037445 0.000000 -0.009053
# 5 -0.003802 0.000071 0.000878 0.000000 0.025216 0.000000
# 6 0.000000 0.000000 0.000000 -0.009053 0.000000 -0.059870
#
#
# Mechanical properties :
#
#
# Convention : Reuss Voigt Hill
#
# Bulk Modulus (GPa) = 61.68159 68.81816 65.24987
# Shear Modulus (GPa) = 100.22890 31.53696 65.88293
#
# Velocity S-wave (km/s) = 6.38533 3.58176 5.17694
# Velocity P-wave (km/s) = 8.91375 6.71566 7.89161
#
# Compressibility (1/GPa) = 0.01621229
#
# Stress axis : x y z
#
# Youngs Moduli (GPa) = 133.61048 69.08552 143.01837
#
# Poissons Ratio (x) = 0.28128 0.08434
# Poissons Ratio (y) = 0.54400 0.24432
# Poissons Ratio (z) = 0.07879 0.11802
#
# Static dielectric constant tensor:
#      x y z
#    x 2.099780 0.000000 0.013990 
#    y 0.000000 1.994030 0.000000 
#    z 0.013990 0.000000 2.211760 
# 
# From -- ./inp_files/92037.got.cif
#   From: 2010.05.17/outbox.cif.g08.bks.cpg/sg15_47_cif.got.tgz:92037.got - 2010.06.03 18:47:42.
