data_PCOD9276116
_publ_section_title
;
Structure prediction by ZEFSAII (Michael W. Deem and Ramdas Pophale) SiO2 
 PCOD9276116
Probable space group: C 2/C
;
_chemical_formula_sum "Si O2"
_cell_formula_units_Z 40
_cell_length_a 7.015803
_cell_length_b 12.708875
_cell_length_c 23.897581
_cell_angle_alpha 90.000000
_cell_angle_beta 50.386279
_cell_angle_gamma 90.000000
_cell_volume 1641.468237
_symmetry_space_group_name_H-M "C 2/C"
_symmetry_group_IT_number 15
_symmetry_cell_setting 'monoclinic'
loop_
_space_group_symop_operation_xyz
x,y,z
-x,y,1/2-z
-x,-y,-z
x,-y,1/2+z
1/2+x,1/2+y,z
1/2-x,1/2+y,1/2-z
1/2-x,1/2-y,-z
1/2+x,1/2-y,1/2+z
loop_
_atom_site_type_symbol
_atom_site_label
_atom_site_fract_x
_atom_site_fract_y
_atom_site_fract_z
Si Si1 0.581699 0.911995 0.529163
Si Si2 0.410922 0.320315 0.055749
Si Si3 0.602007 0.770449 0.350291
Si Si4 0.905891 0.072287 0.328156
Si Si5 0.086732 0.163517 0.814301
O O1 0.520019 0.793674 0.518432
O O2 0.869899 0.904637 0.491013
O O3 0.500000 0.000000 0.500000
O O4 0.390623 0.928819 0.615443
O O5 0.350279 0.314530 0.133643
O O6 0.136874 0.333739 0.082140
O O7 0.504065 0.653867 0.355699
O O8 0.839080 0.772074 0.345443
O O9 0.710074 0.814318 0.271141
O O10 0.008668 0.957647 0.322369
O O11 0.000000 0.105017 0.250000
#
# Coordination Sequence:
#
# PCOD9276116 Si02
#       5
#     8   8   8   8   8
#     4  10  20  39  68  94 131 175 212 268 331 380
#     4  10  21  40  66  91 134 174 210 273 329 378
#     4  10  22  40  64  98 127 174 222 264 331 389
#     4  11  21  41  69  90 132 172 211 274 325 378
#     4  11  21  42  66  94 135 167 221 278 315 387
#
# _framework density 24.368428999999999
#
# number of rings (size 3 to 8) (size 9 to 14) (size 15 to 20)
#    0.000    1.600    4.000    3.000    0.000    0.000 
#    7.200   10.000    0.000    0.000    0.000    0.000 
#    0.000    0.000    0.000    0.000    0.000    0.000 
#
# Total GULP energy -111909.041798 kJ/mol
# GULP energy per Si atom -5595.452090 kJ/mol
# Density = 2.431296 g / cm^3
# Si number density = 24.368429 Si / 1000 Ang^3
#
#
#
# Elastic Constant Matrix: (Units=GPa)
#
#
# Indices 1 2 3 4 5 6 
#
# 1 99.1373 20.8316 34.4498 -0.0009 -27.0612 0.0003
# 2 20.8316 84.2874 -15.3355 -0.0005 -7.3144 0.0003
# 3 34.4498 -15.3355 130.5476 -0.0014 -25.0484 0.0006
# 4 -0.0009 -0.0005 -0.0014 -10.4758 0.0012 -11.7883
# 5 -27.0612 -7.3144 -25.0484 0.0012 45.5113 -0.0005
# 6 0.0003 0.0003 0.0006 -11.7883 -0.0005 37.7126
#
#
#
# Elastic Compliance Matrix: (Units=1/GPa)
#
#
# Indices 1 2 3 4 5 6 
#
# 1 0.013351 -0.003296 -0.002783 0.000000 0.005877 0.000000
# 2 -0.003296 0.013329 0.002762 0.000000 0.001703 0.000000
# 3 -0.002783 0.002762 0.009489 0.000000 0.004012 0.000000
# 4 0.000000 0.000000 0.000000 -0.070618 0.000001 -0.022074
# 5 0.005877 0.001703 0.004012 0.000001 0.027949 0.000001
# 6 0.000000 0.000000 0.000000 -0.022074 0.000001 0.019616
#
#
# Mechanical properties :
#
#
# Convention : Reuss Voigt Hill
#
# Bulk Modulus (GPa) = 33.85713 43.76268 38.80991
# Shear Modulus (GPa) = 168.95775 32.81805 100.88790
#
# Velocity S-wave (km/s) = 8.33578 3.67378 6.44135
# Velocity P-wave (km/s) = 10.32332 5.99944 8.44288
#
# Compressibility (1/GPa) = 0.02953588
#
# Stress axis : x y z
#
# Youngs Moduli (GPa) = 74.90173 75.02401 105.39030
#
# Poissons Ratio (x) = 0.24727 0.29326
# Poissons Ratio (y) = 0.24687 -0.29111
# Poissons Ratio (z) = 0.20842 -0.20723
#
# Static dielectric constant tensor:
#      x y z
#    x 2.026090 0.000000 0.006320 
#    y 0.000000 1.961020 0.000000 
#    z 0.006320 0.000000 1.965550 
# 
# From -- ./inp_files/230449.got.cif
#   From: 2010.05.17/outbox.cif.g08.bks.cpg/sg15_116_cif.got.tgz:230449.got - 2010.06.03 18:47:42.
