data_PCOD9276032
_publ_section_title
;
Structure prediction by ZEFSAII (Michael W. Deem and Ramdas Pophale) SiO2 
 PCOD9276032
Probable space group: C 2/C
;
_chemical_formula_sum "Si O2"
_cell_formula_units_Z 48
_cell_length_a 16.561794
_cell_length_b 9.782348
_cell_length_c 19.742281
_cell_angle_alpha 90.000000
_cell_angle_beta 127.716690
_cell_angle_gamma 90.000000
_cell_volume 2530.167110
_symmetry_space_group_name_H-M "C 2/C"
_symmetry_group_IT_number 15
_symmetry_cell_setting 'monoclinic'
loop_
_space_group_symop_operation_xyz
x,y,z
-x,y,1/2-z
-x,-y,-z
x,-y,1/2+z
1/2+x,1/2+y,z
1/2-x,1/2+y,1/2-z
1/2-x,1/2-y,-z
1/2+x,1/2-y,1/2+z
loop_
_atom_site_type_symbol
_atom_site_label
_atom_site_fract_x
_atom_site_fract_y
_atom_site_fract_z
Si Si1 0.311242 0.641791 0.830337
Si Si2 0.272289 0.616124 0.466146
Si Si3 0.485476 0.552556 0.632682
Si Si4 0.702115 0.127125 0.286986
Si Si5 0.797871 0.670892 0.588225
Si Si6 0.000000 0.284739 0.750000
Si Si7 0.500000 0.320358 0.750000
O O1 0.425020 0.589218 0.873457
O O2 0.292018 0.763169 0.768615
O O3 0.234092 0.518470 0.775437
O O4 0.284694 0.679842 0.893307
O O5 0.250000 0.750000 0.500000
O O6 0.377284 0.542460 0.540872
O O7 0.274107 0.659788 0.388360
O O8 0.192240 0.489392 0.427716
O O9 0.466861 0.680300 0.673957
O O10 0.519159 0.423997 0.696323
O O11 0.590092 0.130788 0.262472
O O12 0.750000 0.750000 0.500000
O O13 0.902375 0.732767 0.674024
#
# Coordination Sequence:
#
# PCOD9276032 Si02
#       7
#     8   8   8   8   8   4   4
#     4  10  23  39  61  93 127 165 216 264 325 379
#     4  11  22  39  66  97 128 169 221 265 318 394
#     4  10  20  39  67  91 124 176 213 256 331 396
#     4  10  21  38  63  90 126 167 213 265 317 386
#     4  11  24  43  66  97 129 168 220 272 321 389
#     4   9  18  35  62  88 123 169 212 250 325 391
#     4  11  22  43  70  94 131 177 214 270 335 381
#
# _framework density 18.971079
#
# number of rings (size 3 to 8) (size 9 to 14) (size 15 to 20)
#    0.000    1.667    3.333    1.000    0.000    6.667 
#    3.000    0.000    0.000    3.000    0.000    0.000 
#    0.000    0.000    0.000    0.000    0.000    0.000 
#
# Total GULP energy -133758.706767 kJ/mol
# GULP energy per Si atom -5573.279449 kJ/mol
# Density = 1.892790 g / cm^3
# Si number density = 18.971079 Si / 1000 Ang^3
#
#
#
# Elastic Constant Matrix: (Units=GPa)
#
#
# Indices 1 2 3 4 5 6 
#
# 1 116.6605 60.5753 47.4662 0.0000 -8.1962 0.0000
# 2 60.5753 124.9685 59.1529 0.0000 -7.5013 0.0000
# 3 47.4662 59.1529 128.0746 0.0000 5.0711 0.0000
# 4 0.0000 0.0000 0.0000 37.0951 0.0000 2.2298
# 5 -8.1962 -7.5013 5.0711 0.0000 28.3821 0.0000
# 6 0.0000 0.0000 0.0000 2.2298 0.0000 25.8470
#
#
#
# Elastic Compliance Matrix: (Units=1/GPa)
#
#
# Indices 1 2 3 4 5 6 
#
# 1 0.012141 -0.004528 -0.002518 0.000000 0.002759 0.000000
# 2 -0.004528 0.012303 -0.004110 0.000000 0.002679 0.000000
# 3 -0.002518 -0.004110 0.010788 0.000000 -0.003741 0.000000
# 4 0.000000 0.000000 0.000000 0.027098 0.000000 -0.002338
# 5 0.002759 0.002679 -0.003741 0.000000 0.037407 0.000000
# 6 0.000000 0.000000 0.000000 -0.002338 0.000000 0.038891
#
#
# Mechanical properties :
#
#
# Convention : Reuss Voigt Hill
#
# Bulk Modulus (GPa) = 77.39826 78.23249 77.81538
# Shear Modulus (GPa) = 30.25792 31.76547 31.01170
#
# Velocity S-wave (km/s) = 3.99802 4.09640 4.04751
# Velocity P-wave (km/s) = 7.88662 7.98131 7.93411
#
# Compressibility (1/GPa) = 0.01292019
#
# Stress axis : x y z
#
# Youngs Moduli (GPa) = 82.36452 81.28019 92.69904
#
# Poissons Ratio (x) = 0.36802 0.23339
# Poissons Ratio (y) = 0.37293 0.38103
# Poissons Ratio (z) = 0.20737 0.33409
#
# Static dielectric constant tensor:
#      x y z
#    x 1.651300 0.000000 0.018110 
#    y 0.000000 1.692930 0.000000 
#    z 0.018110 0.000000 1.687330 
# 
# From -- ./inp_files/247670.got.cif
#   From: 2010.05.17/outbox.cif.g08.bks.cpg/sg15_124_cif.got.tgz:247670.got - 2010.06.03 18:47:42.
