data_PCOD9276777
_publ_section_title
;
Structure prediction by ZEFSAII (Michael W. Deem and Ramdas Pophale) SiO2 
 PCOD9276777
Probable space group: C 2/C
;
_chemical_formula_sum "Si O2"
_cell_formula_units_Z 44
_cell_length_a 20.300357
_cell_length_b 11.610987
_cell_length_c 10.625292
_cell_angle_alpha 90.000000
_cell_angle_beta 45.245113
_cell_angle_gamma 90.000000
_cell_volume 1778.478785
_symmetry_space_group_name_H-M "C 2/C"
_symmetry_group_IT_number 15
_symmetry_cell_setting 'monoclinic'
loop_
_space_group_symop_operation_xyz
x,y,z
-x,y,1/2-z
-x,-y,-z
x,-y,1/2+z
1/2+x,1/2+y,z
1/2-x,1/2+y,1/2-z
1/2-x,1/2-y,-z
1/2+x,1/2-y,1/2+z
loop_
_atom_site_type_symbol
_atom_site_label
_atom_site_fract_x
_atom_site_fract_y
_atom_site_fract_z
Si Si1 0.456171 0.766087 0.692193
Si Si2 0.108227 0.470134 0.866129
Si Si3 0.000000 0.847307 0.750000
Si Si4 0.856217 0.038839 0.937762
Si Si5 0.125021 0.279231 0.275817
Si Si6 0.753513 0.921641 0.839681
O O1 0.500000 0.834325 0.750000
O O2 0.408574 0.652352 0.813482
O O3 0.546986 0.742857 0.484952
O O4 0.385372 0.847682 0.713277
O O5 0.148710 0.587278 0.753362
O O6 0.147738 0.454198 0.953559
O O7 0.000000 0.500000 0.000000
O O8 0.932087 0.763460 0.766553
O O9 0.926239 0.941772 0.899937
O O10 0.804317 0.992405 0.881603
O O11 0.793403 0.063127 0.143564
O O12 0.218993 0.208674 0.167592
#
# Coordination Sequence:
#
# PCOD9276777 Si02
#       6
#     8   8   4   8   8   8
#     4  11  21  40  70  98 132 178 224 280 343 411
#     4  10  26  44  64  99 138 183 225 287 348 407
#     4  10  20  40  64  98 136 180 206 284 340 408
#     4  11  22  41  72 105 138 174 236 282 344 410
#     4  10  22  43  65  97 137 176 229 273 349 406
#     4  11  24  43  69 102 134 182 231 290 336 409
#
# _framework density 24.740243
#
# number of rings (size 3 to 8) (size 9 to 14) (size 15 to 20)
#    0.000    1.455    2.727    1.091    3.818    6.545 
#    3.273    1.818    0.000    0.000    0.000    0.000 
#    0.000    0.000    0.000    0.000    0.000    0.000 
#
# Total GULP energy -122786.441991 kJ/mol
# GULP energy per Si atom -5581.201909 kJ/mol
# Density = 2.468393 g / cm^3
# Si number density = 24.740243 Si / 1000 Ang^3
#
#
#
# Elastic Constant Matrix: (Units=GPa)
#
#
# Indices 1 2 3 4 5 6 
#
# 1 145.3829 63.1485 7.9314 0.0000 -14.9867 0.0000
# 2 63.1485 152.4351 30.9528 0.0000 1.3804 0.0000
# 3 7.9314 30.9528 91.9277 0.0000 4.6190 0.0000
# 4 0.0000 0.0000 0.0000 19.9473 0.0000 -2.7657
# 5 -14.9867 1.3804 4.6190 0.0000 25.0604 0.0000
# 6 0.0000 0.0000 0.0000 -2.7657 0.0000 38.1398
#
#
#
# Elastic Compliance Matrix: (Units=1/GPa)
#
#
# Indices 1 2 3 4 5 6 
#
# 1 0.009132 -0.003882 0.000236 0.000000 0.005632 0.000000
# 2 -0.003882 0.008692 -0.002474 0.000000 -0.002344 0.000000
# 3 0.000236 -0.002474 0.011786 0.000000 -0.001895 0.000000
# 4 0.000000 0.000000 0.000000 0.050641 0.000000 0.003672
# 5 0.005632 -0.002344 -0.001895 0.000000 0.043750 0.000000
# 6 0.000000 0.000000 0.000000 0.003672 0.000000 0.026486
#
#
# Mechanical properties :
#
#
# Convention : Reuss Voigt Hill
#
# Bulk Modulus (GPa) = 57.56862 65.97900 61.77381
# Shear Modulus (GPa) = 29.67067 35.81038 32.74052
#
# Velocity S-wave (km/s) = 3.46683 3.80867 3.64176
# Velocity P-wave (km/s) = 6.27256 6.78733 6.53501
#
# Compressibility (1/GPa) = 0.01737058
#
# Stress axis : x y z
#
# Youngs Moduli (GPa) = 109.50165 115.04856 84.84702
#
# Poissons Ratio (x) = 0.44664 -0.02005
# Poissons Ratio (y) = 0.42510 0.20990
# Poissons Ratio (z) = -0.02587 0.28462
#
# Static dielectric constant tensor:
#      x y z
#    x 2.078450 0.000000 0.033840 
#    y 0.000000 1.938050 0.000000 
#    z 0.033840 0.000000 2.304950 
# 
# From -- ./inp_files/104087.got.cif
#   From: 2010.05.17/outbox.cif.g08.bks.cpg/sg15_53_cif.got.tgz:104087.got - 2010.06.03 18:47:42.
