data_PCOD9276640
_publ_section_title
;
Structure prediction by ZEFSAII (Michael W. Deem and Ramdas Pophale) SiO2 
 PCOD9276640
Probable space group: C 2/C
;
_chemical_formula_sum "Si O2"
_cell_formula_units_Z 64
_cell_length_a 20.943550
_cell_length_b 29.932258
_cell_length_c 14.756122
_cell_angle_alpha 90.000000
_cell_angle_beta 160.330602
_cell_angle_gamma 90.000000
_cell_volume 3113.624790
_symmetry_space_group_name_H-M "C 2/C"
_symmetry_group_IT_number 15
_symmetry_cell_setting 'monoclinic'
loop_
_space_group_symop_operation_xyz
x,y,z
-x,y,1/2-z
-x,-y,-z
x,-y,1/2+z
1/2+x,1/2+y,z
1/2-x,1/2+y,1/2-z
1/2-x,1/2-y,-z
1/2+x,1/2-y,1/2+z
loop_
_atom_site_type_symbol
_atom_site_label
_atom_site_fract_x
_atom_site_fract_y
_atom_site_fract_z
Si Si1 0.918359 0.394902 0.411911
Si Si2 0.116412 0.314145 0.763138
Si Si3 0.983864 0.121494 0.334373
Si Si4 0.591761 0.376085 0.273000
Si Si5 0.641834 0.046034 0.355080
Si Si6 0.651275 0.942080 0.370924
Si Si7 0.769494 0.251425 0.335687
Si Si8 0.907622 0.185644 0.381684
O O1 0.911523 0.413730 0.301067
O O2 0.022715 0.347665 0.564889
O O3 0.037475 0.429144 0.632703
O O4 0.700812 0.387686 0.154797
O O5 0.267679 0.282520 0.916852
O O6 0.952997 0.282143 0.579434
O O7 0.220943 0.344756 0.975623
O O8 0.000000 0.133476 0.250000
O O9 0.876019 0.159946 0.245878
O O10 0.854898 0.077700 0.170771
O O11 0.500000 0.373077 0.250000
O O12 0.668898 0.426285 0.366272
O O13 0.456973 0.354292 0.018283
O O14 0.500000 0.048667 0.250000
O O15 0.673362 0.994162 0.376276
O O16 0.500000 0.937778 0.250000
O O17 0.590569 0.283476 0.107131
O O18 0.765692 0.219934 0.241155
#
# Coordination Sequence:
#
# PCOD9276640 Si02
#       8
#     8   8   8   8   8   8   8   8
#     4  10  20  40  64  85 123 159 192 243 301 347
#     4  10  21  37  56  91 121 160 196 242 298 355
#     4  10  22  41  64  86 117 160 199 244 300 349
#     4  11  23  36  58  90 127 160 193 237 299 365
#     4  10  22  40  61  93 121 153 197 240 296 361
#     4  10  23  40  64  90 118 154 202 245 291 355
#     4  10  22  36  62  84 124 155 207 240 295 359
#     4  11  22  40  58  89 121 159 197 251 293 349
#
# _framework density 20.554821
#
# number of rings (size 3 to 8) (size 9 to 14) (size 15 to 20)
#    0.000    1.750    2.500    1.125    3.500    4.500 
#    0.000    6.250    0.000    0.000    0.000    0.000 
#    0.000    0.000    0.000    0.000    0.000    0.000 
#
# Total GULP energy -178745.830848 kJ/mol
# GULP energy per Si atom -5585.807214 kJ/mol
# Density = 2.050804 g / cm^3
# Si number density = 20.554821 Si / 1000 Ang^3
#
#
#
# Elastic Constant Matrix: (Units=GPa)
#
#
# Indices 1 2 3 4 5 6 
#
# 1 72.0231 36.5288 3.9600 -0.0001 7.4539 0.0000
# 2 36.5288 112.9323 25.1261 0.0001 -2.6200 0.0001
# 3 3.9600 25.1261 37.5552 -0.0005 2.0503 0.0001
# 4 -0.0001 0.0001 -0.0005 7.7823 -0.0003 5.4274
# 5 7.4539 -2.6200 2.0503 -0.0003 17.7307 0.0000
# 6 0.0000 0.0001 0.0001 5.4274 0.0000 31.1239
#
#
#
# Elastic Compliance Matrix: (Units=1/GPa)
#
#
# Indices 1 2 3 4 5 6 
#
# 1 0.018056 -0.006736 0.003091 0.000000 -0.008943 0.000000
# 2 -0.006736 0.013015 -0.008309 -0.000001 0.005716 0.000000
# 3 0.003091 -0.008309 0.032202 0.000002 -0.006251 0.000000
# 4 0.000000 -0.000001 0.000002 0.146287 0.000002 -0.025510
# 5 -0.008943 0.005716 -0.006251 0.000002 0.061727 0.000000
# 6 0.000000 0.000000 0.000000 -0.025510 0.000000 0.036578
#
#
# Mechanical properties :
#
#
# Convention : Reuss Voigt Hill
#
# Bulk Modulus (GPa) = 25.40337 39.30450 32.35394
# Shear Modulus (GPa) = 14.49717 21.78708 18.14213
#
# Velocity S-wave (km/s) = 2.65862 3.25922 2.97412
# Velocity P-wave (km/s) = 4.67012 5.77292 5.25055
#
# Compressibility (1/GPa) = 0.03936485
#
# Stress axis : x y z
#
# Youngs Moduli (GPa) = 55.38254 76.83527 31.05383
#
# Poissons Ratio (x) = 0.51753 -0.09598
# Poissons Ratio (y) = 0.37303 0.25804
# Poissons Ratio (z) = -0.17117 0.63845
#
# Static dielectric constant tensor:
#      x y z
#    x 1.764370 0.000000 0.004090 
#    y 0.000000 1.725800 0.000000 
#    z 0.004090 0.000000 1.746800 
# 
# From -- ./inp_files/170066.got.cif
#   From: 2010.05.17/outbox.cif.g08.bks.cpg/sg15_86_cif.got.tgz:170066.got - 2010.06.03 18:47:42.
