data_PCOD9276589
_publ_section_title
;
Structure prediction by ZEFSAII (Michael W. Deem and Ramdas Pophale) SiO2 
 PCOD9276589
Probable space group: C 2/C
;
_chemical_formula_sum "Si O2"
_cell_formula_units_Z 64
_cell_length_a 25.313056
_cell_length_b 20.266937
_cell_length_c 9.129607
_cell_angle_alpha 90.000000
_cell_angle_beta 42.205950
_cell_angle_gamma 90.000000
_cell_volume 3146.466948
_symmetry_space_group_name_H-M "C 2/C"
_symmetry_group_IT_number 15
_symmetry_cell_setting 'monoclinic'
loop_
_space_group_symop_operation_xyz
x,y,z
-x,y,1/2-z
-x,-y,-z
x,-y,1/2+z
1/2+x,1/2+y,z
1/2-x,1/2+y,1/2-z
1/2-x,1/2-y,-z
1/2+x,1/2-y,1/2+z
loop_
_atom_site_type_symbol
_atom_site_label
_atom_site_fract_x
_atom_site_fract_y
_atom_site_fract_z
Si Si1 0.095701 0.607567 0.922669
Si Si2 0.592695 0.514310 0.322228
Si Si3 0.288771 0.432179 0.732236
Si Si4 0.810388 0.519046 0.329910
Si Si5 0.790482 0.692911 0.008816
Si Si6 0.906175 0.096421 0.470777
Si Si7 0.910995 0.750107 0.994734
Si Si8 0.921721 0.362644 0.708640
O O1 0.128165 0.533006 0.868108
O O2 0.159042 0.648337 0.703659
O O3 0.089601 0.640823 0.093915
O O4 0.012066 0.611816 0.011303
O O5 0.500000 0.500000 0.500000
O O6 0.621221 0.556688 0.404420
O O7 0.621492 0.556610 0.120447
O O8 0.619228 0.442924 0.331512
O O9 0.254657 0.455196 0.649025
O O10 0.236132 0.477140 0.951786
O O11 0.271707 0.355770 0.790411
O O12 0.860982 0.581600 0.278631
O O13 0.850283 0.717507 0.008119
O O14 0.750000 0.750000 0.000000
O O15 0.886798 0.172667 0.540286
O O16 0.000000 0.095431 0.250000
O O17 0.000000 0.746486 0.750000
O O18 0.910640 0.705845 0.143364
#
# Coordination Sequence:
#
# PCOD9276589 Si02
#       8
#     8   8   8   8   8   8   8   8
#     4  10  23  40  62  93 128 171 216 261 311 380
#     4  10  20  40  63  92 120 157 215 266 316 367
#     4  11  22  36  61  89 126 167 209 263 321 373
#     4  11  21  38  58  94 130 165 209 260 317 373
#     4  11  23  40  62  91 129 173 211 261 320 390
#     4   9  20  37  64  90 119 155 203 265 312 367
#     4  11  21  40  65  94 128 170 214 252 319 393
#     4  11  21  40  64  92 134 167 212 261 314 380
#
# _framework density 20.340273
#
# number of rings (size 3 to 8) (size 9 to 14) (size 15 to 20)
#    0.000    1.500    3.750    1.875    0.000    1.000 
#    2.250    4.375    5.500    0.000    0.000    0.000 
#    0.000    0.000    0.000    0.000    0.000    0.000 
#
# Total GULP energy -178310.398226 kJ/mol
# GULP energy per Si atom -5572.199945 kJ/mol
# Density = 2.029398 g / cm^3
# Si number density = 20.340273 Si / 1000 Ang^3
#
#
#
# Elastic Constant Matrix: (Units=GPa)
#
#
# Indices 1 2 3 4 5 6 
#
# 1 150.5064 62.0992 25.6166 0.0000 0.5840 0.0000
# 2 62.0992 148.8785 30.4674 0.0000 11.2359 0.0000
# 3 25.6166 30.4674 43.4437 0.0000 7.3453 0.0000
# 4 0.0000 0.0000 0.0000 31.8789 0.0000 1.1544
# 5 0.5840 11.2359 7.3453 0.0000 33.2032 0.0000
# 6 0.0000 0.0000 0.0000 1.1544 0.0000 34.7936
#
#
#
# Elastic Compliance Matrix: (Units=1/GPa)
#
#
# Indices 1 2 3 4 5 6 
#
# 1 0.008400 -0.002982 -0.003125 0.000000 0.001552 0.000000
# 2 -0.002982 0.008973 -0.004187 0.000000 -0.002058 0.000000
# 3 -0.003125 -0.004187 0.028618 0.000000 -0.004859 0.000000
# 4 0.000000 0.000000 0.000000 0.031406 0.000000 -0.001042
# 5 0.001552 -0.002058 -0.004859 0.000000 0.031862 0.000000
# 6 0.000000 0.000000 0.000000 -0.001042 0.000000 0.028775
#
#
# Mechanical properties :
#
#
# Convention : Reuss Voigt Hill
#
# Bulk Modulus (GPa) = 39.36130 64.35500 51.85815
# Shear Modulus (GPa) = 29.92416 34.95149 32.43782
#
# Velocity S-wave (km/s) = 3.83975 4.14978 3.99778
# Velocity P-wave (km/s) = 6.24914 7.39384 6.84546
#
# Compressibility (1/GPa) = 0.02540566
#
# Stress axis : x y z
#
# Youngs Moduli (GPa) = 119.04424 111.45046 34.94246
#
# Poissons Ratio (x) = 0.33230 0.10918
# Poissons Ratio (y) = 0.35494 0.14629
# Poissons Ratio (z) = 0.37198 0.46659
#
# Static dielectric constant tensor:
#      x y z
#    x 1.741780 0.000000 -0.014480 
#    y 0.000000 1.733370 0.000000 
#    z -0.014480 0.000000 1.797940 
# 
# From -- ./inp_files/63395.got.cif
#   From: 2010.05.17/outbox.cif.g08.bks.cpg/sg15_32_cif.got.tgz:63395.got - 2010.06.03 18:47:42.
