data_PCOD9276985
_publ_section_title
;
Structure prediction by ZEFSAII (Michael W. Deem and Ramdas Pophale) SiO2 
 PCOD9276985
Probable space group: C 2/C
;
_chemical_formula_sum "Si O2"
_cell_formula_units_Z 44
_cell_length_a 13.226547
_cell_length_b 7.611584
_cell_length_c 18.392808
_cell_angle_alpha 90.000000
_cell_angle_beta 87.643263
_cell_angle_gamma 90.000000
_cell_volume 1850.129229
_symmetry_space_group_name_H-M "C 2/C"
_symmetry_group_IT_number 15
_symmetry_cell_setting 'monoclinic'
loop_
_space_group_symop_operation_xyz
x,y,z
-x,y,1/2-z
-x,-y,-z
x,-y,1/2+z
1/2+x,1/2+y,z
1/2-x,1/2+y,1/2-z
1/2-x,1/2-y,-z
1/2+x,1/2-y,1/2+z
loop_
_atom_site_type_symbol
_atom_site_label
_atom_site_fract_x
_atom_site_fract_y
_atom_site_fract_z
Si Si1 0.667681 0.607041 0.973941
Si Si2 0.656975 0.087758 0.299197
Si Si3 0.515503 0.107583 0.425951
Si Si4 0.165830 0.481710 0.137231
Si Si5 0.000000 0.117025 0.750000
Si Si6 0.374934 0.593721 0.369885
O O1 0.635637 0.512502 0.049102
O O2 0.750000 0.750000 0.000000
O O3 0.575438 0.715723 0.943675
O O4 0.728678 0.507536 0.908967
O O5 0.586642 0.009504 0.364642
O O6 0.591901 0.259886 0.276928
O O7 0.765990 0.103295 0.332902
O O8 0.673169 0.987046 0.223467
O O9 0.591489 0.868248 0.610357
O O10 0.500000 0.000000 0.500000
O O11 0.107018 0.301673 0.118984
O O12 0.045011 0.996699 0.684747
#
# Coordination Sequence:
#
# PCOD9276985 Si02
#       6
#     8   8   8   8   4   8
#     4  10  20  40  66  98 133 174 227 279 329 405
#     4  12  24  44  70  96 144 178 225 286 339 400
#     4  12  20  38  74  99 131 184 229 276 343 403
#     4  11  22  40  72  98 130 188 225 274 344 403
#     4  12  28  44  64 108 138 170 230 286 334 408
#     4  11  24  44  71  98 137 181 225 280 342 402
#
# _framework density 23.782125000000001
#
# number of rings (size 3 to 8) (size 9 to 14) (size 15 to 20)
#    0.000    0.727    9.091    1.091    2.545    0.000 
#    0.000    1.818    4.000    0.000    0.000    0.000 
#    0.000    0.000    0.000    0.000    0.000    0.000 
#
# Total GULP energy -122987.475396 kJ/mol
# GULP energy per Si atom -5590.339791 kJ/mol
# Density = 2.372800 g / cm^3
# Si number density = 23.782125 Si / 1000 Ang^3
#
#
#
# Elastic Constant Matrix: (Units=GPa)
#
#
# Indices 1 2 3 4 5 6 
#
# 1 136.8235 36.0850 69.0557 0.0000 -14.1733 0.0000
# 2 36.0850 43.1677 37.7361 0.0000 -23.1055 0.0000
# 3 69.0557 37.7361 252.1853 0.0000 -40.1634 0.0000
# 4 0.0000 0.0000 0.0000 39.9785 0.0000 -3.0157
# 5 -14.1733 -23.1055 -40.1634 0.0000 56.4172 0.0000
# 6 0.0000 0.0000 0.0000 -3.0157 0.0000 34.6239
#
#
#
# Elastic Compliance Matrix: (Units=1/GPa)
#
#
# Indices 1 2 3 4 5 6 
#
# 1 0.010152 -0.007905 -0.001925 0.000000 -0.002057 0.000000
# 2 -0.007905 0.037722 -0.001507 0.000000 0.012391 0.000000
# 3 -0.001925 -0.001507 0.005123 0.000000 0.002547 0.000000
# 4 0.000000 0.000000 0.000000 0.025179 0.000000 0.002193
# 5 -0.002057 0.012391 0.002547 0.000000 0.024096 0.000000
# 6 0.000000 0.000000 0.000000 0.002193 0.000000 0.029073
#
#
# Mechanical properties :
#
#
# Convention : Reuss Voigt Hill
#
# Bulk Modulus (GPa) = 32.97569 79.77003 56.37286
# Shear Modulus (GPa) = 30.46446 45.49056 37.97751
#
# Velocity S-wave (km/s) = 3.58296 4.37831 4.00045
# Velocity P-wave (km/s) = 5.56890 7.69248 6.71517
#
# Compressibility (1/GPa) = 0.03032537
#
# Stress axis : x y z
#
# Youngs Moduli (GPa) = 98.50577 26.50943 195.18195
#
# Poissons Ratio (x) = 0.20955 0.37565
# Poissons Ratio (y) = 0.77866 0.29410
# Poissons Ratio (z) = 0.18959 0.03994
#
# Static dielectric constant tensor:
#      x y z
#    x 1.925450 0.000000 0.015700 
#    y 0.000000 1.984460 0.000000 
#    z 0.015700 0.000000 1.960990 
# 
# From -- ./inp_files/202615.got.cif
#   From: 2010.05.17/outbox.cif.g08.bks.cpg/sg15_102_cif.got.tgz:202615.got - 2010.06.03 18:47:42.
