data_PCOD9276928
_publ_section_title
;
Structure prediction by ZEFSAII (Michael W. Deem and Ramdas Pophale) SiO2 
 PCOD9276928
Probable space group: C 2/C
;
_chemical_formula_sum "Si O2"
_cell_formula_units_Z 48
_cell_length_a 9.395700
_cell_length_b 28.634769
_cell_length_c 15.999961
_cell_angle_alpha 90.000000
_cell_angle_beta 34.596726
_cell_angle_gamma 90.000000
_cell_volume 2444.188070
_symmetry_space_group_name_H-M "C 2/C"
_symmetry_group_IT_number 15
_symmetry_cell_setting 'monoclinic'
loop_
_space_group_symop_operation_xyz
x,y,z
-x,y,1/2-z
-x,-y,-z
x,-y,1/2+z
1/2+x,1/2+y,z
1/2-x,1/2+y,1/2-z
1/2-x,1/2-y,-z
1/2+x,1/2-y,1/2+z
loop_
_atom_site_type_symbol
_atom_site_label
_atom_site_fract_x
_atom_site_fract_y
_atom_site_fract_z
Si Si1 0.262880 0.014745 0.169359
Si Si2 0.095690 0.873029 0.971007
Si Si3 0.280079 0.706246 0.581987
Si Si4 0.211518 0.035140 0.861601
Si Si5 0.721155 0.187554 0.422079
Si Si6 0.429930 0.883283 0.646542
O O1 0.336439 0.064690 0.172193
O O2 0.000000 0.020799 0.250000
O O3 0.218733 0.975368 0.260123
O O4 0.500000 0.000000 0.000000
O O5 0.250519 0.867046 0.809681
O O6 0.294009 0.884931 0.947236
O O7 0.953938 0.824951 0.055792
O O8 0.890414 0.914009 0.065221
O O9 0.382608 0.759199 0.528559
O O10 0.255127 0.679931 0.504640
O O11 0.000000 0.709404 0.750000
O O12 0.500000 0.026988 0.750000
O O13 0.000000 0.000000 0.000000
O O14 0.584953 0.149967 0.428180
O O15 0.000000 0.188364 0.250000
#
# Coordination Sequence:
#
# PCOD9276928 Si02
#       6
#     8   8   8   8   8   8
#     4  12  26  42  64  95 129 167 215 268 322 377
#     4  11  23  40  64  95 127 170 217 264 322 387
#     4  10  22  39  64  96 125 163 211 269 324 382
#     4  12  24  43  67  93 130 172 215 267 320 385
#     4  10  20  40  66  91 126 166 216 264 319 386
#     4  11  23  40  66  92 128 172 216 262 323 391
#
# _framework density 19.638424000000001
#
# number of rings (size 3 to 8) (size 9 to 14) (size 15 to 20)
#    0.000    1.000    3.333    4.000    0.000    2.000 
#    0.000    2.500    0.000    0.000    0.000    0.000 
#    0.000    0.000    0.000    0.000    0.000    0.000 
#
# Total GULP energy -133915.564126 kJ/mol
# GULP energy per Si atom -5579.815172 kJ/mol
# Density = 1.959373 g / cm^3
# Si number density = 19.638424 Si / 1000 Ang^3
#
#
#
# Elastic Constant Matrix: (Units=GPa)
#
#
# Indices 1 2 3 4 5 6 
#
# 1 91.1799 15.7888 17.1010 0.0000 -18.8433 0.0000
# 2 15.7888 58.8267 -5.5493 0.0000 -13.8188 0.0000
# 3 17.1010 -5.5493 81.9323 0.0000 -5.8233 0.0000
# 4 0.0000 0.0000 0.0000 16.5303 0.0000 22.6323
# 5 -18.8433 -13.8188 -5.8233 0.0000 43.2744 0.0000
# 6 0.0000 0.0000 0.0000 22.6323 0.0000 9.1840
#
#
#
# Elastic Compliance Matrix: (Units=1/GPa)
#
#
# Indices 1 2 3 4 5 6 
#
# 1 0.012809 -0.002646 -0.002541 0.000000 0.004391 0.000000
# 2 -0.002646 0.019156 0.002224 0.000000 0.005264 0.000000
# 3 -0.002541 0.002224 0.012982 0.000000 0.001351 0.000000
# 4 0.000000 0.000000 0.000000 -0.025482 0.000000 0.062796
# 5 0.004391 0.005264 0.001351 0.000000 0.026883 0.000000
# 6 0.000000 0.000000 0.000000 0.062796 0.000000 -0.045865
#
#
# Mechanical properties :
#
#
# Convention : Reuss Voigt Hill
#
# Bulk Modulus (GPa) = 25.62727 31.84666 28.73697
# Shear Modulus (GPa) = 257.52038 27.43763 142.47900
#
# Velocity S-wave (km/s) = 11.46366 3.74189 8.52694
# Velocity P-wave (km/s) = 13.72219 5.90937 10.56455
#
# Compressibility (1/GPa) = 0.03902093
#
# Stress axis : x y z
#
# Youngs Moduli (GPa) = 78.06708 52.20399 77.02889
#
# Poissons Ratio (x) = 0.13815 0.19571
# Poissons Ratio (y) = 0.20659 -0.17130
# Poissons Ratio (z) = 0.19835 -0.11609
#
# Static dielectric constant tensor:
#      x y z
#    x 1.695610 0.000000 0.004150 
#    y 0.000000 1.690300 0.000000 
#    z 0.004150 0.000000 1.656370 
# 
# From -- ./inp_files/115066.got.cif
#   From: 2010.05.17/outbox.cif.g08.bks.cpg/sg15_58_cif.got.tgz:115066.got - 2010.06.03 18:47:42.
