data_PCOD9276667
_publ_section_title
;
Structure prediction by ZEFSAII (Michael W. Deem and Ramdas Pophale) SiO2 
 PCOD9276667
Probable space group: C 2/C
;
_chemical_formula_sum "Si O2"
_cell_formula_units_Z 60
_cell_length_a 14.303564
_cell_length_b 8.764588
_cell_length_c 20.026042
_cell_angle_alpha 90.000000
_cell_angle_beta 73.763633
_cell_angle_gamma 90.000000
_cell_volume 2410.431447
_symmetry_space_group_name_H-M "C 2/C"
_symmetry_group_IT_number 15
_symmetry_cell_setting 'monoclinic'
loop_
_space_group_symop_operation_xyz
x,y,z
-x,y,1/2-z
-x,-y,-z
x,-y,1/2+z
1/2+x,1/2+y,z
1/2-x,1/2+y,1/2-z
1/2-x,1/2-y,-z
1/2+x,1/2-y,1/2+z
loop_
_atom_site_type_symbol
_atom_site_label
_atom_site_fract_x
_atom_site_fract_y
_atom_site_fract_z
Si Si1 0.500000 0.434112 0.250000
Si Si2 0.786320 0.149252 0.773253
Si Si3 0.542868 0.864147 0.945456
Si Si4 0.777248 0.341070 0.892247
Si Si5 0.973227 0.516653 0.833273
Si Si6 0.261267 0.167599 0.150654
Si Si7 0.450061 0.653122 0.372099
Si Si8 0.614876 0.609680 0.527424
O O1 0.599722 0.342470 0.227678
O O2 0.510366 0.543094 0.311564
O O3 0.738449 0.275317 0.830529
O O4 0.778237 0.193815 0.698214
O O5 0.742626 0.987857 0.804317
O O6 0.658819 0.842736 0.924345
O O7 0.473934 0.721091 0.971826
O O8 0.530551 0.898639 0.868441
O O9 0.500000 0.000000 0.000000
O O10 0.862006 0.463429 0.864429
O O11 0.824117 0.199025 0.925931
O O12 0.689396 0.406647 0.952433
O O13 0.993579 0.679347 0.864048
O O14 0.000000 0.521974 0.750000
O O15 0.154000 0.178396 0.142472
O O16 0.425622 0.550996 0.440174
#
# Coordination Sequence:
#
# PCOD9276667 Si02
#       8
#     4   8   8   8   8   8   8   8
#     4  10  20  40  64  88 130 180 220 266 348 408
#     4  11  23  39  61  95 130 173 219 280 336 400
#     4  11  25  45  70  99 136 174 227 283 337 402
#     4  10  21  38  67  90 124 172 229 260 323 406
#     4  11  25  41  71 100 130 176 232 277 329 407
#     4  11  25  39  64  96 137 168 221 284 339 385
#     4  11  23  42  66  96 131 173 224 276 336 404
#     4  10  21  43  67  92 127 184 220 261 335 420
#
# _framework density 24.891808000000001
#
# number of rings (size 3 to 8) (size 9 to 14) (size 15 to 20)
#    0.000    1.333    3.333    2.400   10.267    0.533 
#    0.000    0.667    0.000    0.000    0.000    0.000 
#    0.000    0.000    0.000    0.000    0.000    0.000 
#
# Total GULP energy -168109.518092 kJ/mol
# GULP energy per Si atom -5603.650603 kJ/mol
# Density = 2.483515 g / cm^3
# Si number density = 24.891808 Si / 1000 Ang^3
#
#
#
# Elastic Constant Matrix: (Units=GPa)
#
#
# Indices 1 2 3 4 5 6 
#
# 1 38.6065 14.3147 32.3364 0.0000 -9.4715 0.0000
# 2 14.3147 87.7176 35.5182 0.0000 -0.7849 0.0000
# 3 32.3364 35.5182 134.0391 0.0000 -29.6643 0.0000
# 4 0.0000 0.0000 0.0000 30.2925 0.0000 0.6324
# 5 -9.4715 -0.7849 -29.6643 0.0000 35.5257 0.0000
# 6 0.0000 0.0000 0.0000 0.6324 0.0000 11.3648
#
#
#
# Elastic Compliance Matrix: (Units=1/GPa)
#
#
# Indices 1 2 3 4 5 6 
#
# 1 0.033222 -0.002738 -0.006553 0.000000 0.003325 0.000000
# 2 -0.002738 0.013284 -0.003626 0.000000 -0.003465 0.000000
# 3 -0.006553 -0.003626 0.011774 0.000000 0.008004 0.000000
# 4 0.000000 0.000000 0.000000 0.033050 0.000000 -0.001839
# 5 0.003325 -0.003465 0.008004 0.000000 0.035642 0.000000
# 6 0.000000 0.000000 0.000000 -0.001839 0.000000 0.088093
#
#
# Mechanical properties :
#
#
# Convention : Reuss Voigt Hill
#
# Bulk Modulus (GPa) = 30.82172 47.18911 39.00542
# Shear Modulus (GPa) = 19.86363 27.31618 23.58990
#
# Velocity S-wave (km/s) = 2.82795 3.31629 3.08181
# Velocity P-wave (km/s) = 4.80336 5.80194 5.32611
#
# Compressibility (1/GPa) = 0.03244465
#
# Stress axis : x y z
#
# Youngs Moduli (GPa) = 30.10018 75.27607 84.93481
#
# Poissons Ratio (x) = 0.20613 0.55661
# Poissons Ratio (y) = 0.08242 0.30800
# Poissons Ratio (z) = 0.19726 0.27297
#
# Static dielectric constant tensor:
#      x y z
#    x 1.977970 0.000000 0.031290 
#    y 0.000000 1.995920 0.000000 
#    z 0.031290 0.000000 1.952720 
# 
# From -- ./inp_files/276549.got.cif
#   From: 2010.05.17/outbox.cif.g08.bks.cpg/sg15_139_cif.got.tgz:276549.got - 2010.06.03 18:47:42.
