data_PCOD9276601
_publ_section_title
;
Structure prediction by ZEFSAII (Michael W. Deem and Ramdas Pophale) SiO2 
 PCOD9276601
Probable space group: C 2/C
;
_chemical_formula_sum "Si O2"
_cell_formula_units_Z 32
_cell_length_a 10.534706
_cell_length_b 11.401092
_cell_length_c 14.689760
_cell_angle_alpha 90.000000
_cell_angle_beta 134.757191
_cell_angle_gamma 90.000000
_cell_volume 1252.856283
_symmetry_space_group_name_H-M "C 2/C"
_symmetry_group_IT_number 15
_symmetry_cell_setting 'monoclinic'
loop_
_space_group_symop_operation_xyz
x,y,z
-x,y,1/2-z
-x,-y,-z
x,-y,1/2+z
1/2+x,1/2+y,z
1/2-x,1/2+y,1/2-z
1/2-x,1/2-y,-z
1/2+x,1/2-y,1/2+z
loop_
_atom_site_type_symbol
_atom_site_label
_atom_site_fract_x
_atom_site_fract_y
_atom_site_fract_z
Si Si1 0.383632 0.984870 0.080317
Si Si2 0.238230 0.054330 0.807220
Si Si3 0.734847 0.217658 0.387415
Si Si4 0.974892 0.100279 0.062503
O O1 0.589635 0.948762 0.172615
O O2 0.345131 0.088534 0.133933
O O3 0.234653 0.886600 0.026390
O O4 0.317527 0.028409 0.947247
O O5 0.152076 0.184296 0.777247
O O6 0.095367 0.955944 0.704348
O O7 0.750000 0.250000 0.500000
O O8 0.927468 0.207637 0.435778
O O9 0.000000 0.000000 0.000000
#
# Coordination Sequence:
#
# PCOD9276601 Si02
#       4
#     8   8   8   8
#     4   9  20  40  64  90 130 164 216 272 319 387
#     4  10  20  40  63  93 128 167 212 273 322 383
#     4   9  20  40  63  95 121 174 217 262 331 388
#     4  10  21  39  60  94 132 164 215 269 320 393
#
# _framework density 25.541636
#
# number of rings (size 3 to 8) (size 9 to 14) (size 15 to 20)
#    0.000    2.500    0.000    0.750    0.000    5.000 
#   45.000    0.000   11.000    0.000    0.000    0.000 
#    0.000    0.000    0.000    0.000    0.000    0.000 
#
# Total GULP energy -89128.204428 kJ/mol
# GULP energy per Si atom -5570.512777 kJ/mol
# Density = 2.548350 g / cm^3
# Si number density = 25.541636 Si / 1000 Ang^3
#
#
#
# Elastic Constant Matrix: (Units=GPa)
#
#
# Indices 1 2 3 4 5 6 
#
# 1 204.5051 40.5206 40.6268 0.0000 34.3827 0.0000
# 2 40.5206 65.1570 15.3862 0.0000 -11.5404 0.0000
# 3 40.6268 15.3862 109.3747 0.0000 1.3527 0.0000
# 4 0.0000 0.0000 0.0000 13.1880 0.0000 -29.6136
# 5 34.3827 -11.5404 1.3527 0.0000 47.0567 0.0000
# 6 0.0000 0.0000 0.0000 -29.6136 0.0000 34.8460
#
#
#
# Elastic Compliance Matrix: (Units=1/GPa)
#
#
# Indices 1 2 3 4 5 6 
#
# 1 0.007470 -0.005379 -0.001935 0.000000 -0.006722 0.000000
# 2 -0.005379 0.020522 -0.001000 0.000000 0.008992 0.000000
# 3 -0.001935 -0.001000 0.009991 0.000000 0.000881 0.000000
# 4 0.000000 0.000000 0.000000 -0.083481 0.000000 -0.070945
# 5 -0.006722 0.008992 0.000881 0.000000 0.028342 0.000000
# 6 0.000000 0.000000 0.000000 -0.070945 0.000000 -0.031594
#
#
# Mechanical properties :
#
#
# Convention : Reuss Voigt Hill
#
# Bulk Modulus (GPa) = 46.82772 63.56712 55.19742
# Shear Modulus (GPa) = -199.97850 37.85169 -81.06341
#
# Velocity S-wave (km/s) = -8.85805 3.85380 -5.63974
# Velocity P-wave (km/s) = 9.28689 6.68910 4.55535
#
# Compressibility (1/GPa) = 0.02135487
#
# Stress axis : x y z
#
# Youngs Moduli (GPa) = 133.86486 48.72900 100.08641
#
# Poissons Ratio (x) = 0.26213 0.19366
# Poissons Ratio (y) = 0.72010 0.10008
# Poissons Ratio (z) = 0.25902 0.04873
#
# Static dielectric constant tensor:
#      x y z
#    x 2.123910 0.000000 0.136510 
#    y 0.000000 2.403910 0.000000 
#    z 0.136510 0.000000 2.115070 
# 
# From -- ./inp_files/195790.got.cif
#   From: 2010.05.17/outbox.cif.g08.bks.cpg/sg15_98_cif.got.tgz:195790.got - 2010.06.03 18:47:42.
