data_PCOD9276213
_publ_section_title
;
Structure prediction by ZEFSAII (Michael W. Deem and Ramdas Pophale) SiO2 
 PCOD9276213
Probable space group: C 2/C
;
_chemical_formula_sum "Si O2"
_cell_formula_units_Z 48
_cell_length_a 9.826679
_cell_length_b 25.973058
_cell_length_c 14.166885
_cell_angle_alpha 90.000000
_cell_angle_beta 40.254392
_cell_angle_gamma 90.000000
_cell_volume 2336.465670
_symmetry_space_group_name_H-M "C 2/C"
_symmetry_group_IT_number 15
_symmetry_cell_setting 'monoclinic'
loop_
_space_group_symop_operation_xyz
x,y,z
-x,y,1/2-z
-x,-y,-z
x,-y,1/2+z
1/2+x,1/2+y,z
1/2-x,1/2+y,1/2-z
1/2-x,1/2-y,-z
1/2+x,1/2-y,1/2+z
loop_
_atom_site_type_symbol
_atom_site_label
_atom_site_fract_x
_atom_site_fract_y
_atom_site_fract_z
Si Si1 0.609050 0.190836 0.348556
Si Si2 0.500000 0.354878 0.750000
Si Si3 0.716503 0.929102 0.020314
Si Si4 0.119076 0.966838 0.018309
Si Si5 0.207088 0.201864 0.697177
Si Si6 0.500000 0.105720 0.250000
Si Si7 0.238063 0.400304 0.230486
O O1 0.410043 0.201042 0.521907
O O2 0.659189 0.241614 0.261704
O O3 0.554600 0.143107 0.308684
O O4 0.817566 0.177862 0.297452
O O5 0.615819 0.392173 0.615737
O O6 0.721943 0.914098 0.128298
O O7 0.481493 0.918328 0.108152
O O8 0.774922 0.988636 0.975986
O O9 0.300550 0.930464 0.879548
O O10 0.940725 0.931431 0.159114
O O11 0.000000 0.000000 0.000000
O O12 0.239958 0.160095 0.762123
O O13 0.000000 0.185061 0.750000
#
# Coordination Sequence:
#
# PCOD9276213 Si02
#       7
#     8   4   8   8   8   4   8
#     4  12  28  45  72 102 138 184 229 292 345 414
#     4  12  26  46  66 110 144 174 234 292 344 406
#     4  10  22  43  68  98 140 178 225 279 342 408
#     4  10  20  39  71  99 132 182 227 273 340 414
#     4  12  26  46  70 100 135 178 237 284 347 410
#     4  12  24  46  72 104 140 184 232 284 352 408
#     4  10  21  42  70  95 131 183 227 278 341 412
#
# _framework density 20.543851
#
# number of rings (size 3 to 8) (size 9 to 14) (size 15 to 20)
#    0.000    1.000    2.500    5.500    4.667    2.000 
#    4.500    1.667    0.000    0.000    0.000    0.000 
#    0.000    0.000    0.000    0.000    0.000    0.000 
#
# Total GULP energy -134168.591563 kJ/mol
# GULP energy per Si atom -5590.357982 kJ/mol
# Density = 2.049709 g / cm^3
# Si number density = 20.543851 Si / 1000 Ang^3
#
#
#
# Elastic Constant Matrix: (Units=GPa)
#
#
# Indices 1 2 3 4 5 6 
#
# 1 65.3689 41.9682 44.9641 0.0000 -20.5887 0.0000
# 2 41.9682 121.7074 45.6959 0.0000 -24.6263 0.0000
# 3 44.9641 45.6959 143.9760 0.0000 -39.0430 0.0000
# 4 0.0000 0.0000 0.0000 46.2625 0.0000 -6.1621
# 5 -20.5887 -24.6263 -39.0430 0.0000 30.7268 0.0000
# 6 0.0000 0.0000 0.0000 -6.1621 0.0000 27.2609
#
#
#
# Elastic Compliance Matrix: (Units=1/GPa)
#
#
# Indices 1 2 3 4 5 6 
#
# 1 0.023414 -0.005303 -0.003856 0.000000 0.006539 0.000000
# 2 -0.005303 0.011224 -0.000657 0.000000 0.004608 0.000000
# 3 -0.003856 -0.000657 0.011466 0.000000 0.011459 0.000000
# 4 0.000000 0.000000 0.000000 0.022287 0.000000 0.005038
# 5 0.006539 0.004608 0.011459 0.000000 0.055180 0.000000
# 6 0.000000 0.000000 0.000000 0.005038 0.000000 0.037821
#
#
# Mechanical properties :
#
#
# Convention : Reuss Voigt Hill
#
# Bulk Modulus (GPa) = 37.77484 66.25653 52.01569
# Shear Modulus (GPa) = 26.33693 34.07831 30.20762
#
# Velocity S-wave (km/s) = 3.58437 4.07727 3.83874
# Velocity P-wave (km/s) = 5.96302 7.38151 6.70986
#
# Compressibility (1/GPa) = 0.02647264
#
# Stress axis : x y z
#
# Youngs Moduli (GPa) = 42.70866 89.09504 87.21734
#
# Poissons Ratio (x) = 0.47248 0.33631
# Poissons Ratio (y) = 0.22649 0.05727
# Poissons Ratio (z) = 0.16469 0.05850
#
# Static dielectric constant tensor:
#      x y z
#    x 1.851570 0.000000 -0.082400 
#    y 0.000000 1.704170 0.000000 
#    z -0.082400 0.000000 1.750270 
# 
# From -- ./inp_files/200908.got.cif
#   From: 2010.05.17/outbox.cif.g08.bks.cpg/sg15_101_cif.got.tgz:200908.got - 2010.06.03 18:47:42.
