data_PCOD9276659
_publ_section_title
;
Structure prediction by ZEFSAII (Michael W. Deem and Ramdas Pophale) SiO2 
 PCOD9276659
Probable space group: C 2/C
;
_chemical_formula_sum "Si O2"
_cell_formula_units_Z 56
_cell_length_a 11.784110
_cell_length_b 22.480936
_cell_length_c 11.276809
_cell_angle_alpha 90.000000
_cell_angle_beta 74.721171
_cell_angle_gamma 90.000000
_cell_volume 2881.836622
_symmetry_space_group_name_H-M "C 2/C"
_symmetry_group_IT_number 15
_symmetry_cell_setting 'monoclinic'
loop_
_space_group_symop_operation_xyz
x,y,z
-x,y,1/2-z
-x,-y,-z
x,-y,1/2+z
1/2+x,1/2+y,z
1/2-x,1/2+y,1/2-z
1/2-x,1/2-y,-z
1/2+x,1/2-y,1/2+z
loop_
_atom_site_type_symbol
_atom_site_label
_atom_site_fract_x
_atom_site_fract_y
_atom_site_fract_z
Si Si1 0.871920 0.017135 0.981313
Si Si2 0.000000 0.075554 0.750000
Si Si3 0.180171 0.572570 0.624733
Si Si4 0.022415 0.607211 0.451533
Si Si5 0.321121 0.663369 0.732193
Si Si6 0.000000 0.486512 0.750000
Si Si7 0.241232 0.640504 0.015502
Si Si8 0.867714 0.705421 0.235990
O O1 0.903149 0.033805 0.836988
O O2 0.804732 0.078633 0.038134
O O3 0.785758 0.962427 0.030424
O O4 0.000000 0.000000 0.000000
O O5 0.066000 0.120641 0.820495
O O6 0.081240 0.588213 0.556361
O O7 0.220897 0.628902 0.688718
O O8 0.116886 0.525368 0.726216
O O9 0.001518 0.554096 0.365152
O O10 0.111217 0.653603 0.364776
O O11 0.890917 0.631930 0.498363
O O12 0.330702 0.731539 0.693244
O O13 0.308011 0.663879 0.879803
O O14 0.219234 0.682732 0.135442
O O15 0.000000 0.714570 0.250000
#
# Coordination Sequence:
#
# PCOD9276659 Si02
#       8
#     8   4   8   8   8   4   8   8
#     4  11  22  38  58  88 128 157 201 251 316 379
#     4  10  22  35  56  82 119 162 206 242 296 376
#     4  12  25  36  63  96 131 159 198 265 328 373
#     4  11  22  40  63  92 121 161 209 265 315 365
#     4  11  22  38  59  90 122 166 205 255 309 364
#     4  12  22  41  64  92 125 160 214 254 316 378
#     4  10  21  39  63  91 116 162 214 258 303 368
#     4  10  20  40  64  88 120 164 221 258 296 372
#
# _framework density 19.432051999999999
#
# number of rings (size 3 to 8) (size 9 to 14) (size 15 to 20)
#    0.000    1.143    5.714    1.714    4.000    1.714 
#    0.000    0.000    0.000    1.714    0.000    0.000 
#    0.000    0.000    0.000    0.000    0.000    0.000 
#
# Total GULP energy -156104.327208 kJ/mol
# GULP energy per Si atom -5575.154543 kJ/mol
# Density = 1.938782 g / cm^3
# Si number density = 19.432052 Si / 1000 Ang^3
#
#
#
# Elastic Constant Matrix: (Units=GPa)
#
#
# Indices 1 2 3 4 5 6 
#
# 1 54.7755 8.9428 6.8263 0.0000 -5.1534 0.0000
# 2 8.9428 92.1022 17.1554 0.0000 -9.3031 0.0000
# 3 6.8263 17.1554 37.3483 0.0000 -17.7094 0.0000
# 4 0.0000 0.0000 0.0000 4.3266 0.0000 -44.7765
# 5 -5.1534 -9.3031 -17.7094 0.0000 31.0680 0.0000
# 6 0.0000 0.0000 0.0000 -44.7765 0.0000 -24.1809
#
#
#
# Elastic Compliance Matrix: (Units=1/GPa)
#
#
# Indices 1 2 3 4 5 6 
#
# 1 0.018876 -0.001280 -0.002137 0.000000 0.001530 0.000000
# 2 -0.001280 0.011969 -0.005022 0.000000 0.000509 0.000000
# 3 -0.002137 -0.005022 0.039182 0.000000 0.020476 0.000000
# 4 0.000000 0.000000 0.000000 0.011463 0.000000 -0.021226
# 5 0.001530 0.000509 0.020476 0.000000 0.044265 0.000000
# 6 0.000000 0.000000 0.000000 -0.021226 0.000000 -0.002051
#
#
# Mechanical properties :
#
#
# Convention : Reuss Voigt Hill
#
# Bulk Modulus (GPa) = 18.81563 27.78612 23.30088
# Shear Modulus (GPa) = 31.58618 12.32950 21.95784
#
# Velocity S-wave (km/s) = 4.03608 2.52165 3.36517
# Velocity P-wave (km/s) = 5.60569 4.77582 5.20731
#
# Compressibility (1/GPa) = 0.05314729
#
# Stress axis : x y z
#
# Youngs Moduli (GPa) = 52.97860 83.55122 25.52220
#
# Poissons Ratio (x) = 0.10697 0.05453
# Poissons Ratio (y) = 0.06783 0.12818
# Poissons Ratio (z) = 0.11319 0.41963
#
# Static dielectric constant tensor:
#      x y z
#    x 1.693020 0.000000 -0.027640 
#    y 0.000000 1.713760 0.000000 
#    z -0.027640 0.000000 1.745300 
# 
# From -- ./inp_files/88934.got.cif
#   From: 2010.05.17/outbox.cif.g08.bks.cpg/sg15_45_cif.got.tgz:88934.got - 2010.06.03 18:47:42.
