data_PCOD9276790
_publ_section_title
;
Structure prediction by ZEFSAII (Michael W. Deem and Ramdas Pophale) SiO2 
 PCOD9276790
Probable space group: C 2/C
;
_chemical_formula_sum "Si O2"
_cell_formula_units_Z 64
_cell_length_a 11.873925
_cell_length_b 30.644556
_cell_length_c 17.107021
_cell_angle_alpha 90.000000
_cell_angle_beta 146.686563
_cell_angle_gamma 90.000000
_cell_volume 3418.750689
_symmetry_space_group_name_H-M "C 2/C"
_symmetry_group_IT_number 15
_symmetry_cell_setting 'monoclinic'
loop_
_space_group_symop_operation_xyz
x,y,z
-x,y,1/2-z
-x,-y,-z
x,-y,1/2+z
1/2+x,1/2+y,z
1/2-x,1/2+y,1/2-z
1/2-x,1/2-y,-z
1/2+x,1/2-y,1/2+z
loop_
_atom_site_type_symbol
_atom_site_label
_atom_site_fract_x
_atom_site_fract_y
_atom_site_fract_z
Si Si1 0.055204 0.785799 0.063697
Si Si2 0.825553 0.706287 0.585520
Si Si3 0.965709 0.534669 0.046558
Si Si4 0.406319 0.197669 0.894761
Si Si5 0.235265 0.641462 0.403560
Si Si6 0.281837 0.985138 0.089026
Si Si7 0.239518 0.880359 0.402596
Si Si8 0.860128 0.059957 0.372008
O O1 0.148865 0.809989 0.040697
O O2 0.219497 0.785946 0.230072
O O3 0.993803 0.737883 0.996836
O O4 0.863509 0.814202 0.978329
O O5 0.750000 0.750000 0.500000
O O6 0.000000 0.717662 0.750000
O O7 0.926740 0.680579 0.572371
O O8 0.842337 0.509960 0.044287
O O9 0.181533 0.553700 0.204033
O O10 0.838038 0.574172 0.935956
O O11 0.000000 0.500000 0.000000
O O12 0.337106 0.159653 0.912080
O O13 0.233038 0.622069 0.488791
O O14 0.329595 0.606287 0.397698
O O15 0.000000 0.650558 0.250000
O O16 0.500000 0.967491 0.250000
O O17 0.202149 0.023196 0.100501
O O18 0.091282 0.951036 0.976492
O O19 0.000000 0.879542 0.250000
#
# Coordination Sequence:
#
# PCOD9276790 Si02
#       8
#     8   8   8   8   8   8   8   8
#     4  10  22  39  64  94 123 172 213 260 312 375
#     4   8  16  36  60  82 116 155 200 250 299 359
#     4  11  24  40  64  93 126 166 208 260 331 379
#     4  10  22  40  63  95 129 165 214 259 318 379
#     4  12  23  42  63  86 124 172 212 261 321 383
#     4   9  19  38  63  91 115 160 208 258 309 376
#     4  12  25  41  62  92 134 168 211 270 321 381
#     4  10  20  40  65  86 121 164 215 250 312 389
#
# _framework density 18.720289000000001
#
# number of rings (size 3 to 8) (size 9 to 14) (size 15 to 20)
#    0.000    1.750    3.750    0.375    3.500    2.000 
#    2.250    0.625    0.000    0.000    0.000    0.000 
#    0.000    0.000    0.000    0.000    0.000    0.000 
#
# Total GULP energy -178325.910495 kJ/mol
# GULP energy per Si atom -5572.684703 kJ/mol
# Density = 1.867768 g / cm^3
# Si number density = 18.720289 Si / 1000 Ang^3
#
#
#
# Elastic Constant Matrix: (Units=GPa)
#
#
# Indices 1 2 3 4 5 6 
#
# 1 65.4668 43.7684 25.4649 0.0000 11.8997 0.0000
# 2 43.7684 47.8705 -32.1249 0.0000 8.4592 0.0000
# 3 25.4649 -32.1249 -37.2372 0.0000 20.5154 0.0000
# 4 0.0000 0.0000 0.0000 28.1679 0.0000 6.1274
# 5 11.8997 8.4592 20.5154 0.0000 32.8823 0.0000
# 6 0.0000 0.0000 0.0000 6.1274 0.0000 38.9678
#
#
#
# Elastic Compliance Matrix: (Units=1/GPa)
#
#
# Indices 1 2 3 4 5 6 
#
# 1 0.017360 -0.006416 0.011055 0.000000 -0.011529 0.000000
# 2 -0.006416 0.015949 -0.014235 0.000000 0.007100 0.000000
# 3 0.011055 -0.014235 -0.005359 0.000000 0.003005 0.000000
# 4 0.000000 0.000000 0.000000 0.036759 0.000000 -0.005780
# 5 -0.011529 0.007100 0.003005 0.000000 0.030883 0.000000
# 6 0.000000 0.000000 0.000000 -0.005780 0.000000 0.026571
#
#
# Mechanical properties :
#
#
# Convention : Reuss Voigt Hill
#
# Bulk Modulus (GPa) = 114.18205 16.70184 65.44195
# Shear Modulus (GPa) = 34.65648 22.60306 28.62977
#
# Velocity S-wave (km/s) = 4.30732 3.47855 3.91493
# Velocity P-wave (km/s) = 9.26625 5.00748 7.44776
#
# Compressibility (1/GPa) = 0.00875794
#
# Stress axis : x y z
#
# Youngs Moduli (GPa) = 57.60396 62.70153 -186.61063
#
# Poissons Ratio (x) = 0.40230 2.06301
# Poissons Ratio (y) = 0.36959 -2.65639
# Poissons Ratio (z) = -0.63682 0.89255
#
# Static dielectric constant tensor:
#      x y z
#    x 2.120970 0.000000 -0.335360 
#    y 0.000000 1.629940 0.000000 
#    z -0.335360 0.000000 1.940940 
# 
# From -- ./inp_files/201504.got.cif
#   From: 2010.05.17/outbox.cif.g08.bks.cpg/sg15_101_cif.got.tgz:201504.got - 2010.06.03 18:47:42.
