data_PCOD9276695
_publ_section_title
;
Structure prediction by ZEFSAII (Michael W. Deem and Ramdas Pophale) SiO2 
 PCOD9276695
Probable space group: C 2/C
;
_chemical_formula_sum "Si O2"
_cell_formula_units_Z 56
_cell_length_a 8.846492
_cell_length_b 12.642524
_cell_length_c 21.648060
_cell_angle_alpha 90.000000
_cell_angle_beta 65.886986
_cell_angle_gamma 90.000000
_cell_volume 2209.894859
_symmetry_space_group_name_H-M "C 2/C"
_symmetry_group_IT_number 15
_symmetry_cell_setting 'monoclinic'
loop_
_space_group_symop_operation_xyz
x,y,z
-x,y,1/2-z
-x,-y,-z
x,-y,1/2+z
1/2+x,1/2+y,z
1/2-x,1/2+y,1/2-z
1/2-x,1/2-y,-z
1/2+x,1/2-y,1/2+z
loop_
_atom_site_type_symbol
_atom_site_label
_atom_site_fract_x
_atom_site_fract_y
_atom_site_fract_z
Si Si1 0.516102 0.388607 0.682278
Si Si2 0.100648 0.416963 0.377397
Si Si3 0.223155 0.783461 0.238087
Si Si4 0.067070 0.941766 0.928597
Si Si5 0.363158 0.947375 0.315520
Si Si6 0.622123 0.830148 0.860927
Si Si7 0.938206 0.727291 0.994429
O O1 0.500000 0.449287 0.750000
O O2 0.355641 0.312732 0.704283
O O3 0.537985 0.456044 0.616860
O O4 0.679827 0.320361 0.662971
O O5 0.263466 0.354032 0.326620
O O6 0.103408 0.543168 0.369434
O O7 0.966220 0.381898 0.348271
O O8 0.019622 0.379335 0.454390
O O9 0.269104 0.872980 0.282588
O O10 0.081730 0.721515 0.301394
O O11 0.050656 0.819847 0.948148
O O12 0.244015 0.980984 0.876180
O O13 0.000000 0.000000 0.000000
O O14 0.500000 0.004248 0.250000
O O15 0.551198 0.774251 0.933398
O O16 0.750000 0.750000 0.000000
#
# Coordination Sequence:
#
# PCOD9276695 Si02
#       7
#     8   8   8   8   8   8   8
#     4  10  21  38  66  95 129 169 228 278 324 385
#     4  11  22  37  65  93 126 168 219 272 334 400
#     4  10  20  40  64  91 122 171 228 273 319 399
#     4  12  24  40  70 102 135 173 231 284 340 403
#     4  10  23  39  65  95 131 178 226 271 339 416
#     4  11  22  37  65  97 127 166 220 283 333 393
#     4  12  22  42  65  95 127 170 229 277 336 397
#
# _framework density 25.340572999999999
#
# number of rings (size 3 to 8) (size 9 to 14) (size 15 to 20)
#    0.000    1.143    2.857    6.857    8.000    0.000 
#    0.000    0.714    3.143    4.286    0.000    0.000 
#    0.000    0.000    0.000    0.000    0.000    0.000 
#
# Total GULP energy -156210.760247 kJ/mol
# GULP energy per Si atom -5578.955723 kJ/mol
# Density = 2.528290 g / cm^3
# Si number density = 25.340573 Si / 1000 Ang^3
#
#
#
# Elastic Constant Matrix: (Units=GPa)
#
#
# Indices 1 2 3 4 5 6 
#
# 1 21.6446 21.0470 20.4918 0.0000 -4.7993 0.0000
# 2 21.0470 109.5107 49.5817 0.0000 -18.1143 0.0000
# 3 20.4918 49.5817 222.9265 0.0000 -2.0689 0.0000
# 4 0.0000 0.0000 0.0000 56.7672 0.0000 -3.2911
# 5 -4.7993 -18.1143 -2.0689 0.0000 39.4656 0.0000
# 6 0.0000 0.0000 0.0000 -3.2911 0.0000 37.7093
#
#
#
# Elastic Compliance Matrix: (Units=1/GPa)
#
#
# Indices 1 2 3 4 5 6 
#
# 1 0.059085 -0.009410 -0.003313 0.000000 0.002692 0.000000
# 2 -0.009410 0.012538 -0.001882 0.000000 0.004512 0.000000
# 3 -0.003313 -0.001882 0.005200 0.000000 -0.000994 0.000000
# 4 0.000000 0.000000 0.000000 0.017705 0.000000 0.001545
# 5 0.002692 0.004512 -0.000994 0.000000 0.027685 0.000000
# 6 0.000000 0.000000 0.000000 0.001545 0.000000 0.026654
#
#
# Mechanical properties :
#
#
# Convention : Reuss Voigt Hill
#
# Bulk Modulus (GPa) = 21.00286 59.59141 40.29714
# Shear Modulus (GPa) = 25.78008 44.31916 35.04962
#
# Velocity S-wave (km/s) = 3.19304 4.18657 3.72310
# Velocity P-wave (km/s) = 4.67977 6.85107 5.86674
#
# Compressibility (1/GPa) = 0.04761255
#
# Stress axis : x y z
#
# Youngs Moduli (GPa) = 16.92478 79.75478 192.32020
#
# Poissons Ratio (x) = 0.75051 0.63721
# Poissons Ratio (y) = 0.15926 0.36192
# Poissons Ratio (z) = 0.05608 0.15009
#
# Static dielectric constant tensor:
#      x y z
#    x 2.199700 0.000000 -0.008200 
#    y 0.000000 2.043100 0.000000 
#    z -0.008200 0.000000 2.039130 
# 
# From -- ./inp_files/268739.got.cif
#   From: 2010.05.17/outbox.cif.g08.bks.cpg/sg15_135_cif.got.tgz:268739.got - 2010.06.03 18:47:42.
