data_PCOD9276854
_publ_section_title
;
Structure prediction by ZEFSAII (Michael W. Deem and Ramdas Pophale) SiO2 
 PCOD9276854
Probable space group: C 2/C
;
_chemical_formula_sum "Si O2"
_cell_formula_units_Z 60
_cell_length_a 18.353405
_cell_length_b 11.633694
_cell_length_c 22.828022
_cell_angle_alpha 90.000000
_cell_angle_beta 141.195927
_cell_angle_gamma 90.000000
_cell_volume 3054.456851
_symmetry_space_group_name_H-M "C 2/C"
_symmetry_group_IT_number 15
_symmetry_cell_setting 'monoclinic'
loop_
_space_group_symop_operation_xyz
x,y,z
-x,y,1/2-z
-x,-y,-z
x,-y,1/2+z
1/2+x,1/2+y,z
1/2-x,1/2+y,1/2-z
1/2-x,1/2-y,-z
1/2+x,1/2-y,1/2+z
loop_
_atom_site_type_symbol
_atom_site_label
_atom_site_fract_x
_atom_site_fract_y
_atom_site_fract_z
Si Si1 0.202601 0.121567 0.315094
Si Si2 0.475334 0.133623 0.490760
Si Si3 0.196421 0.421840 0.931107
Si Si4 0.541975 0.416410 0.213733
Si Si5 0.585660 0.258857 0.451077
Si Si6 0.155729 0.111823 0.418632
Si Si7 0.500000 0.953707 0.250000
Si Si8 0.512508 0.212427 0.645027
O O1 0.337776 0.145652 0.391583
O O2 0.174717 0.152975 0.364818
O O3 0.119735 0.199652 0.222908
O O4 0.163710 0.985781 0.287793
O O5 0.545394 0.208871 0.487473
O O6 0.511663 0.163346 0.579652
O O7 0.500000 0.000000 0.500000
O O8 0.129996 0.343727 0.936935
O O9 0.110951 0.464355 0.827426
O O10 0.306344 0.348048 0.977630
O O11 0.240490 0.537391 0.990708
O O12 0.500000 0.363795 0.250000
O O13 0.517511 0.326065 0.147434
O O14 0.449370 0.519814 0.149483
O O15 0.107956 0.216384 0.425892
O O16 0.486100 0.876725 0.299844
#
# Coordination Sequence:
#
# PCOD9276854 Si02
#       8
#     8   8   8   8   8   8   4   8
#     4  10  20  40  65  96 126 168 211 265 315 378
#     4  12  27  44  59  89 135 174 211 255 329 391
#     4  10  23  40  69  93 125 164 217 273 312 373
#     4   8  17  35  68  96 119 158 220 256 306 377
#     4  10  22  46  62  92 129 175 210 258 326 379
#     4   9  17  39  66  94 125 163 209 260 316 378
#     4  12  22  38  64 106 122 148 232 278 300 376
#     4  11  23  40  67  97 126 169 214 261 327 371
#
# _framework density 19.643428
#
# number of rings (size 3 to 8) (size 9 to 14) (size 15 to 20)
#    0.000    1.867    1.333    3.200    2.800    3.200 
#    4.800    6.000    0.000    0.000    0.000    0.000 
#    0.000    0.000    0.000    0.000    0.000    0.000 
#
# Total GULP energy -167486.093658 kJ/mol
# GULP energy per Si atom -5582.869789 kJ/mol
# Density = 1.959872 g / cm^3
# Si number density = 19.643428 Si / 1000 Ang^3
#
#
#
# Elastic Constant Matrix: (Units=GPa)
#
#
# Indices 1 2 3 4 5 6 
#
# 1 112.5018 60.6102 53.6027 0.0000 -24.3864 0.0000
# 2 60.6102 99.6171 60.3550 0.0000 -19.7115 0.0000
# 3 53.6027 60.3550 119.6328 0.0000 -9.3774 0.0000
# 4 0.0000 0.0000 0.0000 38.8035 0.0000 -1.8455
# 5 -24.3864 -19.7115 -9.3774 0.0000 32.6395 0.0000
# 6 0.0000 0.0000 0.0000 -1.8455 0.0000 19.3469
#
#
#
# Elastic Compliance Matrix: (Units=1/GPa)
#
#
# Indices 1 2 3 4 5 6 
#
# 1 0.015066 -0.005841 -0.003271 0.000000 0.006789 0.000000
# 2 -0.005841 0.018359 -0.006259 0.000000 0.004925 0.000000
# 3 -0.003271 -0.006259 0.012782 0.000000 -0.002552 0.000000
# 4 0.000000 0.000000 0.000000 0.025888 0.000000 0.002469
# 5 0.006789 0.004925 -0.002552 0.000000 0.037951 0.000000
# 6 0.000000 0.000000 0.000000 0.002469 0.000000 0.051923
#
#
# Mechanical properties :
#
#
# Convention : Reuss Voigt Hill
#
# Bulk Modulus (GPa) = 64.66531 75.65418 70.15975
# Shear Modulus (GPa) = 25.26936 28.63690 26.95313
#
# Velocity S-wave (km/s) = 3.59054 3.82230 3.70823
# Velocity P-wave (km/s) = 7.08381 7.62085 7.35723
#
# Compressibility (1/GPa) = 0.01546424
#
# Stress axis : x y z
#
# Youngs Moduli (GPa) = 66.37452 54.46919 78.23310
#
# Poissons Ratio (x) = 0.31817 0.25593
# Poissons Ratio (y) = 0.38771 0.48965
# Poissons Ratio (z) = 0.21714 0.34092
#
# Static dielectric constant tensor:
#      x y z
#    x 1.677060 0.000000 0.042910 
#    y 0.000000 1.703870 0.000000 
#    z 0.042910 0.000000 1.741610 
# 
# From -- ./inp_files/248789.got.cif
#   From: 2010.05.17/outbox.cif.g08.bks.cpg/sg15_125_cif.got.tgz:248789.got - 2010.06.03 18:47:42.
