data_PCOD9276742
_publ_section_title
;
Structure prediction by ZEFSAII (Michael W. Deem and Ramdas Pophale) SiO2 
 PCOD9276742
Probable space group: C 2/C
;
_chemical_formula_sum "Si O2"
_cell_formula_units_Z 52
_cell_length_a 14.502264
_cell_length_b 18.201639
_cell_length_c 9.019204
_cell_angle_alpha 90.000000
_cell_angle_beta 99.706122
_cell_angle_gamma 90.000000
_cell_volume 2346.674553
_symmetry_space_group_name_H-M "C 2/C"
_symmetry_group_IT_number 15
_symmetry_cell_setting 'monoclinic'
loop_
_space_group_symop_operation_xyz
x,y,z
-x,y,1/2-z
-x,-y,-z
x,-y,1/2+z
1/2+x,1/2+y,z
1/2-x,1/2+y,1/2-z
1/2-x,1/2-y,-z
1/2+x,1/2-y,1/2+z
loop_
_atom_site_type_symbol
_atom_site_label
_atom_site_fract_x
_atom_site_fract_y
_atom_site_fract_z
Si Si1 0.304892 0.573171 0.737542
Si Si2 0.286638 0.593438 0.288401
Si Si3 0.500409 0.857702 0.081670
Si Si4 0.196361 0.381610 0.467538
Si Si5 0.500000 0.647111 0.750000
Si Si6 0.357295 0.950538 0.546551
Si Si7 0.453641 0.302836 0.905150
O O1 0.317676 0.491708 0.811523
O O2 0.405330 0.600362 0.718484
O O3 0.228225 0.563756 0.589486
O O4 0.254370 0.629435 0.835050
O O5 0.273348 0.614507 0.114859
O O6 0.180045 0.591104 0.319182
O O7 0.359627 0.648555 0.379662
O O8 0.500000 0.885830 0.250000
O O9 0.547450 0.916683 0.987100
O O10 0.562819 0.784437 0.098963
O O11 0.393640 0.832934 0.021815
O O12 0.146590 0.462035 0.436978
O O13 0.501528 0.683379 0.582155
O O14 0.500000 0.318049 0.750000
#
# Coordination Sequence:
#
# PCOD9276742 Si02
#       7
#     8   8   8   8   4   8   8
#     4  10  21  39  67  95 123 170 217 275 336 381
#     4  10  22  40  62  97 132 157 221 283 324 388
#     4  11  23  42  65  91 135 180 217 266 332 401
#     4  10  21  40  66  96 126 167 220 276 330 388
#     4  12  24  44  70  94 132 180 222 270 334 400
#     4  10  20  40  64  95 127 165 221 274 330 385
#     4  11  26  44  61  99 135 176 227 263 327 407
#
# _framework density 22.159016999999999
#
# number of rings (size 3 to 8) (size 9 to 14) (size 15 to 20)
#    0.000    1.538    3.077    1.385    1.077    3.077 
#    2.769    2.308    0.000    0.000    0.000    0.000 
#    0.000    0.000    0.000    0.000    0.000    0.000 
#
# Total GULP energy -144848.673686 kJ/mol
# GULP energy per Si atom -5571.102834 kJ/mol
# Density = 2.210858 g / cm^3
# Si number density = 22.159017 Si / 1000 Ang^3
#
#
#
# Elastic Constant Matrix: (Units=GPa)
#
#
# Indices 1 2 3 4 5 6 
#
# 1 94.9296 21.2736 7.9628 0.0000 -12.4016 0.0000
# 2 21.2736 36.8071 4.3208 0.0000 -1.6994 0.0000
# 3 7.9628 4.3208 93.4903 0.0000 0.8876 0.0000
# 4 0.0000 0.0000 0.0000 -2.1452 0.0000 19.0211
# 5 -12.4016 -1.6994 0.8876 0.0000 41.3481 0.0000
# 6 0.0000 0.0000 0.0000 19.0211 0.0000 -19.5810
#
#
#
# Elastic Compliance Matrix: (Units=1/GPa)
#
#
# Indices 1 2 3 4 5 6 
#
# 1 0.012640 -0.007051 -0.000784 0.000000 0.003518 0.000000
# 2 -0.007051 0.031305 -0.000839 0.000000 -0.000810 0.000000
# 3 -0.000784 -0.000839 0.010807 0.000000 -0.000502 0.000000
# 4 0.000000 0.000000 0.000000 0.061230 0.000000 0.059479
# 5 0.003518 -0.000810 -0.000502 0.000000 0.025218 0.000000
# 6 0.000000 0.000000 0.000000 0.059479 0.000000 0.006708
#
#
# Mechanical properties :
#
#
# Convention : Reuss Voigt Hill
#
# Bulk Modulus (GPa) = 26.73508 32.48236 29.60872
# Shear Modulus (GPa) = 28.13393 16.70237 22.41815
#
# Velocity S-wave (km/s) = 3.56706 2.74843 3.18416
# Velocity P-wave (km/s) = 5.39041 4.97618 5.18743
#
# Compressibility (1/GPa) = 0.03740404
#
# Stress axis : x y z
#
# Youngs Moduli (GPa) = 79.11649 31.94387 92.53604
#
# Poissons Ratio (x) = 0.22523 0.07256
# Poissons Ratio (y) = 0.55784 0.07760
# Poissons Ratio (z) = 0.06203 0.02679
#
# Static dielectric constant tensor:
#      x y z
#    x 1.823870 0.000000 -0.040740 
#    y 0.000000 1.816250 0.000000 
#    z -0.040740 0.000000 1.929970 
# 
# From -- ./inp_files/40773.got.cif
#   From: 2010.05.17/outbox.cif.g08.bks.cpg/sg15_21_cif.got.tgz:40773.got - 2010.06.03 18:47:42.
