data_PCOD9276006
_publ_section_title
;
Structure prediction by ZEFSAII (Michael W. Deem and Ramdas Pophale) SiO2 
 PCOD9276006
Probable space group: C 2/C
;
_chemical_formula_sum "Si O2"
_cell_formula_units_Z 52
_cell_length_a 8.150000
_cell_length_b 27.365018
_cell_length_c 10.553822
_cell_angle_alpha 90.000000
_cell_angle_beta 112.749310
_cell_angle_gamma 90.000000
_cell_volume 2170.655388
_symmetry_space_group_name_H-M "C 2/C"
_symmetry_group_IT_number 15
_symmetry_cell_setting 'monoclinic'
loop_
_space_group_symop_operation_xyz
x,y,z
-x,y,1/2-z
-x,-y,-z
x,-y,1/2+z
1/2+x,1/2+y,z
1/2-x,1/2+y,1/2-z
1/2-x,1/2-y,-z
1/2+x,1/2-y,1/2+z
loop_
_atom_site_type_symbol
_atom_site_label
_atom_site_fract_x
_atom_site_fract_y
_atom_site_fract_z
Si Si1 0.561764 0.072886 0.905702
Si Si2 0.000000 0.055291 0.750000
Si Si3 0.451401 0.265298 0.594080
Si Si4 0.305306 0.801151 0.662942
Si Si5 0.259888 0.900103 0.512356
Si Si6 0.165591 0.134864 0.357932
Si Si7 0.692480 0.508177 0.124327
O O1 0.500000 0.092510 0.750000
O O2 0.407186 0.078319 0.961856
O O3 0.651554 0.020989 0.901093
O O4 0.715723 0.103970 0.015897
O O5 0.923713 0.089839 0.617136
O O6 0.845110 0.019206 0.755161
O O7 0.500000 0.247177 0.750000
O O8 0.250000 0.250000 0.500000
O O9 0.646428 0.262342 0.587882
O O10 0.431159 0.323807 0.588336
O O11 0.500000 0.779205 0.750000
O O12 0.303938 0.844714 0.559957
O O13 0.267091 0.832441 0.782785
O O14 0.248083 0.935412 0.631906
O O15 0.000000 0.105481 0.250000
O O16 0.500000 0.500000 0.000000
#
# Coordination Sequence:
#
# PCOD9276006 Si02
#       7
#     8   4   8   8   8   8   8
#     4  12  23  41  62  92 132 171 233 287 332 392
#     4  10  22  42  54  90 132 170 234 294 336 390
#     4   9  21  42  69  98 136 170 217 261 335 420
#     4  10  20  39  66  98 132 170 227 275 334 410
#     4  11  23  39  63  89 132 180 229 284 344 389
#     4   9  22  39  63  95 128 170 215 263 332 409
#     4  10  24  38  55  84 126 183 226 288 334 392
#
# _framework density 23.955898000000001
#
# number of rings (size 3 to 8) (size 9 to 14) (size 15 to 20)
#    0.000    2.154    3.077    0.462    8.615    3.692 
#    2.769    3.077    0.000    0.000    0.000    0.000 
#    0.000    0.000    0.000    0.000    0.000    0.000 
#
# Total GULP energy -144955.222761 kJ/mol
# GULP energy per Si atom -5575.200875 kJ/mol
# Density = 2.390137 g / cm^3
# Si number density = 23.955898 Si / 1000 Ang^3
#
#
#
# Elastic Constant Matrix: (Units=GPa)
#
#
# Indices 1 2 3 4 5 6 
#
# 1 149.8674 25.1474 42.5547 0.0000 15.7642 0.0000
# 2 25.1474 36.4869 25.8491 0.0000 12.4660 0.0000
# 3 42.5547 25.8491 124.3825 0.0000 42.3145 0.0000
# 4 0.0000 0.0000 0.0000 26.5417 0.0000 16.1173
# 5 15.7642 12.4660 42.3145 0.0000 50.3339 0.0000
# 6 0.0000 0.0000 0.0000 16.1173 0.0000 23.9731
#
#
#
# Elastic Compliance Matrix: (Units=1/GPa)
#
#
# Indices 1 2 3 4 5 6 
#
# 1 0.007889 -0.004151 -0.001885 0.000000 0.000142 0.000000
# 2 -0.004151 0.034715 -0.004638 0.000000 -0.003399 0.000000
# 3 -0.001885 -0.004638 0.012685 0.000000 -0.008925 0.000000
# 4 0.000000 0.000000 0.000000 0.063670 0.000000 -0.042806
# 5 0.000142 -0.003399 -0.008925 0.000000 0.028167 0.000000
# 6 0.000000 0.000000 0.000000 -0.042806 0.000000 0.070492
#
#
# Mechanical properties :
#
#
# Convention : Reuss Voigt Hill
#
# Bulk Modulus (GPa) = 29.46235 55.31545 42.38890
# Shear Modulus (GPa) = 19.97765 34.64878 27.31321
#
# Velocity S-wave (km/s) = 2.89093 3.80723 3.38027
# Velocity P-wave (km/s) = 4.84443 6.51669 5.74177
#
# Compressibility (1/GPa) = 0.03394163
#
# Stress axis : x y z
#
# Youngs Moduli (GPa) = 126.75393 28.80619 78.83604
#
# Poissons Ratio (x) = 0.11956 0.14858
# Poissons Ratio (y) = 0.52610 0.36566
# Poissons Ratio (z) = 0.23890 0.13361
#
# Static dielectric constant tensor:
#      x y z
#    x 2.095010 0.000000 0.011290 
#    y 0.000000 1.901560 0.000000 
#    z 0.011290 0.000000 2.018300 
# 
# From -- ./inp_files/81488.got.cif
#   From: 2010.05.17/outbox.cif.g08.bks.cpg/sg15_41_cif.got.tgz:81488.got - 2010.06.03 18:47:42.
