data_PCOD9276013
_publ_section_title
;
Structure prediction by ZEFSAII (Michael W. Deem and Ramdas Pophale) SiO2 
 PCOD9276013
Probable space group: C 2/C
;
_chemical_formula_sum "Si O2"
_cell_formula_units_Z 56
_cell_length_a 17.471365
_cell_length_b 8.611982
_cell_length_c 17.954360
_cell_angle_alpha 90.000000
_cell_angle_beta 112.578870
_cell_angle_gamma 90.000000
_cell_volume 2494.405847
_symmetry_space_group_name_H-M "C 2/C"
_symmetry_group_IT_number 15
_symmetry_cell_setting 'monoclinic'
loop_
_space_group_symop_operation_xyz
x,y,z
-x,y,1/2-z
-x,-y,-z
x,-y,1/2+z
1/2+x,1/2+y,z
1/2-x,1/2+y,1/2-z
1/2-x,1/2-y,-z
1/2+x,1/2-y,1/2+z
loop_
_atom_site_type_symbol
_atom_site_label
_atom_site_fract_x
_atom_site_fract_y
_atom_site_fract_z
Si Si1 0.473051 0.136853 0.819309
Si Si2 0.905913 0.048274 0.947230
Si Si3 0.611592 0.294694 0.337865
Si Si4 0.624520 0.634778 0.402580
Si Si5 0.257359 0.626343 0.332999
Si Si6 0.046478 0.307976 0.650597
Si Si7 0.198073 0.275710 0.298939
O O1 0.500000 0.062279 0.750000
O O2 0.548876 0.241060 0.875244
O O3 0.396050 0.241077 0.765988
O O4 0.442701 0.992229 0.857007
O O5 0.914316 0.196202 0.896254
O O6 0.851807 0.910653 0.890988
O O7 0.860455 0.091365 0.006854
O O8 0.000000 0.000000 0.000000
O O9 0.601623 0.476030 0.351114
O O10 0.706007 0.233743 0.370685
O O11 0.552926 0.214480 0.377201
O O12 0.580743 0.250621 0.243364
O O13 0.698913 0.702073 0.380792
O O14 0.216585 0.456598 0.313904
O O15 0.250894 0.698292 0.247998
#
# Coordination Sequence:
#
# PCOD9276013 Si02
#       7
#     8   8   8   8   8   8   8
#     4  10  20  39  67 100 126 174 233 290 332 409
#     4  12  26  44  65 103 141 185 227 284 360 436
#     4  11  22  42  72 101 125 182 231 296 335 407
#     4  11  24  41  66  98 143 181 223 272 358 419
#     4  12  25  44  70 100 139 172 242 293 346 415
#     4  11  21  42  72  99 133 174 240 285 347 406
#     4  11  23  41  67  99 128 175 229 290 343 395
#
# _framework density 22.450236
#
# number of rings (size 3 to 8) (size 9 to 14) (size 15 to 20)
#    0.000    0.857    4.286    4.286    6.000    1.714 
#    0.000    0.000    0.000    0.000    0.000    0.000 
#    0.000    0.000    0.000    0.000    0.000    0.000 
#
# Total GULP energy -156439.309168 kJ/mol
# GULP energy per Si atom -5587.118185 kJ/mol
# Density = 2.239914 g / cm^3
# Si number density = 22.450236 Si / 1000 Ang^3
#
#
#
# Elastic Constant Matrix: (Units=GPa)
#
#
# Indices 1 2 3 4 5 6 
#
# 1 90.4473 9.7632 29.5013 0.0000 -9.6531 0.0000
# 2 9.7632 101.4053 36.7195 0.0000 -12.4677 0.0000
# 3 29.5013 36.7195 65.4813 0.0000 -11.7078 0.0000
# 4 0.0000 0.0000 0.0000 17.0855 0.0000 3.9375
# 5 -9.6531 -12.4677 -11.7078 0.0000 42.6645 0.0000
# 6 0.0000 0.0000 0.0000 3.9375 0.0000 39.4696
#
#
#
# Elastic Compliance Matrix: (Units=1/GPa)
#
#
# Indices 1 2 3 4 5 6 
#
# 1 0.013159 0.001221 -0.006327 0.000000 0.001598 0.000000
# 2 0.001221 0.012620 -0.007275 0.000000 0.001968 0.000000
# 3 -0.006327 -0.007275 0.022678 0.000000 0.002666 0.000000
# 4 0.000000 0.000000 0.000000 0.059907 0.000000 -0.005976
# 5 0.001598 0.001968 0.002666 0.000000 0.025107 0.000000
# 6 0.000000 0.000000 0.000000 -0.005976 0.000000 0.025932
#
#
# Mechanical properties :
#
#
# Convention : Reuss Voigt Hill
#
# Bulk Modulus (GPa) = 42.20486 45.47799 43.84143
# Shear Modulus (GPa) = 26.03300 31.93390 28.98345
#
# Velocity S-wave (km/s) = 3.40896 3.77560 3.59696
# Velocity P-wave (km/s) = 5.85959 6.26962 6.06807
#
# Compressibility (1/GPa) = 0.02369395
#
# Stress axis : x y z
#
# Youngs Moduli (GPa) = 75.99545 79.23816 44.09490
#
# Poissons Ratio (x) = -0.09672 0.27900
# Poissons Ratio (y) = -0.09277 0.32079
# Poissons Ratio (z) = 0.48084 0.57646
#
# Static dielectric constant tensor:
#      x y z
#    x 1.946040 0.000000 0.032580 
#    y 0.000000 1.820170 0.000000 
#    z 0.032580 0.000000 1.838480 
# 
# From -- ./inp_files/209640.got.cif
#   From: 2010.05.17/outbox.cif.g08.bks.cpg/sg15_105_cif.got.tgz:209640.got - 2010.06.03 18:47:42.
