data_PCOD9276271
_publ_section_title
;
Structure prediction by ZEFSAII (Michael W. Deem and Ramdas Pophale) SiO2 
 PCOD9276271
Probable space group: C 2/C
;
_chemical_formula_sum "Si O2"
_cell_formula_units_Z 64
_cell_length_a 18.407941
_cell_length_b 17.912086
_cell_length_c 23.595339
_cell_angle_alpha 90.000000
_cell_angle_beta 156.752108
_cell_angle_gamma 90.000000
_cell_volume 3070.830092
_symmetry_space_group_name_H-M "C 2/C"
_symmetry_group_IT_number 15
_symmetry_cell_setting 'monoclinic'
loop_
_space_group_symop_operation_xyz
x,y,z
-x,y,1/2-z
-x,-y,-z
x,-y,1/2+z
1/2+x,1/2+y,z
1/2-x,1/2+y,1/2-z
1/2-x,1/2-y,-z
1/2+x,1/2-y,1/2+z
loop_
_atom_site_type_symbol
_atom_site_label
_atom_site_fract_x
_atom_site_fract_y
_atom_site_fract_z
Si Si1 0.080888 0.472892 0.870640
Si Si2 0.225156 0.889402 0.654122
Si Si3 0.300332 0.748247 0.101689
Si Si4 0.656948 0.584956 0.398748
Si Si5 0.036169 0.084758 0.899466
Si Si6 0.798588 0.776500 0.239895
Si Si7 0.614434 0.207573 0.075267
Si Si8 0.890447 0.076218 0.304574
O O1 0.000000 0.489189 0.750000
O O2 0.920398 0.431578 0.789134
O O3 0.151552 0.544846 0.954594
O O4 0.275117 0.429428 0.000217
O O5 0.105031 0.909995 0.513668
O O6 0.276872 0.801945 0.691832
O O7 0.117251 0.911218 0.633786
O O8 0.500000 0.784877 0.250000
O O9 0.316646 0.658576 0.118503
O O10 0.179796 0.762172 0.070615
O O11 0.250000 0.750000 0.000000
O O12 0.500000 0.541498 0.250000
O O13 0.572541 0.602534 0.400482
O O14 0.937870 0.162429 0.815307
O O15 0.901297 0.012589 0.799412
O O16 0.857104 0.753079 0.345672
O O17 0.594766 0.810650 0.089982
O O18 0.728150 0.130816 0.166826
#
# Coordination Sequence:
#
# PCOD9276271 Si02
#       8
#     8   8   8   8   8   8   8   8
#     4   9  21  41  65  87 120 163 217 262 314 384
#     4  10  21  41  64  93 125 167 216 261 323 381
#     4  11  22  37  59  87 129 171 210 254 315 380
#     4  10  20  40  58  86 130 162 196 268 316 369
#     4  10  21  41  64  94 124 167 211 270 322 374
#     4  11  23  39  64  89 132 165 213 270 320 376
#     4  11  22  40  60  93 126 174 209 264 314 383
#     4  10  21  39  65  87 127 167 209 259 320 374
#
# _framework density 20.841270999999999
#
# number of rings (size 3 to 8) (size 9 to 14) (size 15 to 20)
#    0.000    1.750    3.750    1.125    1.750    2.500 
#    9.000    0.000    0.000    0.000    0.000    0.000 
#    0.000    0.000    0.000    0.000    0.000    0.000 
#
# Total GULP energy -178239.698702 kJ/mol
# GULP energy per Si atom -5569.990584 kJ/mol
# Density = 2.079383 g / cm^3
# Si number density = 20.841271 Si / 1000 Ang^3
#
#
#
# Elastic Constant Matrix: (Units=GPa)
#
#
# Indices 1 2 3 4 5 6 
#
# 1 60.2515 -4.9634 -3.0542 -0.0054 -7.5871 0.0052
# 2 -4.9634 70.4784 4.4385 -0.0216 6.6368 0.0077
# 3 -3.0542 4.4385 79.5427 -0.0236 2.0917 0.0162
# 4 -0.0054 -0.0216 -0.0236 24.5296 0.0144 0.1715
# 5 -7.5871 6.6368 2.0917 0.0144 25.8857 0.0066
# 6 0.0052 0.0077 0.0162 0.1715 0.0066 17.2888
#
#
#
# Elastic Compliance Matrix: (Units=1/GPa)
#
#
# Indices 1 2 3 4 5 6 
#
# 1 0.017292 0.000731 0.000496 0.000002 0.004841 -0.000008
# 2 0.000731 0.014611 -0.000696 0.000014 -0.003476 -0.000005
# 3 0.000496 -0.000696 0.012648 0.000012 -0.000698 -0.000012
# 4 0.000002 0.000014 0.000012 0.040770 -0.000027 -0.000404
# 5 0.004841 -0.003476 -0.000698 -0.000027 0.040998 -0.000015
# 6 -0.000008 -0.000005 -0.000012 -0.000404 -0.000015 0.057845
#
#
# Mechanical properties :
#
#
# Convention : Reuss Voigt Hill
#
# Bulk Modulus (GPa) = 21.92361 22.56826 22.24594
# Shear Modulus (GPa) = 25.21344 27.79761 26.50552
#
# Velocity S-wave (km/s) = 3.48197 3.65605 3.57007
# Velocity P-wave (km/s) = 5.16794 5.35485 5.26223
#
# Compressibility (1/GPa) = 0.04561293
#
# Stress axis : x y z
#
# Youngs Moduli (GPa) = 57.83017 68.44005 79.06326
#
# Poissons Ratio (x) = -0.05001 -0.03921
# Poissons Ratio (y) = -0.04226 0.05502
# Poissons Ratio (z) = -0.02868 0.04762
#
# Static dielectric constant tensor:
#      x y z
#    x 1.765440 -0.000010 0.011120 
#    y -0.000010 1.824810 -0.000020 
#    z 0.011120 -0.000020 1.764020 
# 
# From -- ./inp_files/301355.got.cif
#   From: 2010.05.17/outbox.cif.g08.bks.cpg/sg15_151_cif.got.tgz:301355.got - 2010.06.03 18:47:42.
