data_PCOD9276557
_publ_section_title
;
Structure prediction by ZEFSAII (Michael W. Deem and Ramdas Pophale) SiO2 
 PCOD9276557
Probable space group: C 2/C
;
_chemical_formula_sum "Si O2"
_cell_formula_units_Z 60
_cell_length_a 15.736066
_cell_length_b 18.462449
_cell_length_c 30.066808
_cell_angle_alpha 90.000000
_cell_angle_beta 161.675014
_cell_angle_gamma 90.000000
_cell_volume 2746.402975
_symmetry_space_group_name_H-M "C 2/C"
_symmetry_group_IT_number 15
_symmetry_cell_setting 'monoclinic'
loop_
_space_group_symop_operation_xyz
x,y,z
-x,y,1/2-z
-x,-y,-z
x,-y,1/2+z
1/2+x,1/2+y,z
1/2-x,1/2+y,1/2-z
1/2-x,1/2-y,-z
1/2+x,1/2-y,1/2+z
loop_
_atom_site_type_symbol
_atom_site_label
_atom_site_fract_x
_atom_site_fract_y
_atom_site_fract_z
Si Si1 0.204410 0.142297 0.679763
Si Si2 0.848831 0.576315 0.396993
Si Si3 0.000000 0.326632 0.750000
Si Si4 0.955640 0.083309 0.990803
Si Si5 0.633666 0.187254 0.411671
Si Si6 0.776926 0.405000 0.025784
Si Si7 0.145171 0.190107 0.229728
Si Si8 0.337157 0.495576 0.611097
O O1 0.218684 0.119374 0.635392
O O2 0.401415 0.098048 0.809329
O O3 0.305541 0.225150 0.737400
O O4 0.887656 0.133823 0.533757
O O5 0.724959 0.648094 0.314327
O O6 0.805752 0.565817 0.428023
O O7 0.651635 0.512086 0.279922
O O8 0.155832 0.564438 0.533836
O O9 0.743480 0.376350 0.633505
O O10 0.931041 0.285391 0.670281
O O11 0.830889 0.091434 0.977580
O O12 0.000000 0.000000 0.000000
O O13 0.750000 0.250000 0.500000
O O14 0.363003 0.161982 0.301291
O O15 0.640122 0.336892 0.931756
O O16 0.694740 0.473160 0.955355
#
# Coordination Sequence:
#
# PCOD9276557 Si02
#       8
#     8   8   4   8   8   8   8   8
#     4  10  23  40  58  90 126 156 207 259 304 374
#     4   9  19  38  61  89 119 159 199 253 306 359
#     4  10  20  40  64  86 126 170 206 266 314 378
#     4  11  25  41  63  91 128 167 211 261 321 382
#     4   9  19  38  61  86 120 163 206 247 309 378
#     4  11  22  40  61  94 122 163 203 261 312 376
#     4  10  20  40  63  87 121 166 204 250 316 369
#     4   9  20  37  59  87 122 154 205 246 304 361
#
# _framework density 21.846757
#
# number of rings (size 3 to 8) (size 9 to 14) (size 15 to 20)
#    0.000    2.133    1.333    0.800    1.867    5.333 
#   12.000    1.333    0.000    9.600    0.000    0.000 
#    0.000    0.000    0.000    0.000    0.000    0.000 
#
# Total GULP energy -167336.891674 kJ/mol
# GULP energy per Si atom -5577.896389 kJ/mol
# Density = 2.179703 g / cm^3
# Si number density = 21.846757 Si / 1000 Ang^3
#
#
#
# Elastic Constant Matrix: (Units=GPa)
#
#
# Indices 1 2 3 4 5 6 
#
# 1 89.2269 15.7723 25.0369 0.0428 -23.8897 -0.0087
# 2 15.7723 42.5049 5.2831 0.0059 -18.2100 -0.0031
# 3 25.0369 5.2831 108.3580 0.0422 -13.3002 -0.0383
# 4 0.0428 0.0059 0.0422 16.2695 -0.0317 -9.1774
# 5 -23.8897 -18.2100 -13.3002 -0.0317 36.5171 0.0089
# 6 -0.0087 -0.0031 -0.0383 -9.1774 0.0089 20.9581
#
#
#
# Elastic Compliance Matrix: (Units=1/GPa)
#
#
# Indices 1 2 3 4 5 6 
#
# 1 0.014180 -0.001728 -0.002260 -0.000023 0.007591 -0.000012
# 2 -0.001728 0.030145 0.000666 0.000025 0.014144 0.000010
# 3 -0.002260 0.000666 0.010026 -0.000008 0.002505 0.000013
# 4 -0.000023 0.000025 -0.000008 0.081627 0.000057 0.035744
# 5 0.007591 0.014144 0.002505 0.000057 0.040316 0.000018
# 6 -0.000012 0.000010 0.000013 0.035744 0.000018 0.063366
#
#
# Mechanical properties :
#
#
# Convention : Reuss Voigt Hill
#
# Bulk Modulus (GPa) = 20.96239 36.91938 28.94088
# Shear Modulus (GPa) = 19.06885 27.68211 23.37548
#
# Velocity S-wave (km/s) = 2.95760 3.56350 3.27460
# Velocity P-wave (km/s) = 4.61294 5.81956 5.25103
#
# Compressibility (1/GPa) = 0.04770449
#
# Stress axis : x y z
#
# Youngs Moduli (GPa) = 70.52378 33.17308 99.74142
#
# Poissons Ratio (x) = 0.05734 0.22544
# Poissons Ratio (y) = 0.12190 -0.06640
# Poissons Ratio (z) = 0.15940 -0.02208
#
# Static dielectric constant tensor:
#      x y z
#    x 1.839980 0.000000 0.037230 
#    y 0.000000 1.769300 -0.000050 
#    z 0.037230 -0.000050 1.839140 
# 
# From -- ./inp_files/297061.got.cif
#   From: 2010.05.17/outbox.cif.g08.bks.cpg/sg15_149_cif.got.tgz:297061.got - 2010.06.03 18:47:42.
