data_PCOD9276274
_publ_section_title
;
Structure prediction by ZEFSAII (Michael W. Deem and Ramdas Pophale) SiO2 
 PCOD9276274
Probable space group: C 2/C
;
_chemical_formula_sum "Si O2"
_cell_formula_units_Z 56
_cell_length_a 24.400946
_cell_length_b 8.449093
_cell_length_c 13.484380
_cell_angle_alpha 90.000000
_cell_angle_beta 56.332314
_cell_angle_gamma 90.000000
_cell_volume 2313.717690
_symmetry_space_group_name_H-M "C 2/C"
_symmetry_group_IT_number 15
_symmetry_cell_setting 'monoclinic'
loop_
_space_group_symop_operation_xyz
x,y,z
-x,y,1/2-z
-x,-y,-z
x,-y,1/2+z
1/2+x,1/2+y,z
1/2-x,1/2+y,1/2-z
1/2-x,1/2-y,-z
1/2+x,1/2-y,1/2+z
loop_
_atom_site_type_symbol
_atom_site_label
_atom_site_fract_x
_atom_site_fract_y
_atom_site_fract_z
Si Si1 0.534430 0.414102 0.114950
Si Si2 0.458113 0.127857 0.105416
Si Si3 0.765892 0.061332 0.863883
Si Si4 0.000000 0.440285 0.250000
Si Si5 0.226929 0.062111 0.876881
Si Si6 0.250000 0.250000 0.000000
Si Si7 0.663777 0.737247 0.541069
Si Si8 0.897723 0.756392 0.986850
O O1 0.500000 0.472950 0.250000
O O2 0.490416 0.302470 0.089698
O O3 0.588472 0.291474 0.100290
O O4 0.570995 0.566711 0.032898
O O5 0.459259 0.045692 0.211442
O O6 0.397457 0.166719 0.092739
O O7 0.500000 0.000000 0.000000
O O8 0.771064 0.071876 0.741383
O O9 0.812047 0.190013 0.873766
O O10 0.691539 0.103247 0.969591
O O11 0.781601 0.894799 0.895941
O O12 0.945981 0.335575 0.364054
O O13 0.285650 0.111760 0.887470
O O14 0.178024 0.205639 0.970537
O O15 0.198736 0.895668 0.936971
#
# Coordination Sequence:
#
# PCOD9276274 Si02
#       8
#     8   8   8   4   8   4   8   8
#     4  11  21  39  66  87 125 168 212 259 313 382
#     4  10  22  38  58  87 128 160 208 255 314 386
#     4  10  20  40  65  89 131 159 212 264 317 379
#     4  10  20  40  58  88 134 166 202 266 310 384
#     4  10  21  39  64  91 124 160 212 268 308 385
#     4  10  22  40  60  98 124 162 212 256 326 388
#     4   9  22  39  61  92 120 168 209 257 318 370
#     4  10  22  40  62  93 122 171 218 253 322 382
#
# _framework density 24.203472000000001
#
# number of rings (size 3 to 8) (size 9 to 14) (size 15 to 20)
#    0.000    2.000    1.429    1.286    2.000    2.286 
#    0.000    7.143    0.000    0.000    0.000    0.000 
#    0.000    0.000    0.000    0.000    0.000    0.000 
#
# Total GULP energy -155921.714130 kJ/mol
# GULP energy per Si atom -5568.632647 kJ/mol
# Density = 2.414838 g / cm^3
# Si number density = 24.203472 Si / 1000 Ang^3
#
#
#
# Elastic Constant Matrix: (Units=GPa)
#
#
# Indices 1 2 3 4 5 6 
#
# 1 80.8592 15.1596 41.1461 0.0000 24.2399 0.0000
# 2 15.1596 96.9920 42.1787 0.0000 16.8715 0.0000
# 3 41.1461 42.1787 117.8352 0.0000 54.7480 0.0000
# 4 0.0000 0.0000 0.0000 24.9827 0.0000 -0.0232
# 5 24.2399 16.8715 54.7480 0.0000 46.8315 0.0000
# 6 0.0000 0.0000 0.0000 -0.0232 0.0000 37.0818
#
#
#
# Elastic Compliance Matrix: (Units=1/GPa)
#
#
# Indices 1 2 3 4 5 6 
#
# 1 0.015326 -0.000204 -0.003562 0.000000 -0.003695 0.000000
# 2 -0.000204 0.012266 -0.005068 0.000000 0.001611 0.000000
# 3 -0.003562 -0.005068 0.021538 0.000000 -0.021509 0.000000
# 4 0.000000 0.000000 0.000000 0.040028 0.000000 0.000025
# 5 -0.003695 0.001611 -0.021509 0.000000 0.047831 0.000000
# 6 0.000000 0.000000 0.000000 0.000025 0.000000 0.026967
#
#
# Mechanical properties :
#
#
# Convention : Reuss Voigt Hill
#
# Bulk Modulus (GPa) = 31.78400 54.73948 43.26174
# Shear Modulus (GPa) = 26.02701 34.92600 30.47651
#
# Velocity S-wave (km/s) = 3.28280 3.80283 3.55234
# Velocity P-wave (km/s) = 5.24686 6.47669 5.89394
#
# Compressibility (1/GPa) = 0.03146237
#
# Stress axis : x y z
#
# Youngs Moduli (GPa) = 65.25068 81.52905 46.43051
#
# Poissons Ratio (x) = 0.01661 0.16536
# Poissons Ratio (y) = 0.01329 0.23531
# Poissons Ratio (z) = 0.23239 0.41318
#
# Static dielectric constant tensor:
#      x y z
#    x -3.748000 0.000000 -1.627820 
#    y 0.000000 2.038910 0.000000 
#    z -1.627820 0.000000 1.485420 
# 
# From -- ./inp_files/176537.got.cif
#   From: 2010.05.17/outbox.cif.g08.bks.cpg/sg15_89_cif.got.tgz:176537.got - 2010.06.03 18:47:42.
