data_PCOD9276895
_publ_section_title
;
Structure prediction by ZEFSAII (Michael W. Deem and Ramdas Pophale) SiO2 
 PCOD9276895
Probable space group: C 2/C
;
_chemical_formula_sum "Si O2"
_cell_formula_units_Z 52
_cell_length_a 11.247593
_cell_length_b 16.296291
_cell_length_c 14.452033
_cell_angle_alpha 90.000000
_cell_angle_beta 76.932140
_cell_angle_gamma 90.000000
_cell_volume 2580.371098
_symmetry_space_group_name_H-M "C 2/C"
_symmetry_group_IT_number 15
_symmetry_cell_setting 'monoclinic'
loop_
_space_group_symop_operation_xyz
x,y,z
-x,y,1/2-z
-x,-y,-z
x,-y,1/2+z
1/2+x,1/2+y,z
1/2-x,1/2+y,1/2-z
1/2-x,1/2-y,-z
1/2+x,1/2-y,1/2+z
loop_
_atom_site_type_symbol
_atom_site_label
_atom_site_fract_x
_atom_site_fract_y
_atom_site_fract_z
Si Si1 0.758520 0.331451 0.936169
Si Si2 0.017000 0.915538 0.046416
Si Si3 0.500000 0.376949 0.250000
Si Si4 0.176271 0.769840 0.422191
Si Si5 0.028523 0.606315 0.434695
Si Si6 0.758139 0.707530 0.714314
Si Si7 0.547532 0.066388 0.848824
O O1 0.888717 0.375719 0.926798
O O2 0.729134 0.294202 0.839958
O O3 0.750000 0.250000 0.000000
O O4 0.650209 0.386189 0.993601
O O5 0.001214 0.929339 0.158025
O O6 0.918318 0.843999 0.043728
O O7 0.000000 0.000000 0.000000
O O8 0.381114 0.320372 0.276979
O O9 0.250000 0.750000 0.500000
O O10 0.268987 0.788829 0.322738
O O11 0.100291 0.690041 0.404882
O O12 0.034153 0.588544 0.545139
O O13 0.079605 0.528048 0.369274
O O14 0.846511 0.635152 0.664162
O O15 0.500000 0.068396 0.750000
#
# Coordination Sequence:
#
# PCOD9276895 Si02
#       7
#     8   8   4   8   8   8   8
#     4  12  20  43  71  93 125 171 228 261 317 392
#     4  11  24  42  66  95 132 170 215 270 321 380
#     4  10  20  40  66  88 128 166 214 260 318 374
#     4  11  24  43  63  95 138 169 213 267 333 386
#     4  11  24  42  67  97 129 174 219 274 319 393
#     4  11  22  40  69  94 127 175 215 268 320 384
#     4  11  24  40  63  97 136 166 218 268 331 380
#
# _framework density 20.152141
#
# number of rings (size 3 to 8) (size 9 to 14) (size 15 to 20)
#    0.000    0.923    4.615    1.846    2.154    6.154 
#    2.769    0.000    0.000    0.000    0.000    0.000 
#    0.000    0.000    0.000    0.000    0.000    0.000 
#
# Total GULP energy -145122.583061 kJ/mol
# GULP energy per Si atom -5581.637810 kJ/mol
# Density = 2.010627 g / cm^3
# Si number density = 20.152141 Si / 1000 Ang^3
#
#
#
# Elastic Constant Matrix: (Units=GPa)
#
#
# Indices 1 2 3 4 5 6 
#
# 1 63.7069 31.2020 43.0562 0.0000 6.8520 0.0000
# 2 31.2020 123.6877 39.4519 0.0000 -0.7484 0.0000
# 3 43.0562 39.4519 104.9321 0.0000 10.1990 0.0000
# 4 0.0000 0.0000 0.0000 32.4906 0.0000 4.4892
# 5 6.8520 -0.7484 10.1990 0.0000 29.4584 0.0000
# 6 0.0000 0.0000 0.0000 4.4892 0.0000 25.4780
#
#
#
# Elastic Compliance Matrix: (Units=1/GPa)
#
#
# Indices 1 2 3 4 5 6 
#
# 1 0.022944 -0.003277 -0.007922 0.000000 -0.002677 0.000000
# 2 -0.003277 0.009717 -0.002491 0.000000 0.001871 0.000000
# 3 -0.007922 -0.002491 0.014016 0.000000 -0.003073 0.000000
# 4 0.000000 0.000000 0.000000 0.031546 0.000000 -0.005558
# 5 -0.002677 0.001871 -0.003073 0.000000 0.035680 0.000000
# 6 0.000000 0.000000 0.000000 -0.005558 0.000000 0.040229
#
#
# Mechanical properties :
#
#
# Convention : Reuss Voigt Hill
#
# Bulk Modulus (GPa) = 51.82134 57.74967 54.78550
# Shear Modulus (GPa) = 26.60350 29.39317 27.99833
#
# Velocity S-wave (km/s) = 3.63730 3.82326 3.73144
# Velocity P-wave (km/s) = 6.58869 6.94325 6.76830
#
# Compressibility (1/GPa) = 0.01929707
#
# Stress axis : x y z
#
# Youngs Moduli (GPa) = 43.58414 102.90840 71.34839
#
# Poissons Ratio (x) = 0.33726 0.56523
# Poissons Ratio (y) = 0.14284 0.17770
# Poissons Ratio (z) = 0.34528 0.25631
#
# Static dielectric constant tensor:
#      x y z
#    x 1.560140 0.000000 0.118570 
#    y 0.000000 1.629900 0.000000 
#    z 0.118570 0.000000 1.769770 
# 
# From -- ./inp_files/144136.got.cif
#   From: 2010.05.17/outbox.cif.g08.bks.cpg/sg15_73_cif.got.tgz:144136.got - 2010.06.03 18:47:42.
