data_PCOD9276219
_publ_section_title
;
Structure prediction by ZEFSAII (Michael W. Deem and Ramdas Pophale) SiO2 
 PCOD9276219
Probable space group: C 2/C
;
_chemical_formula_sum "Si O2"
_cell_formula_units_Z 64
_cell_length_a 8.791298
_cell_length_b 30.549801
_cell_length_c 17.517190
_cell_angle_alpha 90.000000
_cell_angle_beta 141.900876
_cell_angle_gamma 90.000000
_cell_volume 2902.871253
_symmetry_space_group_name_H-M "C 2/C"
_symmetry_group_IT_number 15
_symmetry_cell_setting 'monoclinic'
loop_
_space_group_symop_operation_xyz
x,y,z
-x,y,1/2-z
-x,-y,-z
x,-y,1/2+z
1/2+x,1/2+y,z
1/2-x,1/2+y,1/2-z
1/2-x,1/2-y,-z
1/2+x,1/2-y,1/2+z
loop_
_atom_site_type_symbol
_atom_site_label
_atom_site_fract_x
_atom_site_fract_y
_atom_site_fract_z
Si Si1 0.741193 0.583713 0.996962
Si Si2 0.949780 0.365568 0.434054
Si Si3 0.040581 0.915908 0.856294
Si Si4 0.895733 0.489559 0.042648
Si Si5 0.505529 0.237414 0.556896
Si Si6 0.317540 0.080229 0.747274
Si Si7 0.262238 0.233328 0.309946
Si Si8 0.410007 0.146841 0.291040
O O1 0.814402 0.603994 0.943298
O O2 0.455636 0.574789 0.889090
O O3 0.864591 0.537454 0.064467
O O4 0.844735 0.620744 0.091363
O O5 0.829636 0.377916 0.306310
O O6 0.230021 0.382830 0.544886
O O7 0.953278 0.313896 0.441725
O O8 0.000000 0.924268 0.750000
O O9 0.804387 0.890171 0.795568
O O10 0.144957 0.960661 0.935322
O O11 0.087334 0.460462 0.165113
O O12 0.000000 0.500000 0.000000
O O13 0.250000 0.250000 0.500000
O O14 0.456872 0.253973 0.449020
O O15 0.710730 0.249435 0.702854
O O16 0.500000 0.085839 0.750000
O O17 0.330689 0.182653 0.321136
O O18 0.000000 0.235454 0.250000
O O19 0.500000 0.170100 0.250000
#
# Coordination Sequence:
#
# PCOD9276219 Si02
#       8
#     8   8   8   8   8   8   8   8
#     4  12  25  45  71  99 139 192 242 293 360 436
#     4  11  22  43  73 100 138 190 237 295 362 446
#     4  11  20  39  68 100 131 181 241 289 352 427
#     4  11  24  41  70  99 134 187 242 292 351 424
#     4  10  20  39  73 108 140 182 240 299 363 440
#     4  11  28  46  67 106 144 186 246 304 363 426
#     4  10  21  43  72 106 142 188 243 297 362 450
#     4  12  26  43  67 101 146 187 233 300 361 425
#
# _framework density 22.047136999999999
#
# number of rings (size 3 to 8) (size 9 to 14) (size 15 to 20)
#    0.000    1.000    5.000    2.250    7.000    2.500 
#    2.250    1.875    0.000    0.000    0.000    0.000 
#    0.000    0.000    0.000    0.000    0.000    0.000 
#
# Total GULP energy -178498.355370 kJ/mol
# GULP energy per Si atom -5578.073605 kJ/mol
# Density = 2.199696 g / cm^3
# Si number density = 22.047137 Si / 1000 Ang^3
#
#
#
# Elastic Constant Matrix: (Units=GPa)
#
#
# Indices 1 2 3 4 5 6 
#
# 1 63.8688 -1.1477 -2.0069 0.0000 -6.4867 0.0000
# 2 -1.1477 89.2782 15.5971 0.0000 -7.6676 0.0000
# 3 -2.0069 15.5971 63.4989 0.0000 1.1607 0.0000
# 4 0.0000 0.0000 0.0000 26.3510 0.0000 -2.7949
# 5 -6.4867 -7.6676 1.1607 0.0000 15.5987 0.0000
# 6 0.0000 0.0000 0.0000 -2.7949 0.0000 13.9593
#
#
#
# Elastic Compliance Matrix: (Units=1/GPa)
#
#
# Indices 1 2 3 4 5 6 
#
# 1 0.016409 0.000796 0.000191 0.000000 0.007201 0.000000
# 2 0.000796 0.012326 -0.003123 0.000000 0.006622 0.000000
# 3 0.000191 -0.003123 0.016571 0.000000 -0.002689 0.000000
# 4 0.000000 0.000000 0.000000 0.038773 0.000000 0.007763
# 5 0.007201 0.006622 -0.002689 0.000000 0.070558 0.000000
# 6 0.000000 0.000000 0.000000 0.007763 0.000000 0.073191
#
#
# Mechanical properties :
#
#
# Convention : Reuss Voigt Hill
#
# Bulk Modulus (GPa) = 24.37063 26.83676 25.60370
# Shear Modulus (GPa) = 20.34372 24.79535 22.56953
#
# Velocity S-wave (km/s) = 3.04095 3.35722 3.20299
# Velocity P-wave (km/s) = 4.83816 5.21793 5.03163
#
# Compressibility (1/GPa) = 0.04103299
#
# Stress axis : x y z
#
# Youngs Moduli (GPa) = 60.94315 81.13204 60.34744
#
# Poissons Ratio (x) = -0.06457 -0.01155
# Poissons Ratio (y) = -0.04851 0.18849
# Poissons Ratio (z) = -0.01167 0.25341
#
# Static dielectric constant tensor:
#      x y z
#    x 1.838720 0.000000 -0.017450 
#    y 0.000000 1.718560 0.000000 
#    z -0.017450 0.000000 1.883780 
# 
# From -- ./inp_files/194277.got.cif
#   From: 2010.05.17/outbox.cif.g08.bks.cpg/sg15_98_cif.got.tgz:194277.got - 2010.06.03 18:47:42.
