data_PCOD9276741
_publ_section_title
;
Structure prediction by ZEFSAII (Michael W. Deem and Ramdas Pophale) SiO2 
 PCOD9276741
Probable space group: C 2/C
;
_chemical_formula_sum "Si O2"
_cell_formula_units_Z 48
_cell_length_a 11.580538
_cell_length_b 14.882992
_cell_length_c 20.571944
_cell_angle_alpha 90.000000
_cell_angle_beta 39.373556
_cell_angle_gamma 90.000000
_cell_volume 2249.259468
_symmetry_space_group_name_H-M "C 2/C"
_symmetry_group_IT_number 15
_symmetry_cell_setting 'monoclinic'
loop_
_space_group_symop_operation_xyz
x,y,z
-x,y,1/2-z
-x,-y,-z
x,-y,1/2+z
1/2+x,1/2+y,z
1/2-x,1/2+y,1/2-z
1/2-x,1/2-y,-z
1/2+x,1/2-y,1/2+z
loop_
_atom_site_type_symbol
_atom_site_label
_atom_site_fract_x
_atom_site_fract_y
_atom_site_fract_z
Si Si1 0.608904 0.799839 0.014143
Si Si2 0.113567 0.772054 0.140372
Si Si3 0.794602 0.048718 0.634975
Si Si4 0.017656 0.531521 0.635298
Si Si5 0.500336 0.162063 0.422527
Si Si6 0.384631 0.359136 0.575933
O O1 0.630694 0.816355 0.927029
O O2 0.750000 0.750000 0.000000
O O3 0.572996 0.897646 0.057219
O O4 0.445024 0.728359 0.088431
O O5 0.988041 0.741422 0.135527
O O6 0.200104 0.675662 0.124199
O O7 0.000000 0.810179 0.250000
O O8 0.289385 0.829273 0.041001
O O9 0.677974 0.030125 0.619781
O O10 0.654612 0.073491 0.751637
O O11 0.959092 0.113618 0.544109
O O12 0.866908 0.950235 0.623255
O O13 0.977270 0.434937 0.620651
#
# Coordination Sequence:
#
# PCOD9276741 Si02
#       6
#     8   8   8   8   8   8
#     4  11  23  42  64  91 135 173 209 271 333 387
#     4  10  20  40  67  98 128 172 226 274 330 384
#     4  10  21  38  67  95 124 178 229 262 329 399
#     4  11  21  42  65  94 134 175 218 269 338 392
#     4  10  22  39  66  95 130 170 221 277 324 390
#     4  10  20  40  64  95 125 169 223 280 311 397
#
# _framework density 21.340357000000001
#
# number of rings (size 3 to 8) (size 9 to 14) (size 15 to 20)
#    0.000    1.667    3.333    1.500    0.000    0.000 
#   24.000    0.000    0.000    0.000    0.000    0.000 
#    0.000    0.000    0.000    0.000    0.000    0.000 
#
# Total GULP energy -133776.098807 kJ/mol
# GULP energy per Si atom -5574.004117 kJ/mol
# Density = 2.129179 g / cm^3
# Si number density = 21.340357 Si / 1000 Ang^3
#
#
#
# Elastic Constant Matrix: (Units=GPa)
#
#
# Indices 1 2 3 4 5 6 
#
# 1 109.7716 11.4210 11.7161 0.0001 23.4589 0.0000
# 2 11.4210 58.3464 -8.7607 0.0001 2.5957 0.0000
# 3 11.7161 -8.7607 81.8642 0.0003 8.8462 0.0000
# 4 0.0001 0.0001 0.0003 17.9700 -0.0001 -5.7454
# 5 23.4589 2.5957 8.8462 -0.0001 24.5863 0.0000
# 6 0.0000 0.0000 0.0000 -5.7454 0.0000 28.0331
#
#
#
# Elastic Compliance Matrix: (Units=1/GPa)
#
#
# Indices 1 2 3 4 5 6 
#
# 1 0.011666 -0.001917 -0.000722 0.000000 -0.010669 0.000000
# 2 -0.001917 0.017897 0.002285 0.000000 -0.000882 0.000000
# 3 -0.000722 0.002285 0.013021 0.000000 -0.004237 0.000000
# 4 0.000000 0.000000 0.000000 0.059550 0.000000 0.012205
# 5 -0.010669 -0.000882 -0.004237 0.000000 0.052471 0.000000
# 6 0.000000 0.000000 0.000000 0.012205 0.000000 0.038174
#
#
# Mechanical properties :
#
#
# Convention : Reuss Voigt Hill
#
# Bulk Modulus (GPa) = 23.88034 30.97055 27.42545
# Shear Modulus (GPa) = 24.10263 29.82495 26.96379
#
# Velocity S-wave (km/s) = 3.36436 3.74248 3.55845
# Velocity P-wave (km/s) = 5.12898 5.76360 5.45552
#
# Compressibility (1/GPa) = 0.04187544
#
# Stress axis : x y z
#
# Youngs Moduli (GPa) = 85.71567 55.87639 76.79855
#
# Poissons Ratio (x) = 0.10714 0.05544
# Poissons Ratio (y) = 0.16435 -0.17548
# Poissons Ratio (z) = 0.06188 -0.12767
#
# Static dielectric constant tensor:
#      x y z
#    x 1.911380 0.000000 0.023730 
#    y 0.000000 1.725980 0.000000 
#    z 0.023730 0.000000 1.832570 
# 
# From -- ./inp_files/238939.got.cif
#   From: 2010.05.17/outbox.cif.g08.bks.cpg/sg15_120_cif.got.tgz:238939.got - 2010.06.03 18:47:42.
