data_PCOD9276619
_publ_section_title
;
Structure prediction by ZEFSAII (Michael W. Deem and Ramdas Pophale) SiO2 
 PCOD9276619
Probable space group: C 2/C
;
_chemical_formula_sum "Si O2"
_cell_formula_units_Z 48
_cell_length_a 8.732849
_cell_length_b 26.581736
_cell_length_c 15.458533
_cell_angle_alpha 90.000000
_cell_angle_beta 40.261648
_cell_angle_gamma 90.000000
_cell_volume 2319.143912
_symmetry_space_group_name_H-M "C 2/C"
_symmetry_group_IT_number 15
_symmetry_cell_setting 'monoclinic'
loop_
_space_group_symop_operation_xyz
x,y,z
-x,y,1/2-z
-x,-y,-z
x,-y,1/2+z
1/2+x,1/2+y,z
1/2-x,1/2+y,1/2-z
1/2-x,1/2-y,-z
1/2+x,1/2-y,1/2+z
loop_
_atom_site_type_symbol
_atom_site_label
_atom_site_fract_x
_atom_site_fract_y
_atom_site_fract_z
Si Si1 0.761144 0.704794 0.295018
Si Si2 0.918380 0.900724 0.686899
Si Si3 0.098670 0.572427 0.615128
Si Si4 0.950734 0.270180 0.978972
Si Si5 0.727531 0.881109 0.394497
Si Si6 0.981968 0.531170 0.417508
O O1 0.707551 0.647056 0.300608
O O2 0.560079 0.734254 0.433862
O O3 0.000000 0.708498 0.250000
O O4 0.813740 0.729486 0.179508
O O5 0.733375 0.946183 0.779814
O O6 0.000000 0.888363 0.750000
O O7 0.142249 0.912467 0.530224
O O8 0.000000 0.589410 0.750000
O O9 0.919220 0.595452 0.621628
O O10 0.100634 0.511621 0.611838
O O11 0.880215 0.327042 0.034602
O O12 0.750000 0.250000 0.000000
O O13 0.686742 0.921248 0.489761
O O14 0.000000 0.876003 0.250000
O O15 0.000000 0.500000 0.500000
#
# Coordination Sequence:
#
# PCOD9276619 Si02
#       6
#     8   8   8   8   8   8
#     4  10  22  39  66  97 128 171 217 270 322 381
#     4  12  22  45  70  90 136 173 217 268 323 402
#     4  11  27  43  63 103 135 168 217 278 334 386
#     4  10  20  40  63  98 129 168 225 266 319 385
#     4  11  22  41  70  93 129 178 222 266 326 393
#     4  10  22  40  67  91 126 175 221 252 333 390
#
# _framework density 20.697291
#
# number of rings (size 3 to 8) (size 9 to 14) (size 15 to 20)
#    0.000    1.333    5.000    1.500    4.667    5.333 
#    0.000    4.167    0.000    0.000    0.000    0.000 
#    0.000    0.000    0.000    0.000    0.000    0.000 
#
# Total GULP energy -133993.879337 kJ/mol
# GULP energy per Si atom -5583.078306 kJ/mol
# Density = 2.065018 g / cm^3
# Si number density = 20.697291 Si / 1000 Ang^3
#
#
#
# Elastic Constant Matrix: (Units=GPa)
#
#
# Indices 1 2 3 4 5 6 
#
# 1 13.3966 17.3814 36.7726 0.0000 8.2641 0.0000
# 2 17.3814 91.4421 35.9379 0.0000 23.0986 0.0000
# 3 36.7726 35.9379 191.8639 0.0000 18.7222 0.0000
# 4 0.0000 0.0000 0.0000 -1.2607 0.0000 7.0947
# 5 8.2641 23.0986 18.7222 0.0000 18.9302 0.0000
# 6 0.0000 0.0000 0.0000 7.0947 0.0000 25.1593
#
#
#
# Elastic Compliance Matrix: (Units=1/GPa)
#
#
# Indices 1 2 3 4 5 6 
#
# 1 0.215210 -0.017756 -0.034165 0.000000 -0.038497 0.000000
# 2 -0.017756 0.017524 0.001606 0.000000 -0.015220 0.000000
# 3 -0.034165 0.001606 0.011284 0.000000 0.001796 0.000000
# 4 0.000000 0.000000 0.000000 -0.306619 0.000000 0.086463
# 5 -0.038497 -0.015220 0.001796 0.000000 0.086428 0.000000
# 6 0.000000 0.000000 0.000000 0.086463 0.000000 0.015365
#
#
# Mechanical properties :
#
#
# Convention : Reuss Voigt Hill
#
# Bulk Modulus (GPa) = 6.97403 52.98738 29.98071
# Shear Modulus (GPa) = 26.64996 22.33980 24.49488
#
# Velocity S-wave (km/s) = 3.59222 3.28892 3.44391
# Velocity P-wave (km/s) = 4.53676 6.33083 5.50734
#
# Compressibility (1/GPa) = 0.14338907
#
# Stress axis : x y z
#
# Youngs Moduli (GPa) = 4.64663 57.06309 88.62055
#
# Poissons Ratio (x) = 1.01319 3.02770
# Poissons Ratio (y) = 0.08250 -0.14230
# Poissons Ratio (z) = 0.15875 -0.09163
#
# Static dielectric constant tensor:
#      x y z
#    x 1.749980 0.000000 0.026720 
#    y 0.000000 1.734180 0.000000 
#    z 0.026720 0.000000 1.768680 
# 
# From -- ./inp_files/138896.got.cif
#   From: 2010.05.17/outbox.cif.g08.bks.cpg/sg15_70_cif.got.tgz:138896.got - 2010.06.03 18:47:42.
