data_PCOD9276294
_publ_section_title
;
Structure prediction by ZEFSAII (Michael W. Deem and Ramdas Pophale) SiO2 
 PCOD9276294
Probable space group: C 2/C
;
_chemical_formula_sum "Si O2"
_cell_formula_units_Z 36
_cell_length_a 4.950696
_cell_length_b 22.134346
_cell_length_c 14.536068
_cell_angle_alpha 90.000000
_cell_angle_beta 90.025128
_cell_angle_gamma 90.000000
_cell_volume 1592.868257
_symmetry_space_group_name_H-M "C 2/C"
_symmetry_group_IT_number 15
_symmetry_cell_setting 'monoclinic'
loop_
_space_group_symop_operation_xyz
x,y,z
-x,y,1/2-z
-x,-y,-z
x,-y,1/2+z
1/2+x,1/2+y,z
1/2-x,1/2+y,1/2-z
1/2-x,1/2-y,-z
1/2+x,1/2-y,1/2+z
loop_
_atom_site_type_symbol
_atom_site_label
_atom_site_fract_x
_atom_site_fract_y
_atom_site_fract_z
Si Si1 0.276655 0.516280 0.123725
Si Si2 0.502779 0.812546 0.922341
Si Si3 0.217369 0.558425 0.914039
Si Si4 0.000000 0.391999 0.750000
Si Si5 0.507698 0.674816 0.956378
O O1 0.578496 0.492452 0.122945
O O2 0.072258 0.459093 0.126458
O O3 0.213157 0.563924 0.201996
O O4 0.216401 0.547701 0.024765
O O5 0.586746 0.848545 0.832472
O O6 0.538213 0.740582 0.911155
O O7 0.193882 0.818419 0.955906
O O8 0.695798 0.838195 0.003455
O O9 0.362040 0.622656 0.898094
#
# Coordination Sequence:
#
# PCOD9276294 Si02
#       5
#     8   8   8   4   8
#     4  10  23  34  61  88 125 156 204 244 320 350
#     4  10  23  36  64  90 124 157 208 254 318 353
#     4  10  20  40  59  88 116 170 202 245 290 397
#     4  12  24  42  58 102 124 158 196 288 300 372
#     4  10  20  42  62  89 116 170 208 247 296 398
#
# _framework density 22.600739999999998
#
# number of rings (size 3 to 8) (size 9 to 14) (size 15 to 20)
#    0.000    1.778    2.222    1.333    6.222    3.556 
#    0.000    2.222    0.000    0.000    0.000    0.000 
#    0.000    0.000    0.000    0.000    0.000    0.000 
#
# Total GULP energy -100586.180604 kJ/mol
# GULP energy per Si atom -5588.121145 kJ/mol
# Density = 2.254930 g / cm^3
# Si number density = 22.600740 Si / 1000 Ang^3
#
#
#
# Elastic Constant Matrix: (Units=GPa)
#
#
# Indices 1 2 3 4 5 6 
#
# 1 89.6236 8.1369 16.4585 0.0000 -7.2819 0.0000
# 2 8.1369 134.5181 55.6601 0.0000 0.2509 0.0000
# 3 16.4585 55.6601 83.7187 0.0000 -20.1497 0.0000
# 4 0.0000 0.0000 0.0000 49.3854 0.0000 -4.4743
# 5 -7.2819 0.2509 -20.1497 0.0000 22.1898 0.0000
# 6 0.0000 0.0000 0.0000 -4.4743 0.0000 10.5700
#
#
#
# Elastic Compliance Matrix: (Units=1/GPa)
#
#
# Indices 1 2 3 4 5 6 
#
# 1 0.011662 0.000026 -0.001777 0.000000 0.002213 0.000000
# 2 0.000026 0.011525 -0.009849 0.000000 -0.009065 0.000000
# 3 -0.001777 -0.009849 0.023967 0.000000 0.021291 0.000000
# 4 0.000000 0.000000 0.000000 0.021056 0.000000 0.008913
# 5 0.002213 -0.009065 0.021291 0.000000 0.065228 0.000000
# 6 0.000000 0.000000 0.000000 0.008913 0.000000 0.098380
#
#
# Mechanical properties :
#
#
# Convention : Reuss Voigt Hill
#
# Bulk Modulus (GPa) = 41.74990 52.04125 46.89558
# Shear Modulus (GPa) = 19.01120 31.60269 25.30694
#
# Velocity S-wave (km/s) = 2.90345 3.74345 3.34988
# Velocity P-wave (km/s) = 5.45462 6.46226 5.97971
#
# Compressibility (1/GPa) = 0.02395215
#
# Stress axis : x y z
#
# Youngs Moduli (GPa) = 85.75161 86.77131 41.72457
#
# Poissons Ratio (x) = -0.00224 0.07415
# Poissons Ratio (y) = -0.00221 0.41095
# Poissons Ratio (z) = 0.15239 0.85461
#
# Static dielectric constant tensor:
#      x y z
#    x 1.809550 0.000000 0.003840 
#    y 0.000000 1.879200 0.000000 
#    z 0.003840 0.000000 1.837030 
# 
# From -- ./inp_files/128898.got.cif
#   From: 2010.05.17/outbox.cif.g08.bks.cpg/sg15_65_cif.got.tgz:128898.got - 2010.06.03 18:47:42.
