data_PCOD9276067
_publ_section_title
;
Structure prediction by ZEFSAII (Michael W. Deem and Ramdas Pophale) SiO2 
 PCOD9276067
Probable space group: C 2/C
;
_chemical_formula_sum "Si O2"
_cell_formula_units_Z 64
_cell_length_a 12.143638
_cell_length_b 12.783726
_cell_length_c 18.517793
_cell_angle_alpha 90.000000
_cell_angle_beta 90.231897
_cell_angle_gamma 90.000000
_cell_volume 2874.696062
_symmetry_space_group_name_H-M "C 2/C"
_symmetry_group_IT_number 15
_symmetry_cell_setting 'monoclinic'
loop_
_space_group_symop_operation_xyz
x,y,z
-x,y,1/2-z
-x,-y,-z
x,-y,1/2+z
1/2+x,1/2+y,z
1/2-x,1/2+y,1/2-z
1/2-x,1/2-y,-z
1/2+x,1/2-y,1/2+z
loop_
_atom_site_type_symbol
_atom_site_label
_atom_site_fract_x
_atom_site_fract_y
_atom_site_fract_z
Si Si1 0.961032 0.183428 0.537469
Si Si2 0.291863 0.180982 0.320778
Si Si3 0.655763 0.219375 0.337050
Si Si4 0.990502 0.524927 0.331408
Si Si5 0.153212 0.907816 0.596433
Si Si6 0.549571 0.851980 0.445773
Si Si7 0.546229 0.670283 0.326120
Si Si8 0.793497 0.131961 0.934461
O O1 0.911458 0.195434 0.617099
O O2 0.881091 0.118366 0.485568
O O3 0.972202 0.302605 0.506809
O O4 0.084998 0.137743 0.529943
O O5 0.319613 0.240865 0.246243
O O6 0.170126 0.133208 0.315758
O O7 0.295373 0.269715 0.381259
O O8 0.376762 0.088242 0.334733
O O9 0.769410 0.185803 0.375597
O O10 0.582287 0.114951 0.333962
O O11 0.000000 0.475582 0.250000
O O12 0.007273 0.451145 0.400782
O O13 0.041124 0.910687 0.642128
O O14 0.210912 0.019149 0.603245
O O15 0.550480 0.762530 0.384342
O O16 0.675578 0.862662 0.474559
O O17 0.500000 0.708486 0.250000
#
# Coordination Sequence:
#
# PCOD9276067 Si02
#       8
#     8   8   8   8   8   8   8   8
#     4  11  24  41  62  92 130 172 215 258 317 385
#     4  10  22  41  70  93 128 165 209 270 320 375
#     4  11  21  42  64  93 132 163 208 267 323 379
#     4  10  20  39  67  96 124 158 212 267 319 366
#     4  11  23  42  65  92 130 172 209 266 318 382
#     4  10  22  39  66  92 122 171 211 261 317 375
#     4  10  20  40  62  93 126 162 210 259 316 379
#     4  11  22  43  65  92 127 173 214 261 319 377
#
# _framework density 22.263224000000001
#
# number of rings (size 3 to 8) (size 9 to 14) (size 15 to 20)
#    0.000    1.500    3.750    1.500    0.000    0.500 
#    2.250    3.750    0.000    0.000    0.000    0.000 
#    0.000    0.000    0.000    0.000    0.000    0.000 
#
# Total GULP energy -178742.567509 kJ/mol
# GULP energy per Si atom -5585.705235 kJ/mol
# Density = 2.221255 g / cm^3
# Si number density = 22.263224 Si / 1000 Ang^3
#
#
#
# Elastic Constant Matrix: (Units=GPa)
#
#
# Indices 1 2 3 4 5 6 
#
# 1 115.8605 14.6505 17.7377 0.0000 4.5713 0.0000
# 2 14.6505 45.7870 2.4010 0.0000 -5.7994 0.0000
# 3 17.7377 2.4010 66.7402 0.0000 -3.8254 0.0000
# 4 0.0000 0.0000 0.0000 11.6666 0.0000 3.8359
# 5 4.5713 -5.7994 -3.8254 0.0000 36.2948 0.0000
# 6 0.0000 0.0000 0.0000 3.8359 0.0000 13.7050
#
#
#
# Elastic Compliance Matrix: (Units=1/GPa)
#
#
# Indices 1 2 3 4 5 6 
#
# 1 0.009494 -0.003154 -0.002522 0.000000 -0.001966 0.000000
# 2 -0.003154 0.023364 0.000236 0.000000 0.004155 0.000000
# 3 -0.002522 0.000236 0.015761 0.000000 0.002017 0.000000
# 4 0.000000 0.000000 0.000000 0.094403 0.000000 -0.026423
# 5 -0.001966 0.004155 0.002017 0.000000 0.028676 0.000000
# 6 0.000000 0.000000 0.000000 -0.026423 0.000000 0.080361
#
#
# Mechanical properties :
#
#
# Convention : Reuss Voigt Hill
#
# Bulk Modulus (GPa) = 26.49938 33.10734 29.80336
# Shear Modulus (GPa) = 18.14759 25.23984 21.69372
#
# Velocity S-wave (km/s) = 2.85816 3.37070 3.12496
# Velocity P-wave (km/s) = 4.77710 5.48197 5.14163
#
# Compressibility (1/GPa) = 0.03773673
#
# Stress axis : x y z
#
# Youngs Moduli (GPa) = 105.33357 42.80174 63.44795
#
# Poissons Ratio (x) = 0.13501 0.16004
# Poissons Ratio (y) = 0.33226 -0.01498
# Poissons Ratio (z) = 0.26569 -0.01010
#
# Static dielectric constant tensor:
#      x y z
#    x 1.865340 0.000000 0.002450 
#    y 0.000000 1.806360 0.000000 
#    z 0.002450 0.000000 1.857530 
# 
# From -- ./inp_files/198333.got.cif
#   From: 2010.05.17/outbox.cif.g08.bks.cpg/sg15_100_cif.got.tgz:198333.got - 2010.06.03 18:47:42.
