data_PCOD9276616
_publ_section_title
;
Structure prediction by ZEFSAII (Michael W. Deem and Ramdas Pophale) SiO2 
 PCOD9276616
Probable space group: C 2/C
;
_chemical_formula_sum "Si O2"
_cell_formula_units_Z 56
_cell_length_a 9.435535
_cell_length_b 26.194709
_cell_length_c 11.115121
_cell_angle_alpha 90.000000
_cell_angle_beta 74.232898
_cell_angle_gamma 90.000000
_cell_volume 2643.858830
_symmetry_space_group_name_H-M "C 2/C"
_symmetry_group_IT_number 15
_symmetry_cell_setting 'monoclinic'
loop_
_space_group_symop_operation_xyz
x,y,z
-x,y,1/2-z
-x,-y,-z
x,-y,1/2+z
1/2+x,1/2+y,z
1/2-x,1/2+y,1/2-z
1/2-x,1/2-y,-z
1/2+x,1/2-y,1/2+z
loop_
_atom_site_type_symbol
_atom_site_label
_atom_site_fract_x
_atom_site_fract_y
_atom_site_fract_z
Si Si1 0.011637 0.277764 0.985229
Si Si2 0.528226 0.327132 0.884271
Si Si3 0.500000 0.712187 0.750000
Si Si4 0.500000 0.893696 0.250000
Si Si5 0.077080 0.560588 0.356774
Si Si6 0.283021 0.857239 0.491578
Si Si7 0.270077 0.352874 0.453126
Si Si8 0.830630 0.458359 0.094510
O O1 0.027683 0.249389 0.855281
O O2 0.167884 0.302245 0.975105
O O3 0.888633 0.323371 0.015344
O O4 0.972022 0.233448 0.088666
O O5 0.500000 0.336521 0.750000
O O6 0.391258 0.355828 0.980334
O O7 0.671223 0.346336 0.923682
O O8 0.629516 0.677042 0.666420
O O9 0.370068 0.864197 0.346859
O O10 0.429267 0.929295 0.167929
O O11 0.152578 0.603678 0.422669
O O12 0.194264 0.513444 0.338675
O O13 0.000000 0.578329 0.250000
O O14 0.931614 0.536624 0.453318
O O15 0.279027 0.412827 0.417596
#
# Coordination Sequence:
#
# PCOD9276616 Si02
#       8
#     8   8   4   4   8   8   8   8
#     4  11  24  41  65  92 123 180 220 270 314 379
#     4  11  27  41  60  94 140 172 218 262 329 393
#     4  10  24  38  63  90 132 163 226 252 328 394
#     4  10  20  40  63  96 128 155 226 264 322 384
#     4  10  21  39  67 101 122 161 218 276 327 383
#     4  11  25  39  66  96 128 174 212 278 325 378
#     4  11  24  45  64  95 129 180 210 273 324 386
#     4  10  21  39  68  95 126 165 210 275 325 379
#
# _framework density 21.181159999999998
#
# number of rings (size 3 to 8) (size 9 to 14) (size 15 to 20)
#    0.000    1.429    3.571    2.143   12.000    0.000 
#    0.000    0.714    1.571    0.000    0.000    0.000 
#    0.000    0.000    0.000    0.000    0.000    0.000 
#
# Total GULP energy -155933.639335 kJ/mol
# GULP energy per Si atom -5569.058548 kJ/mol
# Density = 2.113295 g / cm^3
# Si number density = 21.181160 Si / 1000 Ang^3
#
#
#
# Elastic Constant Matrix: (Units=GPa)
#
#
# Indices 1 2 3 4 5 6 
#
# 1 46.6564 7.0146 12.7821 0.0000 14.3662 0.0000
# 2 7.0146 88.8056 3.2151 0.0000 5.0063 0.0000
# 3 12.7821 3.2151 78.8988 0.0000 4.0568 0.0000
# 4 0.0000 0.0000 0.0000 2.5896 0.0000 -36.4811
# 5 14.3662 5.0063 4.0568 0.0000 19.7605 0.0000
# 6 0.0000 0.0000 0.0000 -36.4811 0.0000 -147.0041
#
#
#
# Elastic Compliance Matrix: (Units=1/GPa)
#
#
# Indices 1 2 3 4 5 6 
#
# 1 0.028683 -0.001016 -0.003584 0.000000 -0.019860 0.000000
# 2 -0.001016 0.011468 -0.000193 0.000000 -0.002127 0.000000
# 3 -0.003584 -0.000193 0.013267 0.000000 -0.000069 0.000000
# 4 0.000000 0.000000 0.000000 0.085889 0.000000 -0.021315
# 5 -0.019860 -0.002127 -0.000069 0.000000 0.065597 0.000000
# 6 0.000000 0.000000 0.000000 -0.021315 0.000000 -0.001513
#
#
# Mechanical properties :
#
#
# Convention : Reuss Voigt Hill
#
# Bulk Modulus (GPa) = 22.81559 28.93160 25.87360
# Shear Modulus (GPa) = 21.96947 -12.17419 4.89764
#
# Velocity S-wave (km/s) = 3.22408 -2.40003 1.52226
# Velocity P-wave (km/s) = 4.96534 2.45124 3.91556
#
# Compressibility (1/GPa) = 0.04382967
#
# Stress axis : x y z
#
# Youngs Moduli (GPa) = 34.86370 87.20126 75.37753
#
# Poissons Ratio (x) = 0.08862 0.27017
# Poissons Ratio (y) = 0.03543 0.01457
# Poissons Ratio (z) = 0.12496 0.01686
#
# Static dielectric constant tensor:
#      x y z
#    x 1.803970 0.000000 -0.012490 
#    y 0.000000 1.848950 0.000000 
#    z -0.012490 0.000000 1.862930 
# 
# From -- ./inp_files/81336.got.cif
#   From: 2010.05.17/outbox.cif.g08.bks.cpg/sg15_41_cif.got.tgz:81336.got - 2010.06.03 18:47:42.
