data_PCOD9276644
_publ_section_title
;
Structure prediction by ZEFSAII (Michael W. Deem and Ramdas Pophale) SiO2 
 PCOD9276644
Probable space group: C 2/C
;
_chemical_formula_sum "Si O2"
_cell_formula_units_Z 44
_cell_length_a 9.039013
_cell_length_b 20.434793
_cell_length_c 13.752917
_cell_angle_alpha 90.000000
_cell_angle_beta 39.434225
_cell_angle_gamma 90.000000
_cell_volume 1613.582163
_symmetry_space_group_name_H-M "C 2/C"
_symmetry_group_IT_number 15
_symmetry_cell_setting 'monoclinic'
loop_
_space_group_symop_operation_xyz
x,y,z
-x,y,1/2-z
-x,-y,-z
x,-y,1/2+z
1/2+x,1/2+y,z
1/2-x,1/2+y,1/2-z
1/2-x,1/2-y,-z
1/2+x,1/2-y,1/2+z
loop_
_atom_site_type_symbol
_atom_site_label
_atom_site_fract_x
_atom_site_fract_y
_atom_site_fract_z
Si Si1 0.285998 0.588088 0.155680
Si Si2 0.750000 0.250000 0.500000
Si Si3 0.208070 0.696133 0.317763
Si Si4 0.551368 0.672984 0.887744
Si Si5 0.500000 0.432587 0.250000
Si Si6 0.257825 0.020592 0.985385
Si Si7 0.500000 0.878442 0.250000
O O1 0.148868 0.623232 0.311434
O O2 0.221900 0.531594 0.112852
O O3 0.337144 0.649778 0.060389
O O4 0.519432 0.559938 0.085897
O O5 0.844970 0.296033 0.540797
O O6 0.477008 0.282896 0.657713
O O7 0.053968 0.754105 0.349279
O O8 0.575276 0.615779 0.797524
O O9 0.777037 0.667487 0.847361
O O10 0.292149 0.479696 0.392826
O O11 0.454696 0.073923 0.863934
#
# Coordination Sequence:
#
# PCOD9276644 Si02
#       7
#     8   4   8   8   4   8   4
#     4   9  19  39  61  82 127 166 202 245 314 379
#     4  10  22  32  58  92 128 144 214 248 306 354
#     4  11  20  38  57  93 119 166 193 260 312 369
#     4  10  21  39  62  86 126 161 195 259 313 364
#     4  10  22  42  60  86 124 166 208 246 308 378
#     4   9  20  39  60  87 117 167 206 253 304 365
#     4  10  20  40  64  86 124 156 206 270 308 350
#
# _framework density 27.268521
#
# number of rings (size 3 to 8) (size 9 to 14) (size 15 to 20)
#    0.000    2.182    1.818    2.182    2.545    2.182 
#    3.273    4.545    0.000    0.000    0.000    0.000 
#    0.000    0.000    0.000    0.000    0.000    0.000 
#
# Total GULP energy -122496.628572 kJ/mol
# GULP energy per Si atom -5568.028571 kJ/mol
# Density = 2.720646 g / cm^3
# Si number density = 27.268521 Si / 1000 Ang^3
#
#
#
# Elastic Constant Matrix: (Units=GPa)
#
#
# Indices 1 2 3 4 5 6 
#
# 1 37.5124 -1.9225 15.7047 -0.0001 0.7726 -0.0012
# 2 -1.9225 146.3724 37.6442 -0.0002 12.3121 0.0001
# 3 15.7047 37.6442 80.7483 -0.0011 23.1641 -0.0019
# 4 -0.0001 -0.0002 -0.0011 13.2368 0.0005 16.0107
# 5 0.7726 12.3121 23.1641 0.0005 34.3894 0.0015
# 6 -0.0012 0.0001 -0.0019 16.0107 0.0015 11.2618
#
#
#
# Elastic Compliance Matrix: (Units=1/GPa)
#
#
# Indices 1 2 3 4 5 6 
#
# 1 0.030011 0.002107 -0.007945 0.000003 0.003923 -0.000003
# 2 0.002107 0.007916 -0.004058 -0.000001 -0.000148 0.000000
# 3 -0.007945 -0.004058 0.019030 0.000004 -0.011187 -0.000002
# 4 0.000003 -0.000001 0.000004 -0.104984 -0.000008 0.149253
# 5 0.003923 -0.000148 -0.011187 -0.000008 0.036579 0.000004
# 6 -0.000003 0.000000 -0.000002 0.149253 0.000004 -0.123395
#
#
# Mechanical properties :
#
#
# Convention : Reuss Voigt Hill
#
# Bulk Modulus (GPa) = 26.90528 40.83178 33.86853
# Shear Modulus (GPa) = -48.70253 25.99137 -11.35558
#
# Velocity S-wave (km/s) = -4.23074 3.09068 -2.04289
# Velocity P-wave (km/s) = 3.73862 5.26715 2.62351
#
# Compressibility (1/GPa) = 0.03716743
#
# Stress axis : x y z
#
# Youngs Moduli (GPa) = 33.32093 126.33354 52.54809
#
# Poissons Ratio (x) = -0.26624 0.41748
# Poissons Ratio (y) = -0.07022 0.21322
# Poissons Ratio (z) = 0.26472 0.51260
#
# Static dielectric constant tensor:
#      x y z
#    x 1.901850 0.000000 -0.338850 
#    y 0.000000 2.199230 0.000000 
#    z -0.338850 0.000000 1.795190 
# 
# From -- ./inp_files/147029.got.cif
#   From: 2010.05.17/outbox.cif.g08.bks.cpg/sg15_74_cif.got.tgz:147029.got - 2010.06.03 18:47:42.
