data_PCOD9276696
_publ_section_title
;
Structure prediction by ZEFSAII (Michael W. Deem and Ramdas Pophale) SiO2 
 PCOD9276696
Probable space group: C 2/C
;
_chemical_formula_sum "Si O2"
_cell_formula_units_Z 52
_cell_length_a 19.520796
_cell_length_b 8.892283
_cell_length_c 23.029116
_cell_angle_alpha 90.000000
_cell_angle_beta 141.479786
_cell_angle_gamma 90.000000
_cell_volume 2489.603505
_symmetry_space_group_name_H-M "C 2/C"
_symmetry_group_IT_number 15
_symmetry_cell_setting 'monoclinic'
loop_
_space_group_symop_operation_xyz
x,y,z
-x,y,1/2-z
-x,-y,-z
x,-y,1/2+z
1/2+x,1/2+y,z
1/2-x,1/2+y,1/2-z
1/2-x,1/2-y,-z
1/2+x,1/2-y,1/2+z
loop_
_atom_site_type_symbol
_atom_site_label
_atom_site_fract_x
_atom_site_fract_y
_atom_site_fract_z
Si Si1 0.498915 0.641229 0.954194
Si Si2 0.699451 0.077054 0.884214
Si Si3 0.312090 0.213857 0.857376
Si Si4 0.894420 0.994548 0.586518
Si Si5 0.500000 0.694691 0.250000
Si Si6 0.866580 0.764250 0.159845
Si Si7 0.232019 0.953118 0.203887
O O1 0.554136 0.590584 0.931160
O O2 0.370917 0.660363 0.857185
O O3 0.500000 0.500000 0.000000
O O4 0.575282 0.770210 0.031521
O O5 0.605430 0.199869 0.825677
O O6 0.727910 0.069428 0.834992
O O7 0.661226 0.907883 0.874955
O O8 0.804932 0.108696 0.994470
O O9 0.207039 0.203772 0.831378
O O10 0.312757 0.085703 0.809640
O O11 0.303375 0.373279 0.817854
O O12 0.988532 0.908217 0.685118
O O13 0.836973 0.107822 0.593646
O O14 0.000000 0.771449 0.250000
#
# Coordination Sequence:
#
# PCOD9276696 Si02
#       7
#     8   8   8   8   4   8   8
#     4  10  20  40  64  91 124 163 210 255 311 373
#     4  11  24  42  63  93 136 163 206 273 318 367
#     4  10  22  39  64  94 123 165 205 262 309 370
#     4  12  23  43  67  94 122 175 218 254 320 383
#     4  12  28  40  66  94 128 172 208 264 326 384
#     4  11  21  41  65  94 128 166 215 262 311 376
#     4  10  22  39  64  91 124 166 205 254 313 371
#
# _framework density 20.886859999999999
#
# number of rings (size 3 to 8) (size 9 to 14) (size 15 to 20)
#    0.000    1.231    6.154    1.846    4.308    0.000 
#    0.000    0.769    0.000    0.000    0.000    0.000 
#    0.000    0.000    0.000    0.000    0.000    0.000 
#
# Total GULP energy -145052.213963 kJ/mol
# GULP energy per Si atom -5578.931306 kJ/mol
# Density = 2.083932 g / cm^3
# Si number density = 20.886860 Si / 1000 Ang^3
#
#
#
# Elastic Constant Matrix: (Units=GPa)
#
#
# Indices 1 2 3 4 5 6 
#
# 1 52.8833 15.0105 24.1495 0.0000 -5.9328 0.0000
# 2 15.0105 42.3869 12.4336 0.0000 -13.6381 0.0000
# 3 24.1495 12.4336 95.7383 0.0000 -11.8715 0.0000
# 4 0.0000 0.0000 0.0000 34.2536 0.0000 -16.8999
# 5 -5.9328 -13.6381 -11.8715 0.0000 34.2248 0.0000
# 6 0.0000 0.0000 0.0000 -16.8999 0.0000 14.0409
#
#
#
# Elastic Compliance Matrix: (Units=1/GPa)
#
#
# Indices 1 2 3 4 5 6 
#
# 1 0.023083 -0.006860 -0.004989 0.000000 -0.000463 0.000000
# 2 -0.006860 0.029583 -0.000833 0.000000 0.010310 0.000000
# 3 -0.004989 -0.000833 0.012188 0.000000 0.003031 0.000000
# 4 0.000000 0.000000 0.000000 0.071878 0.000000 0.086514
# 5 -0.000463 0.010310 0.003031 0.000000 0.034298 0.000000
# 6 0.000000 0.000000 0.000000 0.086514 0.000000 0.175351
#
#
# Mechanical properties :
#
#
# Convention : Reuss Voigt Hill
#
# Bulk Modulus (GPa) = 25.32298 32.68841 29.00569
# Shear Modulus (GPa) = 12.99009 25.79819 19.39414
#
# Velocity S-wave (km/s) = 2.49655 3.51827 3.05049
# Velocity P-wave (km/s) = 4.52333 5.67349 5.13074
#
# Compressibility (1/GPa) = 0.03948983
#
# Stress axis : x y z
#
# Youngs Moduli (GPa) = 43.32186 33.80287 82.05055
#
# Poissons Ratio (x) = 0.23188 0.40935
# Poissons Ratio (y) = 0.29718 0.06836
# Poissons Ratio (z) = 0.21614 0.02816
#
# Static dielectric constant tensor:
#      x y z
#    x 1.746890 0.000000 0.011450 
#    y 0.000000 1.789240 0.000000 
#    z 0.011450 0.000000 1.840890 
# 
# From -- ./inp_files/279609.got.cif
#   From: 2010.05.17/outbox.cif.g08.bks.cpg/sg15_140_cif.got.tgz:279609.got - 2010.06.03 18:47:42.
