data_PCOD9276758
_publ_section_title
;
Structure prediction by ZEFSAII (Michael W. Deem and Ramdas Pophale) SiO2 
 PCOD9276758
Probable space group: C 2/C
;
_chemical_formula_sum "Si O2"
_cell_formula_units_Z 52
_cell_length_a 24.242533
_cell_length_b 14.224820
_cell_length_c 8.596000
_cell_angle_alpha 90.000000
_cell_angle_beta 52.342157
_cell_angle_gamma 90.000000
_cell_volume 2346.751813
_symmetry_space_group_name_H-M "C 2/C"
_symmetry_group_IT_number 15
_symmetry_cell_setting 'monoclinic'
loop_
_space_group_symop_operation_xyz
x,y,z
-x,y,1/2-z
-x,-y,-z
x,-y,1/2+z
1/2+x,1/2+y,z
1/2-x,1/2+y,1/2-z
1/2-x,1/2-y,-z
1/2+x,1/2-y,1/2+z
loop_
_atom_site_type_symbol
_atom_site_label
_atom_site_fract_x
_atom_site_fract_y
_atom_site_fract_z
Si Si1 0.621892 0.825932 0.835784
Si Si2 0.922597 0.685881 0.420385
Si Si3 0.230624 0.678214 0.394402
Si Si4 0.447593 0.529013 0.228382
Si Si5 0.500000 0.110424 0.750000
Si Si6 0.881389 0.121596 0.077337
Si Si7 0.625845 0.042762 0.744587
O O1 0.613727 0.785135 0.678477
O O2 0.678741 0.781703 0.851946
O O3 0.638395 0.936083 0.771873
O O4 0.548507 0.829321 0.052301
O O5 0.924405 0.781877 0.512979
O O6 0.884492 0.606298 0.584191
O O7 0.000000 0.652903 0.250000
O O8 0.250000 0.750000 0.500000
O O9 0.301071 0.645271 0.190503
O O10 0.187740 0.591271 0.541988
O O11 0.500000 0.586128 0.250000
O O12 0.386411 0.578227 0.241104
O O13 0.415479 0.445378 0.388093
O O14 0.500000 0.500000 0.000000
O O15 0.554882 0.053095 0.763481
#
# Coordination Sequence:
#
# PCOD9276758 Si02
#       7
#     8   8   8   8   4   8   8
#     4  11  25  40  67  97 134 181 221 266 335 402
#     4  12  23  41  68 100 130 170 228 280 335 402
#     4  11  25  48  59  95 137 178 221 269 332 405
#     4   9  20  45  70  98 124 159 222 286 343 394
#     4  10  20  40  64  96 136 174 214 278 324 382
#     4  11  24  45  69  94 133 173 216 285 340 403
#     4  11  23  42  67  99 139 175 226 272 331 406
#
# _framework density 22.158287000000001
#
# number of rings (size 3 to 8) (size 9 to 14) (size 15 to 20)
#    0.000    1.231    3.077    3.692    4.308    0.615 
#    9.692    0.000    0.000    0.000    0.000    0.000 
#    0.000    0.000    0.000    0.000    0.000    0.000 
#
# Total GULP energy -145269.954050 kJ/mol
# GULP energy per Si atom -5587.305925 kJ/mol
# Density = 2.210785 g / cm^3
# Si number density = 22.158287 Si / 1000 Ang^3
#
#
#
# Elastic Constant Matrix: (Units=GPa)
#
#
# Indices 1 2 3 4 5 6 
#
# 1 119.5272 13.0025 33.8116 0.0000 17.1601 0.0000
# 2 13.0025 53.6870 10.4149 0.0000 -0.4183 0.0000
# 3 33.8116 10.4149 107.3314 0.0000 -5.7730 0.0000
# 4 0.0000 0.0000 0.0000 22.3755 0.0000 10.4184
# 5 17.1601 -0.4183 -5.7730 0.0000 43.5904 0.0000
# 6 0.0000 0.0000 0.0000 10.4184 0.0000 18.9535
#
#
#
# Elastic Compliance Matrix: (Units=1/GPa)
#
#
# Indices 1 2 3 4 5 6 
#
# 1 0.010123 -0.001856 -0.003247 0.000000 -0.004433 0.000000
# 2 -0.001856 0.019324 -0.001250 0.000000 0.000751 0.000000
# 3 -0.003247 -0.001250 0.010605 0.000000 0.002671 0.000000
# 4 0.000000 0.000000 0.000000 0.060065 0.000000 -0.033017
# 5 -0.004433 0.000751 0.002671 0.000000 0.025047 0.000000
# 6 0.000000 0.000000 0.000000 -0.033017 0.000000 0.070910
#
#
# Mechanical properties :
#
#
# Convention : Reuss Voigt Hill
#
# Bulk Modulus (GPa) = 36.56945 43.88926 40.22936
# Shear Modulus (GPa) = 22.94667 31.87164 27.40916
#
# Velocity S-wave (km/s) = 3.22153 3.79669 3.52088
# Velocity P-wave (km/s) = 5.51156 6.25060 5.89267
#
# Compressibility (1/GPa) = 0.02734523
#
# Stress axis : x y z
#
# Youngs Moduli (GPa) = 98.78219 51.74799 94.29631
#
# Poissons Ratio (x) = 0.09606 0.30621
# Poissons Ratio (y) = 0.18337 0.11787
# Poissons Ratio (z) = 0.32078 0.06468
#
# Static dielectric constant tensor:
#      x y z
#    x 1.899750 0.000000 0.039340 
#    y 0.000000 1.819490 0.000000 
#    z 0.039340 0.000000 1.847880 
# 
# From -- ./inp_files/61445.got.cif
#   From: 2010.05.17/outbox.cif.g08.bks.cpg/sg15_31_cif.got.tgz:61445.got - 2010.06.03 18:47:42.
