data_PCOD9276387
_publ_section_title
;
Structure prediction by ZEFSAII (Michael W. Deem and Ramdas Pophale) SiO2 
 PCOD9276387
Probable space group: C 2/C
;
_chemical_formula_sum "Si O2"
_cell_formula_units_Z 40
_cell_length_a 9.595349
_cell_length_b 24.471086
_cell_length_c 18.567776
_cell_angle_alpha 90.000000
_cell_angle_beta 29.161747
_cell_angle_gamma 90.000000
_cell_volume 2124.465088
_symmetry_space_group_name_H-M "C 2/C"
_symmetry_group_IT_number 15
_symmetry_cell_setting 'monoclinic'
loop_
_space_group_symop_operation_xyz
x,y,z
-x,y,1/2-z
-x,-y,-z
x,-y,1/2+z
1/2+x,1/2+y,z
1/2-x,1/2+y,1/2-z
1/2-x,1/2-y,-z
1/2+x,1/2-y,1/2+z
loop_
_atom_site_type_symbol
_atom_site_label
_atom_site_fract_x
_atom_site_fract_y
_atom_site_fract_z
Si Si1 0.748409 0.648178 0.305595
Si Si2 0.029219 0.752355 0.820841
Si Si3 0.238039 0.443756 0.819005
Si Si4 0.210125 0.566479 0.854998
Si Si5 0.585135 0.868844 0.136665
O O1 0.738174 0.704316 0.263941
O O2 0.792349 0.595577 0.234786
O O3 0.425305 0.642035 0.482487
O O4 0.000000 0.650684 0.250000
O O5 0.000000 0.770300 0.750000
O O6 0.094127 0.687994 0.785502
O O7 0.750000 0.750000 0.000000
O O8 0.500000 0.423291 0.750000
O O9 0.291342 0.508203 0.781874
O O10 0.962054 0.442472 0.993967
O O11 0.500000 0.595356 0.750000
O O12 0.010627 0.597914 0.889566
O O13 0.500000 0.896837 0.250000
#
# Coordination Sequence:
#
# PCOD9276387 Si02
#       5
#     8   8   8   8   8
#     4  11  23  38  62  90 119 161 204 245 300 364
#     4   9  20  39  62  85 117 160 200 246 304 357
#     4  10  20  40  61  87 117 159 206 247 292 359
#     4  10  22  37  62  88 118 158 204 246 299 355
#     4  10  22  41  58  87 126 155 193 253 305 350
#
# _framework density 18.828268999999999
#
# number of rings (size 3 to 8) (size 9 to 14) (size 15 to 20)
#    0.000    2.000    2.000    0.600    5.600    1.600 
#    0.000   11.000    0.000    0.000    0.000    0.000 
#    0.000    0.000    0.000    0.000    0.000    0.000 
#
# Total GULP energy -111362.336822 kJ/mol
# GULP energy per Si atom -5568.116841 kJ/mol
# Density = 1.878541 g / cm^3
# Si number density = 18.828269 Si / 1000 Ang^3
#
#
#
# Elastic Constant Matrix: (Units=GPa)
#
#
# Indices 1 2 3 4 5 6 
#
# 1 152.1555 53.5630 44.5063 -0.0103 -14.8303 0.0037
# 2 53.5630 70.9531 11.3043 0.0086 -3.2839 -0.0008
# 3 44.5063 11.3043 73.8396 0.0012 -3.3939 0.0026
# 4 -0.0103 0.0086 0.0012 79.0943 0.0196 -7.9930
# 5 -14.8303 -3.2839 -3.3939 0.0196 35.6005 -0.0019
# 6 0.0037 -0.0008 0.0026 -7.9930 -0.0019 19.1271
#
#
#
# Elastic Compliance Matrix: (Units=1/GPa)
#
#
# Indices 1 2 3 4 5 6 
#
# 1 0.011064 -0.007335 -0.005389 0.000001 0.003419 -0.000001
# 2 -0.007335 0.019355 0.001406 -0.000003 -0.001136 0.000001
# 3 -0.005389 0.001406 0.016551 -0.000001 -0.000537 -0.000002
# 4 0.000001 -0.000003 -0.000001 0.013201 -0.000007 0.005516
# 5 0.003419 -0.001136 -0.000537 -0.000007 0.029358 -0.000001
# 6 -0.000001 0.000001 -0.000002 0.005516 -0.000001 0.054587
#
#
# Mechanical properties :
#
#
# Convention : Reuss Voigt Hill
#
# Bulk Modulus (GPa) = 41.09531 57.29947 49.19739
# Shear Modulus (GPa) = 28.59400 39.26936 33.93168
#
# Velocity S-wave (km/s) = 3.90124 4.57186 4.24980
# Velocity P-wave (km/s) = 6.49359 7.63989 7.08994
#
# Compressibility (1/GPa) = 0.02433367
#
# Stress axis : x y z
#
# Youngs Moduli (GPa) = 90.38409 51.66677 60.41994
#
# Poissons Ratio (x) = 0.37900 0.32558
# Poissons Ratio (y) = 0.66301 -0.08496
# Poissons Ratio (z) = 0.48704 -0.07265
#
# Static dielectric constant tensor:
#      x y z
#    x 1.656210 0.000000 0.032810 
#    y 0.000000 1.689930 0.000000 
#    z 0.032810 0.000000 1.721030 
# 
# From -- ./inp_files/23408.got.cif
#   From: 2010.05.17/outbox.cif.g08.bks.cpg/sg15_12_cif.got.tgz:23408.got - 2010.06.03 18:47:42.
