data_PCOD9276849
_publ_section_title
;
Structure prediction by ZEFSAII (Michael W. Deem and Ramdas Pophale) SiO2 
 PCOD9276849
Probable space group: C 2/C
;
_chemical_formula_sum "Si O2"
_cell_formula_units_Z 48
_cell_length_a 22.069202
_cell_length_b 13.448628
_cell_length_c 12.344802
_cell_angle_alpha 90.000000
_cell_angle_beta 143.820563
_cell_angle_gamma 90.000000
_cell_volume 2162.884394
_symmetry_space_group_name_H-M "C 2/C"
_symmetry_group_IT_number 15
_symmetry_cell_setting 'monoclinic'
loop_
_space_group_symop_operation_xyz
x,y,z
-x,y,1/2-z
-x,-y,-z
x,-y,1/2+z
1/2+x,1/2+y,z
1/2-x,1/2+y,1/2-z
1/2-x,1/2-y,-z
1/2+x,1/2-y,1/2+z
loop_
_atom_site_type_symbol
_atom_site_label
_atom_site_fract_x
_atom_site_fract_y
_atom_site_fract_z
Si Si1 0.853041 0.414869 0.733859
Si Si2 0.320798 0.091960 0.942697
Si Si3 0.776974 0.621938 0.335818
Si Si4 0.424308 0.863046 0.377238
Si Si5 0.631764 0.342651 0.039405
Si Si6 0.892665 0.157224 0.236014
O O1 0.836137 0.378463 0.588189
O O2 0.760766 0.393564 0.683560
O O3 0.881296 0.531604 0.775105
O O4 0.953528 0.365786 0.933427
O O5 0.385731 0.149339 0.945435
O O6 0.206260 0.108333 0.733907
O O7 0.344765 0.974206 0.966562
O O8 0.832975 0.727833 0.425209
O O9 0.676670 0.617200 0.266454
O O10 0.385207 0.776479 0.243340
O O11 0.644870 0.381029 0.934928
O O12 0.515241 0.358033 0.909483
#
# Coordination Sequence:
#
# PCOD9276849 Si02
#       6
#     8   8   8   8   8   8
#     4  10  22  39  62  99 130 156 208 260 326 374
#     4  11  24  39  65  95 131 166 205 258 320 376
#     4  11  23  40  67  91 122 170 206 258 315 373
#     4  10  20  40  65  95 126 164 203 268 314 370
#     4  11  24  42  66  92 126 165 212 266 304 377
#     4  11  23  42  65  92 123 165 222 253 309 375
#
# _framework density 22.192588000000001
#
# number of rings (size 3 to 8) (size 9 to 14) (size 15 to 20)
#    0.000    1.333    3.333    2.000    4.667    1.333 
#    0.000    0.833    0.000    0.000    0.000    0.000 
#    0.000    0.000    0.000    0.000    0.000    0.000 
#
# Total GULP energy -134030.216569 kJ/mol
# GULP energy per Si atom -5584.592357 kJ/mol
# Density = 2.214208 g / cm^3
# Si number density = 22.192588 Si / 1000 Ang^3
#
#
#
# Elastic Constant Matrix: (Units=GPa)
#
#
# Indices 1 2 3 4 5 6 
#
# 1 173.2433 -2.9931 63.3637 0.0000 -12.1588 0.0000
# 2 -2.9931 27.3592 13.6885 0.0000 -6.9636 0.0000
# 3 63.3637 13.6885 97.1631 0.0000 -14.7452 0.0000
# 4 0.0000 0.0000 0.0000 18.1097 0.0000 -0.2170
# 5 -12.1588 -6.9636 -14.7452 0.0000 41.7917 0.0000
# 6 0.0000 0.0000 0.0000 -0.2170 0.0000 29.5592
#
#
#
# Elastic Compliance Matrix: (Units=1/GPa)
#
#
# Indices 1 2 3 4 5 6 
#
# 1 0.007954 0.003919 -0.005588 0.000000 0.000995 0.000000
# 2 0.003919 0.042210 -0.007673 0.000000 0.005466 0.000000
# 3 -0.005588 -0.007673 0.015401 0.000000 0.002530 0.000000
# 4 0.000000 0.000000 0.000000 0.055224 0.000000 0.000405
# 5 0.000995 0.005466 0.002530 0.000000 0.026021 0.000000
# 6 0.000000 0.000000 0.000000 0.000405 0.000000 0.033833
#
#
# Mechanical properties :
#
#
# Convention : Reuss Voigt Hill
#
# Bulk Modulus (GPa) = 21.33055 49.54264 35.43659
# Shear Modulus (GPa) = 23.26091 32.80589 28.03340
#
# Velocity S-wave (km/s) = 3.24101 3.84895 3.55799
# Velocity P-wave (km/s) = 4.86189 6.49038 5.73424
#
# Compressibility (1/GPa) = 0.04688112
#
# Stress axis : x y z
#
# Youngs Moduli (GPa) = 125.72945 23.69119 64.93117
#
# Poissons Ratio (x) = -0.09285 0.36283
# Poissons Ratio (y) = -0.49277 0.49821
# Poissons Ratio (z) = 0.70256 0.18178
#
# Static dielectric constant tensor:
#      x y z
#    x 1.879590 0.000000 0.028560 
#    y 0.000000 1.849140 0.000000 
#    z 0.028560 0.000000 1.818370 
# 
# From -- ./inp_files/96542.got.cif
#   From: 2010.05.17/outbox.cif.g08.bks.cpg/sg15_49_cif.got.tgz:96542.got - 2010.06.03 18:47:42.
