data_PCOD9276958
_publ_section_title
;
Structure prediction by ZEFSAII (Michael W. Deem and Ramdas Pophale) SiO2 
 PCOD9276958
Probable space group: C 2/C
;
_chemical_formula_sum "Si O2"
_cell_formula_units_Z 40
_cell_length_a 13.275383
_cell_length_b 26.325272
_cell_length_c 5.306069
_cell_angle_alpha 90.000000
_cell_angle_beta 76.661298
_cell_angle_gamma 90.000000
_cell_volume 1804.330294
_symmetry_space_group_name_H-M "C 2/C"
_symmetry_group_IT_number 15
_symmetry_cell_setting 'monoclinic'
loop_
_space_group_symop_operation_xyz
x,y,z
-x,y,1/2-z
-x,-y,-z
x,-y,1/2+z
1/2+x,1/2+y,z
1/2-x,1/2+y,1/2-z
1/2-x,1/2-y,-z
1/2+x,1/2-y,1/2+z
loop_
_atom_site_type_symbol
_atom_site_label
_atom_site_fract_x
_atom_site_fract_y
_atom_site_fract_z
Si Si1 0.722667 0.808023 0.557863
Si Si2 0.870445 0.032255 0.947619
Si Si3 0.889131 0.125995 0.235567
Si Si4 0.500000 0.093581 0.750000
Si Si5 0.225020 0.591077 0.731908
Si Si6 0.500000 0.839104 0.750000
O O1 0.750000 0.750000 0.500000
O O2 0.809604 0.831656 0.688517
O O3 0.719774 0.850470 0.335139
O O4 0.605221 0.808349 0.722551
O O5 0.919198 0.085886 0.999512
O O6 0.893117 0.997260 0.176359
O O7 0.755092 0.053888 0.946409
O O8 0.820071 0.094288 0.478454
O O9 0.000000 0.147567 0.250000
O O10 0.616833 0.071097 0.679858
O O11 0.495035 0.125999 0.498408
#
# Coordination Sequence:
#
# PCOD9276958 Si02
#       6
#     8   8   8   4   8   4
#     4  10  23  41  65  99 138 178 228 282 338 401
#     4  11  23  43  70  98 134 179 227 277 343 413
#     4  11  24  43  66 101 141 178 223 288 340 405
#     4  10  20  40  70  89 130 172 226 271 324 398
#     4  10  22  43  66  96 132 178 229 279 337 405
#     4  10  20  40  66  95 124 182 224 265 328 404
#
# _framework density 22.168890000000001
#
# number of rings (size 3 to 8) (size 9 to 14) (size 15 to 20)
#    0.000    1.600    4.000    0.000    0.000    6.400 
#    7.200    1.000    0.000    0.000    0.000    0.000 
#    0.000    0.000    0.000    0.000    0.000    0.000 
#
# Total GULP energy -111341.224179 kJ/mol
# GULP energy per Si atom -5567.061209 kJ/mol
# Density = 2.211843 g / cm^3
# Si number density = 22.168890 Si / 1000 Ang^3
#
#
#
# Elastic Constant Matrix: (Units=GPa)
#
#
# Indices 1 2 3 4 5 6 
#
# 1 183.8104 41.4371 42.1279 0.0000 -0.9622 0.0000
# 2 41.4371 92.5466 36.0087 0.0000 5.3252 0.0000
# 3 42.1279 36.0087 111.9531 0.0000 3.6391 0.0000
# 4 0.0000 0.0000 0.0000 23.3854 0.0000 -2.0291
# 5 -0.9622 5.3252 3.6391 0.0000 40.6233 0.0000
# 6 0.0000 0.0000 0.0000 -2.0291 0.0000 -4.8398
#
#
#
# Elastic Compliance Matrix: (Units=1/GPa)
#
#
# Indices 1 2 3 4 5 6 
#
# 1 0.006329 -0.002210 -0.001690 0.000000 0.000591 0.000000
# 2 -0.002210 0.013188 -0.003362 0.000000 -0.001480 0.000000
# 3 -0.001690 -0.003362 0.010668 0.000000 -0.000555 0.000000
# 4 0.000000 0.000000 0.000000 0.041261 0.000000 -0.017298
# 5 0.000591 -0.001480 -0.000555 0.000000 0.024874 0.000000
# 6 0.000000 0.000000 0.000000 -0.017298 0.000000 -0.199366
#
#
# Mechanical properties :
#
#
# Convention : Reuss Voigt Hill
#
# Bulk Modulus (GPa) = 63.85498 69.71751 66.78625
# Shear Modulus (GPa) = -60.02314 29.74952 -15.13681
#
# Velocity S-wave (km/s) = -5.20905 3.66724 -2.61587
# Velocity P-wave (km/s) = 2.70416 7.03194 4.58997
#
# Compressibility (1/GPa) = 0.01566048
#
# Stress axis : x y z
#
# Youngs Moduli (GPa) = 158.00105 75.82479 93.74137
#
# Poissons Ratio (x) = 0.16759 0.15842
# Poissons Ratio (y) = 0.34923 0.31516
# Poissons Ratio (z) = 0.26701 0.25493
#
# Static dielectric constant tensor:
#      x y z
#    x 1.907330 0.000000 -0.046010 
#    y 0.000000 1.774170 0.000000 
#    z -0.046010 0.000000 1.936560 
# 
# From -- ./inp_files/5511.got.cif
#   From: 2010.05.17/outbox.cif.g08.bks.cpg/sg15_3_cif.got.tgz:5511.got - 2010.06.03 18:47:42.
