data_PCOD9276487
_publ_section_title
;
Structure prediction by ZEFSAII (Michael W. Deem and Ramdas Pophale) SiO2 
 PCOD9276487
Probable space group: C 2/C
;
_chemical_formula_sum "Si O2"
_cell_formula_units_Z 60
_cell_length_a 17.400625
_cell_length_b 14.979212
_cell_length_c 13.628090
_cell_angle_alpha 90.000000
_cell_angle_beta 45.839384
_cell_angle_gamma 90.000000
_cell_volume 2548.261063
_symmetry_space_group_name_H-M "C 2/C"
_symmetry_group_IT_number 15
_symmetry_cell_setting 'monoclinic'
loop_
_space_group_symop_operation_xyz
x,y,z
-x,y,1/2-z
-x,-y,-z
x,-y,1/2+z
1/2+x,1/2+y,z
1/2-x,1/2+y,1/2-z
1/2-x,1/2-y,-z
1/2+x,1/2-y,1/2+z
loop_
_atom_site_type_symbol
_atom_site_label
_atom_site_fract_x
_atom_site_fract_y
_atom_site_fract_z
Si Si1 0.656271 0.776564 0.297492
Si Si2 0.830020 0.542284 0.340363
Si Si3 0.000000 0.075355 0.250000
Si Si4 0.109488 0.056522 0.800978
Si Si5 0.267778 0.170809 0.557731
Si Si6 0.507930 0.071243 0.585099
Si Si7 0.730333 0.098199 0.312869
Si Si8 0.656967 0.607621 0.962872
O O1 0.674518 0.796424 0.396189
O O2 0.549359 0.831970 0.371659
O O3 0.677892 0.672611 0.258305
O O4 0.753399 0.823919 0.152649
O O5 0.831938 0.595977 0.439589
O O6 0.931733 0.479998 0.229755
O O7 0.817651 0.605724 0.254963
O O8 0.722478 0.481704 0.434865
O O9 0.965421 0.007910 0.193967
O O10 0.909144 0.133425 0.382494
O O11 0.215846 0.998344 0.728267
O O12 0.151997 0.134389 0.693994
O O13 0.081583 0.092425 0.933610
O O14 0.250000 0.250000 0.500000
O O15 0.633612 0.095512 0.476669
O O16 0.500000 0.000000 0.500000
#
# Coordination Sequence:
#
# PCOD9276487 Si02
#       8
#     8   8   4   8   8   8   8   8
#     4  10  21  37  65  98 131 169 217 281 331 388
#     4   9  17  36  63  86 130 168 212 267 325 395
#     4  12  20  38  64  86 118 172 222 254 312 418
#     4  10  23  38  63  91 128 172 209 267 339 399
#     4  11  19  36  64  97 131 164 211 280 344 387
#     4   9  19  38  64  89 129 182 222 256 331 406
#     4  10  20  40  62  90 130 174 212 268 335 390
#     4   9  20  37  60  90 125 168 212 264 327 387
#
# _framework density 23.545466999999999
#
# number of rings (size 3 to 8) (size 9 to 14) (size 15 to 20)
#    0.000    2.133    2.667    2.800    0.000    1.067 
#    0.000   10.667    5.867    0.000    0.000    0.000 
#    0.000    0.000    0.000    0.000    0.000    0.000 
#
# Total GULP energy -167529.461225 kJ/mol
# GULP energy per Si atom -5584.315374 kJ/mol
# Density = 2.349188 g / cm^3
# Si number density = 23.545467 Si / 1000 Ang^3
#
#
#
# Elastic Constant Matrix: (Units=GPa)
#
#
# Indices 1 2 3 4 5 6 
#
# 1 42.8779 4.1395 23.9290 0.0000 1.0176 0.0000
# 2 4.1395 84.3893 35.4926 0.0000 6.8818 0.0000
# 3 23.9290 35.4926 162.5652 0.0000 12.3696 0.0000
# 4 0.0000 0.0000 0.0000 36.5397 0.0000 6.0295
# 5 1.0176 6.8818 12.3696 0.0000 22.0938 0.0000
# 6 0.0000 0.0000 0.0000 6.0295 0.0000 20.1774
#
#
#
# Elastic Compliance Matrix: (Units=1/GPa)
#
#
# Indices 1 2 3 4 5 6 
#
# 1 0.025436 0.000311 -0.003881 0.000000 0.000904 0.000000
# 2 0.000311 0.013194 -0.002729 0.000000 -0.002596 0.000000
# 3 -0.003881 -0.002729 0.007562 0.000000 -0.003205 0.000000
# 4 0.000000 0.000000 0.000000 0.028787 0.000000 -0.008602
# 5 0.000904 -0.002596 -0.003205 0.000000 0.047823 0.000000
# 6 0.000000 0.000000 0.000000 -0.008602 0.000000 0.052131
#
#
# Mechanical properties :
#
#
# Convention : Reuss Voigt Hill
#
# Bulk Modulus (GPa) = 29.76650 46.32829 38.04739
# Shear Modulus (GPa) = 25.15979 30.84693 28.00336
#
# Velocity S-wave (km/s) = 3.27243 3.62346 3.45241
# Velocity P-wave (km/s) = 5.19115 6.10121 5.66448
#
# Compressibility (1/GPa) = 0.03359482
#
# Stress axis : x y z
#
# Youngs Moduli (GPa) = 39.31388 75.79198 132.23536
#
# Poissons Ratio (x) = -0.02355 0.51318
# Poissons Ratio (y) = -0.01222 0.36085
# Poissons Ratio (z) = 0.15257 0.20682
#
# Static dielectric constant tensor:
#      x y z
#    x 1.963440 0.000000 0.000200 
#    y 0.000000 1.915920 0.000000 
#    z 0.000200 0.000000 1.938960 
# 
# From -- ./inp_files/168604.got.cif
#   From: 2010.05.17/outbox.cif.g08.bks.cpg/sg15_85_cif.got.tgz:168604.got - 2010.06.03 18:47:42.
