data_PCOD9276677
_publ_section_title
;
Structure prediction by ZEFSAII (Michael W. Deem and Ramdas Pophale) SiO2 
 PCOD9276677
Probable space group: C 2/C
;
_chemical_formula_sum "Si O2"
_cell_formula_units_Z 52
_cell_length_a 25.962345
_cell_length_b 10.305373
_cell_length_c 12.353658
_cell_angle_alpha 90.000000
_cell_angle_beta 40.354915
_cell_angle_gamma 90.000000
_cell_volume 2140.211542
_symmetry_space_group_name_H-M "C 2/C"
_symmetry_group_IT_number 15
_symmetry_cell_setting 'monoclinic'
loop_
_space_group_symop_operation_xyz
x,y,z
-x,y,1/2-z
-x,-y,-z
x,-y,1/2+z
1/2+x,1/2+y,z
1/2-x,1/2+y,1/2-z
1/2-x,1/2-y,-z
1/2+x,1/2-y,1/2+z
loop_
_atom_site_type_symbol
_atom_site_label
_atom_site_fract_x
_atom_site_fract_y
_atom_site_fract_z
Si Si1 0.134678 0.638043 0.831134
Si Si2 0.231124 0.865916 0.709353
Si Si3 0.000000 0.398315 0.250000
Si Si4 0.005358 0.211044 0.057175
Si Si5 0.386534 0.517483 0.734880
Si Si6 0.232757 0.607599 0.106636
Si Si7 0.138959 0.571055 0.069040
O O1 0.208148 0.733878 0.687638
O O2 0.055330 0.694683 0.907592
O O3 0.164978 0.500301 0.743513
O O4 0.125239 0.637202 0.975458
O O5 0.153199 0.954397 0.809938
O O6 0.301365 0.950669 0.548262
O O7 0.250797 0.835013 0.801995
O O8 0.960995 0.298359 0.398695
O O9 0.057402 0.495861 0.222825
O O10 0.950051 0.086914 0.178977
O O11 0.069634 0.147173 0.875128
O O12 0.314640 0.544610 0.932015
O O13 0.186459 0.664546 0.075644
#
# Coordination Sequence:
#
# PCOD9276677 Si02
#       7
#     8   8   4   8   8   8   8
#     4  10  21  42  62  89 129 163 210 262 310 374
#     4   9  21  38  66  91 121 162 209 266 311 362
#     4  12  24  38  64  88 120 180 202 248 324 380
#     4  10  22  39  61  94 128 164 206 258 320 374
#     4   9  21  39  62  98 126 155 211 263 314 377
#     4  10  20  40  64  89 125 163 208 267 305 379
#     4  10  23  39  60  93 120 165 217 248 308 388
#
# _framework density 24.296662999999999
#
# number of rings (size 3 to 8) (size 9 to 14) (size 15 to 20)
#    0.000    2.154    1.538    0.000    4.308    5.538 
#    2.769    0.000    0.000    0.000    0.000    0.000 
#    0.000    0.000    0.000    0.000    0.000    0.000 
#
# Total GULP energy -145155.742373 kJ/mol
# GULP energy per Si atom -5582.913168 kJ/mol
# Density = 2.424136 g / cm^3
# Si number density = 24.296663 Si / 1000 Ang^3
#
#
#
# Elastic Constant Matrix: (Units=GPa)
#
#
# Indices 1 2 3 4 5 6 
#
# 1 79.4895 -8.6324 10.5702 0.0000 3.4361 0.0000
# 2 -8.6324 20.7738 5.2625 0.0000 -7.4998 0.0000
# 3 10.5702 5.2625 56.6894 0.0000 -3.4850 0.0000
# 4 0.0000 0.0000 0.0000 38.9204 0.0000 -1.7346
# 5 3.4361 -7.4998 -3.4850 0.0000 32.0575 0.0000
# 6 0.0000 0.0000 0.0000 -1.7346 0.0000 15.4906
#
#
#
# Elastic Compliance Matrix: (Units=1/GPa)
#
#
# Indices 1 2 3 4 5 6 
#
# 1 0.013709 0.006383 -0.003168 0.000000 -0.000320 0.000000
# 2 0.006383 0.056540 -0.005706 0.000000 0.011923 0.000000
# 3 -0.003168 -0.005706 0.018825 0.000000 0.001051 0.000000
# 4 0.000000 0.000000 0.000000 0.025822 0.000000 0.002891
# 5 -0.000320 0.011923 0.001051 0.000000 0.034132 0.000000
# 6 0.000000 0.000000 0.000000 0.002891 0.000000 0.064879
#
#
# Mechanical properties :
#
#
# Convention : Reuss Voigt Hill
#
# Bulk Modulus (GPa) = 11.89171 19.03925 15.46548
# Shear Modulus (GPa) = 20.24954 27.27722 23.76338
#
# Velocity S-wave (km/s) = 2.89005 3.35427 3.13077
# Velocity P-wave (km/s) = 4.00519 4.78065 4.41000
#
# Compressibility (1/GPa) = 0.08409222
#
# Stress axis : x y z
#
# Youngs Moduli (GPa) = 72.94657 17.68657 53.12068
#
# Poissons Ratio (x) = -0.11290 0.16831
# Poissons Ratio (y) = -0.46565 0.30310
# Poissons Ratio (z) = 0.23112 0.10092
#
# Static dielectric constant tensor:
#      x y z
#    x 1.982180 0.000000 0.021170 
#    y 0.000000 2.017290 0.000000 
#    z 0.021170 0.000000 1.958130 
# 
# From -- ./inp_files/117942.got.cif
#   From: 2010.05.17/outbox.cif.g08.bks.cpg/sg15_59_cif.got.tgz:117942.got - 2010.06.03 18:47:42.
