data_PCOD9276130
_publ_section_title
;
Structure prediction by ZEFSAII (Michael W. Deem and Ramdas Pophale) SiO2 
 PCOD9276130
Probable space group: C 2/C
;
_chemical_formula_sum "Si O2"
_cell_formula_units_Z 32
_cell_length_a 21.886069
_cell_length_b 10.519593
_cell_length_c 15.544464
_cell_angle_alpha 90.000000
_cell_angle_beta 157.613632
_cell_angle_gamma 90.000000
_cell_volume 1363.003160
_symmetry_space_group_name_H-M "C 2/C"
_symmetry_group_IT_number 15
_symmetry_cell_setting 'monoclinic'
loop_
_space_group_symop_operation_xyz
x,y,z
-x,y,1/2-z
-x,-y,-z
x,-y,1/2+z
1/2+x,1/2+y,z
1/2-x,1/2+y,1/2-z
1/2-x,1/2-y,-z
1/2+x,1/2-y,1/2+z
loop_
_atom_site_type_symbol
_atom_site_label
_atom_site_fract_x
_atom_site_fract_y
_atom_site_fract_z
Si Si1 0.563028 0.739945 0.244403
Si Si2 0.462949 0.283812 0.105721
Si Si3 0.447667 0.007789 0.031729
Si Si4 0.641388 0.354488 0.173738
O O1 0.500000 0.679811 0.250000
O O2 0.750000 0.750000 0.500000
O O3 0.498756 0.882816 0.147696
O O4 0.496603 0.668909 0.074862
O O5 0.500000 0.326343 0.250000
O O6 0.558839 0.361096 0.158784
O O7 0.257743 0.031900 0.796912
O O8 0.271546 0.262890 0.842116
O O9 0.521947 0.136533 0.169524
O O10 0.500000 0.000000 0.000000
#
# Coordination Sequence:
#
# PCOD9276130 Si02
#       4
#     8   8   8   8
#     4  12  23  43  71  98 135 182 229 282 349 419
#     4  10  20  39  68  97 140 181 229 288 356 401
#     4  10  21  40  69  94 141 179 230 285 353 408
#     4  10  22  40  69 100 139 180 231 298 338 417
#
# _framework density 23.477567000000001
#
# number of rings (size 3 to 8) (size 9 to 14) (size 15 to 20)
#    1.500    0.000    2.500    4.500    0.000    0.000 
#    0.000    5.000    0.000    0.000    0.000    0.000 
#    0.000    0.000    0.000    0.000    0.000    0.000 
#
# Total GULP energy -89440.813230 kJ/mol
# GULP energy per Si atom -5590.050827 kJ/mol
# Density = 2.342413 g / cm^3
# Si number density = 23.477567 Si / 1000 Ang^3
#
#
#
# Elastic Constant Matrix: (Units=GPa)
#
#
# Indices 1 2 3 4 5 6 
#
# 1 245.1277 22.9296 84.5682 0.0000 -3.5405 0.0000
# 2 22.9296 77.6494 30.5042 0.0000 -1.5106 0.0000
# 3 84.5682 30.5042 189.2257 0.0000 3.8465 0.0000
# 4 0.0000 0.0000 0.0000 17.2663 0.0000 25.5719
# 5 -3.5405 -1.5106 3.8465 0.0000 41.8099 0.0000
# 6 0.0000 0.0000 0.0000 25.5719 0.0000 15.1233
#
#
#
# Elastic Compliance Matrix: (Units=1/GPa)
#
#
# Indices 1 2 3 4 5 6 
#
# 1 0.004865 -0.000605 -0.002089 0.000000 0.000582 0.000000
# 2 -0.000605 0.013845 -0.001974 0.000000 0.000631 0.000000
# 3 -0.002089 -0.001974 0.006554 0.000000 -0.000851 0.000000
# 4 0.000000 0.000000 0.000000 -0.038501 0.000000 0.065102
# 5 0.000582 0.000631 -0.000851 0.000000 0.024068 0.000000
# 6 0.000000 0.000000 0.000000 0.065102 0.000000 -0.043957
#
#
# Mechanical properties :
#
#
# Convention : Reuss Voigt Hill
#
# Bulk Modulus (GPa) = 62.78234 87.55630 75.16932
# Shear Modulus (GPa) = -270.53961 39.77327 -115.38317
#
# Velocity S-wave (km/s) = -10.74632 4.12041 -7.01804
# Velocity P-wave (km/s) = 11.27734 7.74671 5.79512
#
# Compressibility (1/GPa) = 0.01592805
#
# Stress axis : x y z
#
# Youngs Moduli (GPa) = 205.54749 72.22880 152.58518
#
# Poissons Ratio (x) = 0.04368 0.31869
# Poissons Ratio (y) = 0.12432 0.30126
# Poissons Ratio (z) = 0.42931 0.14261
#
# Static dielectric constant tensor:
#      x y z
#    x 1.868230 0.000000 0.012470 
#    y 0.000000 1.915830 0.000000 
#    z 0.012470 0.000000 1.879180 
# 
# From -- ./inp_files/27651.got.cif
#   From: 2010.05.17/outbox.cif.g08.bks.cpg/sg15_14_cif.got.tgz:27651.got - 2010.06.03 18:47:42.
