data_PCOD9276577
_publ_section_title
;
Structure prediction by ZEFSAII (Michael W. Deem and Ramdas Pophale) SiO2 
 PCOD9276577
Probable space group: C 2/C
;
_chemical_formula_sum "Si O2"
_cell_formula_units_Z 64
_cell_length_a 9.709159
_cell_length_b 19.918874
_cell_length_c 22.911236
_cell_angle_alpha 90.000000
_cell_angle_beta 52.744221
_cell_angle_gamma 90.000000
_cell_volume 3526.758843
_symmetry_space_group_name_H-M "C 2/C"
_symmetry_group_IT_number 15
_symmetry_cell_setting 'monoclinic'
loop_
_space_group_symop_operation_xyz
x,y,z
-x,y,1/2-z
-x,-y,-z
x,-y,1/2+z
1/2+x,1/2+y,z
1/2-x,1/2+y,1/2-z
1/2-x,1/2-y,-z
1/2+x,1/2-y,1/2+z
loop_
_atom_site_type_symbol
_atom_site_label
_atom_site_fract_x
_atom_site_fract_y
_atom_site_fract_z
Si Si1 0.997436 0.579378 0.184790
Si Si2 0.403137 0.585212 0.214071
Si Si3 0.725131 0.806035 0.586152
Si Si4 0.081874 0.657365 0.550221
Si Si5 0.267599 0.967825 0.430828
Si Si6 0.479710 0.472477 0.407294
Si Si7 0.251446 0.154313 0.554807
Si Si8 0.463104 0.693471 0.409763
O O1 0.799019 0.585233 0.219433
O O2 0.000000 0.553019 0.250000
O O3 0.091179 0.651141 0.157912
O O4 0.110538 0.529953 0.116615
O O5 0.500000 0.581891 0.250000
O O6 0.452303 0.522398 0.159989
O O7 0.456614 0.651138 0.163422
O O8 0.716454 0.831995 0.522057
O O9 0.688912 0.726572 0.595286
O O10 0.915500 0.819670 0.564532
O O11 0.117296 0.596185 0.584001
O O12 0.265282 0.671820 0.471306
O O13 0.034985 0.726008 0.596031
O O14 0.930315 0.640641 0.543148
O O15 0.136378 0.954691 0.411064
O O16 0.155595 0.987715 0.516468
O O17 0.383051 0.406881 0.407120
#
# Coordination Sequence:
#
# PCOD9276577 Si02
#       8
#     8   8   8   8   8   8   8   8
#     4  12  23  42  65  90 123 172 211 252 310 387
#     4  12  27  42  63  92 131 165 209 262 322 370
#     4  10  20  40  63  90 122 162 210 254 307 379
#     4  10  22  36  65  94 124 156 209 265 306 361
#     4  11  22  39  67  91 122 169 212 255 309 376
#     4  11  22  41  63  92 125 167 210 259 310 374
#     4  10  22  36  63  97 123 155 209 264 309 355
#     4  10  20  42  61  89 124 164 205 257 313 371
#
# _framework density 18.146974
#
# number of rings (size 3 to 8) (size 9 to 14) (size 15 to 20)
#    0.000    1.250    5.000    0.750    3.500    1.500 
#    0.000    2.500    0.000    0.000    0.000    0.000 
#    0.000    0.000    0.000    0.000    0.000    0.000 
#
# Total GULP energy -178673.307155 kJ/mol
# GULP energy per Si atom -5583.540849 kJ/mol
# Density = 1.810567 g / cm^3
# Si number density = 18.146974 Si / 1000 Ang^3
#
#
#
# Elastic Constant Matrix: (Units=GPa)
#
#
# Indices 1 2 3 4 5 6 
#
# 1 149.1718 76.8295 37.1442 0.0002 -7.3996 -0.0002
# 2 76.8295 116.1025 36.4725 0.0001 -2.9173 -0.0001
# 3 37.1442 36.4725 45.7795 0.0002 -2.5874 -0.0001
# 4 0.0002 0.0001 0.0002 -5.2135 -0.0002 6.1867
# 5 -7.3996 -2.9173 -2.5874 -0.0002 31.1421 0.0001
# 6 -0.0002 -0.0001 -0.0001 6.1867 0.0001 27.6163
#
#
#
# Elastic Compliance Matrix: (Units=1/GPa)
#
#
# Indices 1 2 3 4 5 6 
#
# 1 0.010794 -0.005841 -0.004009 0.000000 0.001684 0.000000
# 2 -0.005841 0.014652 -0.006968 0.000000 -0.000594 0.000000
# 3 -0.004009 -0.006968 0.030701 0.000001 0.000946 0.000000
# 4 0.000000 0.000000 0.000001 -0.151528 -0.000001 0.033946
# 5 0.001684 -0.000594 0.000946 -0.000001 0.032534 0.000000
# 6 0.000000 0.000000 0.000000 0.033946 0.000000 0.028606
#
#
# Mechanical properties :
#
#
# Convention : Reuss Voigt Hill
#
# Bulk Modulus (GPa) = 44.42138 67.99403 56.20771
# Shear Modulus (GPa) = 724.79815 21.41617 373.10716
#
# Velocity S-wave (km/s) = 20.00679 3.43906 14.35442
# Velocity P-wave (km/s) = 23.62683 7.30201 17.48637
#
# Compressibility (1/GPa) = 0.02251168
#
# Stress axis : x y z
#
# Youngs Moduli (GPa) = 92.64535 68.24921 32.57184
#
# Poissons Ratio (x) = 0.39864 0.13059
# Poissons Ratio (y) = 0.54114 0.22695
# Poissons Ratio (z) = 0.37143 0.47554
#
# Static dielectric constant tensor:
#      x y z
#    x 3.921420 0.000000 -0.935520 
#    y 0.000000 1.637330 0.000000 
#    z -0.935520 0.000000 1.977910 
# 
# From -- ./inp_files/233828.got.cif
#   From: 2010.05.17/outbox.cif.g08.bks.cpg/sg15_117_cif.got.tgz:233828.got - 2010.06.03 18:47:42.
