data_PCOD9276593
_publ_section_title
;
Structure prediction by ZEFSAII (Michael W. Deem and Ramdas Pophale) SiO2 
 PCOD9276593
Probable space group: C 2/C
;
_chemical_formula_sum "Si O2"
_cell_formula_units_Z 52
_cell_length_a 19.619331
_cell_length_b 16.167086
_cell_length_c 10.968080
_cell_angle_alpha 90.000000
_cell_angle_beta 130.053848
_cell_angle_gamma 90.000000
_cell_volume 2662.917454
_symmetry_space_group_name_H-M "C 2/C"
_symmetry_group_IT_number 15
_symmetry_cell_setting 'monoclinic'
loop_
_space_group_symop_operation_xyz
x,y,z
-x,y,1/2-z
-x,-y,-z
x,-y,1/2+z
1/2+x,1/2+y,z
1/2-x,1/2+y,1/2-z
1/2-x,1/2-y,-z
1/2+x,1/2-y,1/2+z
loop_
_atom_site_type_symbol
_atom_site_label
_atom_site_fract_x
_atom_site_fract_y
_atom_site_fract_z
Si Si1 0.597894 0.269978 0.912138
Si Si2 0.677771 0.323016 0.425690
Si Si3 0.637744 0.868960 0.266520
Si Si4 0.218192 0.467714 0.819373
Si Si5 0.500000 0.230038 0.250000
Si Si6 0.296337 0.615189 0.806274
Si Si7 0.947753 0.360004 0.938257
O O1 0.500000 0.290791 0.750000
O O2 0.640325 0.207582 0.861767
O O3 0.650764 0.350406 0.015704
O O4 0.589267 0.215395 0.024145
O O5 0.750000 0.250000 0.500000
O O6 0.724584 0.397423 0.551394
O O7 0.586288 0.287130 0.373732
O O8 0.661876 0.355842 0.270509
O O9 0.696551 0.848474 0.214061
O O10 0.682594 0.955185 0.361637
O O11 0.536605 0.887053 0.111963
O O12 0.279326 0.517419 0.793966
O O13 0.129698 0.427210 0.661739
O O14 0.524920 0.173407 0.162998
#
# Coordination Sequence:
#
# PCOD9276593 Si02
#       7
#     8   8   8   8   4   8   8
#     4  10  20  40  63  92 127 167 219 266 325 398
#     4  12  23  46  65  97 136 178 228 265 336 401
#     4   9  22  36  66  95 129 169 214 273 338 377
#     4  10  24  38  63  95 133 164 214 279 324 387
#     4  12  24  40  74  88 138 178 232 264 322 402
#     4  10  22  41  64  93 132 167 222 269 325 397
#     4  11  21  40  62  99 127 174 216 273 325 394
#
# _framework density 19.527455
#
# number of rings (size 3 to 8) (size 9 to 14) (size 15 to 20)
#    0.923    0.615    3.077    1.846    2.154    0.000 
#    5.538    3.846    0.000    0.000    0.000    0.000 
#    0.000    0.000    0.000    0.000    0.000    0.000 
#
# Total GULP energy -144890.569733 kJ/mol
# GULP energy per Si atom -5572.714220 kJ/mol
# Density = 1.948301 g / cm^3
# Si number density = 19.527455 Si / 1000 Ang^3
#
#
#
# Elastic Constant Matrix: (Units=GPa)
#
#
# Indices 1 2 3 4 5 6 
#
# 1 38.3380 26.1855 1.0837 0.0000 6.6077 0.0000
# 2 26.1855 83.4871 35.1954 0.0000 8.5302 0.0000
# 3 1.0837 35.1954 47.9738 0.0000 7.0130 0.0000
# 4 0.0000 0.0000 0.0000 25.3526 0.0000 9.7971
# 5 6.6077 8.5302 7.0130 0.0000 33.2128 0.0000
# 6 0.0000 0.0000 0.0000 9.7971 0.0000 28.9448
#
#
#
# Elastic Compliance Matrix: (Units=1/GPa)
#
#
# Indices 1 2 3 4 5 6 
#
# 1 0.037928 -0.016355 0.012001 0.000000 -0.005880 0.000000
# 2 -0.016355 0.024501 -0.017708 0.000000 0.000700 0.000000
# 3 0.012001 -0.017708 0.034308 0.000000 -0.005084 0.000000
# 4 0.000000 0.000000 0.000000 0.045379 0.000000 -0.015360
# 5 -0.005880 0.000700 -0.005084 0.000000 0.032172 0.000000
# 6 0.000000 0.000000 0.000000 -0.015360 0.000000 0.039747
#
#
# Mechanical properties :
#
#
# Convention : Reuss Voigt Hill
#
# Bulk Modulus (GPa) = 19.00606 32.74755 25.87680
# Shear Modulus (GPa) = 18.13583 24.65765 21.39674
#
# Velocity S-wave (km/s) = 3.05082 3.55733 3.31377
# Velocity P-wave (km/s) = 4.70788 5.80338 5.28409
#
# Compressibility (1/GPa) = 0.05261481
#
# Stress axis : x y z
#
# Youngs Moduli (GPa) = 26.36540 40.81465 29.14775
#
# Poissons Ratio (x) = 0.66751 -0.34981
# Poissons Ratio (y) = 0.43120 0.51614
# Poissons Ratio (z) = -0.31642 0.72274
#
# Static dielectric constant tensor:
#      x y z
#    x 1.710500 0.000000 0.008820 
#    y 0.000000 1.707370 0.000000 
#    z 0.008820 0.000000 1.717660 
# 
# From -- ./inp_files/112802.got.cif
#   From: 2010.05.17/outbox.cif.g08.bks.cpg/sg15_57_cif.got.tgz:112802.got - 2010.06.03 18:47:42.
