data_PCOD9276604
_publ_section_title
;
Structure prediction by ZEFSAII (Michael W. Deem and Ramdas Pophale) SiO2 
 PCOD9276604
Probable space group: C 2/C
;
_chemical_formula_sum "Si O2"
_cell_formula_units_Z 56
_cell_length_a 19.907972
_cell_length_b 20.437950
_cell_length_c 17.003988
_cell_angle_alpha 90.000000
_cell_angle_beta 158.368441
_cell_angle_gamma 90.000000
_cell_volume 2550.431275
_symmetry_space_group_name_H-M "C 2/C"
_symmetry_group_IT_number 15
_symmetry_cell_setting 'monoclinic'
loop_
_space_group_symop_operation_xyz
x,y,z
-x,y,1/2-z
-x,-y,-z
x,-y,1/2+z
1/2+x,1/2+y,z
1/2-x,1/2+y,1/2-z
1/2-x,1/2-y,-z
1/2+x,1/2-y,1/2+z
loop_
_atom_site_type_symbol
_atom_site_label
_atom_site_fract_x
_atom_site_fract_y
_atom_site_fract_z
Si Si1 0.824251 0.424922 0.160254
Si Si2 0.274869 0.438121 0.904247
Si Si3 0.026120 0.126427 0.460714
Si Si4 0.819993 0.180067 0.103692
Si Si5 0.194446 0.535124 0.139753
Si Si6 0.825592 0.901526 0.220072
Si Si7 0.217185 0.826433 0.475542
O O1 0.758887 0.499739 0.075930
O O2 0.027058 0.429435 0.415238
O O3 0.688894 0.395672 0.080140
O O4 0.805448 0.379028 0.063521
O O5 0.181704 0.455713 0.719713
O O6 0.488853 0.430843 0.116239
O O7 0.209886 0.370351 0.872757
O O8 0.108790 0.143307 0.635362
O O9 0.892704 0.177668 0.271912
O O10 0.888322 0.066431 0.326282
O O11 0.000000 0.167412 0.250000
O O12 0.750000 0.250000 0.000000
O O13 0.208279 0.460164 0.128271
O O14 0.728310 0.862003 0.045797
O O15 0.250000 0.750000 0.500000
O O16 0.000000 0.832135 0.250000
#
# Coordination Sequence:
#
# PCOD9276604 Si02
#       7
#     8   8   8   8   8   8   8
#     4  11  22  38  65  97 124 164 209 267 334 380
#     4  10  20  40  63  93 130 165 209 271 326 379
#     4  10  21  41  62  91 127 162 207 265 322 382
#     4  10  25  43  61  88 132 170 215 270 321 393
#     4  11  21  37  69  97 126 158 211 269 318 392
#     4  10  20  40  67  92 128 168 212 267 331 386
#     4  10  24  43  62  90 134 176 216 266 326 392
#
# _framework density 21.957070999999999
#
# number of rings (size 3 to 8) (size 9 to 14) (size 15 to 20)
#    0.000    1.714    2.857    1.286    4.000    2.857 
#    2.571    2.857    0.000    0.000    0.000    0.000 
#    0.000    0.000    0.000    0.000    0.000    0.000 
#
# Total GULP energy -156358.541656 kJ/mol
# GULP energy per Si atom -5584.233631 kJ/mol
# Density = 2.190710 g / cm^3
# Si number density = 21.957071 Si / 1000 Ang^3
#
#
#
# Elastic Constant Matrix: (Units=GPa)
#
#
# Indices 1 2 3 4 5 6 
#
# 1 103.2239 56.5504 46.0324 0.0000 -15.4895 0.0000
# 2 56.5504 121.7996 35.2542 0.0000 -29.2381 0.0000
# 3 46.0324 35.2542 89.5575 -0.0001 -5.1812 -0.0001
# 4 0.0000 0.0000 -0.0001 33.8699 0.0000 -3.1113
# 5 -15.4895 -29.2381 -5.1812 0.0000 38.3935 -0.0001
# 6 0.0000 0.0000 -0.0001 -3.1113 -0.0001 27.6470
#
#
#
# Elastic Compliance Matrix: (Units=1/GPa)
#
#
# Indices 1 2 3 4 5 6 
#
# 1 0.015252 -0.005045 -0.005765 0.000000 0.001534 0.000000
# 2 -0.005045 0.012968 -0.002074 0.000000 0.007560 0.000000
# 3 -0.005765 -0.002074 0.014836 0.000000 -0.001904 0.000000
# 4 0.000000 0.000000 0.000000 0.029833 0.000000 0.003357
# 5 0.001534 0.007560 -0.001904 0.000000 0.032165 0.000000
# 6 0.000000 0.000000 0.000000 0.003357 0.000000 0.036548
#
#
# Mechanical properties :
#
#
# Convention : Reuss Voigt Hill
#
# Bulk Modulus (GPa) = 57.84557 65.58391 61.71474
# Shear Modulus (GPa) = 28.87946 31.76501 30.32224
#
# Velocity S-wave (km/s) = 3.63060 3.80766 3.72018
# Velocity P-wave (km/s) = 6.63152 7.01891 6.82796
#
# Compressibility (1/GPa) = 0.01728741
#
# Stress axis : x y z
#
# Youngs Moduli (GPa) = 65.56307 77.11498 67.40480
#
# Poissons Ratio (x) = 0.38902 0.38860
# Poissons Ratio (y) = 0.33075 0.13982
# Poissons Ratio (z) = 0.37798 0.15996
#
# Static dielectric constant tensor:
#      x y z
#    x 1.851510 0.000000 -0.016920 
#    y 0.000000 1.761450 0.000000 
#    z -0.016920 0.000000 1.859220 
# 
# From -- ./inp_files/216673.got.cif
#   From: 2010.05.17/outbox.cif.g08.bks.cpg/sg15_109_cif.got.tgz:216673.got - 2010.06.03 18:47:42.
