data_PCOD9276237
_publ_section_title
;
Structure prediction by ZEFSAII (Michael W. Deem and Ramdas Pophale) SiO2 
 PCOD9276237
Probable space group: C 2/C
;
_chemical_formula_sum "Si O2"
_cell_formula_units_Z 64
_cell_length_a 23.592523
_cell_length_b 12.182852
_cell_length_c 9.227469
_cell_angle_alpha 90.000000
_cell_angle_beta 79.148852
_cell_angle_gamma 90.000000
_cell_volume 2604.775638
_symmetry_space_group_name_H-M "C 2/C"
_symmetry_group_IT_number 15
_symmetry_cell_setting 'monoclinic'
loop_
_space_group_symop_operation_xyz
x,y,z
-x,y,1/2-z
-x,-y,-z
x,-y,1/2+z
1/2+x,1/2+y,z
1/2-x,1/2+y,1/2-z
1/2-x,1/2-y,-z
1/2+x,1/2-y,1/2+z
loop_
_atom_site_type_symbol
_atom_site_label
_atom_site_fract_x
_atom_site_fract_y
_atom_site_fract_z
Si Si1 0.201388 0.193584 0.859810
Si Si2 0.585272 0.364681 0.266652
Si Si3 0.051998 0.692645 0.830393
Si Si4 0.280995 0.367811 0.682321
Si Si5 0.023502 0.363559 0.882710
Si Si6 0.740689 0.994543 0.970533
Si Si7 0.627632 0.886379 0.047663
Si Si8 0.415226 0.584318 0.071775
O O1 0.152869 0.155099 0.769535
O O2 0.254791 0.256420 0.759628
O O3 0.223705 0.098948 0.956459
O O4 0.165626 0.283909 0.970104
O O5 0.549541 0.255060 0.321127
O O6 0.568545 0.463951 0.381500
O O7 0.577996 0.400121 0.103637
O O8 0.105974 0.645524 0.717833
O O9 0.051897 0.822575 0.856210
O O10 0.000000 0.668105 0.750000
O O11 0.033709 0.646109 0.993109
O O12 0.259988 0.391846 0.530189
O O13 0.349049 0.386356 0.646019
O O14 0.254136 0.463109 0.799356
O O15 0.000000 0.421903 0.750000
O O16 0.075432 0.406194 0.959498
O O17 0.672717 0.984405 0.029521
#
# Coordination Sequence:
#
# PCOD9276237 Si02
#       8
#     8   8   8   8   8   8   8   8
#     4  10  21  40  61  86 126 164 214 253 315 360
#     4  11  25  36  57  84 125 170 206 263 297 382
#     4  10  21  36  60  87 118 161 207 255 305 369
#     4  11  23  38  64  88 127 170 204 261 306 369
#     4  10  20  40  55  87 123 157 205 256 311 367
#     4  11  21  41  60  93 125 164 212 258 308 376
#     4   9  20  37  63  85 116 162 203 249 315 366
#     4  12  23  37  55  86 126 167 215 240 313 360
#
# _framework density 24.570255
#
# number of rings (size 3 to 8) (size 9 to 14) (size 15 to 20)
#    0.000    1.500    2.500    3.750    5.250    1.500 
#    2.250    0.000    0.000    0.000    0.000   74.375 
#    0.000    0.000    0.000    0.000    0.000    0.000 
#
# Total GULP energy -179121.334601 kJ/mol
# GULP energy per Si atom -5597.541706 kJ/mol
# Density = 2.451433 g / cm^3
# Si number density = 24.570255 Si / 1000 Ang^3
#
#
#
# Elastic Constant Matrix: (Units=GPa)
#
#
# Indices 1 2 3 4 5 6 
#
# 1 85.7959 27.0915 29.7915 0.0000 5.1445 0.0000
# 2 27.0915 78.4394 27.6354 0.0000 2.3020 0.0000
# 3 29.7915 27.6354 143.9489 0.0000 -0.5822 0.0000
# 4 0.0000 0.0000 0.0000 17.2096 0.0000 -4.1503
# 5 5.1445 2.3020 -0.5822 0.0000 28.2036 0.0000
# 6 0.0000 0.0000 0.0000 -4.1503 0.0000 1.1682
#
#
#
# Elastic Compliance Matrix: (Units=1/GPa)
#
#
# Indices 1 2 3 4 5 6 
#
# 1 0.013766 -0.003949 -0.002100 0.000000 -0.002232 0.000000
# 2 -0.003949 0.014845 -0.002035 0.000000 -0.000533 0.000000
# 3 -0.002100 -0.002035 0.007775 0.000000 0.000710 0.000000
# 4 0.000000 0.000000 0.000000 0.405809 0.000000 1.441783
# 5 -0.002232 -0.000533 0.000710 0.000000 0.035922 0.000000
# 6 0.000000 0.000000 0.000000 1.441783 0.000000 5.978514
#
#
# Mechanical properties :
#
#
# Convention : Reuss Voigt Hill
#
# Bulk Modulus (GPa) = 49.46012 53.02456 51.24234
# Shear Modulus (GPa) = 0.77166 24.22733 12.49949
#
# Velocity S-wave (km/s) = 0.56102 3.14354 2.25794
# Velocity P-wave (km/s) = 4.53800 5.89944 5.26293
#
# Compressibility (1/GPa) = 0.02021831
#
# Stress axis : x y z
#
# Youngs Moduli (GPa) = 72.64535 67.36187 128.61733
#
# Poissons Ratio (x) = 0.26602 0.27007
# Poissons Ratio (y) = 0.28688 0.26172
# Poissons Ratio (z) = 0.15254 0.13707
#
# Static dielectric constant tensor:
#      x y z
#    x 1.937030 0.000000 -0.025010 
#    y 0.000000 1.988760 0.000000 
#    z -0.025010 0.000000 1.971780 
# 
# From -- ./inp_files/66210.got.cif
#   From: 2010.05.17/outbox.cif.g08.bks.cpg/sg15_34_cif.got.tgz:66210.got - 2010.06.03 18:47:42.
