data_PCOD9276999
_publ_section_title
;
Structure prediction by ZEFSAII (Michael W. Deem and Ramdas Pophale) SiO2 
 PCOD9276999
Probable space group: C 2/C
;
_chemical_formula_sum "Si O2"
_cell_formula_units_Z 48
_cell_length_a 14.718099
_cell_length_b 13.759848
_cell_length_c 11.621154
_cell_angle_alpha 90.000000
_cell_angle_beta 124.159053
_cell_angle_gamma 90.000000
_cell_volume 1947.480870
_symmetry_space_group_name_H-M "C 2/C"
_symmetry_group_IT_number 15
_symmetry_cell_setting 'monoclinic'
loop_
_space_group_symop_operation_xyz
x,y,z
-x,y,1/2-z
-x,-y,-z
x,-y,1/2+z
1/2+x,1/2+y,z
1/2-x,1/2+y,1/2-z
1/2-x,1/2-y,-z
1/2+x,1/2-y,1/2+z
loop_
_atom_site_type_symbol
_atom_site_label
_atom_site_fract_x
_atom_site_fract_y
_atom_site_fract_z
Si Si1 0.500000 0.211995 0.250000
Si Si2 0.273553 0.681677 0.181475
Si Si3 0.406345 0.687253 0.050205
Si Si4 0.280040 0.137388 0.040132
Si Si5 0.000000 0.636960 0.750000
Si Si6 0.923157 0.148413 0.493028
Si Si7 0.112666 0.517230 0.012305
O O1 0.392196 0.147457 0.192785
O O2 0.520308 0.280018 0.375067
O O3 0.358985 0.655892 0.139663
O O4 0.336672 0.697093 0.343564
O O5 0.201277 0.773845 0.092555
O O6 0.191034 0.592351 0.130927
O O7 0.481884 0.783281 0.133819
O O8 0.478976 0.616906 0.022766
O O9 0.167504 0.085848 0.001999
O O10 0.322694 0.082490 0.958292
O O11 0.250000 0.250000 0.000000
O O12 0.089581 0.562163 0.867109
O O13 0.000000 0.500000 0.000000
#
# Coordination Sequence:
#
# PCOD9276999 Si02
#       7
#     4   8   8   8   4   8   8
#     4  10  23  40  66 101 142 186 246 291 350 450
#     4  10  22  38  70 102 140 182 239 295 366 430
#     4  10  20  40  67 105 136 182 233 293 363 437
#     4  10  24  41  66  95 139 186 243 286 371 434
#     4  10  21  38  66 101 138 168 242 295 362 430
#     4  11  21  40  69 101 137 188 235 292 361 442
#     4  11  26  42  67 102 143 186 240 310 365 426
#
# _framework density 24.647226
#
# number of rings (size 3 to 8) (size 9 to 14) (size 15 to 20)
#    0.000    1.667    1.667    1.500   14.000    0.000 
#    0.000    0.833   14.667    0.000    0.000    0.000 
#    0.000    0.000    0.000    0.000    0.000    0.000 
#
# Total GULP energy -133627.488435 kJ/mol
# GULP energy per Si atom -5567.812018 kJ/mol
# Density = 2.459113 g / cm^3
# Si number density = 24.647226 Si / 1000 Ang^3
#
#
#
# Elastic Constant Matrix: (Units=GPa)
#
#
# Indices 1 2 3 4 5 6 
#
# 1 229.6242 37.2951 9.5878 0.0000 -5.8514 0.0000
# 2 37.2951 60.4001 15.8493 0.0000 -2.2869 0.0000
# 3 9.5878 15.8493 120.4382 0.0000 -7.1661 0.0000
# 4 0.0000 0.0000 0.0000 9.4016 0.0000 2.7210
# 5 -5.8514 -2.2869 -7.1661 0.0000 28.4300 0.0000
# 6 0.0000 0.0000 0.0000 2.7210 0.0000 28.2108
#
#
#
# Elastic Compliance Matrix: (Units=1/GPa)
#
#
# Indices 1 2 3 4 5 6 
#
# 1 0.004857 -0.002983 0.000052 0.000000 0.000773 0.000000
# 2 -0.002983 0.019000 -0.002242 0.000000 0.000349 0.000000
# 3 0.000052 -0.002242 0.008715 0.000000 0.002027 0.000000
# 4 0.000000 0.000000 0.000000 0.109419 0.000000 -0.010554
# 5 0.000773 0.000349 0.002027 0.000000 0.035872 0.000000
# 6 0.000000 0.000000 0.000000 -0.010554 0.000000 0.036465
#
#
# Mechanical properties :
#
#
# Convention : Reuss Voigt Hill
#
# Bulk Modulus (GPa) = 44.99553 59.54743 52.27148
# Shear Modulus (GPa) = 21.54402 36.39053 28.96727
#
# Velocity S-wave (km/s) = 2.95972 3.84664 3.43195
# Velocity P-wave (km/s) = 5.47498 6.62881 6.07933
#
# Compressibility (1/GPa) = 0.02222443
#
# Stress axis : x y z
#
# Youngs Moduli (GPa) = 205.88734 52.63166 114.75083
#
# Poissons Ratio (x) = 0.15702 -0.00596
# Poissons Ratio (y) = 0.61425 0.25728
# Poissons Ratio (z) = -0.01069 0.11800
#
# Static dielectric constant tensor:
#      x y z
#    x 2.145320 0.000000 -0.028470 
#    y 0.000000 1.982230 0.000000 
#    z -0.028470 0.000000 1.983750 
# 
# From -- ./inp_files/97241.got.cif
#   From: 2010.05.17/outbox.cif.g08.bks.cpg/sg15_49_cif.got.tgz:97241.got - 2010.06.03 18:47:42.
