data_PCOD9276707
_publ_section_title
;
Structure prediction by ZEFSAII (Michael W. Deem and Ramdas Pophale) SiO2 
 PCOD9276707
Probable space group: C 2/C
;
_chemical_formula_sum "Si O2"
_cell_formula_units_Z 44
_cell_length_a 19.286097
_cell_length_b 11.844777
_cell_length_c 11.380501
_cell_angle_alpha 90.000000
_cell_angle_beta 43.449165
_cell_angle_gamma 90.000000
_cell_volume 1787.880197
_symmetry_space_group_name_H-M "C 2/C"
_symmetry_group_IT_number 15
_symmetry_cell_setting 'monoclinic'
loop_
_space_group_symop_operation_xyz
x,y,z
-x,y,1/2-z
-x,-y,-z
x,-y,1/2+z
1/2+x,1/2+y,z
1/2-x,1/2+y,1/2-z
1/2-x,1/2-y,-z
1/2+x,1/2-y,1/2+z
loop_
_atom_site_type_symbol
_atom_site_label
_atom_site_fract_x
_atom_site_fract_y
_atom_site_fract_z
Si Si1 0.089489 0.833109 0.329916
Si Si2 0.410261 0.408714 0.693263
Si Si3 0.762180 0.336007 0.748058
Si Si4 0.000000 0.658757 0.250000
Si Si5 0.115984 0.291519 0.134029
Si Si6 0.600291 0.004397 0.792725
O O1 0.196062 0.772873 0.230813
O O2 0.026026 0.747087 0.324580
O O3 0.022879 0.862740 0.527624
O O4 0.100189 0.959440 0.267179
O O5 0.350150 0.369533 0.649994
O O6 0.369134 0.337153 0.851178
O O7 0.818576 0.326440 0.555058
O O8 0.810544 0.441045 0.753779
O O9 0.081838 0.563669 0.192722
O O10 0.132269 0.368447 0.228114
O O11 0.000000 0.314611 0.250000
O O12 0.500000 0.000000 0.000000
#
# Coordination Sequence:
#
# PCOD9276707 Si02
#       6
#     8   8   8   4   8   8
#     4  10  24  45  65  92 137 170 210 268 327 380
#     4  11  25  42  67  94 131 174 210 271 321 387
#     4  11  24  43  66  96 126 170 223 261 324 387
#     4  10  20  40  64  92 124 170 208 254 322 384
#     4  12  21  40  68  96 127 170 216 270 324 377
#     4  11  20  39  66  93 127 165 212 270 320 378
#
# _framework density 24.610150000000001
#
# number of rings (size 3 to 8) (size 9 to 14) (size 15 to 20)
#    0.000    1.091    4.545    1.636    3.818    0.000 
#    3.273    1.818    0.000    0.000    0.000    0.000 
#    0.000    0.000    0.000    0.000    0.000    0.000 
#
# Total GULP energy -122721.204128 kJ/mol
# GULP energy per Si atom -5578.236551 kJ/mol
# Density = 2.455414 g / cm^3
# Si number density = 24.610150 Si / 1000 Ang^3
#
#
#
# Elastic Constant Matrix: (Units=GPa)
#
#
# Indices 1 2 3 4 5 6 
#
# 1 77.7985 10.5668 -2.4802 0.0000 -0.3949 0.0000
# 2 10.5668 153.6712 16.1188 0.0000 8.4032 0.0000
# 3 -2.4802 16.1188 26.0149 0.0000 3.9648 0.0000
# 4 0.0000 0.0000 0.0000 5.3723 0.0000 3.4151
# 5 -0.3949 8.4032 3.9648 0.0000 28.1546 0.0000
# 6 0.0000 0.0000 0.0000 3.4151 0.0000 27.1979
#
#
#
# Elastic Compliance Matrix: (Units=1/GPa)
#
#
# Indices 1 2 3 4 5 6 
#
# 1 0.013066 -0.001111 0.001896 0.000000 0.000248 0.000000
# 2 -0.001111 0.007117 -0.004281 0.000000 -0.001537 0.000000
# 3 0.001896 -0.004281 0.041975 0.000000 -0.004607 0.000000
# 4 0.000000 0.000000 0.000000 0.202288 0.000000 -0.025400
# 5 0.000248 -0.001537 -0.004607 0.000000 0.036629 0.000000
# 6 0.000000 0.000000 0.000000 -0.025400 0.000000 0.039957
#
#
# Mechanical properties :
#
#
# Convention : Reuss Voigt Hill
#
# Bulk Modulus (GPa) = 18.12701 33.98840 26.05770
# Shear Modulus (GPa) = 13.64579 27.69690 20.67134
#
# Velocity S-wave (km/s) = 2.35729 3.35838 2.90134
# Velocity P-wave (km/s) = 3.84587 5.37391 4.67278
#
# Compressibility (1/GPa) = 0.05516629
#
# Stress axis : x y z
#
# Youngs Moduli (GPa) = 76.53268 140.51056 23.82367
#
# Poissons Ratio (x) = 0.15610 -0.04518
# Poissons Ratio (y) = 0.08502 0.10200
# Poissons Ratio (z) = -0.14513 0.60157
#
# Static dielectric constant tensor:
#      x y z
#    x 2.015620 0.000000 0.010730 
#    y 0.000000 1.935670 0.000000 
#    z 0.010730 0.000000 1.960750 
# 
# From -- ./inp_files/110840.got.cif
#   From: 2010.05.17/outbox.cif.g08.bks.cpg/sg15_56_cif.got.tgz:110840.got - 2010.06.03 18:47:42.
