data_PCOD9276158
_publ_section_title
;
Structure prediction by ZEFSAII (Michael W. Deem and Ramdas Pophale) SiO2 
 PCOD9276158
Probable space group: C 2/C
;
_chemical_formula_sum "Si O2"
_cell_formula_units_Z 52
_cell_length_a 29.816991
_cell_length_b 8.750810
_cell_length_c 15.347413
_cell_angle_alpha 90.000000
_cell_angle_beta 39.723500
_cell_angle_gamma 90.000000
_cell_volume 2559.203032
_symmetry_space_group_name_H-M "C 2/C"
_symmetry_group_IT_number 15
_symmetry_cell_setting 'monoclinic'
loop_
_space_group_symop_operation_xyz
x,y,z
-x,y,1/2-z
-x,-y,-z
x,-y,1/2+z
1/2+x,1/2+y,z
1/2-x,1/2+y,1/2-z
1/2-x,1/2-y,-z
1/2+x,1/2-y,1/2+z
loop_
_atom_site_type_symbol
_atom_site_label
_atom_site_fract_x
_atom_site_fract_y
_atom_site_fract_z
Si Si1 0.536109 0.564568 0.532170
Si Si2 0.317325 0.608533 0.678981
Si Si3 0.389094 0.862794 0.468512
Si Si4 0.742199 0.958046 0.940584
Si Si5 0.555206 0.081560 0.979908
Si Si6 0.712524 0.886063 0.175795
Si Si7 0.500000 0.380937 0.750000
O O1 0.500000 0.500000 0.500000
O O2 0.616320 0.505515 0.420816
O O3 0.533867 0.745937 0.532542
O O4 0.496355 0.487903 0.671948
O O5 0.346810 0.774583 0.608780
O O6 0.281262 0.587572 0.826471
O O7 0.261095 0.574942 0.686476
O O8 0.335788 0.940396 0.481919
O O9 0.433176 0.729879 0.356604
O O10 0.438015 0.984394 0.442150
O O11 0.777642 0.794289 0.862594
O O12 0.738152 0.972458 0.050386
O O13 0.631867 0.086379 0.820223
O O14 0.500000 0.000000 0.000000
#
# Coordination Sequence:
#
# PCOD9276158 Si02
#       7
#     8   8   8   8   8   8   4
#     4  11  25  44  70  94 134 182 224 276 331 410
#     4  10  20  42  65  95 132 173 222 271 328 402
#     4  10  23  39  70  95 135 177 219 287 330 390
#     4  10  20  39  69  95 128 175 223 266 326 402
#     4  12  24  42  65 101 139 172 222 285 342 389
#     4  10  22  38  65  99 125 174 224 266 333 391
#     4  10  24  46  66  98 130 180 236 264 344 404
#
# _framework density 20.318826999999999
#
# number of rings (size 3 to 8) (size 9 to 14) (size 15 to 20)
#    0.000    1.538    3.077    1.846    4.308    3.077 
#    0.000    0.769    0.000    0.000    0.000    0.000 
#    0.000    0.000    0.000    0.000    0.000    0.000 
#
# Total GULP energy -145325.294706 kJ/mol
# GULP energy per Si atom -5589.434412 kJ/mol
# Density = 2.027258 g / cm^3
# Si number density = 20.318827 Si / 1000 Ang^3
#
#
#
# Elastic Constant Matrix: (Units=GPa)
#
#
# Indices 1 2 3 4 5 6 
#
# 1 107.3500 50.7384 40.5406 -0.0001 -2.2556 0.0000
# 2 50.7384 103.7355 37.2618 -0.0009 0.0568 0.0005
# 3 40.5406 37.2618 100.2127 -0.0002 15.4826 0.0001
# 4 -0.0001 -0.0009 -0.0002 22.7593 0.0001 0.8937
# 5 -2.2556 0.0568 15.4826 0.0001 38.9790 -0.0001
# 6 0.0000 0.0005 0.0001 0.8937 -0.0001 32.3595
#
#
#
# Elastic Compliance Matrix: (Units=1/GPa)
#
#
# Indices 1 2 3 4 5 6 
#
# 1 0.013207 -0.005096 -0.003801 0.000000 0.002281 0.000000
# 2 -0.005096 0.013203 -0.002982 0.000000 0.000870 0.000000
# 3 -0.003801 -0.002982 0.013486 0.000000 -0.005572 0.000000
# 4 0.000000 0.000000 0.000000 0.043986 0.000000 -0.001215
# 5 0.002281 0.000870 -0.005572 0.000000 0.027999 0.000000
# 6 0.000000 0.000000 0.000000 -0.001215 0.000000 0.030936
#
#
# Mechanical properties :
#
#
# Convention : Reuss Voigt Hill
#
# Bulk Modulus (GPa) = 61.96192 63.15332 62.55762
# Shear Modulus (GPa) = 29.07752 31.00338 30.04045
#
# Velocity S-wave (km/s) = 3.78704 3.91044 3.84924
# Velocity P-wave (km/s) = 7.04864 7.17896 7.11410
#
# Compressibility (1/GPa) = 0.01613894
#
# Stress axis : x y z
#
# Youngs Moduli (GPa) = 75.71723 75.73990 74.15076
#
# Poissons Ratio (x) = 0.38596 0.28181
# Poissons Ratio (y) = 0.38584 0.22114
# Poissons Ratio (z) = 0.28777 0.22587
#
# Static dielectric constant tensor:
#      x y z
#    x 1.730520 0.000000 0.050640 
#    y 0.000000 1.698450 0.000000 
#    z 0.050640 0.000000 1.821990 
# 
# From -- ./inp_files/181052.got.cif
#   From: 2010.05.17/outbox.cif.g08.bks.cpg/sg15_91_cif.got.tgz:181052.got - 2010.06.03 18:47:42.
