data_PCOD9276718
_publ_section_title
;
Structure prediction by ZEFSAII (Michael W. Deem and Ramdas Pophale) SiO2 
 PCOD9276718
Probable space group: C 2/C
;
_chemical_formula_sum "Si O2"
_cell_formula_units_Z 52
_cell_length_a 9.178333
_cell_length_b 30.722757
_cell_length_c 13.597237
_cell_angle_alpha 90.000000
_cell_angle_beta 41.276067
_cell_angle_gamma 90.000000
_cell_volume 2529.374385
_symmetry_space_group_name_H-M "C 2/C"
_symmetry_group_IT_number 15
_symmetry_cell_setting 'monoclinic'
loop_
_space_group_symop_operation_xyz
x,y,z
-x,y,1/2-z
-x,-y,-z
x,-y,1/2+z
1/2+x,1/2+y,z
1/2-x,1/2+y,1/2-z
1/2-x,1/2-y,-z
1/2+x,1/2-y,1/2+z
loop_
_atom_site_type_symbol
_atom_site_label
_atom_site_fract_x
_atom_site_fract_y
_atom_site_fract_z
Si Si1 0.187963 0.113881 0.071843
Si Si2 0.000000 0.270425 0.750000
Si Si3 0.000000 0.031044 0.750000
Si Si4 0.924172 0.966214 0.618817
Si Si5 0.138542 0.302320 0.469742
Si Si6 0.349024 0.202498 0.925154
Si Si7 0.500000 0.081218 0.250000
Si Si8 0.361494 0.895446 0.029093
O O1 0.422024 0.102339 0.008503
O O2 0.000000 0.121971 0.250000
O O3 0.096561 0.072370 0.057286
O O4 0.205985 0.157542 0.995028
O O5 0.981536 0.295483 0.863689
O O6 0.209295 0.238488 0.634347
O O7 0.198688 0.063571 0.619668
O O8 0.895030 0.997198 0.726830
O O9 0.702353 0.946415 0.688429
O O10 0.000000 0.000000 0.500000
O O11 0.256691 0.348856 0.400095
O O12 0.970904 0.305444 0.465723
O O13 0.500000 0.204702 0.750000
O O14 0.250000 0.250000 0.000000
O O15 0.565173 0.107301 0.120999
#
# Coordination Sequence:
#
# PCOD9276718 Si02
#       8
#     8   4   4   8   8   8   4   8
#     4  11  24  46  68  97 140 185 232 289 353 413
#     4  10  20  40  64  92 132 172 214 281 335 416
#     4  12  25  44  66  97 140 177 228 285 344 402
#     4  12  26  43  68 101 132 183 228 286 352 407
#     4  10  22  40  63  95 129 172 222 270 344 395
#     4  11  24  44  69 102 135 180 231 284 344 414
#     4  12  23  44  66  97 132 175 232 272 343 410
#     4  11  24  42  66  97 135 179 226 285 340 410
#
# _framework density 20.558444000000001
#
# number of rings (size 3 to 8) (size 9 to 14) (size 15 to 20)
#    0.000    0.923    3.846    2.308    2.154    4.923 
#    8.308    0.000    0.000    0.000    0.000    0.000 
#    0.000    0.000    0.000    0.000    0.000    0.000 
#
# Total GULP energy -144770.328134 kJ/mol
# GULP energy per Si atom -5568.089544 kJ/mol
# Density = 2.051165 g / cm^3
# Si number density = 20.558444 Si / 1000 Ang^3
#
#
#
# Elastic Constant Matrix: (Units=GPa)
#
#
# Indices 1 2 3 4 5 6 
#
# 1 104.7304 54.6159 33.2150 0.0000 2.0279 0.0000
# 2 54.6159 181.9469 55.5554 0.0000 2.9396 0.0000
# 3 33.2150 55.5554 82.9187 0.0000 -0.7808 0.0000
# 4 0.0000 0.0000 0.0000 2204.5812 0.0000-2174.8023
# 5 2.0279 2.9396 -0.7808 0.0000 25.1995 0.0000
# 6 0.0000 0.0000 0.0000-2174.8023 0.0000 2246.6110
#
#
#
# Elastic Compliance Matrix: (Units=1/GPa)
#
#
# Indices 1 2 3 4 5 6 
#
# 1 0.011892 -0.002641 -0.003001 0.000000 -0.000742 0.000000
# 2 -0.002641 0.007519 -0.003987 0.000000 -0.000788 0.000000
# 3 -0.003001 -0.003987 0.015945 0.000000 0.001201 0.000000
# 4 0.000000 0.000000 0.000000 0.010071 0.000000 0.009749
# 5 -0.000742 -0.000788 0.001201 0.000000 0.039872 0.000000
# 6 0.000000 0.000000 0.000000 0.009749 0.000000 0.009883
#
#
# Mechanical properties :
#
#
# Convention : Reuss Voigt Hill
#
# Bulk Modulus (GPa) = 62.12335 72.92986 67.52661
# Shear Modulus (GPa) = 41.73398 910.35899 476.04649
#
# Velocity S-wave (km/s) = 4.51046 21.06600 15.23353
# Velocity P-wave (km/s) = 7.57688 25.04503 18.50220
#
# Compressibility (1/GPa) = 0.01609701
#
# Stress axis : x y z
#
# Youngs Moduli (GPa) = 84.09125 132.99363 62.71654
#
# Poissons Ratio (x) = 0.35129 0.18820
# Poissons Ratio (y) = 0.22212 0.25006
# Poissons Ratio (z) = 0.25234 0.53027
#
# Static dielectric constant tensor:
#      x y z
#    x 1.729280 0.000000 -0.019050 
#    y 0.000000 1.831680 0.000000 
#    z -0.019050 0.000000 1.728200 
# 
# From -- ./inp_files/139770.got.cif
#   From: 2010.05.17/outbox.cif.g08.bks.cpg/sg15_70_cif.got.tgz:139770.got - 2010.06.03 18:47:42.
