data_PCOD9276398
_publ_section_title
;
Structure prediction by ZEFSAII (Michael W. Deem and Ramdas Pophale) SiO2 
 PCOD9276398
Probable space group: C 2/C
;
_chemical_formula_sum "Si O2"
_cell_formula_units_Z 56
_cell_length_a 9.436806
_cell_length_b 16.313676
_cell_length_c 22.189713
_cell_angle_alpha 90.000000
_cell_angle_beta 57.880084
_cell_angle_gamma 90.000000
_cell_volume 2893.208492
_symmetry_space_group_name_H-M "C 2/C"
_symmetry_group_IT_number 15
_symmetry_cell_setting 'monoclinic'
loop_
_space_group_symop_operation_xyz
x,y,z
-x,y,1/2-z
-x,-y,-z
x,-y,1/2+z
1/2+x,1/2+y,z
1/2-x,1/2+y,1/2-z
1/2-x,1/2-y,-z
1/2+x,1/2-y,1/2+z
loop_
_atom_site_type_symbol
_atom_site_label
_atom_site_fract_x
_atom_site_fract_y
_atom_site_fract_z
Si Si1 0.818091 0.792640 0.759076
Si Si2 0.862383 0.945980 0.663699
Si Si3 0.269073 0.575320 0.048409
Si Si4 0.237577 0.925790 0.536281
Si Si5 0.453744 0.834799 0.578750
Si Si6 0.616181 0.660882 0.953129
Si Si7 0.695958 0.111885 0.711628
O O1 0.820510 0.860749 0.706452
O O2 0.677119 0.821039 0.837769
O O3 0.787200 0.695698 0.752682
O O4 0.000000 0.794911 0.750000
O O5 0.776761 0.944141 0.617246
O O6 0.062669 0.946689 0.608964
O O7 0.795639 0.030158 0.708932
O O8 0.134120 0.644179 0.063928
O O9 0.219871 0.498330 0.019009
O O10 0.456829 0.600837 0.988380
O O11 0.378290 0.904062 0.552267
O O12 0.200944 0.850793 0.498770
O O13 0.452192 0.751306 0.541531
O O14 0.734544 0.638107 0.870201
O O15 0.500000 0.092174 0.750000
#
# Coordination Sequence:
#
# PCOD9276398 Si02
#       7
#     8   8   8   8   8   8   8
#     4  10  22  40  62  87 122 164 205 253 304 359
#     4  11  21  40  66  88 124 162 204 256 307 364
#     4  11  22  38  61  95 121 159 199 252 316 359
#     4  11  20  39  65  89 120 163 205 243 305 370
#     4  11  23  36  61  91 127 156 204 252 298 364
#     4  10  20  40  61  89 120 162 199 250 304 353
#     4  10  21  38  64  89 118 158 212 248 296 369
#
# _framework density 19.355672999999999
#
# number of rings (size 3 to 8) (size 9 to 14) (size 15 to 20)
#    0.000    1.429    4.286    2.143    2.000    0.000 
#    0.000    0.000    9.429    0.000    0.000    0.000 
#    0.000    0.000    0.000    0.000    0.000    0.000 
#
# Total GULP energy -156283.371797 kJ/mol
# GULP energy per Si atom -5581.548993 kJ/mol
# Density = 1.931162 g / cm^3
# Si number density = 19.355673 Si / 1000 Ang^3
#
#
#
# Elastic Constant Matrix: (Units=GPa)
#
#
# Indices 1 2 3 4 5 6 
#
# 1 59.3882 17.0513 12.0184 0.0000 -5.8567 0.0000
# 2 17.0513 122.7111 38.9453 0.0000 4.9758 0.0000
# 3 12.0184 38.9453 46.7354 0.0000 -5.3299 0.0000
# 4 0.0000 0.0000 0.0000 41.9195 0.0000 10.5711
# 5 -5.8567 4.9758 -5.3299 0.0000 13.1763 -0.0001
# 6 0.0000 0.0000 0.0000 10.5711 -0.0001 23.0728
#
#
#
# Elastic Compliance Matrix: (Units=1/GPa)
#
#
# Indices 1 2 3 4 5 6 
#
# 1 0.018728 -0.002340 -0.001903 0.000000 0.008438 0.000000
# 2 -0.002340 0.012312 -0.010805 0.000000 -0.010060 0.000000
# 3 -0.001903 -0.010805 0.032771 0.000000 0.016490 0.000000
# 4 0.000000 0.000000 0.000000 0.026972 0.000000 -0.012357
# 5 0.008438 -0.010060 0.016490 0.000000 0.090114 0.000000
# 6 0.000000 0.000000 0.000000 -0.012357 0.000000 0.049003
#
#
# Mechanical properties :
#
#
# Convention : Reuss Voigt Hill
#
# Bulk Modulus (GPa) = 29.66226 40.54055 35.10140
# Shear Modulus (GPa) = 18.43435 26.35503 22.39469
#
# Velocity S-wave (km/s) = 3.08945 3.69401 3.40517
# Velocity P-wave (km/s) = 5.29947 6.25978 5.79953
#
# Compressibility (1/GPa) = 0.03371288
#
# Stress axis : x y z
#
# Youngs Moduli (GPa) = 53.39703 81.22467 30.51484
#
# Poissons Ratio (x) = 0.19009 0.05808
# Poissons Ratio (y) = 0.12497 0.32971
# Poissons Ratio (z) = 0.10164 0.87762
#
# Static dielectric constant tensor:
#      x y z
#    x 1.636200 0.000000 0.002790 
#    y 0.000000 1.738730 0.000000 
#    z 0.002790 0.000000 1.673500 
# 
# From -- ./inp_files/232775.got.cif
#   From: 2010.05.17/outbox.cif.g08.bks.cpg/sg15_117_cif.got.tgz:232775.got - 2010.06.03 18:47:42.
