data_PCOD9276504
_publ_section_title
;
Structure prediction by ZEFSAII (Michael W. Deem and Ramdas Pophale) SiO2 
 PCOD9276504
Probable space group: C 2/C
;
_chemical_formula_sum "Si O2"
_cell_formula_units_Z 36
_cell_length_a 9.025649
_cell_length_b 13.572908
_cell_length_c 18.143493
_cell_angle_alpha 90.000000
_cell_angle_beta 136.131387
_cell_angle_gamma 90.000000
_cell_volume 1540.316152
_symmetry_space_group_name_H-M "C 2/C"
_symmetry_group_IT_number 15
_symmetry_cell_setting 'monoclinic'
loop_
_space_group_symop_operation_xyz
x,y,z
-x,y,1/2-z
-x,-y,-z
x,-y,1/2+z
1/2+x,1/2+y,z
1/2-x,1/2+y,1/2-z
1/2-x,1/2-y,-z
1/2+x,1/2-y,1/2+z
loop_
_atom_site_type_symbol
_atom_site_label
_atom_site_fract_x
_atom_site_fract_y
_atom_site_fract_z
Si Si1 0.246477 0.618662 0.010268
Si Si2 0.849303 0.599377 0.037682
Si Si3 0.892612 0.747983 0.821535
Si Si4 0.500000 0.864168 0.750000
Si Si5 0.412776 0.706877 0.915244
O O1 0.203506 0.506609 0.014165
O O2 0.356108 0.647802 0.969837
O O3 0.017012 0.668039 0.914114
O O4 0.419521 0.671583 0.125453
O O5 0.931209 0.579904 0.151164
O O6 0.016800 0.676858 0.062864
O O7 0.622800 0.654372 0.959133
O O8 0.701628 0.797549 0.799023
O O9 0.783243 0.700861 0.711423
#
# Coordination Sequence:
#
# PCOD9276504 Si02
#       5
#     8   8   8   4   8
#     4  11  22  41  65  94 125 171 215 268 315 394
#     4  10  22  37  67  96 124 163 225 254 331 383
#     4  10  23  37  62  92 130 165 214 263 329 374
#     4  10  20  40  62  92 126 166 204 270 316 394
#     4  10  21  39  63  95 131 163 208 280 313 382
#
# _framework density 23.371825999999999
#
# number of rings (size 3 to 8) (size 9 to 14) (size 15 to 20)
#    0.000    1.778    2.222    1.333    3.111    1.778 
#    0.000    4.444    9.778    0.000    0.000    0.000 
#    0.000    0.000    0.000    0.000    0.000    0.000 
#
# Total GULP energy -100496.848714 kJ/mol
# GULP energy per Si atom -5583.158262 kJ/mol
# Density = 2.331863 g / cm^3
# Si number density = 23.371826 Si / 1000 Ang^3
#
#
#
# Elastic Constant Matrix: (Units=GPa)
#
#
# Indices 1 2 3 4 5 6 
#
# 1 59.9045 -16.7281 30.5129 0.0000 4.4613 0.0000
# 2 -16.7281 120.6161 17.6875 0.0000 9.7566 0.0000
# 3 30.5129 17.6875 166.5156 0.0000 15.9053 0.0000
# 4 0.0000 0.0000 0.0000 19.7993 0.0000 -7.5906
# 5 4.4613 9.7566 15.9053 0.0000 38.2398 0.0000
# 6 0.0000 0.0000 0.0000 -7.5906 0.0000 7.6144
#
#
#
# Elastic Compliance Matrix: (Units=1/GPa)
#
#
# Indices 1 2 3 4 5 6 
#
# 1 0.019715 0.003423 -0.003825 0.000000 -0.001583 0.000000
# 2 0.003423 0.009144 -0.001393 0.000000 -0.002153 0.000000
# 3 -0.003825 -0.001393 0.007058 0.000000 -0.002134 0.000000
# 4 0.000000 0.000000 0.000000 0.081750 0.000000 0.081494
# 5 -0.001583 -0.002153 -0.002134 0.000000 0.027772 0.000000
# 6 0.000000 0.000000 0.000000 0.081494 0.000000 0.212568
#
#
# Mechanical properties :
#
#
# Convention : Reuss Voigt Hill
#
# Bulk Modulus (GPa) = 30.93309 45.55342 38.24325
# Shear Modulus (GPa) = 13.42739 34.16831 23.79785
#
# Velocity S-wave (km/s) = 2.39950 3.82769 3.19443
# Velocity P-wave (km/s) = 4.57610 6.25044 5.47762
#
# Compressibility (1/GPa) = 0.03232784
#
# Stress axis : x y z
#
# Youngs Moduli (GPa) = 50.72176 109.36191 141.67951
#
# Poissons Ratio (x) = -0.37437 0.54195
# Poissons Ratio (y) = -0.17363 0.19735
# Poissons Ratio (z) = 0.19402 0.15233
#
# Static dielectric constant tensor:
#      x y z
#    x 2.015650 0.000000 -0.065100 
#    y 0.000000 1.884130 0.000000 
#    z -0.065100 0.000000 1.864480 
# 
# From -- ./inp_files/84497.got.cif
#   From: 2010.05.17/outbox.cif.g08.bks.cpg/sg15_43_cif.got.tgz:84497.got - 2010.06.03 18:47:42.
