data_PCOD9276044
_publ_section_title
;
Structure prediction by ZEFSAII (Michael W. Deem and Ramdas Pophale) SiO2 
 PCOD9276044
Probable space group: C 2/C
;
_chemical_formula_sum "Si O2"
_cell_formula_units_Z 56
_cell_length_a 9.703332
_cell_length_b 17.049793
_cell_length_c 20.171508
_cell_angle_alpha 90.000000
_cell_angle_beta 53.398701
_cell_angle_gamma 90.000000
_cell_volume 2679.093515
_symmetry_space_group_name_H-M "C 2/C"
_symmetry_group_IT_number 15
_symmetry_cell_setting 'monoclinic'
loop_
_space_group_symop_operation_xyz
x,y,z
-x,y,1/2-z
-x,-y,-z
x,-y,1/2+z
1/2+x,1/2+y,z
1/2-x,1/2+y,1/2-z
1/2-x,1/2-y,-z
1/2+x,1/2-y,1/2+z
loop_
_atom_site_type_symbol
_atom_site_label
_atom_site_fract_x
_atom_site_fract_y
_atom_site_fract_z
Si Si1 0.699132 0.409218 0.706048
Si Si2 0.429690 0.909590 0.516129
Si Si3 0.118709 0.469178 0.265517
Si Si4 0.364393 0.838720 0.398331
Si Si5 0.132211 0.847738 0.346864
Si Si6 0.681479 0.267259 0.811242
Si Si7 0.741401 0.297602 0.070574
O O1 0.500000 0.426240 0.750000
O O2 0.800975 0.383321 0.611477
O O3 0.810208 0.484363 0.693749
O O4 0.701274 0.349092 0.767354
O O5 0.335407 0.884734 0.474855
O O6 0.598875 0.855747 0.469544
O O7 0.500000 0.000000 0.500000
O O8 0.287396 0.433615 0.183776
O O9 0.000000 0.518961 0.250000
O O10 0.991235 0.399084 0.323105
O O11 0.198450 0.821991 0.400742
O O12 0.482692 0.761513 0.372122
O O13 0.222146 0.792904 0.266006
O O14 0.934308 0.845287 0.386695
O O15 0.756518 0.256197 0.863665
O O16 0.750000 0.250000 0.000000
#
# Coordination Sequence:
#
# PCOD9276044 Si02
#       7
#     8   8   8   8   8   8   8
#     4  12  25  39  65  97 129 168 228 267 323 395
#     4  11  24  43  64  94 140 176 211 278 345 388
#     4   9  20  37  60  90 126 165 210 269 319 379
#     4   9  19  42  66  89 129 175 213 265 336 388
#     4  10  20  39  67  93 121 172 224 256 321 396
#     4  10  22  41  63  94 132 170 219 274 323 389
#     4  11  25  42  67  95 131 174 217 276 337 398
#
# _framework density 20.902591000000001
#
# number of rings (size 3 to 8) (size 9 to 14) (size 15 to 20)
#    0.000    1.714    1.429    3.429    2.000    3.429 
#    0.000    4.286    0.000    0.000    0.000    0.000 
#    0.000    0.000    0.000    0.000    0.000    0.000 
#
# Total GULP energy -156176.614657 kJ/mol
# GULP energy per Si atom -5577.736238 kJ/mol
# Density = 2.085502 g / cm^3
# Si number density = 20.902591 Si / 1000 Ang^3
#
#
#
# Elastic Constant Matrix: (Units=GPa)
#
#
# Indices 1 2 3 4 5 6 
#
# 1 133.2864 4.3981 55.8281 0.0002 22.8841 -0.0004
# 2 4.3981 33.6940 18.0853 0.0001 16.0516 -0.0003
# 3 55.8281 18.0853 59.6073 0.0002 23.1815 -0.0004
# 4 0.0002 0.0001 0.0002 22.0744 -0.0001 4.4360
# 5 22.8841 16.0516 23.1815 -0.0001 37.4235 0.0003
# 6 -0.0004 -0.0003 -0.0004 4.4360 0.0003 17.2005
#
#
#
# Elastic Compliance Matrix: (Units=1/GPa)
#
#
# Indices 1 2 3 4 5 6 
#
# 1 0.013446 0.006851 -0.013611 0.000000 -0.002730 0.000000
# 2 0.006851 0.042948 -0.014035 0.000000 -0.013916 0.000001
# 3 -0.013611 -0.014035 0.037155 0.000000 -0.008673 0.000001
# 4 0.000000 0.000000 0.000000 0.047778 0.000001 -0.012322
# 5 -0.002730 -0.013916 -0.008673 0.000001 0.039732 -0.000001
# 6 0.000000 0.000001 0.000001 -0.012322 -0.000001 0.061316
#
#
# Mechanical properties :
#
#
# Convention : Reuss Voigt Hill
#
# Bulk Modulus (GPa) = 19.24575 42.57898 30.91236
# Shear Modulus (GPa) = 16.59569 25.22478 20.91023
#
# Velocity S-wave (km/s) = 2.82078 3.47764 3.16629
# Velocity P-wave (km/s) = 4.45380 6.04481 5.30924
#
# Compressibility (1/GPa) = 0.05195951
#
# Stress axis : x y z
#
# Youngs Moduli (GPa) = 74.37053 23.28422 26.91401
#
# Poissons Ratio (x) = -0.15952 0.36632
# Poissons Ratio (y) = -0.50950 0.37774
# Poissons Ratio (z) = 1.01223 0.32679
#
# Static dielectric constant tensor:
#      x y z
#    x 1.820860 0.000000 0.038320 
#    y 0.000000 1.844540 0.000000 
#    z 0.038320 0.000000 1.808970 
# 
# From -- ./inp_files/232598.got.cif
#   From: 2010.05.17/outbox.cif.g08.bks.cpg/sg15_117_cif.got.tgz:232598.got - 2010.06.03 18:47:42.
