data_PCOD9276168
_publ_section_title
;
Structure prediction by ZEFSAII (Michael W. Deem and Ramdas Pophale) SiO2 
 PCOD9276168
Probable space group: C 2/C
;
_chemical_formula_sum "Si O2"
_cell_formula_units_Z 56
_cell_length_a 19.446168
_cell_length_b 21.276798
_cell_length_c 8.835884
_cell_angle_alpha 90.000000
_cell_angle_beta 44.673913
_cell_angle_gamma 90.000000
_cell_volume 2570.333605
_symmetry_space_group_name_H-M "C 2/C"
_symmetry_group_IT_number 15
_symmetry_cell_setting 'monoclinic'
loop_
_space_group_symop_operation_xyz
x,y,z
-x,y,1/2-z
-x,-y,-z
x,-y,1/2+z
1/2+x,1/2+y,z
1/2-x,1/2+y,1/2-z
1/2-x,1/2-y,-z
1/2+x,1/2-y,1/2+z
loop_
_atom_site_type_symbol
_atom_site_label
_atom_site_fract_x
_atom_site_fract_y
_atom_site_fract_z
Si Si1 0.886326 0.864494 0.197961
Si Si2 0.725941 0.960966 0.972264
Si Si3 0.044728 0.941204 0.846261
Si Si4 0.210062 0.583337 0.818916
Si Si5 0.133797 0.726348 0.917766
Si Si6 0.749665 0.152245 0.205301
Si Si7 0.574868 0.229565 0.357139
O O1 0.824518 0.907704 0.181328
O O2 0.826057 0.866451 0.450742
O O3 0.887204 0.794252 0.131580
O O4 0.000155 0.884578 0.018536
O O5 0.841411 0.956936 0.832458
O O6 0.723312 0.906855 0.849776
O O7 0.685406 0.027481 0.975705
O O8 0.679309 0.942266 0.204043
O O9 0.000000 0.933475 0.750000
O O10 0.000000 0.000000 0.000000
O O11 0.174658 0.655651 0.873503
O O12 0.204153 0.786655 0.779689
O O13 0.096066 0.739715 0.146490
O O14 0.041490 0.722630 0.948768
O O15 0.647177 0.175312 0.295543
#
# Coordination Sequence:
#
# PCOD9276168 Si02
#       7
#     8   8   8   8   8   8   8
#     4  11  20  39  65  92 132 166 206 262 323 389
#     4  12  26  40  63  94 133 173 214 269 329 387
#     4  12  24  37  56  91 129 167 208 254 317 395
#     4  12  23  43  64  92 132 175 212 266 330 383
#     4  10  21  41  69  97 130 172 218 267 322 387
#     4  11  22  41  68  99 128 170 219 268 328 388
#     4  10  20  39  69  98 124 170 218 266 318 389
#
# _framework density 21.787056
#
# number of rings (size 3 to 8) (size 9 to 14) (size 15 to 20)
#    0.000    0.857    5.714    2.571    2.000    1.714 
#    0.000    1.429    0.000    0.000    0.000    0.000 
#    0.000    0.000    0.000    0.000    0.000    0.000 
#
# Total GULP energy -155968.515575 kJ/mol
# GULP energy per Si atom -5570.304128 kJ/mol
# Density = 2.173747 g / cm^3
# Si number density = 21.787056 Si / 1000 Ang^3
#
#
#
# Elastic Constant Matrix: (Units=GPa)
#
#
# Indices 1 2 3 4 5 6 
#
# 1 73.7313 11.6443 8.6386 0.0000 4.2073 0.0000
# 2 11.6443 99.1601 14.5407 0.0000 11.1529 0.0000
# 3 8.6386 14.5407 21.9425 0.0000 8.0220 0.0000
# 4 0.0000 0.0000 0.0000 10.8836 0.0000 -3.7439
# 5 4.2073 11.1529 8.0220 0.0000 18.5275 0.0000
# 6 0.0000 0.0000 0.0000 -3.7439 0.0000 29.4381
#
#
#
# Elastic Compliance Matrix: (Units=1/GPa)
#
#
# Indices 1 2 3 4 5 6 
#
# 1 0.014304 -0.000905 -0.004804 0.000000 -0.000623 0.000000
# 2 -0.000905 0.011507 -0.005717 0.000000 -0.004246 0.000000
# 3 -0.004804 -0.005717 0.058923 0.000000 -0.020981 0.000000
# 4 0.000000 0.000000 0.000000 0.096085 0.000000 0.012220
# 5 -0.000623 -0.004246 -0.020981 0.000000 0.065756 0.000000
# 6 0.000000 0.000000 0.000000 0.012220 0.000000 0.035524
#
#
# Mechanical properties :
#
#
# Convention : Reuss Voigt Hill
#
# Bulk Modulus (GPa) = 16.15945 29.38681 22.77313
# Shear Modulus (GPa) = 15.35733 22.43718 18.89726
#
# Velocity S-wave (km/s) = 2.65784 3.21259 2.94830
# Velocity P-wave (km/s) = 4.10511 5.22288 4.69736
#
# Compressibility (1/GPa) = 0.06188330
#
# Stress axis : x y z
#
# Youngs Moduli (GPa) = 69.91004 86.90485 16.97121
#
# Poissons Ratio (x) = 0.07867 0.08152
# Poissons Ratio (y) = 0.06328 0.09702
# Poissons Ratio (z) = 0.33582 0.49680
#
# Static dielectric constant tensor:
#      x y z
#    x 1.864730 0.000000 -0.068300 
#    y 0.000000 1.846250 0.000000 
#    z -0.068300 0.000000 1.924360 
# 
# From -- ./inp_files/57798.got.cif
#   From: 2010.05.17/outbox.cif.g08.bks.cpg/sg15_29_cif.got.tgz:57798.got - 2010.06.03 18:47:42.
