data_PCOD9276402
_publ_section_title
;
Structure prediction by ZEFSAII (Michael W. Deem and Ramdas Pophale) SiO2 
 PCOD9276402
Probable space group: C 2/C
;
_chemical_formula_sum "Si O2"
_cell_formula_units_Z 40
_cell_length_a 11.233256
_cell_length_b 13.003715
_cell_length_c 14.562382
_cell_angle_alpha 90.000000
_cell_angle_beta 125.960959
_cell_angle_gamma 90.000000
_cell_volume 1721.781398
_symmetry_space_group_name_H-M "C 2/C"
_symmetry_group_IT_number 15
_symmetry_cell_setting 'monoclinic'
loop_
_space_group_symop_operation_xyz
x,y,z
-x,y,1/2-z
-x,-y,-z
x,-y,1/2+z
1/2+x,1/2+y,z
1/2-x,1/2+y,1/2-z
1/2-x,1/2-y,-z
1/2+x,1/2-y,1/2+z
loop_
_atom_site_type_symbol
_atom_site_label
_atom_site_fract_x
_atom_site_fract_y
_atom_site_fract_z
Si Si1 0.091110 0.207015 0.445580
Si Si2 0.940416 0.199797 0.848027
Si Si3 0.560488 0.922310 0.902064
Si Si4 0.126182 0.615940 0.648347
Si Si5 0.614783 0.483981 0.467552
O O1 0.250000 0.250000 0.500000
O O2 0.075270 0.204303 0.548678
O O3 0.969938 0.287732 0.359272
O O4 0.093900 0.092103 0.406892
O O5 0.992496 0.312849 0.842111
O O6 0.791010 0.151523 0.742244
O O7 0.065651 0.115263 0.889008
O O8 0.784674 0.538225 0.070736
O O9 0.438508 0.011511 0.837182
O O10 0.599443 0.904261 0.027732
O O11 0.500000 0.500000 0.500000
#
# Coordination Sequence:
#
# PCOD9276402 Si02
#       5
#     8   8   8   8   8
#     4  10  20  40  61  89 129 168 208 269 313 375
#     4  10  23  38  64  94 126 168 215 257 327 392
#     4  10  21  42  64  90 134 164 207 274 316 376
#     4  10  22  39  64  96 123 168 218 259 323 381
#     4  10  21  40  63  90 128 166 211 263 323 374
#
# _framework density 23.231750999999999
#
# number of rings (size 3 to 8) (size 9 to 14) (size 15 to 20)
#    0.000    2.000    2.000    0.600    2.800    1.600 
#    0.000    2.000    0.000    0.000    0.000    0.000 
#    0.000    0.000    0.000    0.000    0.000    0.000 
#
# Total GULP energy -111676.336072 kJ/mol
# GULP energy per Si atom -5583.816804 kJ/mol
# Density = 2.317887 g / cm^3
# Si number density = 23.231751 Si / 1000 Ang^3
#
#
#
# Elastic Constant Matrix: (Units=GPa)
#
#
# Indices 1 2 3 4 5 6 
#
# 1 105.3746 73.0804 21.7718 0.0000 30.0695 0.0000
# 2 73.0804 254.5247 66.1754 0.0000 32.4623 0.0000
# 3 21.7718 66.1754 81.0359 0.0000 23.1770 0.0000
# 4 0.0000 0.0000 0.0000 11.5103 0.0000 27.6994
# 5 30.0695 32.4623 23.1770 0.0000 33.9887 0.0000
# 6 0.0000 0.0000 0.0000 27.6994 0.0000 32.3267
#
#
#
# Elastic Compliance Matrix: (Units=1/GPa)
#
#
# Indices 1 2 3 4 5 6 
#
# 1 0.014497 -0.003255 0.001916 0.000000 -0.011023 0.000000
# 2 -0.003255 0.005891 -0.003914 0.000000 -0.000078 0.000000
# 3 0.001916 -0.003914 0.017935 0.000000 -0.010187 0.000000
# 4 0.000000 0.000000 0.000000 -0.081805 0.000000 0.070096
# 5 -0.011023 -0.000078 -0.010187 0.000000 0.046195 0.000000
# 6 0.000000 0.000000 0.000000 0.070096 0.000000 -0.029128
#
#
# Mechanical properties :
#
#
# Convention : Reuss Voigt Hill
#
# Bulk Modulus (GPa) = 35.94892 84.77672 60.36282
# Shear Modulus (GPa) = -753.31166 34.22564 -359.54301
#
# Velocity S-wave (km/s) = -18.02674 3.84243 -12.45390
# Velocity P-wave (km/s) = 20.43959 7.50044 13.44471
#
# Compressibility (1/GPa) = 0.02781725
#
# Stress axis : x y z
#
# Youngs Moduli (GPa) = 68.98058 169.75280 55.75640
#
# Poissons Ratio (x) = 0.55247 -0.10681
# Poissons Ratio (y) = 0.22450 0.21822
# Poissons Ratio (z) = -0.13214 0.66439
#
# Static dielectric constant tensor:
#      x y z
#    x 1.943740 0.000000 -0.009220 
#    y 0.000000 1.893270 0.000000 
#    z -0.009220 0.000000 1.897320 
# 
# From -- ./inp_files/243168.got.cif
#   From: 2010.05.17/outbox.cif.g08.bks.cpg/sg15_122_cif.got.tgz:243168.got - 2010.06.03 18:47:42.
