data_PCOD9276820
_publ_section_title
;
Structure prediction by ZEFSAII (Michael W. Deem and Ramdas Pophale) SiO2 
 PCOD9276820
Probable space group: C 2/C
;
_chemical_formula_sum "Si O2"
_cell_formula_units_Z 60
_cell_length_a 22.318544
_cell_length_b 12.456232
_cell_length_c 14.999506
_cell_angle_alpha 90.000000
_cell_angle_beta 40.216336
_cell_angle_gamma 90.000000
_cell_volume 2692.425938
_symmetry_space_group_name_H-M "C 2/C"
_symmetry_group_IT_number 15
_symmetry_cell_setting 'monoclinic'
loop_
_space_group_symop_operation_xyz
x,y,z
-x,y,1/2-z
-x,-y,-z
x,-y,1/2+z
1/2+x,1/2+y,z
1/2-x,1/2+y,1/2-z
1/2-x,1/2-y,-z
1/2+x,1/2-y,1/2+z
loop_
_atom_site_type_symbol
_atom_site_label
_atom_site_fract_x
_atom_site_fract_y
_atom_site_fract_z
Si Si1 0.190351 0.413002 0.203330
Si Si2 0.857039 0.267523 0.899261
Si Si3 0.188785 0.766800 0.856048
Si Si4 0.000000 0.918120 0.250000
Si Si5 0.983442 0.804441 0.544906
Si Si6 0.891424 0.916359 0.981721
Si Si7 0.907487 0.274718 0.319182
Si Si8 0.887866 0.370509 0.684792
O O1 0.200744 0.319010 0.263757
O O2 0.165515 0.359724 0.136186
O O3 0.117815 0.501842 0.318184
O O4 0.290669 0.467899 0.088094
O O5 0.893800 0.349808 0.784447
O O6 0.916716 0.159926 0.817154
O O7 0.750000 0.250000 0.000000
O O8 0.853774 0.289969 0.007870
O O9 0.288521 0.820557 0.763217
O O10 0.102392 0.839210 0.919042
O O11 0.965595 0.998980 0.363693
O O12 0.072099 0.878959 0.463508
O O13 0.029504 0.694492 0.456269
O O14 0.939544 0.787012 0.693015
O O15 0.883230 0.812304 0.923313
O O16 0.000000 0.332346 0.250000
#
# Coordination Sequence:
#
# PCOD9276820 Si02
#       8
#     8   8   8   4   8   8   8   8
#     4  11  23  41  69  95 133 183 221 269 345 398
#     4  10  23  44  61  92 140 171 218 274 329 403
#     4  10  22  43  64  92 132 177 221 278 327 392
#     4  12  22  42  76  98 126 180 222 274 344 396
#     4  10  20  40  65  91 134 164 214 285 325 381
#     4  11  20  41  68 103 133 165 223 284 337 395
#     4   9  20  40  62  98 135 167 217 279 332 394
#     4  11  23  44  62  94 134 175 224 274 329 408
#
# _framework density 22.284735000000001
#
# number of rings (size 3 to 8) (size 9 to 14) (size 15 to 20)
#    0.000    1.600    3.333    2.800    0.000    2.133 
#   13.200    2.000    0.000    0.000    0.000    0.000 
#    0.000    0.000    0.000    0.000    0.000    0.000 
#
# Total GULP energy -167304.555849 kJ/mol
# GULP energy per Si atom -5576.818528 kJ/mol
# Density = 2.223401 g / cm^3
# Si number density = 22.284735 Si / 1000 Ang^3
#
#
#
# Elastic Constant Matrix: (Units=GPa)
#
#
# Indices 1 2 3 4 5 6 
#
# 1 125.6971 10.7271 16.6525 0.0000 -6.9796 0.0000
# 2 10.7271 56.5615 14.9436 0.0000 -7.1664 0.0000
# 3 16.6525 14.9436 56.3027 0.0000 -11.4035 0.0000
# 4 0.0000 0.0000 0.0000 -64.1134 0.0000 47.4114
# 5 -6.9796 -7.1664 -11.4035 0.0000 40.7122 0.0000
# 6 0.0000 0.0000 0.0000 47.4114 0.0000 -3.0125
#
#
#
# Elastic Compliance Matrix: (Units=1/GPa)
#
#
# Indices 1 2 3 4 5 6 
#
# 1 0.008350 -0.000948 -0.002080 0.000000 0.000682 0.000000
# 2 -0.000948 0.019283 -0.004435 0.000000 0.001990 0.000000
# 3 -0.002080 -0.004435 0.020485 0.000000 0.004601 0.000000
# 4 0.000000 0.000000 0.000000 0.001466 0.000000 0.023075
# 5 0.000682 0.001990 0.004601 0.000000 0.026319 0.000000
# 6 0.000000 0.000000 0.000000 0.023075 0.000000 0.031203
#
#
# Mechanical properties :
#
#
# Convention : Reuss Voigt Hill
#
# Bulk Modulus (GPa) = 30.12627 35.91199 33.01913
# Shear Modulus (GPa) = 37.56689 7.79979 22.68334
#
# Velocity S-wave (km/s) = 4.11026 1.87287 3.19390
# Velocity P-wave (km/s) = 6.00615 4.56365 5.33389
#
# Compressibility (1/GPa) = 0.03319362
#
# Stress axis : x y z
#
# Youngs Moduli (GPa) = 119.76142 51.85816 48.81570
#
# Poissons Ratio (x) = 0.04914 0.10154
# Poissons Ratio (y) = 0.11349 0.21649
# Poissons Ratio (z) = 0.24910 0.22998
#
# Static dielectric constant tensor:
#      x y z
#    x 1.853190 0.000000 -0.022230 
#    y 0.000000 1.883580 0.000000 
#    z -0.022230 0.000000 1.867130 
# 
# From -- ./inp_files/219293.got.cif
#   From: 2010.05.17/outbox.cif.g08.bks.cpg/sg15_110_cif.got.tgz:219293.got - 2010.06.03 18:47:42.
