data_PCOD9276121
_publ_section_title
;
Structure prediction by ZEFSAII (Michael W. Deem and Ramdas Pophale) SiO2 
 PCOD9276121
Probable space group: C 2/C
;
_chemical_formula_sum "Si O2"
_cell_formula_units_Z 48
_cell_length_a 13.942977
_cell_length_b 5.718496
_cell_length_c 26.727024
_cell_angle_alpha 90.000000
_cell_angle_beta 62.148506
_cell_angle_gamma 90.000000
_cell_volume 1884.167531
_symmetry_space_group_name_H-M "C 2/C"
_symmetry_group_IT_number 15
_symmetry_cell_setting 'monoclinic'
loop_
_space_group_symop_operation_xyz
x,y,z
-x,y,1/2-z
-x,-y,-z
x,-y,1/2+z
1/2+x,1/2+y,z
1/2-x,1/2+y,1/2-z
1/2-x,1/2-y,-z
1/2+x,1/2-y,1/2+z
loop_
_atom_site_type_symbol
_atom_site_label
_atom_site_fract_x
_atom_site_fract_y
_atom_site_fract_z
Si Si1 0.133305 0.226983 0.819114
Si Si2 0.511189 0.643761 0.417172
Si Si3 0.355056 0.198122 0.877045
Si Si4 0.291337 0.497417 0.512589
Si Si5 0.719638 0.102958 0.876770
Si Si6 0.346953 0.030230 0.279056
O O1 0.170034 0.409001 0.851724
O O2 0.085085 0.349668 0.781622
O O3 0.245726 0.097938 0.776646
O O4 0.059891 0.042375 0.866072
O O5 0.449857 0.820735 0.394294
O O6 0.419914 0.525413 0.473679
O O7 0.608595 0.773256 0.421944
O O8 0.299354 0.454877 0.892828
O O9 0.389047 0.146352 0.811683
O O10 0.262099 0.021969 0.919355
O O11 0.250000 0.250000 0.500000
O O12 0.250000 0.750000 0.500000
O O13 0.793648 0.266253 0.824761
#
# Coordination Sequence:
#
# PCOD9276121 Si02
#       6
#     8   8   8   8   8   8
#     4  10  20  39  68  95 135 179 221 280 350 415
#     4  10  24  42  70  99 137 180 236 289 357 429
#     4  10  24  42  70  99 137 180 236 289 357 429
#     4  10  24  45  73  99 142 191 229 303 361 418
#     4  10  22  41  66 100 132 177 228 288 348 428
#     4  10  20  39  68  95 135 179 221 280 350 415
#
# _framework density 25.475442999999999
#
# number of rings (size 3 to 8) (size 9 to 14) (size 15 to 20)
#    0.000    2.000    1.667    0.000    9.333    0.667 
#    0.000   12.500    0.000    0.000    0.000    0.000 
#    0.000    0.000    0.000    0.000    0.000    0.000 
#
# Total GULP energy -134096.802710 kJ/mol
# GULP energy per Si atom -5587.366780 kJ/mol
# Density = 2.541746 g / cm^3
# Si number density = 25.475443 Si / 1000 Ang^3
#
#
#
# Elastic Constant Matrix: (Units=GPa)
#
#
# Indices 1 2 3 4 5 6 
#
# 1 86.0799 20.5466 -13.8725 -0.0001 -10.5049 0.0000
# 2 20.5466 95.6387 12.3603 0.0001 -8.3462 0.0003
# 3 -13.8725 12.3603 76.5730 -0.0002 0.4326 -0.0001
# 4 -0.0001 0.0001 -0.0002 43.8584 0.0000 11.3423
# 5 -10.5049 -8.3462 0.4326 0.0000 35.4051 0.0000
# 6 0.0000 0.0003 -0.0001 11.3423 0.0000 50.1590
#
#
#
# Elastic Compliance Matrix: (Units=1/GPa)
#
#
# Indices 1 2 3 4 5 6 
#
# 1 0.013159 -0.002916 0.002837 0.000000 0.003182 0.000000
# 2 -0.002916 0.011558 -0.002405 0.000000 0.001889 0.000000
# 3 0.002837 -0.002405 0.013961 0.000000 0.000104 0.000000
# 4 0.000000 0.000000 0.000000 0.024217 0.000000 -0.005476
# 5 0.003182 0.001889 0.000104 0.000000 0.029633 0.000000
# 6 0.000000 0.000000 0.000000 -0.005476 0.000000 0.021175
#
#
# Mechanical properties :
#
#
# Convention : Reuss Voigt Hill
#
# Bulk Modulus (GPa) = 29.66492 32.92892 31.29692
# Shear Modulus (GPa) = 38.48931 41.83499 40.16215
#
# Velocity S-wave (km/s) = 3.89117 4.05676 3.97483
# Velocity P-wave (km/s) = 5.64429 5.90736 5.77733
#
# Compressibility (1/GPa) = 0.03370985
#
# Stress axis : x y z
#
# Youngs Moduli (GPa) = 75.99600 86.51976 71.62869
#
# Poissons Ratio (x) = 0.25228 -0.20318
# Poissons Ratio (y) = 0.22159 0.17224
# Poissons Ratio (z) = -0.21557 0.20805
#
# Static dielectric constant tensor:
#      x y z
#    x 2.048590 0.000000 -0.012210 
#    y 0.000000 2.055280 0.000000 
#    z -0.012210 0.000000 2.044900 
# 
# From -- ./inp_files/312260.got.cif
#   From: 2010.05.17/outbox.cif.g08.bks.cpg/sg15_157_cif.got.tgz:312260.got - 2010.06.03 18:47:42.
