data_PCOD9276173
_publ_section_title
;
Structure prediction by ZEFSAII (Michael W. Deem and Ramdas Pophale) SiO2 
 PCOD9276173
Probable space group: C 2/C
;
_chemical_formula_sum "Si O2"
_cell_formula_units_Z 44
_cell_length_a 10.109780
_cell_length_b 13.326265
_cell_length_c 13.598079
_cell_angle_alpha 90.000000
_cell_angle_beta 68.373692
_cell_angle_gamma 90.000000
_cell_volume 1703.049469
_symmetry_space_group_name_H-M "C 2/C"
_symmetry_group_IT_number 15
_symmetry_cell_setting 'monoclinic'
loop_
_space_group_symop_operation_xyz
x,y,z
-x,y,1/2-z
-x,-y,-z
x,-y,1/2+z
1/2+x,1/2+y,z
1/2-x,1/2+y,1/2-z
1/2-x,1/2-y,-z
1/2+x,1/2-y,1/2+z
loop_
_atom_site_type_symbol
_atom_site_label
_atom_site_fract_x
_atom_site_fract_y
_atom_site_fract_z
Si Si1 0.500000 0.612326 0.750000
Si Si2 0.783352 0.799862 0.597857
Si Si3 0.562220 0.068342 0.085728
Si Si4 0.446695 0.716396 0.560548
Si Si5 0.730462 0.975364 0.860984
Si Si6 0.666069 0.248614 0.705721
O O1 0.493676 0.678797 0.654500
O O2 0.359768 0.545089 0.794910
O O3 0.750000 0.750000 0.500000
O O4 0.664053 0.883998 0.639018
O O5 0.783027 0.734618 0.695521
O O6 0.947118 0.836187 0.544624
O O7 0.489499 0.164889 0.047460
O O8 0.419958 0.011156 0.155894
O O9 0.669502 0.008759 0.984943
O O10 0.278794 0.695277 0.602120
O O11 0.798277 0.864968 0.828717
O O12 0.500000 0.226150 0.750000
#
# Coordination Sequence:
#
# PCOD9276173 Si02
#       6
#     4   8   8   8   8   8
#     4  12  20  38  70 106 136 178 234 298 332 410
#     4  10  20  39  70 100 128 175 237 280 338 410
#     4   9  19  39  62  99 127 181 221 282 341 412
#     4  10  21  35  66  98 128 175 233 282 337 408
#     4  10  21  37  64  94 141 175 221 281 357 402
#     4  11  24  42  64  97 145 187 225 293 354 407
#
# _framework density 25.836009000000001
#
# number of rings (size 3 to 8) (size 9 to 14) (size 15 to 20)
#    0.000    1.818    2.727    2.182    2.545    4.364 
#    0.000    3.636    4.000    0.000    0.000    0.000 
#    0.000    0.000    0.000    0.000    0.000    0.000 
#
# Total GULP energy -122812.534024 kJ/mol
# GULP energy per Si atom -5582.387910 kJ/mol
# Density = 2.577720 g / cm^3
# Si number density = 25.836009 Si / 1000 Ang^3
#
#
#
# Elastic Constant Matrix: (Units=GPa)
#
#
# Indices 1 2 3 4 5 6 
#
# 1 177.5083 34.2757 68.5008 0.0000 -67.3606 0.0000
# 2 34.2757 57.8621 16.5542 0.0000 -10.4155 0.0000
# 3 68.5008 16.5542 99.1318 0.0000 -34.4163 0.0000
# 4 0.0000 0.0000 0.0000 23.5580 0.0000 -10.8306
# 5 -67.3606 -10.4155 -34.4163 0.0000 70.4142 0.0000
# 6 0.0000 0.0000 0.0000 -10.8306 0.0000 35.9440
#
#
#
# Elastic Compliance Matrix: (Units=1/GPa)
#
#
# Indices 1 2 3 4 5 6 
#
# 1 0.011008 -0.003894 -0.004216 0.000000 0.007894 0.000000
# 2 -0.003894 0.019650 -0.001054 0.000000 -0.001333 0.000000
# 3 -0.004216 -0.001054 0.014118 0.000000 0.002712 0.000000
# 4 0.000000 0.000000 0.000000 0.049274 0.000000 0.014847
# 5 0.007894 -0.001333 0.002712 0.000000 0.022882 0.000000
# 6 0.000000 0.000000 0.000000 0.014847 0.000000 0.032295
#
#
# Mechanical properties :
#
#
# Convention : Reuss Voigt Hill
#
# Bulk Modulus (GPa) = 37.80692 63.68485 50.74588
# Shear Modulus (GPa) = 28.34950 40.32800 34.33875
#
# Velocity S-wave (km/s) = 3.31613 3.95514 3.64964
# Velocity P-wave (km/s) = 5.41548 6.74986 6.11915
#
# Compressibility (1/GPa) = 0.02645018
#
# Stress axis : x y z
#
# Youngs Moduli (GPa) = 90.84455 50.88949 70.83122
#
# Poissons Ratio (x) = 0.19814 0.29860
# Poissons Ratio (y) = 0.35371 0.07464
# Poissons Ratio (z) = 0.38297 0.05363
#
# Static dielectric constant tensor:
#      x y z
#    x 2.148270 0.000000 -0.047110 
#    y 0.000000 2.091520 0.000000 
#    z -0.047110 0.000000 2.044270 
# 
# From -- ./inp_files/134299.got.cif
#   From: 2010.05.17/outbox.cif.g08.bks.cpg/sg15_68_cif.got.tgz:134299.got - 2010.06.03 18:47:42.
