data_PCOD9276461
_publ_section_title
;
Structure prediction by ZEFSAII (Michael W. Deem and Ramdas Pophale) SiO2 
 PCOD9276461
Probable space group: C 2/C
;
_chemical_formula_sum "Si O2"
_cell_formula_units_Z 48
_cell_length_a 14.745518
_cell_length_b 12.021189
_cell_length_c 14.968320
_cell_angle_alpha 90.000000
_cell_angle_beta 89.402524
_cell_angle_gamma 90.000000
_cell_volume 2653.120069
_symmetry_space_group_name_H-M "C 2/C"
_symmetry_group_IT_number 15
_symmetry_cell_setting 'monoclinic'
loop_
_space_group_symop_operation_xyz
x,y,z
-x,y,1/2-z
-x,-y,-z
x,-y,1/2+z
1/2+x,1/2+y,z
1/2-x,1/2+y,1/2-z
1/2-x,1/2-y,-z
1/2+x,1/2-y,1/2+z
loop_
_atom_site_type_symbol
_atom_site_label
_atom_site_fract_x
_atom_site_fract_y
_atom_site_fract_z
Si Si1 0.725286 0.970557 0.147974
Si Si2 0.532467 0.980106 0.599315
Si Si3 0.221800 0.122053 0.513967
Si Si4 0.664658 0.023929 0.345210
Si Si5 0.430382 0.719767 0.872642
Si Si6 0.635124 0.721153 0.830059
O O1 0.787229 0.862946 0.144268
O O2 0.621768 0.949809 0.118844
O O3 0.714819 0.009176 0.250458
O O4 0.769724 0.060338 0.080753
O O5 0.443181 0.003349 0.659509
O O6 0.564492 0.851538 0.605257
O O7 0.500000 0.000000 0.500000
O O8 0.250000 0.250000 0.500000
O O9 0.123832 0.139434 0.560492
O O10 0.286307 0.052172 0.581171
O O11 0.660926 0.155889 0.363912
O O12 0.535706 0.687087 0.865878
O O13 0.380202 0.719382 0.777092
#
# Coordination Sequence:
#
# PCOD9276461 Si02
#       6
#     8   8   8   8   8   8
#     4  12  23  37  66  95 122 165 213 254 316 368
#     4  11  20  39  64  95 118 164 213 258 311 361
#     4  12  22  39  67  94 122 163 212 262 311 371
#     4  11  22  40  64  90 131 160 209 265 306 376
#     4  10  20  40  62  87 126 166 209 249 314 382
#     4  10  22  39  64  89 123 173 206 249 323 371
#
# _framework density 18.091906999999999
#
# number of rings (size 3 to 8) (size 9 to 14) (size 15 to 20)
#    0.000    1.000    6.667    0.500    0.000    1.333 
#    0.000    0.000    3.667    0.000    0.000    0.000 
#    0.000    0.000    0.000    0.000    0.000    0.000 
#
# Total GULP energy -133871.859194 kJ/mol
# GULP energy per Si atom -5577.994133 kJ/mol
# Density = 1.805073 g / cm^3
# Si number density = 18.091907 Si / 1000 Ang^3
#
#
#
# Elastic Constant Matrix: (Units=GPa)
#
#
# Indices 1 2 3 4 5 6 
#
# 1 125.4875 82.5616 46.8950 0.0000 -7.6217 0.0000
# 2 82.5616 106.4060 51.3708 0.0000 3.3455 0.0000
# 3 46.8950 51.3708 98.8392 0.0000 -12.7860 0.0000
# 4 0.0000 0.0000 0.0000 25.1956 0.0000 5.4611
# 5 -7.6217 3.3455 -12.7860 0.0000 27.7544 0.0000
# 6 0.0000 0.0000 0.0000 5.4611 0.0000 43.4319
#
#
#
# Elastic Compliance Matrix: (Units=1/GPa)
#
#
# Indices 1 2 3 4 5 6 
#
# 1 0.017359 -0.013447 -0.000447 0.000000 0.006182 0.000000
# 2 -0.013447 0.023596 -0.007155 0.000000 -0.009833 0.000000
# 3 -0.000447 -0.007155 0.015041 0.000000 0.007669 0.000000
# 4 0.000000 0.000000 0.000000 0.040801 0.000000 -0.005130
# 5 0.006182 -0.009833 0.007669 0.000000 0.042446 0.000000
# 6 0.000000 0.000000 0.000000 -0.005130 0.000000 0.023670
#
#
# Mechanical properties :
#
#
# Convention : Reuss Voigt Hill
#
# Bulk Modulus (GPa) = 71.96810 76.93195 74.45002
# Shear Modulus (GPa) = 23.84991 29.27007 26.55999
#
# Velocity S-wave (km/s) = 3.63473 4.02662 3.83568
# Velocity P-wave (km/s) = 7.58159 8.01457 7.80109
#
# Compressibility (1/GPa) = 0.01389505
#
# Stress axis : x y z
#
# Youngs Moduli (GPa) = 57.60713 42.38054 66.48651
#
# Poissons Ratio (x) = 0.56991 0.02973
# Poissons Ratio (y) = 0.77467 0.47574
# Poissons Ratio (z) = 0.02576 0.30325
#
# Static dielectric constant tensor:
#      x y z
#    x 1.728840 0.000000 -0.038130 
#    y 0.000000 1.588350 0.000000 
#    z -0.038130 0.000000 1.667300 
# 
# From -- ./inp_files/152037.got.cif
#   From: 2010.05.17/outbox.cif.g08.bks.cpg/sg15_77_cif.got.tgz:152037.got - 2010.06.03 18:47:42.
