data_PCOD9276064
_publ_section_title
;
Structure prediction by ZEFSAII (Michael W. Deem and Ramdas Pophale) SiO2 
 PCOD9276064
Probable space group: C 2/C
;
_chemical_formula_sum "Si O2"
_cell_formula_units_Z 40
_cell_length_a 8.281647
_cell_length_b 27.689413
_cell_length_c 9.217255
_cell_angle_alpha 90.000000
_cell_angle_beta 112.304722
_cell_angle_gamma 90.000000
_cell_volume 1955.498880
_symmetry_space_group_name_H-M "C 2/C"
_symmetry_group_IT_number 15
_symmetry_cell_setting 'monoclinic'
loop_
_space_group_symop_operation_xyz
x,y,z
-x,y,1/2-z
-x,-y,-z
x,-y,1/2+z
1/2+x,1/2+y,z
1/2-x,1/2+y,1/2-z
1/2-x,1/2-y,-z
1/2+x,1/2-y,1/2+z
loop_
_atom_site_type_symbol
_atom_site_label
_atom_site_fract_x
_atom_site_fract_y
_atom_site_fract_z
Si Si1 0.957550 0.546927 0.577354
Si Si2 0.255701 0.804212 0.060535
Si Si3 0.546747 0.450681 0.934325
Si Si4 0.592122 0.153155 0.583222
Si Si5 0.068996 0.142564 0.941629
O O1 0.753504 0.560029 0.506655
O O2 0.000000 0.529414 0.750000
O O3 0.000000 0.500000 0.500000
O O4 0.073904 0.595101 0.594310
O O5 0.333328 0.819133 0.247334
O O6 0.393436 0.829767 0.999816
O O7 0.059712 0.823696 0.009648
O O8 0.250000 0.750000 0.000000
O O9 0.500000 0.453856 0.750000
O O10 0.500000 0.500000 0.000000
O O11 0.445216 0.408703 0.984639
O O12 0.734024 0.161486 0.507102
O O13 0.000000 0.138226 0.750000
#
# Coordination Sequence:
#
# PCOD9276064 Si02
#       5
#     8   8   8   8   8
#     4  12  22  40  68  99 140 185 227 277 351 418
#     4  10  20  39  67  95 131 179 229 287 350 405
#     4  12  24  41  64 102 143 183 234 287 348 425
#     4  10  20  41  66  95 134 177 229 287 344 412
#     4  10  20  40  68  94 134 178 226 286 351 413
#
# _framework density 20.455138999999999
#
# number of rings (size 3 to 8) (size 9 to 14) (size 15 to 20)
#    0.000    1.200    4.000    4.200    0.000    0.800 
#    3.600    0.000    0.000    0.000    0.000    0.000 
#    0.000    0.000    0.000    0.000    0.000    0.000 
#
# Total GULP energy -111503.523052 kJ/mol
# GULP energy per Si atom -5575.176153 kJ/mol
# Density = 2.040858 g / cm^3
# Si number density = 20.455139 Si / 1000 Ang^3
#
#
#
# Elastic Constant Matrix: (Units=GPa)
#
#
# Indices 1 2 3 4 5 6 
#
# 1 190.2716 56.5033 33.2201 0.0000 -32.5491 0.0000
# 2 56.5033 165.7705 38.0461 0.0000 -27.4739 0.0000
# 3 33.2201 38.0461 75.5443 0.0000 -3.5828 0.0000
# 4 0.0000 0.0000 0.0000 34.9850 0.0000 -6.6734
# 5 -32.5491 -27.4739 -3.5828 0.0000 22.4746 0.0000
# 6 0.0000 0.0000 0.0000 -6.6734 0.0000 35.9753
#
#
#
# Elastic Compliance Matrix: (Units=1/GPa)
#
#
# Indices 1 2 3 4 5 6 
#
# 1 0.007547 -0.000266 -0.002702 0.000000 0.010174 0.000000
# 2 -0.000266 0.008551 -0.003741 0.000000 0.009472 0.000000
# 3 -0.002702 -0.003741 0.016028 0.000000 -0.005931 0.000000
# 4 0.000000 0.000000 0.000000 0.029632 0.000000 0.005497
# 5 0.010174 0.009472 -0.005931 0.000000 0.069863 0.000000
# 6 0.000000 0.000000 0.000000 0.005497 0.000000 0.028817
#
#
# Mechanical properties :
#
#
# Convention : Reuss Voigt Hill
#
# Bulk Modulus (GPa) = 53.45051 76.34725 64.89888
# Shear Modulus (GPa) = 27.76367 38.94143 33.35255
#
# Velocity S-wave (km/s) = 3.68815 4.36793 4.04235
# Velocity P-wave (km/s) = 6.65762 7.92740 7.32009
#
# Compressibility (1/GPa) = 0.01870890
#
# Stress axis : x y z
#
# Youngs Moduli (GPa) = 132.50601 116.93918 62.39056
#
# Poissons Ratio (x) = 0.03111 0.16859
# Poissons Ratio (y) = 0.03525 0.23337
# Poissons Ratio (z) = 0.35805 0.43741
#
# Static dielectric constant tensor:
#      x y z
#    x 1.764920 0.000000 -0.001340 
#    y 0.000000 2.492970 0.000000 
#    z -0.001340 0.000000 1.632740 
# 
# From -- ./inp_files/24598.got.cif
#   From: 2010.05.17/outbox.cif.g08.bks.cpg/sg15_13_cif.got.tgz:24598.got - 2010.06.03 18:47:42.
