data_PCOD9276292
_publ_section_title
;
Structure prediction by ZEFSAII (Michael W. Deem and Ramdas Pophale) SiO2 
 PCOD9276292
Probable space group: C 2/C
;
_chemical_formula_sum "Si O2"
_cell_formula_units_Z 64
_cell_length_a 21.379356
_cell_length_b 17.408360
_cell_length_c 13.790223
_cell_angle_alpha 90.000000
_cell_angle_beta 146.559091
_cell_angle_gamma 90.000000
_cell_volume 2828.367247
_symmetry_space_group_name_H-M "C 2/C"
_symmetry_group_IT_number 15
_symmetry_cell_setting 'monoclinic'
loop_
_space_group_symop_operation_xyz
x,y,z
-x,y,1/2-z
-x,-y,-z
x,-y,1/2+z
1/2+x,1/2+y,z
1/2-x,1/2+y,1/2-z
1/2-x,1/2-y,-z
1/2+x,1/2-y,1/2+z
loop_
_atom_site_type_symbol
_atom_site_label
_atom_site_fract_x
_atom_site_fract_y
_atom_site_fract_z
Si Si1 0.097226 0.033504 0.295615
Si Si2 0.677966 0.457240 0.690264
Si Si3 0.684295 0.309695 0.578777
Si Si4 0.416823 0.828718 0.454536
Si Si5 0.903241 0.767573 0.417915
Si Si6 0.178405 0.110453 0.567335
Si Si7 0.305413 0.371151 0.116253
Si Si8 0.398945 0.967992 0.552332
O O1 0.118294 0.943010 0.317282
O O2 0.000000 0.048476 0.250000
O O3 0.105826 0.055884 0.194486
O O4 0.194023 0.080121 0.478892
O O5 0.647305 0.389382 0.577925
O O6 0.652113 0.537041 0.601926
O O7 0.811389 0.470416 0.892215
O O8 0.601782 0.237607 0.488373
O O9 0.796281 0.288809 0.784351
O O10 0.712436 0.322068 0.503254
O O11 0.491578 0.785096 0.472588
O O12 0.296359 0.853594 0.255444
O O13 0.459110 0.908924 0.554597
O O14 0.910719 0.822651 0.520494
O O15 0.866492 0.822898 0.279733
O O16 0.189942 0.411325 0.005803
O O17 0.500000 0.999136 0.750000
#
# Coordination Sequence:
#
# PCOD9276292 Si02
#       8
#     8   8   8   8   8   8   8   8
#     4  11  24  39  66  95 120 167 208 260 319 362
#     4  10  22  42  62  92 126 163 212 262 305 380
#     4  11  22  37  61  91 127 165 207 258 316 375
#     4  10  23  37  63  88 128 172 199 258 327 369
#     4  11  22  39  62  93 129 159 214 255 316 375
#     4  10  21  45  61  88 133 159 210 259 311 380
#     4  11  21  37  59  96 129 155 203 270 313 376
#     4  10  20  40  59  87 129 168 205 260 315 368
#
# _framework density 22.627897000000001
#
# number of rings (size 3 to 8) (size 9 to 14) (size 15 to 20)
#    0.000    1.500    6.250    1.125    5.250    0.500 
#    4.500    4.375    0.000    0.000    0.000    0.000 
#    0.000    0.000    0.000    0.000    0.000    0.000 
#
# Total GULP energy -178579.078083 kJ/mol
# GULP energy per Si atom -5580.596190 kJ/mol
# Density = 2.257640 g / cm^3
# Si number density = 22.627897 Si / 1000 Ang^3
#
#
#
# Elastic Constant Matrix: (Units=GPa)
#
#
# Indices 1 2 3 4 5 6 
#
# 1 67.4295 19.2820 16.5939 0.0000 -13.8968 0.0000
# 2 19.2820 72.3149 13.4602 0.0000 -2.8302 0.0000
# 3 16.5939 13.4602 57.9189 0.0000 -10.6356 0.0000
# 4 0.0000 0.0000 0.0000 15.0743 0.0000 -6.0671
# 5 -13.8968 -2.8302 -10.6356 0.0000 24.5779 0.0000
# 6 0.0000 0.0000 0.0000 -6.0671 0.0000 30.3695
#
#
#
# Elastic Compliance Matrix: (Units=1/GPa)
#
#
# Indices 1 2 3 4 5 6 
#
# 1 0.018481 -0.004075 -0.002732 0.000000 0.008798 0.000000
# 2 -0.004075 0.015353 -0.002715 0.000000 -0.001711 0.000000
# 3 -0.002732 -0.002715 0.019921 0.000000 0.006763 0.000000
# 4 0.000000 0.000000 0.000000 0.072138 0.000000 0.014412
# 5 0.008798 -0.001711 0.006763 0.000000 0.048391 0.000000
# 6 0.000000 0.000000 0.000000 0.014412 0.000000 0.035807
#
#
# Mechanical properties :
#
#
# Convention : Reuss Voigt Hill
#
# Bulk Modulus (GPa) = 28.80880 32.92617 30.86749
# Shear Modulus (GPa) = 20.77220 23.89282 22.33251
#
# Velocity S-wave (km/s) = 3.03312 3.25299 3.14498
# Velocity P-wave (km/s) = 5.00256 5.35649 5.18255
#
# Compressibility (1/GPa) = 0.03471162
#
# Stress axis : x y z
#
# Youngs Moduli (GPa) = 54.10914 65.13268 50.19803
#
# Poissons Ratio (x) = 0.26541 0.13716
# Poissons Ratio (y) = 0.22049 0.13627
# Poissons Ratio (z) = 0.14784 0.17682
#
# Static dielectric constant tensor:
#      x y z
#    x 1.900880 0.000000 0.048430 
#    y 0.000000 1.830210 0.000000 
#    z 0.048430 0.000000 1.986120 
# 
# From -- ./inp_files/107530.got.cif
#   From: 2010.05.17/outbox.cif.g08.bks.cpg/sg15_54_cif.got.tgz:107530.got - 2010.06.03 18:47:42.
