data_PCOD9276975
_publ_section_title
;
Structure prediction by ZEFSAII (Michael W. Deem and Ramdas Pophale) SiO2 
 PCOD9276975
Probable space group: C 2/C
;
_chemical_formula_sum "Si O2"
_cell_formula_units_Z 56
_cell_length_a 9.295493
_cell_length_b 23.829679
_cell_length_c 18.261729
_cell_angle_alpha 90.000000
_cell_angle_beta 37.526083
_cell_angle_gamma 90.000000
_cell_volume 2463.979984
_symmetry_space_group_name_H-M "C 2/C"
_symmetry_group_IT_number 15
_symmetry_cell_setting 'monoclinic'
loop_
_space_group_symop_operation_xyz
x,y,z
-x,y,1/2-z
-x,-y,-z
x,-y,1/2+z
1/2+x,1/2+y,z
1/2-x,1/2+y,1/2-z
1/2-x,1/2-y,-z
1/2+x,1/2-y,1/2+z
loop_
_atom_site_type_symbol
_atom_site_label
_atom_site_fract_x
_atom_site_fract_y
_atom_site_fract_z
Si Si1 0.169718 0.924309 0.896120
Si Si2 0.234987 0.609483 0.357778
Si Si3 0.022811 0.478725 0.859447
Si Si4 0.350736 0.297026 0.371992
Si Si5 0.910519 0.327822 0.882379
Si Si6 0.394021 0.905678 0.372847
Si Si7 0.607049 0.196258 0.532658
O O1 0.274821 0.960687 0.921454
O O2 0.281201 0.955782 0.779643
O O3 0.289415 0.863678 0.866769
O O4 0.889613 0.915176 0.008803
O O5 0.500000 0.588571 0.250000
O O6 0.067625 0.555869 0.415044
O O7 0.225075 0.650455 0.431041
O O8 0.143564 0.646195 0.325531
O O9 0.016179 0.545067 0.870425
O O10 0.500000 0.328649 0.250000
O O11 0.283498 0.328192 0.473262
O O12 0.462635 0.236960 0.345318
O O13 0.109057 0.282626 0.428445
O O14 0.500000 0.914804 0.250000
O O15 0.458435 0.843248 0.372875
O O16 0.750000 0.250000 0.500000
#
# Coordination Sequence:
#
# PCOD9276975 Si02
#       7
#     8   8   8   8   8   8   8
#     4  10  20  40  66  97 129 165 223 276 326 409
#     4  10  22  41  67  97 124 172 221 273 335 396
#     4  10  22  40  68 100 126 171 222 277 342 392
#     4  10  22  38  60  89 128 174 216 273 331 390
#     4   9  21  38  63  93 125 170 221 270 331 392
#     4  12  25  41  67 100 135 179 222 278 340 396
#     4  11  26  44  60  96 135 173 225 274 331 401
#
# _framework density 22.727457000000001
#
# number of rings (size 3 to 8) (size 9 to 14) (size 15 to 20)
#    0.000    1.714    1.429    2.143    8.000    1.143 
#    0.000    0.714    0.000    0.000    0.000    0.000 
#    0.000    0.000    0.000    0.000    0.000    0.000 
#
# Total GULP energy -156225.124984 kJ/mol
# GULP energy per Si atom -5579.468749 kJ/mol
# Density = 2.267573 g / cm^3
# Si number density = 22.727457 Si / 1000 Ang^3
#
#
#
# Elastic Constant Matrix: (Units=GPa)
#
#
# Indices 1 2 3 4 5 6 
#
# 1 71.0244 34.3466 34.0036 -0.0001 3.5574 0.0000
# 2 34.3466 127.5213 9.1216 -0.0001 2.6307 0.0000
# 3 34.0036 9.1216 72.6277 0.0014 14.7057 0.0003
# 4 -0.0001 -0.0001 0.0014 21.0344 0.0003 4.2608
# 5 3.5574 2.6307 14.7057 0.0003 26.7505 -0.0001
# 6 0.0000 0.0000 0.0003 4.2608 -0.0001 22.8292
#
#
#
# Elastic Compliance Matrix: (Units=1/GPa)
#
#
# Indices 1 2 3 4 5 6 
#
# 1 0.021085 -0.005037 -0.009870 0.000001 0.003117 0.000000
# 2 -0.005037 0.009118 0.001417 0.000000 -0.001006 0.000000
# 3 -0.009870 0.001417 0.020226 -0.000001 -0.009946 0.000000
# 4 0.000001 0.000000 -0.000001 0.049409 0.000000 -0.009222
# 5 0.003117 -0.001006 -0.009946 0.000000 0.042534 0.000000
# 6 0.000000 0.000000 0.000000 -0.009222 0.000000 0.045525
#
#
# Mechanical properties :
#
#
# Convention : Reuss Voigt Hill
#
# Bulk Modulus (GPa) = 42.64887 47.34636 44.99761
# Shear Modulus (GPa) = 22.45229 27.03626 24.74427
#
# Velocity S-wave (km/s) = 3.14649 3.45278 3.30318
# Velocity P-wave (km/s) = 5.65744 6.06408 5.86428
#
# Compressibility (1/GPa) = 0.02344728
#
# Stress axis : x y z
#
# Youngs Moduli (GPa) = 47.42694 109.67344 49.44156
#
# Poissons Ratio (x) = 0.55246 0.48801
# Poissons Ratio (y) = 0.23891 -0.07005
# Poissons Ratio (z) = 0.46812 -0.15540
#
# Static dielectric constant tensor:
#      x y z
#    x 1.861520 0.000000 0.070770 
#    y 0.000000 1.877530 0.000000 
#    z 0.070770 0.000000 1.947120 
# 
# From -- ./inp_files/193857.got.cif
#   From: 2010.05.17/outbox.cif.g08.bks.cpg/sg15_97_cif.got.tgz:193857.got - 2010.06.03 18:47:42.
