data_PCOD9276783
_publ_section_title
;
Structure prediction by ZEFSAII (Michael W. Deem and Ramdas Pophale) SiO2 
 PCOD9276783
Probable space group: C 2/C
;
_chemical_formula_sum "Si O2"
_cell_formula_units_Z 52
_cell_length_a 8.929104
_cell_length_b 13.689108
_cell_length_c 21.478482
_cell_angle_alpha 90.000000
_cell_angle_beta 113.372712
_cell_angle_gamma 90.000000
_cell_volume 2409.920114
_symmetry_space_group_name_H-M "C 2/C"
_symmetry_group_IT_number 15
_symmetry_cell_setting 'monoclinic'
loop_
_space_group_symop_operation_xyz
x,y,z
-x,y,1/2-z
-x,-y,-z
x,-y,1/2+z
1/2+x,1/2+y,z
1/2-x,1/2+y,1/2-z
1/2-x,1/2-y,-z
1/2+x,1/2-y,1/2+z
loop_
_atom_site_type_symbol
_atom_site_label
_atom_site_fract_x
_atom_site_fract_y
_atom_site_fract_z
Si Si1 0.050792 0.895175 0.125497
Si Si2 0.434057 0.807491 0.560341
Si Si3 0.562720 0.872508 0.327557
Si Si4 0.000000 0.986030 0.250000
Si Si5 0.260212 0.523449 0.522115
Si Si6 0.598082 0.817213 0.461146
Si Si7 0.162288 0.528487 0.144183
O O1 0.947567 0.796004 0.096038
O O2 0.241597 0.887087 0.141266
O O3 0.039212 0.922378 0.195762
O O4 0.953406 0.974521 0.067406
O O5 0.288765 0.886604 0.531013
O O6 0.471219 0.791991 0.493715
O O7 0.581781 0.869916 0.613179
O O8 0.500000 0.839945 0.250000
O O9 0.532958 0.801643 0.381110
O O10 0.456754 0.967509 0.330235
O O11 0.163289 0.043026 0.295105
O O12 0.172097 0.427075 0.480999
O O13 0.189073 0.527424 0.582067
O O14 0.750000 0.750000 0.500000
#
# Coordination Sequence:
#
# PCOD9276783 Si02
#       7
#     8   8   8   4   8   8   8
#     4  11  24  38  62  93 127 161 212 252 314 371
#     4  11  20  40  64  94 118 167 210 257 308 368
#     4  12  22  40  64  90 125 166 202 260 316 368
#     4  10  22  44  56  86 126 170 200 260 308 378
#     4  10  21  40  64  89 122 164 200 261 308 359
#     4  11  21  40  66  92 125 160 217 258 305 371
#     4  10  20  40  65  80 122 165 206 248 315 363
#
# _framework density 21.577480000000001
#
# number of rings (size 3 to 8) (size 9 to 14) (size 15 to 20)
#    0.000    1.231    6.154    1.385    0.000    0.615 
#    2.769    0.000    0.000    0.000    0.000    0.000 
#    0.000    0.000    0.000    0.000    0.000    0.000 
#
# Total GULP energy -145050.167179 kJ/mol
# GULP energy per Si atom -5578.852584 kJ/mol
# Density = 2.152837 g / cm^3
# Si number density = 21.577480 Si / 1000 Ang^3
#
#
#
# Elastic Constant Matrix: (Units=GPa)
#
#
# Indices 1 2 3 4 5 6 
#
# 1 40.9572 8.5419 30.4667 0.0000 18.8408 0.0000
# 2 8.5419 34.2825 29.4537 0.0000 10.3711 0.0000
# 3 30.4667 29.4537 170.0338 0.0000 2.3366 0.0000
# 4 0.0000 0.0000 0.0000 27.0357 0.0000 8.6299
# 5 18.8408 10.3711 2.3366 0.0000 47.4922 0.0000
# 6 0.0000 0.0000 0.0000 8.6299 0.0000 16.0589
#
#
#
# Elastic Compliance Matrix: (Units=1/GPa)
#
#
# Indices 1 2 3 4 5 6 
#
# 1 0.035293 0.000787 -0.006270 0.000000 -0.013865 0.000000
# 2 0.000787 0.036935 -0.006428 0.000000 -0.008062 0.000000
# 3 -0.006270 -0.006428 0.008070 0.000000 0.003494 0.000000
# 4 0.000000 0.000000 0.000000 0.044647 0.000000 -0.023993
# 5 -0.013865 -0.008062 0.003494 0.000000 0.028145 0.000000
# 6 0.000000 0.000000 0.000000 -0.023993 0.000000 0.075164
#
#
# Mechanical properties :
#
#
# Convention : Reuss Voigt Hill
#
# Bulk Modulus (GPa) = 17.70641 42.46647 30.08644
# Shear Modulus (GPa) = 18.45693 29.90479 24.18086
#
# Velocity S-wave (km/s) = 2.92786 3.72684 3.35125
# Velocity P-wave (km/s) = 4.43324 6.18407 5.38035
#
# Compressibility (1/GPa) = 0.05647673
#
# Stress axis : x y z
#
# Youngs Moduli (GPa) = 28.33398 27.07473 123.91439
#
# Poissons Ratio (x) = -0.02131 0.77691
# Poissons Ratio (y) = -0.02230 0.79655
# Poissons Ratio (z) = 0.17765 0.17404
#
# Static dielectric constant tensor:
#      x y z
#    x 1.872650 0.000000 0.011960 
#    y 0.000000 1.807250 0.000000 
#    z 0.011960 0.000000 1.780780 
# 
# From -- ./inp_files/264453.got.cif
#   From: 2010.05.17/outbox.cif.g08.bks.cpg/sg15_133_cif.got.tgz:264453.got - 2010.06.03 18:47:42.
