data_PCOD9276809
_publ_section_title
;
Structure prediction by ZEFSAII (Michael W. Deem and Ramdas Pophale) SiO2 
 PCOD9276809
Probable space group: C 2/C
;
_chemical_formula_sum "Si O2"
_cell_formula_units_Z 40
_cell_length_a 21.319320
_cell_length_b 10.656281
_cell_length_c 12.106698
_cell_angle_alpha 90.000000
_cell_angle_beta 35.309702
_cell_angle_gamma 90.000000
_cell_volume 1589.752127
_symmetry_space_group_name_H-M "C 2/C"
_symmetry_group_IT_number 15
_symmetry_cell_setting 'monoclinic'
loop_
_space_group_symop_operation_xyz
x,y,z
-x,y,1/2-z
-x,-y,-z
x,-y,1/2+z
1/2+x,1/2+y,z
1/2-x,1/2+y,1/2-z
1/2-x,1/2-y,-z
1/2+x,1/2-y,1/2+z
loop_
_atom_site_type_symbol
_atom_site_label
_atom_site_fract_x
_atom_site_fract_y
_atom_site_fract_z
Si Si1 0.050783 0.834223 0.896040
Si Si2 0.183454 0.171829 0.869758
Si Si3 0.611503 0.242222 0.045597
Si Si4 0.118493 0.380551 0.128798
Si Si5 0.811929 0.022840 0.938519
O O1 0.102499 0.716826 0.753390
O O2 0.105072 0.957589 0.765735
O O3 0.074243 0.819946 0.990567
O O4 0.924734 0.826326 0.046777
O O5 0.290599 0.160393 0.642985
O O6 0.181599 0.301670 0.943214
O O7 0.175841 0.060810 0.968481
O O8 0.500000 0.183722 0.250000
O O9 0.659813 0.337374 0.066649
O O10 0.000000 0.407613 0.250000
O O11 0.190838 0.493962 0.069420
#
# Coordination Sequence:
#
# PCOD9276809 Si02
#       5
#     8   8   8   8   8
#     4  10  20  41  66  89 122 165 216 255 300 372
#     4  10  20  40  65  90 124 165 206 261 309 364
#     4  12  25  38  62  97 129 164 205 258 318 367
#     4   9  17  37  72  92 112 162 218 262 298 356
#     4  11  20  39  69  97 118 159 217 263 302 363
#
# _framework density 25.161154
#
# number of rings (size 3 to 8) (size 9 to 14) (size 15 to 20)
#    0.000    1.600    4.000    4.200    0.000    4.000 
#    0.000    4.000    0.000    2.400    0.000    0.000 
#    0.000    0.000    0.000    0.000    0.000    0.000 
#
# Total GULP energy -112177.833133 kJ/mol
# GULP energy per Si atom -5608.891657 kJ/mol
# Density = 2.510389 g / cm^3
# Si number density = 25.161154 Si / 1000 Ang^3
#
#
#
# Elastic Constant Matrix: (Units=GPa)
#
#
# Indices 1 2 3 4 5 6 
#
# 1 153.5171 21.3444 37.2191 0.0000 -17.3062 0.0000
# 2 21.3444 62.6929 12.0529 0.0000 11.4080 0.0000
# 3 37.2191 12.0529 162.9244 0.0000 -6.8952 0.0000
# 4 0.0000 0.0000 0.0000 9.6430 0.0000 -1.8266
# 5 -17.3062 11.4080 -6.8952 0.0000 51.6705 0.0000
# 6 0.0000 0.0000 0.0000 -1.8266 0.0000 29.9123
#
#
#
# Elastic Compliance Matrix: (Units=1/GPa)
#
#
# Indices 1 2 3 4 5 6 
#
# 1 0.007586 -0.002858 -0.001395 0.000000 0.002986 0.000000
# 2 -0.002858 0.018015 -0.000894 0.000000 -0.005054 0.000000
# 3 -0.001395 -0.000894 0.006548 0.000000 0.000604 0.000000
# 4 0.000000 0.000000 0.000000 0.104916 0.000000 0.006407
# 5 0.002986 -0.005054 0.000604 0.000000 0.021550 0.000000
# 6 0.000000 0.000000 0.000000 0.006407 0.000000 0.033822
#
#
# Mechanical properties :
#
#
# Convention : Reuss Voigt Hill
#
# Bulk Modulus (GPa) = 45.75422 57.81858 51.78640
# Shear Modulus (GPa) = 23.80764 38.81302 31.31033
#
# Velocity S-wave (km/s) = 3.07938 3.93183 3.53142
# Velocity P-wave (km/s) = 5.55585 6.60617 6.10364
#
# Compressibility (1/GPa) = 0.02185591
#
# Stress axis : x y z
#
# Youngs Moduli (GPa) = 131.81995 55.50867 152.71315
#
# Poissons Ratio (x) = 0.15863 0.21307
# Poissons Ratio (y) = 0.37672 0.13649
# Poissons Ratio (z) = 0.18392 0.04961
#
# Static dielectric constant tensor:
#      x y z
#    x 1.962790 0.000000 -0.011150 
#    y 0.000000 1.967110 0.000000 
#    z -0.011150 0.000000 1.969820 
# 
# From -- ./inp_files/111357.got.cif
#   From: 2010.05.17/outbox.cif.g08.bks.cpg/sg15_56_cif.got.tgz:111357.got - 2010.06.03 18:47:42.
