data_PCOD9276327
_publ_section_title
;
Structure prediction by ZEFSAII (Michael W. Deem and Ramdas Pophale) SiO2 
 PCOD9276327
Probable space group: C 2/C
;
_chemical_formula_sum "Si O2"
_cell_formula_units_Z 32
_cell_length_a 7.971577
_cell_length_b 27.332609
_cell_length_c 11.764512
_cell_angle_alpha 90.000000
_cell_angle_beta 34.572367
_cell_angle_gamma 90.000000
_cell_volume 1454.535480
_symmetry_space_group_name_H-M "C 2/C"
_symmetry_group_IT_number 15
_symmetry_cell_setting 'monoclinic'
loop_
_space_group_symop_operation_xyz
x,y,z
-x,y,1/2-z
-x,-y,-z
x,-y,1/2+z
1/2+x,1/2+y,z
1/2-x,1/2+y,1/2-z
1/2-x,1/2-y,-z
1/2+x,1/2-y,1/2+z
loop_
_atom_site_type_symbol
_atom_site_label
_atom_site_fract_x
_atom_site_fract_y
_atom_site_fract_z
Si Si1 0.757184 0.169867 0.289316
Si Si2 0.123393 0.437986 0.840577
Si Si3 0.203374 0.747258 0.910385
Si Si4 0.264831 0.974284 0.471876
O O1 0.632582 0.119122 0.310779
O O2 0.497293 0.200032 0.497226
O O3 0.000000 0.160191 0.250000
O O4 0.872530 0.203558 0.120069
O O5 0.427837 0.463416 0.629246
O O6 0.844904 0.468975 0.953084
O O7 0.152785 0.446000 0.958830
O O8 0.022101 0.761157 0.144430
O O9 0.500000 0.956744 0.250000
#
# Coordination Sequence:
#
# PCOD9276327 Si02
#       4
#     8   8   8   8
#     4  11  20  41  62  91 124 163 204 265 313 369
#     4  10  22  40  61  94 129 160 211 256 309 373
#     4   9  21  40  59  85 121 156 207 254 308 380
#     4  10  20  40  60  87 129 163 209 255 304 373
#
# _framework density 22.000147999999999
#
# number of rings (size 3 to 8) (size 9 to 14) (size 15 to 20)
#    0.000    2.000    2.500    1.500    0.000    3.000 
#   18.000    0.000    0.000    0.000    0.000    0.000 
#    0.000    0.000    0.000    0.000    0.000    0.000 
#
# Total GULP energy -89116.172211 kJ/mol
# GULP energy per Si atom -5569.760763 kJ/mol
# Density = 2.195008 g / cm^3
# Si number density = 22.000148 Si / 1000 Ang^3
#
#
#
# Elastic Constant Matrix: (Units=GPa)
#
#
# Indices 1 2 3 4 5 6 
#
# 1 84.7174 36.3217 21.6228 0.0000 10.9891 0.0000
# 2 36.3217 169.2075 41.6755 0.0000 -7.7541 0.0000
# 3 21.6228 41.6755 138.8569 0.0000 15.6632 0.0000
# 4 0.0000 0.0000 0.0000 -39.5016 0.0000 -99.5552
# 5 10.9891 -7.7541 15.6632 0.0000 44.2961 0.0000
# 6 0.0000 0.0000 0.0000 -99.5552 0.0000 -91.6178
#
#
#
# Elastic Compliance Matrix: (Units=1/GPa)
#
#
# Indices 1 2 3 4 5 6 
#
# 1 0.013736 -0.002902 -0.000861 0.000000 -0.003611 0.000000
# 2 -0.002902 0.007147 -0.001995 0.000000 0.002676 0.000000
# 3 -0.000861 -0.001995 0.008280 0.000000 -0.003064 0.000000
# 4 0.000000 0.000000 0.000000 0.014561 0.000000 -0.015822
# 5 -0.003611 0.002676 -0.003064 0.000000 0.025023 0.000000
# 6 0.000000 0.000000 0.000000 -0.015822 0.000000 0.006278
#
#
# Mechanical properties :
#
#
# Convention : Reuss Voigt Hill
#
# Bulk Modulus (GPa) = 56.66463 65.78021 61.22242
# Shear Modulus (GPa) = 54.09917 2.17946 28.13932
#
# Velocity S-wave (km/s) = 4.96425 0.99640 3.58026
# Velocity P-wave (km/s) = 7.65968 5.59362 6.70669
#
# Compressibility (1/GPa) = 0.01764769
#
# Stress axis : x y z
#
# Youngs Moduli (GPa) = 72.79970 139.92100 120.77275
#
# Poissons Ratio (x) = 0.40607 0.10394
# Poissons Ratio (y) = 0.21127 0.24094
# Poissons Ratio (z) = 0.06265 0.27914
#
# Static dielectric constant tensor:
#      x y z
#    x 1.987690 0.000000 -0.057790 
#    y 0.000000 1.742670 0.000000 
#    z -0.057790 0.000000 2.234450 
# 
# From -- ./inp_files/147587.got.cif
#   From: 2010.05.17/outbox.cif.g08.bks.cpg/sg15_74_cif.got.tgz:147587.got - 2010.06.03 18:47:42.
