data_PCOD9276155
_publ_section_title
;
Structure prediction by ZEFSAII (Michael W. Deem and Ramdas Pophale) SiO2 
 PCOD9276155
Probable space group: C 2/C
;
_chemical_formula_sum "Si O2"
_cell_formula_units_Z 48
_cell_length_a 12.416379
_cell_length_b 29.799046
_cell_length_c 8.663477
_cell_angle_alpha 90.000000
_cell_angle_beta 136.583240
_cell_angle_gamma 90.000000
_cell_volume 2203.108584
_symmetry_space_group_name_H-M "C 2/C"
_symmetry_group_IT_number 15
_symmetry_cell_setting 'monoclinic'
loop_
_space_group_symop_operation_xyz
x,y,z
-x,y,1/2-z
-x,-y,-z
x,-y,1/2+z
1/2+x,1/2+y,z
1/2-x,1/2+y,1/2-z
1/2-x,1/2-y,-z
1/2+x,1/2-y,1/2+z
loop_
_atom_site_type_symbol
_atom_site_label
_atom_site_fract_x
_atom_site_fract_y
_atom_site_fract_z
Si Si1 0.864963 0.115096 0.825754
Si Si2 0.219754 0.777005 0.629561
Si Si3 0.598853 0.035261 0.203706
Si Si4 0.886288 0.025995 0.998349
Si Si5 0.770869 0.121220 0.371490
Si Si6 0.587229 0.291763 0.004384
O O1 0.808250 0.069424 0.842913
O O2 0.801159 0.116190 0.586160
O O3 0.828571 0.160702 0.878004
O O4 0.055930 0.114194 0.020246
O O5 0.250000 0.750000 0.500000
O O6 0.286740 0.827601 0.703862
O O7 0.038367 0.784638 0.486423
O O8 0.292257 0.748039 0.842936
O O9 0.500000 0.046957 0.250000
O O10 0.657389 0.082155 0.192324
O O11 0.756330 0.008951 0.417516
O O12 0.500000 0.000000 0.000000
O O13 0.000000 0.042229 0.250000
O O14 0.000000 0.000000 0.000000
O O15 0.500000 0.291997 0.750000
#
# Coordination Sequence:
#
# PCOD9276155 Si02
#       6
#     8   8   8   8   8   8
#     4  10  20  39  69  95 120 165 235 276 317 394
#     4  11  22  42  69  97 133 176 229 270 335 416
#     4  12  26  43  62  96 139 171 216 285 348 400
#     4  12  23  41  68  93 123 174 225 269 329 403
#     4  10  21  40  67  95 127 175 222 275 327 403
#     4  11  23  41  64 100 137 170 216 285 340 393
#
# _framework density 21.787393999999999
#
# number of rings (size 3 to 8) (size 9 to 14) (size 15 to 20)
#    0.000    1.000    3.333    4.500    0.000    1.333 
#    3.000    0.833    0.000    0.000    0.000    0.000 
#    0.000    0.000    0.000    0.000    0.000    0.000 
#
# Total GULP energy -134153.323165 kJ/mol
# GULP energy per Si atom -5589.721799 kJ/mol
# Density = 2.173781 g / cm^3
# Si number density = 21.787394 Si / 1000 Ang^3
#
#
#
# Elastic Constant Matrix: (Units=GPa)
#
#
# Indices 1 2 3 4 5 6 
#
# 1 45.8527 10.2549 -11.7093 0.0000 5.7416 0.0000
# 2 10.2549 182.9397 25.6578 0.0000 5.4335 0.0000
# 3 -11.7093 25.6578 53.4572 0.0000 -6.4956 0.0000
# 4 0.0000 0.0000 0.0000 39.9384 0.0000 5.3185
# 5 5.7416 5.4335 -6.4956 0.0000 25.9910 0.0000
# 6 0.0000 0.0000 0.0000 5.3185 0.0000 25.4260
#
#
#
# Elastic Compliance Matrix: (Units=1/GPa)
#
#
# Indices 1 2 3 4 5 6 
#
# 1 0.024207 -0.002080 0.005882 0.000000 -0.003443 0.000000
# 2 -0.002080 0.006141 -0.003613 0.000000 -0.001727 0.000000
# 3 0.005882 -0.003613 0.022341 0.000000 0.005039 0.000000
# 4 0.000000 0.000000 0.000000 0.025756 0.000000 -0.005388
# 5 -0.003443 -0.001727 0.005039 0.000000 0.040856 0.000000
# 6 0.000000 0.000000 0.000000 -0.005388 0.000000 0.040457
#
#
# Mechanical properties :
#
#
# Convention : Reuss Voigt Hill
#
# Bulk Modulus (GPa) = 18.84341 36.73961 27.79151
# Shear Modulus (GPa) = 28.23765 35.47415 31.85590
#
# Velocity S-wave (km/s) = 3.60398 4.03947 3.82792
# Velocity P-wave (km/s) = 5.09763 6.21738 5.68514
#
# Compressibility (1/GPa) = 0.05306895
#
# Stress axis : x y z
#
# Youngs Moduli (GPa) = 41.30980 162.84310 44.75993
#
# Poissons Ratio (x) = 0.33867 -0.26329
# Poissons Ratio (y) = 0.08591 0.16171
# Poissons Ratio (z) = -0.24299 0.58833
#
# Static dielectric constant tensor:
#      x y z
#    x 1.825940 0.000000 -0.062870 
#    y 0.000000 1.804080 0.000000 
#    z -0.062870 0.000000 1.820040 
# 
# From -- ./inp_files/43934.got.cif
#   From: 2010.05.17/outbox.cif.g08.bks.cpg/sg15_22_cif.got.tgz:43934.got - 2010.06.03 18:47:42.
