data_PCOD9276350
_publ_section_title
;
Structure prediction by ZEFSAII (Michael W. Deem and Ramdas Pophale) SiO2 
 PCOD9276350
Probable space group: C 2/C
;
_chemical_formula_sum "Si O2"
_cell_formula_units_Z 44
_cell_length_a 10.491740
_cell_length_b 24.031385
_cell_length_c 7.878823
_cell_angle_alpha 90.000000
_cell_angle_beta 107.316517
_cell_angle_gamma 90.000000
_cell_volume 1896.458005
_symmetry_space_group_name_H-M "C 2/C"
_symmetry_group_IT_number 15
_symmetry_cell_setting 'monoclinic'
loop_
_space_group_symop_operation_xyz
x,y,z
-x,y,1/2-z
-x,-y,-z
x,-y,1/2+z
1/2+x,1/2+y,z
1/2-x,1/2+y,1/2-z
1/2-x,1/2-y,-z
1/2+x,1/2-y,1/2+z
loop_
_atom_site_type_symbol
_atom_site_label
_atom_site_fract_x
_atom_site_fract_y
_atom_site_fract_z
Si Si1 0.125372 0.766893 0.071457
Si Si2 0.000000 0.299894 0.250000
Si Si3 0.750018 0.137744 0.725098
Si Si4 0.351005 0.470154 0.116920
Si Si5 0.148986 0.084243 0.255805
Si Si6 0.153717 0.667772 0.314998
O O1 0.127617 0.830569 0.132750
O O2 0.144979 0.730502 0.247112
O O3 0.250000 0.750000 0.000000
O O4 0.005297 0.741085 0.914753
O O5 0.875408 0.340958 0.217458
O O6 0.770276 0.072818 0.702399
O O7 0.720332 0.160801 0.524251
O O8 0.500000 0.471418 0.250000
O O9 0.304327 0.533888 0.104475
O O10 0.355726 0.444871 0.931297
O O11 0.253711 0.133741 0.279440
O O12 0.000000 0.102261 0.250000
O O13 0.000000 0.646169 0.250000
#
# Coordination Sequence:
#
# PCOD9276350 Si02
#       6
#     8   4   8   8   8   8
#     4  10  22  39  62  90 129 166 212 254 320 387
#     4  10  20  40  60  92 130 164 210 266 314 382
#     4  10  22  41  63  93 126 172 204 266 324 380
#     4  10  21  40  63  93 123 164 214 259 320 377
#     4  10  22  41  66  93 127 167 213 265 317 383
#     4  11  22  43  65  95 133 168 215 265 321 380
#
# _framework density 23.201149000000001
#
# number of rings (size 3 to 8) (size 9 to 14) (size 15 to 20)
#    0.000    1.818    1.818    2.727    0.000    6.545 
#   21.273    1.818    2.000    0.000    0.000    0.000 
#    0.000    0.000    0.000    0.000    0.000    0.000 
#
# Total GULP energy -122978.665087 kJ/mol
# GULP energy per Si atom -5589.939322 kJ/mol
# Density = 2.314834 g / cm^3
# Si number density = 23.201149 Si / 1000 Ang^3
#
#
#
# Elastic Constant Matrix: (Units=GPa)
#
#
# Indices 1 2 3 4 5 6 
#
# 1 98.6561 50.4621 4.7188 0.0000 -11.5884 0.0000
# 2 50.4621 67.3801 9.4147 0.0000 -2.3554 0.0000
# 3 4.7188 9.4147 92.6586 0.0000 -9.2277 0.0000
# 4 0.0000 0.0000 0.0000 29.8610 0.0000 -9.8517
# 5 -11.5884 -2.3554 -9.2277 0.0000 20.4189 0.0000
# 6 0.0000 0.0000 0.0000 -9.8517 0.0000 34.6323
#
#
#
# Elastic Compliance Matrix: (Units=1/GPa)
#
#
# Indices 1 2 3 4 5 6 
#
# 1 0.017981 -0.013332 0.001363 0.000000 0.009283 0.000000
# 2 -0.013332 0.024964 -0.002434 0.000000 -0.005787 0.000000
# 3 0.001363 -0.002434 0.011539 0.000000 0.005708 0.000000
# 4 0.000000 0.000000 0.000000 0.036957 0.000000 0.010513
# 5 0.009283 -0.005787 0.005708 0.000000 0.056155 0.000000
# 6 0.000000 0.000000 0.000000 0.010513 0.000000 0.031865
#
#
# Mechanical properties :
#
#
# Convention : Reuss Voigt Hill
#
# Bulk Modulus (GPa) = 38.94393 43.09845 41.02119
# Shear Modulus (GPa) = 23.06019 29.92238 26.49129
#
# Velocity S-wave (km/s) = 3.15608 3.59513 3.38273
# Velocity P-wave (km/s) = 5.48661 5.98745 5.74249
#
# Compressibility (1/GPa) = 0.02567794
#
# Stress axis : x y z
#
# Youngs Moduli (GPa) = 55.61526 40.05839 86.66581
#
# Poissons Ratio (x) = 0.53406 -0.11816
# Poissons Ratio (y) = 0.74147 0.21093
# Poissons Ratio (z) = -0.07583 0.09749
#
# Static dielectric constant tensor:
#      x y z
#    x 1.936880 0.000000 0.012090 
#    y 0.000000 1.889630 0.000000 
#    z 0.012090 0.000000 1.942300 
# 
# From -- ./inp_files/31057.got.cif
#   From: 2010.05.17/outbox.cif.g08.bks.cpg/sg15_16_cif.got.tgz:31057.got - 2010.06.03 18:47:42.
