data_PCOD9276299
_publ_section_title
;
Structure prediction by ZEFSAII (Michael W. Deem and Ramdas Pophale) SiO2 
 PCOD9276299
Probable space group: C 2/C
;
_chemical_formula_sum "Si O2"
_cell_formula_units_Z 48
_cell_length_a 11.301633
_cell_length_b 26.081122
_cell_length_c 7.108902
_cell_angle_alpha 90.000000
_cell_angle_beta 61.596697
_cell_angle_gamma 90.000000
_cell_volume 1843.171144
_symmetry_space_group_name_H-M "C 2/C"
_symmetry_group_IT_number 15
_symmetry_cell_setting 'monoclinic'
loop_
_space_group_symop_operation_xyz
x,y,z
-x,y,1/2-z
-x,-y,-z
x,-y,1/2+z
1/2+x,1/2+y,z
1/2-x,1/2+y,1/2-z
1/2-x,1/2-y,-z
1/2+x,1/2-y,1/2+z
loop_
_atom_site_type_symbol
_atom_site_label
_atom_site_fract_x
_atom_site_fract_y
_atom_site_fract_z
Si Si1 0.462325 0.307433 0.554800
Si Si2 0.309364 0.764011 0.656468
Si Si3 0.205630 0.570232 0.773990
Si Si4 0.507369 0.424693 0.028902
Si Si5 0.217818 0.457175 0.704511
Si Si6 0.467413 0.868393 0.551486
O O1 0.500000 0.306757 0.750000
O O2 0.589992 0.281060 0.359859
O O3 0.323838 0.277147 0.625759
O O4 0.441729 0.366215 0.516591
O O5 0.250000 0.750000 0.500000
O O6 0.397800 0.815022 0.560715
O O7 0.353806 0.578052 0.576667
O O8 0.158176 0.513993 0.746956
O O9 0.217835 0.563485 0.991381
O O10 0.101538 0.616775 0.835262
O O11 0.500000 0.441529 0.250000
O O12 0.625838 0.458465 0.849191
O O13 0.132819 0.416979 0.889424
O O14 0.500000 0.865089 0.750000
#
# Coordination Sequence:
#
# PCOD9276299 Si02
#       6
#     8   8   8   8   8   8
#     4  10  22  40  62  87 122 158 205 259 317 379
#     4  10  22  42  63  90 125 160 208 265 320 381
#     4  10  22  36  62  93 125 166 215 259 313 380
#     4  10  21  38  60  87 125 165 208 255 312 376
#     4  10  20  40  59  90 128 167 211 262 315 374
#     4  10  21  40  64  90 128 169 210 262 320 379
#
# _framework density 26.042075000000001
#
# number of rings (size 3 to 8) (size 9 to 14) (size 15 to 20)
#    0.000    2.000    1.667    1.000    2.333    2.000 
#    0.000    1.667    0.000    0.000    0.000    0.000 
#    0.000    0.000    0.000    0.000    0.000    0.000 
#
# Total GULP energy -134432.721267 kJ/mol
# GULP energy per Si atom -5601.363386 kJ/mol
# Density = 2.598280 g / cm^3
# Si number density = 26.042075 Si / 1000 Ang^3
#
#
#
# Elastic Constant Matrix: (Units=GPa)
#
#
# Indices 1 2 3 4 5 6 
#
# 1 112.2676 35.1763 34.7311 0.0000 -17.8264 0.0000
# 2 35.1763 89.8472 4.4087 0.0000 -6.9011 0.0000
# 3 34.7311 4.4087 81.7650 0.0000 0.0568 0.0000
# 4 0.0000 0.0000 0.0000 33.5741 0.0000 -8.9555
# 5 -17.8264 -6.9011 0.0568 0.0000 30.8849 0.0000
# 6 0.0000 0.0000 0.0000 -8.9555 0.0000 54.4625
#
#
#
# Elastic Compliance Matrix: (Units=1/GPa)
#
#
# Indices 1 2 3 4 5 6 
#
# 1 0.012913 -0.004298 -0.005258 0.000000 0.006503 0.000000
# 2 -0.004298 0.012786 0.001136 0.000000 0.000374 0.000000
# 3 -0.005258 0.001136 0.014404 0.000000 -0.002807 0.000000
# 4 0.000000 0.000000 0.000000 0.031151 0.000000 0.005122
# 5 0.006503 0.000374 -0.002807 0.000000 0.036220 0.000000
# 6 0.000000 0.000000 0.000000 0.005122 0.000000 0.019204
#
#
# Mechanical properties :
#
#
# Convention : Reuss Voigt Hill
#
# Bulk Modulus (GPa) = 42.98632 48.05690 45.52161
# Shear Modulus (GPa) = 33.05299 37.75521 35.40410
#
# Velocity S-wave (km/s) = 3.56647 3.81173 3.69113
# Velocity P-wave (km/s) = 5.78809 6.15353 5.97360
#
# Compressibility (1/GPa) = 0.02326321
#
# Stress axis : x y z
#
# Youngs Moduli (GPa) = 77.44088 78.21184 69.42417
#
# Poissons Ratio (x) = 0.33617 0.36502
# Poissons Ratio (y) = 0.33286 -0.07887
# Poissons Ratio (z) = 0.40717 -0.08885
#
# Static dielectric constant tensor:
#      x y z
#    x 2.096440 0.000000 -0.007220 
#    y 0.000000 1.943490 0.000000 
#    z -0.007220 0.000000 1.999450 
# 
# From -- ./inp_files/33394.got.cif
#   From: 2010.05.17/outbox.cif.g08.bks.cpg/sg15_17_cif.got.tgz:33394.got - 2010.06.03 18:47:42.
