data_PCOD9276427
_publ_section_title
;
Structure prediction by ZEFSAII (Michael W. Deem and Ramdas Pophale) SiO2 
 PCOD9276427
Probable space group: C 2/C
;
_chemical_formula_sum "Si O2"
_cell_formula_units_Z 48
_cell_length_a 13.924166
_cell_length_b 11.109907
_cell_length_c 21.980857
_cell_angle_alpha 90.000000
_cell_angle_beta 132.060469
_cell_angle_gamma 90.000000
_cell_volume 2524.553386
_symmetry_space_group_name_H-M "C 2/C"
_symmetry_group_IT_number 15
_symmetry_cell_setting 'monoclinic'
loop_
_space_group_symop_operation_xyz
x,y,z
-x,y,1/2-z
-x,-y,-z
x,-y,1/2+z
1/2+x,1/2+y,z
1/2-x,1/2+y,1/2-z
1/2-x,1/2-y,-z
1/2+x,1/2-y,1/2+z
loop_
_atom_site_type_symbol
_atom_site_label
_atom_site_fract_x
_atom_site_fract_y
_atom_site_fract_z
Si Si1 0.128138 0.123853 0.764256
Si Si2 0.901427 0.884035 0.828575
Si Si3 0.848888 0.981988 0.419385
Si Si4 0.198140 0.255147 0.680224
Si Si5 0.205527 0.112235 0.478344
Si Si6 0.848258 0.488204 0.920527
O O1 0.127203 0.227964 0.713427
O O2 0.000000 0.134398 0.750000
O O3 0.114956 0.001388 0.719976
O O4 0.264360 0.100581 0.857767
O O5 0.844898 0.773802 0.766048
O O6 0.051945 0.875776 0.905021
O O7 0.825656 0.913340 0.859573
O O8 0.825573 0.856394 0.374284
O O9 0.774313 0.965628 0.451410
O O10 0.000000 0.000000 0.500000
O O11 0.159857 0.377222 0.630314
O O12 0.250000 0.250000 0.500000
O O13 0.272674 0.050378 0.449450
O O14 0.000000 0.500000 0.000000
#
# Coordination Sequence:
#
# PCOD9276427 Si02
#       6
#     8   8   8   8   8   8
#     4  10  20  40  62  80 116 163 197 232 297 362
#     4   9  20  37  61  84 114 156 194 242 290 353
#     4   9  19  36  60  85 116 151 194 240 295 353
#     4  10  21  38  60  86 118 151 200 244 292 345
#     4  11  20  36  61  86 116 153 198 240 295 347
#     4  11  24  40  59  91 122 153 197 253 292 338
#
# _framework density 19.013263999999999
#
# number of rings (size 3 to 8) (size 9 to 14) (size 15 to 20)
#    0.000    2.000    3.333    0.000    2.333    0.000 
#    3.000    0.833    0.000    0.000    0.000    0.000 
#    0.000    0.000    0.000    0.000    0.000    0.000 
#
# Total GULP energy -133609.241495 kJ/mol
# GULP energy per Si atom -5567.051729 kJ/mol
# Density = 1.896999 g / cm^3
# Si number density = 19.013264 Si / 1000 Ang^3
#
#
#
# Elastic Constant Matrix: (Units=GPa)
#
#
# Indices 1 2 3 4 5 6 
#
# 1 132.3940 38.1551 56.2031 0.0000 -24.9687 0.0000
# 2 38.1551 53.1309 40.8580 0.0000 -7.7108 0.0000
# 3 56.2031 40.8580 118.3525 0.0000 -0.8319 0.0000
# 4 0.0000 0.0000 0.0000 34.9221 0.0000 -3.0575
# 5 -24.9687 -7.7108 -0.8319 0.0000 30.2268 0.0000
# 6 0.0000 0.0000 0.0000 -3.0575 0.0000 17.1307
#
#
#
# Elastic Compliance Matrix: (Units=1/GPa)
#
#
# Indices 1 2 3 4 5 6 
#
# 1 0.012289 -0.004200 -0.004323 0.000000 0.008960 0.000000
# 2 -0.004200 0.028316 -0.007756 0.000000 0.003540 0.000000
# 3 -0.004323 -0.007756 0.013143 0.000000 -0.005187 0.000000
# 4 0.000000 0.000000 0.000000 0.029090 0.000000 0.005192
# 5 0.008960 0.003540 -0.005187 0.000000 0.041245 0.000000
# 6 0.000000 0.000000 0.000000 0.005192 0.000000 0.059301
#
#
# Mechanical properties :
#
#
# Convention : Reuss Voigt Hill
#
# Bulk Modulus (GPa) = 47.19170 63.81220 55.50195
# Shear Modulus (GPa) = 22.42107 27.70000 25.06053
#
# Velocity S-wave (km/s) = 3.43772 3.82105 3.63444
# Velocity P-wave (km/s) = 6.37429 7.28711 6.84593
#
# Compressibility (1/GPa) = 0.02119017
#
# Stress axis : x y z
#
# Youngs Moduli (GPa) = 81.37618 35.31588 76.08608
#
# Poissons Ratio (x) = 0.14834 0.32889
# Poissons Ratio (y) = 0.34181 0.59010
# Poissons Ratio (z) = 0.35175 0.27390
#
# Static dielectric constant tensor:
#      x y z
#    x 1.660110 0.000000 -0.038830 
#    y 0.000000 1.666450 0.000000 
#    z -0.038830 0.000000 1.655400 
# 
# From -- ./inp_files/196131.got.cif
#   From: 2010.05.17/outbox.cif.g08.bks.cpg/sg15_99_cif.got.tgz:196131.got - 2010.06.03 18:47:42.
