data_PCOD9276451
_publ_section_title
;
Structure prediction by ZEFSAII (Michael W. Deem and Ramdas Pophale) SiO2 
 PCOD9276451
Probable space group: C 2/C
;
_chemical_formula_sum "Si O2"
_cell_formula_units_Z 44
_cell_length_a 25.559008
_cell_length_b 8.235198
_cell_length_c 26.058551
_cell_angle_alpha 90.000000
_cell_angle_beta 159.414530
_cell_angle_gamma 90.000000
_cell_volume 1928.512354
_symmetry_space_group_name_H-M "C 2/C"
_symmetry_group_IT_number 15
_symmetry_cell_setting 'monoclinic'
loop_
_space_group_symop_operation_xyz
x,y,z
-x,y,1/2-z
-x,-y,-z
x,-y,1/2+z
1/2+x,1/2+y,z
1/2-x,1/2+y,1/2-z
1/2-x,1/2-y,-z
1/2+x,1/2-y,1/2+z
loop_
_atom_site_type_symbol
_atom_site_label
_atom_site_fract_x
_atom_site_fract_y
_atom_site_fract_z
Si Si1 0.122144 0.140521 0.106146
Si Si2 0.532112 0.078078 0.084768
Si Si3 0.500000 0.253191 0.250000
Si Si4 0.906886 0.284743 0.307015
Si Si5 0.230425 0.479637 0.004647
Si Si6 0.320336 0.670965 0.989008
O O1 0.291036 0.098423 0.248184
O O2 0.132924 0.219574 0.173196
O O3 0.058129 0.257027 0.002881
O O4 0.000000 0.000000 0.000000
O O5 0.491446 0.943830 0.089011
O O6 0.500000 0.000000 0.000000
O O7 0.369075 0.370577 0.150678
O O8 0.584566 0.133674 0.367407
O O9 0.768297 0.333316 0.145481
O O10 0.006632 0.161091 0.366353
O O11 0.209585 0.652652 0.012805
O O12 0.268882 0.533780 0.981251
#
# Coordination Sequence:
#
# PCOD9276451 Si02
#       6
#     8   8   4   8   8   8
#     4  11  21  39  62  85 121 163 201 251 318 369
#     4  10  21  38  58  84 116 155 201 250 309 359
#     4  10  20  40  62  86 116 158 202 242 316 368
#     4  11  22  38  61  88 117 155 207 255 287 365
#     4  10  22  40  64  89 124 165 195 252 314 367
#     4  11  22  40  63  90 121 163 214 246 301 378
#
# _framework density 22.815514
#
# number of rings (size 3 to 8) (size 9 to 14) (size 15 to 20)
#    0.000    1.455    0.000    7.636    0.000    2.909 
#    0.000   18.182    0.000    0.000    0.000    0.000 
#    0.000    0.000    0.000    0.000    0.000    0.000 
#
# Total GULP energy -122893.764707 kJ/mol
# GULP energy per Si atom -5586.080214 kJ/mol
# Density = 2.276358 g / cm^3
# Si number density = 22.815514 Si / 1000 Ang^3
#
#
#
# Elastic Constant Matrix: (Units=GPa)
#
#
# Indices 1 2 3 4 5 6 
#
# 1 65.6523 16.0485 13.9467 0.0001 -2.8121 0.0001
# 2 16.0485 83.0540 28.3492 -0.0006 -13.9510 0.0001
# 3 13.9467 28.3492 131.2846 -0.0002 -0.1906 0.0005
# 4 0.0001 -0.0006 -0.0002 43.2394 0.0001 -4.4653
# 5 -2.8121 -13.9510 -0.1906 0.0001 21.7018 0.0002
# 6 0.0001 0.0001 0.0005 -4.4653 0.0002 27.9979
#
#
#
# Elastic Compliance Matrix: (Units=1/GPa)
#
#
# Indices 1 2 3 4 5 6 
#
# 1 0.016142 -0.002669 -0.001138 0.000000 0.000366 0.000000
# 2 -0.002669 0.015144 -0.002973 0.000000 0.009363 0.000000
# 3 -0.001138 -0.002973 0.008377 0.000000 -0.001985 0.000000
# 4 0.000000 0.000000 0.000000 0.023514 0.000000 0.003750
# 5 0.000366 0.009363 -0.001985 0.000000 0.052128 0.000000
# 6 0.000000 0.000000 0.000000 0.003750 0.000000 0.036315
#
#
# Mechanical properties :
#
#
# Convention : Reuss Voigt Hill
#
# Bulk Modulus (GPa) = 38.31080 44.07551 41.19315
# Shear Modulus (GPa) = 28.75535 33.36426 31.05980
#
# Velocity S-wave (km/s) = 3.55398 3.82822 3.69364
# Velocity P-wave (km/s) = 5.80250 6.23702 6.02368
#
# Compressibility (1/GPa) = 0.02610230
#
# Stress axis : x y z
#
# Youngs Moduli (GPa) = 61.95169 66.03420 119.37448
#
# Poissons Ratio (x) = 0.17626 0.13583
# Poissons Ratio (y) = 0.16536 0.35489
# Poissons Ratio (z) = 0.07049 0.19631
#
# Static dielectric constant tensor:
#      x y z
#    x 1.822190 0.000000 -0.000920 
#    y 0.000000 1.920510 0.000000 
#    z -0.000920 0.000000 1.815080 
# 
# From -- ./inp_files/68298.got.cif
#   From: 2010.05.17/outbox.cif.g08.bks.cpg/sg15_35_cif.got.tgz:68298.got - 2010.06.03 18:47:42.
