data_PCOD9276908
_publ_section_title
;
Structure prediction by ZEFSAII (Michael W. Deem and Ramdas Pophale) SiO2 
 PCOD9276908
Probable space group: C 2/C
;
_chemical_formula_sum "Si O2"
_cell_formula_units_Z 52
_cell_length_a 24.992371
_cell_length_b 8.074591
_cell_length_c 13.505990
_cell_angle_alpha 90.000000
_cell_angle_beta 130.820448
_cell_angle_gamma 90.000000
_cell_volume 2062.593403
_symmetry_space_group_name_H-M "C 2/C"
_symmetry_group_IT_number 15
_symmetry_cell_setting 'monoclinic'
loop_
_space_group_symop_operation_xyz
x,y,z
-x,y,1/2-z
-x,-y,-z
x,-y,1/2+z
1/2+x,1/2+y,z
1/2-x,1/2+y,1/2-z
1/2-x,1/2-y,-z
1/2+x,1/2-y,1/2+z
loop_
_atom_site_type_symbol
_atom_site_label
_atom_site_fract_x
_atom_site_fract_y
_atom_site_fract_z
Si Si1 0.943414 0.102533 0.364909
Si Si2 0.628810 0.787689 0.554278
Si Si3 0.117779 0.557809 0.673038
Si Si4 0.266923 0.805422 0.347702
Si Si5 0.119771 0.925738 0.520965
Si Si6 0.000000 0.081526 0.750000
Si Si7 0.291365 0.076218 0.527692
O O1 0.937455 0.301860 0.358645
O O2 0.950588 0.020300 0.267377
O O3 0.875345 0.075916 0.353410
O O4 0.000000 0.000000 0.500000
O O5 0.701493 0.740595 0.699520
O O6 0.598124 0.615317 0.479922
O O7 0.647457 0.879509 0.476647
O O8 0.586765 0.894170 0.584023
O O9 0.172061 0.619650 0.651664
O O10 0.168221 0.517549 0.825965
O O11 0.306869 0.638657 0.432378
O O12 0.248516 0.568742 0.581454
O O13 0.056187 0.826165 0.390059
O O14 0.250000 0.250000 0.500000
#
# Coordination Sequence:
#
# PCOD9276908 Si02
#       7
#     8   8   8   8   8   4   8
#     4   9  20  39  63  86 118 165 220 277 332 395
#     4  11  22  39  62  95 141 178 215 276 338 406
#     4  10  21  38  59  91 131 172 220 272 331 405
#     4  10  22  38  60  94 140 175 216 265 338 409
#     4  10  21  39  64  94 127 171 219 277 334 403
#     4  10  20  40  66  90 118 164 232 278 330 394
#     4  11  22  37  60  92 137 180 218 266 323 403
#
# _framework density 25.210978999999998
#
# number of rings (size 3 to 8) (size 9 to 14) (size 15 to 20)
#    0.000    1.846    1.538    2.769    2.154    1.846 
#    0.000    3.077    0.000   25.846    0.000    0.000 
#    0.000    0.000    0.000    0.000    0.000    0.000 
#
# Total GULP energy -144869.855257 kJ/mol
# GULP energy per Si atom -5571.917510 kJ/mol
# Density = 2.515360 g / cm^3
# Si number density = 25.210979 Si / 1000 Ang^3
#
#
#
# Elastic Constant Matrix: (Units=GPa)
#
#
# Indices 1 2 3 4 5 6 
#
# 1 59.6497 6.7963 45.2949 0.0000 -14.0623 0.0000
# 2 6.7963 54.4322 23.7195 0.0000 -8.1758 0.0000
# 3 45.2949 23.7195 133.8234 0.0000 -22.4891 0.0000
# 4 0.0000 0.0000 0.0000 35.9602 0.0000 -7.1971
# 5 -14.0623 -8.1758 -22.4891 0.0000 48.3201 0.0000
# 6 0.0000 0.0000 0.0000 -7.1971 0.0000 51.3399
#
#
#
# Elastic Compliance Matrix: (Units=1/GPa)
#
#
# Indices 1 2 3 4 5 6 
#
# 1 0.023086 0.000852 -0.007389 0.000000 0.003423 0.000000
# 2 0.000852 0.020098 -0.003512 0.000000 0.002014 0.000000
# 3 -0.007389 -0.003512 0.010995 0.000000 0.002372 0.000000
# 4 0.000000 0.000000 0.000000 0.028611 0.000000 0.004011
# 5 0.003423 0.002014 0.002372 0.000000 0.023137 0.000000
# 6 0.000000 0.000000 0.000000 0.004011 0.000000 0.020040
#
#
# Mechanical properties :
#
#
# Convention : Reuss Voigt Hill
#
# Bulk Modulus (GPa) = 29.34354 44.39185 36.86770
# Shear Modulus (GPa) = 31.76097 38.59701 35.17899
#
# Velocity S-wave (km/s) = 3.55323 3.91699 3.73954
# Velocity P-wave (km/s) = 5.33839 6.17280 5.77070
#
# Compressibility (1/GPa) = 0.03407905
#
# Stress axis : x y z
#
# Youngs Moduli (GPa) = 43.31687 49.75602 90.95199
#
# Poissons Ratio (x) = -0.04238 0.67208
# Poissons Ratio (y) = -0.03690 0.31944
# Poissons Ratio (z) = 0.32009 0.17475
#
# Static dielectric constant tensor:
#      x y z
#    x 2.056290 0.000000 0.017930 
#    y 0.000000 2.292520 0.000000 
#    z 0.017930 0.000000 1.933300 
# 
# From -- ./inp_files/122073.got.cif
#   From: 2010.05.17/outbox.cif.g08.bks.cpg/sg15_62_cif.got.tgz:122073.got - 2010.06.03 18:47:42.
