data_PCOD9276285
_publ_section_title
;
Structure prediction by ZEFSAII (Michael W. Deem and Ramdas Pophale) SiO2 
 PCOD9276285
Probable space group: C 2/C
;
_chemical_formula_sum "Si O2"
_cell_formula_units_Z 32
_cell_length_a 11.955680
_cell_length_b 8.873521
_cell_length_c 22.240794
_cell_angle_alpha 90.000000
_cell_angle_beta 36.599345
_cell_angle_gamma 90.000000
_cell_volume 1406.772783
_symmetry_space_group_name_H-M "C 2/C"
_symmetry_group_IT_number 15
_symmetry_cell_setting 'monoclinic'
loop_
_space_group_symop_operation_xyz
x,y,z
-x,y,1/2-z
-x,-y,-z
x,-y,1/2+z
1/2+x,1/2+y,z
1/2-x,1/2+y,1/2-z
1/2-x,1/2-y,-z
1/2+x,1/2-y,1/2+z
loop_
_atom_site_type_symbol
_atom_site_label
_atom_site_fract_x
_atom_site_fract_y
_atom_site_fract_z
Si Si1 0.887455 0.445926 0.896108
Si Si2 0.973057 0.713569 0.610015
Si Si3 0.025462 0.236193 0.527286
Si Si4 0.220772 0.016183 0.793759
O O1 0.706877 0.372574 0.945315
O O2 0.871423 0.622575 0.919292
O O3 0.081741 0.437554 0.775823
O O4 0.926315 0.359071 0.942530
O O5 0.008156 0.703419 0.524352
O O6 0.786052 0.614228 0.707911
O O7 0.929730 0.883796 0.648947
O O8 0.856000 0.135315 0.625464
#
# Coordination Sequence:
#
# PCOD9276285 Si02
#       4
#     8   8   8   8
#     4   9  21  38  60  95 123 162 229 254 314 410
#     4  10  21  38  62  89 132 167 212 267 321 383
#     4  11  20  39  67  86 128 177 203 270 338 368
#     4  10  20  40  58  94 129 163 215 275 306 393
#
# _framework density 22.747098000000001
#
# number of rings (size 3 to 8) (size 9 to 14) (size 15 to 20)
#    1.500    0.500    2.500    1.500    0.000    2.000 
#    0.000    0.000    0.000    0.000    0.000    0.000 
#    0.000    0.000    0.000    0.000    0.000    0.000 
#
# Total GULP energy -89281.254574 kJ/mol
# GULP energy per Si atom -5580.078411 kJ/mol
# Density = 2.269532 g / cm^3
# Si number density = 22.747098 Si / 1000 Ang^3
#
#
#
# Elastic Constant Matrix: (Units=GPa)
#
#
# Indices 1 2 3 4 5 6 
#
# 1 59.0319 7.4382 19.1557 0.0000 2.5563 0.0000
# 2 7.4382 79.5623 14.5690 0.0000 15.7622 0.0000
# 3 19.1557 14.5690 122.2843 0.0000 -7.4725 0.0000
# 4 0.0000 0.0000 0.0000 52.3883 0.0000 -1.3881
# 5 2.5563 15.7622 -7.4725 0.0000 20.2659 0.0000
# 6 0.0000 0.0000 0.0000 -1.3881 0.0000 22.9623
#
#
#
# Elastic Compliance Matrix: (Units=1/GPa)
#
#
# Indices 1 2 3 4 5 6 
#
# 1 0.018094 -0.000574 -0.002945 0.000000 -0.002922 0.000000
# 2 -0.000574 0.015685 -0.002578 0.000000 -0.013078 0.000000
# 3 -0.002945 -0.002578 0.009301 0.000000 0.005806 0.000000
# 4 0.000000 0.000000 0.000000 0.019119 0.000000 0.001156
# 5 -0.002922 -0.013078 0.005806 0.000000 0.062025 0.000000
# 6 0.000000 0.000000 0.000000 0.001156 0.000000 0.043620
#
#
# Mechanical properties :
#
#
# Convention : Reuss Voigt Hill
#
# Bulk Modulus (GPa) = 32.37502 38.13380 35.25441
# Shear Modulus (GPa) = 26.26982 33.77100 30.02041
#
# Velocity S-wave (km/s) = 3.40202 3.85727 3.63677
# Velocity P-wave (km/s) = 5.44932 6.05299 5.75907
#
# Compressibility (1/GPa) = 0.03088801
#
# Stress axis : x y z
#
# Youngs Moduli (GPa) = 55.26592 63.75385 107.51665
#
# Poissons Ratio (x) = 0.03656 0.31660
# Poissons Ratio (y) = 0.03170 0.27718
# Poissons Ratio (z) = 0.16274 0.16436
#
# Static dielectric constant tensor:
#      x y z
#    x 1.858060 0.000000 -0.059090 
#    y 0.000000 1.880960 0.000000 
#    z -0.059090 0.000000 1.890600 
# 
# From -- ./inp_files/140726.got.cif
#   From: 2010.05.17/outbox.cif.g08.bks.cpg/sg15_71_cif.got.tgz:140726.got - 2010.06.03 18:47:42.
