data_PCOD9276519
_publ_section_title
;
Structure prediction by ZEFSAII (Michael W. Deem and Ramdas Pophale) SiO2 
 PCOD9276519
Probable space group: C 2/C
;
_chemical_formula_sum "Si O2"
_cell_formula_units_Z 52
_cell_length_a 15.115306
_cell_length_b 14.991800
_cell_length_c 11.899698
_cell_angle_alpha 90.000000
_cell_angle_beta 107.390975
_cell_angle_gamma 90.000000
_cell_volume 2573.272993
_symmetry_space_group_name_H-M "C 2/C"
_symmetry_group_IT_number 15
_symmetry_cell_setting 'monoclinic'
loop_
_space_group_symop_operation_xyz
x,y,z
-x,y,1/2-z
-x,-y,-z
x,-y,1/2+z
1/2+x,1/2+y,z
1/2-x,1/2+y,1/2-z
1/2-x,1/2-y,-z
1/2+x,1/2-y,1/2+z
loop_
_atom_site_type_symbol
_atom_site_label
_atom_site_fract_x
_atom_site_fract_y
_atom_site_fract_z
Si Si1 0.416994 0.368532 0.064451
Si Si2 0.000000 0.995992 0.750000
Si Si3 0.663971 0.904592 0.749909
Si Si4 0.366632 0.349196 0.780140
Si Si5 0.562987 0.933831 0.097877
Si Si6 0.779616 0.353091 0.486386
Si Si7 0.000000 0.281702 0.750000
Si Si8 0.500000 0.197010 0.750000
O O1 0.487748 0.443246 0.134597
O O2 0.318990 0.393082 0.086027
O O3 0.451032 0.278977 0.138111
O O4 0.398934 0.356539 0.924553
O O5 0.086720 0.931736 0.765307
O O6 0.755778 0.860626 0.730470
O O7 0.575014 0.840657 0.713723
O O8 0.629783 0.999861 0.693901
O O9 0.690614 0.904968 0.890746
O O10 0.412448 0.261376 0.742089
O O11 0.635112 0.868414 0.062859
O O12 0.495603 0.870656 0.143963
O O13 0.500000 0.000000 0.000000
O O14 0.750000 0.250000 0.500000
#
# Coordination Sequence:
#
# PCOD9276519 Si02
#       8
#     8   4   8   8   8   8   4   4
#     4  10  21  36  66  92 120 165 215 260 319 370
#     4  10  20  40  62  94 124 164 214 260 318 384
#     4  11  23  40  64  95 125 166 220 259 317 383
#     4  10  23  42  64  89 133 165 210 266 324 375
#     4  12  25  41  65  93 134 168 212 269 319 384
#     4  11  21  40  65  91 124 170 217 261 320 383
#     4  11  21  35  61  98 118 160 225 263 307 387
#     4  11  25  41  63  94 128 174 203 263 333 381
#
# _framework density 20.207726999999998
#
# number of rings (size 3 to 8) (size 9 to 14) (size 15 to 20)
#    0.000    1.231    1.538    5.538    2.154    0.000 
#    0.000    0.769    3.385    0.000    0.000    0.000 
#    0.000    0.000    0.000    0.000    0.000    0.000 
#
# Total GULP energy -145021.215487 kJ/mol
# GULP energy per Si atom -5577.739057 kJ/mol
# Density = 2.016173 g / cm^3
# Si number density = 20.207727 Si / 1000 Ang^3
#
#
#
# Elastic Constant Matrix: (Units=GPa)
#
#
# Indices 1 2 3 4 5 6 
#
# 1 140.5880 55.4928 35.8543 0.0000 -7.1678 0.0000
# 2 55.4928 134.3218 52.8298 0.0000 -6.2511 0.0000
# 3 35.8543 52.8298 61.8121 0.0000 5.7136 0.0000
# 4 0.0000 0.0000 0.0000 30.1575 0.0000 -8.8941
# 5 -7.1678 -6.2511 5.7136 0.0000 31.8326 0.0000
# 6 0.0000 0.0000 0.0000 -8.8941 0.0000 26.0683
#
#
#
# Elastic Compliance Matrix: (Units=1/GPa)
#
#
# Indices 1 2 3 4 5 6 
#
# 1 0.009005 -0.002232 -0.003521 0.000000 0.002221 0.000000
# 2 -0.002232 0.012289 -0.009544 0.000000 0.003624 0.000000
# 3 -0.003521 -0.009544 0.027073 0.000000 -0.007526 0.000000
# 4 0.000000 0.000000 0.000000 0.036869 0.000000 0.012579
# 5 0.002221 0.003624 -0.007526 0.000000 0.033977 0.000000
# 6 0.000000 0.000000 0.000000 0.012579 0.000000 0.042653
#
#
# Mechanical properties :
#
#
# Convention : Reuss Voigt Hill
#
# Bulk Modulus (GPa) = 56.26267 69.45284 62.85776
# Shear Modulus (GPa) = 25.20362 30.44803 27.82583
#
# Velocity S-wave (km/s) = 3.53544 3.88590 3.71481
# Velocity P-wave (km/s) = 6.67596 7.38767 7.04081
#
# Compressibility (1/GPa) = 0.01777377
#
# Stress axis : x y z
#
# Youngs Moduli (GPa) = 111.04583 81.37256 36.93731
#
# Poissons Ratio (x) = 0.18163 0.13006
# Poissons Ratio (y) = 0.24787 0.35251
# Poissons Ratio (z) = 0.39101 0.77658
#
# Static dielectric constant tensor:
#      x y z
#    x 1.844530 0.000000 0.030630 
#    y 0.000000 1.734990 0.000000 
#    z 0.030630 0.000000 1.829650 
# 
# From -- ./inp_files/97157.got.cif
#   From: 2010.05.17/outbox.cif.g08.bks.cpg/sg15_49_cif.got.tgz:97157.got - 2010.06.03 18:47:42.
