data_PCOD9276162
_publ_section_title
;
Structure prediction by ZEFSAII (Michael W. Deem and Ramdas Pophale) SiO2 
 PCOD9276162
Probable space group: C 2/C
;
_chemical_formula_sum "Si O2"
_cell_formula_units_Z 64
_cell_length_a 16.852017
_cell_length_b 5.463743
_cell_length_c 27.018752
_cell_angle_alpha 90.000000
_cell_angle_beta 90.787100
_cell_angle_gamma 90.000000
_cell_volume 2487.519281
_symmetry_space_group_name_H-M "C 2/C"
_symmetry_group_IT_number 15
_symmetry_cell_setting 'monoclinic'
loop_
_space_group_symop_operation_xyz
x,y,z
-x,y,1/2-z
-x,-y,-z
x,-y,1/2+z
1/2+x,1/2+y,z
1/2-x,1/2+y,1/2-z
1/2-x,1/2-y,-z
1/2+x,1/2-y,1/2+z
loop_
_atom_site_type_symbol
_atom_site_label
_atom_site_fract_x
_atom_site_fract_y
_atom_site_fract_z
Si Si1 0.882960 0.097791 0.675460
Si Si2 0.225677 0.447678 0.040775
Si Si3 0.128480 0.673962 0.963615
Si Si4 0.774310 0.412443 0.616547
Si Si5 0.509691 0.344298 0.894100
Si Si6 0.868490 0.106230 0.844380
Si Si7 0.016560 0.525125 0.196969
Si Si8 0.299131 0.669707 0.255214
O O1 0.813723 0.289476 0.664086
O O2 0.855050 0.875099 0.708344
O O3 0.954754 0.248436 0.699037
O O4 0.914479 0.997551 0.624012
O O5 0.300944 0.627017 0.040972
O O6 0.219829 0.295162 0.090733
O O7 0.250000 0.250000 0.000000
O O8 0.145768 0.569754 0.018592
O O9 0.156949 0.485481 0.921019
O O10 0.039860 0.752976 0.947677
O O11 0.716213 0.634705 0.629765
O O12 0.433611 0.516498 0.884770
O O13 0.500879 0.135104 0.851951
O O14 0.900665 0.337151 0.814245
O O15 0.851656 0.891134 0.804175
O O16 0.000000 0.400005 0.250000
O O17 0.259452 0.933714 0.250590
#
# Coordination Sequence:
#
# PCOD9276162 Si02
#       8
#     8   8   8   8   8   8   8   8
#     4  11  23  39  63  92 127 181 227 279 333 407
#     4   9  20  37  68 100 127 157 223 280 339 413
#     4  10  20  39  69  96 123 173 217 276 343 420
#     4  11  21  42  63  97 130 170 228 282 339 407
#     4  11  25  40  65  92 133 176 226 278 347 411
#     4  11  27  40  60  98 135 178 219 290 342 402
#     4  11  24  41  60  87 132 181 232 272 331 406
#     4  12  28  43  65  98 139 181 235 292 347 400
#
# _framework density 25.728446000000002
#
# number of rings (size 3 to 8) (size 9 to 14) (size 15 to 20)
#    0.000    1.250    5.000    0.000    7.000    1.000 
#    0.000    0.625    0.000    7.500    0.000    0.000 
#    0.000    0.000    0.000    0.000    0.000    0.000 
#
# Total GULP energy -178987.505447 kJ/mol
# GULP energy per Si atom -5593.359545 kJ/mol
# Density = 2.566989 g / cm^3
# Si number density = 25.728446 Si / 1000 Ang^3
#
#
#
# Elastic Constant Matrix: (Units=GPa)
#
#
# Indices 1 2 3 4 5 6 
#
# 1 86.2453 27.6742 21.3152 0.0000 22.8934 0.0000
# 2 27.6742 90.5334 19.3141 0.0000 13.4471 0.0000
# 3 21.3152 19.3141 48.2750 0.0000 31.9927 0.0000
# 4 0.0000 0.0000 0.0000 31.7117 0.0000 9.8427
# 5 22.8934 13.4471 31.9927 0.0000 46.7747 0.0000
# 6 0.0000 0.0000 0.0000 9.8427 0.0000 44.0270
#
#
#
# Elastic Compliance Matrix: (Units=1/GPa)
#
#
# Indices 1 2 3 4 5 6 
#
# 1 0.014388 -0.003289 -0.001823 0.000000 -0.004850 0.000000
# 2 -0.003289 0.012831 -0.004213 0.000000 0.000803 0.000000
# 3 -0.001823 -0.004213 0.039895 0.000000 -0.025183 0.000000
# 4 0.000000 0.000000 0.000000 0.033885 0.000000 -0.007575
# 5 -0.004850 0.000803 -0.025183 0.000000 0.040747 0.000000
# 6 0.000000 0.000000 0.000000 -0.007575 0.000000 0.024407
#
#
# Mechanical properties :
#
#
# Convention : Reuss Voigt Hill
#
# Bulk Modulus (GPa) = 20.63426 40.18452 30.40939
# Shear Modulus (GPa) = 24.88094 34.95270 29.91682
#
# Velocity S-wave (km/s) = 3.11313 3.68981 3.41367
# Velocity P-wave (km/s) = 4.57816 5.81426 5.23284
#
# Compressibility (1/GPa) = 0.04846309
#
# Stress axis : x y z
#
# Youngs Moduli (GPa) = 69.50217 77.93881 25.06592
#
# Poissons Ratio (x) = 0.25633 0.04570
# Poissons Ratio (y) = 0.22858 0.10561
# Poissons Ratio (z) = 0.12671 0.32837
#
# Static dielectric constant tensor:
#      x y z
#    x 2.048050 0.000000 -0.004840 
#    y 0.000000 2.072520 0.000000 
#    z -0.004840 0.000000 2.084830 
# 
# From -- ./inp_files/315103.got.cif
#   From: 2010.05.17/outbox.cif.g08.bks.cpg/sg15_158_cif.got.tgz:315103.got - 2010.06.03 18:47:42.
