data_PCOD9276628
_publ_section_title
;
Structure prediction by ZEFSAII (Michael W. Deem and Ramdas Pophale) SiO2 
 PCOD9276628
Probable space group: C 2/C
;
_chemical_formula_sum "Si O2"
_cell_formula_units_Z 32
_cell_length_a 30.934357
_cell_length_b 7.307982
_cell_length_c 5.746188
_cell_angle_alpha 90.000000
_cell_angle_beta 68.116061
_cell_angle_gamma 90.000000
_cell_volume 1205.420715
_symmetry_space_group_name_H-M "C 2/C"
_symmetry_group_IT_number 15
_symmetry_cell_setting 'monoclinic'
loop_
_space_group_symop_operation_xyz
x,y,z
-x,y,1/2-z
-x,-y,-z
x,-y,1/2+z
1/2+x,1/2+y,z
1/2-x,1/2+y,1/2-z
1/2-x,1/2-y,-z
1/2+x,1/2-y,1/2+z
loop_
_atom_site_type_symbol
_atom_site_label
_atom_site_fract_x
_atom_site_fract_y
_atom_site_fract_z
Si Si1 0.054443 0.774751 0.115699
Si Si2 0.587613 0.306718 0.548113
Si Si3 0.313387 0.274147 0.964347
Si Si4 0.222609 0.368434 0.366941
O O1 0.078130 0.717667 0.314625
O O2 0.000000 0.735123 0.250000
O O3 0.062995 0.995027 0.088436
O O4 0.071185 0.712044 0.823932
O O5 0.642427 0.334335 0.481806
O O6 0.267249 0.390829 0.105907
O O7 0.302901 0.060106 0.044700
O O8 0.316050 0.259353 0.680635
O O9 0.250000 0.250000 0.500000
#
# Coordination Sequence:
#
# PCOD9276628 Si02
#       4
#     8   8   8   8
#     4  10  20  40  64 101 139 176 221 282 346 410
#     4  10  21  35  65  98 134 172 228 283 325 405
#     4  11  25  41  66  96 131 185 228 282 335 395
#     4  11  24  45  64  89 137 181 226 277 336 398
#
# _framework density 26.546748000000001
#
# number of rings (size 3 to 8) (size 9 to 14) (size 15 to 20)
#    0.000    1.500    2.500    3.750    3.500    8.000 
#    0.000    0.000    0.000    0.000    0.000   29.750 
#    0.000    0.000    0.000    0.000    0.000    0.250 
#
# Total GULP energy -89311.113463 kJ/mol
# GULP energy per Si atom -5581.944591 kJ/mol
# Density = 2.648633 g / cm^3
# Si number density = 26.546748 Si / 1000 Ang^3
#
#
#
# Elastic Constant Matrix: (Units=GPa)
#
#
# Indices 1 2 3 4 5 6 
#
# 1 158.8360 1.2992 36.6435 0.0000 14.4531 0.0000
# 2 1.2992 103.6144 8.9772 0.0000 13.5258 0.0000
# 3 36.6435 8.9772 114.0078 0.0000 28.1298 0.0000
# 4 0.0000 0.0000 0.0000 8.0763 0.0000 -5.1171
# 5 14.4531 13.5258 28.1298 0.0000 57.0712 0.0000
# 6 0.0000 0.0000 0.0000 -5.1171 0.0000 54.3191
#
#
#
# Elastic Compliance Matrix: (Units=1/GPa)
#
#
# Indices 1 2 3 4 5 6 
#
# 1 0.006831 0.000191 -0.002018 0.000000 -0.000781 0.000000
# 2 0.000191 0.009970 -0.000286 0.000000 -0.002270 0.000000
# 3 -0.002018 -0.000286 0.010587 0.000000 -0.004639 0.000000
# 4 0.000000 0.000000 0.000000 0.131679 0.000000 0.012405
# 5 -0.000781 -0.002270 -0.004639 0.000000 0.020544 0.000000
# 6 0.000000 0.000000 0.000000 0.012405 0.000000 0.019578
#
#
# Mechanical properties :
#
#
# Convention : Reuss Voigt Hill
#
# Bulk Modulus (GPa) = 43.17525 52.25536 47.71530
# Shear Modulus (GPa) = 23.68140 45.86254 34.77197
#
# Velocity S-wave (km/s) = 2.98998 4.16097 3.62310
# Velocity P-wave (km/s) = 5.31217 6.54308 5.95949
#
# Compressibility (1/GPa) = 0.02316142
#
# Stress axis : x y z
#
# Youngs Moduli (GPa) = 146.39556 100.30176 94.45372
#
# Poissons Ratio (x) = -0.01917 0.19060
# Poissons Ratio (y) = -0.02797 0.02705
# Poissons Ratio (z) = 0.29542 0.02872
#
# Static dielectric constant tensor:
#      x y z
#    x 2.309380 0.000000 0.467400 
#    y 0.000000 2.123300 0.000000 
#    z 0.467400 0.000000 2.705630 
# 
# From -- ./inp_files/7034.got.cif
#   From: 2010.05.17/outbox.cif.g08.bks.cpg/sg15_4_cif.got.tgz:7034.got - 2010.06.03 18:47:42.
