data_PCOD9276323
_publ_section_title
;
Structure prediction by ZEFSAII (Michael W. Deem and Ramdas Pophale) SiO2 
 PCOD9276323
Probable space group: C 2/C
;
_chemical_formula_sum "Si O2"
_cell_formula_units_Z 64
_cell_length_a 20.293946
_cell_length_b 18.720696
_cell_length_c 17.261918
_cell_angle_alpha 90.000000
_cell_angle_beta 148.137701
_cell_angle_gamma 90.000000
_cell_volume 3461.883210
_symmetry_space_group_name_H-M "C 2/C"
_symmetry_group_IT_number 15
_symmetry_cell_setting 'monoclinic'
loop_
_space_group_symop_operation_xyz
x,y,z
-x,y,1/2-z
-x,-y,-z
x,-y,1/2+z
1/2+x,1/2+y,z
1/2-x,1/2+y,1/2-z
1/2-x,1/2-y,-z
1/2+x,1/2-y,1/2+z
loop_
_atom_site_type_symbol
_atom_site_label
_atom_site_fract_x
_atom_site_fract_y
_atom_site_fract_z
Si Si1 0.400178 0.172606 0.448849
Si Si2 0.853988 0.312072 0.083514
Si Si3 0.561290 0.663670 0.510704
Si Si4 0.553551 0.560504 0.880668
Si Si5 0.101169 0.438725 0.114781
Si Si6 0.340644 0.540009 0.782085
Si Si7 0.275987 0.425127 0.437868
Si Si8 0.664935 0.611285 0.143281
O O1 0.360411 0.166396 0.499273
O O2 0.397375 0.256709 0.432606
O O3 0.532966 0.136112 0.563657
O O4 0.305890 0.132418 0.297991
O O5 0.808074 0.381462 0.085680
O O6 0.000000 0.292348 0.250000
O O7 0.750000 0.250000 0.000000
O O8 0.607485 0.609087 0.622132
O O9 0.621078 0.631012 0.493042
O O10 0.413376 0.659775 0.374831
O O11 0.500000 0.595756 0.750000
O O12 0.428576 0.529766 0.796838
O O13 0.647927 0.494756 0.958673
O O14 0.619850 0.611817 0.009627
O O15 0.193655 0.444340 0.133352
O O16 0.187940 0.448666 0.277719
O O17 0.000000 0.500000 0.000000
O O18 0.357253 0.469467 0.850230
#
# Coordination Sequence:
#
# PCOD9276323 Si02
#       8
#     8   8   8   8   8   8   8   8
#     4  12  25  37  62  91 127 182 206 247 321 380
#     4  12  27  40  55  90 145 179 210 250 310 389
#     4  10  21  36  61  85 125 159 213 256 299 369
#     4  11  22  39  66  92 118 154 210 271 325 367
#     4  11  21  37  59  81 122 162 211 261 299 363
#     4  10  20  40  60  87 120 157 208 270 298 370
#     4  11  21  38  56  87 127 166 204 252 306 373
#     4  11  21  40  63  91 120 160 222 260 306 379
#
# _framework density 18.487047
#
# number of rings (size 3 to 8) (size 9 to 14) (size 15 to 20)
#    0.000    1.000    7.500    0.750    7.000    0.500 
#    0.000    0.000    0.000    3.000    0.000    0.000 
#    0.000    0.000    0.000    0.000    0.000    0.000 
#
# Total GULP energy -178291.123846 kJ/mol
# GULP energy per Si atom -5571.597620 kJ/mol
# Density = 1.844497 g / cm^3
# Si number density = 18.487047 Si / 1000 Ang^3
#
#
#
# Elastic Constant Matrix: (Units=GPa)
#
#
# Indices 1 2 3 4 5 6 
#
# 1 63.4768 19.5391 43.6631 0.0001 5.3330 0.0000
# 2 19.5391 61.9973 12.8338 0.0001 -4.5527 0.0001
# 3 43.6631 12.8338 90.6329 0.0002 2.4940 0.0001
# 4 0.0001 0.0001 0.0002 25.0170 0.0001 12.4933
# 5 5.3330 -4.5527 2.4940 0.0001 35.3638 0.0001
# 6 0.0000 0.0001 0.0001 12.4933 0.0001 31.8895
#
#
#
# Elastic Compliance Matrix: (Units=1/GPa)
#
#
# Indices 1 2 3 4 5 6 
#
# 1 0.025842 -0.006051 -0.011486 0.000000 -0.003866 0.000000
# 2 -0.006051 0.018224 0.000245 0.000000 0.003241 0.000000
# 3 -0.011486 0.000245 0.016516 0.000000 0.000599 0.000000
# 4 0.000000 0.000000 0.000000 0.049696 0.000000 -0.019469
# 5 -0.003866 0.003241 0.000599 0.000000 0.029236 0.000000
# 6 0.000000 0.000000 0.000000 -0.019469 0.000000 0.038986
#
#
# Mechanical properties :
#
#
# Convention : Reuss Voigt Hill
#
# Bulk Modulus (GPa) = 38.46404 40.90878 39.68641
# Shear Modulus (GPa) = 22.54805 27.79213 25.17009
#
# Velocity S-wave (km/s) = 3.49616 3.88149 3.69385
# Velocity P-wave (km/s) = 6.09497 6.50110 6.30131
#
# Compressibility (1/GPa) = 0.02599831
#
# Stress axis : x y z
#
# Youngs Moduli (GPa) = 38.69657 54.87306 60.54727
#
# Poissons Ratio (x) = 0.33201 0.69547
# Poissons Ratio (y) = 0.23413 -0.01484
# Poissons Ratio (z) = 0.44449 -0.01345
#
# Static dielectric constant tensor:
#      x y z
#    x 1.735230 0.000000 0.047590 
#    y 0.000000 1.631440 0.000000 
#    z 0.047590 0.000000 1.702240 
# 
# From -- ./inp_files/216170.got.cif
#   From: 2010.05.17/outbox.cif.g08.bks.cpg/sg15_109_cif.got.tgz:216170.got - 2010.06.03 18:47:42.
