data_PCOD9276785
_publ_section_title
;
Structure prediction by ZEFSAII (Michael W. Deem and Ramdas Pophale) SiO2 
 PCOD9276785
Probable space group: C 2/C
;
_chemical_formula_sum "Si O2"
_cell_formula_units_Z 56
_cell_length_a 11.397113
_cell_length_b 8.445534
_cell_length_c 27.559143
_cell_angle_alpha 90.000000
_cell_angle_beta 117.240675
_cell_angle_gamma 90.000000
_cell_volume 2358.490920
_symmetry_space_group_name_H-M "C 2/C"
_symmetry_group_IT_number 15
_symmetry_cell_setting 'monoclinic'
loop_
_space_group_symop_operation_xyz
x,y,z
-x,y,1/2-z
-x,-y,-z
x,-y,1/2+z
1/2+x,1/2+y,z
1/2-x,1/2+y,1/2-z
1/2-x,1/2-y,-z
1/2+x,1/2-y,1/2+z
loop_
_atom_site_type_symbol
_atom_site_label
_atom_site_fract_x
_atom_site_fract_y
_atom_site_fract_z
Si Si1 0.362076 0.981345 0.110519
Si Si2 0.507556 0.134365 0.541891
Si Si3 0.043088 0.237568 0.631797
Si Si4 0.763130 0.489960 0.360395
Si Si5 0.500347 0.680072 0.330971
Si Si6 0.873303 0.927074 0.256111
Si Si7 0.938963 0.950785 0.922960
O O1 0.405980 0.918907 0.065291
O O2 0.433997 0.852082 0.158767
O O3 0.427529 0.152424 0.130169
O O4 0.207078 0.997980 0.088950
O O5 0.490942 0.322690 0.528615
O O6 0.500000 0.000000 0.500000
O O7 0.659963 0.120891 0.588418
O O8 0.143526 0.357948 0.625832
O O9 0.121821 0.155443 0.690990
O O10 0.993257 0.112241 0.582608
O O11 0.621484 0.554057 0.349324
O O12 0.747537 0.415825 0.303626
O O13 0.398289 0.614511 0.271925
O O14 0.439425 0.647537 0.372140
O O15 0.000000 0.866162 0.250000
#
# Coordination Sequence:
#
# PCOD9276785 Si02
#       7
#     8   8   8   8   8   8   8
#     4  10  21  40  65  92 127 161 207 258 308 380
#     4  10  24  43  64  91 122 166 215 269 322 368
#     4  10  21  37  62  95 124 163 207 248 310 378
#     4  10  20  40  65  83 131 166 203 264 308 374
#     4   9  19  39  60  90 126 158 201 244 311 376
#     4   9  20  35  57  90 127 165 201 241 308 376
#     4  10  21  38  67  87 125 162 204 258 311 372
#
# _framework density 23.743998000000001
#
# number of rings (size 3 to 8) (size 9 to 14) (size 15 to 20)
#    0.000    2.286    1.429    0.000    6.000    5.143 
#    0.000    7.857    0.000    0.000    0.000    0.000 
#    0.000    0.000    0.000    0.000    0.000    0.000 
#
# Total GULP energy -156228.269236 kJ/mol
# GULP energy per Si atom -5579.581044 kJ/mol
# Density = 2.368996 g / cm^3
# Si number density = 23.743998 Si / 1000 Ang^3
#
#
#
# Elastic Constant Matrix: (Units=GPa)
#
#
# Indices 1 2 3 4 5 6 
#
# 1 79.2700 15.5253 7.1329 0.0000 -1.0835 0.0000
# 2 15.5253 91.5819 1.9722 0.0000 6.6450 0.0000
# 3 7.1329 1.9722 57.1335 0.0000 0.3089 0.0000
# 4 0.0000 0.0000 0.0000 31.6689 0.0000 -0.9138
# 5 -1.0835 6.6450 0.3089 0.0000 21.0469 0.0000
# 6 0.0000 0.0000 0.0000 -0.9138 0.0000 37.1402
#
#
#
# Elastic Compliance Matrix: (Units=1/GPa)
#
#
# Indices 1 2 3 4 5 6 
#
# 1 0.013230 -0.002313 -0.001580 0.000000 0.001435 0.000000
# 2 -0.002313 0.011587 -0.000091 0.000000 -0.003776 0.000000
# 3 -0.001580 -0.000091 0.017705 0.000000 -0.000312 0.000000
# 4 0.000000 0.000000 0.000000 0.031599 0.000000 0.000777
# 5 0.001435 -0.003776 -0.000312 0.000000 0.048784 0.000000
# 6 0.000000 0.000000 0.000000 0.000777 0.000000 0.026944
#
#
# Mechanical properties :
#
#
# Convention : Reuss Voigt Hill
#
# Bulk Modulus (GPa) = 28.93903 30.80513 29.87208
# Shear Modulus (GPa) = 29.52747 31.52818 30.52783
#
# Velocity S-wave (km/s) = 3.53026 3.64790 3.58957
# Velocity P-wave (km/s) = 5.36949 5.54481 5.45786
#
# Compressibility (1/GPa) = 0.03455541
#
# Stress axis : x y z
#
# Youngs Moduli (GPa) = 75.58669 86.30203 56.48154
#
# Poissons Ratio (x) = 0.19960 0.08922
# Poissons Ratio (y) = 0.17482 0.00513
# Poissons Ratio (z) = 0.11940 0.00784
#
# Static dielectric constant tensor:
#      x y z
#    x 1.907540 0.000000 -0.004200 
#    y 0.000000 2.012690 0.000000 
#    z -0.004200 0.000000 1.977020 
# 
# From -- ./inp_files/310050.got.cif
#   From: 2010.05.17/outbox.cif.g08.bks.cpg/sg15_156_cif.got.tgz:310050.got - 2010.06.03 18:47:42.
