data_PCOD9276687
_publ_section_title
;
Structure prediction by ZEFSAII (Michael W. Deem and Ramdas Pophale) SiO2 
 PCOD9276687
Probable space group: C 2/C
;
_chemical_formula_sum "Si O2"
_cell_formula_units_Z 44
_cell_length_a 23.098173
_cell_length_b 6.295559
_cell_length_c 16.901235
_cell_angle_alpha 90.000000
_cell_angle_beta 128.415872
_cell_angle_gamma 90.000000
_cell_volume 1925.667088
_symmetry_space_group_name_H-M "C 2/C"
_symmetry_group_IT_number 15
_symmetry_cell_setting 'monoclinic'
loop_
_space_group_symop_operation_xyz
x,y,z
-x,y,1/2-z
-x,-y,-z
x,-y,1/2+z
1/2+x,1/2+y,z
1/2-x,1/2+y,1/2-z
1/2-x,1/2-y,-z
1/2+x,1/2-y,1/2+z
loop_
_atom_site_type_symbol
_atom_site_label
_atom_site_fract_x
_atom_site_fract_y
_atom_site_fract_z
Si Si1 0.173875 0.784165 0.239430
Si Si2 0.592114 0.715940 0.429190
Si Si3 0.412704 0.034323 0.936142
Si Si4 0.318677 0.580512 0.405026
Si Si5 0.027305 0.094150 0.686142
Si Si6 0.500000 0.995417 0.250000
O O1 0.132362 0.571602 0.173952
O O2 0.245700 0.722069 0.349542
O O3 0.112125 0.914020 0.235315
O O4 0.195098 0.916527 0.178965
O O5 0.610284 0.894244 0.508082
O O6 0.656443 0.541234 0.493980
O O7 0.520892 0.579551 0.401111
O O8 0.569503 0.847261 0.331666
O O9 0.385258 0.269569 0.931372
O O10 0.500000 0.000000 0.000000
O O11 0.000000 0.029979 0.750000
O O12 0.009304 0.346460 0.682507
#
# Coordination Sequence:
#
# PCOD9276687 Si02
#       6
#     8   8   8   8   8   4
#     4  11  22  42  62  97 133 166 210 267 329 383
#     4  11  21  39  64  93 126 164 222 262 316 381
#     4  11  22  37  66  97 124 167 213 272 325 381
#     4  11  23  39  64  97 134 165 207 271 332 382
#     4  10  23  41  67  89 125 171 218 262 308 384
#     4  10  20  40  64  90 126 170 222 266 306 378
#
# _framework density 22.849224
#
# number of rings (size 3 to 8) (size 9 to 14) (size 15 to 20)
#    0.545    0.727    2.727    4.364    0.000    2.909 
#    0.000    1.818    0.000    0.000    0.000    0.000 
#    0.000    0.000    0.000    0.000    0.000    0.000 
#
# Total GULP energy -122482.129588 kJ/mol
# GULP energy per Si atom -5567.369527 kJ/mol
# Density = 2.279722 g / cm^3
# Si number density = 22.849224 Si / 1000 Ang^3
#
#
#
# Elastic Constant Matrix: (Units=GPa)
#
#
# Indices 1 2 3 4 5 6 
#
# 1 31.3845 -10.5673 -3.1706 0.0000 12.4900 0.0000
# 2 -10.5673 86.2056 24.7607 0.0000 5.6479 -0.0001
# 3 -3.1706 24.7607 59.4584 0.0000 16.0878 0.0000
# 4 0.0000 0.0000 0.0000 27.8442 0.0000 13.4749
# 5 12.4900 5.6479 16.0878 0.0000 31.5992 0.0000
# 6 0.0000 -0.0001 0.0000 13.4749 0.0000 50.7176
#
#
#
# Elastic Compliance Matrix: (Units=1/GPa)
#
#
# Indices 1 2 3 4 5 6 
#
# 1 0.042245 0.004863 0.005777 0.000000 -0.020508 0.000000
# 2 0.004863 0.013743 -0.004963 0.000000 -0.001852 0.000000
# 3 0.005777 -0.004963 0.022698 0.000000 -0.012952 0.000000
# 4 0.000000 0.000000 0.000000 0.041213 0.000000 -0.010950
# 5 -0.020508 -0.001852 -0.012952 0.000000 0.046678 0.000000
# 6 0.000000 0.000000 0.000000 -0.010950 0.000000 0.022626
#
#
# Mechanical properties :
#
#
# Convention : Reuss Voigt Hill
#
# Bulk Modulus (GPa) = 11.10622 22.12156 16.61389
# Shear Modulus (GPa) = 24.05434 33.10058 28.57746
#
# Velocity S-wave (km/s) = 3.24812 3.81025 3.54036
# Velocity P-wave (km/s) = 4.35181 5.39072 4.89888
#
# Compressibility (1/GPa) = 0.09003961
#
# Stress axis : x y z
#
# Youngs Moduli (GPa) = 23.67126 72.76405 44.05740
#
# Poissons Ratio (x) = -0.35385 -0.25450
# Poissons Ratio (y) = -0.11511 0.21864
# Poissons Ratio (z) = -0.13674 0.36111
#
# Static dielectric constant tensor:
#      x y z
#    x 1.916750 0.000000 -0.371410 
#    y 0.000000 1.901320 0.000000 
#    z -0.371410 0.000000 3.593280 
# 
# From -- ./inp_files/221402.got.cif
#   From: 2010.05.17/outbox.cif.g08.bks.cpg/sg15_111_cif.got.tgz:221402.got - 2010.06.03 18:47:42.
