data_PCOD9276608
_publ_section_title
;
Structure prediction by ZEFSAII (Michael W. Deem and Ramdas Pophale) SiO2 
 PCOD9276608
Probable space group: C 2/C
;
_chemical_formula_sum "Si O2"
_cell_formula_units_Z 56
_cell_length_a 13.175502
_cell_length_b 19.029498
_cell_length_c 18.740487
_cell_angle_alpha 90.000000
_cell_angle_beta 33.902465
_cell_angle_gamma 90.000000
_cell_volume 2620.830595
_symmetry_space_group_name_H-M "C 2/C"
_symmetry_group_IT_number 15
_symmetry_cell_setting 'monoclinic'
loop_
_space_group_symop_operation_xyz
x,y,z
-x,y,1/2-z
-x,-y,-z
x,-y,1/2+z
1/2+x,1/2+y,z
1/2-x,1/2+y,1/2-z
1/2-x,1/2-y,-z
1/2+x,1/2-y,1/2+z
loop_
_atom_site_type_symbol
_atom_site_label
_atom_site_fract_x
_atom_site_fract_y
_atom_site_fract_z
Si Si1 0.333333 0.910602 0.805222
Si Si2 0.501275 0.321153 0.557600
Si Si3 0.808888 0.290997 0.656371
Si Si4 0.111265 0.070366 0.614846
Si Si5 0.127793 0.971241 0.488426
Si Si6 0.518953 0.063604 0.432663
Si Si7 0.550216 0.722895 0.636263
O O1 0.500000 0.874172 0.750000
O O2 0.166095 0.856687 0.890423
O O3 0.369131 0.944157 0.706441
O O4 0.297566 0.977624 0.876828
O O5 0.399100 0.296846 0.691102
O O6 0.616067 0.262345 0.448055
O O7 0.634288 0.388292 0.488367
O O8 0.885510 0.367614 0.589878
O O9 0.914280 0.266840 0.666786
O O10 0.318601 0.079633 0.518839
O O11 0.047086 0.141322 0.613841
O O12 0.000000 0.066282 0.750000
O O13 0.060505 0.000906 0.602091
O O14 0.000000 0.000000 0.500000
O O15 0.500000 0.000000 0.500000
O O16 0.500000 0.722916 0.750000
O O17 0.750000 0.750000 0.500000
#
# Coordination Sequence:
#
# PCOD9276608 Si02
#       7
#     8   8   8   8   8   8   8
#     4  10  20  40  63  94 126 164 210 259 313 378
#     4  10  24  38  63  90 129 167 211 254 319 375
#     4  11  23  39  59  90 128 169 205 255 319 383
#     4  11  24  38  61  93 131 165 206 254 320 377
#     4  10  21  40  63  90 125 169 211 258 306 373
#     4  11  25  40  60  93 131 167 208 260 321 382
#     4  11  21  35  55  89 128 160 193 245 317 391
#
# _framework density 21.367270999999999
#
# number of rings (size 3 to 8) (size 9 to 14) (size 15 to 20)
#    0.000    1.429    2.857    2.571    8.000    4.571 
#    0.000    0.000    0.000    0.857    0.000    0.000 
#    0.000    0.000    0.000    0.000    0.000    0.000 
#
# Total GULP energy -156004.506199 kJ/mol
# GULP energy per Si atom -5571.589507 kJ/mol
# Density = 2.131864 g / cm^3
# Si number density = 21.367271 Si / 1000 Ang^3
#
#
#
# Elastic Constant Matrix: (Units=GPa)
#
#
# Indices 1 2 3 4 5 6 
#
# 1 3.5645 4.8852 2.3036 0.0015 4.8986 -0.0076
# 2 4.8852 160.1315 55.1203 0.0067 23.2974 -0.0059
# 3 2.3036 55.1203 117.5848 0.0065 19.5845 -0.0145
# 4 0.0015 0.0067 0.0065 43.3055 -0.0027 -1.8351
# 5 4.8986 23.2974 19.5845 -0.0027 26.3019 0.0093
# 6 -0.0076 -0.0059 -0.0145 -1.8351 0.0093 79.1851
#
#
#
# Elastic Compliance Matrix: (Units=1/GPa)
#
#
# Indices 1 2 3 4 5 6 
#
# 1 0.380798 -0.003149 0.006123 -0.000016 -0.072692 0.000046
# 2 -0.003149 0.007985 -0.002969 -0.000001 -0.004275 0.000000
# 3 0.006123 -0.002969 0.010877 -0.000002 -0.006610 0.000003
# 4 -0.000016 -0.000001 -0.000002 0.023114 0.000007 0.000536
# 5 -0.072692 -0.004275 -0.006610 0.000007 0.060267 -0.000015
# 6 0.000046 0.000000 0.000003 0.000536 -0.000015 0.012641
#
#
# Mechanical properties :
#
#
# Convention : Reuss Voigt Hill
#
# Bulk Modulus (GPa) = 2.50206 45.09991 23.80098
# Shear Modulus (GPa) = 7.95043 44.35662 26.15352
#
# Velocity S-wave (km/s) = 1.93104 4.56116 3.50237
# Velocity P-wave (km/s) = 2.47899 6.99226 5.24582
#
# Compressibility (1/GPa) = 0.39967041
#
# Stress axis : x y z
#
# Youngs Moduli (GPa) = 2.62606 125.23360 91.93394
#
# Poissons Ratio (x) = 0.39436 -0.56294
# Poissons Ratio (y) = 0.00827 0.27299
# Poissons Ratio (z) = -0.01608 0.37187
#
# Static dielectric constant tensor:
#      x y z
#    x 1.327790 -0.000010 0.424610 
#    y -0.000010 1.840070 0.000010 
#    z 0.424610 0.000010 1.470810 
# 
# From -- ./inp_files/206252.got.cif
#   From: 2010.05.17/outbox.cif.g08.bks.cpg/sg15_104_cif.got.tgz:206252.got - 2010.06.03 18:47:42.
