data_PCOD9276494
_publ_section_title
;
Structure prediction by ZEFSAII (Michael W. Deem and Ramdas Pophale) SiO2 
 PCOD9276494
Probable space group: C 2/C
;
_chemical_formula_sum "Si O2"
_cell_formula_units_Z 32
_cell_length_a 9.835754
_cell_length_b 11.694833
_cell_length_c 26.341626
_cell_angle_alpha 90.000000
_cell_angle_beta 153.095457
_cell_angle_gamma 90.000000
_cell_volume 1371.096576
_symmetry_space_group_name_H-M "C 2/C"
_symmetry_group_IT_number 15
_symmetry_cell_setting 'monoclinic'
loop_
_space_group_symop_operation_xyz
x,y,z
-x,y,1/2-z
-x,-y,-z
x,-y,1/2+z
1/2+x,1/2+y,z
1/2-x,1/2+y,1/2-z
1/2-x,1/2-y,-z
1/2+x,1/2-y,1/2+z
loop_
_atom_site_type_symbol
_atom_site_label
_atom_site_fract_x
_atom_site_fract_y
_atom_site_fract_z
Si Si1 0.089135 0.821513 0.522893
Si Si2 0.807130 0.098052 0.550611
Si Si3 0.072944 0.715752 0.720425
Si Si4 0.521211 0.349319 0.906083
O O1 0.259072 0.870724 0.530385
O O2 0.122681 0.684317 0.525145
O O3 0.735598 0.848359 0.396947
O O4 0.167822 0.865632 0.604985
O O5 0.150777 0.132705 0.677629
O O6 0.801508 0.962588 0.551057
O O7 0.000000 0.775449 0.750000
O O8 0.146022 0.800077 0.698662
O O9 0.750000 0.250000 0.000000
#
# Coordination Sequence:
#
# PCOD9276494 Si02
#       4
#     8   8   8   8
#     4   9  20  40  63  90 119 167 213 251 321 378
#     4  10  20  40  62  91 126 164 206 271 315 368
#     4   9  20  40  54  88 126 155 204 260 313 375
#     4  10  21  39  62  93 119 168 214 256 319 389
#
# _framework density 23.338982999999999
#
# number of rings (size 3 to 8) (size 9 to 14) (size 15 to 20)
#    0.000    2.500    0.000    0.750    0.000    5.000 
#   45.000    0.000    0.000    0.000    0.000    0.000 
#    0.000    0.000    0.000    0.000    0.000    0.000 
#
# Total GULP energy -89255.405833 kJ/mol
# GULP energy per Si atom -5578.462865 kJ/mol
# Density = 2.328586 g / cm^3
# Si number density = 23.338983 Si / 1000 Ang^3
#
#
#
# Elastic Constant Matrix: (Units=GPa)
#
#
# Indices 1 2 3 4 5 6 
#
# 1 84.2315 13.5589 35.7397 0.0003 -27.8451 -0.0001
# 2 13.5589 143.8477 17.4372 0.0007 -3.9870 0.0000
# 3 35.7397 17.4372 77.4770 0.0020 -17.1482 0.0007
# 4 0.0003 0.0007 0.0020 22.5426 0.0000 5.4989
# 5 -27.8451 -3.9870 -17.1482 0.0000 52.6818 -0.0001
# 6 -0.0001 0.0000 0.0007 5.4989 -0.0001 24.3864
#
#
#
# Elastic Compliance Matrix: (Units=1/GPa)
#
#
# Indices 1 2 3 4 5 6 
#
# 1 0.016834 -0.000657 -0.006099 0.000000 0.006863 0.000000
# 2 -0.000657 0.007172 -0.001366 0.000000 -0.000249 0.000000
# 3 -0.006099 -0.001366 0.016479 -0.000001 0.002037 0.000000
# 4 0.000000 0.000000 -0.000001 0.046943 0.000000 -0.010585
# 5 0.006863 -0.000249 0.002037 0.000000 0.023254 0.000000
# 6 0.000000 0.000000 0.000000 -0.010585 0.000000 0.043393
#
#
# Mechanical properties :
#
#
# Convention : Reuss Voigt Hill
#
# Bulk Modulus (GPa) = 41.25226 48.78087 45.01656
# Shear Modulus (GPa) = 28.02700 35.84352 31.93526
#
# Velocity S-wave (km/s) = 3.46911 3.92315 3.70310
# Velocity P-wave (km/s) = 5.81033 6.43956 6.13302
#
# Compressibility (1/GPa) = 0.02424110
#
# Stress axis : x y z
#
# Youngs Moduli (GPa) = 59.40277 139.42228 60.68450
#
# Poissons Ratio (x) = 0.09164 0.37009
# Poissons Ratio (y) = 0.03904 0.08291
# Poissons Ratio (z) = 0.36227 0.19048
#
# Static dielectric constant tensor:
#      x y z
#    x 2.009500 0.000000 -0.008150 
#    y 0.000000 1.895370 0.000000 
#    z -0.008150 0.000000 1.908820 
# 
# From -- ./inp_files/84271.got.cif
#   From: 2010.05.17/outbox.cif.g08.bks.cpg/sg15_43_cif.got.tgz:84271.got - 2010.06.03 18:47:42.
