data_PCOD9276971
_publ_section_title
;
Structure prediction by ZEFSAII (Michael W. Deem and Ramdas Pophale) SiO2 
 PCOD9276971
Probable space group: C 2/C
;
_chemical_formula_sum "Si O2"
_cell_formula_units_Z 56
_cell_length_a 8.862424
_cell_length_b 16.194350
_cell_length_c 28.289244
_cell_angle_alpha 90.000000
_cell_angle_beta 143.242804
_cell_angle_gamma 90.000000
_cell_volume 2429.669942
_symmetry_space_group_name_H-M "C 2/C"
_symmetry_group_IT_number 15
_symmetry_cell_setting 'monoclinic'
loop_
_space_group_symop_operation_xyz
x,y,z
-x,y,1/2-z
-x,-y,-z
x,-y,1/2+z
1/2+x,1/2+y,z
1/2-x,1/2+y,1/2-z
1/2-x,1/2-y,-z
1/2+x,1/2-y,1/2+z
loop_
_atom_site_type_symbol
_atom_site_label
_atom_site_fract_x
_atom_site_fract_y
_atom_site_fract_z
Si Si1 0.276179 0.951620 0.787025
Si Si2 0.243285 0.803340 0.044738
Si Si3 0.000000 0.355660 0.250000
Si Si4 0.207342 0.415011 0.127525
Si Si5 0.937726 0.785457 0.805257
Si Si6 0.126756 0.066791 0.066441
Si Si7 0.552530 0.468506 0.138605
Si Si8 0.500000 0.724000 0.750000
O O1 0.114350 0.868964 0.735782
O O2 0.572523 0.932200 0.858655
O O3 0.246002 0.004467 0.827718
O O4 0.204859 0.007503 0.724242
O O5 0.449550 0.875945 0.084668
O O6 0.308161 0.742342 0.104357
O O7 0.250000 0.750000 0.000000
O O8 0.975936 0.847153 0.978920
O O9 0.113149 0.293529 0.240066
O O10 0.240831 0.405060 0.331407
O O11 0.281850 0.439629 0.092174
O O12 0.399037 0.339796 0.185742
O O13 0.727981 0.781730 0.792971
O O14 0.032504 0.041764 0.095554
O O15 0.000000 0.000000 0.000000
#
# Coordination Sequence:
#
# PCOD9276971 Si02
#       8
#     8   8   4   8   8   8   8   4
#     4  12  24  44  72 109 134 187 249 291 348 426
#     4  11  25  46  67 101 145 187 230 287 366 424
#     4  12  22  42  64 108 136 172 242 302 348 394
#     4  11  22  43  69 101 139 180 237 301 346 421
#     4  11  26  41  69 103 138 179 236 299 344 416
#     4  12  25  44  69 104 146 190 235 292 357 434
#     4  12  23  41  73 101 136 193 244 289 353 433
#     4  10  20  40  66  96 136 170 224 290 350 396
#
# _framework density 23.048399
#
# number of rings (size 3 to 8) (size 9 to 14) (size 15 to 20)
#    0.000    0.571    5.714    2.571    8.000    0.571 
#    0.000    0.000    0.000    3.429    0.000    0.000 
#    0.000    0.000    0.000    0.000    0.000    0.000 
#
# Total GULP energy -156185.374027 kJ/mol
# GULP energy per Si atom -5578.049072 kJ/mol
# Density = 2.299594 g / cm^3
# Si number density = 23.048399 Si / 1000 Ang^3
#
#
#
# Elastic Constant Matrix: (Units=GPa)
#
#
# Indices 1 2 3 4 5 6 
#
# 1 80.1851 20.1844 9.9497 0.0001 -3.5910 0.0000
# 2 20.1844 117.3808 27.4439 0.0001 -2.8136 0.0000
# 3 9.9497 27.4439 68.7421 0.0003 -1.9756 0.0002
# 4 0.0001 0.0001 0.0003 38.6055 0.0001 -1.0212
# 5 -3.5910 -2.8136 -1.9756 0.0001 22.5740 0.0000
# 6 0.0000 0.0000 0.0002 -1.0212 0.0000 25.2486
#
#
#
# Elastic Compliance Matrix: (Units=1/GPa)
#
#
# Indices 1 2 3 4 5 6 
#
# 1 0.013179 -0.001974 -0.001069 0.000000 0.001757 0.000000
# 2 -0.001974 0.009708 -0.003573 0.000000 0.000583 0.000000
# 3 -0.001069 -0.003573 0.016151 0.000000 0.000798 0.000000
# 4 0.000000 0.000000 0.000000 0.025931 0.000000 0.001049
# 5 0.001757 0.000583 0.000798 0.000000 0.044721 0.000000
# 6 0.000000 0.000000 0.000000 0.001049 0.000000 0.039649
#
#
# Mechanical properties :
#
#
# Convention : Reuss Voigt Hill
#
# Bulk Modulus (GPa) = 38.75059 42.38489 40.56774
# Shear Modulus (GPa) = 29.21002 31.20093 30.20548
#
# Velocity S-wave (km/s) = 3.56383 3.68328 3.62404
# Velocity P-wave (km/s) = 5.81237 6.04302 5.92882
#
# Compressibility (1/GPa) = 0.02580606
#
# Stress axis : x y z
#
# Youngs Moduli (GPa) = 75.87582 103.00573 61.91436
#
# Poissons Ratio (x) = 0.20336 0.06618
# Poissons Ratio (y) = 0.14980 0.22124
# Poissons Ratio (z) = 0.08110 0.36807
#
# Static dielectric constant tensor:
#      x y z
#    x 1.981650 0.000000 -0.001870 
#    y 0.000000 1.914760 0.000000 
#    z -0.001870 0.000000 1.903770 
# 
# From -- ./inp_files/289800.got.cif
#   From: 2010.05.17/outbox.cif.g08.bks.cpg/sg15_145_cif.got.tgz:289800.got - 2010.06.03 18:47:42.
