data_PCOD9276772
_publ_section_title
;
Structure prediction by ZEFSAII (Michael W. Deem and Ramdas Pophale) SiO2 
 PCOD9276772
Probable space group: C 2/C
;
_chemical_formula_sum "Si O2"
_cell_formula_units_Z 44
_cell_length_a 7.413601
_cell_length_b 17.242393
_cell_length_c 15.561831
_cell_angle_alpha 90.000000
_cell_angle_beta 124.294455
_cell_angle_gamma 90.000000
_cell_volume 1643.417232
_symmetry_space_group_name_H-M "C 2/C"
_symmetry_group_IT_number 15
_symmetry_cell_setting 'monoclinic'
loop_
_space_group_symop_operation_xyz
x,y,z
-x,y,1/2-z
-x,-y,-z
x,-y,1/2+z
1/2+x,1/2+y,z
1/2-x,1/2+y,1/2-z
1/2-x,1/2-y,-z
1/2+x,1/2-y,1/2+z
loop_
_atom_site_type_symbol
_atom_site_label
_atom_site_fract_x
_atom_site_fract_y
_atom_site_fract_z
Si Si1 0.103393 0.382264 0.565555
Si Si2 0.546014 0.274970 0.008076
Si Si3 0.513752 0.566297 0.432971
Si Si4 0.188548 0.821943 0.239134
Si Si5 0.668614 0.993470 0.218145
Si Si6 0.000000 0.785689 0.750000
O O1 0.943241 0.310298 0.501788
O O2 0.231460 0.418183 0.519252
O O3 0.055293 0.452481 0.616393
O O4 0.299979 0.336811 0.666105
O O5 0.619936 0.313473 0.120100
O O6 0.750000 0.250000 0.000000
O O7 0.423592 0.349023 0.935007
O O8 0.500000 0.500000 0.500000
O O9 0.380724 0.535780 0.315419
O O10 0.403036 0.769632 0.297288
O O11 0.000000 0.791294 0.250000
O O12 0.249701 0.908333 0.285373
O O13 0.500000 0.982540 0.250000
#
# Coordination Sequence:
#
# PCOD9276772 Si02
#       6
#     8   8   8   8   8   4
#     4  10  21  41  66  91 131 176 219 275 332 407
#     4   9  21  39  68  96 133 174 218 283 359 393
#     4  11  20  39  67  93 128 176 218 277 346 391
#     4  11  22  39  69 100 131 180 234 278 337 413
#     4  12  24  41  67  99 133 181 234 276 333 416
#     4  10  20  40  64  98 130 168 224 284 328 386
#
# _framework density 26.773479999999999
#
# number of rings (size 3 to 8) (size 9 to 14) (size 15 to 20)
#    0.000    1.455    4.545    1.091    0.000    2.909 
#    0.000    1.818   16.000    0.000    0.000    0.000 
#    0.000    0.000    0.000    0.000    0.000    0.000 
#
# Total GULP energy -123099.621259 kJ/mol
# GULP energy per Si atom -5595.437330 kJ/mol
# Density = 2.671254 g / cm^3
# Si number density = 26.773480 Si / 1000 Ang^3
#
#
#
# Elastic Constant Matrix: (Units=GPa)
#
#
# Indices 1 2 3 4 5 6 
#
# 1 97.3744 36.2068 7.3280 0.0000 -14.7480 0.0000
# 2 36.2068 220.2526 63.4476 0.0000 -1.3256 0.0000
# 3 7.3280 63.4476 78.3838 0.0000 -6.4224 0.0000
# 4 0.0000 0.0000 0.0000 58.9459 0.0000 -6.1370
# 5 -14.7480 -1.3256 -6.4224 0.0000 38.1919 0.0000
# 6 0.0000 0.0000 0.0000 -6.1370 0.0000 45.6308
#
#
#
# Elastic Compliance Matrix: (Units=1/GPa)
#
#
# Indices 1 2 3 4 5 6 
#
# 1 0.011710 -0.002205 0.001069 0.000000 0.004625 0.000000
# 2 -0.002205 0.006350 -0.005055 0.000000 -0.001481 0.000000
# 3 0.001069 -0.005055 0.017003 0.000000 0.003097 0.000000
# 4 0.000000 0.000000 0.000000 0.017206 0.000000 0.002314
# 5 0.004625 -0.001481 0.003097 0.000000 0.028439 0.000000
# 6 0.000000 0.000000 0.000000 0.002314 0.000000 0.022226
#
#
# Mechanical properties :
#
#
# Convention : Reuss Voigt Hill
#
# Bulk Modulus (GPa) = 44.09032 67.77507 55.93270
# Shear Modulus (GPa) = 40.69127 47.82228 44.25677
#
# Velocity S-wave (km/s) = 3.90274 4.23091 4.07013
# Velocity P-wave (km/s) = 6.06730 7.01688 6.55930
#
# Compressibility (1/GPa) = 0.02268071
#
# Stress axis : x y z
#
# Youngs Moduli (GPa) = 85.40019 157.47881 58.81151
#
# Poissons Ratio (x) = 0.34725 -0.06288
# Poissons Ratio (y) = 0.18831 0.29731
# Poissons Ratio (z) = -0.09130 0.79610
#
# Static dielectric constant tensor:
#      x y z
#    x 2.106100 0.000000 -0.005490 
#    y 0.000000 2.131440 0.000000 
#    z -0.005490 0.000000 2.254380 
# 
# From -- ./inp_files/188969.got.cif
#   From: 2010.05.17/outbox.cif.g08.bks.cpg/sg15_95_cif.got.tgz:188969.got - 2010.06.03 18:47:42.
