data_PCOD9276951
_publ_section_title
;
Structure prediction by ZEFSAII (Michael W. Deem and Ramdas Pophale) SiO2 
 PCOD9276951
Probable space group: C 2/C
;
_chemical_formula_sum "Si O2"
_cell_formula_units_Z 40
_cell_length_a 21.086945
_cell_length_b 8.190807
_cell_length_c 11.158430
_cell_angle_alpha 90.000000
_cell_angle_beta 65.004144
_cell_angle_gamma 90.000000
_cell_volume 1746.762294
_symmetry_space_group_name_H-M "C 2/C"
_symmetry_group_IT_number 15
_symmetry_cell_setting 'monoclinic'
loop_
_space_group_symop_operation_xyz
x,y,z
-x,y,1/2-z
-x,-y,-z
x,-y,1/2+z
1/2+x,1/2+y,z
1/2-x,1/2+y,1/2-z
1/2-x,1/2-y,-z
1/2+x,1/2-y,1/2+z
loop_
_atom_site_type_symbol
_atom_site_label
_atom_site_fract_x
_atom_site_fract_y
_atom_site_fract_z
Si Si1 0.182230 0.869617 0.265382
Si Si2 0.924365 0.578754 0.577161
Si Si3 0.294021 0.956406 0.828772
Si Si4 0.343903 0.147251 0.980949
Si Si5 0.070699 0.119557 0.265625
O O1 0.209642 0.735955 0.150087
O O2 0.167300 0.755226 0.392466
O O3 0.240387 0.994092 0.266624
O O4 0.115625 0.964444 0.269358
O O5 0.872531 0.503753 0.720502
O O6 0.884545 0.518480 0.489507
O O7 0.936626 0.764826 0.610082
O O8 0.000000 0.500000 0.500000
O O9 0.280721 0.072286 0.953416
O O10 0.386616 0.268372 0.861434
O O11 0.000000 0.079023 0.250000
#
# Coordination Sequence:
#
# PCOD9276951 Si02
#       5
#     8   8   8   8   8
#     4  11  24  44  65 101 134 173 229 277 333 400
#     4  10  20  40  66  94 127 170 217 265 332 397
#     4  10  22  41  66  94 131 171 219 278 333 394
#     4  10  22  42  67  98 129 177 218 277 339 393
#     4  11  23  42  68  98 137 175 220 274 328 400
#
# _framework density 22.899508000000001
#
# number of rings (size 3 to 8) (size 9 to 14) (size 15 to 20)
#    0.000    1.600    2.000    3.000    0.000    4.000 
#    7.200    6.000    0.000    0.000    0.000    0.000 
#    0.000    0.000    0.000    0.000    0.000    0.000 
#
# Total GULP energy -111561.081061 kJ/mol
# GULP energy per Si atom -5578.054053 kJ/mol
# Density = 2.284739 g / cm^3
# Si number density = 22.899508 Si / 1000 Ang^3
#
#
#
# Elastic Constant Matrix: (Units=GPa)
#
#
# Indices 1 2 3 4 5 6 
#
# 1 138.0385 90.0606 27.8949 0.0000 23.7032 0.0000
# 2 90.0606 172.2635 38.8862 0.0000 22.6046 0.0000
# 3 27.8949 38.8862 76.1772 0.0000 17.3630 0.0000
# 4 0.0000 0.0000 0.0000 24.9103 0.0000 5.5780
# 5 23.7032 22.6046 17.3630 0.0000 30.6278 0.0000
# 6 0.0000 0.0000 0.0000 5.5780 0.0000 37.9618
#
#
#
# Elastic Compliance Matrix: (Units=1/GPa)
#
#
# Indices 1 2 3 4 5 6 
#
# 1 0.011660 -0.005366 -0.000432 0.000000 -0.004818 0.000000
# 2 -0.005366 0.009350 -0.002505 0.000000 -0.001328 0.000000
# 3 -0.000432 -0.002505 0.016154 0.000000 -0.006974 0.000000
# 4 0.000000 0.000000 0.000000 0.041510 0.000000 -0.006099
# 5 -0.004818 -0.001328 -0.006974 0.000000 0.041313 0.000000
# 6 0.000000 0.000000 0.000000 -0.006099 0.000000 0.027239
#
#
# Mechanical properties :
#
#
# Convention : Reuss Voigt Hill
#
# Bulk Modulus (GPa) = 48.64542 77.79585 63.22064
# Shear Modulus (GPa) = 29.29364 34.00916 31.65140
#
# Velocity S-wave (km/s) = 3.58051 3.85794 3.72181
# Velocity P-wave (km/s) = 6.19536 7.34108 6.79242
#
# Compressibility (1/GPa) = 0.02055692
#
# Stress axis : x y z
#
# Youngs Moduli (GPa) = 85.76219 106.94836 61.90365
#
# Poissons Ratio (x) = 0.57390 0.02676
# Poissons Ratio (y) = 0.46021 0.15510
# Poissons Ratio (z) = 0.03707 0.26795
#
# Static dielectric constant tensor:
#      x y z
#    x 1.860090 0.000000 0.026680 
#    y 0.000000 1.868290 0.000000 
#    z 0.026680 0.000000 1.980530 
# 
# From -- ./inp_files/109631.got.cif
#   From: 2010.05.17/outbox.cif.g08.bks.cpg/sg15_55_cif.got.tgz:109631.got - 2010.06.03 18:47:42.
