data_PCOD9276855
_publ_section_title
;
Structure prediction by ZEFSAII (Michael W. Deem and Ramdas Pophale) SiO2 
 PCOD9276855
Probable space group: C 2/C
;
_chemical_formula_sum "Si O2"
_cell_formula_units_Z 56
_cell_length_a 9.719661
_cell_length_b 29.195238
_cell_length_c 11.960122
_cell_angle_alpha 90.000000
_cell_angle_beta 48.912194
_cell_angle_gamma 90.000000
_cell_volume 2557.991834
_symmetry_space_group_name_H-M "C 2/C"
_symmetry_group_IT_number 15
_symmetry_cell_setting 'monoclinic'
loop_
_space_group_symop_operation_xyz
x,y,z
-x,y,1/2-z
-x,-y,-z
x,-y,1/2+z
1/2+x,1/2+y,z
1/2-x,1/2+y,1/2-z
1/2-x,1/2-y,-z
1/2+x,1/2-y,1/2+z
loop_
_atom_site_type_symbol
_atom_site_label
_atom_site_fract_x
_atom_site_fract_y
_atom_site_fract_z
Si Si1 0.636209 0.525891 0.571116
Si Si2 0.801389 0.362103 0.526109
Si Si3 0.342735 0.432216 0.073098
Si Si4 0.213419 0.783256 0.728534
Si Si5 0.000000 0.152609 0.750000
Si Si6 0.437258 0.267761 0.451741
Si Si7 0.352437 0.087722 0.597548
Si Si8 0.500000 0.202657 0.750000
O O1 0.500000 0.518389 0.750000
O O2 0.674431 0.479147 0.486530
O O3 0.531142 0.560793 0.542618
O O4 0.815122 0.547331 0.530319
O O5 0.681108 0.390816 0.501956
O O6 0.696690 0.328917 0.666282
O O7 0.938257 0.329227 0.383483
O O8 0.942419 0.394406 0.516871
O O9 0.191220 0.426653 0.251083
O O10 0.423570 0.773724 0.642959
O O11 0.162847 0.737557 0.687291
O O12 0.092973 0.780048 0.903200
O O13 0.000529 0.186657 0.644651
O O14 0.186782 0.123344 0.657160
O O15 0.250000 0.250000 0.500000
#
# Coordination Sequence:
#
# PCOD9276855 Si02
#       8
#     8   8   8   8   4   8   8   4
#     4   9  20  41  67  96 131 170 220 270 348 416
#     4  12  24  40  67  98 136 173 234 280 336 405
#     4  10  20  40  65  96 128 171 215 272 338 411
#     4  12  26  44  63  98 137 182 229 289 337 402
#     4  12  22  38  70  95 128 183 232 270 334 410
#     4  12  24  42  68  93 132 180 233 284 344 394
#     4  11  21  41  67  99 128 177 224 278 337 409
#     4  12  24  44  66  93 136 189 232 274 344 396
#
# _framework density 21.892171000000001
#
# number of rings (size 3 to 8) (size 9 to 14) (size 15 to 20)
#    0.000    0.857    6.429    2.143    0.000    0.571 
#    3.857    0.000    0.000    0.000    0.000    0.000 
#    0.000    0.000    0.000    0.000    0.000    0.000 
#
# Total GULP energy -156581.358065 kJ/mol
# GULP energy per Si atom -5592.191359 kJ/mol
# Density = 2.184234 g / cm^3
# Si number density = 21.892171 Si / 1000 Ang^3
#
#
#
# Elastic Constant Matrix: (Units=GPa)
#
#
# Indices 1 2 3 4 5 6 
#
# 1 91.0903 46.5815 28.3977 0.0000 9.3833 0.0000
# 2 46.5815 95.3475 36.3998 0.0000 18.3180 0.0000
# 3 28.3977 36.3998 82.5957 0.0000 17.0362 0.0000
# 4 0.0000 0.0000 0.0000 21.5695 0.0000 21.8039
# 5 9.3833 18.3180 17.0362 0.0000 32.0671 0.0000
# 6 0.0000 0.0000 0.0000 21.8039 0.0000 41.6395
#
#
#
# Elastic Compliance Matrix: (Units=1/GPa)
#
#
# Indices 1 2 3 4 5 6 
#
# 1 0.015004 -0.006530 -0.002409 0.000000 0.000619 0.000000
# 2 -0.006530 0.016137 -0.003773 0.000000 -0.005303 0.000000
# 3 -0.002409 -0.003773 0.015732 0.000000 -0.005498 0.000000
# 4 0.000000 0.000000 0.000000 0.098501 0.000000 -0.051579
# 5 0.000619 -0.005303 -0.005498 0.000000 0.036954 0.000000
# 6 0.000000 0.000000 0.000000 -0.051579 0.000000 0.051024
#
#
# Mechanical properties :
#
#
# Convention : Reuss Voigt Hill
#
# Bulk Modulus (GPa) = 46.61804 54.64349 50.63077
# Shear Modulus (GPa) = 18.80229 29.56553 24.18391
#
# Velocity S-wave (km/s) = 2.93381 3.67891 3.32728
# Velocity P-wave (km/s) = 5.72861 6.56204 6.15943
#
# Compressibility (1/GPa) = 0.02145092
#
# Stress axis : x y z
#
# Youngs Moduli (GPa) = 66.64697 61.96895 63.56466
#
# Poissons Ratio (x) = 0.40464 0.15312
# Poissons Ratio (y) = 0.43518 0.23981
# Poissons Ratio (z) = 0.16054 0.23379
#
# Static dielectric constant tensor:
#      x y z
#    x 1.881120 0.000000 -0.030050 
#    y 0.000000 1.828060 0.000000 
#    z -0.030050 0.000000 1.796480 
# 
# From -- ./inp_files/82536.got.cif
#   From: 2010.05.17/outbox.cif.g08.bks.cpg/sg15_42_cif.got.tgz:82536.got - 2010.06.03 18:47:42.
