data_PCOD9276829
_publ_section_title
;
Structure prediction by ZEFSAII (Michael W. Deem and Ramdas Pophale) SiO2 
 PCOD9276829
Probable space group: C 2/C
;
_chemical_formula_sum "Si O2"
_cell_formula_units_Z 64
_cell_length_a 15.758614
_cell_length_b 12.180392
_cell_length_c 18.553276
_cell_angle_alpha 90.000000
_cell_angle_beta 77.976687
_cell_angle_gamma 90.000000
_cell_volume 3483.105941
_symmetry_space_group_name_H-M "C 2/C"
_symmetry_group_IT_number 15
_symmetry_cell_setting 'monoclinic'
loop_
_space_group_symop_operation_xyz
x,y,z
-x,y,1/2-z
-x,-y,-z
x,-y,1/2+z
1/2+x,1/2+y,z
1/2-x,1/2+y,1/2-z
1/2-x,1/2-y,-z
1/2+x,1/2-y,1/2+z
loop_
_atom_site_type_symbol
_atom_site_label
_atom_site_fract_x
_atom_site_fract_y
_atom_site_fract_z
Si Si1 0.744685 0.546983 0.346243
Si Si2 0.673568 0.158364 0.425025
Si Si3 0.795869 0.994018 0.814155
Si Si4 0.458533 0.273162 0.145310
Si Si5 0.858713 0.761151 0.314504
Si Si6 0.951469 0.166533 0.331701
Si Si7 0.056223 0.014527 0.418079
Si Si8 0.820157 0.344337 0.408068
O O1 0.717107 0.521596 0.268903
O O2 0.791566 0.663641 0.339134
O O3 0.657829 0.540086 0.410103
O O4 0.808344 0.452071 0.362757
O O5 0.581815 0.196952 0.409581
O O6 0.736631 0.265525 0.409151
O O7 0.673861 0.127767 0.508736
O O8 0.716108 0.062212 0.370163
O O9 0.812871 0.120747 0.828840
O O10 0.880185 0.925540 0.823916
O O11 0.399657 0.254668 0.226811
O O12 0.558289 0.252555 0.147709
O O13 0.449761 0.399830 0.123708
O O14 0.901756 0.270321 0.372411
O O15 0.000000 0.196565 0.250000
O O16 0.015440 0.111067 0.377440
O O17 0.000000 0.000000 0.500000
#
# Coordination Sequence:
#
# PCOD9276829 Si02
#       8
#     8   8   8   8   8   8   8   8
#     4  12  24  41  62  96 130 167 213 265 323 386
#     4  10  20  40  65  92 124 172 203 263 319 390
#     4  11  21  37  64  93 127 164 217 260 322 371
#     4  11  20  40  64  93 126 168 217 251 324 384
#     4  11  23  39  64  97 125 164 216 271 309 388
#     4  11  21  39  62  97 124 164 214 272 309 375
#     4  12  24  39  66  97 129 164 215 273 322 375
#     4  10  23  38  63  96 130 158 212 259 329 379
#
# _framework density 18.374406
#
# number of rings (size 3 to 8) (size 9 to 14) (size 15 to 20)
#    0.000    1.000    6.250    0.750    5.250    0.000 
#    2.250    4.375    0.000    0.000    0.000    0.000 
#    0.000    0.000    0.000    0.000    0.000    0.000 
#
# Total GULP energy -178836.257154 kJ/mol
# GULP energy per Si atom -5588.633036 kJ/mol
# Density = 1.833259 g / cm^3
# Si number density = 18.374406 Si / 1000 Ang^3
#
#
#
# Elastic Constant Matrix: (Units=GPa)
#
#
# Indices 1 2 3 4 5 6 
#
# 1 76.5401 39.1832 16.0055 0.0000 3.7688 0.0000
# 2 39.1832 90.6218 18.3525 0.0000 -1.5465 0.0000
# 3 16.0055 18.3525 65.2702 0.0000 -7.5051 0.0000
# 4 0.0000 0.0000 0.0000 18.9144 0.0000 0.1263
# 5 3.7688 -1.5465 -7.5051 0.0000 29.6136 0.0000
# 6 0.0000 0.0000 0.0000 0.1263 0.0000 29.4451
#
#
#
# Elastic Compliance Matrix: (Units=1/GPa)
#
#
# Indices 1 2 3 4 5 6 
#
# 1 0.017381 -0.007032 -0.002659 0.000000 -0.003253 0.000000
# 2 -0.007032 0.014548 -0.002241 0.000000 0.001087 0.000000
# 3 -0.002659 -0.002241 0.017128 0.000000 0.004562 0.000000
# 4 0.000000 0.000000 0.000000 0.052871 0.000000 -0.000227
# 5 -0.003253 0.001087 0.004562 0.000000 0.035395 0.000000
# 6 0.000000 0.000000 0.000000 -0.000227 0.000000 0.033962
#
#
# Mechanical properties :
#
#
# Convention : Reuss Voigt Hill
#
# Bulk Modulus (GPa) = 39.69507 42.16828 40.93168
# Shear Modulus (GPa) = 24.56418 26.18733 25.37575
#
# Velocity S-wave (km/s) = 3.66029 3.77929 3.72026
# Velocity P-wave (km/s) = 6.28601 6.48408 6.38582
#
# Compressibility (1/GPa) = 0.02519204
#
# Stress axis : x y z
#
# Youngs Moduli (GPa) = 57.53293 68.73809 58.38501
#
# Poissons Ratio (x) = 0.48339 0.15524
# Poissons Ratio (y) = 0.40460 0.13085
# Poissons Ratio (z) = 0.15298 0.15405
#
# Static dielectric constant tensor:
#      x y z
#    x 1.634410 0.000000 -0.009300 
#    y 0.000000 1.598480 0.000000 
#    z -0.009300 0.000000 1.617310 
# 
# From -- ./inp_files/204480.got.cif
#   From: 2010.05.17/outbox.cif.g08.bks.cpg/sg15_103_cif.got.tgz:204480.got - 2010.06.03 18:47:42.
