data_PCOD9276196
_publ_section_title
;
Structure prediction by ZEFSAII (Michael W. Deem and Ramdas Pophale) SiO2 
 PCOD9276196
Probable space group: C 2/C
;
_chemical_formula_sum "Si O2"
_cell_formula_units_Z 60
_cell_length_a 15.836665
_cell_length_b 5.879195
_cell_length_c 28.978209
_cell_angle_alpha 90.000000
_cell_angle_beta 76.382254
_cell_angle_gamma 90.000000
_cell_volume 2622.221723
_symmetry_space_group_name_H-M "C 2/C"
_symmetry_group_IT_number 15
_symmetry_cell_setting 'monoclinic'
loop_
_space_group_symop_operation_xyz
x,y,z
-x,y,1/2-z
-x,-y,-z
x,-y,1/2+z
1/2+x,1/2+y,z
1/2-x,1/2+y,1/2-z
1/2-x,1/2-y,-z
1/2+x,1/2-y,1/2+z
loop_
_atom_site_type_symbol
_atom_site_label
_atom_site_fract_x
_atom_site_fract_y
_atom_site_fract_z
Si Si1 0.656146 0.717975 0.745261
Si Si2 0.425171 0.590288 0.320716
Si Si3 0.500000 0.058433 0.750000
Si Si4 0.209971 0.240017 0.342136
Si Si5 0.309841 0.077068 0.892450
Si Si6 0.852697 0.622873 0.082973
Si Si7 0.926193 0.129463 0.649534
Si Si8 0.199339 0.497568 0.507221
O O1 0.621791 0.504857 0.718925
O O2 0.754531 0.743053 0.714677
O O3 0.642221 0.707232 0.801904
O O4 0.587260 0.912954 0.740800
O O5 0.492616 0.780524 0.295033
O O6 0.363170 0.716958 0.364123
O O7 0.482080 0.397347 0.337615
O O8 0.195663 0.460779 0.374427
O O9 0.290781 0.113279 0.356929
O O10 0.118932 0.108843 0.357406
O O11 0.211888 0.163996 0.914588
O O12 0.346022 0.999035 0.936934
O O13 0.931559 0.717787 0.103256
O O14 0.858146 0.508867 0.032147
O O15 0.250000 0.250000 0.500000
O O16 0.250000 0.750000 0.500000
#
# Coordination Sequence:
#
# PCOD9276196 Si02
#       8
#     8   8   4   8   8   8   8   8
#     4  12  24  39  60  89 124 173 218 257 318 398
#     4  12  23  41  61  89 125 167 226 261 325 406
#     4  12  22  38  62  82 122 168 222 262 316 388
#     4  11  23  37  61  89 124 159 212 266 326 383
#     4  10  21  39  65  95 117 166 221 274 317 401
#     4  10  22  40  61  92 129 163 214 272 332 391
#     4  11  26  37  56  94 131 170 207 271 334 395
#     4  10  20  39  70  98 128 169 225 283 342 397
#
# _framework density 22.881361999999999
#
# number of rings (size 3 to 8) (size 9 to 14) (size 15 to 20)
#    0.000    1.067    6.667    0.000    3.733    0.000 
#    0.000    0.667    0.000    0.800    0.000    0.000 
#    0.000    0.000    0.000    0.000    0.000    0.000 
#
# Total GULP energy -167243.305375 kJ/mol
# GULP energy per Si atom -5574.776846 kJ/mol
# Density = 2.282928 g / cm^3
# Si number density = 22.881362 Si / 1000 Ang^3
#
#
#
# Elastic Constant Matrix: (Units=GPa)
#
#
# Indices 1 2 3 4 5 6 
#
# 1 40.3234 14.0651 16.2740 -0.0001 13.5266 -0.0002
# 2 14.0651 65.2537 16.5081 -0.0004 14.5661 -0.0001
# 3 16.2740 16.5081 98.6234 -0.0001 40.6727 -0.0002
# 4 -0.0001 -0.0004 -0.0001 23.0068 -0.0002 -1.4069
# 5 13.5266 14.5661 40.6727 -0.0002 31.2449 -0.0003
# 6 -0.0002 -0.0001 -0.0002 -1.4069 -0.0003 24.6084
#
#
#
# Elastic Compliance Matrix: (Units=1/GPa)
#
#
# Indices 1 2 3 4 5 6 
#
# 1 0.029926 -0.003944 0.000662 0.000000 -0.011979 0.000000
# 2 -0.003944 0.017663 0.000833 0.000000 -0.007612 0.000000
# 3 0.000662 0.000833 0.021956 0.000000 -0.029257 0.000000
# 4 0.000000 0.000000 0.000000 0.043618 0.000000 0.002494
# 5 -0.011979 -0.007612 -0.029257 0.000000 0.078825 0.000000
# 6 0.000000 0.000000 0.000000 0.002494 0.000000 0.040779
#
#
# Mechanical properties :
#
#
# Convention : Reuss Voigt Hill
#
# Bulk Modulus (GPa) = 15.46805 33.09944 24.28375
# Shear Modulus (GPa) = 19.28906 26.26223 22.77565
#
# Velocity S-wave (km/s) = 2.90660 3.39153 3.15839
# Velocity P-wave (km/s) = 4.24726 5.46203 4.89249
#
# Compressibility (1/GPa) = 0.06464938
#
# Stress axis : x y z
#
# Youngs Moduli (GPa) = 33.41532 56.61487 45.54472
#
# Poissons Ratio (x) = 0.22329 -0.03016
# Poissons Ratio (y) = 0.13179 -0.03796
# Poissons Ratio (z) = -0.02213 -0.04718
#
# Static dielectric constant tensor:
#      x y z
#    x 1.928560 0.000000 0.039170 
#    y 0.000000 1.958620 0.000000 
#    z 0.039170 0.000000 1.881450 
# 
# From -- ./inp_files/297758.got.cif
#   From: 2010.05.17/outbox.cif.g08.bks.cpg/sg15_149_cif.got.tgz:297758.got - 2010.06.03 18:47:42.
