data_PCOD9276169
_publ_section_title
;
Structure prediction by ZEFSAII (Michael W. Deem and Ramdas Pophale) SiO2 
 PCOD9276169
Probable space group: C 2/C
;
_chemical_formula_sum "Si O2"
_cell_formula_units_Z 40
_cell_length_a 9.047391
_cell_length_b 14.102696
_cell_length_c 14.257295
_cell_angle_alpha 90.000000
_cell_angle_beta 82.648841
_cell_angle_gamma 90.000000
_cell_volume 1804.173274
_symmetry_space_group_name_H-M "C 2/C"
_symmetry_group_IT_number 15
_symmetry_cell_setting 'monoclinic'
loop_
_space_group_symop_operation_xyz
x,y,z
-x,y,1/2-z
-x,-y,-z
x,-y,1/2+z
1/2+x,1/2+y,z
1/2-x,1/2+y,1/2-z
1/2-x,1/2-y,-z
1/2+x,1/2-y,1/2+z
loop_
_atom_site_type_symbol
_atom_site_label
_atom_site_fract_x
_atom_site_fract_y
_atom_site_fract_z
Si Si1 0.000000 0.425002 0.250000
Si Si2 0.705597 0.352576 0.222533
Si Si3 0.425160 0.593281 0.052842
Si Si4 0.077955 0.442338 0.576333
Si Si5 0.017523 0.236714 0.898155
Si Si6 0.000000 0.969011 0.750000
O O1 0.119780 0.361594 0.293349
O O2 0.079460 0.492208 0.168257
O O3 0.630731 0.289013 0.149539
O O4 0.648490 0.310735 0.326317
O O5 0.634426 0.457393 0.216752
O O6 0.248863 0.587880 0.044936
O O7 0.456310 0.588393 0.161178
O O8 0.500000 0.500000 0.000000
O O9 0.498641 0.684354 0.998058
O O10 0.977961 0.348911 0.598660
O O11 0.000000 0.500000 0.500000
#
# Coordination Sequence:
#
# PCOD9276169 Si02
#       6
#     4   8   8   8   8   4
#     4  12  22  43  67 102 132 176 232 279 345 406
#     4  10  20  41  75  94 130 179 220 285 343 393
#     4  12  21  42  71  98 134 177 229 277 338 411
#     4  12  27  43  68  99 139 185 219 283 341 397
#     4  10  22  45  67  97 138 180 225 276 343 406
#     4  10  20  39  69  98 126 184 214 277 345 392
#
# _framework density 22.170817
#
# number of rings (size 3 to 8) (size 9 to 14) (size 15 to 20)
#    0.000    1.200    6.000    3.000    0.000    0.000 
#    0.000   10.000    0.000    0.000    0.000    0.000 
#    0.000    0.000    0.000    0.000    0.000    0.000 
#
# Total GULP energy -111943.300283 kJ/mol
# GULP energy per Si atom -5597.165014 kJ/mol
# Density = 2.212036 g / cm^3
# Si number density = 22.170817 Si / 1000 Ang^3
#
#
#
# Elastic Constant Matrix: (Units=GPa)
#
#
# Indices 1 2 3 4 5 6 
#
# 1 54.2294 1.2124 -12.2603 0.0000 -0.7774 0.0000
# 2 1.2124 75.1859 27.0014 0.0000 3.9193 0.0000
# 3 -12.2603 27.0014 103.4130 0.0000 17.4455 0.0000
# 4 0.0000 0.0000 0.0000 12.6025 0.0000 6.1248
# 5 -0.7774 3.9193 17.4455 0.0000 25.5075 0.0000
# 6 0.0000 0.0000 0.0000 6.1248 0.0000 4.4487
#
#
#
# Elastic Compliance Matrix: (Units=1/GPa)
#
#
# Indices 1 2 3 4 5 6 
#
# 1 0.019080 -0.001246 0.002778 0.000000 -0.001127 0.000000
# 2 -0.001246 0.014762 -0.004084 0.000000 0.000487 0.000000
# 3 0.002778 -0.004084 0.012373 0.000000 -0.007750 0.000000
# 4 0.000000 0.000000 0.000000 0.239799 0.000000 -0.330147
# 5 -0.001127 0.000487 -0.007750 0.000000 0.044396 0.000000
# 6 0.000000 0.000000 0.000000 -0.330147 0.000000 0.679321
#
#
# Mechanical properties :
#
#
# Convention : Reuss Voigt Hill
#
# Bulk Modulus (GPa) = 24.32592 29.41505 26.87048
# Shear Modulus (GPa) = 4.86126 22.97006 13.91566
#
# Velocity S-wave (km/s) = 1.48236 3.22226 2.50803
# Velocity P-wave (km/s) = 3.73172 5.20963 4.53133
#
# Compressibility (1/GPa) = 0.04110841
#
# Stress axis : x y z
#
# Youngs Moduli (GPa) = 52.41132 67.74208 80.82034
#
# Poissons Ratio (x) = 0.08444 -0.22448
# Poissons Ratio (y) = 0.06533 0.33010
# Poissons Ratio (z) = -0.14557 0.27668
#
# Static dielectric constant tensor:
#      x y z
#    x 1.819940 0.000000 -0.007770 
#    y 0.000000 1.784430 0.000000 
#    z -0.007770 0.000000 1.825870 
# 
# From -- ./inp_files/133119.got.cif
#   From: 2010.05.17/outbox.cif.g08.bks.cpg/sg15_67_cif.got.tgz:133119.got - 2010.06.03 18:47:42.
