data_PCOD9276066
_publ_section_title
;
Structure prediction by ZEFSAII (Michael W. Deem and Ramdas Pophale) SiO2 
 PCOD9276066
Probable space group: C 2/C
;
_chemical_formula_sum "Si O2"
_cell_formula_units_Z 52
_cell_length_a 29.938588
_cell_length_b 7.847522
_cell_length_c 29.742087
_cell_angle_alpha 90.000000
_cell_angle_beta 19.346314
_cell_angle_gamma 90.000000
_cell_volume 2314.871178
_symmetry_space_group_name_H-M "C 2/C"
_symmetry_group_IT_number 15
_symmetry_cell_setting 'monoclinic'
loop_
_space_group_symop_operation_xyz
x,y,z
-x,y,1/2-z
-x,-y,-z
x,-y,1/2+z
1/2+x,1/2+y,z
1/2-x,1/2+y,1/2-z
1/2-x,1/2-y,-z
1/2+x,1/2-y,1/2+z
loop_
_atom_site_type_symbol
_atom_site_label
_atom_site_fract_x
_atom_site_fract_y
_atom_site_fract_z
Si Si1 0.401660 0.813030 0.254902
Si Si2 0.140143 0.557509 0.888994
Si Si3 0.136730 0.267621 0.965564
Si Si4 0.500000 0.646663 0.250000
Si Si5 0.285932 0.611768 0.927492
Si Si6 0.137712 0.038678 0.395338
Si Si7 0.988709 0.361849 0.706870
O O1 0.256169 0.730736 0.388624
O O2 0.486313 0.749707 0.217211
O O3 0.388924 0.012416 0.276298
O O4 0.490136 0.779180 0.126978
O O5 0.161256 0.428062 0.909992
O O6 0.144084 0.757819 0.898236
O O7 0.248027 0.518208 0.748027
O O8 0.000000 0.500000 0.000000
O O9 0.147179 0.089521 0.928502
O O10 0.641182 0.542264 0.116050
O O11 0.412066 0.680964 0.778102
O O12 0.250000 0.750000 0.000000
O O13 0.138453 0.604037 0.045178
O O14 0.000000 0.000000 0.500000
O O15 0.000000 0.399242 0.750000
#
# Coordination Sequence:
#
# PCOD9276066 Si02
#       7
#     8   8   8   4   8   8   8
#     4  12  28  45  68  99 149 189 243 304 348 423
#     4  12  23  46  80 109 144 191 230 285 375 452
#     4  12  27  47  69 115 150 178 251 303 347 433
#     4  12  24  44  72  92 136 208 234 286 384 404
#     4  10  20  39  67  96 118 165 263 287 337 430
#     4  12  23  46  81 108 143 193 228 285 378 450
#     4  10  21  42  66  92 130 182 242 288 355 408
#
# _framework density 22.463453000000001
#
# number of rings (size 3 to 8) (size 9 to 14) (size 15 to 20)
#    0.000    0.615    6.154    2.769    4.308    1.231 
#    8.308    0.000    0.000    0.000    0.000    0.000 
#    0.000    0.000    0.000    0.000    0.000    0.000 
#
# Total GULP energy -145205.721359 kJ/mol
# GULP energy per Si atom -5584.835437 kJ/mol
# Density = 2.241232 g / cm^3
# Si number density = 22.463453 Si / 1000 Ang^3
#
#
#
# Elastic Constant Matrix: (Units=GPa)
#
#
# Indices 1 2 3 4 5 6 
#
# 1 59.4546 26.1625 6.8546 0.0001 -12.1999 -0.0016
# 2 26.1625 132.7464 2.5761 -0.0040 1.7978 -0.0248
# 3 6.8546 2.5761 108.6328 -0.0037 -13.0578 -0.0192
# 4 0.0001 -0.0040 -0.0037 30.2772 -0.0059 -9.8789
# 5 -12.1999 1.7978 -13.0578 -0.0059 37.1001 0.0012
# 6 -0.0016 -0.0248 -0.0192 -9.8789 0.0012 34.3837
#
#
#
# Elastic Compliance Matrix: (Units=1/GPa)
#
#
# Indices 1 2 3 4 5 6 
#
# 1 0.019995 -0.004024 -0.000368 0.000000 0.006641 -0.000002
# 2 -0.004024 0.008353 -0.000159 0.000003 -0.001784 0.000007
# 3 -0.000368 -0.000159 0.009626 0.000004 0.003275 0.000006
# 4 0.000000 0.000003 0.000004 0.036445 0.000007 0.010471
# 5 0.006641 -0.001784 0.003275 0.000007 0.030377 0.000002
# 6 -0.000002 0.000007 0.000006 0.010471 0.000002 0.032092
#
#
# Mechanical properties :
#
#
# Convention : Reuss Voigt Hill
#
# Bulk Modulus (GPa) = 34.63323 41.33557 37.98440
# Shear Modulus (GPa) = 32.13101 38.03493 35.08297
#
# Velocity S-wave (km/s) = 3.78612 4.11930 3.95622
# Velocity P-wave (km/s) = 5.87912 6.40828 6.14940
#
# Compressibility (1/GPa) = 0.02887401
#
# Stress axis : x y z
#
# Youngs Moduli (GPa) = 50.01211 119.71197 103.88616
#
# Poissons Ratio (x) = 0.48167 0.03824
# Poissons Ratio (y) = 0.20123 0.01648
# Poissons Ratio (z) = 0.01841 0.01899
#
# Static dielectric constant tensor:
#      x y z
#    x 1.715070 0.000130 0.227230 
#    y 0.000130 1.890220 -0.000320 
#    z 0.227230 -0.000320 1.208930 
# 
# From -- ./inp_files/320155.got.cif
#   From: 2010.05.17/outbox.cif.g08.bks.cpg/sg15_161_cif.got.tgz:320155.got - 2010.06.03 18:47:42.
