data_PCOD9276662
_publ_section_title
;
Structure prediction by ZEFSAII (Michael W. Deem and Ramdas Pophale) SiO2 
 PCOD9276662
Probable space group: C 2/C
;
_chemical_formula_sum "Si O2"
_cell_formula_units_Z 48
_cell_length_a 15.978141
_cell_length_b 9.884842
_cell_length_c 17.883284
_cell_angle_alpha 90.000000
_cell_angle_beta 63.456159
_cell_angle_gamma 90.000000
_cell_volume 2526.786781
_symmetry_space_group_name_H-M "C 2/C"
_symmetry_group_IT_number 15
_symmetry_cell_setting 'monoclinic'
loop_
_space_group_symop_operation_xyz
x,y,z
-x,y,1/2-z
-x,-y,-z
x,-y,1/2+z
1/2+x,1/2+y,z
1/2-x,1/2+y,1/2-z
1/2-x,1/2-y,-z
1/2+x,1/2-y,1/2+z
loop_
_atom_site_type_symbol
_atom_site_label
_atom_site_fract_x
_atom_site_fract_y
_atom_site_fract_z
Si Si1 0.259346 0.186031 0.078777
Si Si2 0.596272 0.060067 0.994400
Si Si3 0.594077 0.575854 0.250733
Si Si4 0.829292 0.182677 0.696039
Si Si5 0.027869 0.581182 0.323875
Si Si6 0.625407 0.807046 0.339993
O O1 0.164919 0.135523 0.159207
O O2 0.307430 0.293277 0.116908
O O3 0.324879 0.053530 0.045564
O O4 0.250000 0.250000 0.000000
O O5 0.617610 0.186338 0.932394
O O6 0.567495 0.090245 0.090111
O O7 0.500000 0.000000 0.000000
O O8 0.500000 0.522233 0.250000
O O9 0.643033 0.462979 0.282652
O O10 0.566944 0.696544 0.318292
O O11 0.909992 0.287502 0.685466
O O12 0.732141 0.218902 0.775309
O O13 0.090342 0.452653 0.324342
O O14 0.000000 0.565980 0.250000
#
# Coordination Sequence:
#
# PCOD9276662 Si02
#       6
#     8   8   8   8   8   8
#     4  11  24  42  68  95 128 171 224 266 317 389
#     4  10  20  41  65  93 122 162 224 262 303 383
#     4  11  24  39  66  96 132 166 210 263 333 382
#     4  11  21  43  60  92 132 164 204 266 327 372
#     4  11  23  38  68  90 121 168 216 258 317 384
#     4  10  20  40  64  88 123 167 213 260 308 382
#
# _framework density 18.996459000000002
#
# number of rings (size 3 to 8) (size 9 to 14) (size 15 to 20)
#    0.000    1.333    5.000    2.000    9.333    0.000 
#    0.000    5.833    0.000    0.000    0.000    0.000 
#    0.000    0.000    0.000    0.000    0.000    0.000 
#
# Total GULP energy -133847.102319 kJ/mol
# GULP energy per Si atom -5576.962597 kJ/mol
# Density = 1.895322 g / cm^3
# Si number density = 18.996459 Si / 1000 Ang^3
#
#
#
# Elastic Constant Matrix: (Units=GPa)
#
#
# Indices 1 2 3 4 5 6 
#
# 1 72.6252 10.7017 42.6829 0.0000 6.4376 0.0000
# 2 10.7017 55.0565 21.0779 0.0000 7.2957 0.0000
# 3 42.6829 21.0779 150.1187 0.0000 17.9274 0.0000
# 4 0.0000 0.0000 0.0000 32.5348 0.0000 -1.6920
# 5 6.4376 7.2957 17.9274 0.0000 26.1942 0.0000
# 6 0.0000 0.0000 0.0000 -1.6920 0.0000 15.8286
#
#
#
# Elastic Compliance Matrix: (Units=1/GPa)
#
#
# Indices 1 2 3 4 5 6 
#
# 1 0.016659 -0.001447 -0.004457 0.000000 -0.000641 0.000000
# 2 -0.001447 0.019677 -0.001894 0.000000 -0.003828 0.000000
# 3 -0.004457 -0.001894 0.008713 0.000000 -0.004340 0.000000
# 4 0.000000 0.000000 0.000000 0.030908 0.000000 0.003304
# 5 -0.000641 -0.003828 -0.004340 0.000000 0.042371 0.000000
# 6 0.000000 0.000000 0.000000 0.003304 0.000000 0.063530
#
#
# Mechanical properties :
#
#
# Convention : Reuss Voigt Hill
#
# Bulk Modulus (GPa) = 33.95284 47.41391 40.68338
# Shear Modulus (GPa) = 24.12306 28.46738 26.29522
#
# Velocity S-wave (km/s) = 3.56739 3.87533 3.72454
# Velocity P-wave (km/s) = 5.90597 6.71102 6.32132
#
# Compressibility (1/GPa) = 0.02945262
#
# Stress axis : x y z
#
# Youngs Moduli (GPa) = 60.02877 50.82101 114.77263
#
# Poissons Ratio (x) = 0.07353 0.51152
# Poissons Ratio (y) = 0.08685 0.21740
# Poissons Ratio (z) = 0.26754 0.09627
#
# Static dielectric constant tensor:
#      x y z
#    x 1.760930 0.000000 0.157370 
#    y 0.000000 1.674940 0.000000 
#    z 0.157370 0.000000 1.907650 
# 
# From -- ./inp_files/208926.got.cif
#   From: 2010.05.17/outbox.cif.g08.bks.cpg/sg15_105_cif.got.tgz:208926.got - 2010.06.03 18:47:42.
