data_PCOD9276415
_publ_section_title
;
Structure prediction by ZEFSAII (Michael W. Deem and Ramdas Pophale) SiO2 
 PCOD9276415
Probable space group: C 2/C
;
_chemical_formula_sum "Si O2"
_cell_formula_units_Z 48
_cell_length_a 22.416291
_cell_length_b 20.861818
_cell_length_c 11.603367
_cell_angle_alpha 90.000000
_cell_angle_beta 25.586063
_cell_angle_gamma 90.000000
_cell_volume 2343.415626
_symmetry_space_group_name_H-M "C 2/C"
_symmetry_group_IT_number 15
_symmetry_cell_setting 'monoclinic'
loop_
_space_group_symop_operation_xyz
x,y,z
-x,y,1/2-z
-x,-y,-z
x,-y,1/2+z
1/2+x,1/2+y,z
1/2-x,1/2+y,1/2-z
1/2-x,1/2-y,-z
1/2+x,1/2-y,1/2+z
loop_
_atom_site_type_symbol
_atom_site_label
_atom_site_fract_x
_atom_site_fract_y
_atom_site_fract_z
Si Si1 0.531898 0.566219 0.320573
Si Si2 0.281997 0.852108 0.405249
Si Si3 0.344556 0.234775 0.006230
Si Si4 0.307113 0.556918 0.901942
Si Si5 0.984492 0.597333 0.139104
Si Si6 0.714568 0.811541 0.635704
O O1 0.500000 0.590265 0.250000
O O2 0.390718 0.559570 0.636629
O O3 0.613414 0.498804 0.170078
O O4 0.638325 0.615234 0.192995
O O5 0.347347 0.821386 0.405598
O O6 0.249381 0.792569 0.377076
O O7 0.370761 0.905032 0.180315
O O8 0.500000 0.259164 0.750000
O O9 0.298420 0.207645 0.209427
O O10 0.141883 0.548329 0.168545
O O11 0.315035 0.627194 0.945613
O O12 0.000000 0.601122 0.250000
O O13 0.923489 0.661546 0.185598
O O14 0.750000 0.750000 0.500000
#
# Coordination Sequence:
#
# PCOD9276415 Si02
#       6
#     8   8   8   8   8   8
#     4  11  23  43  68  93 131 173 223 269 329 394
#     4  11  24  37  67  98 125 178 214 273 334 382
#     4  11  22  41  61  95 139 166 224 273 329 401
#     4   9  24  42  61  95 127 172 216 267 327 395
#     4  10  20  40  61  94 126 161 218 260 322 392
#     4  10  22  38  66  89 131 169 210 270 326 381
#
# _framework density 20.482921999999999
#
# number of rings (size 3 to 8) (size 9 to 14) (size 15 to 20)
#    1.000    0.667    1.667    2.500    4.667    3.333 
#    0.000    3.333    0.000    0.000    0.000    0.000 
#    0.000    0.000    0.000    0.000    0.000    0.000 
#
# Total GULP energy -133719.573652 kJ/mol
# GULP energy per Si atom -5571.648902 kJ/mol
# Density = 2.043630 g / cm^3
# Si number density = 20.482922 Si / 1000 Ang^3
#
#
#
# Elastic Constant Matrix: (Units=GPa)
#
#
# Indices 1 2 3 4 5 6 
#
# 1 108.0093 32.4722 32.4654 0.0026 13.4514 -0.0011
# 2 32.4722 84.8091 21.7267 -0.0004 13.7529 -0.0004
# 3 32.4654 21.7267 92.0413 -0.0005 6.1467 -0.0002
# 4 0.0026 -0.0004 -0.0005 -43.1471 -0.0018 5.5286
# 5 13.4514 13.7529 6.1467 -0.0018 22.8753 0.0008
# 6 -0.0011 -0.0004 -0.0002 5.5286 0.0008 13.3764
#
#
#
# Elastic Compliance Matrix: (Units=1/GPa)
#
#
# Indices 1 2 3 4 5 6 
#
# 1 0.011610 -0.002965 -0.003114 0.000001 -0.004208 0.000001
# 2 -0.002965 0.014466 -0.001939 0.000000 -0.006433 0.000000
# 3 -0.003114 -0.001939 0.012444 0.000000 -0.000347 0.000000
# 4 0.000001 0.000000 0.000000 -0.022011 -0.000003 0.009097
# 5 -0.004208 -0.006433 -0.000347 -0.000003 0.050150 -0.000002
# 6 0.000001 0.000000 0.000000 0.009097 -0.000002 0.070999
#
#
# Mechanical properties :
#
#
# Convention : Reuss Voigt Hill
#
# Bulk Modulus (GPa) = 44.47803 50.90980 47.69391
# Shear Modulus (GPa) = 31.01924 11.83394 21.42659
#
# Velocity S-wave (km/s) = 3.89574 2.40624 3.23781
# Velocity P-wave (km/s) = 6.48056 5.71216 6.10845
#
# Compressibility (1/GPa) = 0.02248301
#
# Stress axis : x y z
#
# Youngs Moduli (GPa) = 86.13269 69.12524 80.35935
#
# Poissons Ratio (x) = 0.20497 0.25026
# Poissons Ratio (y) = 0.25540 0.15585
# Poissons Ratio (z) = 0.26824 0.13406
#
# Static dielectric constant tensor:
#      x y z
#    x 1.696560 0.000000 -0.069450 
#    y 0.000000 1.715010 0.000000 
#    z -0.069450 0.000000 1.846070 
# 
# From -- ./inp_files/114193.got.cif
#   From: 2010.05.17/outbox.cif.g08.bks.cpg/sg15_58_cif.got.tgz:114193.got - 2010.06.03 18:47:42.
