data_PCOD9276311
_publ_section_title
;
Structure prediction by ZEFSAII (Michael W. Deem and Ramdas Pophale) SiO2 
 PCOD9276311
Probable space group: C 2/C
;
_chemical_formula_sum "Si O2"
_cell_formula_units_Z 60
_cell_length_a 25.179340
_cell_length_b 13.570152
_cell_length_c 27.935958
_cell_angle_alpha 90.000000
_cell_angle_beta 18.286240
_cell_angle_gamma 90.000000
_cell_volume 2994.996638
_symmetry_space_group_name_H-M "C 2/C"
_symmetry_group_IT_number 15
_symmetry_cell_setting 'monoclinic'
loop_
_space_group_symop_operation_xyz
x,y,z
-x,y,1/2-z
-x,-y,-z
x,-y,1/2+z
1/2+x,1/2+y,z
1/2-x,1/2+y,1/2-z
1/2-x,1/2-y,-z
1/2+x,1/2-y,1/2+z
loop_
_atom_site_type_symbol
_atom_site_label
_atom_site_fract_x
_atom_site_fract_y
_atom_site_fract_z
Si Si1 0.385598 0.684816 0.115123
Si Si2 0.500000 0.731712 0.750000
Si Si3 0.619667 0.415337 0.024716
Si Si4 0.211105 0.605256 0.018019
Si Si5 0.205379 0.010412 0.243960
Si Si6 0.468361 0.885012 0.079440
Si Si7 0.006109 0.729062 0.413301
Si Si8 0.049106 0.531462 0.322456
O O1 0.383154 0.576375 0.138992
O O2 0.464618 0.767194 0.082132
O O3 0.194061 0.712047 0.269553
O O4 0.451036 0.707789 0.006560
O O5 0.651135 0.657796 0.633806
O O6 0.420722 0.808004 0.855267
O O7 0.448602 0.474324 0.157449
O O8 0.556267 0.302676 0.074117
O O9 0.694426 0.427165 0.014127
O O10 0.776166 0.437797 0.853929
O O11 0.098601 0.521628 0.090289
O O12 0.322327 0.924831 0.167655
O O13 0.348392 0.077126 0.095571
O O14 0.427355 0.936848 0.164598
O O15 0.973288 0.618101 0.422277
#
# Coordination Sequence:
#
# PCOD9276311 Si02
#       8
#     8   4   8   8   8   8   8   8
#     4  12  23  41  59  90 126 156 207 255 307 368
#     4  10  20  40  60  84 128 164 208 244 304 366
#     4  12  25  38  61  89 127 169 207 252 303 373
#     4  11  24  40  58  90 128 168 210 254 302 370
#     4  11  24  41  62  90 121 164 208 253 316 368
#     4  11  23  41  61  90 122 162 207 257 307 375
#     4  12  22  35  60  89 124 166 195 248 306 370
#     4  12  25  39  60  90 128 167 210 249 306 367
#
# _framework density 20.033411999999998
#
# number of rings (size 3 to 8) (size 9 to 14) (size 15 to 20)
#    0.000    0.533    6.667    2.400    3.733    1.067 
#    0.000    0.000    0.000    0.800    0.000    0.000 
#    0.000    0.000    0.000    0.000    0.000    0.000 
#
# Total GULP energy -167186.745622 kJ/mol
# GULP energy per Si atom -5572.891521 kJ/mol
# Density = 1.998781 g / cm^3
# Si number density = 20.033412 Si / 1000 Ang^3
#
#
#
# Elastic Constant Matrix: (Units=GPa)
#
#
# Indices 1 2 3 4 5 6 
#
# 1 112.6569 21.2340 40.3411 -0.0013 -22.0144 0.0003
# 2 21.2340 47.2152 6.4493 -0.0019 -3.2832 -0.0007
# 3 40.3411 6.4493 64.4570 -0.0285 -18.0314 -0.0030
# 4 -0.0013 -0.0019 -0.0285 23.7110 -0.0006 -9.8605
# 5 -22.0144 -3.2832 -18.0314 -0.0006 26.6302 0.0022
# 6 0.0003 -0.0007 -0.0030 -9.8605 0.0022 24.5360
#
#
#
# Elastic Compliance Matrix: (Units=1/GPa)
#
#
# Indices 1 2 3 4 5 6 
#
# 1 0.013116 -0.004647 -0.006009 -0.000009 0.006201 -0.000005
# 2 -0.004647 0.023166 0.000388 0.000003 -0.000722 0.000002
# 3 -0.006009 0.000388 0.022033 0.000033 0.009999 0.000015
# 4 -0.000009 0.000003 0.000033 0.050638 0.000015 0.020350
# 5 0.006201 -0.000722 0.009999 0.000015 0.049359 0.000003
# 6 -0.000005 0.000002 0.000015 0.020350 0.000003 0.048935
#
#
# Mechanical properties :
#
#
# Convention : Reuss Voigt Hill
#
# Bulk Modulus (GPa) = 26.46879 40.04196 33.25538
# Shear Modulus (GPa) = 20.80084 25.39576 23.09830
#
# Velocity S-wave (km/s) = 3.22577 3.56430 3.39925
# Velocity P-wave (km/s) = 5.20722 6.08029 5.66061
#
# Compressibility (1/GPa) = 0.03778034
#
# Stress axis : x y z
#
# Youngs Moduli (GPa) = 76.24387 43.16656 45.38544
#
# Poissons Ratio (x) = 0.20058 0.27273
# Poissons Ratio (y) = 0.35427 -0.01762
# Poissons Ratio (z) = 0.45816 -0.01676
#
# Static dielectric constant tensor:
#      x y z
#    x 1.755750 0.000000 0.036740 
#    y 0.000000 1.704260 0.000020 
#    z 0.036740 0.000020 1.772070 
# 
# From -- ./inp_files/302356.got.cif
#   From: 2010.05.17/outbox.cif.g08.bks.cpg/sg15_152_cif.got.tgz:302356.got - 2010.06.03 18:47:42.
