data_PCOD9276193
_publ_section_title
;
Structure prediction by ZEFSAII (Michael W. Deem and Ramdas Pophale) SiO2 
 PCOD9276193
Probable space group: C 2/C
;
_chemical_formula_sum "Si O2"
_cell_formula_units_Z 44
_cell_length_a 9.033459
_cell_length_b 14.306603
_cell_length_c 18.399304
_cell_angle_alpha 90.000000
_cell_angle_beta 120.546136
_cell_angle_gamma 90.000000
_cell_volume 2047.888021
_symmetry_space_group_name_H-M "C 2/C"
_symmetry_group_IT_number 15
_symmetry_cell_setting 'monoclinic'
loop_
_space_group_symop_operation_xyz
x,y,z
-x,y,1/2-z
-x,-y,-z
x,-y,1/2+z
1/2+x,1/2+y,z
1/2-x,1/2+y,1/2-z
1/2-x,1/2-y,-z
1/2+x,1/2-y,1/2+z
loop_
_atom_site_type_symbol
_atom_site_label
_atom_site_fract_x
_atom_site_fract_y
_atom_site_fract_z
Si Si1 0.500000 0.615956 0.250000
Si Si2 0.245874 0.969454 0.537586
Si Si3 0.579586 0.526437 0.641671
Si Si4 0.077012 0.696857 0.475045
Si Si5 0.117626 0.327706 0.439049
Si Si6 0.240849 0.286219 0.320686
O O1 0.493756 0.544942 0.316870
O O2 0.656830 0.688799 0.273131
O O3 0.402776 0.902401 0.558794
O O4 0.081671 0.940295 0.448190
O O5 0.194781 0.973205 0.609556
O O6 0.296297 0.072989 0.526024
O O7 0.689092 0.616678 0.698027
O O8 0.250000 0.750000 0.500000
O O9 0.050786 0.683912 0.554734
O O10 0.913439 0.750168 0.403374
O O11 0.250000 0.250000 0.500000
O O12 0.105603 0.318052 0.349738
#
# Coordination Sequence:
#
# PCOD9276193 Si02
#       6
#     4   8   8   8   8   8
#     4  12  26  46  68  86 148 192 216 262 354 410
#     4  10  20  39  70  96 128 158 226 287 331 383
#     4  10  22  44  66  97 128 176 221 277 333 402
#     4  11  20  35  67 105 124 156 218 286 334 379
#     4   9  19  35  62  91 128 163 206 266 333 387
#     4  10  23  45  62  93 131 178 219 264 339 409
#
# _framework density 21.485551000000001
#
# number of rings (size 3 to 8) (size 9 to 14) (size 15 to 20)
#    0.000    1.818    1.818    2.727    5.091    0.000 
#   13.091    0.000    0.000    0.000    0.000    0.000 
#    0.000    0.000    0.000    0.000    0.000    0.000 
#
# Total GULP energy -122542.696501 kJ/mol
# GULP energy per Si atom -5570.122568 kJ/mol
# Density = 2.143665 g / cm^3
# Si number density = 21.485551 Si / 1000 Ang^3
#
#
#
# Elastic Constant Matrix: (Units=GPa)
#
#
# Indices 1 2 3 4 5 6 
#
# 1 100.6907 27.7674 14.2676 0.0000 -14.6143 0.0000
# 2 27.7674 140.4597 26.8927 0.0000 -8.8231 0.0000
# 3 14.2676 26.8927 36.3375 0.0000 -7.1472 0.0000
# 4 0.0000 0.0000 0.0000 17.8845 0.0000 9.6944
# 5 -14.6143 -8.8231 -7.1472 0.0000 16.2018 0.0000
# 6 0.0000 0.0000 0.0000 9.6944 0.0000 34.5267
#
#
#
# Elastic Compliance Matrix: (Units=1/GPa)
#
#
# Indices 1 2 3 4 5 6 
#
# 1 0.011914 -0.001432 -0.001815 0.000000 0.009166 0.000000
# 2 -0.001432 0.008525 -0.005572 0.000000 0.000893 0.000000
# 3 -0.001815 -0.005572 0.034424 0.000000 0.010514 0.000000
# 4 0.000000 0.000000 0.000000 0.065952 0.000000 -0.018518
# 5 0.009166 0.000893 0.010514 0.000000 0.075114 0.000000
# 6 0.000000 0.000000 0.000000 -0.018518 0.000000 0.034163
#
#
# Mechanical properties :
#
#
# Convention : Reuss Voigt Hill
#
# Bulk Modulus (GPa) = 26.86319 46.14926 36.50623
# Shear Modulus (GPa) = 19.22057 27.62663 23.42360
#
# Velocity S-wave (km/s) = 2.99420 3.58973 3.30540
# Velocity P-wave (km/s) = 4.94810 6.22152 5.62099
#
# Compressibility (1/GPa) = 0.03722566
#
# Stress axis : x y z
#
# Youngs Moduli (GPa) = 83.93586 117.29643 29.04956
#
# Poissons Ratio (x) = 0.16796 0.05273
# Poissons Ratio (y) = 0.12019 0.16185
# Poissons Ratio (z) = 0.15237 0.65352
#
# Static dielectric constant tensor:
#      x y z
#    x 1.810810 0.000000 0.005370 
#    y 0.000000 2.035820 0.000000 
#    z 0.005370 0.000000 1.828590 
# 
# From -- ./inp_files/189340.got.cif
#   From: 2010.05.17/outbox.cif.g08.bks.cpg/sg15_95_cif.got.tgz:189340.got - 2010.06.03 18:47:42.
