data_PCOD9276986
_publ_section_title
;
Structure prediction by ZEFSAII (Michael W. Deem and Ramdas Pophale) SiO2 
 PCOD9276986
Probable space group: C 2/C
;
_chemical_formula_sum "Si O2"
_cell_formula_units_Z 36
_cell_length_a 5.602553
_cell_length_b 14.437936
_cell_length_c 20.407352
_cell_angle_alpha 90.000000
_cell_angle_beta 121.260750
_cell_angle_gamma 90.000000
_cell_volume 1411.073491
_symmetry_space_group_name_H-M "C 2/C"
_symmetry_group_IT_number 15
_symmetry_cell_setting 'monoclinic'
loop_
_space_group_symop_operation_xyz
x,y,z
-x,y,1/2-z
-x,-y,-z
x,-y,1/2+z
1/2+x,1/2+y,z
1/2-x,1/2+y,1/2-z
1/2-x,1/2-y,-z
1/2+x,1/2-y,1/2+z
loop_
_atom_site_type_symbol
_atom_site_label
_atom_site_fract_x
_atom_site_fract_y
_atom_site_fract_z
Si Si1 0.099716 0.674087 0.618821
Si Si2 0.169116 0.015675 0.340781
Si Si3 0.500000 0.220390 0.750000
Si Si4 0.034334 0.650866 0.331288
Si Si5 0.785915 0.053384 0.016468
O O1 0.324635 0.592374 0.639710
O O2 0.053931 0.666808 0.690524
O O3 0.223904 0.774205 0.620452
O O4 0.833602 0.642406 0.538809
O O5 0.470607 0.060539 0.365438
O O6 0.066088 0.066925 0.391539
O O7 0.000000 0.026363 0.250000
O O8 0.760303 0.285268 0.804071
O O9 0.000000 0.626820 0.250000
O O10 0.500000 0.000000 0.000000
O O11 0.000000 0.000000 0.000000
#
# Coordination Sequence:
#
# PCOD9276986 Si02
#       5
#     8   8   4   8   8
#     4  10  24  41  69  97 145 193 241 306 384 431
#     4  11  23  42  73 103 136 195 246 304 379 446
#     4  10  20  40  66  98 134 182 240 302 356 450
#     4  10  22  41  64 106 144 178 253 311 352 452
#     4  10  25  45  68 107 148 184 252 307 359 459
#
# _framework density 25.51249
#
# number of rings (size 3 to 8) (size 9 to 14) (size 15 to 20)
#    0.000    1.778    1.111    2.000   10.889    2.667 
#    0.000    1.111    0.000    0.000    0.000    0.000 
#    0.000    0.000    0.000    0.000    0.000    0.000 
#
# Total GULP energy -100588.723707 kJ/mol
# GULP energy per Si atom -5588.262428 kJ/mol
# Density = 2.545442 g / cm^3
# Si number density = 25.512490 Si / 1000 Ang^3
#
#
#
# Elastic Constant Matrix: (Units=GPa)
#
#
# Indices 1 2 3 4 5 6 
#
# 1 109.8298 41.3880 29.8710 0.0000 -4.9050 0.0000
# 2 41.3880 127.1530 17.0827 0.0000 7.4885 0.0000
# 3 29.8710 17.0827 140.0632 0.0000 7.7491 0.0000
# 4 0.0000 0.0000 0.0000 32.9547 0.0000 1.8179
# 5 -4.9050 7.4885 7.7491 0.0000 30.6304 0.0000
# 6 0.0000 0.0000 0.0000 1.8179 0.0000 31.4675
#
#
#
# Elastic Compliance Matrix: (Units=1/GPa)
#
#
# Indices 1 2 3 4 5 6 
#
# 1 0.011157 -0.003534 -0.002125 0.000000 0.003188 0.000000
# 2 -0.003534 0.009207 -0.000216 0.000000 -0.002762 0.000000
# 3 -0.002125 -0.000216 0.007743 0.000000 -0.002246 0.000000
# 4 0.000000 0.000000 0.000000 0.030442 0.000000 -0.001759
# 5 0.003188 -0.002762 -0.002246 0.000000 0.034401 0.000000
# 6 0.000000 0.000000 0.000000 -0.001759 0.000000 0.031880
#
#
# Mechanical properties :
#
#
# Convention : Reuss Voigt Hill
#
# Bulk Modulus (GPa) = 61.13655 61.52549 61.33102
# Shear Modulus (GPa) = 35.20312 38.25747 36.73030
#
# Velocity S-wave (km/s) = 3.71865 3.87661 3.79845
# Velocity P-wave (km/s) = 6.51561 6.64874 6.58251
#
# Compressibility (1/GPa) = 0.01635683
#
# Stress axis : x y z
#
# Youngs Moduli (GPa) = 89.63004 108.61839 129.14121
#
# Poissons Ratio (x) = 0.38384 0.27440
# Poissons Ratio (y) = 0.31674 0.02795
# Poissons Ratio (z) = 0.19045 0.02350
#
# Static dielectric constant tensor:
#      x y z
#    x 2.134690 0.000000 0.117730 
#    y 0.000000 1.964980 0.000000 
#    z 0.117730 0.000000 2.128940 
# 
# From -- ./inp_files/260269.got.cif
#   From: 2010.05.17/outbox.cif.g08.bks.cpg/sg15_131_cif.got.tgz:260269.got - 2010.06.03 18:47:42.
