data_PCOD9276678
_publ_section_title
;
Structure prediction by ZEFSAII (Michael W. Deem and Ramdas Pophale) SiO2 
 PCOD9276678
Probable space group: C 2/C
;
_chemical_formula_sum "Si O2"
_cell_formula_units_Z 64
_cell_length_a 10.178755
_cell_length_b 30.626515
_cell_length_c 9.586369
_cell_angle_alpha 90.000000
_cell_angle_beta 84.570595
_cell_angle_gamma 90.000000
_cell_volume 2975.045099
_symmetry_space_group_name_H-M "C 2/C"
_symmetry_group_IT_number 15
_symmetry_cell_setting 'monoclinic'
loop_
_space_group_symop_operation_xyz
x,y,z
-x,y,1/2-z
-x,-y,-z
x,-y,1/2+z
1/2+x,1/2+y,z
1/2-x,1/2+y,1/2-z
1/2-x,1/2-y,-z
1/2+x,1/2-y,1/2+z
loop_
_atom_site_type_symbol
_atom_site_label
_atom_site_fract_x
_atom_site_fract_y
_atom_site_fract_z
Si Si1 0.285404 0.791219 0.151380
Si Si2 0.256736 0.140735 0.231218
Si Si3 0.276195 0.503945 0.534959
Si Si4 0.105961 0.710788 0.131551
Si Si5 0.853683 0.457300 0.702620
Si Si6 0.482142 0.563314 0.915477
Si Si7 0.937051 0.838761 0.510757
Si Si8 0.721917 0.300212 0.467991
O O1 0.231605 0.741560 0.153087
O O2 0.286440 0.807748 0.309017
O O3 0.410577 0.789975 0.033763
O O4 0.176844 0.819619 0.078053
O O5 0.365377 0.161898 0.322101
O O6 0.280961 0.089614 0.212968
O O7 0.123491 0.153128 0.329125
O O8 0.268433 0.166759 0.084629
O O9 0.223223 0.491335 0.691151
O O10 0.160937 0.522743 0.449733
O O11 0.394844 0.538966 0.525176
O O12 0.346261 0.460024 0.472156
O O13 0.000000 0.728972 0.250000
O O14 0.000000 0.452351 0.750000
O O15 0.500000 0.557847 0.750000
O O16 0.479926 0.613707 0.954503
O O17 0.063996 0.808040 0.483381
O O18 0.750000 0.250000 0.500000
#
# Coordination Sequence:
#
# PCOD9276678 Si02
#       8
#     8   8   8   8   8   8   8   8
#     4  10  22  39  64  93 128 180 227 272 348 417
#     4  11  24  42  66  98 132 177 236 289 346 418
#     4  11  24  42  70 104 142 181 235 293 369 426
#     4  10  20  40  64  89 126 177 227 275 329 409
#     4  12  25  47  71 102 142 193 239 291 360 451
#     4  11  21  40  72 107 141 172 232 309 357 431
#     4  11  23  41  68  96 134 182 226 288 354 423
#     4  12  23  40  60  99 139 174 226 292 351 413
#
# _framework density 21.512281000000002
#
# number of rings (size 3 to 8) (size 9 to 14) (size 15 to 20)
#    0.000    1.000    3.750    3.750    0.000    0.000 
#    2.250    0.625    0.000    0.000    0.000    0.000 
#    0.000    0.000    0.000    0.000    0.000    0.000 
#
# Total GULP energy -178775.983569 kJ/mol
# GULP energy per Si atom -5586.749487 kJ/mol
# Density = 2.146332 g / cm^3
# Si number density = 21.512281 Si / 1000 Ang^3
#
#
#
# Elastic Constant Matrix: (Units=GPa)
#
#
# Indices 1 2 3 4 5 6 
#
# 1 54.8095 11.4108 18.5223 0.0000 3.0641 0.0000
# 2 11.4108 91.0783 6.3451 0.0000 27.1944 0.0000
# 3 18.5223 6.3451 125.8682 0.0000 -4.1425 0.0000
# 4 0.0000 0.0000 0.0000 33.9729 0.0000 -2.8174
# 5 3.0641 27.1944 -4.1425 0.0000 23.8518 0.0000
# 6 0.0000 0.0000 0.0000 -2.8174 0.0000 20.0072
#
#
#
# Elastic Compliance Matrix: (Units=1/GPa)
#
#
# Indices 1 2 3 4 5 6 
#
# 1 0.019663 -0.002074 -0.002810 0.000000 -0.000650 0.000000
# 2 -0.002074 0.017141 -0.001200 0.000000 -0.019485 0.000000
# 3 -0.002810 -0.001200 0.008525 0.000000 0.003210 0.000000
# 4 0.000000 0.000000 0.000000 0.029783 0.000000 0.004194
# 5 -0.000650 -0.019485 0.003210 0.000000 0.064782 0.000000
# 6 0.000000 0.000000 0.000000 0.004194 0.000000 0.050573
#
#
# Mechanical properties :
#
#
# Convention : Reuss Voigt Hill
#
# Bulk Modulus (GPa) = 30.15707 38.25696 34.20701
# Shear Modulus (GPa) = 23.39866 31.26491 27.33178
#
# Velocity S-wave (km/s) = 3.30159 3.81642 3.56830
# Velocity P-wave (km/s) = 5.34630 6.10266 5.73696
#
# Compressibility (1/GPa) = 0.03315972
#
# Stress axis : x y z
#
# Youngs Moduli (GPa) = 50.85754 58.34022 117.30858
#
# Poissons Ratio (x) = 0.12098 0.32968
# Poissons Ratio (y) = 0.10546 0.14079
# Poissons Ratio (z) = 0.14293 0.07002
#
# Static dielectric constant tensor:
#      x y z
#    x 1.864280 0.000000 -0.009390 
#    y 0.000000 1.732230 0.000000 
#    z -0.009390 0.000000 1.802520 
# 
# From -- ./inp_files/35693.got.cif
#   From: 2010.05.17/outbox.cif.g08.bks.cpg/sg15_18_cif.got.tgz:35693.got - 2010.06.03 18:47:42.
