data_PCOD9276830
_publ_section_title
;
Structure prediction by ZEFSAII (Michael W. Deem and Ramdas Pophale) SiO2 
 PCOD9276830
Probable space group: C 2/C
;
_chemical_formula_sum "Si O2"
_cell_formula_units_Z 56
_cell_length_a 14.751805
_cell_length_b 9.623529
_cell_length_c 20.178694
_cell_angle_alpha 90.000000
_cell_angle_beta 120.429755
_cell_angle_gamma 90.000000
_cell_volume 2470.052372
_symmetry_space_group_name_H-M "C 2/C"
_symmetry_group_IT_number 15
_symmetry_cell_setting 'monoclinic'
loop_
_space_group_symop_operation_xyz
x,y,z
-x,y,1/2-z
-x,-y,-z
x,-y,1/2+z
1/2+x,1/2+y,z
1/2-x,1/2+y,1/2-z
1/2-x,1/2-y,-z
1/2+x,1/2-y,1/2+z
loop_
_atom_site_type_symbol
_atom_site_label
_atom_site_fract_x
_atom_site_fract_y
_atom_site_fract_z
Si Si1 0.620419 0.463305 0.556468
Si Si2 0.092832 0.378122 0.233062
Si Si3 0.581546 0.564514 0.191579
Si Si4 0.560503 0.934253 0.604514
Si Si5 0.356452 0.851699 0.472357
Si Si6 0.847736 0.986207 0.633017
Si Si7 0.227151 0.221853 0.606230
O O1 0.500000 0.500000 0.500000
O O2 0.634735 0.464976 0.641477
O O3 0.643843 0.311968 0.537940
O O4 0.687656 0.589162 0.551627
O O5 0.100957 0.510821 0.189348
O O6 0.199006 0.339212 0.309386
O O7 0.000000 0.405220 0.250000
O O8 0.063914 0.231175 0.187712
O O9 0.641314 0.518695 0.281546
O O10 0.465674 0.496532 0.151207
O O11 0.436984 0.895864 0.560399
O O12 0.627945 0.806801 0.599687
O O13 0.585483 0.066714 0.566640
O O14 0.237453 0.905604 0.424939
O O15 0.799177 0.835803 0.597491
#
# Coordination Sequence:
#
# PCOD9276830 Si02
#       7
#     8   8   8   8   8   8   8
#     4  12  24  40  61  93 128 165 210 263 312 373
#     4  11  21  40  65  97 123 157 211 268 315 380
#     4  10  20  40  65  92 126 160 210 267 317 376
#     4  10  21  39  63  94 126 160 210 257 307 379
#     4  10  21  39  63  91 123 169 210 253 312 379
#     4   9  20  41  67  90 121 162 214 261 320 374
#     4  10  22  38  65  92 123 161 206 261 311 371
#
# _framework density 22.671583999999999
#
# number of rings (size 3 to 8) (size 9 to 14) (size 15 to 20)
#    0.000    1.714    5.714    0.000    6.000    0.000 
#    2.571    3.571    0.000    0.000    0.000    0.000 
#    0.000    0.000    0.000    0.000    0.000    0.000 
#
# Total GULP energy -156449.206426 kJ/mol
# GULP energy per Si atom -5587.471658 kJ/mol
# Density = 2.261998 g / cm^3
# Si number density = 22.671584 Si / 1000 Ang^3
#
#
#
# Elastic Constant Matrix: (Units=GPa)
#
#
# Indices 1 2 3 4 5 6 
#
# 1 45.8727 30.7062 31.7481 0.0000 13.3201 0.0000
# 2 30.7062 150.7735 51.1100 0.0000 23.6624 0.0000
# 3 31.7481 51.1100 77.4793 0.0000 19.8799 0.0000
# 4 0.0000 0.0000 0.0000 26.1053 0.0000 10.1465
# 5 13.3201 23.6624 19.8799 0.0000 48.5646 0.0000
# 6 0.0000 0.0000 0.0000 10.1465 0.0000 13.0996
#
#
#
# Elastic Compliance Matrix: (Units=1/GPa)
#
#
# Indices 1 2 3 4 5 6 
#
# 1 0.031630 -0.002350 -0.010591 0.000000 -0.003195 0.000000
# 2 -0.002350 0.008908 -0.004431 0.000000 -0.001882 0.000000
# 3 -0.010591 -0.004431 0.021084 0.000000 -0.003567 0.000000
# 4 0.000000 0.000000 0.000000 0.054806 0.000000 -0.042451
# 5 -0.003195 -0.001882 -0.003567 0.000000 0.023845 0.000000
# 6 0.000000 0.000000 0.000000 -0.042451 0.000000 0.109219
#
#
# Mechanical properties :
#
#
# Convention : Reuss Voigt Hill
#
# Bulk Modulus (GPa) = 37.20248 55.69491 46.44870
# Shear Modulus (GPa) = 17.05345 28.25799 22.65572
#
# Velocity S-wave (km/s) = 2.74559 3.53428 3.16460
# Velocity P-wave (km/s) = 5.14742 6.42449 5.82109
#
# Compressibility (1/GPa) = 0.02687993
#
# Stress axis : x y z
#
# Youngs Moduli (GPa) = 31.61543 112.25380 47.42863
#
# Poissons Ratio (x) = 0.26382 0.50230
# Poissons Ratio (y) = 0.07430 0.21013
# Poissons Ratio (z) = 0.33483 0.49734
#
# Static dielectric constant tensor:
#      x y z
#    x 1.854500 0.000000 0.014800 
#    y 0.000000 1.846230 0.000000 
#    z 0.014800 0.000000 1.586590 
# 
# From -- ./inp_files/276622.got.cif
#   From: 2010.05.17/outbox.cif.g08.bks.cpg/sg15_139_cif.got.tgz:276622.got - 2010.06.03 18:47:42.
