data_PCOD9276020
_publ_section_title
;
Structure prediction by ZEFSAII (Michael W. Deem and Ramdas Pophale) SiO2 
 PCOD9276020
Probable space group: C 2/C
;
_chemical_formula_sum "Si O2"
_cell_formula_units_Z 64
_cell_length_a 22.439730
_cell_length_b 14.737953
_cell_length_c 17.496343
_cell_angle_alpha 90.000000
_cell_angle_beta 154.238274
_cell_angle_gamma 90.000000
_cell_volume 2514.903709
_symmetry_space_group_name_H-M "C 2/C"
_symmetry_group_IT_number 15
_symmetry_cell_setting 'monoclinic'
loop_
_space_group_symop_operation_xyz
x,y,z
-x,y,1/2-z
-x,-y,-z
x,-y,1/2+z
1/2+x,1/2+y,z
1/2-x,1/2+y,1/2-z
1/2-x,1/2-y,-z
1/2+x,1/2-y,1/2+z
loop_
_atom_site_type_symbol
_atom_site_label
_atom_site_fract_x
_atom_site_fract_y
_atom_site_fract_z
Si Si1 0.473526 0.795442 0.114455
Si Si2 0.910411 0.499852 0.050415
Si Si3 0.267911 0.656085 0.944775
Si Si4 0.657677 0.762134 0.695619
Si Si5 0.727766 0.432848 0.210279
Si Si6 0.888647 0.899773 0.002382
Si Si7 0.403443 0.736662 0.708116
Si Si8 0.276491 0.026528 0.045854
O O1 0.393466 0.715475 0.062938
O O2 0.437991 0.792429 0.983896
O O3 0.417569 0.892629 0.076838
O O4 0.634881 0.787178 0.313795
O O5 0.811858 0.547789 0.998853
O O6 0.068138 0.527287 0.241341
O O7 0.847019 0.518730 0.895157
O O8 0.222971 0.605060 0.814182
O O9 0.288866 0.574452 0.027477
O O10 0.680708 0.655100 0.704361
O O11 0.800222 0.818965 0.860654
O O12 0.592916 0.780667 0.703684
O O13 0.618562 0.511118 0.059257
O O14 0.812706 0.921075 0.994771
O O15 0.035182 0.861810 0.197503
O O16 0.500000 0.769172 0.750000
O O17 0.250000 0.750000 0.500000
#
# Coordination Sequence:
#
# PCOD9276020 Si02
#       8
#     8   8   8   8   8   8   8   8
#     4  10  21  38  67  99 137 186 246 312 372 442
#     4  10  20  39  67 103 148 192 259 312 381 458
#     4   9  21  39  64 100 140 186 249 310 375 444
#     4  11  25  42  72 108 144 193 247 309 379 447
#     4  10  23  41  71 111 139 198 255 321 378 452
#     4  11  24  47  73 105 152 198 256 320 383 456
#     4  12  28  50  73 109 150 203 248 310 391 471
#     4   9  22  40  65 104 146 203 247 316 383 456
#
# _framework density 25.44829
#
# number of rings (size 3 to 8) (size 9 to 14) (size 15 to 20)
#    0.000    1.750    2.500    0.000    7.000    2.500 
#    2.250    2.500    0.000    0.000    0.000    0.000 
#    0.000    0.000    0.000    0.000    0.000    0.000 
#
# Total GULP energy -179045.911018 kJ/mol
# GULP energy per Si atom -5595.184719 kJ/mol
# Density = 2.539037 g / cm^3
# Si number density = 25.448290 Si / 1000 Ang^3
#
#
#
# Elastic Constant Matrix: (Units=GPa)
#
#
# Indices 1 2 3 4 5 6 
#
# 1 130.9536 28.0915 31.1551 0.0001 -5.9970 0.0000
# 2 28.0915 135.8114 36.6251 0.0000 15.7097 0.0000
# 3 31.1551 36.6251 108.1823 0.0001 -4.2118 0.0000
# 4 0.0001 0.0000 0.0001 33.0596 0.0000 3.5999
# 5 -5.9970 15.7097 -4.2118 0.0000 50.8261 0.0000
# 6 0.0000 0.0000 0.0000 3.5999 0.0000 41.6155
#
#
#
# Elastic Compliance Matrix: (Units=1/GPa)
#
#
# Indices 1 2 3 4 5 6 
#
# 1 0.008445 -0.001376 -0.001917 0.000000 0.001263 0.000000
# 2 -0.001376 0.008726 -0.002678 0.000000 -0.003081 0.000000
# 3 -0.001917 -0.002678 0.010761 0.000000 0.001493 0.000000
# 4 0.000000 0.000000 0.000000 0.030536 0.000000 -0.002641
# 5 0.001263 -0.003081 0.001493 0.000000 0.020900 0.000000
# 6 0.000000 0.000000 0.000000 -0.002641 0.000000 0.024258
#
#
# Mechanical properties :
#
#
# Convention : Reuss Voigt Hill
#
# Bulk Modulus (GPa) = 62.53883 62.96564 62.75223
# Shear Modulus (GPa) = 41.35686 43.70526 42.53106
#
# Velocity S-wave (km/s) = 4.03567 4.14867 4.09256
# Velocity P-wave (km/s) = 6.80762 6.90977 6.85888
#
# Compressibility (1/GPa) = 0.01599007
#
# Stress axis : x y z
#
# Youngs Moduli (GPa) = 118.40762 114.59475 92.93198
#
# Poissons Ratio (x) = 0.15767 0.17817
# Poissons Ratio (y) = 0.16292 0.24888
# Poissons Ratio (z) = 0.22701 0.30689
#
# Static dielectric constant tensor:
#      x y z
#    x 1.960800 0.000000 -0.013570 
#    y 0.000000 2.115670 0.000000 
#    z -0.013570 0.000000 1.959010 
# 
# From -- ./inp_files/219745.got.cif
#   From: 2010.05.17/outbox.cif.g08.bks.cpg/sg15_110_cif.got.tgz:219745.got - 2010.06.03 18:47:42.
