data_PCOD9276368
_publ_section_title
;
Structure prediction by ZEFSAII (Michael W. Deem and Ramdas Pophale) SiO2 
 PCOD9276368
Probable space group: C 2/C
;
_chemical_formula_sum "Si O2"
_cell_formula_units_Z 44
_cell_length_a 16.543352
_cell_length_b 10.479446
_cell_length_c 9.795317
_cell_angle_alpha 90.000000
_cell_angle_beta 101.580126
_cell_angle_gamma 90.000000
_cell_volume 1663.600448
_symmetry_space_group_name_H-M "C 2/C"
_symmetry_group_IT_number 15
_symmetry_cell_setting 'monoclinic'
loop_
_space_group_symop_operation_xyz
x,y,z
-x,y,1/2-z
-x,-y,-z
x,-y,1/2+z
1/2+x,1/2+y,z
1/2-x,1/2+y,1/2-z
1/2-x,1/2-y,-z
1/2+x,1/2-y,1/2+z
loop_
_atom_site_type_symbol
_atom_site_label
_atom_site_fract_x
_atom_site_fract_y
_atom_site_fract_z
Si Si1 0.581709 0.854228 0.355859
Si Si2 0.484372 0.647381 0.470611
Si Si3 0.792969 0.857481 0.917478
Si Si4 0.259341 0.368205 0.397892
Si Si5 0.652603 0.846391 0.671960
Si Si6 0.000000 0.693161 0.250000
O O1 0.500000 0.902114 0.250000
O O2 0.548852 0.712350 0.387937
O O3 0.667240 0.870057 0.303031
O O4 0.613078 0.901626 0.518441
O O5 0.500000 0.500000 0.500000
O O6 0.387267 0.668389 0.410220
O O7 0.496420 0.723861 0.614211
O O8 0.740897 0.883820 0.761358
O O9 0.785660 0.000481 0.976721
O O10 0.750000 0.750000 0.000000
O O11 0.250000 0.250000 0.500000
O O12 0.331120 0.308461 0.329433
O O13 0.587138 0.876085 0.767538
#
# Coordination Sequence:
#
# PCOD9276368 Si02
#       6
#     8   8   8   8   8   4
#     4  10  22  44  66  97 138 184 236 297 362 429
#     4  11  23  41  69 104 139 192 241 300 360 431
#     4  12  24  44  73 106 144 191 241 298 369 433
#     4  10  23  46  69 105 144 188 237 301 363 434
#     4  10  22  42  68  99 146 186 240 294 364 437
#     4  10  20  40  60  98 144 180 238 300 350 434
#
# _framework density 26.448661000000001
#
# number of rings (size 3 to 8) (size 9 to 14) (size 15 to 20)
#    0.000    1.455    1.818    4.364    1.273    2.909 
#   11.455    1.818    0.000    0.000    0.000    0.000 
#    0.000    0.000    0.000    0.000    0.000    0.000 
#
# Total GULP energy -122704.938708 kJ/mol
# GULP energy per Si atom -5577.497214 kJ/mol
# Density = 2.638846 g / cm^3
# Si number density = 26.448661 Si / 1000 Ang^3
#
#
#
# Elastic Constant Matrix: (Units=GPa)
#
#
# Indices 1 2 3 4 5 6 
#
# 1 205.0433 30.4174 34.3866 0.0000 44.9589 0.0000
# 2 30.4174 127.3397 -4.1392 0.0000 -3.8088 0.0000
# 3 34.3866 -4.1392 114.1289 0.0000 34.7995 0.0000
# 4 0.0000 0.0000 0.0000 15.9404 0.0000 6.9432
# 5 44.9589 -3.8088 34.7995 0.0000 49.0984 0.0000
# 6 0.0000 0.0000 0.0000 6.9432 0.0000 51.3704
#
#
#
# Elastic Compliance Matrix: (Units=1/GPa)
#
#
# Indices 1 2 3 4 5 6 
#
# 1 0.006463 -0.001727 -0.000210 0.000000 -0.005903 0.000000
# 2 -0.001727 0.008334 0.000183 0.000000 0.002099 0.000000
# 3 -0.000210 0.000183 0.011187 0.000000 -0.007722 0.000000
# 4 0.000000 0.000000 0.000000 0.066658 0.000000 -0.009009
# 5 -0.005903 0.002099 -0.007722 0.000000 0.031409 0.000000
# 6 0.000000 0.000000 0.000000 -0.009009 0.000000 0.020684
#
#
# Mechanical properties :
#
#
# Convention : Reuss Voigt Hill
#
# Bulk Modulus (GPa) = 44.49380 63.09350 53.79365
# Shear Modulus (GPa) = 32.10591 49.00498 40.55544
#
# Velocity S-wave (km/s) = 3.48788 4.30913 3.92007
# Velocity P-wave (km/s) = 5.75149 6.97603 6.39314
#
# Compressibility (1/GPa) = 0.02247504
#
# Stress axis : x y z
#
# Youngs Moduli (GPa) = 154.73204 119.98635 89.39323
#
# Poissons Ratio (x) = 0.20723 0.01876
# Poissons Ratio (y) = 0.26724 -0.01634
# Poissons Ratio (z) = 0.03248 -0.02193
#
# Static dielectric constant tensor:
#      x y z
#    x 2.383870 0.000000 -0.171630 
#    y 0.000000 2.377070 0.000000 
#    z -0.171630 0.000000 2.297080 
# 
# From -- ./inp_files/103889.got.cif
#   From: 2010.05.17/outbox.cif.g08.bks.cpg/sg15_52_cif.got.tgz:103889.got - 2010.06.03 18:47:42.
