data_PCOD9276721
_publ_section_title
;
Structure prediction by ZEFSAII (Michael W. Deem and Ramdas Pophale) SiO2 
 PCOD9276721
Probable space group: C 2/C
;
_chemical_formula_sum "Si O2"
_cell_formula_units_Z 32
_cell_length_a 24.327074
_cell_length_b 11.188978
_cell_length_c 17.898101
_cell_angle_alpha 90.000000
_cell_angle_beta 162.426726
_cell_angle_gamma 90.000000
_cell_volume 1470.911911
_symmetry_space_group_name_H-M "C 2/C"
_symmetry_group_IT_number 15
_symmetry_cell_setting 'monoclinic'
loop_
_space_group_symop_operation_xyz
x,y,z
-x,y,1/2-z
-x,-y,-z
x,-y,1/2+z
1/2+x,1/2+y,z
1/2-x,1/2+y,1/2-z
1/2-x,1/2-y,-z
1/2+x,1/2-y,1/2+z
loop_
_atom_site_type_symbol
_atom_site_label
_atom_site_fract_x
_atom_site_fract_y
_atom_site_fract_z
Si Si1 0.737505 0.885970 0.956551
Si Si2 0.964304 0.266071 0.280822
Si Si3 0.081353 0.519478 0.023007
Si Si4 0.423168 0.499561 0.550015
O O1 0.530848 0.931859 0.677489
O O2 0.750000 0.750000 0.000000
O O3 0.829596 0.920398 0.994853
O O4 0.867809 0.958449 0.182419
O O5 0.000000 0.333380 0.250000
O O6 0.030819 0.347183 0.433697
O O7 0.067368 0.139421 0.414519
O O8 0.750000 0.250000 0.000000
O O9 0.297367 0.507356 0.314017
O O10 0.000000 0.500000 0.000000
#
# Coordination Sequence:
#
# PCOD9276721 Si02
#       4
#     8   8   8   8
#     4  10  20  40  64  92 138 175 217 284 347 402
#     4  12  22  45  73  97 141 187 234 290 340 418
#     4  10  22  41  66  98 134 183 228 279 347 408
#     4  10  21  42  63  95 131 179 225 282 340 407
#
# _framework density 21.755212
#
# number of rings (size 3 to 8) (size 9 to 14) (size 15 to 20)
#    0.000    1.500    5.000    1.500    3.500    0.000 
#    4.500    1.250    0.000    0.000    0.000    0.000 
#    0.000    0.000    0.000    0.000    0.000    0.000 
#
# Total GULP energy -89195.347155 kJ/mol
# GULP energy per Si atom -5574.709197 kJ/mol
# Density = 2.170570 g / cm^3
# Si number density = 21.755212 Si / 1000 Ang^3
#
#
#
# Elastic Constant Matrix: (Units=GPa)
#
#
# Indices 1 2 3 4 5 6 
#
# 1 47.0215 31.1669 14.4724 0.0000 -4.3513 0.0000
# 2 31.1669 159.4776 56.8858 0.0000 -27.0455 0.0000
# 3 14.4724 56.8858 240.2992 0.0000 -18.8004 0.0000
# 4 0.0000 0.0000 0.0000 43.6703 0.0000 -13.1156
# 5 -4.3513 -27.0455 -18.8004 0.0000 14.9154 0.0000
# 6 0.0000 0.0000 0.0000 -13.1156 0.0000 34.9881
#
#
#
# Elastic Compliance Matrix: (Units=1/GPa)
#
#
# Indices 1 2 3 4 5 6 
#
# 1 0.024532 -0.005071 -0.000484 0.000000 -0.002648 0.000000
# 2 -0.005071 0.010304 -0.000874 0.000000 0.016103 0.000000
# 3 -0.000484 -0.000874 0.004729 0.000000 0.004234 0.000000
# 4 0.000000 0.000000 0.000000 0.025804 0.000000 0.009673
# 5 -0.002648 0.016103 0.004234 0.000000 0.100809 0.000000
# 6 0.000000 0.000000 0.000000 0.009673 0.000000 0.032207
#
#
# Mechanical properties :
#
#
# Convention : Reuss Voigt Hill
#
# Bulk Modulus (GPa) = 37.44353 72.42761 54.93557
# Shear Modulus (GPa) = 22.71236 41.66631 32.18934
#
# Velocity S-wave (km/s) = 3.23460 4.38109 3.85075
# Velocity P-wave (km/s) = 5.58559 7.67830 6.71398
#
# Compressibility (1/GPa) = 0.02670689
#
# Stress axis : x y z
#
# Youngs Moduli (GPa) = 40.76339 97.04901 211.46809
#
# Poissons Ratio (x) = 0.49210 0.10241
# Poissons Ratio (y) = 0.20670 0.18483
# Poissons Ratio (z) = 0.01974 0.08482
#
# Static dielectric constant tensor:
#      x y z
#    x 1.751940 0.000000 -0.050760 
#    y 0.000000 1.781210 0.000000 
#    z -0.050760 0.000000 1.819310 
# 
# From -- ./inp_files/203341.got.cif
#   From: 2010.05.17/outbox.cif.g08.bks.cpg/sg15_102_cif.got.tgz:203341.got - 2010.06.03 18:47:42.
