data_PCOD9276081
_publ_section_title
;
Structure prediction by ZEFSAII (Michael W. Deem and Ramdas Pophale) SiO2 
 PCOD9276081
Probable space group: C 2/C
;
_chemical_formula_sum "Si O2"
_cell_formula_units_Z 40
_cell_length_a 11.561876
_cell_length_b 14.226102
_cell_length_c 10.502569
_cell_angle_alpha 90.000000
_cell_angle_beta 106.795231
_cell_angle_gamma 90.000000
_cell_volume 1653.779428
_symmetry_space_group_name_H-M "C 2/C"
_symmetry_group_IT_number 15
_symmetry_cell_setting 'monoclinic'
loop_
_space_group_symop_operation_xyz
x,y,z
-x,y,1/2-z
-x,-y,-z
x,-y,1/2+z
1/2+x,1/2+y,z
1/2-x,1/2+y,1/2-z
1/2-x,1/2-y,-z
1/2+x,1/2-y,1/2+z
loop_
_atom_site_type_symbol
_atom_site_label
_atom_site_fract_x
_atom_site_fract_y
_atom_site_fract_z
Si Si1 0.365152 0.000082 0.901741
Si Si2 0.500000 0.269444 0.250000
Si Si3 0.393326 0.803725 0.966611
Si Si4 0.500000 0.101088 0.750000
Si Si5 0.462302 0.375996 0.597688
Si Si6 0.144167 0.914114 0.440242
O O1 0.387541 0.038848 0.766833
O O2 0.284008 0.066726 0.962954
O O3 0.315005 0.893820 0.897285
O O4 0.500000 0.000000 0.000000
O O5 0.526083 0.209255 0.134137
O O6 0.607382 0.341376 0.318004
O O7 0.458092 0.838460 0.116155
O O8 0.367554 0.695156 0.997613
O O9 0.500000 0.346385 0.750000
O O10 0.583872 0.374674 0.549205
O O11 0.417396 0.483252 0.592139
#
# Coordination Sequence:
#
# PCOD9276081 Si02
#       6
#     8   4   8   4   8   8
#     4  10  23  43  62  92 136 183 218 272 341 405
#     4  10  21  43  68 102 138 174 226 281 345 402
#     4  10  21  41  67  98 133 169 231 276 328 405
#     4  10  21  43  66  92 136 176 222 269 333 408
#     4  10  20  39  67  98 128 169 227 284 331 393
#     4  10  22  41  66  97 136 177 219 277 348 402
#
# _framework density 24.187021000000001
#
# number of rings (size 3 to 8) (size 9 to 14) (size 15 to 20)
#    0.000    2.000    2.000    0.600    0.000    4.000 
#    3.600   16.000    0.000    0.000    0.000    0.000 
#    0.000    0.000    0.000    0.000    0.000    0.000 
#
# Total GULP energy -111492.350676 kJ/mol
# GULP energy per Si atom -5574.617534 kJ/mol
# Density = 2.413197 g / cm^3
# Si number density = 24.187021 Si / 1000 Ang^3
#
#
#
# Elastic Constant Matrix: (Units=GPa)
#
#
# Indices 1 2 3 4 5 6 
#
# 1 110.2766 16.1556 32.7340 0.0000 -26.8646 0.0000
# 2 16.1556 108.1508 52.9102 0.0000 -23.7427 0.0000
# 3 32.7340 52.9102 148.7969 0.0000 -31.5629 0.0000
# 4 0.0000 0.0000 0.0000 45.9142 0.0000 -7.0461
# 5 -26.8646 -23.7427 -31.5629 0.0000 28.2414 0.0000
# 6 0.0000 0.0000 0.0000 -7.0461 0.0000 16.6255
#
#
#
# Elastic Compliance Matrix: (Units=1/GPa)
#
#
# Indices 1 2 3 4 5 6 
#
# 1 0.011898 0.001023 -0.000522 0.000000 0.011595 0.000000
# 2 0.001023 0.012274 -0.002876 0.000000 0.008078 0.000000
# 3 -0.000522 -0.002876 0.009490 0.000000 0.007691 0.000000
# 4 0.000000 0.000000 0.000000 0.023295 0.000000 0.009873
# 5 0.011595 0.008078 0.007691 0.000000 0.061826 0.000000
# 6 0.000000 0.000000 0.000000 0.009873 0.000000 0.064333
#
#
# Mechanical properties :
#
#
# Convention : Reuss Voigt Hill
#
# Bulk Modulus (GPa) = 34.58737 63.42485 49.00611
# Shear Modulus (GPa) = 25.31638 35.85120 30.58379
#
# Velocity S-wave (km/s) = 3.23877 3.85418 3.55980
# Velocity P-wave (km/s) = 5.32139 6.78866 6.09931
#
# Compressibility (1/GPa) = 0.02891228
#
# Stress axis : x y z
#
# Youngs Moduli (GPa) = 84.04979 81.47378 105.37922
#
# Poissons Ratio (x) = -0.08339 0.05499
# Poissons Ratio (y) = -0.08602 0.30308
# Poissons Ratio (z) = 0.04386 0.23433
#
# Static dielectric constant tensor:
#      x y z
#    x 1.960980 0.000000 -0.001810 
#    y 0.000000 2.041070 0.000000 
#    z -0.001810 0.000000 1.923750 
# 
# From -- ./inp_files/85665.got.cif
#   From: 2010.05.17/outbox.cif.g08.bks.cpg/sg15_43_cif.got.tgz:85665.got - 2010.06.03 18:47:42.
