data_PCOD9276397
_publ_section_title
;
Structure prediction by ZEFSAII (Michael W. Deem and Ramdas Pophale) SiO2 
 PCOD9276397
Probable space group: C 2/C
;
_chemical_formula_sum "Si O2"
_cell_formula_units_Z 64
_cell_length_a 21.290349
_cell_length_b 6.619960
_cell_length_c 21.294145
_cell_angle_alpha 90.000000
_cell_angle_beta 71.266206
_cell_angle_gamma 90.000000
_cell_volume 2842.221806
_symmetry_space_group_name_H-M "C 2/C"
_symmetry_group_IT_number 15
_symmetry_cell_setting 'monoclinic'
loop_
_space_group_symop_operation_xyz
x,y,z
-x,y,1/2-z
-x,-y,-z
x,-y,1/2+z
1/2+x,1/2+y,z
1/2-x,1/2+y,1/2-z
1/2-x,1/2-y,-z
1/2+x,1/2-y,1/2+z
loop_
_atom_site_type_symbol
_atom_site_label
_atom_site_fract_x
_atom_site_fract_y
_atom_site_fract_z
Si Si1 0.168075 0.298101 0.467410
Si Si2 0.610811 0.925285 0.890113
Si Si3 0.030812 0.849353 0.340706
Si Si4 0.687307 0.455727 0.078580
Si Si5 0.403548 0.251368 0.311823
Si Si6 0.209164 0.044658 0.853474
Si Si7 0.643608 0.826350 0.159073
Si Si8 0.123364 0.194719 0.298867
O O1 0.114871 0.444300 0.452344
O O2 0.234376 0.433283 0.456731
O O3 0.153605 0.180381 0.535938
O O4 0.187012 0.118200 0.413045
O O5 0.626606 0.088862 0.830709
O O6 0.544140 0.807354 0.892293
O O7 0.666615 0.749867 0.873303
O O8 0.074078 0.766356 0.267205
O O9 0.062817 0.064452 0.346662
O O10 0.957942 0.864823 0.336527
O O11 0.660513 0.681812 0.095449
O O12 0.667394 0.348451 0.150365
O O13 0.400964 0.021646 0.336633
O O14 0.285498 0.096533 0.837761
O O15 0.188699 0.934049 0.795467
O O16 0.612353 0.711466 0.228440
#
# Coordination Sequence:
#
# PCOD9276397 Si02
#       8
#     8   8   8   8   8   8   8   8
#     4  10  22  40  61  86 126 163 203 249 301 361
#     4  10  20  40  61  89 117 162 200 249 308 361
#     4  10  22  41  61  85 124 157 204 251 305 369
#     4  11  23  39  59  90 125 163 203 249 301 366
#     4  11  23  40  59  90 123 160 201 252 307 371
#     4  10  22  34  59  90 126 156 197 251 310 375
#     4  12  22  35  58  93 125 157 199 246 321 370
#     4  10  22  35  59  90 122 157 196 254 310 375
#
# _framework density 22.517595
#
# number of rings (size 3 to 8) (size 9 to 14) (size 15 to 20)
#    0.000    1.500    5.000    0.000    1.750    2.500 
#    0.000    0.625    0.000    7.500    0.000    0.000 
#    0.000    0.000    0.000    0.000    0.000    0.000 
#
# Total GULP energy -178708.399105 kJ/mol
# GULP energy per Si atom -5584.637472 kJ/mol
# Density = 2.246634 g / cm^3
# Si number density = 22.517595 Si / 1000 Ang^3
#
#
#
# Elastic Constant Matrix: (Units=GPa)
#
#
# Indices 1 2 3 4 5 6 
#
# 1 45.7707 3.2993 -4.5414 0.0001 13.4329 0.0000
# 2 3.2993 93.1459 -3.4754 0.0004 1.0412 0.0002
# 3 -4.5414 -3.4754 35.3046 0.0002 1.9729 0.0002
# 4 0.0001 0.0004 0.0002 26.4477 0.0002 7.9864
# 5 13.4329 1.0412 1.9729 0.0002 21.5432 -0.0001
# 6 0.0000 0.0002 0.0002 7.9864 -0.0001 23.2406
#
#
#
# Elastic Compliance Matrix: (Units=1/GPa)
#
#
# Indices 1 2 3 4 5 6 
#
# 1 0.027472 -0.000611 0.004452 0.000000 -0.017508 0.000000
# 2 -0.000611 0.010797 0.000997 0.000000 -0.000232 0.000000
# 3 0.004452 0.000997 0.029304 0.000000 -0.005508 0.000000
# 4 0.000000 0.000000 0.000000 0.042188 0.000000 -0.014498
# 5 -0.017508 -0.000232 -0.005508 0.000000 0.057851 0.000000
# 6 0.000000 0.000000 0.000000 -0.014498 0.000000 0.048010
#
#
# Mechanical properties :
#
#
# Convention : Reuss Voigt Hill
#
# Bulk Modulus (GPa) = 12.94515 18.30959 15.62737
# Shear Modulus (GPa) = 21.58002 26.17555 23.87779
#
# Velocity S-wave (km/s) = 3.09910 3.41317 3.25992
# Velocity P-wave (km/s) = 4.30898 4.86640 4.59615
#
# Compressibility (1/GPa) = 0.07724899
#
# Stress axis : x y z
#
# Youngs Moduli (GPa) = 36.40056 92.61577 34.12557
#
# Poissons Ratio (x) = 0.05661 -0.15193
# Poissons Ratio (y) = 0.02225 -0.03403
# Poissons Ratio (z) = -0.16206 -0.09236
#
# Static dielectric constant tensor:
#      x y z
#    x 1.813350 0.000000 0.031420 
#    y 0.000000 1.871910 0.000000 
#    z 0.031420 0.000000 1.831820 
# 
# From -- ./inp_files/281196.got.cif
#   From: 2010.05.17/outbox.cif.g08.bks.cpg/sg15_141_cif.got.tgz:281196.got - 2010.06.03 18:47:42.
