data_PCOD9276690
_publ_section_title
;
Structure prediction by ZEFSAII (Michael W. Deem and Ramdas Pophale) SiO2 
 PCOD9276690
Probable space group: C 2/C
;
_chemical_formula_sum "Si O2"
_cell_formula_units_Z 56
_cell_length_a 24.095807
_cell_length_b 15.539793
_cell_length_c 8.008741
_cell_angle_alpha 90.000000
_cell_angle_beta 53.573401
_cell_angle_gamma 90.000000
_cell_volume 2412.908303
_symmetry_space_group_name_H-M "C 2/C"
_symmetry_group_IT_number 15
_symmetry_cell_setting 'monoclinic'
loop_
_space_group_symop_operation_xyz
x,y,z
-x,y,1/2-z
-x,-y,-z
x,-y,1/2+z
1/2+x,1/2+y,z
1/2-x,1/2+y,1/2-z
1/2-x,1/2-y,-z
1/2+x,1/2-y,1/2+z
loop_
_atom_site_type_symbol
_atom_site_label
_atom_site_fract_x
_atom_site_fract_y
_atom_site_fract_z
Si Si1 0.910735 0.922903 0.058295
Si Si2 0.564120 0.393639 0.876887
Si Si3 0.427713 0.964452 0.272740
Si Si4 0.334912 0.267718 0.670366
Si Si5 0.641211 0.744208 0.751219
Si Si6 0.301161 0.849775 0.544523
Si Si7 0.979384 0.353907 0.604937
O O1 0.856044 0.858377 0.234877
O O2 0.902385 0.024064 0.092784
O O3 0.917757 0.897882 0.851888
O O4 0.982030 0.904133 0.029263
O O5 0.591818 0.307421 0.909261
O O6 0.500000 0.962289 0.250000
O O7 0.353460 0.931094 0.467417
O O8 0.427809 0.062703 0.210968
O O9 0.451529 0.894417 0.094562
O O10 0.336043 0.235086 0.477998
O O11 0.315069 0.195728 0.841231
O O12 0.281444 0.347730 0.791864
O O13 0.562996 0.780978 0.913260
O O14 0.679910 0.787538 0.834922
O O15 0.000000 0.324594 0.750000
#
# Coordination Sequence:
#
# PCOD9276690 Si02
#       7
#     8   8   8   8   8   8   8
#     4  10  22  37  69  95 130 165 215 271 328 381
#     4  10  21  42  61  99 132 168 212 272 324 387
#     4  10  20  40  64  90 128 162 213 271 322 380
#     4  11  25  42  64  91 136 167 219 264 319 395
#     4  12  23  40  68  96 128 170 217 266 328 386
#     4  11  24  44  64  91 128 178 213 266 322 389
#     4  10  22  36  63 100 127 157 209 278 321 382
#
# _framework density 23.208507000000001
#
# number of rings (size 3 to 8) (size 9 to 14) (size 15 to 20)
#    0.000    1.429    2.857    2.143    4.000    1.143 
#    0.000    4.286    0.000    0.000    0.000    0.000 
#    0.000    0.000    0.000    0.000    0.000    0.000 
#
# Total GULP energy -156306.314272 kJ/mol
# GULP energy per Si atom -5582.368367 kJ/mol
# Density = 2.315568 g / cm^3
# Si number density = 23.208507 Si / 1000 Ang^3
#
#
#
# Elastic Constant Matrix: (Units=GPa)
#
#
# Indices 1 2 3 4 5 6 
#
# 1 37.2120 -5.6133 14.5121 0.0000 3.1929 0.0000
# 2 -5.6133 74.7613 11.6569 0.0000 -7.5536 0.0000
# 3 14.5121 11.6569 65.9364 0.0000 7.2694 0.0000
# 4 0.0000 0.0000 0.0000 31.7797 0.0000 -3.0040
# 5 3.1929 -7.5536 7.2694 0.0000 41.9222 0.0000
# 6 0.0000 0.0000 0.0000 -3.0040 0.0000 20.6550
#
#
#
# Elastic Compliance Matrix: (Units=1/GPa)
#
#
# Indices 1 2 3 4 5 6 
#
# 1 0.030222 0.003345 -0.007193 0.000000 -0.000452 0.000000
# 2 0.003345 0.014494 -0.003628 0.000000 0.002986 0.000000
# 3 -0.007193 -0.003628 0.017741 0.000000 -0.003182 0.000000
# 4 0.000000 0.000000 0.000000 0.031905 0.000000 0.004640
# 5 -0.000452 0.002986 -0.003182 0.000000 0.024978 0.000000
# 6 0.000000 0.000000 0.000000 0.004640 0.000000 0.049089
#
#
# Mechanical properties :
#
#
# Convention : Reuss Voigt Hill
#
# Bulk Modulus (GPa) = 21.05012 24.33566 22.69289
# Shear Modulus (GPa) = 25.09826 29.36166 27.22996
#
# Velocity S-wave (km/s) = 3.29207 3.56072 3.42903
# Velocity P-wave (km/s) = 4.85180 5.23578 5.04744
#
# Compressibility (1/GPa) = 0.04750568
#
# Stress axis : x y z
#
# Youngs Moduli (GPa) = 33.08889 68.99209 56.36507
#
# Poissons Ratio (x) = -0.23078 0.40544
# Poissons Ratio (y) = -0.11068 0.20449
# Poissons Ratio (z) = 0.23801 0.25030
#
# Static dielectric constant tensor:
#      x y z
#    x 1.938580 0.000000 -0.050320 
#    y 0.000000 1.864240 0.000000 
#    z -0.050320 0.000000 2.005880 
# 
# From -- ./inp_files/62669.got.cif
#   From: 2010.05.17/outbox.cif.g08.bks.cpg/sg15_32_cif.got.tgz:62669.got - 2010.06.03 18:47:42.
