data_PCOD9276095
_publ_section_title
;
Structure prediction by ZEFSAII (Michael W. Deem and Ramdas Pophale) SiO2 
 PCOD9276095
Probable space group: C 2/C
;
_chemical_formula_sum "Si O2"
_cell_formula_units_Z 44
_cell_length_a 15.500566
_cell_length_b 22.635436
_cell_length_c 5.716324
_cell_angle_alpha 90.000000
_cell_angle_beta 70.535285
_cell_angle_gamma 90.000000
_cell_volume 1891.012621
_symmetry_space_group_name_H-M "C 2/C"
_symmetry_group_IT_number 15
_symmetry_cell_setting 'monoclinic'
loop_
_space_group_symop_operation_xyz
x,y,z
-x,y,1/2-z
-x,-y,-z
x,-y,1/2+z
1/2+x,1/2+y,z
1/2-x,1/2+y,1/2-z
1/2-x,1/2-y,-z
1/2+x,1/2-y,1/2+z
loop_
_atom_site_type_symbol
_atom_site_label
_atom_site_fract_x
_atom_site_fract_y
_atom_site_fract_z
Si Si1 0.798563 0.419185 0.373452
Si Si2 0.631669 0.514230 0.518583
Si Si3 0.188971 0.137456 0.602842
Si Si4 0.052387 0.784372 0.452198
Si Si5 0.785348 0.297879 0.652920
Si Si6 0.500000 0.032522 0.750000
O O1 0.726145 0.473886 0.456215
O O2 0.778590 0.391695 0.136475
O O3 0.782241 0.363872 0.556804
O O4 0.902302 0.435743 0.325500
O O5 0.588933 0.495189 0.312436
O O6 0.644969 0.584632 0.497207
O O7 0.121120 0.159600 0.867666
O O8 0.217085 0.194682 0.431987
O O9 0.112758 0.724668 0.389219
O O10 0.000000 0.787441 0.250000
O O11 0.000000 0.786544 0.750000
O O12 0.750000 0.250000 0.500000
O O13 0.500000 0.000000 0.500000
#
# Coordination Sequence:
#
# PCOD9276095 Si02
#       6
#     8   8   8   8   8   4
#     4  11  25  43  73 106 148 191 247 299 373 451
#     4  10  20  39  68 104 130 178 233 291 351 426
#     4  11  24  46  78 101 146 196 257 299 373 459
#     4  12  29  47  70 107 151 192 247 319 378 430
#     4  12  25  46  73 110 141 201 257 304 368 461
#     4  12  28  46  68 114 162 192 238 310 380 454
#
# _framework density 23.267958
#
# number of rings (size 3 to 8) (size 9 to 14) (size 15 to 20)
#    0.000    0.727    3.636    3.818    6.364    0.000 
#    0.000    0.000    0.000   13.091    0.000    0.000 
#    0.000    0.000    0.000    0.000    0.000    0.000 
#
# Total GULP energy -122787.753369 kJ/mol
# GULP energy per Si atom -5581.261517 kJ/mol
# Density = 2.321500 g / cm^3
# Si number density = 23.267958 Si / 1000 Ang^3
#
#
#
# Elastic Constant Matrix: (Units=GPa)
#
#
# Indices 1 2 3 4 5 6 
#
# 1 115.6401 14.4068 61.3925 0.0000 12.4093 0.0000
# 2 14.4068 120.6844 69.1067 0.0000 -9.2851 0.0000
# 3 61.3925 69.1067 185.1853 0.0000 2.6258 0.0000
# 4 0.0000 0.0000 0.0000 46.5175 0.0000 9.3401
# 5 12.4093 -9.2851 2.6258 0.0000 39.4215 0.0000
# 6 0.0000 0.0000 0.0000 9.3401 0.0000 34.0127
#
#
#
# Elastic Compliance Matrix: (Units=1/GPa)
#
#
# Indices 1 2 3 4 5 6 
#
# 1 0.010920 0.000651 -0.003820 0.000000 -0.003030 0.000000
# 2 0.000651 0.010882 -0.004314 0.000000 0.002646 0.000000
# 3 -0.003820 -0.004314 0.008282 0.000000 -0.000365 0.000000
# 4 0.000000 0.000000 0.000000 0.022752 0.000000 -0.006248
# 5 -0.003030 0.002646 -0.000365 0.000000 0.026968 0.000000
# 6 0.000000 0.000000 0.000000 -0.006248 0.000000 0.031116
#
#
# Mechanical properties :
#
#
# Convention : Reuss Voigt Hill
#
# Bulk Modulus (GPa) = 66.15266 79.03574 72.59420
# Shear Modulus (GPa) = 38.18963 42.43058 40.31011
#
# Velocity S-wave (km/s) = 4.05569 4.27495 4.16676
# Velocity P-wave (km/s) = 7.10099 7.64253 7.37673
#
# Compressibility (1/GPa) = 0.01511655
#
# Stress axis : x y z
#
# Youngs Moduli (GPa) = 91.57911 91.89132 120.75027
#
# Poissons Ratio (x) = -0.05980 0.46126
# Poissons Ratio (y) = -0.05960 0.52095
# Poissons Ratio (z) = 0.34983 0.39645
#
# Static dielectric constant tensor:
#      x y z
#    x 2.191980 0.000000 -0.280140 
#    y 0.000000 1.867620 0.000000 
#    z -0.280140 0.000000 2.298820 
# 
# From -- ./inp_files/10855.got.cif
#   From: 2010.05.17/outbox.cif.g08.bks.cpg/sg15_6_cif.got.tgz:10855.got - 2010.06.03 18:47:42.
