data_PCOD9276731
_publ_section_title
;
Structure prediction by ZEFSAII (Michael W. Deem and Ramdas Pophale) SiO2 
 PCOD9276731
Probable space group: C 2/C
;
_chemical_formula_sum "Si O2"
_cell_formula_units_Z 64
_cell_length_a 29.220947
_cell_length_b 8.396580
_cell_length_c 14.945595
_cell_angle_alpha 90.000000
_cell_angle_beta 54.363965
_cell_angle_gamma 90.000000
_cell_volume 2980.290609
_symmetry_space_group_name_H-M "C 2/C"
_symmetry_group_IT_number 15
_symmetry_cell_setting 'monoclinic'
loop_
_space_group_symop_operation_xyz
x,y,z
-x,y,1/2-z
-x,-y,-z
x,-y,1/2+z
1/2+x,1/2+y,z
1/2-x,1/2+y,1/2-z
1/2-x,1/2-y,-z
1/2+x,1/2-y,1/2+z
loop_
_atom_site_type_symbol
_atom_site_label
_atom_site_fract_x
_atom_site_fract_y
_atom_site_fract_z
Si Si1 0.221267 0.378779 0.884180
Si Si2 0.652577 0.481880 0.946209
Si Si3 0.917606 0.227749 0.195161
Si Si4 0.600188 0.240724 0.579903
Si Si5 0.530978 0.158863 0.496347
Si Si6 0.622866 0.626984 0.799287
Si Si7 0.179143 0.670766 0.814239
Si Si8 0.711573 0.599942 0.556588
O O1 0.197874 0.506879 0.838491
O O2 0.265492 0.257249 0.788872
O O3 0.257587 0.471563 0.916823
O O4 0.165802 0.305882 0.993684
O O5 0.659968 0.586106 0.846482
O O6 0.652106 0.298921 0.914724
O O7 0.598545 0.573529 0.049170
O O8 0.695512 0.475249 0.979836
O O9 0.920198 0.271183 0.296250
O O10 0.870129 0.339886 0.203429
O O11 0.898652 0.046760 0.203953
O O12 0.977721 0.233098 0.080139
O O13 0.565164 0.137167 0.549720
O O14 0.574960 0.247325 0.380755
O O15 0.500000 0.000000 0.500000
O O16 0.659634 0.671157 0.672412
O O17 0.750000 0.750000 0.500000
#
# Coordination Sequence:
#
# PCOD9276731 Si02
#       8
#     8   8   8   8   8   8   8   8
#     4  12  24  39  62  99 135 187 220 287 346 424
#     4  10  20  40  64  93 138 177 223 277 333 413
#     4  11  22  45  68  97 129 182 234 282 335 423
#     4  11  24  41  67  98 136 172 233 285 354 412
#     4  11  25  45  72  97 133 179 228 293 361 405
#     4  10  23  45  69 100 136 182 237 279 346 418
#     4  11  23  40  64  93 140 176 235 268 353 415
#     4  12  23  40  66 106 142 179 230 282 342 414
#
# _framework density 21.474416999999999
#
# number of rings (size 3 to 8) (size 9 to 14) (size 15 to 20)
#    0.000    1.000    5.000    2.250    1.750    4.000 
#    0.000    0.000    0.000    0.000    0.000    0.000 
#    0.000    0.000    0.000    0.000    0.000    0.000 
#
# Total GULP energy -178713.153045 kJ/mol
# GULP energy per Si atom -5584.786033 kJ/mol
# Density = 2.142554 g / cm^3
# Si number density = 21.474417 Si / 1000 Ang^3
#
#
#
# Elastic Constant Matrix: (Units=GPa)
#
#
# Indices 1 2 3 4 5 6 
#
# 1 99.1732 26.7097 32.7923 0.0000 2.2091 0.0000
# 2 26.7097 58.1935 48.5588 0.0000 -3.5553 0.0000
# 3 32.7923 48.5588 96.2833 0.0000 -19.4541 0.0000
# 4 0.0000 0.0000 0.0000 28.8560 0.0000 -10.1092
# 5 2.2091 -3.5553 -19.4541 0.0000 38.5576 0.0000
# 6 0.0000 0.0000 0.0000 -10.1092 0.0000 41.7202
#
#
#
# Elastic Compliance Matrix: (Units=1/GPa)
#
#
# Indices 1 2 3 4 5 6 
#
# 1 0.011977 -0.003153 -0.002991 0.000000 -0.002486 0.000000
# 2 -0.003153 0.031530 -0.015816 0.000000 -0.004892 0.000000
# 3 -0.002991 -0.015816 0.021292 0.000000 0.009456 0.000000
# 4 0.000000 0.000000 0.000000 0.037870 0.000000 0.009176
# 5 -0.002486 -0.004892 0.009456 0.000000 0.030397 0.000000
# 6 0.000000 0.000000 0.000000 0.009176 0.000000 0.026193
#
#
# Mechanical properties :
#
#
# Convention : Reuss Voigt Hill
#
# Bulk Modulus (GPa) = 47.89754 52.19686 50.04720
# Shear Modulus (GPa) = 23.79382 31.53271 27.66327
#
# Velocity S-wave (km/s) = 3.33229 3.83611 3.59304
# Velocity P-wave (km/s) = 6.09577 6.63176 6.36941
#
# Compressibility (1/GPa) = 0.02087790
#
# Stress axis : x y z
#
# Youngs Moduli (GPa) = 83.49307 31.71596 46.96629
#
# Poissons Ratio (x) = 0.10000 0.14049
# Poissons Ratio (y) = 0.26326 0.74282
# Poissons Ratio (z) = 0.24975 0.50162
#
# Static dielectric constant tensor:
#      x y z
#    x 1.801310 0.000000 0.027630 
#    y 0.000000 1.806890 0.000000 
#    z 0.027630 0.000000 1.805040 
# 
# From -- ./inp_files/181115.got.cif
#   From: 2010.05.17/outbox.cif.g08.bks.cpg/sg15_91_cif.got.tgz:181115.got - 2010.06.03 18:47:42.
