data_PCOD9276152
_publ_section_title
;
Structure prediction by ZEFSAII (Michael W. Deem and Ramdas Pophale) SiO2 
 PCOD9276152
Probable space group: C 2/C
;
_chemical_formula_sum "Si O2"
_cell_formula_units_Z 44
_cell_length_a 13.148079
_cell_length_b 24.770113
_cell_length_c 11.025388
_cell_angle_alpha 90.000000
_cell_angle_beta 32.921334
_cell_angle_gamma 90.000000
_cell_volume 1951.521632
_symmetry_space_group_name_H-M "C 2/C"
_symmetry_group_IT_number 15
_symmetry_cell_setting 'monoclinic'
loop_
_space_group_symop_operation_xyz
x,y,z
-x,y,1/2-z
-x,-y,-z
x,-y,1/2+z
1/2+x,1/2+y,z
1/2-x,1/2+y,1/2-z
1/2-x,1/2-y,-z
1/2+x,1/2-y,1/2+z
loop_
_atom_site_type_symbol
_atom_site_label
_atom_site_fract_x
_atom_site_fract_y
_atom_site_fract_z
Si Si1 0.878890 0.256119 0.779127
Si Si2 0.583728 0.653639 0.912398
Si Si3 0.348837 0.053120 0.007053
Si Si4 0.337345 0.876139 0.744595
Si Si5 0.203347 0.062521 0.610242
Si Si6 0.000000 0.117036 0.250000
O O1 0.863470 0.211817 0.690521
O O2 0.917608 0.317759 0.699809
O O3 0.128706 0.241893 0.564077
O O4 0.688552 0.608295 0.727939
O O5 0.369941 0.640272 0.092276
O O6 0.596333 0.649567 0.044132
O O7 0.413965 0.086624 0.059479
O O8 0.159024 0.080587 0.150139
O O9 0.291689 0.990747 0.080224
O O10 0.500000 0.056068 0.750000
O O11 0.316358 0.912507 0.884750
O O12 0.000000 0.051218 0.750000
#
# Coordination Sequence:
#
# PCOD9276152 Si02
#       6
#     8   8   8   8   8   4
#     4  12  21  40  67  94 124 161 213 271 317 370
#     4  10  21  41  66  96 129 171 216 257 326 392
#     4  11  25  43  63  96 136 170 218 264 316 396
#     4  10  23  41  64  97 129 167 216 266 321 380
#     4  10  20  39  69  93 126 173 214 265 322 378
#     4  10  24  44  66  90 134 186 202 260 332 384
#
# _framework density 22.546509
#
# number of rings (size 3 to 8) (size 9 to 14) (size 15 to 20)
#    0.000    1.455    4.545    0.545    2.545    5.091 
#    1.636    1.818    0.000    0.000    0.000    0.000 
#    0.000    0.000    0.000    0.000    0.000    0.000 
#
# Total GULP energy -122864.503760 kJ/mol
# GULP energy per Si atom -5584.750171 kJ/mol
# Density = 2.249519 g / cm^3
# Si number density = 22.546509 Si / 1000 Ang^3
#
#
#
# Elastic Constant Matrix: (Units=GPa)
#
#
# Indices 1 2 3 4 5 6 
#
# 1 93.0191 60.6372 45.8839 0.0004 18.2414 0.0004
# 2 60.6372 193.4745 61.4270 0.0000 41.0193 0.0000
# 3 45.8839 61.4270 97.7689 0.0020 25.6516 0.0024
# 4 0.0004 0.0000 0.0020 126.6046 -0.0007 114.7569
# 5 18.2414 41.0193 25.6516 -0.0007 59.0426 -0.0008
# 6 0.0004 0.0000 0.0024 114.7569 -0.0008 185.2111
#
#
#
# Elastic Compliance Matrix: (Units=1/GPa)
#
#
# Indices 1 2 3 4 5 6 
#
# 1 0.015402 -0.003107 -0.005185 0.000000 -0.000347 0.000000
# 2 -0.003107 0.007619 -0.002474 0.000000 -0.003258 0.000000
# 3 -0.005185 -0.002474 0.015061 0.000000 -0.003223 0.000000
# 4 0.000000 0.000000 0.000000 0.018018 0.000000 -0.011164
# 5 -0.000347 -0.003258 -0.003223 0.000000 0.020708 0.000000
# 6 0.000000 0.000000 0.000000 -0.011164 0.000000 0.012316
#
#
# Mechanical properties :
#
#
# Convention : Reuss Voigt Hill
#
# Bulk Modulus (GPa) = 60.42215 80.01765 70.21990
# Shear Modulus (GPa) = 43.03971 88.59260 65.81615
#
# Velocity S-wave (km/s) = 4.37387 6.27523 5.40876
# Velocity P-wave (km/s) = 7.23635 9.38466 8.37964
#
# Compressibility (1/GPa) = 0.01655022
#
# Stress axis : x y z
#
# Youngs Moduli (GPa) = 64.92796 131.25666 66.39571
#
# Poissons Ratio (x) = 0.40786 0.34425
# Poissons Ratio (y) = 0.20175 0.16423
# Poissons Ratio (z) = 0.33664 0.32466
#
# Static dielectric constant tensor:
#      x y z
#    x 2.067350 0.000000 -0.393660 
#    y 0.000000 1.765490 0.000000 
#    z -0.393660 0.000000 2.403870 
# 
# From -- ./inp_files/101060.got.cif
#   From: 2010.05.17/outbox.cif.g08.bks.cpg/sg15_51_cif.got.tgz:101060.got - 2010.06.03 18:47:42.
