data_PCOD9276920
_publ_section_title
;
Structure prediction by ZEFSAII (Michael W. Deem and Ramdas Pophale) SiO2 
 PCOD9276920
Probable space group: C 2/C
;
_chemical_formula_sum "Si O2"
_cell_formula_units_Z 52
_cell_length_a 24.379263
_cell_length_b 13.477405
_cell_length_c 11.727933
_cell_angle_alpha 90.000000
_cell_angle_beta 145.566174
_cell_angle_gamma 90.000000
_cell_volume 2178.941812
_symmetry_space_group_name_H-M "C 2/C"
_symmetry_group_IT_number 15
_symmetry_cell_setting 'monoclinic'
loop_
_space_group_symop_operation_xyz
x,y,z
-x,y,1/2-z
-x,-y,-z
x,-y,1/2+z
1/2+x,1/2+y,z
1/2-x,1/2+y,1/2-z
1/2-x,1/2-y,-z
1/2+x,1/2-y,1/2+z
loop_
_atom_site_type_symbol
_atom_site_label
_atom_site_fract_x
_atom_site_fract_y
_atom_site_fract_z
Si Si1 0.500000 0.879920 0.250000
Si Si2 0.452186 0.499472 0.788871
Si Si3 0.353042 0.274601 0.791923
Si Si4 0.740342 0.908645 0.935961
Si Si5 0.316264 0.901699 0.061375
Si Si6 0.019598 0.200167 0.448055
Si Si7 0.738415 0.292074 0.307066
O O1 0.399802 0.930674 0.114900
O O2 0.522439 0.806119 0.392635
O O3 0.500000 0.532906 0.750000
O O4 0.351982 0.557505 0.623685
O O5 0.447093 0.379393 0.766188
O O6 0.500000 0.500000 0.000000
O O7 0.339906 0.203903 0.659227
O O8 0.289631 0.376227 0.673693
O O9 0.469639 0.290949 0.987965
O O10 0.304971 0.212521 0.810938
O O11 0.714361 0.852567 0.009075
O O12 0.725871 0.823384 0.819636
O O13 0.685700 0.012929 0.847107
O O14 0.129539 0.164028 0.617578
#
# Coordination Sequence:
#
# PCOD9276920 Si02
#       7
#     4   8   8   8   8   8   8
#     4  10  20  40  66  90 130 164 224 294 346 408
#     4  12  26  41  72 108 142 181 242 301 359 431
#     4  10  22  39  68  93 127 173 232 290 348 429
#     4  11  26  43  62  97 141 181 233 289 365 429
#     4  10  21  39  63  97 122 171 228 288 344 428
#     4  11  21  41  66 101 128 176 233 286 355 426
#     4  11  25  44  63  93 142 184 221 301 369 422
#
# _framework density 23.864795000000001
#
# number of rings (size 3 to 8) (size 9 to 14) (size 15 to 20)
#    0.000    1.231    5.385    0.000    4.308    1.231 
#    2.769    3.077    0.000    0.000    0.000    0.000 
#    0.000    0.000    0.000    0.000    0.000    0.000 
#
# Total GULP energy -144781.295208 kJ/mol
# GULP energy per Si atom -5568.511354 kJ/mol
# Density = 2.381048 g / cm^3
# Si number density = 23.864795 Si / 1000 Ang^3
#
#
#
# Elastic Constant Matrix: (Units=GPa)
#
#
# Indices 1 2 3 4 5 6 
#
# 1 196.9157 12.7497 31.9477 0.0000 18.0028 0.0000
# 2 12.7497 88.7224 4.7679 0.0000 6.0397 0.0000
# 3 31.9477 4.7679 40.7515 0.0000 5.9496 0.0000
# 4 0.0000 0.0000 0.0000 22.5372 0.0000 5.3105
# 5 18.0028 6.0397 5.9496 0.0000 23.7018 0.0000
# 6 0.0000 0.0000 0.0000 5.3105 0.0000 26.8298
#
#
#
# Elastic Compliance Matrix: (Units=1/GPa)
#
#
# Indices 1 2 3 4 5 6 
#
# 1 0.006110 -0.000414 -0.004234 0.000000 -0.003472 0.000000
# 2 -0.000414 0.011534 -0.000666 0.000000 -0.002457 0.000000
# 3 -0.004234 -0.000666 0.028486 0.000000 -0.003765 0.000000
# 4 0.000000 0.000000 0.000000 0.046542 0.000000 -0.009212
# 5 -0.003472 -0.002457 -0.003765 0.000000 0.046399 0.000000
# 6 0.000000 0.000000 0.000000 -0.009212 0.000000 0.039095
#
#
# Mechanical properties :
#
#
# Convention : Reuss Voigt Hill
#
# Bulk Modulus (GPa) = 28.16864 47.25782 37.71323
# Shear Modulus (GPa) = 24.92174 33.07538 28.99856
#
# Velocity S-wave (km/s) = 3.23505 3.72687 3.48964
# Velocity P-wave (km/s) = 5.07771 6.19393 5.66339
#
# Compressibility (1/GPa) = 0.03550047
#
# Stress axis : x y z
#
# Youngs Moduli (GPa) = 163.67853 86.70255 35.10489
#
# Poissons Ratio (x) = 0.03590 0.14864
# Poissons Ratio (y) = 0.06777 0.02338
# Poissons Ratio (z) = 0.69306 0.05775
#
# Static dielectric constant tensor:
#      x y z
#    x 2.137550 0.000000 0.178090 
#    y 0.000000 1.918960 0.000000 
#    z 0.178090 0.000000 2.190000 
# 
# From -- ./inp_files/118824.got.cif
#   From: 2010.05.17/outbox.cif.g08.bks.cpg/sg15_60_cif.got.tgz:118824.got - 2010.06.03 18:47:42.
