data_PCOD9276161
_publ_section_title
;
Structure prediction by ZEFSAII (Michael W. Deem and Ramdas Pophale) SiO2 
 PCOD9276161
Probable space group: C 2/C
;
_chemical_formula_sum "Si O2"
_cell_formula_units_Z 48
_cell_length_a 14.794080
_cell_length_b 12.360144
_cell_length_c 11.629535
_cell_angle_alpha 90.000000
_cell_angle_beta 112.319115
_cell_angle_gamma 90.000000
_cell_volume 1967.227459
_symmetry_space_group_name_H-M "C 2/C"
_symmetry_group_IT_number 15
_symmetry_cell_setting 'monoclinic'
loop_
_space_group_symop_operation_xyz
x,y,z
-x,y,1/2-z
-x,-y,-z
x,-y,1/2+z
1/2+x,1/2+y,z
1/2-x,1/2+y,1/2-z
1/2-x,1/2-y,-z
1/2+x,1/2-y,1/2+z
loop_
_atom_site_type_symbol
_atom_site_label
_atom_site_fract_x
_atom_site_fract_y
_atom_site_fract_z
Si Si1 0.000000 0.112243 0.250000
Si Si2 0.169857 0.350602 0.178163
Si Si3 0.673158 0.658253 0.923257
Si Si4 0.841269 0.904037 0.843263
Si Si5 0.643973 0.791800 0.416080
Si Si6 0.124054 0.426132 0.628454
Si Si7 0.000000 0.705111 0.250000
O O1 0.069458 0.051055 0.191330
O O2 0.073529 0.191610 0.353991
O O3 0.277481 0.369056 0.175822
O O4 0.139464 0.226623 0.144413
O O5 0.158640 0.363109 0.309078
O O6 0.107425 0.447388 0.095624
O O7 0.571537 0.716430 0.854313
O O8 0.750000 0.750000 0.000000
O O9 0.666923 0.570661 0.023786
O O10 0.736936 0.915667 0.729400
O O11 0.750000 0.750000 0.500000
O O12 0.608882 0.860553 0.505536
O O13 0.061009 0.371638 0.696365
#
# Coordination Sequence:
#
# PCOD9276161 Si02
#       7
#     4   8   8   8   8   8   4
#     4  10  20  39  69  96 122 176 222 267 349 396
#     4  10  23  39  66  97 131 174 222 270 339 394
#     4  10  20  42  65  91 136 176 218 272 332 406
#     4  10  21  42  62  90 133 171 211 277 335 391
#     4  11  21  43  66  92 134 177 220 278 341 406
#     4  12  24  39  68 100 131 174 225 280 334 403
#     4  12  22  41  71  98 128 186 222 265 355 390
#
# _framework density 24.399823000000001
#
# number of rings (size 3 to 8) (size 9 to 14) (size 15 to 20)
#    0.000    1.333    6.667    1.000    2.333    2.667 
#    0.000    8.333    0.000    3.000    0.000    0.000 
#    0.000    0.000    0.000    0.000    0.000    0.000 
#
# Total GULP energy -134194.554866 kJ/mol
# GULP energy per Si atom -5591.439786 kJ/mol
# Density = 2.434429 g / cm^3
# Si number density = 24.399823 Si / 1000 Ang^3
#
#
#
# Elastic Constant Matrix: (Units=GPa)
#
#
# Indices 1 2 3 4 5 6 
#
# 1 161.4896 -4.7272 30.5233 0.0000 -13.8891 0.0000
# 2 -4.7272 44.2906 -5.4109 0.0000 4.1676 0.0000
# 3 30.5233 -5.4109 37.4729 0.0000 -1.5092 0.0000
# 4 0.0000 0.0000 0.0000 6.0374 0.0000 13.7445
# 5 -13.8891 4.1676 -1.5092 0.0000 65.7664 0.0000
# 6 0.0000 0.0000 0.0000 13.7445 0.0000 19.1993
#
#
#
# Elastic Compliance Matrix: (Units=1/GPa)
#
#
# Indices 1 2 3 4 5 6 
#
# 1 0.007452 -0.000076 -0.006023 0.000000 0.001440 0.000000
# 2 -0.000076 0.023110 0.003342 0.000000 -0.001404 0.000000
# 3 -0.006023 0.003342 0.032045 0.000000 -0.000748 0.000000
# 4 0.000000 0.000000 0.000000 -0.263016 0.000000 0.188289
# 5 0.001440 -0.001404 -0.000748 0.000000 0.015581 0.000000
# 6 0.000000 0.000000 0.000000 0.188289 0.000000 -0.082708
#
#
# Mechanical properties :
#
#
# Convention : Reuss Voigt Hill
#
# Bulk Modulus (GPa) = 17.51506 31.55817 24.53662
# Shear Modulus (GPa) = -20.57701 33.05849 6.24074
#
# Velocity S-wave (km/s) = -2.90716 3.68484 1.60102
# Velocity P-wave (km/s) = 2.01862 5.57368 3.67363
#
# Compressibility (1/GPa) = 0.05709372
#
# Stress axis : x y z
#
# Youngs Moduli (GPa) = 134.18336 43.27048 31.20642
#
# Poissons Ratio (x) = 0.00329 0.18797
# Poissons Ratio (y) = 0.01020 -0.10430
# Poissons Ratio (z) = 0.80823 -0.14463
#
# Static dielectric constant tensor:
#      x y z
#    x 1.914690 0.000000 -0.000420 
#    y 0.000000 1.965400 0.000000 
#    z -0.000420 0.000000 1.931310 
# 
# From -- ./inp_files/96570.got.cif
#   From: 2010.05.17/outbox.cif.g08.bks.cpg/sg15_49_cif.got.tgz:96570.got - 2010.06.03 18:47:42.
