data_PCOD9276449
_publ_section_title
;
Structure prediction by ZEFSAII (Michael W. Deem and Ramdas Pophale) SiO2 
 PCOD9276449
Probable space group: C 2/C
;
_chemical_formula_sum "Si O2"
_cell_formula_units_Z 52
_cell_length_a 20.898802
_cell_length_b 6.802007
_cell_length_c 20.627712
_cell_angle_alpha 90.000000
_cell_angle_beta 51.755563
_cell_angle_gamma 90.000000
_cell_volume 2302.967049
_symmetry_space_group_name_H-M "C 2/C"
_symmetry_group_IT_number 15
_symmetry_cell_setting 'monoclinic'
loop_
_space_group_symop_operation_xyz
x,y,z
-x,y,1/2-z
-x,-y,-z
x,-y,1/2+z
1/2+x,1/2+y,z
1/2-x,1/2+y,1/2-z
1/2-x,1/2-y,-z
1/2+x,1/2-y,1/2+z
loop_
_atom_site_type_symbol
_atom_site_label
_atom_site_fract_x
_atom_site_fract_y
_atom_site_fract_z
Si Si1 0.333664 0.224802 0.348958
Si Si2 0.900621 0.770880 0.033710
Si Si3 0.104157 0.476233 0.578591
Si Si4 0.499949 0.371796 0.409285
Si Si5 0.000000 0.512496 0.250000
Si Si6 0.258988 0.938381 0.300317
Si Si7 0.658290 0.442501 0.742019
O O1 0.321278 0.109418 0.424918
O O2 0.425096 0.149775 0.274800
O O3 0.331033 0.456373 0.335192
O O4 0.276071 0.130871 0.331229
O O5 0.962071 0.742779 0.055471
O O6 0.815608 0.829753 0.118624
O O7 0.884839 0.595339 0.993542
O O8 0.941005 0.957662 0.972588
O O9 0.044806 0.601426 0.663969
O O10 0.053763 0.277957 0.597521
O O11 0.575444 0.474880 0.325525
O O12 0.335590 0.792450 0.259339
O O13 0.230766 0.993026 0.246050
#
# Coordination Sequence:
#
# PCOD9276449 Si02
#       7
#     8   8   8   8   4   8   8
#     4  10  21  40  61  93 119 156 212 247 302 361
#     4  10  24  39  59  94 125 162 204 250 310 362
#     4  10  20  40  62  85 126 155 203 258 297 354
#     4  10  21  40  63  90 119 166 211 246 299 367
#     4   8  20  38  62  92 118 156 210 252 292 368
#     4  11  24  39  61  92 124 161 201 255 310 362
#     4  11  21  39  65  87 121 162 208 256 297 358
#
# _framework density 22.57957
#
# number of rings (size 3 to 8) (size 9 to 14) (size 15 to 20)
#    0.923    0.923    3.077    0.462    2.154    3.077 
#    2.769    3.077    0.000    0.000    0.000    0.000 
#    0.000    0.000    0.000    0.000    0.000    0.000 
#
# Total GULP energy -144880.245451 kJ/mol
# GULP energy per Si atom -5572.317133 kJ/mol
# Density = 2.252818 g / cm^3
# Si number density = 22.579570 Si / 1000 Ang^3
#
#
#
# Elastic Constant Matrix: (Units=GPa)
#
#
# Indices 1 2 3 4 5 6 
#
# 1 69.8336 11.7133 8.1193 0.0060 9.1011 0.0370
# 2 11.7133 41.0398 3.0540 0.0062 2.8932 0.0319
# 3 8.1193 3.0540 36.5224 0.0019 0.0160 0.0117
# 4 0.0060 0.0062 0.0019 16.2844 -0.0007 -5.5705
# 5 9.1011 2.8932 0.0160 -0.0007 20.8999 -0.0016
# 6 0.0370 0.0319 0.0117 -5.5705 -0.0016 -0.3127
#
#
#
# Elastic Compliance Matrix: (Units=1/GPa)
#
#
# Indices 1 2 3 4 5 6 
#
# 1 0.016207 -0.003923 -0.003272 0.000068 -0.006512 0.000212
# 2 -0.003923 0.025712 -0.001277 0.000101 -0.001850 0.000320
# 3 -0.003272 -0.001277 0.028214 0.000026 0.001580 0.000079
# 4 0.000068 0.000101 0.000026 0.008658 -0.000056 -0.154206
# 5 -0.006512 -0.001850 0.001580 -0.000056 0.050938 -0.000177
# 6 0.000212 0.000320 0.000079 -0.154206 -0.000177 -0.450793
#
#
# Mechanical properties :
#
#
# Convention : Reuss Voigt Hill
#
# Bulk Modulus (GPa) = 18.80147 21.46322 20.13234
# Shear Modulus (GPa) = -17.45863 15.67494 -0.89184
#
# Velocity S-wave (km/s) = -2.78367 2.63764 -0.62915
# Velocity P-wave (km/s) = 1.40959 4.33618 2.89961
#
# Compressibility (1/GPa) = 0.05318734
#
# Stress axis : x y z
#
# Youngs Moduli (GPa) = 61.70259 38.89305 35.44352
#
# Poissons Ratio (x) = 0.15259 0.11597
# Poissons Ratio (y) = 0.24207 0.04527
# Poissons Ratio (z) = 0.20190 0.04967
#
# Static dielectric constant tensor:
#      x y z
#    x 1.893800 0.000000 0.061340 
#    y 0.000000 1.839720 0.000000 
#    z 0.061340 0.000000 1.944690 
# 
# From -- ./inp_files/281165.got.cif
#   From: 2010.05.17/outbox.cif.g08.bks.cpg/sg15_141_cif.got.tgz:281165.got - 2010.06.03 18:47:42.
