data_PCOD9276795
_publ_section_title
;
Structure prediction by ZEFSAII (Michael W. Deem and Ramdas Pophale) SiO2 
 PCOD9276795
Probable space group: C 2/C
;
_chemical_formula_sum "Si O2"
_cell_formula_units_Z 48
_cell_length_a 11.184713
_cell_length_b 15.353534
_cell_length_c 26.740904
_cell_angle_alpha 90.000000
_cell_angle_beta 35.674107
_cell_angle_gamma 90.000000
_cell_volume 2677.981388
_symmetry_space_group_name_H-M "C 2/C"
_symmetry_group_IT_number 15
_symmetry_cell_setting 'monoclinic'
loop_
_space_group_symop_operation_xyz
x,y,z
-x,y,1/2-z
-x,-y,-z
x,-y,1/2+z
1/2+x,1/2+y,z
1/2-x,1/2+y,1/2-z
1/2-x,1/2-y,-z
1/2+x,1/2-y,1/2+z
loop_
_atom_site_type_symbol
_atom_site_label
_atom_site_fract_x
_atom_site_fract_y
_atom_site_fract_z
Si Si1 0.470782 0.726065 0.445028
Si Si2 0.479750 0.807409 0.962465
Si Si3 0.004374 0.146536 0.882695
Si Si4 0.789638 0.148931 0.793064
Si Si5 0.427168 0.477681 0.968274
Si Si6 0.020667 0.504268 0.431625
O O1 0.481834 0.773141 0.495027
O O2 0.639179 0.770907 0.353352
O O3 0.492444 0.622197 0.438942
O O4 0.250000 0.750000 0.500000
O O5 0.238117 0.835186 0.045745
O O6 0.544487 0.727461 0.905514
O O7 0.583357 0.894650 0.905763
O O8 0.145857 0.142827 0.786275
O O9 0.028169 0.053759 0.901246
O O10 0.000000 0.165604 0.750000
O O11 0.683056 0.064175 0.854367
O O12 0.500000 0.500000 0.000000
O O13 0.188556 0.485244 0.029477
O O14 0.000000 0.500000 0.500000
#
# Coordination Sequence:
#
# PCOD9276795 Si02
#       6
#     8   8   8   8   8   8
#     4  12  22  40  66  94 128 176 218 264 330 402
#     4  10  20  40  65  87 127 176 210 250 337 400
#     4  10  22  39  63  94 128 167 214 268 320 391
#     4  12  23  39  65  98 130 165 229 281 313 382
#     4  11  22  40  67  94 127 174 215 262 336 401
#     4  11  21  40  66  92 126 177 221 262 328 402
#
# _framework density 17.923946999999998
#
# number of rings (size 3 to 8) (size 9 to 14) (size 15 to 20)
#    0.000    1.000    6.667    1.000    0.000    1.333 
#    0.000    3.333    0.000    0.000    0.000    0.000 
#    0.000    0.000    0.000    0.000    0.000    0.000 
#
# Total GULP energy -133667.366725 kJ/mol
# GULP energy per Si atom -5569.473614 kJ/mol
# Density = 1.788315 g / cm^3
# Si number density = 17.923947 Si / 1000 Ang^3
#
#
#
# Elastic Constant Matrix: (Units=GPa)
#
#
# Indices 1 2 3 4 5 6 
#
# 1 106.1173 37.0729 56.5381 -0.0023 17.3503 0.0000
# 2 37.0729 184.7485 75.1718 -0.0002 12.6270 0.0001
# 3 56.5381 75.1718 127.0111 -0.0149 21.6050 0.0010
# 4 -0.0023 -0.0002 -0.0149 73.6736 0.0036 2.6079
# 5 17.3503 12.6270 21.6050 0.0036 29.6661 0.0003
# 6 0.0000 0.0001 0.0010 2.6079 0.0003 31.7375
#
#
#
# Elastic Compliance Matrix: (Units=1/GPa)
#
#
# Indices 1 2 3 4 5 6 
#
# 1 0.012730 -0.000332 -0.004826 0.000000 -0.003790 0.000000
# 2 -0.000332 0.007138 -0.004101 -0.000001 0.000143 0.000000
# 3 -0.004826 -0.004101 0.013322 0.000003 -0.005134 -0.000001
# 4 0.000000 -0.000001 0.000003 0.013613 -0.000003 -0.001119
# 5 -0.003790 0.000143 -0.005134 -0.000003 0.039603 0.000000
# 6 0.000000 0.000000 -0.000001 -0.001119 0.000000 0.031600
#
#
# Mechanical properties :
#
#
# Convention : Reuss Voigt Hill
#
# Bulk Modulus (GPa) = 68.15361 83.93803 76.04582
# Shear Modulus (GPa) = 35.35661 43.62170 39.48915
#
# Velocity S-wave (km/s) = 4.44620 4.93862 4.69887
# Velocity P-wave (km/s) = 8.02899 8.91357 8.48282
#
# Compressibility (1/GPa) = 0.01467274
#
# Stress axis : x y z
#
# Youngs Moduli (GPa) = 78.55355 140.08673 75.06291
#
# Poissons Ratio (x) = 0.04651 0.36222
# Poissons Ratio (y) = 0.02608 0.30786
# Poissons Ratio (z) = 0.37907 0.57455
#
# Static dielectric constant tensor:
#      x y z
#    x 1.693300 0.000000 -0.013570 
#    y 0.000000 1.655480 0.000000 
#    z -0.013570 0.000000 1.578410 
# 
# From -- ./inp_files/292995.got.cif
#   From: 2010.05.17/outbox.cif.g08.bks.cpg/sg15_147_cif.got.tgz:292995.got - 2010.06.03 18:47:42.
