data_PCOD9276356
_publ_section_title
;
Structure prediction by ZEFSAII (Michael W. Deem and Ramdas Pophale) SiO2 
 PCOD9276356
Probable space group: C 2/C
;
_chemical_formula_sum "Si O2"
_cell_formula_units_Z 44
_cell_length_a 30.427496
_cell_length_b 8.563036
_cell_length_c 22.615526
_cell_angle_alpha 90.000000
_cell_angle_beta 20.217906
_cell_angle_gamma 90.000000
_cell_volume 2036.402880
_symmetry_space_group_name_H-M "C 2/C"
_symmetry_group_IT_number 15
_symmetry_cell_setting 'monoclinic'
loop_
_space_group_symop_operation_xyz
x,y,z
-x,y,1/2-z
-x,-y,-z
x,-y,1/2+z
1/2+x,1/2+y,z
1/2-x,1/2+y,1/2-z
1/2-x,1/2-y,-z
1/2+x,1/2-y,1/2+z
loop_
_atom_site_type_symbol
_atom_site_label
_atom_site_fract_x
_atom_site_fract_y
_atom_site_fract_z
Si Si1 0.046321 0.839945 0.623253
Si Si2 0.276161 0.224634 0.682309
Si Si3 0.500000 0.254003 0.250000
Si Si4 0.557185 0.519740 0.993476
Si Si5 0.986170 0.485613 0.875127
Si Si6 0.753664 0.075119 0.097884
O O1 0.981733 0.941867 0.650547
O O2 0.035492 0.658777 0.621292
O O3 0.000000 0.852152 0.750000
O O4 0.185407 0.919494 0.450729
O O5 0.362943 0.362076 0.598078
O O6 0.149573 0.169621 0.873819
O O7 0.367124 0.073150 0.563890
O O8 0.233151 0.292145 0.673077
O O9 0.509715 0.142456 0.181783
O O10 0.369762 0.354183 0.412194
O O11 0.500000 0.500000 0.000000
O O12 0.122030 0.469574 0.734714
#
# Coordination Sequence:
#
# PCOD9276356 Si02
#       6
#     8   8   4   8   8   8
#     4  11  24  44  63 100 137 170 230 275 322 404
#     4  10  23  42  67  99 133 167 236 277 326 408
#     4  10  20  40  60  94 132 168 226 272 324 406
#     4  11  24  45  72  98 134 182 220 280 338 390
#     4  11  22  40  65  96 131 179 219 273 340 387
#     4  10  22  41  64  92 133 176 215 281 333 390
#
# _framework density 21.606725000000001
#
# number of rings (size 3 to 8) (size 9 to 14) (size 15 to 20)
#    0.000    1.455    1.818    2.727    0.000    5.091 
#    6.545    6.364    0.000    0.000    0.000    0.000 
#    0.000    0.000    0.000    0.000    0.000    0.000 
#
# Total GULP energy -122664.858283 kJ/mol
# GULP energy per Si atom -5575.675377 kJ/mol
# Density = 2.155755 g / cm^3
# Si number density = 21.606725 Si / 1000 Ang^3
#
#
#
# Elastic Constant Matrix: (Units=GPa)
#
#
# Indices 1 2 3 4 5 6 
#
# 1 123.8795 53.2208 42.9325 -0.0004 3.1304 -0.0001
# 2 53.2208 128.7333 25.8555 -0.0015 -5.2114 -0.0001
# 3 42.9325 25.8555 60.9921 -0.0016 3.0435 -0.0001
# 4 -0.0004 -0.0015 -0.0016 37.3958 0.0001 -1.7144
# 5 3.1304 -5.2114 3.0435 0.0001 33.5098 0.0001
# 6 -0.0001 -0.0001 -0.0001 -1.7144 0.0001 33.4773
#
#
#
# Elastic Compliance Matrix: (Units=1/GPa)
#
#
# Indices 1 2 3 4 5 6 
#
# 1 0.012050 -0.003642 -0.006885 0.000000 -0.001067 0.000000
# 2 -0.003642 0.009684 -0.001641 0.000000 0.001995 0.000000
# 3 -0.006885 -0.001641 0.022018 0.000001 -0.001612 0.000000
# 4 0.000000 0.000000 0.000001 0.026804 0.000000 0.001373
# 5 -0.001067 0.001995 -0.001612 0.000000 0.030398 0.000000
# 6 0.000000 0.000000 0.000000 0.001373 0.000000 0.029941
#
#
# Mechanical properties :
#
#
# Convention : Reuss Voigt Hill
#
# Bulk Modulus (GPa) = 51.50417 61.95807 56.73112
# Shear Modulus (GPa) = 30.92069 33.64966 32.28518
#
# Velocity S-wave (km/s) = 3.78705 3.95063 3.86971
# Velocity P-wave (km/s) = 6.55829 7.03901 6.80290
#
# Compressibility (1/GPa) = 0.01941590
#
# Stress axis : x y z
#
# Youngs Moduli (GPa) = 82.98663 103.26195 45.41739
#
# Poissons Ratio (x) = 0.37609 0.31270
# Poissons Ratio (y) = 0.30225 0.07453
# Poissons Ratio (z) = 0.57136 0.16946
#
# Static dielectric constant tensor:
#      x y z
#    x 1.888850 0.000000 0.094050 
#    y 0.000000 1.758710 0.000000 
#    z 0.094050 0.000000 1.838930 
# 
# From -- ./inp_files/121773.got.cif
#   From: 2010.05.17/outbox.cif.g08.bks.cpg/sg15_61_cif.got.tgz:121773.got - 2010.06.03 18:47:42.
