data_PCOD9276555
_publ_section_title
;
Structure prediction by ZEFSAII (Michael W. Deem and Ramdas Pophale) SiO2 
 PCOD9276555
Probable space group: C 2/C
;
_chemical_formula_sum "Si O2"
_cell_formula_units_Z 60
_cell_length_a 14.370838
_cell_length_b 14.781528
_cell_length_c 14.757229
_cell_angle_alpha 90.000000
_cell_angle_beta 108.306222
_cell_angle_gamma 90.000000
_cell_volume 2976.127428
_symmetry_space_group_name_H-M "C 2/C"
_symmetry_group_IT_number 15
_symmetry_cell_setting 'monoclinic'
loop_
_space_group_symop_operation_xyz
x,y,z
-x,y,1/2-z
-x,-y,-z
x,-y,1/2+z
1/2+x,1/2+y,z
1/2-x,1/2+y,1/2-z
1/2-x,1/2-y,-z
1/2+x,1/2-y,1/2+z
loop_
_atom_site_type_symbol
_atom_site_label
_atom_site_fract_x
_atom_site_fract_y
_atom_site_fract_z
Si Si1 0.607519 0.798500 0.437307
Si Si2 0.800575 0.897591 0.513770
Si Si3 0.389934 0.006449 0.865581
Si Si4 0.000000 0.375213 0.250000
Si Si5 0.936090 0.949020 0.404356
Si Si6 0.834478 0.025535 0.691038
Si Si7 0.932198 0.201203 0.645540
Si Si8 0.459737 0.861313 0.534667
O O1 0.685124 0.877299 0.486521
O O2 0.652747 0.700946 0.462508
O O3 0.578403 0.814561 0.325367
O O4 0.512516 0.806213 0.470748
O O5 0.834166 0.931073 0.425465
O O6 0.842407 0.962241 0.604910
O O7 0.447070 0.063770 0.808002
O O8 0.275458 0.005651 0.809096
O O9 0.449912 0.912799 0.888745
O O10 0.399813 0.060308 0.964752
O O11 0.908858 0.991121 0.297707
O O12 0.997210 0.859501 0.396847
O O13 0.000000 0.000000 0.500000
O O14 0.853912 0.128980 0.662152
O O15 0.000000 0.231009 0.750000
O O16 0.902854 0.291133 0.581462
#
# Coordination Sequence:
#
# PCOD9276555 Si02
#       8
#     8   8   8   4   8   8   8   8
#     4  10  21  37  62  90 120 159 204 256 308 371
#     4  11  21  38  63  89 126 160 206 260 312 363
#     4  10  22  40  63  88 124 158 210 259 306 374
#     4  10  22  40  62  90 118 160 206 254 308 372
#     4  11  22  38  61  87 122 168 206 252 319 377
#     4  11  23  40  61  95 126 159 213 259 309 382
#     4  10  22  39  61  89 125 167 207 257 315 381
#     4  10  20  40  63  87 118 166 203 249 315 375
#
# _framework density 20.160428
#
# number of rings (size 3 to 8) (size 9 to 14) (size 15 to 20)
#    0.000    1.600    4.000    0.800    0.933    1.600 
#    0.000    0.000    0.000    0.000    0.000    0.000 
#    0.000    0.000    0.000    0.000    0.000    0.000 
#
# Total GULP energy -167237.313562 kJ/mol
# GULP energy per Si atom -5574.577119 kJ/mol
# Density = 2.011454 g / cm^3
# Si number density = 20.160428 Si / 1000 Ang^3
#
#
#
# Elastic Constant Matrix: (Units=GPa)
#
#
# Indices 1 2 3 4 5 6 
#
# 1 37.3384 -3.5792 9.7033 0.0000 -2.5245 0.0000
# 2 -3.5792 59.3556 41.1560 0.0000 1.7879 0.0000
# 3 9.7033 41.1560 109.9740 0.0000 -1.0117 0.0000
# 4 0.0000 0.0000 0.0000 1.6003 0.0000 13.6247
# 5 -2.5245 1.7879 -1.0117 0.0000 31.4896 0.0000
# 6 0.0000 0.0000 0.0000 13.6247 0.0000 17.2129
#
#
#
# Elastic Compliance Matrix: (Units=1/GPa)
#
#
# Indices 1 2 3 4 5 6 
#
# 1 0.028440 0.004573 -0.004203 0.000000 0.001885 0.000000
# 2 0.004573 0.023564 -0.009234 0.000000 -0.001268 0.000000
# 3 -0.004203 -0.009234 0.012925 0.000000 0.000603 0.000000
# 4 0.000000 0.000000 0.000000 -0.108882 0.000000 0.086185
# 5 0.001885 -0.001268 0.000603 0.000000 0.031999 0.000000
# 6 0.000000 0.000000 0.000000 0.086185 0.000000 -0.010123
#
#
# Mechanical properties :
#
#
# Convention : Reuss Voigt Hill
#
# Bulk Modulus (GPa) = 21.18607 33.46980 27.32793
# Shear Modulus (GPa) = 439.18932 20.68642 229.93787
#
# Velocity S-wave (km/s) = 14.77566 3.20674 10.69120
# Velocity P-wave (km/s) = 17.36736 5.50896 12.88359
#
# Compressibility (1/GPa) = 0.04720082
#
# Stress axis : x y z
#
# Youngs Moduli (GPa) = 35.16146 42.43779 77.36964
#
# Poissons Ratio (x) = -0.19405 0.32521
# Poissons Ratio (y) = -0.16078 0.71440
# Poissons Ratio (z) = 0.14779 0.39185
#
# Static dielectric constant tensor:
#      x y z
#    x 1.741990 0.000000 0.003600 
#    y 0.000000 1.707920 0.000000 
#    z 0.003600 0.000000 1.730630 
# 
# From -- ./inp_files/154024.got.cif
#   From: 2010.05.17/outbox.cif.g08.bks.cpg/sg15_78_cif.got.tgz:154024.got - 2010.06.03 18:47:42.
