data_PCOD9276352
_publ_section_title
;
Structure prediction by ZEFSAII (Michael W. Deem and Ramdas Pophale) SiO2 
 PCOD9276352
Probable space group: C 2/C
;
_chemical_formula_sum "Si O2"
_cell_formula_units_Z 56
_cell_length_a 17.236603
_cell_length_b 14.400523
_cell_length_c 18.376432
_cell_angle_alpha 90.000000
_cell_angle_beta 35.205887
_cell_angle_gamma 90.000000
_cell_volume 2629.678806
_symmetry_space_group_name_H-M "C 2/C"
_symmetry_group_IT_number 15
_symmetry_cell_setting 'monoclinic'
loop_
_space_group_symop_operation_xyz
x,y,z
-x,y,1/2-z
-x,-y,-z
x,-y,1/2+z
1/2+x,1/2+y,z
1/2-x,1/2+y,1/2-z
1/2-x,1/2-y,-z
1/2+x,1/2-y,1/2+z
loop_
_atom_site_type_symbol
_atom_site_label
_atom_site_fract_x
_atom_site_fract_y
_atom_site_fract_z
Si Si1 0.381689 0.515481 0.032595
Si Si2 0.366086 0.075819 0.515118
Si Si3 0.868225 0.981490 0.882887
Si Si4 0.937317 0.776010 0.496672
Si Si5 0.152720 0.772446 0.641785
Si Si6 0.662528 0.014039 0.314632
Si Si7 0.741905 0.772477 0.782336
O O1 0.385089 0.624794 0.009692
O O2 0.247974 0.491036 0.178492
O O3 0.500000 0.500000 0.000000
O O4 0.392388 0.461744 0.949149
O O5 0.395427 0.184622 0.484311
O O6 0.506591 0.019940 0.411676
O O7 0.265216 0.038560 0.532110
O O8 0.308749 0.054012 0.640057
O O9 0.855437 0.884410 0.850847
O O10 0.000000 0.031382 0.750000
O O11 0.863695 0.761809 0.631471
O O12 0.099400 0.776652 0.374955
O O13 0.250000 0.750000 0.500000
O O14 0.211764 0.742569 0.673569
O O15 0.000000 0.736887 0.750000
O O16 0.704967 0.117536 0.307851
#
# Coordination Sequence:
#
# PCOD9276352 Si02
#       7
#     8   8   8   8   8   8   8
#     4  11  25  41  63  96 127 163 219 256 316 376
#     4  10  20  42  65  91 126 167 209 251 329 369
#     4  11  25  41  65  92 130 169 206 266 322 377
#     4  10  24  37  69  92 121 168 209 265 295 387
#     4  11  24  40  61  93 131 166 205 262 318 378
#     4   9  20  39  64  91 123 166 204 262 304 388
#     4  10  20  40  60  93 126 157 215 250 317 364
#
# _framework density 21.295376999999998
#
# number of rings (size 3 to 8) (size 9 to 14) (size 15 to 20)
#    0.000    1.714    1.429    1.714   12.000    1.143 
#    2.571    0.000    0.000    0.000    0.000    0.000 
#    0.000    0.000    0.000    0.000    0.000    0.000 
#
# Total GULP energy -156466.692113 kJ/mol
# GULP energy per Si atom -5588.096147 kJ/mol
# Density = 2.124691 g / cm^3
# Si number density = 21.295377 Si / 1000 Ang^3
#
#
#
# Elastic Constant Matrix: (Units=GPa)
#
#
# Indices 1 2 3 4 5 6 
#
# 1 85.8303 -6.9494 21.7712 0.0000 -13.2443 0.0000
# 2 -6.9494 49.5698 -17.1303 0.0001 -10.0599 0.0000
# 3 21.7712 -17.1303 113.5443 0.0002 -2.5846 -0.0001
# 4 0.0000 0.0001 0.0002 24.6584 -0.0001 1.5283
# 5 -13.2443 -10.0599 -2.5846 -0.0001 24.1621 0.0000
# 6 0.0000 0.0000 -0.0001 1.5283 0.0000 13.9382
#
#
#
# Elastic Compliance Matrix: (Units=1/GPa)
#
#
# Indices 1 2 3 4 5 6 
#
# 1 0.013713 0.002969 -0.001987 0.000000 0.008540 0.000000
# 2 0.002969 0.024197 0.003356 0.000000 0.012061 0.000000
# 3 -0.001987 0.003356 0.009725 0.000000 0.001348 0.000000
# 4 0.000000 0.000000 0.000000 0.040832 0.000000 -0.004477
# 5 0.008540 0.012061 0.001348 0.000000 0.051234 0.000000
# 6 0.000000 0.000000 0.000000 -0.004477 0.000000 0.072236
#
#
# Mechanical properties :
#
#
# Convention : Reuss Voigt Hill
#
# Bulk Modulus (GPa) = 17.75840 27.14747 22.45294
# Shear Modulus (GPa) = 22.51925 29.30194 25.91059
#
# Velocity S-wave (km/s) = 3.25541 3.71344 3.49194
# Velocity P-wave (km/s) = 4.74209 5.58229 5.17925
#
# Compressibility (1/GPa) = 0.05631137
#
# Stress axis : x y z
#
# Youngs Moduli (GPa) = 72.92258 41.32700 102.82645
#
# Poissons Ratio (x) = -0.12270 0.20432
# Poissons Ratio (y) = -0.21651 -0.34507
# Poissons Ratio (z) = 0.14490 -0.13869
#
# Static dielectric constant tensor:
#      x y z
#    x 1.725310 0.000000 -0.010850 
#    y 0.000000 1.808180 0.000000 
#    z -0.010850 0.000000 1.807650 
# 
# From -- ./inp_files/206260.got.cif
#   From: 2010.05.17/outbox.cif.g08.bks.cpg/sg15_104_cif.got.tgz:206260.got - 2010.06.03 18:47:42.
