data_PCOD9276890
_publ_section_title
;
Structure prediction by ZEFSAII (Michael W. Deem and Ramdas Pophale) SiO2 
 PCOD9276890
Probable space group: C 2/C
;
_chemical_formula_sum "Si O2"
_cell_formula_units_Z 48
_cell_length_a 19.006221
_cell_length_b 7.825860
_cell_length_c 17.224926
_cell_angle_alpha 90.000000
_cell_angle_beta 66.683000
_cell_angle_gamma 90.000000
_cell_volume 2352.791832
_symmetry_space_group_name_H-M "C 2/C"
_symmetry_group_IT_number 15
_symmetry_cell_setting 'monoclinic'
loop_
_space_group_symop_operation_xyz
x,y,z
-x,y,1/2-z
-x,-y,-z
x,-y,1/2+z
1/2+x,1/2+y,z
1/2-x,1/2+y,1/2-z
1/2-x,1/2-y,-z
1/2+x,1/2-y,1/2+z
loop_
_atom_site_type_symbol
_atom_site_label
_atom_site_fract_x
_atom_site_fract_y
_atom_site_fract_z
Si Si1 0.500000 0.118344 0.750000
Si Si2 0.083085 0.380386 0.611032
Si Si3 0.360534 0.792830 0.071955
Si Si4 0.248969 0.390763 0.882882
Si Si5 0.743623 0.485283 0.445988
Si Si6 0.106244 0.867411 0.779598
Si Si7 0.000000 0.877343 0.250000
O O1 0.574542 0.229128 0.732472
O O2 0.517107 0.010325 0.665881
O O3 0.080191 0.320775 0.523955
O O4 0.166510 0.464137 0.588231
O O5 0.066218 0.228911 0.678437
O O6 0.300361 0.650675 0.066552
O O7 0.392091 0.714791 0.137003
O O8 0.319726 0.976337 0.102451
O O9 0.230436 0.188432 0.902053
O O10 0.310377 0.416187 0.787977
O O11 0.280799 0.444484 0.954410
O O12 0.043848 0.015207 0.796437
#
# Coordination Sequence:
#
# PCOD9276890 Si02
#       7
#     4   8   8   8   8   8   4
#     4  10  22  40  62  78 124 170 202 240 294 378
#     4  10  20  42  62  88 116 167 210 239 304 365
#     4  11  24  38  62  96 122 151 202 265 300 357
#     4  10  21  39  63  90 119 159 196 249 316 361
#     4  10  20  40  66  88 118 157 198 255 307 366
#     4  11  23  39  58  93 123 158 204 252 306 360
#     4  10  22  40  66  82 124 176 202 246 294 376
#
# _framework density 20.401294
#
# number of rings (size 3 to 8) (size 9 to 14) (size 15 to 20)
#    0.000    1.667    1.667    4.000    2.333    1.333 
#    6.000    0.000    0.000    0.000    0.000    0.000 
#    0.000    0.000    0.000    0.000    0.000    0.000 
#
# Total GULP energy -133871.449315 kJ/mol
# GULP energy per Si atom -5577.977055 kJ/mol
# Density = 2.035486 g / cm^3
# Si number density = 20.401294 Si / 1000 Ang^3
#
#
#
# Elastic Constant Matrix: (Units=GPa)
#
#
# Indices 1 2 3 4 5 6 
#
# 1 18.7756 15.6362 28.7808 0.0000 7.1086 -0.0001
# 2 15.6362 96.1510 38.1648 -0.0001 -0.6810 -0.0002
# 3 28.7808 38.1648 118.2536 0.0000 -0.8013 0.0000
# 4 0.0000 -0.0001 0.0000 23.6518 0.0000 4.1034
# 5 7.1086 -0.6810 -0.8013 0.0000 21.8408 0.0000
# 6 -0.0001 -0.0002 0.0000 4.1034 0.0000 -9.3732
#
#
#
# Elastic Compliance Matrix: (Units=1/GPa)
#
#
# Indices 1 2 3 4 5 6 
#
# 1 0.113306 -0.008771 -0.025004 0.000000 -0.038069 -0.000001
# 2 -0.008771 0.012608 -0.001913 0.000000 0.003178 0.000000
# 3 -0.025004 -0.001913 0.015218 0.000000 0.008637 0.000000
# 4 0.000000 0.000000 0.000000 0.039295 0.000000 0.017203
# 5 -0.038069 0.003178 0.008637 0.000000 0.058592 0.000000
# 6 -0.000001 0.000000 0.000000 0.017203 0.000000 -0.099156
#
#
# Mechanical properties :
#
#
# Convention : Reuss Voigt Hill
#
# Bulk Modulus (GPa) = 14.33555 44.26042 29.29798
# Shear Modulus (GPa) = 21.32271 17.26378 19.29324
#
# Velocity S-wave (km/s) = 3.23641 2.91212 3.07854
# Velocity P-wave (km/s) = 4.58343 5.74885 5.19890
#
# Compressibility (1/GPa) = 0.06975667
#
# Stress axis : x y z
#
# Youngs Moduli (GPa) = 8.82565 79.31177 65.71246
#
# Poissons Ratio (x) = 0.69564 1.64307
# Poissons Ratio (y) = 0.07741 0.12571
# Poissons Ratio (z) = 0.22068 0.15172
#
# Static dielectric constant tensor:
#      x y z
#    x 1.701330 0.000000 -0.001990 
#    y 0.000000 1.803410 0.000000 
#    z -0.001990 0.000000 1.718570 
# 
# From -- ./inp_files/208999.got.cif
#   From: 2010.05.17/outbox.cif.g08.bks.cpg/sg15_105_cif.got.tgz:208999.got - 2010.06.03 18:47:42.
