data_PCOD9276539
_publ_section_title
;
Structure prediction by ZEFSAII (Michael W. Deem and Ramdas Pophale) SiO2 
 PCOD9276539
Probable space group: C 2/C
;
_chemical_formula_sum "Si O2"
_cell_formula_units_Z 48
_cell_length_a 11.886965
_cell_length_b 15.169810
_cell_length_c 10.826954
_cell_angle_alpha 90.000000
_cell_angle_beta 96.903102
_cell_angle_gamma 90.000000
_cell_volume 1938.195935
_symmetry_space_group_name_H-M "C 2/C"
_symmetry_group_IT_number 15
_symmetry_cell_setting 'monoclinic'
loop_
_space_group_symop_operation_xyz
x,y,z
-x,y,1/2-z
-x,-y,-z
x,-y,1/2+z
1/2+x,1/2+y,z
1/2-x,1/2+y,1/2-z
1/2-x,1/2-y,-z
1/2+x,1/2-y,1/2+z
loop_
_atom_site_type_symbol
_atom_site_label
_atom_site_fract_x
_atom_site_fract_y
_atom_site_fract_z
Si Si1 0.402316 0.861016 0.112399
Si Si2 0.131728 0.555288 0.641789
Si Si3 0.199139 0.152328 0.976767
Si Si4 0.530886 0.665663 0.440028
Si Si5 0.115622 0.781426 0.218398
Si Si6 0.249809 0.621187 0.146126
O O1 0.352740 0.878069 0.240603
O O2 0.497638 0.935518 0.104180
O O3 0.463682 0.766741 0.106245
O O4 0.308917 0.864629 0.995192
O O5 0.197897 0.585601 0.527465
O O6 0.186206 0.463602 0.689612
O O7 0.141901 0.153074 0.833427
O O8 0.250000 0.250000 0.000000
O O9 0.098320 0.134702 0.059675
O O10 0.585515 0.673154 0.584711
O O11 0.616913 0.613351 0.363339
O O12 0.212997 0.708591 0.214125
O O13 0.000000 0.733409 0.250000
#
# Coordination Sequence:
#
# PCOD9276539 Si02
#       6
#     8   8   8   8   8   8
#     4  10  21  40  59  84 119 158 196 246 300 355
#     4  11  23  35  59  89 122 150 192 259 308 338
#     4  11  21  38  58  88 120 155 198 244 297 359
#     4  10  20  40  63  82 114 161 205 238 290 366
#     4   9  20  36  62  84 109 155 202 236 278 361
#     4  11  22  37  60  87 118 154 200 244 299 359
#
# _framework density 24.765297
#
# number of rings (size 3 to 8) (size 9 to 14) (size 15 to 20)
#    0.000    1.667    1.667    4.500    2.333    2.000 
#    0.000    0.000    0.000    4.000    0.000    0.000 
#    0.000    0.000    0.000    0.000    0.000    0.000 
#
# Total GULP energy -134216.207503 kJ/mol
# GULP energy per Si atom -5592.341979 kJ/mol
# Density = 2.470893 g / cm^3
# Si number density = 24.765297 Si / 1000 Ang^3
#
#
#
# Elastic Constant Matrix: (Units=GPa)
#
#
# Indices 1 2 3 4 5 6 
#
# 1 158.0065 22.3354 31.3527 0.0000 -59.9144 0.0000
# 2 22.3354 48.5639 -5.5061 0.0000 -13.9216 0.0000
# 3 31.3527 -5.5061 86.2724 0.0000 -10.0790 0.0000
# 4 0.0000 0.0000 0.0000 10.3969 0.0000 -12.7863
# 5 -59.9144 -13.9216 -10.0790 0.0000 49.6186 0.0000
# 6 0.0000 0.0000 0.0000 -12.7863 0.0000 35.3835
#
#
#
# Elastic Compliance Matrix: (Units=1/GPa)
#
#
# Indices 1 2 3 4 5 6 
#
# 1 0.012495 -0.002116 -0.003055 0.000000 0.013873 0.000000
# 2 -0.002116 0.023172 0.002775 0.000000 0.004510 0.000000
# 3 -0.003055 0.002775 0.012843 0.000000 -0.000302 0.000000
# 4 0.000000 0.000000 0.000000 0.173116 0.000000 0.062558
# 5 0.013873 0.004510 -0.000302 0.000000 0.038110 0.000000
# 6 0.000000 0.000000 0.000000 0.062558 0.000000 0.050868
#
#
# Mechanical properties :
#
#
# Convention : Reuss Voigt Hill
#
# Bulk Modulus (GPa) = 22.87409 43.24519 33.05964
# Shear Modulus (GPa) = 15.15294 35.39052 25.27173
#
# Velocity S-wave (km/s) = 2.47627 3.78436 3.19791
# Velocity P-wave (km/s) = 4.17520 6.04939 5.19747
#
# Compressibility (1/GPa) = 0.04371758
#
# Stress axis : x y z
#
# Youngs Moduli (GPa) = 80.03409 43.15535 77.86160
#
# Poissons Ratio (x) = 0.09132 0.23787
# Poissons Ratio (y) = 0.16935 -0.21605
# Poissons Ratio (z) = 0.24451 -0.11975
#
# Static dielectric constant tensor:
#      x y z
#    x 2.047510 0.000000 0.017980 
#    y 0.000000 1.933200 0.000000 
#    z 0.017980 0.000000 1.987330 
# 
# From -- ./inp_files/87262.got.cif
#   From: 2010.05.17/outbox.cif.g08.bks.cpg/sg15_44_cif.got.tgz:87262.got - 2010.06.03 18:47:42.
