data_PCOD9276163
_publ_section_title
;
Structure prediction by ZEFSAII (Michael W. Deem and Ramdas Pophale) SiO2 
 PCOD9276163
Probable space group: C 2/C
;
_chemical_formula_sum "Si O2"
_cell_formula_units_Z 40
_cell_length_a 10.832073
_cell_length_b 28.433755
_cell_length_c 7.604644
_cell_angle_alpha 90.000000
_cell_angle_beta 131.893198
_cell_angle_gamma 90.000000
_cell_volume 1743.515025
_symmetry_space_group_name_H-M "C 2/C"
_symmetry_group_IT_number 15
_symmetry_cell_setting 'monoclinic'
loop_
_space_group_symop_operation_xyz
x,y,z
-x,y,1/2-z
-x,-y,-z
x,-y,1/2+z
1/2+x,1/2+y,z
1/2-x,1/2+y,1/2-z
1/2-x,1/2-y,-z
1/2+x,1/2-y,1/2+z
loop_
_atom_site_type_symbol
_atom_site_label
_atom_site_fract_x
_atom_site_fract_y
_atom_site_fract_z
Si Si1 0.722692 0.286943 0.317392
Si Si2 0.694393 0.116425 0.133152
Si Si3 0.610879 0.292024 0.686686
Si Si4 0.822944 0.388021 0.311739
Si Si5 0.503179 0.554995 0.464099
O O1 0.750000 0.250000 0.500000
O O2 0.811733 0.259763 0.239297
O O3 0.795907 0.338930 0.386957
O O4 0.530542 0.292545 0.094280
O O5 0.747287 0.170204 0.219518
O O6 0.837866 0.084113 0.353171
O O7 0.690570 0.116358 0.914963
O O8 0.514645 0.099520 0.026050
O O9 0.500000 0.305384 0.750000
O O10 0.669447 0.422519 0.204434
O O11 0.500000 0.560043 0.250000
O O12 0.500000 0.500000 0.500000
#
# Coordination Sequence:
#
# PCOD9276163 Si02
#       5
#     8   8   8   8   8
#     4  12  25  39  59  96 141 177 222 287 346 397
#     4  10  20  39  69  96 125 175 237 282 320 401
#     4  12  22  40  64  92 131 181 237 272 326 417
#     4  10  21  40  66  95 131 176 229 279 331 410
#     4  10  21  43  69  98 129 168 224 284 349 409
#
# _framework density 22.942159
#
# number of rings (size 3 to 8) (size 9 to 14) (size 15 to 20)
#    0.000    1.200    4.000    3.000    2.800    0.800 
#    3.600    0.000    0.000    0.000    0.000    0.000 
#    0.000    0.000    0.000    0.000    0.000    0.000 
#
# Total GULP energy -111744.655760 kJ/mol
# GULP energy per Si atom -5587.232788 kJ/mol
# Density = 2.288994 g / cm^3
# Si number density = 22.942159 Si / 1000 Ang^3
#
#
#
# Elastic Constant Matrix: (Units=GPa)
#
#
# Indices 1 2 3 4 5 6 
#
# 1 79.9190 41.9507 63.7535 0.0000 23.0320 0.0000
# 2 41.9507 155.7406 40.3180 0.0000 36.0045 0.0000
# 3 63.7535 40.3180 100.7616 0.0000 31.1616 0.0000
# 4 0.0000 0.0000 0.0000 29.1177 0.0000 -6.5194
# 5 23.0320 36.0045 31.1616 0.0000 59.2587 0.0000
# 6 0.0000 0.0000 0.0000 -6.5194 0.0000 17.0711
#
#
#
# Elastic Compliance Matrix: (Units=1/GPa)
#
#
# Indices 1 2 3 4 5 6 
#
# 1 0.026569 -0.003075 -0.015482 0.000000 -0.000317 0.000000
# 2 -0.003075 0.008141 -0.000181 0.000000 -0.003656 0.000000
# 3 -0.015482 -0.000181 0.021373 0.000000 -0.005112 0.000000
# 4 0.000000 0.000000 0.000000 0.037554 0.000000 0.014342
# 5 -0.000317 -0.003656 -0.005112 0.000000 0.021908 0.000000
# 6 0.000000 0.000000 0.000000 0.014342 0.000000 0.064056
#
#
# Mechanical properties :
#
#
# Convention : Reuss Voigt Hill
#
# Bulk Modulus (GPa) = 53.74443 69.82953 61.78698
# Shear Modulus (GPa) = 22.39339 33.78277 28.08808
#
# Velocity S-wave (km/s) = 3.12762 3.84150 3.50280
# Velocity P-wave (km/s) = 6.04314 7.08375 6.58404
#
# Compressibility (1/GPa) = 0.01860658
#
# Stress axis : x y z
#
# Youngs Moduli (GPa) = 37.63848 122.82839 46.78705
#
# Poissons Ratio (x) = 0.37776 0.72435
# Poissons Ratio (y) = 0.11576 0.00847
# Poissons Ratio (z) = 0.58271 0.02224
#
# Static dielectric constant tensor:
#      x y z
#    x 2.005000 0.000000 -0.065550 
#    y 0.000000 1.812290 0.000000 
#    z -0.065550 0.000000 1.885960 
# 
# From -- ./inp_files/35457.got.cif
#   From: 2010.05.17/outbox.cif.g08.bks.cpg/sg15_18_cif.got.tgz:35457.got - 2010.06.03 18:47:42.
