data_PCOD9276753
_publ_section_title
;
Structure prediction by ZEFSAII (Michael W. Deem and Ramdas Pophale) SiO2 
 PCOD9276753
Probable space group: C 2/C
;
_chemical_formula_sum "Si O2"
_cell_formula_units_Z 44
_cell_length_a 28.602157
_cell_length_b 11.371597
_cell_length_c 15.516514
_cell_angle_alpha 90.000000
_cell_angle_beta 23.117409
_cell_angle_gamma 90.000000
_cell_volume 1981.449649
_symmetry_space_group_name_H-M "C 2/C"
_symmetry_group_IT_number 15
_symmetry_cell_setting 'monoclinic'
loop_
_space_group_symop_operation_xyz
x,y,z
-x,y,1/2-z
-x,-y,-z
x,-y,1/2+z
1/2+x,1/2+y,z
1/2-x,1/2+y,1/2-z
1/2-x,1/2-y,-z
1/2+x,1/2-y,1/2+z
loop_
_atom_site_type_symbol
_atom_site_label
_atom_site_fract_x
_atom_site_fract_y
_atom_site_fract_z
Si Si1 0.374544 0.553841 0.686594
Si Si2 0.423164 0.887329 0.164357
Si Si3 0.337035 0.691087 0.177561
Si Si4 0.278828 0.557527 0.023562
Si Si5 0.500000 0.600832 0.750000
Si Si6 0.375662 0.783431 0.581346
O O1 0.500000 0.500000 0.500000
O O2 0.311036 0.439243 0.757192
O O3 0.315974 0.613345 0.869625
O O4 0.389192 0.652078 0.591303
O O5 0.402782 0.777622 0.133620
O O6 0.292728 0.943610 0.386338
O O7 0.493897 0.843203 0.129244
O O8 0.500000 0.000000 0.000000
O O9 0.208206 0.727673 0.359569
O O10 0.428974 0.677155 0.941428
O O11 0.399243 0.528940 0.870772
O O12 0.202000 0.640143 0.217006
#
# Coordination Sequence:
#
# PCOD9276753 Si02
#       6
#     8   8   8   8   4   8
#     4  12  22  41  67  92 128 164 220 265 311 381
#     4  10  22  41  63  91 132 163 206 263 322 374
#     4  11  24  39  65  97 125 172 216 261 317 378
#     4  10  22  39  68  92 128 167 211 259 327 371
#     4  10  20  40  64  96 122 168 222 252 308 380
#     4  10  23  41  65  90 131 167 216 257 317 382
#
# _framework density 22.205964000000002
#
# number of rings (size 3 to 8) (size 9 to 14) (size 15 to 20)
#    0.000    1.455    3.636    0.545    7.636    5.091 
#    0.000    0.909    0.000    0.000    0.000    0.000 
#    0.000    0.000    0.000    0.000    0.000    0.000 
#
# Total GULP energy -122630.793862 kJ/mol
# GULP energy per Si atom -5574.126994 kJ/mol
# Density = 2.215542 g / cm^3
# Si number density = 22.205964 Si / 1000 Ang^3
#
#
#
# Elastic Constant Matrix: (Units=GPa)
#
#
# Indices 1 2 3 4 5 6 
#
# 1 52.1506 14.3358 31.0163 0.0000 -41.7289 0.0000
# 2 14.3358 83.5266 20.5040 0.0000 -25.9911 0.0000
# 3 31.0163 20.5040 67.7066 0.0000 -40.7473 0.0000
# 4 0.0000 0.0000 0.0000 14.9986 0.0000 -9.6835
# 5 -41.7289 -25.9911 -40.7473 0.0000 57.8647 0.0000
# 6 0.0000 0.0000 0.0000 -9.6835 0.0000 41.9305
#
#
#
# Elastic Compliance Matrix: (Units=1/GPa)
#
#
# Indices 1 2 3 4 5 6 
#
# 1 0.046067 0.002890 -0.002090 0.000000 0.033048 0.000000
# 2 0.002890 0.014123 -0.000918 0.000000 0.007781 0.000000
# 3 -0.002090 -0.000918 0.025772 0.000000 0.016229 0.000000
# 4 0.000000 0.000000 0.000000 0.078356 0.000000 0.018096
# 5 0.033048 0.007781 0.016229 0.000000 0.056037 0.000000
# 6 0.000000 0.000000 0.000000 0.018096 0.000000 0.028028
#
#
# Mechanical properties :
#
#
# Convention : Reuss Voigt Hill
#
# Bulk Modulus (GPa) = 11.66500 37.23287 24.44894
# Shear Modulus (GPa) = 18.03799 32.12728 25.08263
#
# Velocity S-wave (km/s) = 2.85319 3.80779 3.36452
# Velocity P-wave (km/s) = 4.01481 6.01131 5.11148
#
# Compressibility (1/GPa) = 0.08572650
#
# Stress axis : x y z
#
# Youngs Moduli (GPa) = 21.70743 70.80720 38.80245
#
# Poissons Ratio (x) = -0.20463 0.08108
# Poissons Ratio (y) = -0.06273 0.03561
# Poissons Ratio (z) = 0.04536 0.06499
#
# Static dielectric constant tensor:
#      x y z
#    x 1.912390 0.000000 0.013800 
#    y 0.000000 1.547250 0.000000 
#    z 0.013800 0.000000 1.938260 
# 
# From -- ./inp_files/151775.got.cif
#   From: 2010.05.17/outbox.cif.g08.bks.cpg/sg15_76_cif.got.tgz:151775.got - 2010.06.03 18:47:42.
