data_PCOD9276007
_publ_section_title
;
Structure prediction by ZEFSAII (Michael W. Deem and Ramdas Pophale) SiO2 
 PCOD9276007
Probable space group: C 2/C
;
_chemical_formula_sum "Si O2"
_cell_formula_units_Z 40
_cell_length_a 12.437212
_cell_length_b 7.312137
_cell_length_c 21.791888
_cell_angle_alpha 90.000000
_cell_angle_beta 66.433558
_cell_angle_gamma 90.000000
_cell_volume 1816.522046
_symmetry_space_group_name_H-M "C 2/C"
_symmetry_group_IT_number 15
_symmetry_cell_setting 'monoclinic'
loop_
_space_group_symop_operation_xyz
x,y,z
-x,y,1/2-z
-x,-y,-z
x,-y,1/2+z
1/2+x,1/2+y,z
1/2-x,1/2+y,1/2-z
1/2-x,1/2-y,-z
1/2+x,1/2-y,1/2+z
loop_
_atom_site_type_symbol
_atom_site_label
_atom_site_fract_x
_atom_site_fract_y
_atom_site_fract_z
Si Si1 0.132254 0.562898 0.982676
Si Si2 0.314407 0.075637 0.665229
Si Si3 0.453904 0.559291 0.111065
Si Si4 0.833311 0.003354 0.019632
Si Si5 0.913489 0.765188 0.216849
O O1 0.201936 0.532483 0.903164
O O2 0.136079 0.780215 0.994093
O O3 0.204305 0.474494 0.022159
O O4 0.000000 0.500000 0.000000
O O5 0.400580 0.251161 0.646491
O O6 0.196542 0.136300 0.725907
O O7 0.370190 0.903247 0.686144
O O8 0.358578 0.469612 0.085377
O O9 0.475113 0.415659 0.159832
O O10 0.569157 0.592818 0.044207
O O11 0.000000 0.699264 0.250000
#
# Coordination Sequence:
#
# PCOD9276007 Si02
#       5
#     8   8   8   8   8
#     4  10  20  39  66  98 132 172 220 273 335 399
#     4  11  24  43  65  98 131 173 229 266 331 404
#     4  10  21  43  70  98 134 174 222 275 341 392
#     4   9  20  40  66  97 134 170 211 280 337 394
#     4  12  25  45  66  93 136 180 222 282 325 395
#
# _framework density 22.020101
#
# number of rings (size 3 to 8) (size 9 to 14) (size 15 to 20)
#    0.000    1.600    2.000    2.400    0.000    4.000 
#    3.600   16.000    0.000    0.000    0.000    0.000 
#    0.000    0.000    0.000    0.000    0.000    0.000 
#
# Total GULP energy -111884.007924 kJ/mol
# GULP energy per Si atom -5594.200396 kJ/mol
# Density = 2.196998 g / cm^3
# Si number density = 22.020101 Si / 1000 Ang^3
#
#
#
# Elastic Constant Matrix: (Units=GPa)
#
#
# Indices 1 2 3 4 5 6 
#
# 1 104.9028 20.8052 -3.5396 0.0000 16.3613 0.0000
# 2 20.8052 64.5493 13.8682 0.0000 3.1778 0.0000
# 3 -3.5396 13.8682 50.1743 0.0000 7.5546 0.0000
# 4 0.0000 0.0000 0.0000 20.0165 0.0000 5.7823
# 5 16.3613 3.1778 7.5546 0.0000 22.9445 0.0000
# 6 0.0000 0.0000 0.0000 5.7823 0.0000 17.1674
#
#
#
# Elastic Compliance Matrix: (Units=1/GPa)
#
#
# Indices 1 2 3 4 5 6 
#
# 1 0.011857 -0.004093 0.003320 0.000000 -0.008981 0.000000
# 2 -0.004093 0.017898 -0.005578 0.000000 0.002276 0.000000
# 3 0.003320 -0.005578 0.023091 0.000000 -0.009198 0.000000
# 4 0.000000 0.000000 0.000000 0.055344 0.000000 -0.018641
# 5 -0.008981 0.002276 -0.009198 0.000000 0.052701 0.000000
# 6 0.000000 0.000000 0.000000 -0.018641 0.000000 0.064528
#
#
# Mechanical properties :
#
#
# Convention : Reuss Voigt Hill
#
# Bulk Modulus (GPa) = 24.91041 31.32157 28.11599
# Shear Modulus (GPa) = 19.88047 24.59186 22.23617
#
# Velocity S-wave (km/s) = 3.00798 3.34547 3.18120
# Velocity P-wave (km/s) = 4.83746 5.40165 5.12732
#
# Compressibility (1/GPa) = 0.04014386
#
# Stress axis : x y z
#
# Youngs Moduli (GPa) = 84.33701 55.87327 43.30599
#
# Poissons Ratio (x) = 0.22868 -0.14378
# Poissons Ratio (y) = 0.34518 0.24158
# Poissons Ratio (z) = -0.28000 0.31168
#
# Static dielectric constant tensor:
#      x y z
#    x 1.812450 0.000000 0.002770 
#    y 0.000000 1.822730 0.000000 
#    z 0.002770 0.000000 1.789280 
# 
# From -- ./inp_files/235726.got.cif
#   From: 2010.05.17/outbox.cif.g08.bks.cpg/sg15_118_cif.got.tgz:235726.got - 2010.06.03 18:47:42.
