data_PCOD9276228
_publ_section_title
;
Structure prediction by ZEFSAII (Michael W. Deem and Ramdas Pophale) SiO2 
 PCOD9276228
Probable space group: C 2/C
;
_chemical_formula_sum "Si O2"
_cell_formula_units_Z 32
_cell_length_a 16.887018
_cell_length_b 17.324352
_cell_length_c 8.978646
_cell_angle_alpha 90.000000
_cell_angle_beta 152.050232
_cell_angle_gamma 90.000000
_cell_volume 1231.156485
_symmetry_space_group_name_H-M "C 2/C"
_symmetry_group_IT_number 15
_symmetry_cell_setting 'monoclinic'
loop_
_space_group_symop_operation_xyz
x,y,z
-x,y,1/2-z
-x,-y,-z
x,-y,1/2+z
1/2+x,1/2+y,z
1/2-x,1/2+y,1/2-z
1/2-x,1/2-y,-z
1/2+x,1/2-y,1/2+z
loop_
_atom_site_type_symbol
_atom_site_label
_atom_site_fract_x
_atom_site_fract_y
_atom_site_fract_z
Si Si1 0.000000 0.394816 0.250000
Si Si2 0.552862 0.732188 0.678662
Si Si3 0.500000 0.875507 0.750000
Si Si4 0.655139 0.609316 0.293503
Si Si5 0.248759 0.490061 0.263938
O O1 0.164146 0.353756 0.458026
O O2 0.088366 0.451515 0.519599
O O3 0.500000 0.694773 0.750000
O O4 0.473818 0.817190 0.568913
O O5 0.482729 0.676042 0.436750
O O6 0.750000 0.750000 0.000000
O O7 0.334943 0.927811 0.487474
O O8 0.624430 0.545536 0.112899
O O9 0.684756 0.559023 0.489249
#
# Coordination Sequence:
#
# PCOD9276228 Si02
#       5
#     4   8   4   8   8
#     4   7  18  32  68 110 153 172 244 297 390 426
#     4  10  25  48  69 102 156 210 250 315 384 455
#     4   9  22  42  68 102 159 196 242 323 380 448
#     4  10  20  39  75 114 148 196 255 311 394 454
#     4   9  19  38  72 110 146 194 242 323 379 456
#
# _framework density 25.991823
#
# number of rings (size 3 to 8) (size 9 to 14) (size 15 to 20)
#    2.250    0.500    0.000    0.750    0.000    5.000 
#    0.000    6.250    0.000    0.000    0.000    0.000 
#    0.000    0.000    0.000    0.000    0.000    0.000 
#
# Total GULP energy -89179.179796 kJ/mol
# GULP energy per Si atom -5573.698737 kJ/mol
# Density = 2.593266 g / cm^3
# Si number density = 25.991823 Si / 1000 Ang^3
#
#
#
# Elastic Constant Matrix: (Units=GPa)
#
#
# Indices 1 2 3 4 5 6 
#
# 1 71.6557 27.3655 42.6595 0.0000 -20.5725 0.0000
# 2 27.3655 130.5141 60.2055 0.0000 -17.8529 0.0000
# 3 42.6595 60.2055 132.1134 0.0000 12.0819 0.0000
# 4 0.0000 0.0000 0.0000 62.1369 0.0000 -15.7031
# 5 -20.5725 -17.8529 12.0819 0.0000 46.7780 0.0000
# 6 0.0000 0.0000 0.0000 -15.7031 0.0000 21.6333
#
#
#
# Elastic Compliance Matrix: (Units=1/GPa)
#
#
# Indices 1 2 3 4 5 6 
#
# 1 0.022454 0.001131 -0.008919 0.000000 0.012610 0.000000
# 2 0.001131 0.011030 -0.005963 0.000000 0.006247 0.000000
# 3 -0.008919 -0.005963 0.014066 0.000000 -0.009831 0.000000
# 4 0.000000 0.000000 0.000000 0.019709 0.000000 0.014306
# 5 0.012610 0.006247 -0.009831 0.000000 0.031847 0.000000
# 6 0.000000 0.000000 0.000000 0.014306 0.000000 0.056610
#
#
# Mechanical properties :
#
#
# Convention : Reuss Voigt Hill
#
# Bulk Modulus (GPa) = 49.88062 66.08270 57.98166
# Shear Modulus (GPa) = 26.32957 39.71316 33.02136
#
# Velocity S-wave (km/s) = 3.18621 3.91309 3.56821
# Velocity P-wave (km/s) = 5.72437 6.77466 6.27154
#
# Compressibility (1/GPa) = 0.02004787
#
# Stress axis : x y z
#
# Youngs Moduli (GPa) = 44.53547 90.66038 71.09415
#
# Poissons Ratio (x) = -0.10257 0.63410
# Poissons Ratio (y) = -0.05038 0.42395
# Poissons Ratio (z) = 0.39722 0.54063
#
# Static dielectric constant tensor:
#      x y z
#    x 1.995880 0.000000 0.013650 
#    y 0.000000 2.046080 0.000000 
#    z 0.013650 0.000000 2.079330 
# 
# From -- ./inp_files/118994.got.cif
#   From: 2010.05.17/outbox.cif.g08.bks.cpg/sg15_60_cif.got.tgz:118994.got - 2010.06.03 18:47:42.
