data_PCOD9276617
_publ_section_title
;
Structure prediction by ZEFSAII (Michael W. Deem and Ramdas Pophale) SiO2 
 PCOD9276617
Probable space group: C 2/C
;
_chemical_formula_sum "Si O2"
_cell_formula_units_Z 60
_cell_length_a 20.769070
_cell_length_b 11.820043
_cell_length_c 10.927158
_cell_angle_alpha 90.000000
_cell_angle_beta 104.364848
_cell_angle_gamma 90.000000
_cell_volume 2598.654658
_symmetry_space_group_name_H-M "C 2/C"
_symmetry_group_IT_number 15
_symmetry_cell_setting 'monoclinic'
loop_
_space_group_symop_operation_xyz
x,y,z
-x,y,1/2-z
-x,-y,-z
x,-y,1/2+z
1/2+x,1/2+y,z
1/2-x,1/2+y,1/2-z
1/2-x,1/2-y,-z
1/2+x,1/2-y,1/2+z
loop_
_atom_site_type_symbol
_atom_site_label
_atom_site_fract_x
_atom_site_fract_y
_atom_site_fract_z
Si Si1 0.075898 0.969626 0.771727
Si Si2 0.131148 0.185782 0.512518
Si Si3 0.000000 0.485146 0.250000
Si Si4 0.238919 0.953772 0.219381
Si Si5 0.330530 0.319873 0.125509
Si Si6 0.657711 0.335512 0.653989
Si Si7 0.362459 0.134418 0.667135
Si Si8 0.060168 0.702049 0.196017
O O1 0.093384 0.915079 0.648314
O O2 0.000000 0.991277 0.750000
O O3 0.118094 0.080634 0.815500
O O4 0.098436 0.881729 0.886294
O O5 0.186302 0.107756 0.602756
O O6 0.161006 0.298598 0.464629
O O7 0.075807 0.228994 0.581598
O O8 0.936953 0.410531 0.181482
O O9 0.967106 0.573667 0.332150
O O10 0.233826 0.868621 0.333695
O O11 0.308882 0.956745 0.184581
O O12 0.214383 0.080889 0.235926
O O13 0.369630 0.211594 0.197667
O O14 0.325138 0.315445 0.978236
O O15 0.642211 0.224168 0.723477
O O16 0.000000 0.750848 0.250000
#
# Coordination Sequence:
#
# PCOD9276617 Si02
#       8
#     8   8   4   8   8   8   8   8
#     4  10  21  33  63 102 134 175 213 270 326 396
#     4  10  21  41  69  98 129 177 222 266 333 394
#     4  10  26  48  60 100 126 172 226 266 340 392
#     4  10  22  44  65 100 134 174 223 271 330 394
#     4  10  20  40  63  96 139 169 220 266 335 390
#     4  10  23  40  65  98 133 170 221 277 322 395
#     4  11  25  44  71  94 131 175 225 277 323 405
#     4   9  22  41  64  92 135 177 213 272 322 403
#
# _framework density 23.088868999999999
#
# number of rings (size 3 to 8) (size 9 to 14) (size 15 to 20)
#    0.400    1.600    1.333    0.800    5.600    3.733 
#    4.800    0.000    0.000    0.000    0.000    0.000 
#    0.000    0.000    0.000    0.000    0.000    0.000 
#
# Total GULP energy -167375.211090 kJ/mol
# GULP energy per Si atom -5579.173703 kJ/mol
# Density = 2.303632 g / cm^3
# Si number density = 23.088869 Si / 1000 Ang^3
#
#
#
# Elastic Constant Matrix: (Units=GPa)
#
#
# Indices 1 2 3 4 5 6 
#
# 1 94.6339 36.5489 16.2369 0.0000 -17.1807 0.0000
# 2 36.5489 94.9315 19.2684 0.0000 0.8144 0.0000
# 3 16.2369 19.2684 96.6636 0.0000 -17.5424 0.0000
# 4 0.0000 0.0000 0.0000 49.3858 0.0000 -21.6186
# 5 -17.1807 0.8144 -17.5424 0.0000 21.9516 0.0000
# 6 0.0000 0.0000 0.0000 -21.6186 0.0000 38.6149
#
#
#
# Elastic Compliance Matrix: (Units=1/GPa)
#
#
# Indices 1 2 3 4 5 6 
#
# 1 0.015092 -0.006128 0.001019 0.000000 0.012854 0.000000
# 2 -0.006128 0.013587 -0.003089 0.000000 -0.007768 0.000000
# 3 0.001019 -0.003089 0.012814 0.000000 0.011152 0.000000
# 4 0.000000 0.000000 0.000000 0.026822 0.000000 0.015016
# 5 0.012854 -0.007768 0.011152 0.000000 0.064815 0.000000
# 6 0.000000 0.000000 0.000000 0.015016 0.000000 0.034304
#
#
# Mechanical properties :
#
#
# Convention : Reuss Voigt Hill
#
# Bulk Modulus (GPa) = 39.84423 47.81525 43.82974
# Shear Modulus (GPa) = 26.01529 36.26878 31.14204
#
# Velocity S-wave (km/s) = 3.36035 3.96767 3.67657
# Velocity P-wave (km/s) = 5.68773 6.46097 6.08664
#
# Compressibility (1/GPa) = 0.02509774
#
# Stress axis : x y z
#
# Youngs Moduli (GPa) = 66.25836 73.60149 78.04247
#
# Poissons Ratio (x) = 0.45101 -0.07953
# Poissons Ratio (y) = 0.40601 0.24106
# Poissons Ratio (z) = -0.06752 0.22734
#
# Static dielectric constant tensor:
#      x y z
#    x 1.883710 0.000000 -0.019580 
#    y 0.000000 1.965860 0.000000 
#    z -0.019580 0.000000 1.861320 
# 
# From -- ./inp_files/111651.got.cif
#   From: 2010.05.17/outbox.cif.g08.bks.cpg/sg15_56_cif.got.tgz:111651.got - 2010.06.03 18:47:42.
