data_PCOD9276898
_publ_section_title
;
Structure prediction by ZEFSAII (Michael W. Deem and Ramdas Pophale) SiO2 
 PCOD9276898
Probable space group: C 2/C
;
_chemical_formula_sum "Si O2"
_cell_formula_units_Z 44
_cell_length_a 25.950702
_cell_length_b 5.270150
_cell_length_c 13.878027
_cell_angle_alpha 90.000000
_cell_angle_beta 82.508942
_cell_angle_gamma 90.000000
_cell_volume 1881.816617
_symmetry_space_group_name_H-M "C 2/C"
_symmetry_group_IT_number 15
_symmetry_cell_setting 'monoclinic'
loop_
_space_group_symop_operation_xyz
x,y,z
-x,y,1/2-z
-x,-y,-z
x,-y,1/2+z
1/2+x,1/2+y,z
1/2-x,1/2+y,1/2-z
1/2-x,1/2-y,-z
1/2+x,1/2-y,1/2+z
loop_
_atom_site_type_symbol
_atom_site_label
_atom_site_fract_x
_atom_site_fract_y
_atom_site_fract_z
Si Si1 0.013794 0.304795 0.578957
Si Si2 0.759300 0.471375 0.802025
Si Si3 0.000000 0.405632 0.250000
Si Si4 0.189386 0.712710 0.547536
Si Si5 0.065330 0.917202 0.889042
Si Si6 0.832820 0.204486 0.048064
O O1 0.049315 0.119284 0.507378
O O2 0.000000 0.500000 0.500000
O O3 0.035863 0.429900 0.669052
O O4 0.958632 0.190283 0.624760
O O5 0.769331 0.227795 0.731069
O O6 0.807578 0.598462 0.845883
O O7 0.723144 0.333622 0.889809
O O8 0.034613 0.245907 0.316586
O O9 0.250000 0.750000 0.500000
O O10 0.163222 0.490462 0.490755
O O11 0.164078 0.985882 0.534545
O O12 0.125407 0.858590 0.879684
#
# Coordination Sequence:
#
# PCOD9276898 Si02
#       6
#     8   8   4   8   8   8
#     4   9  20  40  64  86 130 171 206 266 340 393
#     4  11  21  40  62  92 130 163 206 270 332 373
#     4  10  20  40  66  88 132 168 206 276 344 380
#     4  10  21  41  64  86 126 173 209 256 335 386
#     4  10  22  40  64  95 125 174 223 269 327 399
#     4  11  23  40  68  92 124 176 225 261 313 417
#
# _framework density 23.381661000000001
#
# number of rings (size 3 to 8) (size 9 to 14) (size 15 to 20)
#    0.000    1.818    0.000    6.000    5.091    0.000 
#    3.273    7.273    0.000    0.000    0.000    0.000 
#    0.000    0.000    0.000    0.000    0.000    0.000 
#
# Total GULP energy -122497.761274 kJ/mol
# GULP energy per Si atom -5568.080058 kJ/mol
# Density = 2.332844 g / cm^3
# Si number density = 23.381661 Si / 1000 Ang^3
#
#
#
# Elastic Constant Matrix: (Units=GPa)
#
#
# Indices 1 2 3 4 5 6 
#
# 1 43.7913 2.6422 0.1426 0.0000 21.7589 0.0000
# 2 2.6422 113.5646 28.1067 0.0000 7.7185 0.0000
# 3 0.1426 28.1067 104.6645 0.0000 17.2093 0.0000
# 4 0.0000 0.0000 0.0000 33.7685 0.0000 -8.7972
# 5 21.7589 7.7185 17.2093 0.0000 21.2516 0.0000
# 6 0.0000 0.0000 0.0000 -8.7972 0.0000 -6.2567
#
#
#
# Elastic Compliance Matrix: (Units=1/GPa)
#
#
# Indices 1 2 3 4 5 6 
#
# 1 0.055140 0.000549 0.010490 0.000000 -0.065150 0.000000
# 2 0.000549 0.009484 -0.002179 0.000000 -0.002242 0.000000
# 3 0.010490 -0.002179 0.013567 0.000000 -0.020935 0.000000
# 4 0.000000 0.000000 0.000000 0.021674 0.000000 -0.030475
# 5 -0.065150 -0.002242 -0.020935 0.000000 0.131528 0.000000
# 6 0.000000 0.000000 0.000000 -0.030475 0.000000 -0.116980
#
#
# Mechanical properties :
#
#
# Convention : Reuss Voigt Hill
#
# Bulk Modulus (GPa) = 10.42636 35.97815 23.20226
# Shear Modulus (GPa) = 38.86062 25.16129 32.01095
#
# Velocity S-wave (km/s) = 4.08120 3.28397 3.70410
# Velocity P-wave (km/s) = 5.16499 5.45894 5.31400
#
# Compressibility (1/GPa) = 0.09591071
#
# Stress axis : x y z
#
# Youngs Moduli (GPa) = 18.13572 105.43538 73.70574
#
# Poissons Ratio (x) = -0.05788 -0.77315
# Poissons Ratio (y) = -0.00996 0.16061
# Poissons Ratio (z) = -0.19024 0.22975
#
# Static dielectric constant tensor:
#      x y z
#    x 1.876450 0.000000 0.017790 
#    y 0.000000 2.002490 0.000000 
#    z 0.017790 0.000000 1.992670 
# 
# From -- ./inp_files/179469.got.cif
#   From: 2010.05.17/outbox.cif.g08.bks.cpg/sg15_90_cif.got.tgz:179469.got - 2010.06.03 18:47:42.
