data_PCOD9276112
_publ_section_title
;
Structure prediction by ZEFSAII (Michael W. Deem and Ramdas Pophale) SiO2 
 PCOD9276112
Probable space group: C 2/C
;
_chemical_formula_sum "Si O2"
_cell_formula_units_Z 56
_cell_length_a 8.800150
_cell_length_b 20.706583
_cell_length_c 17.052036
_cell_angle_alpha 90.000000
_cell_angle_beta 132.837445
_cell_angle_gamma 90.000000
_cell_volume 2278.494315
_symmetry_space_group_name_H-M "C 2/C"
_symmetry_group_IT_number 15
_symmetry_cell_setting 'monoclinic'
loop_
_space_group_symop_operation_xyz
x,y,z
-x,y,1/2-z
-x,-y,-z
x,-y,1/2+z
1/2+x,1/2+y,z
1/2-x,1/2+y,1/2-z
1/2-x,1/2-y,-z
1/2+x,1/2-y,1/2+z
loop_
_atom_site_type_symbol
_atom_site_label
_atom_site_fract_x
_atom_site_fract_y
_atom_site_fract_z
Si Si1 0.574615 0.893718 0.512134
Si Si2 0.915934 0.216577 0.135021
Si Si3 0.279718 0.050646 0.137801
Si Si4 0.608070 0.642673 0.869958
Si Si5 0.933762 0.168134 0.475660
Si Si6 0.390154 0.501299 0.086325
Si Si7 0.372671 0.870533 0.131413
O O1 0.722745 0.831493 0.562152
O O2 0.355919 0.869602 0.467525
O O3 0.725611 0.955854 0.580256
O O4 0.514531 0.902874 0.400731
O O5 0.874821 0.292449 0.128316
O O6 0.000000 0.197618 0.250000
O O7 0.036319 0.209038 0.093791
O O8 0.500000 0.033947 0.250000
O O9 0.268835 0.126158 0.111380
O O10 0.101252 0.038697 0.139981
O O11 0.222045 0.015337 0.036188
O O12 0.500000 0.665795 0.750000
O O13 0.539742 0.567861 0.855381
O O14 0.555829 0.687464 0.928308
O O15 0.128388 0.117648 0.543900
O O16 0.500000 0.890190 0.250000
#
# Coordination Sequence:
#
# PCOD9276112 Si02
#       7
#     8   8   8   8   8   8   8
#     4  11  21  40  61  91 127 169 213 264 315 380
#     4  10  22  40  67  95 121 163 222 268 332 392
#     4  10  21  37  62  92 129 165 213 263 323 376
#     4  11  25  39  59  93 134 176 214 258 320 382
#     4  10  20  42  61  91 130 159 214 269 314 384
#     4  10  22  39  57  93 128 170 218 258 313 386
#     4  10  20  39  68  94 120 165 219 271 329 388
#
# _framework density 24.577634
#
# number of rings (size 3 to 8) (size 9 to 14) (size 15 to 20)
#    0.000    1.714    2.857    3.000    2.000    3.429 
#    0.000    2.857    0.000    6.857    0.000    0.000 
#    0.000    0.000    0.000    0.000    0.000    0.000 
#
# Total GULP energy -155886.103972 kJ/mol
# GULP energy per Si atom -5567.360856 kJ/mol
# Density = 2.452169 g / cm^3
# Si number density = 24.577634 Si / 1000 Ang^3
#
#
#
# Elastic Constant Matrix: (Units=GPa)
#
#
# Indices 1 2 3 4 5 6 
#
# 1 109.4520 9.9501 40.1415 0.0000 -9.9774 0.0000
# 2 9.9501 63.6943 24.6283 0.0000 -6.5672 0.0000
# 3 40.1415 24.6283 140.3404 0.0000 -19.8374 0.0000
# 4 0.0000 0.0000 0.0000 21.4366 0.0000 -6.0221
# 5 -9.9774 -6.5672 -19.8374 0.0000 42.8853 0.0000
# 6 0.0000 0.0000 0.0000 -6.0221 0.0000 10.3252
#
#
#
# Elastic Compliance Matrix: (Units=1/GPa)
#
#
# Indices 1 2 3 4 5 6 
#
# 1 0.010267 -0.000447 -0.002707 0.000000 0.001068 0.000000
# 2 -0.000447 0.016930 -0.002666 0.000000 0.001256 0.000000
# 3 -0.002707 -0.002666 0.008796 0.000000 0.003031 0.000000
# 4 0.000000 0.000000 0.000000 0.055790 0.000000 0.032539
# 5 0.001068 0.001256 0.003031 0.000000 0.025161 0.000000
# 6 0.000000 0.000000 0.000000 0.032539 0.000000 0.115829
#
#
# Mechanical properties :
#
#
# Convention : Reuss Voigt Hill
#
# Bulk Modulus (GPa) = 41.06214 51.43626 46.24920
# Shear Modulus (GPa) = 19.79955 30.84723 25.32339
#
# Velocity S-wave (km/s) = 2.84137 3.54657 3.21338
# Velocity P-wave (km/s) = 5.24480 6.14365 5.71193
#
# Compressibility (1/GPa) = 0.02435333
#
# Stress axis : x y z
#
# Youngs Moduli (GPa) = 97.39624 59.06677 113.68650
#
# Poissons Ratio (x) = 0.02640 0.30779
# Poissons Ratio (y) = 0.04353 0.30306
# Poissons Ratio (z) = 0.26369 0.15746
#
# Static dielectric constant tensor:
#      x y z
#    x 2.149700 0.000000 -0.021450 
#    y 0.000000 1.998250 0.000000 
#    z -0.021450 0.000000 2.037440 
# 
# From -- ./inp_files/193295.got.cif
#   From: 2010.05.17/outbox.cif.g08.bks.cpg/sg15_97_cif.got.tgz:193295.got - 2010.06.03 18:47:42.
