data_PCOD9276566
_publ_section_title
;
Structure prediction by ZEFSAII (Michael W. Deem and Ramdas Pophale) SiO2 
 PCOD9276566
Probable space group: C 2/C
;
_chemical_formula_sum "Si O2"
_cell_formula_units_Z 56
_cell_length_a 28.550394
_cell_length_b 11.548038
_cell_length_c 11.258031
_cell_angle_alpha 90.000000
_cell_angle_beta 35.894044
_cell_angle_gamma 90.000000
_cell_volume 2176.175244
_symmetry_space_group_name_H-M "C 2/C"
_symmetry_group_IT_number 15
_symmetry_cell_setting 'monoclinic'
loop_
_space_group_symop_operation_xyz
x,y,z
-x,y,1/2-z
-x,-y,-z
x,-y,1/2+z
1/2+x,1/2+y,z
1/2-x,1/2+y,1/2-z
1/2-x,1/2-y,-z
1/2+x,1/2-y,1/2+z
loop_
_atom_site_type_symbol
_atom_site_label
_atom_site_fract_x
_atom_site_fract_y
_atom_site_fract_z
Si Si1 0.187496 0.644460 0.464518
Si Si2 0.954647 0.786495 0.086871
Si Si3 0.180303 0.834564 0.962750
Si Si4 0.088003 0.048033 0.042839
Si Si5 0.373132 0.337872 0.792670
Si Si6 0.433182 0.934892 0.473558
Si Si7 0.777917 0.493806 0.926504
O O1 0.161648 0.710038 0.635599
O O2 0.116873 0.638348 0.517852
O O3 0.202368 0.511507 0.475149
O O4 0.259428 0.716978 0.257481
O O5 0.892767 0.774064 0.322050
O O6 0.966151 0.661784 0.999025
O O7 0.916306 0.880441 0.071838
O O8 0.041080 0.838190 0.947286
O O9 0.146081 0.942487 0.955845
O O10 0.239973 0.879608 0.944472
O O11 0.103627 0.135327 0.119058
O O12 0.000000 0.002016 0.250000
O O13 0.300357 0.423085 0.917747
O O14 0.362937 0.005865 0.683496
O O15 0.500000 0.992263 0.250000
#
# Coordination Sequence:
#
# PCOD9276566 Si02
#       7
#     8   8   8   8   8   8   8
#     4  11  21  41  62  87 129 172 210 269 326 386
#     4  11  20  40  68  92 126 171 218 271 323 397
#     4  10  23  36  59  98 123 162 215 266 323 387
#     4   9  18  35  60  87 122 159 200 260 317 384
#     4  10  20  40  63  88 125 171 210 264 334 380
#     4  11  22  44  67  95 125 178 223 263 325 401
#     4  10  24  39  61  95 130 167 213 270 329 384
#
# _framework density 25.733219999999999
#
# number of rings (size 3 to 8) (size 9 to 14) (size 15 to 20)
#    0.000    1.714    2.857    1.714    0.000    9.143 
#    7.714    0.000    0.000    0.000    0.000    0.000 
#    0.000    0.000    0.000    0.000    0.000    0.000 
#
# Total GULP energy -156034.283545 kJ/mol
# GULP energy per Si atom -5572.652984 kJ/mol
# Density = 2.567465 g / cm^3
# Si number density = 25.733220 Si / 1000 Ang^3
#
#
#
# Elastic Constant Matrix: (Units=GPa)
#
#
# Indices 1 2 3 4 5 6 
#
# 1 42.8738 7.4776 34.5545 0.0000 -7.2970 0.0000
# 2 7.4776 39.2626 23.2346 0.0000 3.5571 0.0000
# 3 34.5545 23.2346 224.1409 0.0000 -3.4429 0.0000
# 4 0.0000 0.0000 0.0000 29.6041 0.0000 3.5583
# 5 -7.2970 3.5571 -3.4429 0.0000 31.7100 0.0000
# 6 0.0000 0.0000 0.0000 3.5583 0.0000 14.5538
#
#
#
# Elastic Compliance Matrix: (Units=1/GPa)
#
#
# Indices 1 2 3 4 5 6 
#
# 1 0.028181 -0.003667 -0.003865 0.000000 0.006477 0.000000
# 2 -0.003667 0.027972 -0.002400 0.000000 -0.004242 0.000000
# 3 -0.003865 -0.002400 0.005305 0.000000 -0.000044 0.000000
# 4 0.000000 0.000000 0.000000 0.034802 0.000000 -0.008509
# 5 0.006477 -0.004242 -0.000044 0.000000 0.033497 0.000000
# 6 0.000000 0.000000 0.000000 -0.008509 0.000000 0.070791
#
#
# Mechanical properties :
#
#
# Convention : Reuss Voigt Hill
#
# Bulk Modulus (GPa) = 24.04062 48.53454 36.28758
# Shear Modulus (GPa) = 21.34233 31.24094 26.29164
#
# Velocity S-wave (km/s) = 2.88300 3.48808 3.19987
# Velocity P-wave (km/s) = 4.52159 5.92654 5.27108
#
# Compressibility (1/GPa) = 0.04159627
#
# Stress axis : x y z
#
# Youngs Moduli (GPa) = 35.48486 35.74988 188.48830
#
# Poissons Ratio (x) = 0.13108 0.72849
# Poissons Ratio (y) = 0.13011 0.45228
# Poissons Ratio (z) = 0.13715 0.08578
#
# Static dielectric constant tensor:
#      x y z
#    x 2.060880 0.000000 -0.016250 
#    y 0.000000 2.099380 0.000000 
#    z -0.016250 0.000000 2.071900 
# 
# From -- ./inp_files/126998.got.cif
#   From: 2010.05.17/outbox.cif.g08.bks.cpg/sg15_64_cif.got.tgz:126998.got - 2010.06.03 18:47:42.
