data_PCOD9276643
_publ_section_title
;
Structure prediction by ZEFSAII (Michael W. Deem and Ramdas Pophale) SiO2 
 PCOD9276643
Probable space group: C 2/C
;
_chemical_formula_sum "Si O2"
_cell_formula_units_Z 48
_cell_length_a 16.022429
_cell_length_b 8.458147
_cell_length_c 27.784896
_cell_angle_alpha 90.000000
_cell_angle_beta 141.919318
_cell_angle_gamma 90.000000
_cell_volume 2322.394338
_symmetry_space_group_name_H-M "C 2/C"
_symmetry_group_IT_number 15
_symmetry_cell_setting 'monoclinic'
loop_
_space_group_symop_operation_xyz
x,y,z
-x,y,1/2-z
-x,-y,-z
x,-y,1/2+z
1/2+x,1/2+y,z
1/2-x,1/2+y,1/2-z
1/2-x,1/2-y,-z
1/2+x,1/2-y,1/2+z
loop_
_atom_site_type_symbol
_atom_site_label
_atom_site_fract_x
_atom_site_fract_y
_atom_site_fract_z
Si Si1 0.768215 0.290388 0.289920
Si Si2 0.200284 0.920407 0.459912
Si Si3 0.844090 0.017898 0.671167
Si Si4 0.403492 0.212386 0.439661
Si Si5 0.969273 0.439043 0.066015
Si Si6 0.405236 0.544425 0.865779
O O1 0.703393 0.358932 0.309568
O O2 0.663182 0.322625 0.199703
O O3 0.905593 0.391745 0.344315
O O4 0.818290 0.112102 0.317914
O O5 0.250000 0.750000 0.500000
O O6 0.175632 0.915847 0.391337
O O7 0.060546 0.973236 0.420479
O O8 0.325497 0.038818 0.525568
O O9 0.000000 0.976488 0.750000
O O10 0.743808 0.868742 0.629331
O O11 0.458094 0.190369 0.518272
O O12 0.400268 0.386167 0.417004
O O13 0.496483 0.101404 0.447314
#
# Coordination Sequence:
#
# PCOD9276643 Si02
#       6
#     8   8   8   8   8   8
#     4  11  24  39  63  92 127 163 205 254 309 366
#     4  11  22  38  67  93 119 165 209 253 302 367
#     4  10  20  40  64  86 123 166 204 245 309 371
#     4   9  19  37  62  88 118 162 200 246 307 366
#     4   9  19  39  62  88 123 161 202 245 306 371
#     4  12  24  39  64  93 124 161 208 257 306 360
#
# _framework density 20.668324999999999
#
# number of rings (size 3 to 8) (size 9 to 14) (size 15 to 20)
#    0.000    1.667    3.333    3.000    0.000    1.333 
#    0.000    0.833    0.000    0.000    0.000    0.000 
#    0.000    0.000    0.000    0.000    0.000    0.000 
#
# Total GULP energy -134164.910744 kJ/mol
# GULP energy per Si atom -5590.204614 kJ/mol
# Density = 2.062128 g / cm^3
# Si number density = 20.668325 Si / 1000 Ang^3
#
#
#
# Elastic Constant Matrix: (Units=GPa)
#
#
# Indices 1 2 3 4 5 6 
#
# 1 80.2782 18.5646 45.5193 0.0000 25.4146 0.0000
# 2 18.5646 46.0885 7.7619 0.0000 6.0985 0.0000
# 3 45.5193 7.7619 97.8013 0.0000 31.1328 0.0000
# 4 0.0000 0.0000 0.0000 35.9620 0.0000 -4.5238
# 5 25.4146 6.0985 31.1328 0.0000 37.6126 0.0000
# 6 0.0000 0.0000 0.0000 -4.5238 0.0000 20.0696
#
#
#
# Elastic Compliance Matrix: (Units=1/GPa)
#
#
# Indices 1 2 3 4 5 6 
#
# 1 0.019716 -0.005924 -0.006478 0.000000 -0.006999 0.000000
# 2 -0.005924 0.024004 0.001109 0.000000 -0.000807 0.000000
# 3 -0.006478 0.001109 0.016043 0.000000 -0.009082 0.000000
# 4 0.000000 0.000000 0.000000 0.028619 0.000000 0.006451
# 5 -0.006999 -0.000807 -0.009082 0.000000 0.038964 0.000000
# 6 0.000000 0.000000 0.000000 0.006451 0.000000 0.051281
#
#
# Mechanical properties :
#
#
# Convention : Reuss Voigt Hill
#
# Bulk Modulus (GPa) = 26.89917 40.87329 33.88623
# Shear Modulus (GPa) = 23.40782 28.88365 26.14573
#
# Velocity S-wave (km/s) = 3.36898 3.74235 3.56056
# Velocity P-wave (km/s) = 5.30814 6.20422 5.77359
#
# Compressibility (1/GPa) = 0.03717587
#
# Stress axis : x y z
#
# Youngs Moduli (GPa) = 50.72103 41.66012 62.33344
#
# Poissons Ratio (x) = 0.24681 0.40379
# Poissons Ratio (y) = 0.30049 -0.06914
# Poissons Ratio (z) = 0.32857 -0.04621
#
# Static dielectric constant tensor:
#      x y z
#    x 1.726790 0.000000 0.007900 
#    y 0.000000 1.770630 0.000000 
#    z 0.007900 0.000000 1.735680 
# 
# From -- ./inp_files/242306.got.cif
#   From: 2010.05.17/outbox.cif.g08.bks.cpg/sg15_122_cif.got.tgz:242306.got - 2010.06.03 18:47:42.
