data_PCOD9276470
_publ_section_title
;
Structure prediction by ZEFSAII (Michael W. Deem and Ramdas Pophale) SiO2 
 PCOD9276470
Probable space group: C 2/C
;
_chemical_formula_sum "Si O2"
_cell_formula_units_Z 44
_cell_length_a 12.357886
_cell_length_b 7.408614
_cell_length_c 21.419333
_cell_angle_alpha 90.000000
_cell_angle_beta 72.817827
_cell_angle_gamma 90.000000
_cell_volume 1873.522191
_symmetry_space_group_name_H-M "C 2/C"
_symmetry_group_IT_number 15
_symmetry_cell_setting 'monoclinic'
loop_
_space_group_symop_operation_xyz
x,y,z
-x,y,1/2-z
-x,-y,-z
x,-y,1/2+z
1/2+x,1/2+y,z
1/2-x,1/2+y,1/2-z
1/2-x,1/2-y,-z
1/2+x,1/2-y,1/2+z
loop_
_atom_site_type_symbol
_atom_site_label
_atom_site_fract_x
_atom_site_fract_y
_atom_site_fract_z
Si Si1 0.956643 0.532402 0.437439
Si Si2 0.161160 0.566879 0.323769
Si Si3 0.492771 0.545353 0.928740
Si Si4 0.844640 0.746557 0.883393
Si Si5 0.350415 0.556239 0.704379
Si Si6 0.500000 0.733999 0.250000
O O1 0.062905 0.466949 0.377074
O O2 0.000000 0.500000 0.500000
O O3 0.949781 0.748036 0.429263
O O4 0.847941 0.415838 0.433692
O O5 0.240578 0.658372 0.364375
O O6 0.232334 0.454818 0.261629
O O7 0.111415 0.737328 0.294334
O O8 0.408906 0.409435 0.907642
O O9 0.616117 0.523839 0.873952
O O10 0.500000 0.500000 0.000000
O O11 0.919552 0.669603 0.812867
O O12 0.420741 0.403283 0.726127
#
# Coordination Sequence:
#
# PCOD9276470 Si02
#       6
#     8   8   8   8   8   4
#     4  11  23  40  64  91 123 169 208 255 324 382
#     4  10  23  40  61  95 122 161 218 267 308 400
#     4  10  20  40  62  88 127 164 204 260 315 382
#     4  10  21  41  63  88 128 164 210 256 326 368
#     4   9  20  38  59  87 121 155 205 260 314 365
#     4   8  18  38  60  84 120 164 194 264 312 370
#
# _framework density 23.485177
#
# number of rings (size 3 to 8) (size 9 to 14) (size 15 to 20)
#    0.000    2.182    1.818    0.000    7.636    0.727 
#   13.091    1.818    0.000    0.000    0.000    0.000 
#    0.000    0.000    0.000    0.000    0.000    0.000 
#
# Total GULP energy -122560.596452 kJ/mol
# GULP energy per Si atom -5570.936202 kJ/mol
# Density = 2.343172 g / cm^3
# Si number density = 23.485177 Si / 1000 Ang^3
#
#
#
# Elastic Constant Matrix: (Units=GPa)
#
#
# Indices 1 2 3 4 5 6 
#
# 1 75.7091 22.0928 35.3182 0.0000 28.4929 0.0000
# 2 22.0928 99.0494 29.2947 0.0000 23.9949 0.0000
# 3 35.3182 29.2947 136.9174 0.0000 7.8190 0.0000
# 4 0.0000 0.0000 0.0000 35.7188 0.0000 26.8358
# 5 28.4929 23.9949 7.8190 0.0000 36.4558 0.0000
# 6 0.0000 0.0000 0.0000 26.8358 0.0000 83.2393
#
#
#
# Elastic Compliance Matrix: (Units=1/GPa)
#
#
# Indices 1 2 3 4 5 6 
#
# 1 0.021237 0.000505 -0.004677 0.000000 -0.015928 0.000000
# 2 0.000505 0.012679 -0.002373 0.000000 -0.008231 0.000000
# 3 -0.004677 -0.002373 0.008828 0.000000 0.003324 0.000000
# 4 0.000000 0.000000 0.000000 0.036945 0.000000 -0.011911
# 5 -0.015928 -0.008231 0.003324 0.000000 0.044584 0.000000
# 6 0.000000 0.000000 0.000000 -0.011911 0.000000 0.015854
#
#
# Mechanical properties :
#
#
# Convention : Reuss Voigt Hill
#
# Bulk Modulus (GPa) = 33.72168 53.89860 43.81014
# Shear Modulus (GPa) = 30.65581 46.08078 38.36830
#
# Velocity S-wave (km/s) = 3.61685 4.43439 4.04632
# Velocity P-wave (km/s) = 5.64199 7.01558 6.36594
#
# Compressibility (1/GPa) = 0.02965451
#
# Stress axis : x y z
#
# Youngs Moduli (GPa) = 47.08741 78.86956 113.27686
#
# Poissons Ratio (x) = -0.03981 0.52975
# Poissons Ratio (y) = -0.02377 0.26880
# Poissons Ratio (z) = 0.22021 0.18716
#
# Static dielectric constant tensor:
#      x y z
#    x 1.964270 0.000000 -0.043340 
#    y 0.000000 1.937270 0.000000 
#    z -0.043340 0.000000 1.913700 
# 
# From -- ./inp_files/241942.got.cif
#   From: 2010.05.17/outbox.cif.g08.bks.cpg/sg15_121_cif.got.tgz:241942.got - 2010.06.03 18:47:42.
