data_PCOD9276072
_publ_section_title
;
Structure prediction by ZEFSAII (Michael W. Deem and Ramdas Pophale) SiO2 
 PCOD9276072
Probable space group: C 2/C
;
_chemical_formula_sum "Si O2"
_cell_formula_units_Z 48
_cell_length_a 9.686457
_cell_length_b 26.411870
_cell_length_c 8.113314
_cell_angle_alpha 90.000000
_cell_angle_beta 75.119284
_cell_angle_gamma 90.000000
_cell_volume 2006.076212
_symmetry_space_group_name_H-M "C 2/C"
_symmetry_group_IT_number 15
_symmetry_cell_setting 'monoclinic'
loop_
_space_group_symop_operation_xyz
x,y,z
-x,y,1/2-z
-x,-y,-z
x,-y,1/2+z
1/2+x,1/2+y,z
1/2-x,1/2+y,1/2-z
1/2-x,1/2-y,-z
1/2+x,1/2-y,1/2+z
loop_
_atom_site_type_symbol
_atom_site_label
_atom_site_fract_x
_atom_site_fract_y
_atom_site_fract_z
Si Si1 0.706454 0.393775 0.540407
Si Si2 0.823351 0.409933 0.158418
Si Si3 0.450411 0.838520 0.574495
Si Si4 0.918144 0.763040 0.451425
Si Si5 0.613707 0.021808 0.338885
Si Si6 0.566342 0.379166 0.045018
O O1 0.764707 0.381512 0.337214
O O2 0.780731 0.347840 0.616928
O O3 0.772540 0.441736 0.615022
O O4 0.540436 0.402532 0.554848
O O5 0.821152 0.467403 0.229886
O O6 0.719054 0.404759 0.032350
O O7 0.968853 0.383050 0.053709
O O8 0.500000 0.840027 0.750000
O O9 0.502524 0.784445 0.488543
O O10 0.750000 0.750000 0.500000
O O11 0.925826 0.820570 0.508787
O O12 0.000000 0.765644 0.250000
O O13 0.500000 0.046805 0.250000
O O14 0.500000 0.000000 0.500000
O O15 0.500000 0.382927 0.250000
#
# Coordination Sequence:
#
# PCOD9276072 Si02
#       6
#     8   8   8   8   8   8
#     4  11  23  39  62  95 122 167 216 268 326 393
#     4  11  21  40  64  89 119 170 213 265 324 400
#     4  11  22  36  64  91 127 166 217 269 328 384
#     4  10  20  39  67  97 131 178 222 277 336 396
#     4  12  22  37  63  94 123 159 218 269 322 392
#     4   9  21  40  63  88 128 164 216 264 328 395
#
# _framework density 23.927306999999999
#
# number of rings (size 3 to 8) (size 9 to 14) (size 15 to 20)
#    0.000    1.333    5.000    1.000    0.000    1.333 
#    0.000    0.833    0.000    0.000    0.000    0.000 
#    0.000    0.000    0.000    0.000    0.000    0.000 
#
# Total GULP energy -133761.254677 kJ/mol
# GULP energy per Si atom -5573.385612 kJ/mol
# Density = 2.387285 g / cm^3
# Si number density = 23.927307 Si / 1000 Ang^3
#
#
#
# Elastic Constant Matrix: (Units=GPa)
#
#
# Indices 1 2 3 4 5 6 
#
# 1 155.3657 32.5731 24.7065 0.0000 49.9073 0.0000
# 2 32.5731 97.0114 -3.0480 0.0000 25.1800 0.0000
# 3 24.7065 -3.0480 87.2357 0.0000 12.4497 0.0000
# 4 0.0000 0.0000 0.0000 13.7556 0.0000 5.8051
# 5 49.9073 25.1800 12.4497 0.0000 53.1695 0.0000
# 6 0.0000 0.0000 0.0000 5.8051 0.0000 28.3169
#
#
#
# Elastic Compliance Matrix: (Units=1/GPa)
#
#
# Indices 1 2 3 4 5 6 
#
# 1 0.009502 -0.001165 -0.001591 0.000000 -0.007994 0.000000
# 2 -0.001165 0.012028 0.001456 0.000000 -0.004943 0.000000
# 3 -0.001591 0.001456 0.012260 0.000000 -0.002067 0.000000
# 4 0.000000 0.000000 0.000000 0.079583 0.000000 -0.016315
# 5 -0.007994 -0.004943 -0.002067 0.000000 0.029137 0.000000
# 6 0.000000 0.000000 0.000000 -0.016315 0.000000 0.038659
#
#
# Mechanical properties :
#
#
# Convention : Reuss Voigt Hill
#
# Bulk Modulus (GPa) = 32.06292 49.78620 40.92456
# Shear Modulus (GPa) = 25.75130 38.07383 31.91257
#
# Velocity S-wave (km/s) = 3.28415 3.99335 3.65599
# Velocity P-wave (km/s) = 5.27353 6.48960 5.91291
#
# Compressibility (1/GPa) = 0.03118867
#
# Stress axis : x y z
#
# Youngs Moduli (GPa) = 105.24425 83.13822 81.56887
#
# Poissons Ratio (x) = 0.09688 0.12976
# Poissons Ratio (y) = 0.12264 -0.11875
# Poissons Ratio (z) = 0.16743 -0.12103
#
# Static dielectric constant tensor:
#      x y z
#    x 1.911170 0.000000 -0.092040 
#    y 0.000000 3.193700 0.000000 
#    z -0.092040 0.000000 2.049170 
# 
# From -- ./inp_files/26121.got.cif
#   From: 2010.05.17/outbox.cif.g08.bks.cpg/sg15_14_cif.got.tgz:26121.got - 2010.06.03 18:47:42.
