data_PCOD9276770
_publ_section_title
;
Structure prediction by ZEFSAII (Michael W. Deem and Ramdas Pophale) SiO2 
 PCOD9276770
Probable space group: C 2/C
;
_chemical_formula_sum "Si O2"
_cell_formula_units_Z 60
_cell_length_a 14.311928
_cell_length_b 13.869898
_cell_length_c 26.484229
_cell_angle_alpha 90.000000
_cell_angle_beta 31.427901
_cell_angle_gamma 90.000000
_cell_volume 2741.263456
_symmetry_space_group_name_H-M "C 2/C"
_symmetry_group_IT_number 15
_symmetry_cell_setting 'monoclinic'
loop_
_space_group_symop_operation_xyz
x,y,z
-x,y,1/2-z
-x,-y,-z
x,-y,1/2+z
1/2+x,1/2+y,z
1/2-x,1/2+y,1/2-z
1/2-x,1/2-y,-z
1/2+x,1/2-y,1/2+z
loop_
_atom_site_type_symbol
_atom_site_label
_atom_site_fract_x
_atom_site_fract_y
_atom_site_fract_z
Si Si1 0.523653 0.324807 0.885668
Si Si2 0.114077 0.527020 0.040171
Si Si3 0.474589 0.141121 0.545779
Si Si4 0.243180 0.583810 0.579023
Si Si5 0.648653 0.304526 0.640914
Si Si6 0.122300 0.129691 0.646855
Si Si7 0.559904 0.815900 0.817177
Si Si8 0.000000 0.453097 0.750000
O O1 0.507155 0.219130 0.918057
O O2 0.402879 0.336277 0.891867
O O3 0.727997 0.325588 0.773386
O O4 0.446282 0.396594 0.965002
O O5 0.147709 0.464629 0.074762
O O6 0.979282 0.465293 0.067650
O O7 0.042293 0.631560 0.090196
O O8 0.299013 0.547493 0.925447
O O9 0.660745 0.153203 0.430753
O O10 0.302332 0.166937 0.592211
O O11 0.169671 0.689210 0.626195
O O12 0.176048 0.517344 0.656246
O O13 0.500000 0.329392 0.750000
O O14 0.000000 0.096679 0.750000
O O15 0.017419 0.211106 0.662857
O O16 0.526759 0.882881 0.784222
#
# Coordination Sequence:
#
# PCOD9276770 Si02
#       8
#     8   8   8   8   8   8   8   4
#     4  11  21  42  68  93 138 169 219 276 348 394
#     4  11  24  42  67  95 136 176 229 279 331 405
#     4  11  22  44  68  95 135 179 220 279 332 407
#     4  10  20  40  64  98 125 167 217 287 329 392
#     4  11  22  39  70  97 130 169 224 276 337 405
#     4  12  25  45  65  96 136 182 223 271 345 412
#     4  11  24  44  67  97 136 183 221 283 344 409
#     4  10  20  40  68  92 136 168 226 276 334 402
#
# _framework density 21.887718
#
# number of rings (size 3 to 8) (size 9 to 14) (size 15 to 20)
#    0.000    1.067    5.333    1.600    1.867    2.133 
#    0.000    1.333    0.000    0.000    0.000    0.000 
#    0.000    0.000    0.000    0.000    0.000    0.000 
#
# Total GULP energy -167440.715251 kJ/mol
# GULP energy per Si atom -5581.357175 kJ/mol
# Density = 2.183790 g / cm^3
# Si number density = 21.887718 Si / 1000 Ang^3
#
#
#
# Elastic Constant Matrix: (Units=GPa)
#
#
# Indices 1 2 3 4 5 6 
#
# 1 44.7627 -7.5991 1.6820 -0.0002 -7.3304 -0.0001
# 2 -7.5991 38.6255 -28.7717 -0.0008 4.7247 -0.0006
# 3 1.6820 -28.7717 80.3347 -0.0007 -5.3822 0.0000
# 4 -0.0002 -0.0008 -0.0007 8.9228 0.0000 -19.1159
# 5 -7.3304 4.7247 -5.3822 0.0000 39.5996 -0.0003
# 6 -0.0001 -0.0006 0.0000 -19.1159 -0.0003 0.3701
#
#
#
# Elastic Compliance Matrix: (Units=1/GPa)
#
#
# Indices 1 2 3 4 5 6 
#
# 1 0.023863 0.005501 0.001738 0.000000 0.003997 -0.000001
# 2 0.005501 0.036828 0.012966 -0.000001 -0.001613 -0.000003
# 3 0.001738 0.012966 0.017129 0.000000 0.001103 -0.000001
# 4 0.000000 -0.000001 0.000000 -0.001022 0.000000 -0.052790
# 5 0.003997 -0.001613 0.001103 0.000000 0.026335 0.000000
# 6 -0.000001 -0.000003 -0.000001 -0.052790 0.000000 -0.024641
#
#
# Mechanical properties :
#
#
# Convention : Reuss Voigt Hill
#
# Bulk Modulus (GPa) = 8.45804 10.48282 9.47043
# Shear Modulus (GPa) = 64.52268 23.00595 43.76432
#
# Velocity S-wave (km/s) = 5.43534 3.24557 4.47642
# Velocity P-wave (km/s) = 6.57748 4.34105 5.57261
#
# Compressibility (1/GPa) = 0.11823074
#
# Stress axis : x y z
#
# Youngs Moduli (GPa) = 41.90566 27.15348 58.37943
#
# Poissons Ratio (x) = -0.14936 -0.10148
# Poissons Ratio (y) = -0.23051 -0.75698
# Poissons Ratio (z) = -0.07284 -0.35209
#
# Static dielectric constant tensor:
#      x y z
#    x 1.820890 0.000000 -0.012940 
#    y 0.000000 1.806320 0.000000 
#    z -0.012940 0.000000 1.852730 
# 
# From -- ./inp_files/178536.got.cif
#   From: 2010.05.17/outbox.cif.g08.bks.cpg/sg15_90_cif.got.tgz:178536.got - 2010.06.03 18:47:42.
