data_PCOD9276535
_publ_section_title
;
Structure prediction by ZEFSAII (Michael W. Deem and Ramdas Pophale) SiO2 
 PCOD9276535
Probable space group: C 2/C
;
_chemical_formula_sum "Si O2"
_cell_formula_units_Z 44
_cell_length_a 10.309073
_cell_length_b 10.069106
_cell_length_c 16.157931
_cell_angle_alpha 90.000000
_cell_angle_beta 90.926389
_cell_angle_gamma 90.000000
_cell_volume 1677.024887
_symmetry_space_group_name_H-M "C 2/C"
_symmetry_group_IT_number 15
_symmetry_cell_setting 'monoclinic'
loop_
_space_group_symop_operation_xyz
x,y,z
-x,y,1/2-z
-x,-y,-z
x,-y,1/2+z
1/2+x,1/2+y,z
1/2-x,1/2+y,1/2-z
1/2-x,1/2-y,-z
1/2+x,1/2-y,1/2+z
loop_
_atom_site_type_symbol
_atom_site_label
_atom_site_fract_x
_atom_site_fract_y
_atom_site_fract_z
Si Si1 0.559115 0.756577 0.924386
Si Si2 0.870511 0.778753 0.697412
Si Si3 0.500000 0.700319 0.750000
Si Si4 0.263192 0.029643 0.758630
Si Si5 0.348173 0.371113 0.515679
Si Si6 0.318974 0.890844 0.437324
O O1 0.503303 0.787469 0.833764
O O2 0.711635 0.724058 0.919956
O O3 0.466787 0.636233 0.953482
O O4 0.559694 0.850886 0.005015
O O5 0.829056 0.624242 0.690998
O O6 0.892600 0.848967 0.610292
O O7 0.000000 0.783855 0.750000
O O8 0.765559 0.872841 0.744074
O O9 0.621981 0.600955 0.761290
O O10 0.340968 0.055631 0.845223
O O11 0.250000 0.250000 0.500000
O O12 0.263083 0.502001 0.512528
#
# Coordination Sequence:
#
# PCOD9276535 Si02
#       6
#     8   8   4   8   8   8
#     4  10  20  40  64  93 127 168 221 265 324 387
#     4  11  23  44  69 100 136 178 221 276 331 393
#     4  10  20  40  62  98 130 174 216 282 328 388
#     4  10  21  42  67  98 138 171 224 275 329 397
#     4  11  23  40  64  95 133 169 215 267 328 389
#     4   9  21  40  65  95 124 173 215 263 325 394
#
# _framework density 26.236939
#
# number of rings (size 3 to 8) (size 9 to 14) (size 15 to 20)
#    0.000    1.818    0.909    2.727    0.000    0.727 
#   24.545    0.000    0.000    0.000    0.000    0.000 
#    0.000    0.000    0.000    0.000    0.000    0.000 
#
# Total GULP energy -122999.969341 kJ/mol
# GULP energy per Si atom -5590.907697 kJ/mol
# Density = 2.617722 g / cm^3
# Si number density = 26.236939 Si / 1000 Ang^3
#
#
#
# Elastic Constant Matrix: (Units=GPa)
#
#
# Indices 1 2 3 4 5 6 
#
# 1 59.1123 23.2867 43.6258 0.0000 13.1929 0.0000
# 2 23.2867 71.4559 37.6869 0.0000 2.2781 0.0000
# 3 43.6258 37.6869 141.0114 0.0000 32.5667 0.0000
# 4 0.0000 0.0000 0.0000 12.7125 0.0000 -0.8554
# 5 13.1929 2.2781 32.5667 0.0000 44.4433 0.0000
# 6 0.0000 0.0000 0.0000 -0.8554 0.0000 36.0867
#
#
#
# Elastic Compliance Matrix: (Units=1/GPa)
#
#
# Indices 1 2 3 4 5 6 
#
# 1 0.023313 -0.004708 -0.005310 0.000000 -0.002788 0.000000
# 2 -0.004708 0.017544 -0.004029 0.000000 0.003451 0.000000
# 3 -0.005310 -0.004029 0.011314 0.000000 -0.006508 0.000000
# 4 0.000000 0.000000 0.000000 0.078788 0.000000 0.001868
# 5 -0.002788 0.003451 -0.006508 0.000000 0.027920 0.000000
# 6 0.000000 0.000000 0.000000 0.001868 0.000000 0.027755
#
#
# Mechanical properties :
#
#
# Convention : Reuss Voigt Hill
#
# Bulk Modulus (GPa) = 41.53465 53.41985 47.47725
# Shear Modulus (GPa) = 22.44615 29.78050 26.11333
#
# Velocity S-wave (km/s) = 2.92810 3.37272 3.15824
# Velocity P-wave (km/s) = 5.22462 5.96420 5.60662
#
# Compressibility (1/GPa) = 0.02407628
#
# Stress axis : x y z
#
# Youngs Moduli (GPa) = 42.89472 56.99969 88.38232
#
# Poissons Ratio (x) = 0.26834 0.46935
# Poissons Ratio (y) = 0.20194 0.35612
# Poissons Ratio (z) = 0.22779 0.22967
#
# Static dielectric constant tensor:
#      x y z
#    x 2.113200 0.000000 -0.158120 
#    y 0.000000 2.112520 0.000000 
#    z -0.158120 0.000000 2.215300 
# 
# From -- ./inp_files/142312.got.cif
#   From: 2010.05.17/outbox.cif.g08.bks.cpg/sg15_72_cif.got.tgz:142312.got - 2010.06.03 18:47:42.
