data_PCOD9276083
_publ_section_title
;
Structure prediction by ZEFSAII (Michael W. Deem and Ramdas Pophale) SiO2 
 PCOD9276083
Probable space group: C 2/C
;
_chemical_formula_sum "Si O2"
_cell_formula_units_Z 48
_cell_length_a 8.557232
_cell_length_b 16.961896
_cell_length_c 26.299262
_cell_angle_alpha 90.000000
_cell_angle_beta 149.796206
_cell_angle_gamma 90.000000
_cell_volume 1920.374270
_symmetry_space_group_name_H-M "C 2/C"
_symmetry_group_IT_number 15
_symmetry_cell_setting 'monoclinic'
loop_
_space_group_symop_operation_xyz
x,y,z
-x,y,1/2-z
-x,-y,-z
x,-y,1/2+z
1/2+x,1/2+y,z
1/2-x,1/2+y,1/2-z
1/2-x,1/2-y,-z
1/2+x,1/2-y,1/2+z
loop_
_atom_site_type_symbol
_atom_site_label
_atom_site_fract_x
_atom_site_fract_y
_atom_site_fract_z
Si Si1 0.217653 0.395033 0.350853
Si Si2 0.252293 0.012149 0.476092
Si Si3 0.831523 0.161165 0.252339
Si Si4 0.337860 0.286663 0.968016
Si Si5 0.870767 0.177546 0.369669
Si Si6 0.281378 0.989042 0.300477
O O1 0.489435 0.444979 0.400518
O O2 0.387292 0.343605 0.439992
O O3 0.000000 0.350397 0.250000
O O4 0.972884 0.450038 0.309998
O O5 0.459376 0.995955 0.584090
O O6 0.069776 0.096228 0.431882
O O7 0.500000 0.000000 0.500000
O O8 0.474186 0.169999 0.137297
O O9 0.962163 0.204693 0.338449
O O10 0.000000 0.188033 0.250000
O O11 0.878827 0.066902 0.268195
O O12 0.411877 0.261774 0.928762
O O13 0.250000 0.250000 0.000000
O O14 0.500000 0.160245 0.250000
O O15 0.000000 0.943919 0.250000
#
# Coordination Sequence:
#
# PCOD9276083 Si02
#       6
#     8   8   8   8   8   8
#     4  12  23  40  62  95 139 181 219 288 358 420
#     4  12  21  35  64 101 147 180 219 281 365 443
#     4  10  20  39  67  98 136 175 232 284 350 433
#     4  11  24  43  65  91 129 185 246 288 344 403
#     4  10  21  39  65  97 136 179 232 290 355 428
#     4  11  21  37  62 106 143 179 219 281 368 446
#
# _framework density 24.995128000000001
#
# number of rings (size 3 to 8) (size 9 to 14) (size 15 to 20)
#    0.000    1.000    3.333    7.000    0.000    0.667 
#    0.000    0.833    0.000    9.000    0.000    0.000 
#    0.000    0.000    0.000    0.000    0.000    0.000 
#
# Total GULP energy -133677.944541 kJ/mol
# GULP energy per Si atom -5569.914356 kJ/mol
# Density = 2.493824 g / cm^3
# Si number density = 24.995128 Si / 1000 Ang^3
#
#
#
# Elastic Constant Matrix: (Units=GPa)
#
#
# Indices 1 2 3 4 5 6 
#
# 1 169.0121 39.9657 47.1155 0.0009 -24.4744 0.0005
# 2 39.9657 59.6751 24.2056 -0.0015 0.6256 0.0039
# 3 47.1155 24.2056 174.1671 -0.0309 -26.1410 0.0345
# 4 0.0009 -0.0015 -0.0309 -64.0842 0.0060 72.1978
# 5 -24.4744 0.6256 -26.1410 0.0060 69.7011 0.0007
# 6 0.0005 0.0039 0.0345 72.1978 0.0007 -41.7262
#
#
#
# Elastic Compliance Matrix: (Units=1/GPa)
#
#
# Indices 1 2 3 4 5 6 
#
# 1 0.007671 -0.004729 -0.001067 0.000000 0.002336 0.000000
# 2 -0.004729 0.020761 -0.001996 0.000000 -0.002595 -0.000001
# 3 -0.001067 -0.001996 0.006627 -0.000003 0.002129 0.000000
# 4 0.000000 0.000000 -0.000003 0.016437 -0.000003 0.028441
# 5 0.002336 -0.002595 0.002129 -0.000003 0.015989 -0.000003
# 6 0.000000 -0.000001 0.000000 0.028441 -0.000003 0.025245
#
#
# Mechanical properties :
#
#
# Convention : Reuss Voigt Hill
#
# Bulk Modulus (GPa) = 51.34672 69.49197 60.41935
# Shear Modulus (GPa) = 43.55231 12.21599 27.88415
#
# Velocity S-wave (km/s) = 4.17877 2.21313 3.34366
# Velocity P-wave (km/s) = 6.62345 5.86457 6.25553
#
# Compressibility (1/GPa) = 0.01947544
#
# Stress axis : x y z
#
# Youngs Moduli (GPa) = 130.36662 48.16715 150.89365
#
# Poissons Ratio (x) = 0.22777 0.16105
# Poissons Ratio (y) = 0.61647 0.30113
# Poissons Ratio (z) = 0.13914 0.09612
#
# Static dielectric constant tensor:
#      x y z
#    x 2.135890 0.000000 -0.037810 
#    y 0.000000 1.989810 0.000000 
#    z -0.037810 0.000000 1.970750 
# 
# From -- ./inp_files/290150.got.cif
#   From: 2010.05.17/outbox.cif.g08.bks.cpg/sg15_146_cif.got.tgz:290150.got - 2010.06.03 18:47:42.
