data_PCOD9276467
_publ_section_title
;
Structure prediction by ZEFSAII (Michael W. Deem and Ramdas Pophale) SiO2 
 PCOD9276467
Probable space group: C 2/C
;
_chemical_formula_sum "Si O2"
_cell_formula_units_Z 36
_cell_length_a 16.959643
_cell_length_b 11.762834
_cell_length_c 23.142107
_cell_angle_alpha 90.000000
_cell_angle_beta 160.818456
_cell_angle_gamma 90.000000
_cell_volume 1516.873877
_symmetry_space_group_name_H-M "C 2/C"
_symmetry_group_IT_number 15
_symmetry_cell_setting 'monoclinic'
loop_
_space_group_symop_operation_xyz
x,y,z
-x,y,1/2-z
-x,-y,-z
x,-y,1/2+z
1/2+x,1/2+y,z
1/2-x,1/2+y,1/2-z
1/2-x,1/2-y,-z
1/2+x,1/2-y,1/2+z
loop_
_atom_site_type_symbol
_atom_site_label
_atom_site_fract_x
_atom_site_fract_y
_atom_site_fract_z
Si Si1 0.893184 0.496022 0.328045
Si Si2 0.486047 0.800499 0.806282
Si Si3 0.338694 0.448707 0.219821
Si Si4 0.995474 0.308103 0.307356
Si Si5 0.500000 0.599785 0.250000
O O1 0.897310 0.604690 0.289312
O O2 0.122761 0.506063 0.529655
O O3 0.902939 0.384137 0.294918
O O4 0.680192 0.484890 0.227049
O O5 0.500000 0.841196 0.750000
O O6 0.330472 0.685967 0.706035
O O7 0.750000 0.750000 0.000000
O O8 0.566463 0.510278 0.347028
O O9 0.250000 0.250000 0.500000
O O10 0.855858 0.194632 0.188988
O O11 0.000000 0.376489 0.250000
#
# Coordination Sequence:
#
# PCOD9276467 Si02
#       5
#     8   8   8   8   4
#     4  11  23  42  64 101 133 168 234 272 335 401
#     4  12  24  44  68  96 136 182 222 269 350 408
#     4  11  23  42  67  92 134 177 213 286 333 405
#     4  10  21  38  68  92 126 166 215 270 327 394
#     4  10  20  40  62  88 122 176 214 254 346 382
#
# _framework density 23.73302
#
# number of rings (size 3 to 8) (size 9 to 14) (size 15 to 20)
#    0.667    0.444    5.556    0.667    3.111    0.000 
#    0.000    1.111    0.000    0.000    0.000    0.000 
#    0.000    0.000    0.000    0.000    0.000    0.000 
#
# Total GULP energy -100215.541299 kJ/mol
# GULP energy per Si atom -5567.530072 kJ/mol
# Density = 2.367900 g / cm^3
# Si number density = 23.733020 Si / 1000 Ang^3
#
#
#
# Elastic Constant Matrix: (Units=GPa)
#
#
# Indices 1 2 3 4 5 6 
#
# 1 253.3995 111.1426 21.2599 0.0044 -39.2554 0.0004
# 2 111.1426 207.5784 2.7131 0.0209 -20.8972 0.0070
# 3 21.2599 2.7131 41.9959 0.0571 -23.2142 0.0165
# 4 0.0044 0.0209 0.0571 20.1187 0.0079 -19.0188
# 5 -39.2554 -20.8972 -23.2142 0.0079 33.8948 0.0043
# 6 0.0004 0.0070 0.0165 -19.0188 0.0043 40.7346
#
#
#
# Elastic Compliance Matrix: (Units=1/GPa)
#
#
# Indices 1 2 3 4 5 6 
#
# 1 0.005913 -0.002634 0.000104 -0.000002 0.005296 -0.000001
# 2 -0.002634 0.006450 0.002299 -0.000028 0.002500 -0.000015
# 3 0.000104 0.002299 0.039364 -0.000257 0.028497 -0.000139
# 4 -0.000002 -0.000028 -0.000257 0.088979 -0.000222 0.041544
# 5 0.005296 0.002500 0.028497 -0.000222 0.056695 -0.000122
# 6 -0.000001 -0.000015 -0.000139 0.041544 -0.000122 0.043946
#
#
# Mechanical properties :
#
#
# Convention : Reuss Voigt Hill
#
# Bulk Modulus (GPa) = 19.50713 85.91168 52.70941
# Shear Modulus (GPa) = 19.31262 43.47349 31.39306
#
# Velocity S-wave (km/s) = 2.85572 4.28456 3.64092
# Velocity P-wave (km/s) = 4.37158 7.79451 6.31922
#
# Compressibility (1/GPa) = 0.05126330
#
# Stress axis : x y z
#
# Youngs Moduli (GPa) = 169.10490 155.04777 25.40405
#
# Poissons Ratio (x) = 0.40847 -0.00264
# Poissons Ratio (y) = 0.44550 -0.05840
# Poissons Ratio (z) = -0.01756 -0.35643
#
# Static dielectric constant tensor:
#      x y z
#    x 2.354710 -0.000010 0.491470 
#    y -0.000010 1.959660 -0.000010 
#    z 0.491470 -0.000010 2.586960 
# 
# From -- ./inp_files/276999.got.cif
#   From: 2010.05.17/outbox.cif.g08.bks.cpg/sg15_139_cif.got.tgz:276999.got - 2010.06.03 18:47:42.
