data_PCOD9276843
_publ_section_title
;
Structure prediction by ZEFSAII (Michael W. Deem and Ramdas Pophale) SiO2 
 PCOD9276843
Probable space group: C 2/C
;
_chemical_formula_sum "Si O2"
_cell_formula_units_Z 56
_cell_length_a 8.436575
_cell_length_b 22.588594
_cell_length_c 13.715952
_cell_angle_alpha 90.000000
_cell_angle_beta 117.938477
_cell_angle_gamma 90.000000
_cell_volume 2309.212444
_symmetry_space_group_name_H-M "C 2/C"
_symmetry_group_IT_number 15
_symmetry_cell_setting 'monoclinic'
loop_
_space_group_symop_operation_xyz
x,y,z
-x,y,1/2-z
-x,-y,-z
x,-y,1/2+z
1/2+x,1/2+y,z
1/2-x,1/2+y,1/2-z
1/2-x,1/2-y,-z
1/2+x,1/2-y,1/2+z
loop_
_atom_site_type_symbol
_atom_site_label
_atom_site_fract_x
_atom_site_fract_y
_atom_site_fract_z
Si Si1 0.899686 0.617075 0.596037
Si Si2 0.613387 0.992080 0.185934
Si Si3 0.014528 0.387375 0.588650
Si Si4 0.225987 0.768162 0.107903
Si Si5 0.389599 0.656223 0.512350
Si Si6 0.654734 0.658480 0.227404
Si Si7 0.406110 0.541813 0.896172
O O1 0.889945 0.635594 0.481496
O O2 0.846932 0.672727 0.645385
O O3 0.754699 0.569298 0.586526
O O4 0.079486 0.577668 0.654204
O O5 0.500000 0.006039 0.250000
O O6 0.820248 0.992781 0.280172
O O7 0.533151 0.041115 0.090205
O O8 0.153034 0.373008 0.714495
O O9 0.824357 0.354054 0.537455
O O10 0.300319 0.721505 0.208005
O O11 0.250000 0.750000 0.000000
O O12 0.020335 0.788188 0.076134
O O13 0.414316 0.656800 0.402315
O O14 0.470271 0.598387 0.588928
O O15 0.500000 0.630657 0.250000
O O16 0.500000 0.500000 0.000000
#
# Coordination Sequence:
#
# PCOD9276843 Si02
#       7
#     8   8   8   8   8   8   8
#     4  10  22  41  65  94 132 179 225 282 347 423
#     4  10  21  38  64  97 130 177 222 277 344 414
#     4  12  23  41  66 100 142 172 223 286 363 432
#     4  11  22  45  65  96 128 176 238 281 334 410
#     4  11  24  41  64  99 135 176 221 292 350 411
#     4  12  23  41  69  93 128 180 235 281 338 418
#     4  10  20  40  65  93 133 176 231 281 337 412
#
# _framework density 24.250692999999998
#
# number of rings (size 3 to 8) (size 9 to 14) (size 15 to 20)
#    0.000    1.143    2.857    5.143    0.000    3.429 
#    0.000    2.143    0.000    0.000    0.000    0.000 
#    0.000    0.000    0.000    0.000    0.000    0.000 
#
# Total GULP energy -156101.693477 kJ/mol
# GULP energy per Si atom -5575.060481 kJ/mol
# Density = 2.419550 g / cm^3
# Si number density = 24.250693 Si / 1000 Ang^3
#
#
#
# Elastic Constant Matrix: (Units=GPa)
#
#
# Indices 1 2 3 4 5 6 
#
# 1 92.5727 25.8147 24.2388 0.0000 19.6991 0.0000
# 2 25.8147 118.0756 20.4187 0.0000 10.6976 0.0000
# 3 24.2388 20.4187 55.0880 0.0000 20.1553 0.0000
# 4 0.0000 0.0000 0.0000 40.1225 0.0000 6.9224
# 5 19.6991 10.6976 20.1553 0.0000 43.0904 0.0000
# 6 0.0000 0.0000 0.0000 6.9224 0.0000 23.3320
#
#
#
# Elastic Compliance Matrix: (Units=1/GPa)
#
#
# Indices 1 2 3 4 5 6 
#
# 1 0.013099 -0.001884 -0.003674 0.000000 -0.003802 0.000000
# 2 -0.001884 0.009344 -0.002535 0.000000 -0.000273 0.000000
# 3 -0.003674 -0.002535 0.023965 0.000000 -0.008901 0.000000
# 4 0.000000 0.000000 0.000000 0.026268 0.000000 -0.007794
# 5 -0.003802 -0.000273 -0.008901 0.000000 0.029176 0.000000
# 6 0.000000 0.000000 0.000000 -0.007794 0.000000 0.045172
#
#
# Mechanical properties :
#
#
# Convention : Reuss Voigt Hill
#
# Bulk Modulus (GPa) = 33.08759 45.18673 39.13716
# Shear Modulus (GPa) = 28.85430 34.32658 31.59044
#
# Velocity S-wave (km/s) = 3.45314 3.76638 3.61316
# Velocity P-wave (km/s) = 5.43806 6.13089 5.79484
#
# Compressibility (1/GPa) = 0.03022281
#
# Stress axis : x y z
#
# Youngs Moduli (GPa) = 76.34335 107.01974 41.72675
#
# Poissons Ratio (x) = 0.20162 0.15331
# Poissons Ratio (y) = 0.14383 0.10576
# Poissons Ratio (z) = 0.28050 0.27126
#
# Static dielectric constant tensor:
#      x y z
#    x 1.709720 0.000000 1.114000 
#    y 0.000000 2.056090 0.000000 
#    z 1.114000 0.000000 -2.151430 
# 
# From -- ./inp_files/137963.got.cif
#   From: 2010.05.17/outbox.cif.g08.bks.cpg/sg15_69_cif.got.tgz:137963.got - 2010.06.03 18:47:42.
