data_PCOD9276263
_publ_section_title
;
Structure prediction by ZEFSAII (Michael W. Deem and Ramdas Pophale) SiO2 
 PCOD9276263
Probable space group: C 2/C
;
_chemical_formula_sum "Si O2"
_cell_formula_units_Z 64
_cell_length_a 16.845424
_cell_length_b 20.274511
_cell_length_c 25.020695
_cell_angle_alpha 90.000000
_cell_angle_beta 156.174880
_cell_angle_gamma 90.000000
_cell_volume 3451.878065
_symmetry_space_group_name_H-M "C 2/C"
_symmetry_group_IT_number 15
_symmetry_cell_setting 'monoclinic'
loop_
_space_group_symop_operation_xyz
x,y,z
-x,y,1/2-z
-x,-y,-z
x,-y,1/2+z
1/2+x,1/2+y,z
1/2-x,1/2+y,1/2-z
1/2-x,1/2-y,-z
1/2+x,1/2-y,1/2+z
loop_
_atom_site_type_symbol
_atom_site_label
_atom_site_fract_x
_atom_site_fract_y
_atom_site_fract_z
Si Si1 0.647771 0.439394 0.150181
Si Si2 0.166222 0.798581 0.105843
Si Si3 0.300264 0.039254 0.861918
Si Si4 0.782583 0.486392 0.629924
Si Si5 0.944757 0.292417 0.105008
Si Si6 0.489140 0.170880 0.978437
Si Si7 0.296232 0.620883 0.978610
Si Si8 0.606255 0.407373 0.760897
O O1 0.665505 0.364491 0.140646
O O2 0.757766 0.453804 0.272828
O O3 0.737112 0.492187 0.162995
O O4 0.411439 0.447663 0.008162
O O5 0.371790 0.764650 0.248962
O O6 0.001275 0.742913 0.013141
O O7 0.165756 0.825291 0.044561
O O8 0.324053 0.116742 0.892295
O O9 0.139184 0.986781 0.783055
O O10 0.500000 0.000000 0.000000
O O11 0.763200 0.554750 0.586914
O O12 0.000000 0.459052 0.750000
O O13 0.997236 0.308908 0.076239
O O14 0.750000 0.250000 0.000000
O O15 0.887387 0.360562 0.097873
O O16 0.687677 0.130476 0.113245
O O17 0.479770 0.610289 0.130740
O O18 0.500000 0.386617 0.750000
#
# Coordination Sequence:
#
# PCOD9276263 Si02
#       8
#     8   8   8   8   8   8   8   8
#     4  10  20  40  58  84 122 155 194 253 294 352
#     4  11  23  35  54  83 116 159 193 231 295 351
#     4  10  22  40  56  80 116 157 197 236 293 353
#     4  10  21  34  59  87 116 155 202 245 296 349
#     4  12  21  32  51  81 123 155 190 228 281 357
#     4  11  23  35  54  79 117 157 187 231 290 356
#     4  11  20  32  53  83 118 151 192 236 284 352
#     4  11  22  36  57  83 113 149 197 242 291 348
#
# _framework density 18.540631999999999
#
# number of rings (size 3 to 8) (size 9 to 14) (size 15 to 20)
#    0.000    1.250    5.000    2.625    0.000    0.000 
#    0.000    0.000    0.000    0.750    0.000    1.750 
#    0.000    0.000    0.000    0.000    0.000    0.000 
#
# Total GULP energy -178184.637913 kJ/mol
# GULP energy per Si atom -5568.269935 kJ/mol
# Density = 1.849843 g / cm^3
# Si number density = 18.540632 Si / 1000 Ang^3
#
#
#
# Elastic Constant Matrix: (Units=GPa)
#
#
# Indices 1 2 3 4 5 6 
#
# 1 37.4567 9.5158 31.4883 0.0029 -10.3818 -0.0008
# 2 9.5158 81.6612 25.8291 0.0045 -0.9265 -0.0001
# 3 31.4883 25.8291 102.7533 0.0056 -15.1913 0.0024
# 4 0.0029 0.0045 0.0056 24.0397 0.0043 11.0822
# 5 -10.3818 -0.9265 -15.1913 0.0043 29.4596 0.0002
# 6 -0.0008 -0.0001 0.0024 11.0822 0.0002 10.8466
#
#
#
# Elastic Compliance Matrix: (Units=1/GPa)
#
#
# Indices 1 2 3 4 5 6 
#
# 1 0.037683 -0.001112 -0.010079 -0.000011 0.008048 0.000015
# 2 -0.001112 0.013391 -0.003270 -0.000003 -0.001657 0.000004
# 3 -0.010079 -0.003270 0.014184 -0.000001 0.003659 -0.000003
# 4 -0.000011 -0.000003 -0.000001 0.078636 -0.000015 -0.080344
# 5 0.008048 -0.001657 0.003659 -0.000015 0.038616 0.000014
# 6 0.000015 0.000004 -0.000003 -0.080344 0.000014 0.174284
#
#
# Mechanical properties :
#
#
# Convention : Reuss Voigt Hill
#
# Bulk Modulus (GPa) = 27.52089 39.50417 33.51253
# Shear Modulus (GPa) = 12.56827 23.20504 17.88666
#
# Velocity S-wave (km/s) = 2.60643 3.54160 3.10938
# Velocity P-wave (km/s) = 4.89221 6.17066 5.56825
#
# Compressibility (1/GPa) = 0.03633603
#
# Stress axis : x y z
#
# Youngs Moduli (GPa) = 26.53704 74.67772 70.50388
#
# Poissons Ratio (x) = 0.08305 0.71057
# Poissons Ratio (y) = 0.02951 0.23057
# Poissons Ratio (z) = 0.26745 0.24422
#
# Static dielectric constant tensor:
#      x y z
#    x 1.633590 0.000000 -0.006980 
#    y 0.000000 1.727640 0.000000 
#    z -0.006980 0.000000 1.716720 
# 
# From -- ./inp_files/299518.got.cif
#   From: 2010.05.17/outbox.cif.g08.bks.cpg/sg15_150_cif.got.tgz:299518.got - 2010.06.03 18:47:42.
