data_PCOD9276164
_publ_section_title
;
Structure prediction by ZEFSAII (Michael W. Deem and Ramdas Pophale) SiO2 
 PCOD9276164
Probable space group: C 2/C
;
_chemical_formula_sum "Si O2"
_cell_formula_units_Z 44
_cell_length_a 8.151332
_cell_length_b 31.162032
_cell_length_c 9.945743
_cell_angle_alpha 90.000000
_cell_angle_beta 125.786046
_cell_angle_gamma 90.000000
_cell_volume 2049.381805
_symmetry_space_group_name_H-M "C 2/C"
_symmetry_group_IT_number 15
_symmetry_cell_setting 'monoclinic'
loop_
_space_group_symop_operation_xyz
x,y,z
-x,y,1/2-z
-x,-y,-z
x,-y,1/2+z
1/2+x,1/2+y,z
1/2-x,1/2+y,1/2-z
1/2-x,1/2-y,-z
1/2+x,1/2-y,1/2+z
loop_
_atom_site_type_symbol
_atom_site_label
_atom_site_fract_x
_atom_site_fract_y
_atom_site_fract_z
Si Si1 0.498892 0.293027 0.100346
Si Si2 0.107758 0.126068 0.084846
Si Si3 0.561762 0.460259 0.122968
Si Si4 0.691998 0.861750 0.548466
Si Si5 0.561452 0.779525 0.141312
Si Si6 0.500000 0.926946 0.250000
O O1 0.500000 0.274703 0.250000
O O2 0.737208 0.303632 0.211504
O O3 0.370719 0.335737 0.013124
O O4 0.429268 0.257255 0.964094
O O5 0.278252 0.125655 0.281227
O O6 0.907413 0.138248 0.075260
O O7 0.059119 0.081734 0.988039
O O8 0.500000 0.467086 0.250000
O O9 0.800823 0.452106 0.206971
O O10 0.500000 0.500000 0.000000
O O11 0.589307 0.815506 0.485128
O O12 0.564578 0.896673 0.405116
O O13 0.500000 0.756464 0.250000
#
# Coordination Sequence:
#
# PCOD9276164 Si02
#       6
#     8   8   8   8   8   4
#     4  12  25  39  59  89 135 172 215 281 330 388
#     4  10  22  41  66  94 132 170 225 272 338 394
#     4  11  26  47  73 105 139 179 226 283 343 413
#     4  10  20  39  69  96 126 179 219 274 324 405
#     4  12  22  39  60  92 122 172 230 260 323 388
#     4  10  22  46  72 100 146 178 222 278 348 404
#
# _framework density 21.469888999999998
#
# number of rings (size 3 to 8) (size 9 to 14) (size 15 to 20)
#    0.000    1.091    2.727    3.818    7.636    0.727 
#    0.000    1.818    0.000    0.000    0.000    0.000 
#    0.000    0.000    0.000    0.000    0.000    0.000 
#
# Total GULP energy -122830.019500 kJ/mol
# GULP energy per Si atom -5583.182705 kJ/mol
# Density = 2.142102 g / cm^3
# Si number density = 21.469889 Si / 1000 Ang^3
#
#
#
# Elastic Constant Matrix: (Units=GPa)
#
#
# Indices 1 2 3 4 5 6 
#
# 1 48.3419 43.7129 54.1786 0.0000 -8.3586 0.0000
# 2 43.7129 143.9718 86.6369 0.0000 -6.1953 0.0000
# 3 54.1786 86.6369 203.9486 0.0000 -16.8622 0.0000
# 4 0.0000 0.0000 0.0000 33.9556 0.0000 -4.8340
# 5 -8.3586 -6.1953 -16.8622 0.0000 40.3130 0.0000
# 6 0.0000 0.0000 0.0000 -4.8340 0.0000 21.6451
#
#
#
# Elastic Compliance Matrix: (Units=1/GPa)
#
#
# Indices 1 2 3 4 5 6 
#
# 1 0.033867 -0.006573 -0.005912 0.000000 0.003539 0.000000
# 2 -0.006573 0.010609 -0.002837 0.000000 -0.000919 0.000000
# 3 -0.005912 -0.002837 0.007811 0.000000 0.001606 0.000000
# 4 0.000000 0.000000 0.000000 0.030417 0.000000 0.006793
# 5 0.003539 -0.000919 0.001606 0.000000 0.026070 0.000000
# 6 0.000000 0.000000 0.000000 0.006793 0.000000 0.047717
#
#
# Mechanical properties :
#
#
# Convention : Reuss Voigt Hill
#
# Bulk Modulus (GPa) = 46.20076 85.03546 65.61811
# Shear Modulus (GPa) = 25.72682 33.29832 29.51257
#
# Velocity S-wave (km/s) = 3.46537 3.94246 3.71159
# Velocity P-wave (km/s) = 6.13003 7.77282 6.99979
#
# Compressibility (1/GPa) = 0.02164467
#
# Stress axis : x y z
#
# Youngs Moduli (GPa) = 29.52701 94.26097 128.01788
#
# Poissons Ratio (x) = 0.61957 0.75684
# Poissons Ratio (y) = 0.19408 0.36312
# Poissons Ratio (z) = 0.17456 0.26737
#
# Static dielectric constant tensor:
#      x y z
#    x 2.081370 0.000000 0.001250 
#    y 0.000000 1.720800 0.000000 
#    z 0.001250 0.000000 1.758600 
# 
# From -- ./inp_files/26240.got.cif
#   From: 2010.05.17/outbox.cif.g08.bks.cpg/sg15_14_cif.got.tgz:26240.got - 2010.06.03 18:47:42.
