data_PCOD9276255
_publ_section_title
;
Structure prediction by ZEFSAII (Michael W. Deem and Ramdas Pophale) SiO2 
 PCOD9276255
Probable space group: C 2/C
;
_chemical_formula_sum "Si O2"
_cell_formula_units_Z 36
_cell_length_a 26.693302
_cell_length_b 7.346075
_cell_length_c 13.722488
_cell_angle_alpha 90.000000
_cell_angle_beta 34.954781
_cell_angle_gamma 90.000000
_cell_volume 1541.671713
_symmetry_space_group_name_H-M "C 2/C"
_symmetry_group_IT_number 15
_symmetry_cell_setting 'monoclinic'
loop_
_space_group_symop_operation_xyz
x,y,z
-x,y,1/2-z
-x,-y,-z
x,-y,1/2+z
1/2+x,1/2+y,z
1/2-x,1/2+y,1/2-z
1/2-x,1/2-y,-z
1/2+x,1/2-y,1/2+z
loop_
_atom_site_type_symbol
_atom_site_label
_atom_site_fract_x
_atom_site_fract_y
_atom_site_fract_z
Si Si1 0.093556 0.296622 0.411397
Si Si2 0.631173 0.583806 0.912773
Si Si3 0.500000 0.796980 0.250000
Si Si4 0.297518 0.723751 0.078855
Si Si5 0.597783 0.060926 0.234547
O O1 0.108527 0.080522 0.375029
O O2 0.127713 0.428189 0.273071
O O3 0.991149 0.338127 0.590110
O O4 0.145505 0.329985 0.428811
O O5 0.698162 0.722349 0.757424
O O6 0.678188 0.481663 0.929647
O O7 0.546983 0.678576 0.092184
O O8 0.569011 0.923240 0.194962
O O9 0.334873 0.796385 0.918007
#
# Coordination Sequence:
#
# PCOD9276255 Si02
#       5
#     8   8   4   8   8
#     4   9  22  38  60  88 115 153 190 241 279 356
#     4  10  22  37  60  83 122 146 200 229 296 328
#     4  12  20  36  64  86 112 162 184 242 282 354
#     4  10  20  40  57  84 116 156 180 250 277 343
#     4  11  20  38  65  83 119 149 197 229 300 331
#
# _framework density 23.351275999999999
#
# number of rings (size 3 to 8) (size 9 to 14) (size 15 to 20)
#    1.333    0.444    2.222    2.667    0.000    1.778 
#    0.000    1.111    0.000    0.000    0.000    0.000 
#    0.000    0.000    0.000    0.000    0.000    0.000 
#
# Total GULP energy -100596.484932 kJ/mol
# GULP energy per Si atom -5588.693607 kJ/mol
# Density = 2.329813 g / cm^3
# Si number density = 23.351276 Si / 1000 Ang^3
#
#
#
# Elastic Constant Matrix: (Units=GPa)
#
#
# Indices 1 2 3 4 5 6 
#
# 1 73.6423 7.5717 -1.3987 -0.0003 6.2678 -0.0009
# 2 7.5717 75.4568 7.1457 -0.0028 0.9147 -0.0064
# 3 -1.3987 7.1457 78.6458 -0.0013 7.0681 -0.0030
# 4 -0.0003 -0.0028 -0.0013 51.0271 0.0004 101.6606
# 5 6.2678 0.9147 7.0681 0.0004 27.5664 0.0009
# 6 -0.0009 -0.0064 -0.0030 101.6606 0.0009 576.7220
#
#
#
# Elastic Compliance Matrix: (Units=1/GPa)
#
#
# Indices 1 2 3 4 5 6 
#
# 1 0.014021 -0.001431 0.000677 0.000000 -0.003314 0.000000
# 2 -0.001431 0.013514 -0.001272 0.000001 0.000203 0.000000
# 3 0.000677 -0.001272 0.013156 0.000000 -0.003485 0.000000
# 4 0.000000 0.000001 0.000000 0.030205 0.000000 -0.005324
# 5 -0.003314 0.000203 -0.003485 0.000000 0.037916 0.000000
# 6 0.000000 0.000000 0.000000 -0.005324 0.000000 0.002672
#
#
# Mechanical properties :
#
#
# Convention : Reuss Voigt Hill
#
# Bulk Modulus (GPa) = 27.29193 28.26470 27.77832
# Shear Modulus (GPa) = 39.13910 145.35818 92.24864
#
# Velocity S-wave (km/s) = 4.09846 7.89833 6.29210
# Velocity P-wave (km/s) = 5.84033 9.76261 8.04419
#
# Compressibility (1/GPa) = 0.03664086
#
# Stress axis : x y z
#
# Youngs Moduli (GPa) = 71.32057 73.99649 76.01082
#
# Poissons Ratio (x) = 0.10588 -0.05148
# Poissons Ratio (y) = 0.10205 0.09665
# Poissons Ratio (z) = -0.04830 0.09409
#
# Static dielectric constant tensor:
#      x y z
#    x 1.941100 0.000000 -0.014190 
#    y 0.000000 1.860640 0.000000 
#    z -0.014190 0.000000 1.812790 
# 
# From -- ./inp_files/180672.got.cif
#   From: 2010.05.17/outbox.cif.g08.bks.cpg/sg15_91_cif.got.tgz:180672.got - 2010.06.03 18:47:42.
