data_PCOD9276484
_publ_section_title
;
Structure prediction by ZEFSAII (Michael W. Deem and Ramdas Pophale) SiO2 
 PCOD9276484
Probable space group: C 2/C
;
_chemical_formula_sum "Si O2"
_cell_formula_units_Z 44
_cell_length_a 17.968893
_cell_length_b 14.781616
_cell_length_c 7.959914
_cell_angle_alpha 90.000000
_cell_angle_beta 99.368481
_cell_angle_gamma 90.000000
_cell_volume 2086.027140
_symmetry_space_group_name_H-M "C 2/C"
_symmetry_group_IT_number 15
_symmetry_cell_setting 'monoclinic'
loop_
_space_group_symop_operation_xyz
x,y,z
-x,y,1/2-z
-x,-y,-z
x,-y,1/2+z
1/2+x,1/2+y,z
1/2-x,1/2+y,1/2-z
1/2-x,1/2-y,-z
1/2+x,1/2-y,1/2+z
loop_
_atom_site_type_symbol
_atom_site_label
_atom_site_fract_x
_atom_site_fract_y
_atom_site_fract_z
Si Si1 0.060522 0.774155 0.419783
Si Si2 0.158178 0.326987 0.405209
Si Si3 0.664768 0.435222 0.545033
Si Si4 0.687664 0.620934 0.429341
Si Si5 0.800325 0.664593 0.967751
Si Si6 0.500000 0.794870 0.250000
O O1 0.107346 0.868311 0.428492
O O2 0.118690 0.689308 0.424918
O O3 0.028322 0.762580 0.598655
O O4 0.000000 0.771052 0.250000
O O5 0.220841 0.377597 0.536348
O O6 0.161356 0.221958 0.463749
O O7 0.070723 0.351155 0.350315
O O8 0.190921 0.334214 0.228757
O O9 0.652962 0.542084 0.529531
O O10 0.662330 0.401655 0.733442
O O11 0.749753 0.418503 0.507812
O O12 0.750000 0.750000 0.000000
#
# Coordination Sequence:
#
# PCOD9276484 Si02
#       6
#     8   8   8   8   8   4
#     4  10  22  38  63  91 124 170 193 255 311 369
#     4  10  21  38  63  88 117 165 202 251 304 365
#     4  11  22  40  58  94 123 156 212 255 304 356
#     4  11  22  37  61  87 118 163 204 253 297 354
#     4   9  17  37  60  83 118 151 211 246 291 364
#     4  10  20  40  62  90 128 154 214 238 310 382
#
# _framework density 21.092727
#
# number of rings (size 3 to 8) (size 9 to 14) (size 15 to 20)
#    0.000    1.818    5.455    1.091    2.545    2.909 
#    1.636    1.818    2.000    3.273    0.000    0.000 
#    0.000    0.000    0.000    0.000    0.000    0.000 
#
# Total GULP energy -122700.220145 kJ/mol
# GULP energy per Si atom -5577.282734 kJ/mol
# Density = 2.104472 g / cm^3
# Si number density = 21.092727 Si / 1000 Ang^3
#
#
#
# Elastic Constant Matrix: (Units=GPa)
#
#
# Indices 1 2 3 4 5 6 
#
# 1 82.1599 -19.8257 33.5802 0.0000 16.4700 0.0000
# 2 -19.8257 27.2196 11.2116 0.0000 -4.0655 0.0000
# 3 33.5802 11.2116 79.3120 0.0000 31.5859 0.0000
# 4 0.0000 0.0000 0.0000 17.0022 0.0000 -2.8935
# 5 16.4700 -4.0655 31.5859 0.0000 43.1205 0.0000
# 6 0.0000 0.0000 0.0000 -2.8935 0.0000 7.9305
#
#
#
# Elastic Compliance Matrix: (Units=1/GPa)
#
#
# Indices 1 2 3 4 5 6 
#
# 1 0.023012 0.023463 -0.014740 0.000000 0.004220 0.000000
# 2 0.023463 0.066929 -0.025892 0.000000 0.016315 0.000000
# 3 -0.014740 -0.025892 0.029987 0.000000 -0.018777 0.000000
# 4 0.000000 0.000000 0.000000 0.062710 0.000000 0.022880
# 5 0.004220 0.016315 -0.018777 0.000000 0.036871 0.000000
# 6 0.000000 0.000000 0.000000 0.022880 0.000000 0.134443
#
#
# Mechanical properties :
#
#
# Convention : Reuss Voigt Hill
#
# Bulk Modulus (GPa) = 11.68390 26.51376 19.09883
# Shear Modulus (GPa) = 11.99553 24.52567 18.26060
#
# Velocity S-wave (km/s) = 2.38734 3.41362 2.94552
# Velocity P-wave (km/s) = 3.62636 5.30419 4.54340
#
# Compressibility (1/GPa) = 0.08558787
#
# Stress axis : x y z
#
# Youngs Moduli (GPa) = 43.45612 14.94118 33.34727
#
# Poissons Ratio (x) = -0.35056 0.49155
# Poissons Ratio (y) = -1.01959 0.86344
# Poissons Ratio (z) = 0.64056 0.38686
#
# Static dielectric constant tensor:
#      x y z
#    x 1.825640 0.000000 0.005250 
#    y 0.000000 1.835600 0.000000 
#    z 0.005250 0.000000 1.761700 
# 
# From -- ./inp_files/47173.got.cif
#   From: 2010.05.17/outbox.cif.g08.bks.cpg/sg15_24_cif.got.tgz:47173.got - 2010.06.03 18:47:42.
