data_PCOD9276336
_publ_section_title
;
Structure prediction by ZEFSAII (Michael W. Deem and Ramdas Pophale) SiO2 
 PCOD9276336
Probable space group: C 2/C
;
_chemical_formula_sum "Si O2"
_cell_formula_units_Z 44
_cell_length_a 17.030599
_cell_length_b 7.745690
_cell_length_c 19.109894
_cell_angle_alpha 90.000000
_cell_angle_beta 120.887302
_cell_angle_gamma 90.000000
_cell_volume 2163.346286
_symmetry_space_group_name_H-M "C 2/C"
_symmetry_group_IT_number 15
_symmetry_cell_setting 'monoclinic'
loop_
_space_group_symop_operation_xyz
x,y,z
-x,y,1/2-z
-x,-y,-z
x,-y,1/2+z
1/2+x,1/2+y,z
1/2-x,1/2+y,1/2-z
1/2-x,1/2-y,-z
1/2+x,1/2-y,1/2+z
loop_
_atom_site_type_symbol
_atom_site_label
_atom_site_fract_x
_atom_site_fract_y
_atom_site_fract_z
Si Si1 0.795307 0.237212 0.641477
Si Si2 0.034285 0.398675 0.381893
Si Si3 0.668356 0.933912 0.564038
Si Si4 0.658977 0.142751 0.692303
Si Si5 0.706557 0.879043 0.376400
Si Si6 0.000000 0.685845 0.250000
O O1 0.736091 0.248901 0.686215
O O2 0.782590 0.420869 0.598053
O O3 0.903439 0.214930 0.704303
O O4 0.747074 0.075106 0.582690
O O5 0.081121 0.457991 0.475188
O O6 0.115714 0.313497 0.374284
O O7 0.002032 0.558654 0.318351
O O8 0.944385 0.285089 0.354191
O O9 0.709318 0.745260 0.571147
O O10 0.650295 0.974791 0.637565
O O11 0.687555 0.119837 0.784876
#
# Coordination Sequence:
#
# PCOD9276336 Si02
#       6
#     8   8   8   8   8   4
#     4   9  22  38  61  88 119 156 203 244 301 352
#     4  11  20  40  65  89 122 165 195 247 311 350
#     4  10  24  37  67  90 120 157 208 247 295 359
#     4  10  20  40  60  90 119 164 197 245 302 359
#     4  11  20  40  63  85 126 160 195 250 300 353
#     4  10  20  40  62  84 126 162 198 246 308 354
#
# _framework density 20.33886
#
# number of rings (size 3 to 8) (size 9 to 14) (size 15 to 20)
#    1.091    0.727    3.636    2.182    0.000    2.909 
#    3.273    0.909    0.000    0.000    0.000    0.000 
#    0.000    0.000    0.000    0.000    0.000    0.000 
#
# Total GULP energy -122490.966717 kJ/mol
# GULP energy per Si atom -5567.771214 kJ/mol
# Density = 2.029257 g / cm^3
# Si number density = 20.338860 Si / 1000 Ang^3
#
#
#
# Elastic Constant Matrix: (Units=GPa)
#
#
# Indices 1 2 3 4 5 6 
#
# 1 117.2553 -3.5049 26.7205 0.0000 1.7077 0.0000
# 2 -3.5049 31.3795 20.4999 0.0000 -4.4105 0.0000
# 3 26.7205 20.4999 127.8265 0.0000 -4.2865 0.0000
# 4 0.0000 0.0000 0.0000 15.9712 0.0000 4.6716
# 5 1.7077 -4.4105 -4.2865 0.0000 23.9064 0.0000
# 6 0.0000 0.0000 0.0000 4.6716 0.0000 10.2024
#
#
#
# Elastic Compliance Matrix: (Units=1/GPa)
#
#
# Indices 1 2 3 4 5 6 
#
# 1 0.009140 0.002453 -0.002325 0.000000 -0.000617 0.000000
# 2 0.002453 0.037011 -0.006263 0.000000 0.005530 0.000000
# 3 -0.002325 -0.006263 0.009336 0.000000 0.000685 0.000000
# 4 0.000000 0.000000 0.000000 0.072295 0.000000 -0.033103
# 5 -0.000617 0.005530 0.000685 0.000000 0.043017 0.000000
# 6 0.000000 0.000000 0.000000 -0.033103 0.000000 0.113174
#
#
# Mechanical properties :
#
#
# Convention : Reuss Voigt Hill
#
# Bulk Modulus (GPa) = 23.13842 40.43248 31.78545
# Shear Modulus (GPa) = 16.09532 25.53238 20.81385
#
# Velocity S-wave (km/s) = 2.81616 3.54693 3.20246
# Velocity P-wave (km/s) = 4.68780 6.05780 5.41629
#
# Compressibility (1/GPa) = 0.04321815
#
# Stress axis : x y z
#
# Youngs Moduli (GPa) = 109.40331 27.01931 107.10743
#
# Poissons Ratio (x) = -0.06628 0.24900
# Poissons Ratio (y) = -0.26836 0.67079
# Poissons Ratio (z) = 0.25434 0.16922
#
# Static dielectric constant tensor:
#      x y z
#    x 1.790410 0.000000 -0.004480 
#    y 0.000000 1.718230 0.000000 
#    z -0.004480 0.000000 1.705550 
# 
# From -- ./inp_files/276686.got.cif
#   From: 2010.05.17/outbox.cif.g08.bks.cpg/sg15_139_cif.got.tgz:276686.got - 2010.06.03 18:47:42.
