data_PCOD9276502
_publ_section_title
;
Structure prediction by ZEFSAII (Michael W. Deem and Ramdas Pophale) SiO2 
 PCOD9276502
Probable space group: C 2/C
;
_chemical_formula_sum "Si O2"
_cell_formula_units_Z 64
_cell_length_a 23.632257
_cell_length_b 8.859354
_cell_length_c 30.604079
_cell_angle_alpha 90.000000
_cell_angle_beta 150.704309
_cell_angle_gamma 90.000000
_cell_volume 3135.283058
_symmetry_space_group_name_H-M "C 2/C"
_symmetry_group_IT_number 15
_symmetry_cell_setting 'monoclinic'
loop_
_space_group_symop_operation_xyz
x,y,z
-x,y,1/2-z
-x,-y,-z
x,-y,1/2+z
1/2+x,1/2+y,z
1/2-x,1/2+y,1/2-z
1/2-x,1/2-y,-z
1/2+x,1/2-y,1/2+z
loop_
_atom_site_type_symbol
_atom_site_label
_atom_site_fract_x
_atom_site_fract_y
_atom_site_fract_z
Si Si1 0.536158 0.209030 0.932155
Si Si2 0.567154 0.376276 0.251966
Si Si3 0.270939 0.010845 0.940937
Si Si4 0.787191 0.425338 0.255493
Si Si5 0.112149 0.245306 0.692905
Si Si6 0.372598 0.416440 0.579009
Si Si7 0.150729 0.163026 0.005493
Si Si8 0.377880 0.548724 0.938172
O O1 0.399504 0.180970 0.837637
O O2 0.576692 0.276466 0.912977
O O3 0.584285 0.322799 0.001524
O O4 0.604523 0.053935 0.986522
O O5 0.500000 0.317619 0.250000
O O6 0.679648 0.471607 0.340822
O O7 0.597595 0.255775 0.235474
O O8 0.478972 0.492140 0.170821
O O9 0.215170 0.903080 0.940067
O O10 0.284025 0.184978 0.963746
O O11 0.835932 0.596005 0.288022
O O12 0.698761 0.385092 0.234763
O O13 0.713059 0.404073 0.160667
O O14 0.985634 0.203153 0.589266
O O15 0.318476 0.530484 0.507239
O O16 0.171231 0.093103 0.067089
O O17 0.500000 0.500000 0.000000
#
# Coordination Sequence:
#
# PCOD9276502 Si02
#       8
#     8   8   8   8   8   8   8   8
#     4  11  25  39  63  96 127 168 218 268 326 385
#     4   9  21  40  67  91 124 169 217 261 323 386
#     4  11  20  39  62  94 121 159 220 266 311 384
#     4  12  25  42  67  94 134 174 215 270 328 395
#     4  11  23  41  65  98 130 170 215 272 323 389
#     4   9  21  39  64  85 127 169 202 264 328 376
#     4  10  20  40  62  92 123 164 213 261 323 384
#     4  11  23  43  62  89 132 173 211 262 330 387
#
# _framework density 20.412828999999999
#
# number of rings (size 3 to 8) (size 9 to 14) (size 15 to 20)
#    0.000    1.500    2.500    2.250    5.250    0.000 
#    0.000    1.875    0.000    0.000    0.000    0.000 
#    0.000    0.000    0.000    0.000    0.000    0.000 
#
# Total GULP energy -178505.297650 kJ/mol
# GULP energy per Si atom -5578.290552 kJ/mol
# Density = 2.036637 g / cm^3
# Si number density = 20.412829 Si / 1000 Ang^3
#
#
#
# Elastic Constant Matrix: (Units=GPa)
#
#
# Indices 1 2 3 4 5 6 
#
# 1 45.6538 12.0584 26.0486 -0.0001 -4.9352 0.0001
# 2 12.0584 37.1059 -5.1032 0.0001 -2.7174 0.0003
# 3 26.0486 -5.1032 88.1081 0.0005 8.5590 0.0001
# 4 -0.0001 0.0001 0.0005 26.0763 0.0001 6.2992
# 5 -4.9352 -2.7174 8.5590 0.0001 23.1453 0.0000
# 6 0.0001 0.0003 0.0001 6.2992 0.0000 23.4699
#
#
#
# Elastic Compliance Matrix: (Units=1/GPa)
#
#
# Indices 1 2 3 4 5 6 
#
# 1 0.032299 -0.011320 -0.011145 0.000000 0.009679 0.000000
# 2 -0.011320 0.031298 0.005225 0.000000 -0.000671 0.000000
# 3 -0.011145 0.005225 0.015682 0.000000 -0.007562 0.000000
# 4 0.000000 0.000000 0.000000 0.041008 0.000000 -0.011006
# 5 0.009679 -0.000671 -0.007562 0.000000 0.047987 0.000000
# 6 0.000000 0.000000 0.000000 -0.011006 0.000000 0.045562
#
#
# Mechanical properties :
#
#
# Convention : Reuss Voigt Hill
#
# Bulk Modulus (GPa) = 22.32237 26.31949 24.32093
# Shear Modulus (GPa) = 18.99338 23.72924 21.36131
#
# Velocity S-wave (km/s) = 3.05366 3.41320 3.23842
# Velocity P-wave (km/s) = 4.83656 5.33430 5.09152
#
# Compressibility (1/GPa) = 0.04479811
#
# Stress axis : x y z
#
# Youngs Moduli (GPa) = 30.96036 31.95085 63.76791
#
# Poissons Ratio (x) = 0.36169 0.71070
# Poissons Ratio (y) = 0.35048 -0.33317
# Poissons Ratio (z) = 0.34505 -0.16694
#
# Static dielectric constant tensor:
#      x y z
#    x 1.748480 0.000000 -0.009500 
#    y 0.000000 1.783690 0.000000 
#    z -0.009500 0.000000 1.760880 
# 
# From -- ./inp_files/318629.got.cif
#   From: 2010.05.17/outbox.cif.g08.bks.cpg/sg15_160_cif.got.tgz:318629.got - 2010.06.03 18:47:42.
