data_PCOD9276935
_publ_section_title
;
Structure prediction by ZEFSAII (Michael W. Deem and Ramdas Pophale) SiO2 
 PCOD9276935
Probable space group: C 2/C
;
_chemical_formula_sum "Si O2"
_cell_formula_units_Z 32
_cell_length_a 11.396748
_cell_length_b 7.784424
_cell_length_c 23.711048
_cell_angle_alpha 90.000000
_cell_angle_beta 146.588231
_cell_angle_gamma 90.000000
_cell_volume 1158.338701
_symmetry_space_group_name_H-M "C 2/C"
_symmetry_group_IT_number 15
_symmetry_cell_setting 'monoclinic'
loop_
_space_group_symop_operation_xyz
x,y,z
-x,y,1/2-z
-x,-y,-z
x,-y,1/2+z
1/2+x,1/2+y,z
1/2-x,1/2+y,1/2-z
1/2-x,1/2-y,-z
1/2+x,1/2-y,1/2+z
loop_
_atom_site_type_symbol
_atom_site_label
_atom_site_fract_x
_atom_site_fract_y
_atom_site_fract_z
Si Si1 0.867436 0.037202 0.314174
Si Si2 0.063126 0.421593 0.394996
Si Si3 0.500000 0.000000 0.500000
Si Si4 0.500000 0.464867 0.750000
Si Si5 0.623782 0.313857 0.072336
O O1 0.948723 0.951167 0.288412
O O2 0.599471 0.420722 0.118371
O O3 0.969329 0.226130 0.356591
O O4 0.614484 0.042499 0.203594
O O5 0.097346 0.474402 0.472923
O O6 0.257920 0.414108 0.429488
O O7 0.572035 0.204698 0.528602
O O8 0.718359 0.353560 0.850508
#
# Coordination Sequence:
#
# PCOD9276935 Si02
#       5
#     8   8   4   4   8
#     4  11  20  43  68  92 125 174 222 263 319 393
#     4  11  23  42  66  95 134 171 218 273 325 387
#     4  12  24  44  64 100 140 170 210 278 334 380
#     4  10  20  40  66  92 128 164 220 272 312 394
#     4  11  22  44  66  93 132 172 216 270 328 384
#
# _framework density 27.625769999999999
#
# number of rings (size 3 to 8) (size 9 to 14) (size 15 to 20)
#    0.000    1.000    7.500    0.750    0.000    1.000 
#    9.000    6.250    0.000    0.000    0.000    0.000 
#    0.000    0.000    0.000    0.000    0.000    0.000 
#
# Total GULP energy -89198.214107 kJ/mol
# GULP energy per Si atom -5574.888382 kJ/mol
# Density = 2.756289 g / cm^3
# Si number density = 27.625770 Si / 1000 Ang^3
#
#
#
# Elastic Constant Matrix: (Units=GPa)
#
#
# Indices 1 2 3 4 5 6 
#
# 1 259.5721 87.5293 56.3594 0.0000 -77.4736 0.0000
# 2 87.5293 111.7454 19.5298 0.0000 -26.7141 0.0000
# 3 56.3594 19.5298 79.3312 0.0002 -26.2645 0.0000
# 4 0.0000 0.0000 0.0002 -38.5711 0.0000 10.3741
# 5 -77.4736 -26.7141 -26.2645 0.0000 53.3774 0.0000
# 6 0.0000 0.0000 0.0000 10.3741 0.0000 62.8460
#
#
#
# Elastic Compliance Matrix: (Units=1/GPa)
#
#
# Indices 1 2 3 4 5 6 
#
# 1 0.008367 -0.004023 -0.001911 0.000000 0.009190 0.000000
# 2 -0.004023 0.012163 -0.000065 0.000000 0.000217 0.000000
# 3 -0.001911 -0.000065 0.015590 0.000000 0.004865 0.000000
# 4 0.000000 0.000000 0.000000 -0.024824 0.000000 0.004098
# 5 0.009190 0.000217 0.004865 0.000000 0.034576 0.000000
# 6 0.000000 0.000000 0.000000 0.004098 0.000000 0.015235
#
#
# Mechanical properties :
#
#
# Convention : Reuss Voigt Hill
#
# Bulk Modulus (GPa) = 41.45498 86.38730 63.92114
# Shear Modulus (GPa) = 61.61825 34.67913 48.14869
#
# Velocity S-wave (km/s) = 4.72790 3.54689 4.17932
# Velocity P-wave (km/s) = 6.69646 6.93631 6.81744
#
# Compressibility (1/GPa) = 0.02412255
#
# Stress axis : x y z
#
# Youngs Moduli (GPa) = 119.51781 82.21661 64.14542
#
# Poissons Ratio (x) = 0.33073 0.12259
# Poissons Ratio (y) = 0.48078 0.00415
# Poissons Ratio (z) = 0.22841 0.00532
#
# Static dielectric constant tensor:
#      x y z
#    x 2.085770 0.000000 0.046900 
#    y 0.000000 1.354580 0.000000 
#    z 0.046900 0.000000 1.998970 
# 
# From -- ./inp_files/194682.got.cif
#   From: 2010.05.17/outbox.cif.g08.bks.cpg/sg15_98_cif.got.tgz:194682.got - 2010.06.03 18:47:42.
