data_PCOD9276495
_publ_section_title
;
Structure prediction by ZEFSAII (Michael W. Deem and Ramdas Pophale) SiO2 
 PCOD9276495
Probable space group: C 2/C
;
_chemical_formula_sum "Si O2"
_cell_formula_units_Z 56
_cell_length_a 10.386436
_cell_length_b 11.488371
_cell_length_c 23.349778
_cell_angle_alpha 90.000000
_cell_angle_beta 109.504344
_cell_angle_gamma 90.000000
_cell_volume 2626.289803
_symmetry_space_group_name_H-M "C 2/C"
_symmetry_group_IT_number 15
_symmetry_cell_setting 'monoclinic'
loop_
_space_group_symop_operation_xyz
x,y,z
-x,y,1/2-z
-x,-y,-z
x,-y,1/2+z
1/2+x,1/2+y,z
1/2-x,1/2+y,1/2-z
1/2-x,1/2-y,-z
1/2+x,1/2-y,1/2+z
loop_
_atom_site_type_symbol
_atom_site_label
_atom_site_fract_x
_atom_site_fract_y
_atom_site_fract_z
Si Si1 0.655494 0.779024 0.113609
Si Si2 0.343116 0.391336 0.237755
Si Si3 0.293573 0.549570 0.435779
Si Si4 0.498320 0.989195 0.068111
Si Si5 0.616068 0.392521 0.425691
Si Si6 0.293188 0.417731 0.646769
Si Si7 0.676990 0.671944 0.635908
O O1 0.741137 0.816687 0.182331
O O2 0.652996 0.642732 0.102309
O O3 0.747926 0.825833 0.074170
O O4 0.516252 0.852975 0.088501
O O5 0.500000 0.353253 0.250000
O O6 0.332864 0.523637 0.212893
O O7 0.303019 0.378155 0.297422
O O8 0.371841 0.571937 0.506751
O O9 0.306953 0.422955 0.410872
O O10 0.133154 0.553182 0.426855
O O11 0.637085 0.044746 0.111804
O O12 0.500000 0.000000 0.000000
O O13 0.618080 0.510131 0.386728
O O14 0.487455 0.310631 0.392705
O O15 0.279406 0.279786 0.643343
#
# Coordination Sequence:
#
# PCOD9276495 Si02
#       7
#     8   8   8   8   8   8   8
#     4  10  22  39  67  90 122 171 216 264 318 382
#     4  10  21  46  64  85 119 172 223 256 326 386
#     4  12  24  37  63 103 130 160 216 267 325 394
#     4  10  20  40  62  91 127 165 206 259 322 382
#     4  10  21  42  62  94 126 171 206 258 335 385
#     4  10  23  41  65  89 127 167 213 260 319 388
#     4  12  25  39  65  96 126 170 216 267 323 387
#
# _framework density 21.322856000000002
#
# number of rings (size 3 to 8) (size 9 to 14) (size 15 to 20)
#    0.000    1.714    5.714    1.714    4.000    1.714 
#    0.000    2.857    0.000    0.000    0.000    0.000 
#    0.000    0.000    0.000    0.000    0.000    0.000 
#
# Total GULP energy -156226.208587 kJ/mol
# GULP energy per Si atom -5579.507450 kJ/mol
# Density = 2.127432 g / cm^3
# Si number density = 21.322856 Si / 1000 Ang^3
#
#
#
# Elastic Constant Matrix: (Units=GPa)
#
#
# Indices 1 2 3 4 5 6 
#
# 1 43.5533 5.1216 9.0368 0.0000 9.2175 0.0000
# 2 5.1216 100.8733 3.4138 0.0000 2.5753 0.0000
# 3 9.0368 3.4138 60.1838 0.0000 6.7510 0.0000
# 4 0.0000 0.0000 0.0000 11.2442 0.0000 -8.6865
# 5 9.2175 2.5753 6.7510 0.0000 15.2227 0.0000
# 6 0.0000 0.0000 0.0000 -8.6865 0.0000 16.9764
#
#
#
# Elastic Compliance Matrix: (Units=1/GPa)
#
#
# Indices 1 2 3 4 5 6 
#
# 1 0.026716 -0.000896 -0.002276 0.000000 -0.015016 0.000000
# 2 -0.000896 0.009995 -0.000319 0.000000 -0.001007 0.000000
# 3 -0.002276 -0.000319 0.017695 0.000000 -0.006415 0.000000
# 4 0.000000 0.000000 0.000000 0.147069 0.000000 0.075252
# 5 -0.015016 -0.001007 -0.006415 0.000000 0.077799 0.000000
# 6 0.000000 0.000000 0.000000 0.075252 0.000000 0.097410
#
#
# Mechanical properties :
#
#
# Convention : Reuss Voigt Hill
#
# Bulk Modulus (GPa) = 21.08684 26.63940 23.86312
# Shear Modulus (GPa) = 12.51638 21.15787 16.83712
#
# Velocity S-wave (km/s) = 2.42542 3.15344 2.81308
# Velocity P-wave (km/s) = 4.21359 5.07734 4.66550
#
# Compressibility (1/GPa) = 0.04742295
#
# Stress axis : x y z
#
# Youngs Moduli (GPa) = 37.43087 100.04563 56.51217
#
# Poissons Ratio (x) = 0.08965 0.12864
# Poissons Ratio (y) = 0.03354 0.01806
# Poissons Ratio (z) = 0.08520 0.03196
#
# Static dielectric constant tensor:
#      x y z
#    x 1.835270 0.000000 0.024270 
#    y 0.000000 1.870610 0.000000 
#    z 0.024270 0.000000 1.747040 
# 
# From -- ./inp_files/268977.got.cif
#   From: 2010.05.17/outbox.cif.g08.bks.cpg/sg15_135_cif.got.tgz:268977.got - 2010.06.03 18:47:42.
