data_PCOD9276938
_publ_section_title
;
Structure prediction by ZEFSAII (Michael W. Deem and Ramdas Pophale) SiO2 
 PCOD9276938
Probable space group: C 2/C
;
_chemical_formula_sum "Si O2"
_cell_formula_units_Z 44
_cell_length_a 13.569588
_cell_length_b 8.025328
_cell_length_c 28.568445
_cell_angle_alpha 90.000000
_cell_angle_beta 143.794679
_cell_angle_gamma 90.000000
_cell_volume 1837.675255
_symmetry_space_group_name_H-M "C 2/C"
_symmetry_group_IT_number 15
_symmetry_cell_setting 'monoclinic'
loop_
_space_group_symop_operation_xyz
x,y,z
-x,y,1/2-z
-x,-y,-z
x,-y,1/2+z
1/2+x,1/2+y,z
1/2-x,1/2+y,1/2-z
1/2-x,1/2-y,-z
1/2+x,1/2-y,1/2+z
loop_
_atom_site_type_symbol
_atom_site_label
_atom_site_fract_x
_atom_site_fract_y
_atom_site_fract_z
Si Si1 0.500000 0.753120 0.750000
Si Si2 0.666422 0.506247 0.760453
Si Si3 0.022817 0.386922 0.054880
Si Si4 0.185840 0.191457 0.676042
Si Si5 0.690042 0.447014 0.599327
Si Si6 0.645941 0.099009 0.437996
O O1 0.508098 0.621547 0.710731
O O2 0.344084 0.872378 0.687748
O O3 0.806404 0.566568 0.851460
O O4 0.652523 0.310102 0.762347
O O5 0.708757 0.550527 0.723575
O O6 0.046733 0.193878 0.049976
O O7 0.879237 0.444450 0.036036
O O8 0.000000 0.500000 0.000000
O O9 0.037914 0.316016 0.636084
O O10 0.144883 0.113218 0.610266
O O11 0.765903 0.454622 0.576342
O O12 0.750000 0.250000 0.500000
#
# Coordination Sequence:
#
# PCOD9276938 Si02
#       6
#     4   8   8   8   8   8
#     4  10  20  40  66  92 130 174 214 278 334 390
#     4  10  21  40  63  93 132 167 219 276 326 395
#     4  10  21  40  64  93 131 173 211 271 324 385
#     4  11  24  43  67  99 131 174 224 281 338 391
#     4  11  23  42  67  95 136 172 220 278 332 393
#     4  11  23  44  69  93 134 177 222 272 337 403
#
# _framework density 23.943294999999999
#
# number of rings (size 3 to 8) (size 9 to 14) (size 15 to 20)
#    0.000    1.455    3.636    2.182    2.545    1.455 
#    3.273    0.909    0.000    0.000    0.000    0.000 
#    0.000    0.000    0.000    0.000    0.000    0.000 
#
# Total GULP energy -122805.541204 kJ/mol
# GULP energy per Si atom -5582.070055 kJ/mol
# Density = 2.388880 g / cm^3
# Si number density = 23.943295 Si / 1000 Ang^3
#
#
#
# Elastic Constant Matrix: (Units=GPa)
#
#
# Indices 1 2 3 4 5 6 
#
# 1 169.4599 69.2094 28.3211 0.0000 -44.3694 0.0000
# 2 69.2094 80.6968 15.1672 0.0000 -16.9518 0.0000
# 3 28.3211 15.1672 65.9109 0.0000 -13.9482 0.0000
# 4 0.0000 0.0000 0.0000 38.2467 0.0000 4.4899
# 5 -44.3694 -16.9518 -13.9482 0.0000 45.7033 0.0000
# 6 0.0000 0.0000 0.0000 4.4899 0.0000 40.2786
#
#
#
# Elastic Compliance Matrix: (Units=1/GPa)
#
#
# Indices 1 2 3 4 5 6 
#
# 1 0.011363 -0.007861 -0.001450 0.000000 0.007673 0.000000
# 2 -0.007861 0.019177 -0.001224 0.000000 -0.000892 0.000000
# 3 -0.001450 -0.001224 0.016765 0.000000 0.003255 0.000000
# 4 0.000000 0.000000 0.000000 0.026493 0.000000 -0.002953
# 5 0.007673 -0.000892 0.003255 0.000000 0.029992 0.000000
# 6 0.000000 0.000000 0.000000 -0.002953 0.000000 0.025156
#
#
# Mechanical properties :
#
#
# Convention : Reuss Voigt Hill
#
# Bulk Modulus (GPa) = 38.11610 60.16257 49.13933
# Shear Modulus (GPa) = 31.49393 38.40374 34.94883
#
# Velocity S-wave (km/s) = 3.63072 4.00927 3.82468
# Velocity P-wave (km/s) = 5.79051 6.82745 6.33025
#
# Compressibility (1/GPa) = 0.02623563
#
# Stress axis : x y z
#
# Youngs Moduli (GPa) = 88.00496 52.14665 59.64644
#
# Poissons Ratio (x) = 0.40993 0.08647
# Poissons Ratio (y) = 0.69181 0.07300
# Poissons Ratio (z) = 0.12758 0.06382
#
# Static dielectric constant tensor:
#      x y z
#    x 2.027920 0.000000 0.067830 
#    y 0.000000 1.953120 0.000000 
#    z 0.067830 0.000000 1.994740 
# 
# From -- ./inp_files/236218.got.cif
#   From: 2010.05.17/outbox.cif.g08.bks.cpg/sg15_119_cif.got.tgz:236218.got - 2010.06.03 18:47:42.
