data_PCOD9276351
_publ_section_title
;
Structure prediction by ZEFSAII (Michael W. Deem and Ramdas Pophale) SiO2 
 PCOD9276351
Probable space group: C 2/C
;
_chemical_formula_sum "Si O2"
_cell_formula_units_Z 44
_cell_length_a 11.452037
_cell_length_b 25.472481
_cell_length_c 11.439973
_cell_angle_alpha 90.000000
_cell_angle_beta 138.764852
_cell_angle_gamma 90.000000
_cell_volume 2199.701955
_symmetry_space_group_name_H-M "C 2/C"
_symmetry_group_IT_number 15
_symmetry_cell_setting 'monoclinic'
loop_
_space_group_symop_operation_xyz
x,y,z
-x,y,1/2-z
-x,-y,-z
x,-y,1/2+z
1/2+x,1/2+y,z
1/2-x,1/2+y,1/2-z
1/2-x,1/2-y,-z
1/2+x,1/2-y,1/2+z
loop_
_atom_site_type_symbol
_atom_site_label
_atom_site_fract_x
_atom_site_fract_y
_atom_site_fract_z
Si Si1 0.284146 0.702987 0.197585
Si Si2 0.719404 0.912563 0.220376
Si Si3 0.500000 0.447830 0.250000
Si Si4 0.588024 0.117569 0.189228
Si Si5 0.193462 0.985292 0.597086
Si Si6 0.198721 0.816621 0.052780
O O1 0.170981 0.671943 0.207418
O O2 0.263650 0.765606 0.173035
O O3 0.487772 0.689048 0.376527
O O4 0.228669 0.684223 0.025201
O O5 0.895538 0.915713 0.270357
O O6 0.750421 0.868333 0.340074
O O7 0.689673 0.967632 0.264978
O O8 0.558720 0.899320 0.014711
O O9 0.653805 0.481505 0.429033
O O10 0.500000 0.122429 0.250000
O O11 0.731999 0.070663 0.306309
O O12 0.000000 0.000000 0.500000
#
# Coordination Sequence:
#
# PCOD9276351 Si02
#       6
#     8   8   4   8   8   8
#     4  10  22  43  66  96 132 170 219 274 322 383
#     4  11  23  39  65  95 127 172 210 271 325 386
#     4  10  20  40  60  92 132 158 212 264 326 392
#     4  12  24  43  65  98 137 169 219 271 327 392
#     4  10  22  40  63  88 128 172 211 261 322 388
#     4  10  22  42  69  95 129 171 224 270 320 389
#
# _framework density 20.002711000000001
#
# number of rings (size 3 to 8) (size 9 to 14) (size 15 to 20)
#    0.000    1.455    1.818    3.818    0.000    6.545 
#    4.909    1.818    0.000    0.000    0.000    0.000 
#    0.000    0.000    0.000    0.000    0.000    0.000 
#
# Total GULP energy -122858.149462 kJ/mol
# GULP energy per Si atom -5584.461339 kJ/mol
# Density = 1.995718 g / cm^3
# Si number density = 20.002711 Si / 1000 Ang^3
#
#
#
# Elastic Constant Matrix: (Units=GPa)
#
#
# Indices 1 2 3 4 5 6 
#
# 1 58.3335 35.4284 -3.5951 0.0000 1.1707 0.0000
# 2 35.4284 74.7130 14.7062 0.0000 -18.3791 0.0000
# 3 -3.5951 14.7062 83.8112 0.0000 -4.7547 0.0000
# 4 0.0000 0.0000 0.0000 43.2873 0.0000 -0.9738
# 5 1.1707 -18.3791 -4.7547 0.0000 22.6737 0.0000
# 6 0.0000 0.0000 0.0000 -0.9738 0.0000 29.6594
#
#
#
# Elastic Compliance Matrix: (Units=1/GPa)
#
#
# Indices 1 2 3 4 5 6 
#
# 1 0.028633 -0.018053 0.003524 0.000000 -0.015373 0.000000
# 2 -0.018053 0.028507 -0.004466 0.000000 0.023103 0.000000
# 3 0.003524 -0.004466 0.012803 0.000000 -0.001117 0.000000
# 4 0.000000 0.000000 0.000000 0.023119 0.000000 0.000759
# 5 -0.015373 0.023103 -0.001117 0.000000 0.063391 0.000000
# 6 0.000000 0.000000 0.000000 0.000759 0.000000 0.033741
#
#
# Mechanical properties :
#
#
# Convention : Reuss Voigt Hill
#
# Bulk Modulus (GPa) = 31.29542 34.43741 32.86641
# Shear Modulus (GPa) = 20.93510 30.47864 25.70687
#
# Velocity S-wave (km/s) = 3.23865 3.90773 3.58881
# Velocity P-wave (km/s) = 5.44653 6.13304 5.79995
#
# Compressibility (1/GPa) = 0.03195356
#
# Stress axis : x y z
#
# Youngs Moduli (GPa) = 34.92529 35.07878 78.10692
#
# Poissons Ratio (x) = 0.63326 -0.27523
# Poissons Ratio (y) = 0.63049 0.34881
# Poissons Ratio (z) = -0.12307 0.15665
#
# Static dielectric constant tensor:
#      x y z
#    x 1.761730 0.000000 0.014510 
#    y 0.000000 1.701710 0.000000 
#    z 0.014510 0.000000 1.738750 
# 
# From -- ./inp_files/32222.got.cif
#   From: 2010.05.17/outbox.cif.g08.bks.cpg/sg15_17_cif.got.tgz:32222.got - 2010.06.03 18:47:42.
