data_PCOD9276012
_publ_section_title
;
Structure prediction by ZEFSAII (Michael W. Deem and Ramdas Pophale) SiO2 
 PCOD9276012
Probable space group: C 2/C
;
_chemical_formula_sum "Si O2"
_cell_formula_units_Z 60
_cell_length_a 21.824991
_cell_length_b 7.950479
_cell_length_c 23.392135
_cell_angle_alpha 90.000000
_cell_angle_beta 39.102615
_cell_angle_gamma 90.000000
_cell_volume 2560.046128
_symmetry_space_group_name_H-M "C 2/C"
_symmetry_group_IT_number 15
_symmetry_cell_setting 'monoclinic'
loop_
_space_group_symop_operation_xyz
x,y,z
-x,y,1/2-z
-x,-y,-z
x,-y,1/2+z
1/2+x,1/2+y,z
1/2-x,1/2+y,1/2-z
1/2-x,1/2-y,-z
1/2+x,1/2-y,1/2+z
loop_
_atom_site_type_symbol
_atom_site_label
_atom_site_fract_x
_atom_site_fract_y
_atom_site_fract_z
Si Si1 0.000000 0.188025 0.750000
Si Si2 0.690762 0.363426 0.730984
Si Si3 0.062164 0.779301 0.989470
Si Si4 0.343880 0.422186 0.871693
Si Si5 0.531257 0.125574 0.339341
Si Si6 0.629873 0.154151 0.554576
Si Si7 0.868662 0.134000 0.559372
Si Si8 0.344073 0.921888 0.165831
O O1 0.950466 0.298069 0.735959
O O2 0.083726 0.069544 0.662942
O O3 0.640812 0.402566 0.707471
O O4 0.779762 0.238002 0.650298
O O5 0.635772 0.254805 0.817609
O O6 0.735165 0.529332 0.727363
O O7 0.102965 0.605334 0.933376
O O8 0.138369 0.932477 0.932509
O O9 0.027561 0.756029 0.079035
O O10 0.966173 0.821719 0.022862
O O11 0.365773 0.248302 0.888153
O O12 0.229778 0.447278 0.968707
O O13 0.461278 0.966292 0.382188
O O14 0.617779 0.061180 0.317645
O O15 0.623569 0.297805 0.510702
#
# Coordination Sequence:
#
# PCOD9276012 Si02
#       8
#     4   8   8   8   8   8   8   8
#     4  12  30  44  68 102 142 180 224 290 340 414
#     4  11  25  42  65  99 137 172 223 281 341 402
#     4  11  21  40  69  97 133 174 220 272 333 406
#     4  10  25  46  70  96 135 183 231 279 342 405
#     4  12  26  44  68 100 135 177 227 280 340 406
#     4  10  22  46  72  97 132 185 233 277 335 417
#     4  10  20  39  66  99 133 173 218 272 334 399
#     4  12  25  42  68 100 136 178 219 285 336 404
#
# _framework density 23.437076999999999
#
# number of rings (size 3 to 8) (size 9 to 14) (size 15 to 20)
#    0.000    1.067    2.667    3.600    5.600    2.667 
#    2.400    0.000    0.000    0.000    0.000    0.000 
#    0.000    0.000    0.000    0.000    0.000    0.000 
#
# Total GULP energy -167823.489374 kJ/mol
# GULP energy per Si atom -5594.116312 kJ/mol
# Density = 2.338373 g / cm^3
# Si number density = 23.437077 Si / 1000 Ang^3
#
#
#
# Elastic Constant Matrix: (Units=GPa)
#
#
# Indices 1 2 3 4 5 6 
#
# 1 85.4539 16.9296 13.7432 -0.0001 19.9961 -0.0005
# 2 16.9296 57.0774 10.4975 -0.0002 4.5049 -0.0004
# 3 13.7432 10.4975 48.8170 0.0002 17.1240 -0.0002
# 4 -0.0001 -0.0002 0.0002 36.5145 0.0001 0.9008
# 5 19.9961 4.5049 17.1240 0.0001 30.5519 -0.0005
# 6 -0.0005 -0.0004 -0.0002 0.9008 -0.0005 37.9465
#
#
#
# Elastic Compliance Matrix: (Units=1/GPa)
#
#
# Indices 1 2 3 4 5 6 
#
# 1 0.014515 -0.003567 -0.000213 0.000000 -0.008855 0.000000
# 2 -0.003567 0.019127 -0.003658 0.000000 0.001564 0.000000
# 3 -0.000213 -0.003658 0.026255 0.000000 -0.014037 0.000000
# 4 0.000000 0.000000 0.000000 0.027402 0.000000 -0.000650
# 5 -0.008855 0.001564 -0.014037 0.000000 0.046163 0.000000
# 6 0.000000 0.000000 0.000000 -0.000650 0.000000 0.026368
#
#
# Mechanical properties :
#
#
# Convention : Reuss Voigt Hill
#
# Bulk Modulus (GPa) = 22.21170 30.40988 26.31079
# Shear Modulus (GPa) = 26.35531 31.01445 28.68488
#
# Velocity S-wave (km/s) = 3.35701 3.64168 3.50224
# Velocity P-wave (km/s) = 4.95215 5.53947 5.25402
#
# Compressibility (1/GPa) = 0.04502132
#
# Stress axis : x y z
#
# Youngs Moduli (GPa) = 68.89323 52.28111 38.08788
#
# Poissons Ratio (x) = 0.18650 0.00812
# Poissons Ratio (y) = 0.24576 0.13931
# Poissons Ratio (z) = 0.01469 0.19123
#
# Static dielectric constant tensor:
#      x y z
#    x 1.853290 0.000000 -0.002690 
#    y 0.000000 1.880350 0.000000 
#    z -0.002690 0.000000 1.919950 
# 
# From -- ./inp_files/252088.got.cif
#   From: 2010.05.17/outbox.cif.g08.bks.cpg/sg15_127_cif.got.tgz:252088.got - 2010.06.03 18:47:42.
