data_PCOD9276713
_publ_section_title
;
Structure prediction by ZEFSAII (Michael W. Deem and Ramdas Pophale) SiO2 
 PCOD9276713
Probable space group: C 2/C
;
_chemical_formula_sum "Si O2"
_cell_formula_units_Z 56
_cell_length_a 12.875251
_cell_length_b 32.207319
_cell_length_c 7.769451
_cell_angle_alpha 90.000000
_cell_angle_beta 128.709790
_cell_angle_gamma 90.000000
_cell_volume 2514.058227
_symmetry_space_group_name_H-M "C 2/C"
_symmetry_group_IT_number 15
_symmetry_cell_setting 'monoclinic'
loop_
_space_group_symop_operation_xyz
x,y,z
-x,y,1/2-z
-x,-y,-z
x,-y,1/2+z
1/2+x,1/2+y,z
1/2-x,1/2+y,1/2-z
1/2-x,1/2-y,-z
1/2+x,1/2-y,1/2+z
loop_
_atom_site_type_symbol
_atom_site_label
_atom_site_fract_x
_atom_site_fract_y
_atom_site_fract_z
Si Si1 0.738346 0.447140 0.809564
Si Si2 0.679927 0.092225 0.762784
Si Si3 0.632156 0.183981 0.691885
Si Si4 0.427699 0.694734 0.879832
Si Si5 0.517417 0.399438 0.070658
Si Si6 0.000000 0.735345 0.250000
Si Si7 0.354449 0.028156 0.065704
Si Si8 0.500000 0.753732 0.250000
O O1 0.595123 0.424815 0.647658
O O2 0.801770 0.449898 0.684589
O O3 0.817505 0.422202 0.037804
O O4 0.747316 0.494164 0.891588
O O5 0.602270 0.135627 0.674942
O O6 0.835681 0.094692 0.857854
O O7 0.622224 0.059883 0.566237
O O8 0.785394 0.183949 0.804705
O O9 0.547822 0.205875 0.453234
O O10 0.617293 0.212843 0.845244
O O11 0.503161 0.650887 0.940329
O O12 0.395124 0.728471 0.696026
O O13 0.502942 0.723185 0.093689
O O14 0.500000 0.413914 0.250000
O O15 0.500000 0.008428 0.250000
#
# Coordination Sequence:
#
# PCOD9276713 Si02
#       8
#     8   8   8   8   8   4   8   4
#     4  12  26  48  74 103 141 189 237 298 359 431
#     4  11  26  46  71 105 141 185 239 302 356 433
#     4  10  23  40  62  99 135 180 231 289 344 415
#     4  10  21  39  66  92 137 178 230 283 350 419
#     4  11  23  45  70 107 140 184 239 297 369 416
#     4  10  20  40  64  92 129 185 226 280 344 418
#     4  12  27  48  74 103 142 195 238 290 361 431
#     4  10  22  40  62  96 135 185 230 286 348 426
#
# _framework density 22.274740999999999
#
# number of rings (size 3 to 8) (size 9 to 14) (size 15 to 20)
#    0.000    1.143    3.571    1.714    5.000    1.714 
#    5.143    0.000    0.000    0.000    0.000    0.000 
#    0.000    0.000    0.000    0.000    0.000    0.000 
#
# Total GULP energy -156050.465745 kJ/mol
# GULP energy per Si atom -5573.230919 kJ/mol
# Density = 2.222404 g / cm^3
# Si number density = 22.274741 Si / 1000 Ang^3
#
#
#
# Elastic Constant Matrix: (Units=GPa)
#
#
# Indices 1 2 3 4 5 6 
#
# 1 54.7244 20.3779 28.1820 0.0000 -1.7586 0.0000
# 2 20.3779 142.6853 47.5032 0.0000 0.1703 0.0000
# 3 28.1820 47.5032 63.6871 0.0000 -11.0520 0.0000
# 4 0.0000 0.0000 0.0000 28.5668 0.0000 3.0551
# 5 -1.7586 0.1703 -11.0520 0.0000 30.4772 0.0000
# 6 0.0000 0.0000 0.0000 3.0551 0.0000 31.3519
#
#
#
# Elastic Compliance Matrix: (Units=1/GPa)
#
#
# Indices 1 2 3 4 5 6 
#
# 1 0.023874 0.000357 -0.011303 0.000000 -0.002723 0.000000
# 2 0.000357 0.009550 -0.007776 0.000000 -0.002853 0.000000
# 3 -0.011303 -0.007776 0.028170 0.000000 0.009607 0.000000
# 4 0.000000 0.000000 0.000000 0.035374 0.000000 -0.003447
# 5 -0.002723 -0.002853 0.009607 0.000000 0.036154 0.000000
# 6 0.000000 0.000000 0.000000 -0.003447 0.000000 0.032232
#
#
# Mechanical properties :
#
#
# Convention : Reuss Voigt Hill
#
# Bulk Modulus (GPa) = 41.40836 50.35809 45.88323
# Shear Modulus (GPa) = 23.71375 29.08141 26.39758
#
# Velocity S-wave (km/s) = 3.26636 3.61720 3.44625
# Velocity P-wave (km/s) = 5.73199 6.33264 6.03978
#
# Compressibility (1/GPa) = 0.02414971
#
# Stress axis : x y z
#
# Youngs Moduli (GPa) = 41.88678 104.71613 35.49830
#
# Poissons Ratio (x) = -0.03735 0.40124
# Poissons Ratio (y) = -0.01494 0.27603
# Poissons Ratio (z) = 0.47345 0.81425
#
# Static dielectric constant tensor:
#      x y z
#    x 3.204110 0.000000 -0.137100 
#    y 0.000000 1.819930 0.000000 
#    z -0.137100 0.000000 1.836330 
# 
# From -- ./inp_files/44622.got.cif
#   From: 2010.05.17/outbox.cif.g08.bks.cpg/sg15_23_cif.got.tgz:44622.got - 2010.06.03 18:47:42.
