data_PCOD9276313
_publ_section_title
;
Structure prediction by ZEFSAII (Michael W. Deem and Ramdas Pophale) SiO2 
 PCOD9276313
Probable space group: C 2/C
;
_chemical_formula_sum "Si O2"
_cell_formula_units_Z 44
_cell_length_a 11.201742
_cell_length_b 22.715500
_cell_length_c 15.933834
_cell_angle_alpha 90.000000
_cell_angle_beta 150.811494
_cell_angle_gamma 90.000000
_cell_volume 1977.275284
_symmetry_space_group_name_H-M "C 2/C"
_symmetry_group_IT_number 15
_symmetry_cell_setting 'monoclinic'
loop_
_space_group_symop_operation_xyz
x,y,z
-x,y,1/2-z
-x,-y,-z
x,-y,1/2+z
1/2+x,1/2+y,z
1/2-x,1/2+y,1/2-z
1/2-x,1/2-y,-z
1/2+x,1/2-y,1/2+z
loop_
_atom_site_type_symbol
_atom_site_label
_atom_site_fract_x
_atom_site_fract_y
_atom_site_fract_z
Si Si1 0.831123 0.490023 0.068765
Si Si2 0.936879 0.093202 0.376939
Si Si3 0.503899 0.907307 0.026053
Si Si4 0.759348 0.623861 0.064654
Si Si5 0.000000 0.875439 0.250000
Si Si6 0.226008 0.184399 0.452970
O O1 0.835711 0.560274 0.073168
O O2 0.000000 0.470218 0.250000
O O3 0.924275 0.459860 0.040265
O O4 0.560912 0.468064 0.926900
O O5 0.894104 0.105015 0.448092
O O6 0.135608 0.141115 0.470144
O O7 0.692376 0.097440 0.170366
O O8 0.781723 0.910017 0.164396
O O9 0.456323 0.846911 0.049749
O O10 0.000000 0.654227 0.250000
O O11 0.631243 0.656653 0.908804
O O12 0.250000 0.250000 0.500000
O O13 0.000000 0.183202 0.250000
#
# Coordination Sequence:
#
# PCOD9276313 Si02
#       6
#     8   8   8   8   4   8
#     4  10  21  36  56  88 116 160 211 250 301 351
#     4  10  20  40  60  85 125 157 199 262 308 348
#     4  10  22  39  60  87 123 163 202 254 305 359
#     4  11  23  38  56  87 124 165 207 252 292 365
#     4  12  24  38  62  84 124 174 204 238 312 354
#     4   9  20  38  67  94 117 149 196 256 311 365
#
# _framework density 22.252846000000002
#
# number of rings (size 3 to 8) (size 9 to 14) (size 15 to 20)
#    0.000    1.818    1.818    3.273    2.545    6.545 
#    0.000    0.000    2.000    3.273    0.000    0.000 
#    0.000    0.000    0.000    0.000    0.000    0.000 
#
# Total GULP energy -122819.058812 kJ/mol
# GULP energy per Si atom -5582.684491 kJ/mol
# Density = 2.220220 g / cm^3
# Si number density = 22.252846 Si / 1000 Ang^3
#
#
#
# Elastic Constant Matrix: (Units=GPa)
#
#
# Indices 1 2 3 4 5 6 
#
# 1 165.6526 12.9150 49.7631 0.0019 -9.5952 0.0006
# 2 12.9150 52.4322 6.7081 0.0012 -5.0384 0.0006
# 3 49.7631 6.7081 108.9638 0.0041 -14.7273 0.0004
# 4 0.0019 0.0012 0.0041 19.8671 0.0024 -5.3677
# 5 -9.5952 -5.0384 -14.7273 0.0024 46.0412 0.0004
# 6 0.0006 0.0006 0.0004 -5.3677 0.0004 2.6365
#
#
#
# Elastic Compliance Matrix: (Units=1/GPa)
#
#
# Indices 1 2 3 4 5 6 
#
# 1 0.007094 -0.001317 -0.003113 -0.000001 0.000339 -0.000002
# 2 -0.001317 0.019612 -0.000369 -0.000005 0.001754 -0.000015
# 3 -0.003113 -0.000369 0.011004 -0.000006 0.002831 -0.000013
# 4 -0.000001 -0.000005 -0.000006 0.111869 -0.000010 0.227753
# 5 0.000339 0.001754 0.002831 -0.000010 0.022888 -0.000025
# 6 -0.000002 -0.000015 -0.000013 0.227753 -0.000025 0.842971
#
#
# Mechanical properties :
#
#
# Convention : Reuss Voigt Hill
#
# Bulk Modulus (GPa) = 35.57018 51.75790 43.66404
# Shear Modulus (GPa) = 4.83369 30.88645 17.86007
#
# Velocity S-wave (km/s) = 1.47543 3.72960 2.83609
# Velocity P-wave (km/s) = 4.34992 6.46962 5.51261
#
# Compressibility (1/GPa) = 0.02811344
#
# Stress axis : x y z
#
# Youngs Moduli (GPa) = 140.96086 50.98840 90.87278
#
# Poissons Ratio (x) = 0.06713 0.28289
# Poissons Ratio (y) = 0.18559 0.03354
# Poissons Ratio (z) = 0.43882 0.01882
#
# Static dielectric constant tensor:
#      x y z
#    x 1.872730 0.000000 0.013140 
#    y 0.000000 1.807090 0.000000 
#    z 0.013140 0.000000 1.935890 
# 
# From -- ./inp_files/148618.got.cif
#   From: 2010.05.17/outbox.cif.g08.bks.cpg/sg15_75_cif.got.tgz:148618.got - 2010.06.03 18:47:42.
