data_PCOD9276015
_publ_section_title
;
Structure prediction by ZEFSAII (Michael W. Deem and Ramdas Pophale) SiO2 
 PCOD9276015
Probable space group: C 2/C
;
_chemical_formula_sum "Si O2"
_cell_formula_units_Z 48
_cell_length_a 15.376340
_cell_length_b 11.900729
_cell_length_c 26.589923
_cell_angle_alpha 90.000000
_cell_angle_beta 153.232955
_cell_angle_gamma 90.000000
_cell_volume 2191.327852
_symmetry_space_group_name_H-M "C 2/C"
_symmetry_group_IT_number 15
_symmetry_cell_setting 'monoclinic'
loop_
_space_group_symop_operation_xyz
x,y,z
-x,y,1/2-z
-x,-y,-z
x,-y,1/2+z
1/2+x,1/2+y,z
1/2-x,1/2+y,1/2-z
1/2-x,1/2-y,-z
1/2+x,1/2-y,1/2+z
loop_
_atom_site_type_symbol
_atom_site_label
_atom_site_fract_x
_atom_site_fract_y
_atom_site_fract_z
Si Si1 0.308361 0.567766 0.384227
Si Si2 0.254225 0.348292 0.310052
Si Si3 0.165905 0.783787 0.510236
Si Si4 0.232614 0.090314 0.863980
Si Si5 0.726126 0.668750 0.378048
Si Si6 0.942134 0.275272 0.387231
O O1 0.500000 0.500000 0.500000
O O2 0.185781 0.468576 0.295195
O O3 0.235984 0.633506 0.396854
O O4 0.370397 0.657683 0.373921
O O5 0.465320 0.347210 0.393627
O O6 0.300387 0.265794 0.379778
O O7 0.107383 0.291506 0.196109
O O8 0.250000 0.750000 0.500000
O O9 0.166029 0.666218 0.541025
O O10 0.314759 0.135467 0.853670
O O11 0.000000 0.104951 0.750000
O O12 0.278313 0.959308 0.893051
O O13 0.500000 0.674990 0.250000
O O14 0.834266 0.699783 0.485280
#
# Coordination Sequence:
#
# PCOD9276015 Si02
#       6
#     8   8   8   8   8   8
#     4   9  19  41  64  93 139 174 213 287 334 400
#     4  11  23  40  68  96 133 181 217 276 352 404
#     4  10  20  39  67 100 130 168 223 275 341 392
#     4  10  21  39  63  96 131 164 212 279 323 399
#     4  11  24  43  61  90 135 173 221 277 327 410
#     4  11  22  39  70  92 130 175 226 270 343 402
#
# _framework density 21.904525
#
# number of rings (size 3 to 8) (size 9 to 14) (size 15 to 20)
#    0.000    1.667    5.000    1.500    2.333    0.667 
#    3.000    6.667    0.000    0.000    0.000    0.000 
#    0.000    0.000    0.000    0.000    0.000    0.000 
#
# Total GULP energy -133775.250074 kJ/mol
# GULP energy per Si atom -5573.968753 kJ/mol
# Density = 2.185467 g / cm^3
# Si number density = 21.904525 Si / 1000 Ang^3
#
#
#
# Elastic Constant Matrix: (Units=GPa)
#
#
# Indices 1 2 3 4 5 6 
#
# 1 49.5067 45.9365 17.2595 0.0000 -10.1257 0.0000
# 2 45.9365 151.3344 27.4016 0.0004 -15.5090 0.0001
# 3 17.2595 27.4016 112.0512 0.0012 -18.3168 0.0006
# 4 0.0000 0.0004 0.0012 25.0980 0.0001 -1.7247
# 5 -10.1257 -15.5090 -18.3168 0.0001 39.7715 0.0000
# 6 0.0000 0.0001 0.0006 -1.7247 0.0000 20.2458
#
#
#
# Elastic Compliance Matrix: (Units=1/GPa)
#
#
# Indices 1 2 3 4 5 6 
#
# 1 0.029118 -0.008144 -0.001948 0.000000 0.003341 0.000000
# 2 -0.008144 0.009353 -0.000839 0.000000 0.001188 0.000000
# 3 -0.001948 -0.000839 0.010052 0.000000 0.003806 0.000000
# 4 0.000000 0.000000 0.000000 0.040078 0.000000 0.003414
# 5 0.003341 0.001188 0.003806 0.000000 0.028210 0.000000
# 6 0.000000 0.000000 0.000000 0.003414 0.000000 0.049684
#
#
# Mechanical properties :
#
#
# Convention : Reuss Voigt Hill
#
# Bulk Modulus (GPa) = 37.50462 54.89861 46.20162
# Shear Modulus (GPa) = 25.34943 31.84270 28.59606
#
# Velocity S-wave (km/s) = 3.40556 3.81688 3.61707
# Velocity P-wave (km/s) = 5.71164 6.67397 6.21147
#
# Compressibility (1/GPa) = 0.02666338
#
# Stress axis : x y z
#
# Youngs Moduli (GPa) = 34.34327 106.91309 99.48437
#
# Poissons Ratio (x) = 0.87065 0.19375
# Poissons Ratio (y) = 0.27967 0.08345
# Poissons Ratio (z) = 0.06688 0.08968
#
# Static dielectric constant tensor:
#      x y z
#    x 1.925640 0.000000 0.077870 
#    y 0.000000 1.799510 0.000000 
#    z 0.077870 0.000000 1.897400 
# 
# From -- ./inp_files/296213.got.cif
#   From: 2010.05.17/outbox.cif.g08.bks.cpg/sg15_149_cif.got.tgz:296213.got - 2010.06.03 18:47:42.
