data_PCOD9276983
_publ_section_title
;
Structure prediction by ZEFSAII (Michael W. Deem and Ramdas Pophale) SiO2 
 PCOD9276983
Probable space group: C 2/C
;
_chemical_formula_sum "Si O2"
_cell_formula_units_Z 52
_cell_length_a 20.760582
_cell_length_b 13.744609
_cell_length_c 19.729401
_cell_angle_alpha 90.000000
_cell_angle_beta 23.867681
_cell_angle_gamma 90.000000
_cell_volume 2277.924904
_symmetry_space_group_name_H-M "C 2/C"
_symmetry_group_IT_number 15
_symmetry_cell_setting 'monoclinic'
loop_
_space_group_symop_operation_xyz
x,y,z
-x,y,1/2-z
-x,-y,-z
x,-y,1/2+z
1/2+x,1/2+y,z
1/2-x,1/2+y,1/2-z
1/2-x,1/2-y,-z
1/2+x,1/2-y,1/2+z
loop_
_atom_site_type_symbol
_atom_site_label
_atom_site_fract_x
_atom_site_fract_y
_atom_site_fract_z
Si Si1 0.018488 0.129820 0.153807
Si Si2 0.516488 0.049377 0.655754
Si Si3 0.908835 0.351179 0.712896
Si Si4 0.679555 0.791315 0.215950
Si Si5 0.000000 0.219953 0.750000
Si Si6 0.846536 0.061469 0.819438
Si Si7 0.209168 0.303281 0.344342
O O1 0.879120 0.184353 0.247042
O O2 0.991385 0.013966 0.177133
O O3 0.000000 0.158695 0.250000
O O4 0.184369 0.166063 0.963762
O O5 0.500000 0.077143 0.750000
O O6 0.399368 0.961017 0.747215
O O7 0.473574 0.139906 0.650243
O O8 0.690159 0.002990 0.480413
O O9 0.032475 0.339859 0.531942
O O10 0.993918 0.290150 0.691365
O O11 0.748477 0.298957 0.843395
O O12 0.733275 0.796967 0.241608
O O13 0.861044 0.142640 0.864932
O O14 0.825652 0.121052 0.770104
#
# Coordination Sequence:
#
# PCOD9276983 Si02
#       7
#     8   8   8   8   4   8   8
#     4  12  24  44  67  91 118 174 210 277 303 373
#     4  11  23  38  62  99 124 170 206 267 309 379
#     4  10  22  38  67  91 134 162 219 251 325 365
#     4  12  26  42  66  88 136 163 219 253 322 371
#     4  10  20  40  66  98 130 164 204 276 304 376
#     4  10  23  39  65  92 133 158 219 256 324 363
#     4  10  24  41  60  99 125 179 200 262 309 395
#
# _framework density 22.827793
#
# number of rings (size 3 to 8) (size 9 to 14) (size 15 to 20)
#    0.000    1.231    1.538    3.692    2.154    7.385 
#    0.000    0.000    0.000    0.000    0.000    0.000 
#    0.000    0.000    0.000    0.000    0.000    0.000 
#
# Total GULP energy -145421.152457 kJ/mol
# GULP energy per Si atom -5593.121248 kJ/mol
# Density = 2.277584 g / cm^3
# Si number density = 22.827793 Si / 1000 Ang^3
#
#
#
# Elastic Constant Matrix: (Units=GPa)
#
#
# Indices 1 2 3 4 5 6 
#
# 1 125.4884 15.3064 1.9445 -0.0001 23.9001 -0.0009
# 2 15.3064 91.7350 -18.6698 -0.0024 1.3063 0.0001
# 3 1.9445 -18.6698 33.6072 -0.0028 1.5740 0.0006
# 4 -0.0001 -0.0024 -0.0028 35.8332 0.0003 -6.6445
# 5 23.9001 1.3063 1.5740 0.0003 28.7852 -0.0017
# 6 -0.0009 0.0001 0.0006 -6.6445 -0.0017 47.8389
#
#
#
# Elastic Compliance Matrix: (Units=1/GPa)
#
#
# Indices 1 2 3 4 5 6 
#
# 1 0.009707 -0.001743 -0.001159 0.000000 -0.007917 0.000000
# 2 -0.001743 0.012629 0.007094 0.000001 0.000486 0.000000
# 3 -0.001159 0.007094 0.033820 0.000003 -0.001209 0.000000
# 4 0.000000 0.000001 0.000003 0.028645 0.000000 0.003979
# 5 -0.007917 0.000486 -0.001209 0.000000 0.041358 0.000001
# 6 0.000000 0.000000 0.000000 0.003979 0.000001 0.021456
#
#
# Mechanical properties :
#
#
# Convention : Reuss Voigt Hill
#
# Bulk Modulus (GPa) = 15.49448 27.55475 21.52461
# Shear Modulus (GPa) = 31.10531 39.30809 35.20670
#
# Velocity S-wave (km/s) = 3.69536 4.15413 3.93144
# Velocity P-wave (km/s) = 5.00098 5.92503 5.48251
#
# Compressibility (1/GPa) = 0.06453913
#
# Stress axis : x y z
#
# Youngs Moduli (GPa) = 103.01482 79.18574 29.56839
#
# Poissons Ratio (x) = 0.13801 0.03427
# Poissons Ratio (y) = 0.17954 -0.20975
# Poissons Ratio (z) = 0.11940 -0.56171
#
# Static dielectric constant tensor:
#      x y z
#    x 1.808510 0.000000 -0.043660 
#    y 0.000000 1.847510 0.000000 
#    z -0.043660 0.000000 1.891170 
# 
# From -- ./inp_files/252729.got.cif
#   From: 2010.05.17/outbox.cif.g08.bks.cpg/sg15_127_cif.got.tgz:252729.got - 2010.06.03 18:47:42.
