data_PCOD9276283
_publ_section_title
;
Structure prediction by ZEFSAII (Michael W. Deem and Ramdas Pophale) SiO2 
 PCOD9276283
Probable space group: C 2/C
;
_chemical_formula_sum "Si O2"
_cell_formula_units_Z 36
_cell_length_a 24.796564
_cell_length_b 15.262465
_cell_length_c 8.872849
_cell_angle_alpha 90.000000
_cell_angle_beta 31.675820
_cell_angle_gamma 90.000000
_cell_volume 1763.322182
_symmetry_space_group_name_H-M "C 2/C"
_symmetry_group_IT_number 15
_symmetry_cell_setting 'monoclinic'
loop_
_space_group_symop_operation_xyz
x,y,z
-x,y,1/2-z
-x,-y,-z
x,-y,1/2+z
1/2+x,1/2+y,z
1/2-x,1/2+y,1/2-z
1/2-x,1/2-y,-z
1/2+x,1/2-y,1/2+z
loop_
_atom_site_type_symbol
_atom_site_label
_atom_site_fract_x
_atom_site_fract_y
_atom_site_fract_z
Si Si1 0.433617 0.385100 0.687858
Si Si2 0.076034 0.246434 0.718713
Si Si3 0.000000 0.969335 0.250000
Si Si4 0.020758 0.404835 0.378174
Si Si5 0.792833 0.726489 0.061654
O O1 0.539432 0.332760 0.412287
O O2 0.419636 0.416689 0.547019
O O3 0.440172 0.468677 0.777089
O O4 0.361715 0.311927 0.930140
O O5 0.193077 0.227511 0.401804
O O6 0.000000 0.250102 0.750000
O O7 0.054131 0.336106 0.859137
O O8 0.000000 0.409600 0.250000
O O9 0.000000 0.500000 0.500000
O O10 0.133904 0.358779 0.122087
O O11 0.750000 0.750000 0.000000
#
# Coordination Sequence:
#
# PCOD9276283 Si02
#       5
#     8   8   4   8   8
#     4  10  21  39  63  88 131 162 214 268 331 389
#     4  11  21  44  69  94 136 177 228 278 345 412
#     4  10  20  40  58  92 128 162 206 280 320 394
#     4  11  26  47  70 103 141 181 236 294 343 418
#     4  11  22  43  72  95 132 188 222 272 359 403
#
# _framework density 20.416008000000001
#
# number of rings (size 3 to 8) (size 9 to 14) (size 15 to 20)
#    0.000    1.333    5.556    0.667    6.222    0.889 
#   12.000    0.000    0.000    0.000    0.000    0.000 
#    0.000    0.000    0.000    0.000    0.000    0.000 
#
# Total GULP energy -100303.271399 kJ/mol
# GULP energy per Si atom -5572.403967 kJ/mol
# Density = 2.036954 g / cm^3
# Si number density = 20.416008 Si / 1000 Ang^3
#
#
#
# Elastic Constant Matrix: (Units=GPa)
#
#
# Indices 1 2 3 4 5 6 
#
# 1 80.4695 42.8342 36.5775 0.0000 13.1172 0.0000
# 2 42.8342 164.0194 71.4157 0.0000 2.4799 0.0000
# 3 36.5775 71.4157 164.3526 0.0000 -27.2789 0.0000
# 4 0.0000 0.0000 0.0000 9.7378 0.0000 14.2726
# 5 13.1172 2.4799 -27.2789 0.0000 27.7748 0.0000
# 6 0.0000 0.0000 0.0000 14.2726 0.0000 30.0145
#
#
#
# Elastic Compliance Matrix: (Units=1/GPa)
#
#
# Indices 1 2 3 4 5 6 
#
# 1 0.018298 -0.002227 -0.005383 0.000000 -0.013730 0.000000
# 2 -0.002227 0.008326 -0.003669 0.000000 -0.003295 0.000000
# 3 -0.005383 -0.003669 0.011175 0.000000 0.013846 0.000000
# 4 0.000000 0.000000 0.000000 0.338897 0.000000 -0.161154
# 5 -0.013730 -0.003295 0.013846 0.000000 0.056381 0.000000
# 6 0.000000 0.000000 0.000000 -0.161154 0.000000 0.109950
#
#
# Mechanical properties :
#
#
# Convention : Reuss Voigt Hill
#
# Bulk Modulus (GPa) = 65.61917 78.94403 72.28160
# Shear Modulus (GPa) = 8.76171 30.70634 19.73402
#
# Velocity S-wave (km/s) = 2.07386 3.88239 3.11238
# Velocity P-wave (km/s) = 6.15998 7.67131 6.95681
#
# Compressibility (1/GPa) = 0.01523945
#
# Stress axis : x y z
#
# Youngs Moduli (GPa) = 54.65207 120.10865 89.48560
#
# Poissons Ratio (x) = 0.26747 0.48174
# Poissons Ratio (y) = 0.12170 0.32833
# Poissons Ratio (z) = 0.29422 0.44069
#
# Static dielectric constant tensor:
#      x y z
#    x 1.650300 0.000000 -0.112510 
#    y 0.000000 1.804940 0.000000 
#    z -0.112510 0.000000 1.430740 
# 
# From -- ./inp_files/37642.got.cif
#   From: 2010.05.17/outbox.cif.g08.bks.cpg/sg15_19_cif.got.tgz:37642.got - 2010.06.03 18:47:42.
