data_PCOD9276560
_publ_section_title
;
Structure prediction by ZEFSAII (Michael W. Deem and Ramdas Pophale) SiO2 
 PCOD9276560
Probable space group: C 2/C
;
_chemical_formula_sum "Si O2"
_cell_formula_units_Z 60
_cell_length_a 15.904648
_cell_length_b 15.400144
_cell_length_c 27.497705
_cell_angle_alpha 90.000000
_cell_angle_beta 154.838392
_cell_angle_gamma 90.000000
_cell_volume 2863.590209
_symmetry_space_group_name_H-M "C 2/C"
_symmetry_group_IT_number 15
_symmetry_cell_setting 'monoclinic'
loop_
_space_group_symop_operation_xyz
x,y,z
-x,y,1/2-z
-x,-y,-z
x,-y,1/2+z
1/2+x,1/2+y,z
1/2-x,1/2+y,1/2-z
1/2-x,1/2-y,-z
1/2+x,1/2-y,1/2+z
loop_
_atom_site_type_symbol
_atom_site_label
_atom_site_fract_x
_atom_site_fract_y
_atom_site_fract_z
Si Si1 0.305850 0.269803 0.359639
Si Si2 0.601862 0.938155 0.483723
Si Si3 0.451343 0.013519 0.146119
Si Si4 0.284556 0.924523 0.856640
Si Si5 0.023058 0.743153 0.899258
Si Si6 0.437202 0.562859 0.512256
Si Si7 0.637288 0.576636 0.178194
Si Si8 0.500000 0.133865 0.750000
O O1 0.380335 0.171785 0.403323
O O2 0.473609 0.341666 0.441778
O O3 0.185872 0.302543 0.344196
O O4 0.141530 0.270101 0.229904
O O5 0.760987 0.936933 0.610493
O O6 0.520671 0.841821 0.431376
O O7 0.649938 0.977002 0.456063
O O8 0.429265 0.999587 0.414436
O O9 0.639742 0.068374 0.226513
O O10 0.512735 0.930062 0.210514
O O11 0.295573 0.062367 0.098880
O O12 0.126378 0.920640 0.730848
O O13 0.962849 0.834649 0.892029
O O14 0.250000 0.750000 0.000000
O O15 0.500000 0.500000 0.500000
O O16 0.535930 0.510502 0.607733
#
# Coordination Sequence:
#
# PCOD9276560 Si02
#       8
#     8   8   8   8   8   8   8   4
#     4  11  23  39  61  96 133 160 216 266 328 395
#     4  10  20  40  63  87 127 166 213 260 309 384
#     4  11  21  40  62  94 130 165 211 262 333 392
#     4   9  22  40  61  86 126 172 204 259 315 374
#     4  11  23  39  66  96 126 168 214 273 324 384
#     4  12  23  38  66  95 131 170 204 270 341 395
#     4  10  22  40  59  95 131 164 210 264 329 389
#     4  12  20  38  60  94 136 156 204 280 330 390
#
# _framework density 20.952718999999998
#
# number of rings (size 3 to 8) (size 9 to 14) (size 15 to 20)
#    0.000    1.333    4.000    1.600    3.733    0.000 
#    0.000    6.000    0.000    0.000    0.000    0.000 
#    0.000    0.000    0.000    0.000    0.000    0.000 
#
# Total GULP energy -167383.755142 kJ/mol
# GULP energy per Si atom -5579.458505 kJ/mol
# Density = 2.090503 g / cm^3
# Si number density = 20.952719 Si / 1000 Ang^3
#
#
#
# Elastic Constant Matrix: (Units=GPa)
#
#
# Indices 1 2 3 4 5 6 
#
# 1 96.8470 33.5191 26.8664 0.0000 -8.3219 0.0001
# 2 33.5191 149.1476 21.8605 -0.0002 11.3509 0.0002
# 3 26.8664 21.8605 59.5425 -0.0025 0.0231 0.0009
# 4 0.0000 -0.0002 -0.0025 21.6615 0.0002 2.9493
# 5 -8.3219 11.3509 0.0231 0.0002 46.5136 0.0001
# 6 0.0001 0.0002 0.0009 2.9493 0.0001 21.1390
#
#
#
# Elastic Compliance Matrix: (Units=1/GPa)
#
#
# Indices 1 2 3 4 5 6 
#
# 1 0.012745 -0.002366 -0.004883 -0.000001 0.002860 0.000000
# 2 -0.002366 0.007667 -0.001746 0.000000 -0.002294 0.000000
# 3 -0.004883 -0.001746 0.019639 0.000002 -0.000457 -0.000001
# 4 -0.000001 0.000000 0.000002 0.047059 0.000000 -0.006566
# 5 0.002860 -0.002294 -0.000457 0.000000 0.022571 0.000000
# 6 0.000000 0.000000 -0.000001 -0.006566 0.000000 0.048222
#
#
# Mechanical properties :
#
#
# Convention : Reuss Voigt Hill
#
# Bulk Modulus (GPa) = 45.33067 52.22545 48.77806
# Shear Modulus (GPa) = 27.28554 32.74890 30.01722
#
# Velocity S-wave (km/s) = 3.61258 3.95776 3.78910
# Velocity P-wave (km/s) = 6.25161 6.77234 6.51718
#
# Compressibility (1/GPa) = 0.02206012
#
# Stress axis : x y z
#
# Youngs Moduli (GPa) = 78.46280 130.42820 50.91815
#
# Poissons Ratio (x) = 0.30862 0.24864
# Poissons Ratio (y) = 0.18566 0.08892
# Poissons Ratio (z) = 0.38314 0.22777
#
# Static dielectric constant tensor:
#      x y z
#    x 1.810170 0.000000 -0.060400 
#    y 0.000000 1.731250 0.000000 
#    z -0.060400 0.000000 1.868400 
# 
# From -- ./inp_files/296710.got.cif
#   From: 2010.05.17/outbox.cif.g08.bks.cpg/sg15_149_cif.got.tgz:296710.got - 2010.06.03 18:47:42.
