data_PCOD9276033
_publ_section_title
;
Structure prediction by ZEFSAII (Michael W. Deem and Ramdas Pophale) SiO2 
 PCOD9276033
Probable space group: C 2/C
;
_chemical_formula_sum "Si O2"
_cell_formula_units_Z 44
_cell_length_a 8.683506
_cell_length_b 20.961930
_cell_length_c 11.158571
_cell_angle_alpha 90.000000
_cell_angle_beta 81.091982
_cell_angle_gamma 90.000000
_cell_volume 2006.618154
_symmetry_space_group_name_H-M "C 2/C"
_symmetry_group_IT_number 15
_symmetry_cell_setting 'monoclinic'
loop_
_space_group_symop_operation_xyz
x,y,z
-x,y,1/2-z
-x,-y,-z
x,-y,1/2+z
1/2+x,1/2+y,z
1/2-x,1/2+y,1/2-z
1/2-x,1/2-y,-z
1/2+x,1/2-y,1/2+z
loop_
_atom_site_type_symbol
_atom_site_label
_atom_site_fract_x
_atom_site_fract_y
_atom_site_fract_z
Si Si1 0.800092 0.249382 0.666253
Si Si2 0.000000 0.336405 0.250000
Si Si3 0.618177 0.083089 0.958475
Si Si4 0.608748 0.340788 0.526744
Si Si5 0.771899 0.854820 0.660607
Si Si6 0.286582 0.947338 0.609820
O O1 0.646999 0.207331 0.704912
O O2 0.749823 0.302894 0.575132
O O3 0.916942 0.198388 0.593001
O O4 0.822760 0.293438 0.779612
O O5 0.951820 0.379659 0.144628
O O6 0.720564 0.023560 0.899086
O O7 0.717932 0.125578 0.036012
O O8 0.467699 0.063971 0.055999
O O9 0.453487 0.337897 0.624080
O O10 0.674837 0.412704 0.525093
O O11 0.750688 0.913124 0.758451
#
# Coordination Sequence:
#
# PCOD9276033 Si02
#       6
#     8   4   8   8   8   8
#     4  10  20  39  67  91 134 179 216 264 345 401
#     4  12  22  44  64  92 136 178 218 278 330 406
#     4  11  26  39  66  98 130 176 230 272 328 403
#     4  10  20  41  68  97 132 176 220 272 341 397
#     4  11  23  42  69 102 132 173 224 288 331 396
#     4  10  22  42  66  95 133 179 221 269 339 401
#
# _framework density 21.927440000000001
#
# number of rings (size 3 to 8) (size 9 to 14) (size 15 to 20)
#    0.000    1.455    3.636    2.182    5.091    1.455 
#    0.000    4.545    0.000    0.000    0.000    0.000 
#    0.000    0.000    0.000    0.000    0.000    0.000 
#
# Total GULP energy -122761.355212 kJ/mol
# GULP energy per Si atom -5580.061601 kJ/mol
# Density = 2.187753 g / cm^3
# Si number density = 21.927440 Si / 1000 Ang^3
#
#
#
# Elastic Constant Matrix: (Units=GPa)
#
#
# Indices 1 2 3 4 5 6 
#
# 1 49.1076 29.7324 31.7633 0.0000 -5.1253 0.0000
# 2 29.7324 124.4282 60.7352 0.0000 11.4435 0.0000
# 3 31.7633 60.7352 105.7370 0.0000 0.9402 0.0000
# 4 0.0000 0.0000 0.0000 59.1761 0.0000 5.3519
# 5 -5.1253 11.4435 0.9402 0.0000 46.4572 0.0000
# 6 0.0000 0.0000 0.0000 5.3519 0.0000 35.3181
#
#
#
# Elastic Compliance Matrix: (Units=1/GPa)
#
#
# Indices 1 2 3 4 5 6 
#
# 1 0.026979 -0.003957 -0.005868 0.000000 0.004070 0.000000
# 2 -0.003957 0.012077 -0.005719 0.000000 -0.003296 0.000000
# 3 -0.005868 -0.005719 0.014501 0.000000 0.000468 0.000000
# 4 0.000000 0.000000 0.000000 0.017134 0.000000 -0.002596
# 5 0.004070 -0.003296 0.000468 0.000000 0.022776 0.000000
# 6 0.000000 0.000000 0.000000 -0.002596 0.000000 0.028708
#
#
# Mechanical properties :
#
#
# Convention : Reuss Voigt Hill
#
# Bulk Modulus (GPa) = 44.50458 58.19273 51.34865
# Shear Modulus (GPa) = 31.10377 38.65973 34.88175
#
# Velocity S-wave (km/s) = 3.77037 4.20345 3.99279
# Velocity P-wave (km/s) = 6.26854 7.08203 6.68766
#
# Compressibility (1/GPa) = 0.02246960
#
# Stress axis : x y z
#
# Youngs Moduli (GPa) = 37.06545 82.80281 68.96076
#
# Poissons Ratio (x) = 0.32764 0.40466
# Poissons Ratio (y) = 0.14666 0.39439
# Poissons Ratio (z) = 0.21750 0.47355
#
# Static dielectric constant tensor:
#      x y z
#    x 1.813480 0.000000 0.025750 
#    y 0.000000 1.962470 0.000000 
#    z 0.025750 0.000000 1.870690 
# 
# From -- ./inp_files/78099.got.cif
#   From: 2010.05.17/outbox.cif.g08.bks.cpg/sg15_40_cif.got.tgz:78099.got - 2010.06.03 18:47:42.
