data_PCOD9276970
_publ_section_title
;
Structure prediction by ZEFSAII (Michael W. Deem and Ramdas Pophale) SiO2 
 PCOD9276970
Probable space group: C 2/C
;
_chemical_formula_sum "Si O2"
_cell_formula_units_Z 52
_cell_length_a 6.363976
_cell_length_b 30.374121
_cell_length_c 14.346620
_cell_angle_alpha 90.000000
_cell_angle_beta 67.829252
_cell_angle_gamma 90.000000
_cell_volume 2568.162810
_symmetry_space_group_name_H-M "C 2/C"
_symmetry_group_IT_number 15
_symmetry_cell_setting 'monoclinic'
loop_
_space_group_symop_operation_xyz
x,y,z
-x,y,1/2-z
-x,-y,-z
x,-y,1/2+z
1/2+x,1/2+y,z
1/2-x,1/2+y,1/2-z
1/2-x,1/2-y,-z
1/2+x,1/2-y,1/2+z
loop_
_atom_site_type_symbol
_atom_site_label
_atom_site_fract_x
_atom_site_fract_y
_atom_site_fract_z
Si Si1 0.776769 0.729006 0.348451
Si Si2 0.702805 0.874148 0.933399
Si Si3 0.715385 0.819544 0.453583
Si Si4 0.237094 0.541772 0.757021
Si Si5 0.000000 0.178438 0.250000
Si Si6 0.979334 0.096805 0.562898
Si Si7 0.103629 0.548080 0.984658
O O1 0.758970 0.780596 0.374102
O O2 0.774403 0.702749 0.445864
O O3 0.574502 0.709649 0.321353
O O4 0.000000 0.720763 0.250000
O O5 0.806687 0.852791 0.824293
O O6 0.534948 0.839534 0.010316
O O7 0.880881 0.888203 0.981326
O O8 0.559812 0.917893 0.936980
O O9 0.885997 0.860746 0.420613
O O10 0.500000 0.523675 0.750000
O O11 0.308400 0.577830 0.668584
O O12 0.140999 0.560409 0.869932
O O13 0.000000 0.519621 0.750000
O O14 0.150010 0.056146 0.513917
O O15 0.000000 0.500000 0.000000
#
# Coordination Sequence:
#
# PCOD9276970 Si02
#       7
#     8   8   8   8   4   8   8
#     4  11  23  41  61  92 132 167 219 278 332 411
#     4  11  22  41  66  92 128 172 222 270 343 403
#     4  10  23  40  66  91 127 176 219 275 338 400
#     4  10  20  40  66  96 133 172 220 281 338 398
#     4  12  24  40  64  94 130 172 216 276 338 420
#     4  10  21  41  68  94 130 171 226 277 333 405
#     4  10  23  43  65  98 135 175 218 278 341 409
#
# _framework density 20.247938000000001
#
# number of rings (size 3 to 8) (size 9 to 14) (size 15 to 20)
#    0.000    1.538    4.615    0.000    0.000    5.538 
#    4.154    0.000    0.000    0.000    0.000    0.000 
#    0.000    0.000    0.000    0.000    0.000    0.000 
#
# Total GULP energy -144734.615163 kJ/mol
# GULP energy per Si atom -5566.715968 kJ/mol
# Density = 2.020185 g / cm^3
# Si number density = 20.247938 Si / 1000 Ang^3
#
#
#
# Elastic Constant Matrix: (Units=GPa)
#
#
# Indices 1 2 3 4 5 6 
#
# 1 87.9469 25.5500 18.0750 0.0000 4.7835 0.0000
# 2 25.5500 90.7474 29.7041 0.0000 -13.8034 0.0000
# 3 18.0750 29.7041 66.7245 0.0000 -8.9529 0.0000
# 4 0.0000 0.0000 0.0000 -0.8661 0.0000 -0.0815
# 5 4.7835 -13.8034 -8.9529 0.0000 32.8973 0.0000
# 6 0.0000 0.0000 0.0000 -0.0815 0.0000 18.8693
#
#
#
# Elastic Compliance Matrix: (Units=1/GPa)
#
#
# Indices 1 2 3 4 5 6 
#
# 1 0.013127 -0.003478 -0.002553 0.000000 -0.004063 0.000000
# 2 -0.003478 0.014348 -0.004743 0.000000 0.005235 0.000000
# 3 -0.002553 -0.004743 0.018239 0.000000 0.003345 0.000000
# 4 0.000000 0.000000 0.000000 -1.154107 0.000000 -0.004987
# 5 -0.004063 0.005235 0.003345 0.000000 0.034095 0.000000
# 6 0.000000 0.000000 0.000000 -0.004987 0.000000 0.052975
#
#
# Mechanical properties :
#
#
# Convention : Reuss Voigt Hill
#
# Bulk Modulus (GPa) = 41.38047 43.56411 42.47229
# Shear Modulus (GPa) = -5.04173 21.65274 8.30551
#
# Velocity S-wave (km/s) = -1.57968 3.27369 2.02751
# Velocity P-wave (km/s) = 4.14174 5.98760 5.14808
#
# Compressibility (1/GPa) = 0.02416599
#
# Stress axis : x y z
#
# Youngs Moduli (GPa) = 76.18135 69.69821 54.82906
#
# Poissons Ratio (x) = 0.24243 0.13995
# Poissons Ratio (y) = 0.26498 0.26003
# Poissons Ratio (z) = 0.19446 0.33054
#
# Static dielectric constant tensor:
#      x y z
#    x 1.865070 0.000000 -0.008800 
#    y 0.000000 1.694960 0.000000 
#    z -0.008800 0.000000 1.699240 
# 
# From -- ./inp_files/130676.got.cif
#   From: 2010.05.17/outbox.cif.g08.bks.cpg/sg15_66_cif.got.tgz:130676.got - 2010.06.03 18:47:42.
