data_PCOD9276715
_publ_section_title
;
Structure prediction by ZEFSAII (Michael W. Deem and Ramdas Pophale) SiO2 
 PCOD9276715
Probable space group: C 2/C
;
_chemical_formula_sum "Si O2"
_cell_formula_units_Z 48
_cell_length_a 20.984251
_cell_length_b 8.171445
_cell_length_c 10.798643
_cell_angle_alpha 90.000000
_cell_angle_beta 112.516270
_cell_angle_gamma 90.000000
_cell_volume 1710.510564
_symmetry_space_group_name_H-M "C 2/C"
_symmetry_group_IT_number 15
_symmetry_cell_setting 'monoclinic'
loop_
_space_group_symop_operation_xyz
x,y,z
-x,y,1/2-z
-x,-y,-z
x,-y,1/2+z
1/2+x,1/2+y,z
1/2-x,1/2+y,1/2-z
1/2-x,1/2-y,-z
1/2+x,1/2-y,1/2+z
loop_
_atom_site_type_symbol
_atom_site_label
_atom_site_fract_x
_atom_site_fract_y
_atom_site_fract_z
Si Si1 0.345861 0.721092 0.614462
Si Si2 0.500000 0.000000 0.000000
Si Si3 0.396181 0.647641 0.303776
Si Si4 0.000000 0.701623 0.250000
Si Si5 0.627459 0.592522 0.492721
Si Si6 0.869793 0.459019 0.424182
Si Si7 0.233106 0.691832 0.210242
O O1 0.427475 0.704492 0.706484
O O2 0.329361 0.567743 0.518321
O O3 0.344869 0.883727 0.532235
O O4 0.293714 0.721949 0.686441
O O5 0.492762 0.085817 0.128453
O O6 0.574460 0.102046 0.028937
O O7 0.412167 0.636765 0.167955
O O8 0.410517 0.498913 0.414814
O O9 0.418661 0.824154 0.384631
O O10 0.313007 0.670148 0.245526
O O11 0.687537 0.721348 0.570510
O O12 0.804303 0.515651 0.300812
#
# Coordination Sequence:
#
# PCOD9276715 Si02
#       7
#     8   4   8   4   8   8   8
#     4  10  23  42  63  91 133 165 214 271 321 379
#     4  10  20  40  64  92 130 162 216 264 316 372
#     4  11  25  41  65  96 134 168 214 263 323 394
#     4  10  20  42  64  96 126 168 212 272 320 378
#     4  11  24  44  61  92 131 173 208 261 324 392
#     4  10  24  39  66  97 126 170 215 271 317 374
#     4  12  23  40  66  94 128 172 217 263 325 382
#
# _framework density 28.061798
#
# number of rings (size 3 to 8) (size 9 to 14) (size 15 to 20)
#    0.000    1.333    3.333    1.500    4.667    1.333 
#    0.000    2.500    0.000    0.000    0.000    0.000 
#    0.000    0.000    0.000    0.000    0.000    0.000 
#
# Total GULP energy -133636.094048 kJ/mol
# GULP energy per Si atom -5568.170585 kJ/mol
# Density = 2.799793 g / cm^3
# Si number density = 28.061798 Si / 1000 Ang^3
#
#
#
# Elastic Constant Matrix: (Units=GPa)
#
#
# Indices 1 2 3 4 5 6 
#
# 1 126.4550 -5.9620 30.3354 0.0000 19.0736 0.0000
# 2 -5.9620 21.5851 22.5353 0.0000 -13.6090 0.0000
# 3 30.3354 22.5353 170.8913 0.0000 -32.3872 0.0000
# 4 0.0000 0.0000 0.0000 44.5229 0.0000 -17.9425
# 5 19.0736 -13.6090 -32.3872 0.0000 55.7519 0.0000
# 6 0.0000 0.0000 0.0000 -17.9425 0.0000 17.9429
#
#
#
# Elastic Compliance Matrix: (Units=1/GPa)
#
#
# Indices 1 2 3 4 5 6 
#
# 1 0.009347 0.002933 -0.002828 0.000000 -0.004124 0.000000
# 2 0.002933 0.060247 -0.006595 0.000000 0.009872 0.000000
# 3 -0.002828 -0.006595 0.007980 0.000000 0.003993 0.000000
# 4 0.000000 0.000000 0.000000 0.037621 0.000000 0.037620
# 5 -0.004124 0.009872 0.003993 0.000000 0.024077 0.000000
# 6 0.000000 0.000000 0.000000 0.037620 0.000000 0.093352
#
#
# Mechanical properties :
#
#
# Convention : Reuss Voigt Hill
#
# Bulk Modulus (GPa) = 15.48066 45.86098 30.67082
# Shear Modulus (GPa) = 18.71718 41.77839 30.24779
#
# Velocity S-wave (km/s) = 2.58543 3.86268 3.28670
# Velocity P-wave (km/s) = 3.80016 6.02263 5.03554
#
# Compressibility (1/GPa) = 0.06459673
#
# Stress axis : x y z
#
# Youngs Moduli (GPa) = 106.99048 16.59821 125.31250
#
# Poissons Ratio (x) = -0.04869 0.35433
# Poissons Ratio (y) = -0.31385 0.82639
# Poissons Ratio (z) = 0.30253 0.10946
#
# Static dielectric constant tensor:
#      x y z
#    x 2.046340 0.000000 0.023280 
#    y 0.000000 2.109350 0.000000 
#    z 0.023280 0.000000 2.338970 
# 
# From -- ./inp_files/116824.got.cif
#   From: 2010.05.17/outbox.cif.g08.bks.cpg/sg15_59_cif.got.tgz:116824.got - 2010.06.03 18:47:42.
