data_PCOD9276280
_publ_section_title
;
Structure prediction by ZEFSAII (Michael W. Deem and Ramdas Pophale) SiO2 
 PCOD9276280
Probable space group: C 2/C
;
_chemical_formula_sum "Si O2"
_cell_formula_units_Z 56
_cell_length_a 10.147361
_cell_length_b 11.292398
_cell_length_c 24.783380
_cell_angle_alpha 90.000000
_cell_angle_beta 133.432872
_cell_angle_gamma 90.000000
_cell_volume 2062.264272
_symmetry_space_group_name_H-M "C 2/C"
_symmetry_group_IT_number 15
_symmetry_cell_setting 'monoclinic'
loop_
_space_group_symop_operation_xyz
x,y,z
-x,y,1/2-z
-x,-y,-z
x,-y,1/2+z
1/2+x,1/2+y,z
1/2-x,1/2+y,1/2-z
1/2-x,1/2-y,-z
1/2+x,1/2-y,1/2+z
loop_
_atom_site_type_symbol
_atom_site_label
_atom_site_fract_x
_atom_site_fract_y
_atom_site_fract_z
Si Si1 0.422885 0.009024 0.824768
Si Si2 0.885926 0.613280 0.488045
Si Si3 0.076694 0.957669 0.425922
Si Si4 0.424893 0.778931 0.888929
Si Si5 0.740704 0.388207 0.673978
Si Si6 0.263605 0.646769 0.638190
Si Si7 0.914809 0.745475 0.778055
O O1 0.259683 0.066312 0.814903
O O2 0.514324 0.127171 0.826565
O O3 0.497035 0.902450 0.882886
O O4 0.364136 0.950754 0.752707
O O5 0.727236 0.558545 0.479663
O O6 0.830958 0.682621 0.418669
O O7 0.000000 0.500000 0.500000
O O8 0.051986 0.676462 0.564344
O O9 0.128290 0.924357 0.377339
O O10 0.068512 0.822761 0.444851
O O11 0.884332 0.014217 0.389323
O O12 0.288167 0.725686 0.804817
O O13 0.832324 0.279298 0.668576
O O14 0.598155 0.327099 0.674658
O O15 0.000000 0.804617 0.750000
#
# Coordination Sequence:
#
# PCOD9276280 Si02
#       7
#     8   8   8   8   8   8   8
#     4  10  20  40  58  90 131 154 211 260 307 389
#     4  10  21  41  64  89 129 165 215 257 307 377
#     4  11  22  40  69  89 126 172 203 264 313 362
#     4  11  21  39  63  97 117 166 222 245 316 386
#     4  10  22  39  61  95 122 156 220 252 307 394
#     4  10  23  42  63  92 126 170 206 258 319 364
#     4  10  21  36  60  88 128 163 199 269 318 364
#
# _framework density 27.154616999999998
#
# number of rings (size 3 to 8) (size 9 to 14) (size 15 to 20)
#    0.000    1.714    4.286    0.857    2.000    4.000 
#    0.000    0.714    0.000    0.000    0.000    0.000 
#    0.000    0.000    0.000    0.000    0.000    0.000 
#
# Total GULP energy -156119.738052 kJ/mol
# GULP energy per Si atom -5575.704930 kJ/mol
# Density = 2.709281 g / cm^3
# Si number density = 27.154617 Si / 1000 Ang^3
#
#
#
# Elastic Constant Matrix: (Units=GPa)
#
#
# Indices 1 2 3 4 5 6 
#
# 1 70.7848 20.3131 1.3391 0.0000 -7.4618 0.0000
# 2 20.3131 139.6288 23.2783 0.0000 0.8071 0.0000
# 3 1.3391 23.2783 70.6691 0.0000 7.2842 0.0000
# 4 0.0000 0.0000 0.0000 27.3872 0.0000 22.3454
# 5 -7.4618 0.8071 7.2842 0.0000 21.8550 0.0000
# 6 0.0000 0.0000 0.0000 22.3454 0.0000 10.1990
#
#
#
# Elastic Compliance Matrix: (Units=1/GPa)
#
#
# Indices 1 2 3 4 5 6 
#
# 1 0.015338 -0.002245 -0.000103 0.000000 0.005354 0.000000
# 2 -0.002245 0.007914 -0.002542 0.000000 -0.000211 0.000000
# 3 -0.000103 -0.002542 0.015517 0.000000 -0.005113 0.000000
# 4 0.000000 0.000000 0.000000 -0.046360 0.000000 0.101572
# 5 0.005354 -0.000211 -0.005113 0.000000 0.049296 0.000000
# 6 0.000000 0.000000 0.000000 0.101572 0.000000 -0.124490
#
#
# Mechanical properties :
#
#
# Convention : Reuss Voigt Hill
#
# Bulk Modulus (GPa) = 34.49770 41.21598 37.85684
# Shear Modulus (GPa) = -78.93613 27.63173 -25.65220
#
# Velocity S-wave (km/s) = -5.39743 3.19340 -3.07689
# Velocity P-wave (km/s) = 5.10992 5.36733 1.16126
#
# Compressibility (1/GPa) = 0.02898744
#
# Stress axis : x y z
#
# Youngs Moduli (GPa) = 65.19777 126.36571 64.44599
#
# Poissons Ratio (x) = 0.28371 0.00663
# Poissons Ratio (y) = 0.14638 0.16385
# Poissons Ratio (z) = 0.00671 0.32127
#
# Static dielectric constant tensor:
#      x y z
#    x 2.264710 0.000000 0.207620 
#    y 0.000000 2.191550 0.000000 
#    z 0.207620 0.000000 2.301800 
# 
# From -- ./inp_files/292291.got.cif
#   From: 2010.05.17/outbox.cif.g08.bks.cpg/sg15_147_cif.got.tgz:292291.got - 2010.06.03 18:47:42.
