data_PCOD9276930
_publ_section_title
;
Structure prediction by ZEFSAII (Michael W. Deem and Ramdas Pophale) SiO2 
 PCOD9276930
Probable space group: C 2/C
;
_chemical_formula_sum "Si O2"
_cell_formula_units_Z 44
_cell_length_a 11.629681
_cell_length_b 16.889591
_cell_length_c 11.375523
_cell_angle_alpha 90.000000
_cell_angle_beta 101.511016
_cell_angle_gamma 90.000000
_cell_volume 2189.444889
_symmetry_space_group_name_H-M "C 2/C"
_symmetry_group_IT_number 15
_symmetry_cell_setting 'monoclinic'
loop_
_space_group_symop_operation_xyz
x,y,z
-x,y,1/2-z
-x,-y,-z
x,-y,1/2+z
1/2+x,1/2+y,z
1/2-x,1/2+y,1/2-z
1/2-x,1/2-y,-z
1/2+x,1/2-y,1/2+z
loop_
_atom_site_type_symbol
_atom_site_label
_atom_site_fract_x
_atom_site_fract_y
_atom_site_fract_z
Si Si1 0.788476 0.462499 0.612009
Si Si2 0.410536 0.748474 0.913530
Si Si3 0.772434 0.640450 0.534236
Si Si4 0.500000 0.868016 0.750000
Si Si5 0.660129 0.684399 0.027545
Si Si6 0.863220 0.112517 0.234942
O O1 0.801353 0.551581 0.574207
O O2 0.914132 0.421387 0.655219
O O3 0.712035 0.403572 0.513449
O O4 0.716432 0.455590 0.720416
O O5 0.306124 0.685552 0.886092
O O6 0.419359 0.810272 0.809902
O O7 0.380803 0.804067 0.019845
O O8 0.533327 0.703567 0.949990
O O9 0.690790 0.635602 0.400600
O O10 0.646448 0.680764 0.166920
O O11 0.750000 0.750000 0.000000
O O12 0.000000 0.091218 0.250000
#
# Coordination Sequence:
#
# PCOD9276930 Si02
#       6
#     8   8   8   4   8   8
#     4  10  24  42  66  93 133 172 216 269 324 385
#     4  11  22  41  70  92 132 168 221 271 323 388
#     4  11  23  44  64  99 130 175 216 271 326 387
#     4  12  22  46  64  98 132 176 212 274 324 388
#     4  10  20  40  67  95 126 173 214 267 329 382
#     4  10  20  40  66  91 132 167 215 269 320 382
#
# _framework density 20.096418
#
# number of rings (size 3 to 8) (size 9 to 14) (size 15 to 20)
#    1.091    0.364    5.455    0.000    0.000    3.636 
#    4.909    5.455    0.000    0.000    0.000    0.000 
#    0.000    0.000    0.000    0.000    0.000    0.000 
#
# Total GULP energy -122653.019216 kJ/mol
# GULP energy per Si atom -5575.137237 kJ/mol
# Density = 2.005068 g / cm^3
# Si number density = 20.096418 Si / 1000 Ang^3
#
#
#
# Elastic Constant Matrix: (Units=GPa)
#
#
# Indices 1 2 3 4 5 6 
#
# 1 29.7010 2.0085 -22.2887 0.0000 1.0736 0.0000
# 2 2.0085 135.4481 6.5766 0.0000 4.4699 0.0000
# 3 -22.2887 6.5766 23.3586 0.0000 2.9681 0.0000
# 4 0.0000 0.0000 0.0000 17.8458 0.0000 2.9198
# 5 1.0736 4.4699 2.9681 0.0000 26.4989 0.0000
# 6 0.0000 0.0000 0.0000 2.9198 0.0000 8.8071
#
#
#
# Elastic Compliance Matrix: (Units=1/GPa)
#
#
# Indices 1 2 3 4 5 6 
#
# 1 0.135152 -0.007860 0.133603 0.000000 -0.019114 0.000000
# 2 -0.007860 0.007971 -0.009753 0.000000 0.000066 0.000000
# 3 0.133603 -0.009753 0.176024 0.000000 -0.023484 0.000000
# 4 0.000000 0.000000 0.000000 0.059249 0.000000 -0.019643
# 5 -0.019114 0.000066 -0.023484 0.000000 0.041131 0.000000
# 6 0.000000 0.000000 0.000000 -0.019643 0.000000 0.120056
#
#
# Mechanical properties :
#
#
# Convention : Reuss Voigt Hill
#
# Bulk Modulus (GPa) = 1.81446 17.90008 9.85727
# Shear Modulus (GPa) = 10.17681 24.11112 17.14396
#
# Velocity S-wave (km/s) = 2.25277 3.46753 2.92393
# Velocity P-wave (km/s) = 2.76975 4.99581 4.03916
#
# Compressibility (1/GPa) = 0.55112706
#
# Stress axis : x y z
#
# Youngs Moduli (GPa) = 7.39907 125.45758 5.68104
#
# Poissons Ratio (x) = 0.98615 -0.75901
# Poissons Ratio (y) = 0.05816 0.05541
# Poissons Ratio (z) = -0.98854 1.22358
#
# Static dielectric constant tensor:
#      x y z
#    x 1.727770 0.000000 -0.024550 
#    y 0.000000 1.689930 0.000000 
#    z -0.024550 0.000000 1.738280 
# 
# From -- ./inp_files/143032.got.cif
#   From: 2010.05.17/outbox.cif.g08.bks.cpg/sg15_72_cif.got.tgz:143032.got - 2010.06.03 18:47:42.
