data_PCOD9276916
_publ_section_title
;
Structure prediction by ZEFSAII (Michael W. Deem and Ramdas Pophale) SiO2 
 PCOD9276916
Probable space group: C 2/C
;
_chemical_formula_sum "Si O2"
_cell_formula_units_Z 56
_cell_length_a 19.388541
_cell_length_b 8.672276
_cell_length_c 29.927187
_cell_angle_alpha 90.000000
_cell_angle_beta 35.542463
_cell_angle_gamma 90.000000
_cell_volume 2925.156036
_symmetry_space_group_name_H-M "C 2/C"
_symmetry_group_IT_number 15
_symmetry_cell_setting 'monoclinic'
loop_
_space_group_symop_operation_xyz
x,y,z
-x,y,1/2-z
-x,-y,-z
x,-y,1/2+z
1/2+x,1/2+y,z
1/2-x,1/2+y,1/2-z
1/2-x,1/2-y,-z
1/2+x,1/2-y,1/2+z
loop_
_atom_site_type_symbol
_atom_site_label
_atom_site_fract_x
_atom_site_fract_y
_atom_site_fract_z
Si Si1 0.041054 0.954817 0.528463
Si Si2 0.921113 0.492721 0.333424
Si Si3 0.820978 0.235242 0.170955
Si Si4 0.346454 0.954242 0.241312
Si Si5 0.706467 0.714314 0.473136
Si Si6 0.258180 0.227316 0.875825
Si Si7 0.861107 0.549270 0.565717
O O1 0.145698 0.835783 0.462558
O O2 0.935675 0.875540 0.610755
O O3 0.094571 0.099745 0.526557
O O4 0.000000 0.000000 0.500000
O O5 0.815346 0.614325 0.395053
O O6 0.868167 0.324980 0.348521
O O7 0.000000 0.545792 0.250000
O O8 0.013056 0.472383 0.324942
O O9 0.822020 0.355649 0.210416
O O10 0.830061 0.326208 0.119810
O O11 0.709346 0.122990 0.231924
O O12 0.285069 0.866454 0.315886
O O13 0.750000 0.750000 0.500000
O O14 0.668812 0.866082 0.465263
O O15 0.225321 0.402643 0.883605
O O16 0.000000 0.500000 0.500000
#
# Coordination Sequence:
#
# PCOD9276916 Si02
#       7
#     8   8   8   8   8   8   8
#     4  11  19  42  67  89 126 176 214 266 332 380
#     4   9  21  43  64  83 132 177 209 257 338 396
#     4  12  24  40  67  95 132 170 221 272 328 387
#     4  11  24  41  63  97 128 174 216 270 326 397
#     4  11  25  40  66 100 128 171 221 275 326 385
#     4  10  20  40  66  90 127 167 218 263 329 392
#     4  12  23  39  67 100 128 167 220 274 327 384
#
# _framework density 19.144276999999999
#
# number of rings (size 3 to 8) (size 9 to 14) (size 15 to 20)
#    0.000    1.143    4.286    2.571    2.000    2.286 
#    0.000   10.714    0.000    0.000    0.000    0.000 
#    0.000    0.000    0.000    0.000    0.000    0.000 
#
# Total GULP energy -156278.697902 kJ/mol
# GULP energy per Si atom -5581.382068 kJ/mol
# Density = 1.910070 g / cm^3
# Si number density = 19.144277 Si / 1000 Ang^3
#
#
#
# Elastic Constant Matrix: (Units=GPa)
#
#
# Indices 1 2 3 4 5 6 
#
# 1 140.1427 59.0030 31.1452 0.0000 -4.3391 0.0002
# 2 59.0030 93.8010 17.8524 -0.0002 -8.7297 0.0004
# 3 31.1452 17.8524 47.0855 0.0000 -16.1298 0.0000
# 4 0.0000 -0.0002 0.0000 36.9070 0.0000 -0.2926
# 5 -4.3391 -8.7297 -16.1298 0.0000 27.7621 0.0000
# 6 0.0002 0.0004 0.0000 -0.2926 0.0000 30.0842
#
#
#
# Elastic Compliance Matrix: (Units=1/GPa)
#
#
# Indices 1 2 3 4 5 6 
#
# 1 0.010960 -0.006058 -0.006265 0.000000 -0.003832 0.000000
# 2 -0.006058 0.014880 -0.000444 0.000000 0.003474 0.000000
# 3 -0.006265 -0.000444 0.031421 0.000000 0.017137 0.000000
# 4 0.000000 0.000000 0.000000 0.027097 0.000000 0.000264
# 5 -0.003832 0.003474 0.017137 0.000000 0.046470 0.000000
# 6 0.000000 0.000000 0.000000 0.000264 0.000000 0.033243
#
#
# Mechanical properties :
#
#
# Convention : Reuss Voigt Hill
#
# Bulk Modulus (GPa) = 31.52104 55.22560 43.37332
# Shear Modulus (GPa) = 24.97734 30.48590 27.73162
#
# Velocity S-wave (km/s) = 3.61597 3.99485 3.81012
# Velocity P-wave (km/s) = 5.82532 7.08436 6.48547
#
# Compressibility (1/GPa) = 0.03172484
#
# Stress axis : x y z
#
# Youngs Moduli (GPa) = 91.24069 67.20645 31.82570
#
# Poissons Ratio (x) = 0.40716 0.19940
# Poissons Ratio (y) = 0.55276 0.01414
# Poissons Ratio (z) = 0.57166 0.02986
#
# Static dielectric constant tensor:
#      x y z
#    x 1.775250 0.000000 -0.073750 
#    y 0.000000 1.675130 0.000000 
#    z -0.073750 0.000000 1.720410 
# 
# From -- ./inp_files/209519.got.cif
#   From: 2010.05.17/outbox.cif.g08.bks.cpg/sg15_105_cif.got.tgz:209519.got - 2010.06.03 18:47:42.
