data_PCOD9276592
_publ_section_title
;
Structure prediction by ZEFSAII (Michael W. Deem and Ramdas Pophale) SiO2 
 PCOD9276592
Probable space group: C 2/C
;
_chemical_formula_sum "Si O2"
_cell_formula_units_Z 40
_cell_length_a 15.546533
_cell_length_b 11.166597
_cell_length_c 12.510889
_cell_angle_alpha 90.000000
_cell_angle_beta 108.996168
_cell_angle_gamma 90.000000
_cell_volume 2053.632045
_symmetry_space_group_name_H-M "C 2/C"
_symmetry_group_IT_number 15
_symmetry_cell_setting 'monoclinic'
loop_
_space_group_symop_operation_xyz
x,y,z
-x,y,1/2-z
-x,-y,-z
x,-y,1/2+z
1/2+x,1/2+y,z
1/2-x,1/2+y,1/2-z
1/2-x,1/2-y,-z
1/2+x,1/2-y,1/2+z
loop_
_atom_site_type_symbol
_atom_site_label
_atom_site_fract_x
_atom_site_fract_y
_atom_site_fract_z
Si Si1 0.430897 0.071450 0.891464
Si Si2 0.478096 0.699143 0.016346
Si Si3 0.429704 0.470921 0.121626
Si Si4 0.261519 0.674272 0.611081
Si Si5 0.090801 0.329177 0.715560
O O1 0.477969 0.199462 0.890755
O O2 0.334435 0.115656 0.898602
O O3 0.409458 0.973124 0.792726
O O4 0.500000 0.000000 0.000000
O O5 0.429695 0.600563 0.068044
O O6 0.544440 0.622417 0.963725
O O7 0.420837 0.772345 0.906264
O O8 0.500000 0.467722 0.250000
O O9 0.332726 0.432725 0.125748
O O10 0.250000 0.750000 0.500000
O O11 0.316680 0.769498 0.706070
O O12 0.000000 0.299017 0.750000
#
# Coordination Sequence:
#
# PCOD9276592 Si02
#       5
#     8   8   8   8   8
#     4  10  23  40  61  90 128 170 212 262 321 379
#     4  10  20  40  63  92 126 163 207 258 328 379
#     4  11  21  37  66  94 126 159 214 269 316 382
#     4  12  21  38  62  92 123 173 219 261 319 379
#     4  11  21  42  63  89 128 172 214 265 321 382
#
# _framework density 19.477685999999999
#
# number of rings (size 3 to 8) (size 9 to 14) (size 15 to 20)
#    0.000    1.200    6.000    1.200    0.000    4.000 
#    0.000    4.000    0.000    0.000    0.000    0.000 
#    0.000    0.000    0.000    0.000    0.000    0.000 
#
# Total GULP energy -111364.771659 kJ/mol
# GULP energy per Si atom -5568.238583 kJ/mol
# Density = 1.943335 g / cm^3
# Si number density = 19.477686 Si / 1000 Ang^3
#
#
#
# Elastic Constant Matrix: (Units=GPa)
#
#
# Indices 1 2 3 4 5 6 
#
# 1 74.3833 36.4504 40.0947 0.0000 25.7939 0.0000
# 2 36.4504 163.3373 51.1916 0.0000 7.0375 0.0000
# 3 40.0947 51.1916 63.8875 0.0000 9.3598 0.0000
# 4 0.0000 0.0000 0.0000 36.7554 0.0000 -18.0748
# 5 25.7939 7.0375 9.3598 0.0000 20.7017 0.0000
# 6 0.0000 0.0000 0.0000 -18.0748 0.0000 23.8196
#
#
#
# Elastic Compliance Matrix: (Units=1/GPa)
#
#
# Indices 1 2 3 4 5 6 
#
# 1 0.035082 -0.001377 -0.015612 0.000000 -0.036184 0.000000
# 2 -0.001377 0.008230 -0.005967 0.000000 0.001616 0.000000
# 3 -0.015612 -0.005967 0.029006 0.000000 0.008367 0.000000
# 4 0.000000 0.000000 0.000000 0.043403 0.000000 0.032935
# 5 -0.036184 0.001616 0.008367 0.000000 0.089058 0.000000
# 6 0.000000 0.000000 0.000000 0.032935 0.000000 0.066974
#
#
# Mechanical properties :
#
#
# Convention : Reuss Voigt Hill
#
# Bulk Modulus (GPa) = 37.87126 61.89795 49.88460
# Shear Modulus (GPa) = 15.31548 27.84679 21.58114
#
# Velocity S-wave (km/s) = 2.80716 3.78521 3.33226
# Velocity P-wave (km/s) = 5.47654 7.13804 6.36177
#
# Compressibility (1/GPa) = 0.02640525
#
# Stress axis : x y z
#
# Youngs Moduli (GPa) = 28.50501 121.50477 34.47543
#
# Poissons Ratio (x) = 0.16728 0.53824
# Poissons Ratio (y) = 0.03924 0.20572
# Poissons Ratio (z) = 0.44503 0.72505
#
# Static dielectric constant tensor:
#      x y z
#    x 1.667050 0.000000 -0.030570 
#    y 0.000000 1.729040 0.000000 
#    z -0.030570 0.000000 1.680170 
# 
# From -- ./inp_files/94905.got.cif
#   From: 2010.05.17/outbox.cif.g08.bks.cpg/sg15_48_cif.got.tgz:94905.got - 2010.06.03 18:47:42.
