data_PCOD9276113
_publ_section_title
;
Structure prediction by ZEFSAII (Michael W. Deem and Ramdas Pophale) SiO2 
 PCOD9276113
Probable space group: C 2/C
;
_chemical_formula_sum "Si O2"
_cell_formula_units_Z 52
_cell_length_a 18.614533
_cell_length_b 16.508053
_cell_length_c 8.814164
_cell_angle_alpha 90.000000
_cell_angle_beta 120.196052
_cell_angle_gamma 90.000000
_cell_volume 2340.983720
_symmetry_space_group_name_H-M "C 2/C"
_symmetry_group_IT_number 15
_symmetry_cell_setting 'monoclinic'
loop_
_space_group_symop_operation_xyz
x,y,z
-x,y,1/2-z
-x,-y,-z
x,-y,1/2+z
1/2+x,1/2+y,z
1/2-x,1/2+y,1/2-z
1/2-x,1/2-y,-z
1/2+x,1/2-y,1/2+z
loop_
_atom_site_type_symbol
_atom_site_label
_atom_site_fract_x
_atom_site_fract_y
_atom_site_fract_z
Si Si1 0.677661 0.739039 0.049595
Si Si2 0.183155 0.479323 0.491760
Si Si3 0.916407 0.090414 0.863929
Si Si4 0.000000 0.704082 0.250000
Si Si5 0.932897 0.433647 0.878297
Si Si6 0.598060 0.413164 0.512578
Si Si7 0.750841 0.883610 0.289607
O O1 0.585829 0.749806 0.877671
O O2 0.673132 0.649236 0.116675
O O3 0.750000 0.750000 0.000000
O O4 0.691478 0.808747 0.187952
O O5 0.129965 0.424323 0.549273
O O6 0.119936 0.529301 0.316980
O O7 0.238009 0.425252 0.437779
O O8 0.229731 0.546703 0.642141
O O9 0.907236 0.079271 0.674527
O O10 0.844526 0.145053 0.857142
O O11 0.010572 0.118762 0.987748
O O12 0.899021 0.003122 0.919790
O O13 0.978116 0.646018 0.367902
O O14 0.000000 0.500000 0.000000
#
# Coordination Sequence:
#
# PCOD9276113 Si02
#       7
#     8   8   8   4   8   8   8
#     4  12  25  40  62  97 127 170 210 274 330 394
#     4  10  21  34  59  95 128 166 217 257 310 395
#     4  10  20  39  68  94 120 168 217 272 312 391
#     4  12  22  38  62  88 128 168 204 260 326 382
#     4  11  18  35  58  89 122 167 208 253 303 384
#     4  10  22  41  68  94 122 164 224 270 326 381
#     4  11  21  38  63  96 132 167 213 266 327 382
#
# _framework density 22.212883000000001
#
# number of rings (size 3 to 8) (size 9 to 14) (size 15 to 20)
#    0.000    1.231    4.615    2.769    0.000    0.000 
#    0.000    0.000   16.923    2.769    0.000    0.000 
#    0.000    0.000    0.000    0.000    0.000    0.000 
#
# Total GULP energy -145360.152038 kJ/mol
# GULP energy per Si atom -5590.775078 kJ/mol
# Density = 2.216233 g / cm^3
# Si number density = 22.212883 Si / 1000 Ang^3
#
#
#
# Elastic Constant Matrix: (Units=GPa)
#
#
# Indices 1 2 3 4 5 6 
#
# 1 146.8305 28.2419 31.2505 0.0000 -6.3410 0.0000
# 2 28.2419 73.9405 2.5945 0.0000 -14.2416 0.0000
# 3 31.2505 2.5945 43.8433 0.0000 -14.4946 0.0000
# 4 0.0000 0.0000 0.0000 6.3874 0.0000 -8.2020
# 5 -6.3410 -14.2416 -14.4946 0.0000 38.2047 0.0000
# 6 0.0000 0.0000 0.0000 -8.2020 0.0000 34.6410
#
#
#
# Elastic Compliance Matrix: (Units=1/GPa)
#
#
# Indices 1 2 3 4 5 6 
#
# 1 0.008879 -0.003632 -0.006945 0.000000 -0.002515 0.000000
# 2 -0.003632 0.016100 0.003912 0.000000 0.006883 0.000000
# 3 -0.006945 0.003912 0.031591 0.000000 0.012291 0.000000
# 4 0.000000 0.000000 0.000000 0.224949 0.000000 0.053261
# 5 -0.002515 0.006883 0.012291 0.000000 0.032986 0.000000
# 6 0.000000 0.000000 0.000000 0.053261 0.000000 0.041478
#
#
# Mechanical properties :
#
#
# Convention : Reuss Voigt Hill
#
# Bulk Modulus (GPa) = 23.12768 43.19868 33.16318
# Shear Modulus (GPa) = 13.03009 29.34845 21.18927
#
# Velocity S-wave (km/s) = 2.42461 3.63882 3.09191
# Velocity P-wave (km/s) = 4.27466 6.09463 5.26390
#
# Compressibility (1/GPa) = 0.04323823
#
# Stress axis : x y z
#
# Youngs Moduli (GPa) = 112.62894 62.11142 31.65492
#
# Poissons Ratio (x) = 0.22559 0.21985
# Poissons Ratio (y) = 0.40907 -0.12382
# Poissons Ratio (z) = 0.78222 -0.24295
#
# Static dielectric constant tensor:
#      x y z
#    x 1.840240 0.000000 0.053150 
#    y 0.000000 1.837350 0.000000 
#    z 0.053150 0.000000 1.820130 
# 
# From -- ./inp_files/48659.got.cif
#   From: 2010.05.17/outbox.cif.g08.bks.cpg/sg15_25_cif.got.tgz:48659.got - 2010.06.03 18:47:42.
