data_PCOD9276142
_publ_section_title
;
Structure prediction by ZEFSAII (Michael W. Deem and Ramdas Pophale) SiO2 
 PCOD9276142
Probable space group: C 2/C
;
_chemical_formula_sum "Si O2"
_cell_formula_units_Z 44
_cell_length_a 18.416497
_cell_length_b 9.100815
_cell_length_c 9.808885
_cell_angle_alpha 90.000000
_cell_angle_beta 87.890307
_cell_angle_gamma 90.000000
_cell_volume 1642.905118
_symmetry_space_group_name_H-M "C 2/C"
_symmetry_group_IT_number 15
_symmetry_cell_setting 'monoclinic'
loop_
_space_group_symop_operation_xyz
x,y,z
-x,y,1/2-z
-x,-y,-z
x,-y,1/2+z
1/2+x,1/2+y,z
1/2-x,1/2+y,1/2-z
1/2-x,1/2-y,-z
1/2+x,1/2-y,1/2+z
loop_
_atom_site_type_symbol
_atom_site_label
_atom_site_fract_x
_atom_site_fract_y
_atom_site_fract_z
Si Si1 0.654003 0.697656 0.158692
Si Si2 0.926013 0.104016 0.596257
Si Si3 0.163665 0.722886 0.176534
Si Si4 0.026086 0.625680 0.093911
Si Si5 0.242463 0.456485 0.256882
Si Si6 0.500000 0.344710 0.750000
O O1 0.690645 0.575255 0.255764
O O2 0.707674 0.839475 0.149885
O O3 0.573730 0.743518 0.214200
O O4 0.634518 0.612221 0.019234
O O5 0.887943 0.172296 0.732134
O O6 0.984775 0.227228 0.557940
O O7 0.969451 0.960536 0.639030
O O8 0.111940 0.654528 0.067991
O O9 0.182660 0.583689 0.272203
O O10 0.229216 0.834560 0.137255
O O11 0.000000 0.592768 0.250000
O O12 0.000000 0.500000 0.000000
#
# Coordination Sequence:
#
# PCOD9276142 Si02
#       6
#     8   8   8   8   8   4
#     4  11  24  43  73  95 141 178 237 284 362 414
#     4  11  21  42  72  96 132 191 225 290 357 426
#     4  10  20  41  68  97 137 179 233 279 355 423
#     4  10  20  39  69 100 136 176 233 292 355 415
#     4  10  22  41  66  98 138 179 230 289 340 448
#     4  12  22  46  68 106 132 180 236 302 340 436
#
# _framework density 26.781827
#
# number of rings (size 3 to 8) (size 9 to 14) (size 15 to 20)
#    0.000    1.455    4.545    1.636    0.000    2.909 
#   13.091    0.909    4.000    0.000    0.000    0.000 
#    0.000    0.000    0.000    0.000    0.000    0.000 
#
# Total GULP energy -122565.882131 kJ/mol
# GULP energy per Si atom -5571.176461 kJ/mol
# Density = 2.672087 g / cm^3
# Si number density = 26.781827 Si / 1000 Ang^3
#
#
#
# Elastic Constant Matrix: (Units=GPa)
#
#
# Indices 1 2 3 4 5 6 
#
# 1 133.7869 49.9100 21.8793 0.0000 35.6498 0.0000
# 2 49.9100 144.1262 32.8594 0.0000 9.1462 0.0000
# 3 21.8793 32.8594 67.7133 0.0000 19.6442 0.0000
# 4 0.0000 0.0000 0.0000 43.9656 0.0000 14.8942
# 5 35.6498 9.1462 19.6442 0.0000 25.6470 0.0000
# 6 0.0000 0.0000 0.0000 14.8942 0.0000 9.9766
#
#
#
# Elastic Compliance Matrix: (Units=1/GPa)
#
#
# Indices 1 2 3 4 5 6 
#
# 1 0.014030 -0.004363 0.003587 0.000000 -0.020693 0.000000
# 2 -0.004363 0.009159 -0.004946 0.000000 0.006587 0.000000
# 3 0.003587 -0.004946 0.021785 0.000000 -0.019909 0.000000
# 4 0.000000 0.000000 0.000000 0.046020 0.000000 -0.068704
# 5 -0.020693 0.006587 -0.019909 0.000000 0.080655 0.000000
# 6 0.000000 0.000000 0.000000 -0.068704 0.000000 0.202805
#
#
# Mechanical properties :
#
#
# Convention : Reuss Voigt Hill
#
# Bulk Modulus (GPa) = 29.82361 61.65821 45.74091
# Shear Modulus (GPa) = 12.59218 31.98301 22.28760
#
# Velocity S-wave (km/s) = 2.17071 3.45948 2.88790
# Velocity P-wave (km/s) = 4.17643 6.24737 5.31377
#
# Compressibility (1/GPa) = 0.03353048
#
# Stress axis : x y z
#
# Youngs Moduli (GPa) = 71.27774 109.18425 45.90394
#
# Poissons Ratio (x) = 0.47638 -0.16467
# Poissons Ratio (y) = 0.31099 0.22702
# Poissons Ratio (z) = -0.25570 0.53998
#
# Static dielectric constant tensor:
#      x y z
#    x 2.296930 0.000000 -0.032910 
#    y 0.000000 2.017090 0.000000 
#    z -0.032910 0.000000 2.260680 
# 
# From -- ./inp_files/110093.got.cif
#   From: 2010.05.17/outbox.cif.g08.bks.cpg/sg15_56_cif.got.tgz:110093.got - 2010.06.03 18:47:42.
