data_PCOD9276869
_publ_section_title
;
Structure prediction by ZEFSAII (Michael W. Deem and Ramdas Pophale) SiO2 
 PCOD9276869
Probable space group: C 2/C
;
_chemical_formula_sum "Si O2"
_cell_formula_units_Z 52
_cell_length_a 18.302241
_cell_length_b 12.286806
_cell_length_c 19.193733
_cell_angle_alpha 90.000000
_cell_angle_beta 151.391154
_cell_angle_gamma 90.000000
_cell_volume 2066.720366
_symmetry_space_group_name_H-M "C 2/C"
_symmetry_group_IT_number 15
_symmetry_cell_setting 'monoclinic'
loop_
_space_group_symop_operation_xyz
x,y,z
-x,y,1/2-z
-x,-y,-z
x,-y,1/2+z
1/2+x,1/2+y,z
1/2-x,1/2+y,1/2-z
1/2-x,1/2-y,-z
1/2+x,1/2-y,1/2+z
loop_
_atom_site_type_symbol
_atom_site_label
_atom_site_fract_x
_atom_site_fract_y
_atom_site_fract_z
Si Si1 0.710726 0.148007 0.017696
Si Si2 0.000000 0.622095 0.250000
Si Si3 0.000000 0.988039 0.250000
Si Si4 0.385370 0.295498 0.063552
Si Si5 0.863741 0.793249 0.422029
Si Si6 0.383264 0.035544 0.746716
Si Si7 0.167564 0.267261 0.133709
Si Si8 0.500000 0.000000 0.000000
O O1 0.693763 0.189538 0.082871
O O2 0.750000 0.250000 0.000000
O O3 0.538728 0.104614 0.861049
O O4 0.849234 0.062247 0.132014
O O5 0.005707 0.696694 0.322673
O O6 0.132798 0.541611 0.334247
O O7 0.034834 0.905101 0.342867
O O8 0.335333 0.289310 0.942707
O O9 0.250000 0.250000 0.000000
O O10 0.767325 0.892458 0.371269
O O11 0.044864 0.796997 0.579214
O O12 0.821550 0.776905 0.306100
O O13 0.421293 0.988345 0.854737
O O14 0.100551 0.388762 0.071156
#
# Coordination Sequence:
#
# PCOD9276869 Si02
#       8
#     8   4   4   8   8   8   8   4
#     4  12  24  47  71 104 147 191 245 320 375 445
#     4  11  22  41  70  98 134 187 246 281 360 446
#     4  11  28  41  76 108 152 199 262 313 388 452
#     4  11  26  46  69 107 150 198 240 309 367 464
#     4  11  24  45  71 107 140 190 243 319 376 448
#     4  11  22  40  71  99 134 189 242 291 371 441
#     4  11  25  45  74 103 150 188 249 306 381 451
#     4  10  20  40  66 100 134 194 230 294 358 444
#
# _framework density 25.160637999999999
#
# number of rings (size 3 to 8) (size 9 to 14) (size 15 to 20)
#    0.000    0.923    4.615    2.769    4.308    1.231 
#    0.000    0.769    0.000    0.000    0.000    0.000 
#    0.000    0.000    0.000    0.000    0.000    0.000 
#
# Total GULP energy -144822.978236 kJ/mol
# GULP energy per Si atom -5570.114548 kJ/mol
# Density = 2.510337 g / cm^3
# Si number density = 25.160638 Si / 1000 Ang^3
#
#
#
# Elastic Constant Matrix: (Units=GPa)
#
#
# Indices 1 2 3 4 5 6 
#
# 1 95.3875 29.5897 18.9587 -0.0001 -8.2136 -0.0001
# 2 29.5897 77.8416 13.2549 -0.0005 -5.7480 -0.0003
# 3 18.9587 13.2549 76.1808 -0.0006 -2.1947 -0.0003
# 4 -0.0001 -0.0005 -0.0006 29.3107 -0.0002 -6.9825
# 5 -8.2136 -5.7480 -2.1947 -0.0002 56.3467 -0.0001
# 6 -0.0001 -0.0003 -0.0003 -6.9825 -0.0001 32.9353
#
#
#
# Elastic Compliance Matrix: (Units=1/GPa)
#
#
# Indices 1 2 3 4 5 6 
#
# 1 0.012358 -0.004210 -0.002306 0.000000 0.001282 0.000000
# 2 -0.004210 0.014764 -0.001497 0.000000 0.000834 0.000000
# 3 -0.002306 -0.001497 0.013963 0.000000 0.000055 0.000000
# 4 0.000000 0.000000 0.000000 0.035932 0.000000 0.007618
# 5 0.001282 0.000834 0.000055 0.000000 0.018021 0.000000
# 6 0.000000 0.000000 0.000000 0.007618 0.000000 0.031978
#
#
# Mechanical properties :
#
#
# Convention : Reuss Voigt Hill
#
# Bulk Modulus (GPa) = 39.90767 41.44627 40.67697
# Shear Modulus (GPa) = 33.02622 36.22565 34.62594
#
# Velocity S-wave (km/s) = 3.62693 3.79855 3.71373
# Velocity P-wave (km/s) = 5.78231 5.97889 5.88142
#
# Compressibility (1/GPa) = 0.02505784
#
# Stress axis : x y z
#
# Youngs Moduli (GPa) = 80.91667 67.73428 71.61999
#
# Poissons Ratio (x) = 0.28519 0.16516
# Poissons Ratio (y) = 0.34069 0.10721
# Poissons Ratio (z) = 0.18660 0.10139
#
# Static dielectric constant tensor:
#      x y z
#    x 2.037930 0.000000 0.104850 
#    y 0.000000 2.099660 0.000000 
#    z 0.104850 0.000000 2.302310 
# 
# From -- ./inp_files/252777.got.cif
#   From: 2010.05.17/outbox.cif.g08.bks.cpg/sg15_127_cif.got.tgz:252777.got - 2010.06.03 18:47:42.
