data_PCOD9276108
_publ_section_title
;
Structure prediction by ZEFSAII (Michael W. Deem and Ramdas Pophale) SiO2 
 PCOD9276108
Probable space group: C 2/C
;
_chemical_formula_sum "Si O2"
_cell_formula_units_Z 56
_cell_length_a 20.804126
_cell_length_b 8.876310
_cell_length_c 15.684643
_cell_angle_alpha 90.000000
_cell_angle_beta 123.823220
_cell_angle_gamma 90.000000
_cell_volume 2406.199352
_symmetry_space_group_name_H-M "C 2/C"
_symmetry_group_IT_number 15
_symmetry_cell_setting 'monoclinic'
loop_
_space_group_symop_operation_xyz
x,y,z
-x,y,1/2-z
-x,-y,-z
x,-y,1/2+z
1/2+x,1/2+y,z
1/2-x,1/2+y,1/2-z
1/2-x,1/2-y,-z
1/2+x,1/2-y,1/2+z
loop_
_atom_site_type_symbol
_atom_site_label
_atom_site_fract_x
_atom_site_fract_y
_atom_site_fract_z
Si Si1 0.362060 0.856234 0.307692
Si Si2 0.867773 0.143779 0.036433
Si Si3 0.480390 0.830042 0.007329
Si Si4 0.282821 0.960731 0.607930
Si Si5 0.001229 0.929650 0.095748
Si Si6 0.289313 0.130802 0.932084
Si Si7 0.353723 0.417125 0.708618
O O1 0.450713 0.800465 0.373724
O O2 0.340317 0.899857 0.387268
O O3 0.320287 0.699125 0.253097
O O4 0.338465 0.986807 0.225056
O O5 0.904281 0.264780 0.998254
O O6 0.870945 0.185616 0.138213
O O7 0.921840 0.993250 0.074651
O O8 0.781764 0.092290 0.948772
O O9 0.491147 0.743035 0.925274
O O10 0.500000 0.000000 0.000000
O O11 0.323696 0.925584 0.547433
O O12 0.235105 0.805960 0.586863
O O13 0.073031 0.990480 0.202500
O O14 0.000000 0.000000 0.000000
O O15 0.210748 0.036292 0.864711
#
# Coordination Sequence:
#
# PCOD9276108 Si02
#       7
#     8   8   8   8   8   8   8
#     4  12  24  40  68  98 139 183 234 299 371 424
#     4  10  22  44  70  95 139 184 244 291 351 451
#     4  11  26  41  66 103 142 186 236 300 365 432
#     4  10  24  43  67  99 141 186 233 302 356 426
#     4  10  20  39  68  92 131 175 235 283 349 429
#     4  10  24  42  65 101 135 179 243 289 355 440
#     4  11  23  41  70  99 130 192 234 289 367 426
#
# _framework density 23.273216999999999
#
# number of rings (size 3 to 8) (size 9 to 14) (size 15 to 20)
#    0.000    1.429    2.857    2.143    8.000    4.571 
#    0.000    0.000    3.143    0.000    0.000    0.000 
#    0.000    0.000    0.000    0.000    0.000    0.000 
#
# Total GULP energy -156349.945592 kJ/mol
# GULP energy per Si atom -5583.926628 kJ/mol
# Density = 2.322025 g / cm^3
# Si number density = 23.273217 Si / 1000 Ang^3
#
#
#
# Elastic Constant Matrix: (Units=GPa)
#
#
# Indices 1 2 3 4 5 6 
#
# 1 72.4204 19.8361 32.8528 0.0000 -22.2891 0.0000
# 2 19.8361 127.6447 27.5841 0.0000 -12.3171 0.0000
# 3 32.8528 27.5841 93.7421 0.0000 -16.8156 0.0000
# 4 0.0000 0.0000 0.0000 37.4124 0.0000 -5.0796
# 5 -22.2891 -12.3171 -16.8156 0.0000 35.3506 0.0000
# 6 0.0000 0.0000 0.0000 -5.0796 0.0000 26.2351
#
#
#
# Elastic Compliance Matrix: (Units=1/GPa)
#
#
# Indices 1 2 3 4 5 6 
#
# 1 0.019142 -0.001045 -0.004703 0.000000 0.009468 0.000000
# 2 -0.001045 0.008542 -0.001893 0.000000 0.001417 0.000000
# 3 -0.004703 -0.001893 0.013363 0.000000 0.002732 0.000000
# 4 0.000000 0.000000 0.000000 0.027451 0.000000 0.005315
# 5 0.009468 0.001417 0.002732 0.000000 0.036051 0.000000
# 6 0.000000 0.000000 0.000000 0.005315 0.000000 0.039146
#
#
# Mechanical properties :
#
#
# Convention : Reuss Voigt Hill
#
# Bulk Modulus (GPa) = 38.81131 50.48368 44.64749
# Shear Modulus (GPa) = 29.83923 34.03523 31.93723
#
# Velocity S-wave (km/s) = 3.58457 3.82831 3.70844
# Velocity P-wave (km/s) = 5.81762 6.42496 6.12882
#
# Compressibility (1/GPa) = 0.02576569
#
# Stress axis : x y z
#
# Youngs Moduli (GPa) = 52.24184 117.06180 74.83492
#
# Poissons Ratio (x) = 0.12231 0.35191
# Poissons Ratio (y) = 0.05458 0.14169
# Poissons Ratio (z) = 0.24567 0.22164
#
# Static dielectric constant tensor:
#      x y z
#    x 1.922780 0.000000 -0.025440 
#    y 0.000000 2.000420 0.000000 
#    z -0.025440 0.000000 1.987680 
# 
# From -- ./inp_files/172464.got.cif
#   From: 2010.05.17/outbox.cif.g08.bks.cpg/sg15_87_cif.got.tgz:172464.got - 2010.06.03 18:47:42.
