data_PCOD9276848
_publ_section_title
;
Structure prediction by ZEFSAII (Michael W. Deem and Ramdas Pophale) SiO2 
 PCOD9276848
Probable space group: C 2/C
;
_chemical_formula_sum "Si O2"
_cell_formula_units_Z 48
_cell_length_a 16.204621
_cell_length_b 29.472071
_cell_length_c 9.967737
_cell_angle_alpha 90.000000
_cell_angle_beta 32.527637
_cell_angle_gamma 90.000000
_cell_volume 2559.713021
_symmetry_space_group_name_H-M "C 2/C"
_symmetry_group_IT_number 15
_symmetry_cell_setting 'monoclinic'
loop_
_space_group_symop_operation_xyz
x,y,z
-x,y,1/2-z
-x,-y,-z
x,-y,1/2+z
1/2+x,1/2+y,z
1/2-x,1/2+y,1/2-z
1/2-x,1/2-y,-z
1/2+x,1/2-y,1/2+z
loop_
_atom_site_type_symbol
_atom_site_label
_atom_site_fract_x
_atom_site_fract_y
_atom_site_fract_z
Si Si1 0.318550 0.368701 0.657179
Si Si2 0.599494 0.948970 0.980406
Si Si3 0.882016 0.448197 0.034447
Si Si4 0.819037 0.276609 0.531763
Si Si5 0.317963 0.627039 0.832882
Si Si6 0.319818 0.222814 0.527293
O O1 0.499851 0.368301 0.436248
O O2 0.295541 0.370086 0.525992
O O3 0.237861 0.414773 0.812746
O O4 0.241725 0.326482 0.840711
O O5 0.500000 0.950941 0.250000
O O6 0.660566 0.999977 0.868066
O O7 0.484848 0.931987 0.019559
O O8 0.000000 0.450758 0.750000
O O9 0.748724 0.416166 0.157420
O O10 0.750000 0.250000 0.500000
O O11 0.756384 0.246397 0.740389
O O12 0.000000 0.279351 0.250000
O O13 0.228350 0.670643 0.902164
O O14 0.250000 0.250000 0.500000
O O15 0.500000 0.226177 0.250000
#
# Coordination Sequence:
#
# PCOD9276848 Si02
#       6
#     8   8   8   8   8   8
#     4  11  23  41  63  94 130 170 213 270 321 382
#     4  10  22  39  65  93 130 164 207 270 331 385
#     4  10  20  40  65  95 123 167 219 261 319 393
#     4  12  26  43  64  94 133 168 210 270 332 377
#     4  11  23  39  67  94 125 169 225 264 311 384
#     4  12  24  42  67  94 126 171 220 266 314 389
#
# _framework density 18.752101
#
# number of rings (size 3 to 8) (size 9 to 14) (size 15 to 20)
#    0.000    1.000    3.333    4.000    0.000    2.000 
#    0.000    2.500    0.000    0.000    0.000    0.000 
#    0.000    0.000    0.000    0.000    0.000    0.000 
#
# Total GULP energy -133790.622774 kJ/mol
# GULP energy per Si atom -5574.609282 kJ/mol
# Density = 1.870942 g / cm^3
# Si number density = 18.752101 Si / 1000 Ang^3
#
#
#
# Elastic Constant Matrix: (Units=GPa)
#
#
# Indices 1 2 3 4 5 6 
#
# 1 125.0329 53.3517 67.0501 -0.0001 -5.0995 0.0000
# 2 53.3517 111.8163 62.9994 0.0000 -26.2792 0.0000
# 3 67.0501 62.9994 146.1778 0.0000 -19.5124 0.0000
# 4 -0.0001 0.0000 0.0000 -470.9393 0.0001 43.9132
# 5 -5.0995 -26.2792 -19.5124 0.0001 43.6918 0.0000
# 6 0.0000 0.0000 0.0000 43.9132 0.0000 28.7150
#
#
#
# Elastic Compliance Matrix: (Units=1/GPa)
#
#
# Indices 1 2 3 4 5 6 
#
# 1 0.011759 -0.003996 -0.004051 0.000000 -0.002840 0.000000
# 2 -0.003996 0.014363 -0.003473 0.000000 0.006621 0.000000
# 3 -0.004051 -0.003473 0.010479 0.000000 0.002118 0.000000
# 4 0.000000 0.000000 0.000000 -0.001858 0.000000 0.002842
# 5 -0.002840 0.006621 0.002118 0.000000 0.027484 0.000000
# 6 0.000000 0.000000 0.000000 0.002842 0.000000 0.030479
#
#
# Mechanical properties :
#
#
# Convention : Reuss Voigt Hill
#
# Bulk Modulus (GPa) = 73.74255 83.31440 78.52848
# Shear Modulus (GPa) = 41.57430 -66.39812 -12.41191
#
# Velocity S-wave (km/s) = 4.71366 -5.95695 -2.57552
# Velocity P-wave (km/s) = 8.30874 1.66968 5.75532
#
# Compressibility (1/GPa) = 0.01356069
#
# Stress axis : x y z
#
# Youngs Moduli (GPa) = 85.03784 69.62338 95.43177
#
# Poissons Ratio (x) = 0.27822 0.38658
# Poissons Ratio (y) = 0.33981 0.33147
# Poissons Ratio (z) = 0.34447 0.24183
#
# Static dielectric constant tensor:
#      x y z
#    x 1.652260 0.000000 0.022770 
#    y 0.000000 1.689150 0.000000 
#    z 0.022770 0.000000 1.586470 
# 
# From -- ./inp_files/43822.got.cif
#   From: 2010.05.17/outbox.cif.g08.bks.cpg/sg15_22_cif.got.tgz:43822.got - 2010.06.03 18:47:42.
