data_PCOD9276382
_publ_section_title
;
Structure prediction by ZEFSAII (Michael W. Deem and Ramdas Pophale) SiO2 
 PCOD9276382
Probable space group: C 2/C
;
_chemical_formula_sum "Si O2"
_cell_formula_units_Z 48
_cell_length_a 21.184546
_cell_length_b 6.402752
_cell_length_c 18.974764
_cell_angle_alpha 90.000000
_cell_angle_beta 106.010577
_cell_angle_gamma 90.000000
_cell_volume 2473.892732
_symmetry_space_group_name_H-M "C 2/C"
_symmetry_group_IT_number 15
_symmetry_cell_setting 'monoclinic'
loop_
_space_group_symop_operation_xyz
x,y,z
-x,y,1/2-z
-x,-y,-z
x,-y,1/2+z
1/2+x,1/2+y,z
1/2-x,1/2+y,1/2-z
1/2-x,1/2-y,-z
1/2+x,1/2-y,1/2+z
loop_
_atom_site_type_symbol
_atom_site_label
_atom_site_fract_x
_atom_site_fract_y
_atom_site_fract_z
Si Si1 0.080337 0.737696 0.149803
Si Si2 0.113143 0.746827 0.316443
Si Si3 0.784074 0.555187 0.050880
Si Si4 0.449079 0.490198 0.585515
Si Si5 0.506797 0.107477 0.825021
Si Si6 0.342773 0.284808 0.465872
O O1 0.109133 0.815388 0.233840
O O2 0.131929 0.724376 0.103246
O O3 0.056259 0.508467 0.164656
O O4 0.014735 0.866291 0.104089
O O5 0.178333 0.646573 0.369527
O O6 0.057575 0.572051 0.316786
O O7 0.092969 0.935579 0.360573
O O8 0.727268 0.397192 0.056684
O O9 0.750000 0.750000 0.000000
O O10 0.832396 0.416690 0.014710
O O11 0.470763 0.255846 0.606807
O O12 0.395995 0.460082 0.507814
O O13 0.500000 0.234738 0.750000
#
# Coordination Sequence:
#
# PCOD9276382 Si02
#       6
#     8   8   8   8   8   8
#     4  10  23  38  59  97 123 143 197 258 300 347
#     4  10  20  40  61  86 119 158 201 238 293 359
#     4  11  23  44  63  77 118 170 205 240 286 361
#     4  11  19  37  65  88 123 158 190 239 305 364
#     4   9  18  34  59  87 119 154 189 239 300 352
#     4  11  24  40  61  91 118 157 208 241 297 354
#
# _framework density 19.402621
#
# number of rings (size 3 to 8) (size 9 to 14) (size 15 to 20)
#    0.000    1.667    3.333    3.000    0.000    2.000 
#    3.000    0.000    0.000    0.000    0.000    0.000 
#    0.000    0.000    0.000    0.000    0.000    0.000 
#
# Total GULP energy -133612.922860 kJ/mol
# GULP energy per Si atom -5567.205119 kJ/mol
# Density = 1.935846 g / cm^3
# Si number density = 19.402621 Si / 1000 Ang^3
#
#
#
# Elastic Constant Matrix: (Units=GPa)
#
#
# Indices 1 2 3 4 5 6 
#
# 1 91.6246 19.5771 60.1341 0.0000 -17.5135 0.0000
# 2 19.5771 38.9108 6.7908 0.0000 -5.9694 0.0000
# 3 60.1341 6.7908 80.9717 0.0000 -6.2528 0.0000
# 4 0.0000 0.0000 0.0000 25.7687 0.0000 12.2694
# 5 -17.5135 -5.9694 -6.2528 0.0000 36.0693 0.0000
# 6 0.0000 0.0000 0.0000 12.2694 0.0000 20.9439
#
#
#
# Elastic Compliance Matrix: (Units=1/GPa)
#
#
# Indices 1 2 3 4 5 6 
#
# 1 0.026245 -0.008792 -0.018125 0.000000 0.008146 0.000000
# 2 -0.008792 0.029606 0.004151 0.000000 0.001350 0.000000
# 3 -0.018125 0.004151 0.025173 0.000000 -0.003750 0.000000
# 4 0.000000 0.000000 0.000000 0.053819 0.000000 -0.031528
# 5 0.008146 0.001350 -0.003750 0.000000 0.031253 0.000000
# 6 0.000000 0.000000 0.000000 -0.031528 0.000000 0.066217
#
#
# Mechanical properties :
#
#
# Convention : Reuss Voigt Hill
#
# Bulk Modulus (GPa) = 28.17525 42.72346 35.44936
# Shear Modulus (GPa) = 17.26073 24.89005 21.07539
#
# Velocity S-wave (km/s) = 2.98587 3.58553 3.29935
# Velocity P-wave (km/s) = 5.14199 6.26168 5.72925
#
# Compressibility (1/GPa) = 0.03549214
#
# Stress axis : x y z
#
# Youngs Moduli (GPa) = 38.10227 33.77701 39.72546
#
# Poissons Ratio (x) = 0.29696 0.72001
# Poissons Ratio (y) = 0.33498 -0.16488
# Poissons Ratio (z) = 0.69059 -0.14019
#
# Static dielectric constant tensor:
#      x y z
#    x 1.679890 0.000000 0.051460 
#    y 0.000000 1.701890 0.000000 
#    z 0.051460 0.000000 1.778610 
# 
# From -- ./inp_files/217815.got.cif
#   From: 2010.05.17/outbox.cif.g08.bks.cpg/sg15_109_cif.got.tgz:217815.got - 2010.06.03 18:47:42.
