data_PCOD9276488
_publ_section_title
;
Structure prediction by ZEFSAII (Michael W. Deem and Ramdas Pophale) SiO2 
 PCOD9276488
Probable space group: C 2/C
;
_chemical_formula_sum "Si O2"
_cell_formula_units_Z 44
_cell_length_a 12.001303
_cell_length_b 25.044397
_cell_length_c 8.851653
_cell_angle_alpha 90.000000
_cell_angle_beta 122.700020
_cell_angle_gamma 90.000000
_cell_volume 2238.839436
_symmetry_space_group_name_H-M "C 2/C"
_symmetry_group_IT_number 15
_symmetry_cell_setting 'monoclinic'
loop_
_space_group_symop_operation_xyz
x,y,z
-x,y,1/2-z
-x,-y,-z
x,-y,1/2+z
1/2+x,1/2+y,z
1/2-x,1/2+y,1/2-z
1/2-x,1/2-y,-z
1/2+x,1/2-y,1/2+z
loop_
_atom_site_type_symbol
_atom_site_label
_atom_site_fract_x
_atom_site_fract_y
_atom_site_fract_z
Si Si1 0.601933 0.255939 0.957050
Si Si2 0.500000 0.467373 0.750000
Si Si3 0.945125 0.667733 0.040007
Si Si4 0.554279 0.947008 0.121692
Si Si5 0.360438 0.555650 0.851421
Si Si6 0.366361 0.671619 0.738237
O O1 0.500000 0.268958 0.750000
O O2 0.750000 0.250000 0.000000
O O3 0.533890 0.206073 0.997115
O O4 0.617297 0.302911 0.086951
O O5 0.416022 0.506477 0.795902
O O6 0.420494 0.435868 0.563010
O O7 0.000000 0.670878 0.250000
O O8 0.960326 0.607266 0.987127
O O9 0.786608 0.682834 0.925273
O O10 0.500000 0.938753 0.250000
O O11 0.708145 0.956029 0.259422
O O12 0.500000 0.000000 0.000000
O O13 0.376107 0.608222 0.762909
O O14 0.500000 0.690448 0.750000
#
# Coordination Sequence:
#
# PCOD9276488 Si02
#       6
#     8   4   8   8   8   8
#     4  12  26  46  70 100 131 172 222 282 338 397
#     4  10  20  40  62  90 132 168 210 264 322 384
#     4  11  26  46  69  98 137 180 225 279 336 405
#     4  11  23  42  67  98 132 174 221 273 332 397
#     4  10  22  40  62  94 128 169 213 265 324 389
#     4  11  25  45  67  97 136 173 225 270 334 406
#
# _framework density 19.653040000000001
#
# number of rings (size 3 to 8) (size 9 to 14) (size 15 to 20)
#    0.000    1.091    2.727    2.727    6.364    2.909 
#    3.273    0.000    0.000    0.000    0.000    0.000 
#    0.000    0.000    0.000    0.000    0.000    0.000 
#
# Total GULP energy -122683.051465 kJ/mol
# GULP energy per Si atom -5576.502339 kJ/mol
# Density = 1.960831 g / cm^3
# Si number density = 19.653040 Si / 1000 Ang^3
#
#
#
# Elastic Constant Matrix: (Units=GPa)
#
#
# Indices 1 2 3 4 5 6 
#
# 1 175.7422 23.3529 71.1724 0.0000 13.2055 0.0000
# 2 23.3529 42.0784 7.7664 0.0000 15.6847 0.0000
# 3 71.1724 7.7664 154.7292 0.0000 15.3366 0.0000
# 4 0.0000 0.0000 0.0000 32.7704 0.0000 5.1803
# 5 13.2055 15.6847 15.3366 0.0000 35.7519 0.0000
# 6 0.0000 0.0000 0.0000 5.1803 0.0000 18.6101
#
#
#
# Elastic Compliance Matrix: (Units=1/GPa)
#
#
# Indices 1 2 3 4 5 6 
#
# 1 0.007486 -0.003638 -0.003284 0.000000 0.000240 0.000000
# 2 -0.003638 0.030185 0.001397 0.000000 -0.012498 0.000000
# 3 -0.003284 0.001397 0.008192 0.000000 -0.002914 0.000000
# 4 0.000000 0.000000 0.000000 0.031920 0.000000 -0.008885
# 5 0.000240 -0.012498 -0.002914 0.000000 0.034615 0.000000
# 6 0.000000 0.000000 0.000000 -0.008885 0.000000 0.056208
#
#
# Mechanical properties :
#
#
# Convention : Reuss Voigt Hill
#
# Bulk Modulus (GPa) = 28.72521 64.12592 46.42557
# Shear Modulus (GPa) = 26.14245 35.44368 30.79307
#
# Velocity S-wave (km/s) = 3.65115 4.25134 3.96262
# Velocity P-wave (km/s) = 5.69407 7.53647 6.67910
#
# Compressibility (1/GPa) = 0.03481263
#
# Stress axis : x y z
#
# Youngs Moduli (GPa) = 133.58910 33.12924 122.06432
#
# Poissons Ratio (x) = 0.12051 0.40091
# Poissons Ratio (y) = 0.48595 -0.17052
# Poissons Ratio (z) = 0.43877 -0.04628
#
# Static dielectric constant tensor:
#      x y z
#    x 1.745460 0.000000 0.025180 
#    y 0.000000 1.718510 0.000000 
#    z 0.025180 0.000000 1.658490 
# 
# From -- ./inp_files/32761.got.cif
#   From: 2010.05.17/outbox.cif.g08.bks.cpg/sg15_17_cif.got.tgz:32761.got - 2010.06.03 18:47:42.
