data_PCOD9276036
_publ_section_title
;
Structure prediction by ZEFSAII (Michael W. Deem and Ramdas Pophale) SiO2 
 PCOD9276036
Probable space group: C 2/C
;
_chemical_formula_sum "Si O2"
_cell_formula_units_Z 60
_cell_length_a 15.273864
_cell_length_b 22.144643
_cell_length_c 9.159182
_cell_angle_alpha 90.000000
_cell_angle_beta 75.129630
_cell_angle_gamma 90.000000
_cell_volume 2994.195545
_symmetry_space_group_name_H-M "C 2/C"
_symmetry_group_IT_number 15
_symmetry_cell_setting 'monoclinic'
loop_
_space_group_symop_operation_xyz
x,y,z
-x,y,1/2-z
-x,-y,-z
x,-y,1/2+z
1/2+x,1/2+y,z
1/2-x,1/2+y,1/2-z
1/2-x,1/2-y,-z
1/2+x,1/2-y,1/2+z
loop_
_atom_site_type_symbol
_atom_site_label
_atom_site_fract_x
_atom_site_fract_y
_atom_site_fract_z
Si Si1 0.408381 0.700327 0.194341
Si Si2 0.382077 0.947666 0.066229
Si Si3 0.380459 0.574234 0.524061
Si Si4 0.816259 0.019257 0.842745
Si Si5 0.263382 0.677918 0.476563
Si Si6 0.000000 0.522995 0.250000
Si Si7 0.896478 0.341842 0.263110
Si Si8 0.556079 0.619216 0.581857
O O1 0.500000 0.685089 0.250000
O O2 0.316580 0.672287 0.301715
O O3 0.397949 0.772281 0.212610
O O4 0.418920 0.675641 0.027978
O O5 0.289545 0.983164 0.078098
O O6 0.438721 0.983048 0.166559
O O7 0.359370 0.883993 0.151033
O O8 0.437291 0.941496 0.892178
O O9 0.333256 0.532474 0.665840
O O10 0.363536 0.541312 0.378822
O O11 0.333474 0.640405 0.548670
O O12 0.485087 0.580201 0.517537
O O13 0.862608 0.076171 0.904095
O O14 0.250000 0.750000 0.500000
O O15 0.166072 0.651738 0.565714
O O16 0.000000 0.358694 0.250000
O O17 0.500000 0.636883 0.750000
#
# Coordination Sequence:
#
# PCOD9276036 Si02
#       8
#     8   8   8   8   8   4   8   8
#     4  10  20  39  67  92 117 166 216 255 307 375
#     4  11  21  43  60  89 123 161 211 261 320 371
#     4  11  22  40  63  92 129 164 205 257 310 378
#     4  11  24  37  63  91 127 164 206 251 314 376
#     4  10  21  38  66  94 118 158 216 266 305 369
#     4  10  24  38  64  84 124 166 202 264 326 378
#     4  10  21  39  65  92 119 159 212 271 308 367
#     4  10  23  42  60  90 133 169 198 255 316 377
#
# _framework density 20.038772999999999
#
# number of rings (size 3 to 8) (size 9 to 14) (size 15 to 20)
#    0.000    1.600    3.333    1.200    1.867    0.000 
#    3.600    0.667    0.000    0.000    0.000    0.000 
#    0.000    0.000    0.000    0.000    0.000    0.000 
#
# Total GULP energy -167312.145192 kJ/mol
# GULP energy per Si atom -5577.071506 kJ/mol
# Density = 1.999316 g / cm^3
# Si number density = 20.038773 Si / 1000 Ang^3
#
#
#
# Elastic Constant Matrix: (Units=GPa)
#
#
# Indices 1 2 3 4 5 6 
#
# 1 74.9142 -0.5368 30.8125 0.0000 -10.0559 0.0000
# 2 -0.5368 50.8392 43.1316 0.0000 5.8669 0.0000
# 3 30.8125 43.1316 106.6036 0.0000 -12.6322 0.0000
# 4 0.0000 0.0000 0.0000 13.8956 0.0000 3.4524
# 5 -10.0559 5.8669 -12.6322 0.0000 31.0580 0.0000
# 6 0.0000 0.0000 0.0000 3.4524 0.0000 15.0447
#
#
#
# Elastic Compliance Matrix: (Units=1/GPa)
#
#
# Indices 1 2 3 4 5 6 
#
# 1 0.016456 0.005965 -0.007010 0.000000 0.001350 0.000000
# 2 0.005965 0.036279 -0.017846 0.000000 -0.012180 0.000000
# 3 -0.007010 -0.017846 0.019707 0.000000 0.009117 0.000000
# 4 0.000000 0.000000 0.000000 0.076316 0.000000 -0.017513
# 5 0.001350 -0.012180 0.009117 0.000000 0.038644 0.000000
# 6 0.000000 0.000000 0.000000 -0.017513 0.000000 0.070487
#
#
# Mechanical properties :
#
#
# Convention : Reuss Voigt Hill
#
# Bulk Modulus (GPa) = 28.85112 42.13019 35.49065
# Shear Modulus (GPa) = 16.27479 22.59630 19.43555
#
# Velocity S-wave (km/s) = 2.85294 3.36166 3.11770
# Velocity P-wave (km/s) = 5.02805 6.01146 5.54161
#
# Compressibility (1/GPa) = 0.03466070
#
# Stress axis : x y z
#
# Youngs Moduli (GPa) = 60.76911 27.56452 50.74265
#
# Poissons Ratio (x) = -0.16442 0.35569
# Poissons Ratio (y) = -0.36249 0.90553
# Poissons Ratio (z) = 0.42598 0.49191
#
# Static dielectric constant tensor:
#      x y z
#    x 1.729320 0.000000 -0.017610 
#    y 0.000000 1.717370 0.000000 
#    z -0.017610 0.000000 1.713210 
# 
# From -- ./inp_files/42617.got.cif
#   From: 2010.05.17/outbox.cif.g08.bks.cpg/sg15_22_cif.got.tgz:42617.got - 2010.06.03 18:47:42.
