data_PCOD9276474
_publ_section_title
;
Structure prediction by ZEFSAII (Michael W. Deem and Ramdas Pophale) SiO2 
 PCOD9276474
Probable space group: C 2/C
;
_chemical_formula_sum "Si O2"
_cell_formula_units_Z 60
_cell_length_a 15.831639
_cell_length_b 7.972760
_cell_length_c 22.968085
_cell_angle_alpha 90.000000
_cell_angle_beta 89.624697
_cell_angle_gamma 90.000000
_cell_volume 2899.012173
_symmetry_space_group_name_H-M "C 2/C"
_symmetry_group_IT_number 15
_symmetry_cell_setting 'monoclinic'
loop_
_space_group_symop_operation_xyz
x,y,z
-x,y,1/2-z
-x,-y,-z
x,-y,1/2+z
1/2+x,1/2+y,z
1/2-x,1/2+y,1/2-z
1/2-x,1/2-y,-z
1/2+x,1/2-y,1/2+z
loop_
_atom_site_type_symbol
_atom_site_label
_atom_site_fract_x
_atom_site_fract_y
_atom_site_fract_z
Si Si1 0.774224 0.498991 0.328840
Si Si2 0.666497 0.217409 0.576191
Si Si3 0.581754 0.407745 0.678285
Si Si4 0.000000 0.382824 0.250000
Si Si5 0.606567 0.060147 0.857957
Si Si6 0.413154 0.444755 0.621655
Si Si7 0.773335 0.854940 0.285345
Si Si8 0.367774 0.761908 0.554116
O O1 0.831161 0.445634 0.382647
O O2 0.678617 0.531019 0.349834
O O3 0.803723 0.669619 0.299915
O O4 0.764729 0.360298 0.279066
O O5 0.622681 0.357338 0.616109
O O6 0.623053 0.199607 0.514168
O O7 0.766180 0.253237 0.565870
O O8 0.562805 0.243897 0.716542
O O9 0.490784 0.487109 0.663827
O O10 0.647390 0.523502 0.710799
O O11 0.951374 0.474956 0.198437
O O12 0.580309 0.241619 0.886080
O O13 0.701022 0.086168 0.831256
O O14 0.601215 0.910176 0.903883
O O15 0.409424 0.581882 0.569998
#
# Coordination Sequence:
#
# PCOD9276474 Si02
#       8
#     8   8   8   4   8   8   8   8
#     4  10  21  37  59  89 119 155 202 253 302 363
#     4  10  21  40  63  88 120 159 209 254 296 357
#     4  11  20  40  61  88 123 158 196 252 309 363
#     4  10  22  40  62  86 130 158 190 250 316 356
#     4  10  20  40  62  89 119 162 197 248 303 358
#     4   9  22  40  58  86 125 156 198 246 311 355
#     4  11  20  35  62  89 118 155 204 245 307 365
#     4  10  21  42  64  88 122 163 207 254 293 362
#
# _framework density 20.696705000000001
#
# number of rings (size 3 to 8) (size 9 to 14) (size 15 to 20)
#    0.000    1.867    1.333    4.000    1.867    0.533 
#    9.600    6.000    0.000    0.000    0.000    0.000 
#    0.000    0.000    0.000    0.000    0.000    0.000 
#
# Total GULP energy -167464.161305 kJ/mol
# GULP energy per Si atom -5582.138710 kJ/mol
# Density = 2.064960 g / cm^3
# Si number density = 20.696705 Si / 1000 Ang^3
#
#
#
# Elastic Constant Matrix: (Units=GPa)
#
#
# Indices 1 2 3 4 5 6 
#
# 1 49.4399 1.6843 4.5105 0.0000 21.6292 0.0000
# 2 1.6843 69.9770 58.3709 0.0000 16.5385 0.0000
# 3 4.5105 58.3709 152.8475 0.0000 24.7835 0.0000
# 4 0.0000 0.0000 0.0000 27.1434 0.0000 11.6375
# 5 21.6292 16.5385 24.7835 0.0000 31.0253 0.0000
# 6 0.0000 0.0000 0.0000 11.6375 0.0000 25.0046
#
#
#
# Elastic Compliance Matrix: (Units=1/GPa)
#
#
# Indices 1 2 3 4 5 6 
#
# 1 0.030795 0.003703 0.001698 0.000000 -0.024799 0.000000
# 2 0.003703 0.022264 -0.007201 0.000000 -0.008697 0.000000
# 3 0.001698 -0.007201 0.010123 0.000000 -0.005431 0.000000
# 4 0.000000 0.000000 0.000000 0.046025 0.000000 -0.021421
# 5 -0.024799 -0.008697 -0.005431 0.000000 0.058495 0.000000
# 6 0.000000 0.000000 0.000000 -0.021421 0.000000 0.049962
#
#
# Mechanical properties :
#
#
# Convention : Reuss Voigt Hill
#
# Bulk Modulus (GPa) = 16.78369 44.59955 30.69162
# Shear Modulus (GPa) = 20.73615 30.48124 25.60869
#
# Velocity S-wave (km/s) = 3.16872 3.84182 3.52139
# Velocity P-wave (km/s) = 4.63839 6.42458 5.60312
#
# Compressibility (1/GPa) = 0.05958166
#
# Stress axis : x y z
#
# Youngs Moduli (GPa) = 32.47322 44.91593 98.78308
#
# Poissons Ratio (x) = -0.16634 -0.16773
# Poissons Ratio (y) = -0.12026 0.71138
# Poissons Ratio (z) = -0.05514 0.32346
#
# Static dielectric constant tensor:
#      x y z
#    x 1.776960 0.000000 -0.023330 
#    y 0.000000 1.759050 0.000000 
#    z -0.023330 0.000000 1.734870 
# 
# From -- ./inp_files/247512.got.cif
#   From: 2010.05.17/outbox.cif.g08.bks.cpg/sg15_124_cif.got.tgz:247512.got - 2010.06.03 18:47:42.
