data_PCOD9276650
_publ_section_title
;
Structure prediction by ZEFSAII (Michael W. Deem and Ramdas Pophale) SiO2 
 PCOD9276650
Probable space group: C 2/C
;
_chemical_formula_sum "Si O2"
_cell_formula_units_Z 36
_cell_length_a 12.221584
_cell_length_b 10.267616
_cell_length_c 16.833268
_cell_angle_alpha 90.000000
_cell_angle_beta 135.167429
_cell_angle_gamma 90.000000
_cell_volume 1489.284774
_symmetry_space_group_name_H-M "C 2/C"
_symmetry_group_IT_number 15
_symmetry_cell_setting 'monoclinic'
loop_
_space_group_symop_operation_xyz
x,y,z
-x,y,1/2-z
-x,-y,-z
x,-y,1/2+z
1/2+x,1/2+y,z
1/2-x,1/2+y,1/2-z
1/2-x,1/2-y,-z
1/2+x,1/2-y,1/2+z
loop_
_atom_site_type_symbol
_atom_site_label
_atom_site_fract_x
_atom_site_fract_y
_atom_site_fract_z
Si Si1 0.000000 0.168886 0.250000
Si Si2 0.587932 0.308581 0.212123
Si Si3 0.406950 0.532991 0.058123
Si Si4 0.065881 0.456545 0.872897
Si Si5 0.938355 0.710710 0.876962
O O1 0.115019 0.085216 0.362791
O O2 0.090407 0.249892 0.230911
O O3 0.500000 0.325710 0.250000
O O4 0.550169 0.433804 0.138814
O O5 0.511263 0.177494 0.137399
O O6 0.768535 0.295719 0.324981
O O7 0.457199 0.666945 0.040463
O O8 0.250936 0.460121 0.956000
O O9 0.000000 0.477669 0.750000
O O10 0.021600 0.573070 0.909870
#
# Coordination Sequence:
#
# PCOD9276650 Si02
#       5
#     4   8   8   8   8
#     4   8  20  38  66  80 118 154 210 230 296 352
#     4  11  22  39  60  90 127 154 197 250 303 354
#     4  10  20  41  63  87 121 160 199 243 299 361
#     4  11  22  38  62  91 123 154 202 249 297 349
#     4  10  20  40  64  87 120 157 203 245 296 358
#
# _framework density 24.172677
#
# number of rings (size 3 to 8) (size 9 to 14) (size 15 to 20)
#    1.333    0.444    2.222    2.667    0.000    0.000 
#    0.000   21.111    0.000    0.000    0.000    0.000 
#    0.000    0.000    0.000    0.000    0.000    0.000 
#
# Total GULP energy -100439.390784 kJ/mol
# GULP energy per Si atom -5579.966155 kJ/mol
# Density = 2.411766 g / cm^3
# Si number density = 24.172677 Si / 1000 Ang^3
#
#
#
# Elastic Constant Matrix: (Units=GPa)
#
#
# Indices 1 2 3 4 5 6 
#
# 1 62.4507 -16.2345 -11.7015 0.0000 10.9880 0.0000
# 2 -16.2345 146.7401 -12.0665 0.0000 17.3723 0.0000
# 3 -11.7015 -12.0665 65.0555 0.0000 24.9060 0.0000
# 4 0.0000 0.0000 0.0000 52.7665 0.0000 -37.7900
# 5 10.9880 17.3723 24.9060 0.0000 34.5327 0.0000
# 6 0.0000 0.0000 0.0000 -37.7900 0.0000 97.6365
#
#
#
# Elastic Compliance Matrix: (Units=1/GPa)
#
#
# Indices 1 2 3 4 5 6 
#
# 1 0.023482 0.006006 0.012923 0.000000 -0.019814 0.000000
# 2 0.006006 0.009526 0.007479 0.000000 -0.012097 0.000000
# 3 0.012923 0.007479 0.030527 0.000000 -0.029891 0.000000
# 4 0.000000 0.000000 0.000000 0.026219 0.000000 0.010148
# 5 -0.019814 -0.012097 -0.029891 0.000000 0.062907 0.000000
# 6 0.000000 0.000000 0.000000 0.010148 0.000000 0.014170
#
#
# Mechanical properties :
#
#
# Convention : Reuss Voigt Hill
#
# Bulk Modulus (GPa) = 8.59467 21.58236 15.08852
# Shear Modulus (GPa) = 32.72295 57.93706 45.33001
#
# Velocity S-wave (km/s) = 3.68328 4.90102 4.33512
# Velocity P-wave (km/s) = 4.65317 6.40113 5.59582
#
# Compressibility (1/GPa) = 0.11635115
#
# Stress axis : x y z
#
# Youngs Moduli (GPa) = 42.58650 104.97098 32.75823
#
# Poissons Ratio (x) = -0.63048 -0.42334
# Poissons Ratio (y) = -0.25579 -0.24499
# Poissons Ratio (z) = -0.55035 -0.78505
#
# Static dielectric constant tensor:
#      x y z
#    x 1.966510 0.000000 -0.017290 
#    y 0.000000 2.009900 0.000000 
#    z -0.017290 0.000000 1.964580 
# 
# From -- ./inp_files/151560.got.cif
#   From: 2010.05.17/outbox.cif.g08.bks.cpg/sg15_76_cif.got.tgz:151560.got - 2010.06.03 18:47:42.
