data_PCOD9276230
_publ_section_title
;
Structure prediction by ZEFSAII (Michael W. Deem and Ramdas Pophale) SiO2 
 PCOD9276230
Probable space group: C 2/C
;
_chemical_formula_sum "Si O2"
_cell_formula_units_Z 40
_cell_length_a 7.883354
_cell_length_b 26.567525
_cell_length_c 10.532581
_cell_angle_alpha 90.000000
_cell_angle_beta 124.929358
_cell_angle_gamma 90.000000
_cell_volume 1808.572377
_symmetry_space_group_name_H-M "C 2/C"
_symmetry_group_IT_number 15
_symmetry_cell_setting 'monoclinic'
loop_
_space_group_symop_operation_xyz
x,y,z
-x,y,1/2-z
-x,-y,-z
x,-y,1/2+z
1/2+x,1/2+y,z
1/2-x,1/2+y,1/2-z
1/2-x,1/2-y,-z
1/2+x,1/2-y,1/2+z
loop_
_atom_site_type_symbol
_atom_site_label
_atom_site_fract_x
_atom_site_fract_y
_atom_site_fract_z
Si Si1 0.272668 0.483238 0.945417
Si Si2 0.000000 0.428338 0.250000
Si Si3 0.636999 0.319411 0.521765
Si Si4 0.000000 0.243881 0.750000
Si Si5 0.309158 0.596858 0.251863
Si Si6 0.632143 0.896521 0.058742
O O1 0.220231 0.445643 0.807273
O O2 0.137378 0.533370 0.891517
O O3 0.500000 0.500000 0.000000
O O4 0.230789 0.449325 0.051145
O O5 0.138355 0.396934 0.212993
O O6 0.802292 0.279230 0.644253
O O7 0.472604 0.288614 0.367500
O O8 0.599157 0.358014 0.621322
O O9 0.743712 0.353693 0.459660
O O10 0.500000 0.577674 0.250000
O O11 0.107104 0.611512 0.085123
#
# Coordination Sequence:
#
# PCOD9276230 Si02
#       6
#     8   4   8   4   8   8
#     4  11  23  38  61  88 122 172 218 259 309 367
#     4  12  24  37  62  88 130 170 222 261 294 386
#     4  10  21  42  68  93 126 163 209 260 329 384
#     4  10  20  39  76  92 114 166 214 257 320 412
#     4  11  22  40  63  88 132 170 204 263 327 370
#     4  11  23  42  59  90 133 165 212 271 318 374
#
# _framework density 22.116890999999999
#
# number of rings (size 3 to 8) (size 9 to 14) (size 15 to 20)
#    0.000    1.200    4.000    3.000    2.800    4.800 
#    0.000    1.000    8.800    0.000    0.000    0.000 
#    0.000    0.000    0.000    0.000    0.000    0.000 
#
# Total GULP energy -111712.144864 kJ/mol
# GULP energy per Si atom -5585.607243 kJ/mol
# Density = 2.206655 g / cm^3
# Si number density = 22.116891 Si / 1000 Ang^3
#
#
#
# Elastic Constant Matrix: (Units=GPa)
#
#
# Indices 1 2 3 4 5 6 
#
# 1 102.8545 17.1340 6.5158 0.0000 -17.8051 0.0000
# 2 17.1340 71.3676 36.7607 0.0000 -10.8639 0.0000
# 3 6.5158 36.7607 60.3413 0.0000 -15.2870 0.0000
# 4 0.0000 0.0000 0.0000 -0.1497 0.0000 11.9066
# 5 -17.8051 -10.8639 -15.2870 0.0000 36.1763 0.0000
# 6 0.0000 0.0000 0.0000 11.9066 0.0000 11.9779
#
#
#
# Elastic Compliance Matrix: (Units=1/GPa)
#
#
# Indices 1 2 3 4 5 6 
#
# 1 0.010997 -0.002786 0.001869 0.000000 0.005366 0.000000
# 2 -0.002786 0.021157 -0.012684 0.000000 -0.000378 0.000000
# 3 0.001869 -0.012684 0.026167 0.000000 0.008168 0.000000
# 4 0.000000 0.000000 0.000000 -0.083435 0.000000 0.082938
# 5 0.005366 -0.000378 0.008168 0.000000 0.033622 0.000000
# 6 0.000000 0.000000 0.000000 0.082938 0.000000 0.001043
#
#
# Mechanical properties :
#
#
# Convention : Reuss Voigt Hill
#
# Bulk Modulus (GPa) = 32.13431 39.48715 35.81073
# Shear Modulus (GPa) = 106.10254 21.21109 63.65682
#
# Velocity S-wave (km/s) = 6.93381 3.10020 5.37071
# Velocity P-wave (km/s) = 8.86930 5.54145 7.39500
#
# Compressibility (1/GPa) = 0.03111939
#
# Stress axis : x y z
#
# Youngs Moduli (GPa) = 90.93352 47.26651 38.21606
#
# Poissons Ratio (x) = 0.13170 -0.07144
# Poissons Ratio (y) = 0.25336 0.48472
# Poissons Ratio (z) = -0.16998 0.59951
#
# Static dielectric constant tensor:
#      x y z
#    x 1.768850 0.000000 -0.018990 
#    y 0.000000 1.819350 0.000000 
#    z -0.018990 0.000000 1.934120 
# 
# From -- ./inp_files/25839.got.cif
#   From: 2010.05.17/outbox.cif.g08.bks.cpg/sg15_13_cif.got.tgz:25839.got - 2010.06.03 18:47:42.
