data_PCOD9276959
_publ_section_title
;
Structure prediction by ZEFSAII (Michael W. Deem and Ramdas Pophale) SiO2 
 PCOD9276959
Probable space group: C 2/C
;
_chemical_formula_sum "Si O2"
_cell_formula_units_Z 44
_cell_length_a 26.654901
_cell_length_b 12.228013
_cell_length_c 15.672271
_cell_angle_alpha 90.000000
_cell_angle_beta 26.221030
_cell_angle_gamma 90.000000
_cell_volume 2256.966778
_symmetry_space_group_name_H-M "C 2/C"
_symmetry_group_IT_number 15
_symmetry_cell_setting 'monoclinic'
loop_
_space_group_symop_operation_xyz
x,y,z
-x,y,1/2-z
-x,-y,-z
x,-y,1/2+z
1/2+x,1/2+y,z
1/2-x,1/2+y,1/2-z
1/2-x,1/2-y,-z
1/2+x,1/2-y,1/2+z
loop_
_atom_site_type_symbol
_atom_site_label
_atom_site_fract_x
_atom_site_fract_y
_atom_site_fract_z
Si Si1 0.686163 0.364718 0.107881
Si Si2 0.541918 0.615579 0.473815
Si Si3 0.687316 0.994368 0.728975
Si Si4 0.000000 0.598098 0.750000
Si Si5 0.261679 0.993240 0.160281
Si Si6 0.486411 0.166806 0.585858
O O1 0.549513 0.355385 0.313672
O O2 0.720303 0.410030 0.150056
O O3 0.750000 0.250000 0.000000
O O4 0.727094 0.448448 0.972481
O O5 0.500000 0.500000 0.500000
O O6 0.673184 0.594801 0.294758
O O7 0.527750 0.713678 0.429730
O O8 0.736301 0.040659 0.743364
O O9 0.609706 0.087084 0.805097
O O10 0.604716 0.892160 0.879528
O O11 0.110917 0.526227 0.560237
O O12 0.023015 0.667775 0.798511
#
# Coordination Sequence:
#
# PCOD9276959 Si02
#       6
#     8   8   8   4   8   8
#     4  11  21  41  67  93 131 175 214 273 331 388
#     4  10  23  42  61  93 136 164 208 272 335 382
#     4  10  21  39  66  94 126 167 225 266 312 385
#     4  10  20  40  68  88 122 170 228 258 316 388
#     4  10  23  40  61  98 129 169 218 266 322 392
#     4  10  20  40  66  95 125 169 218 269 311 388
#
# _framework density 19.495190999999998
#
# number of rings (size 3 to 8) (size 9 to 14) (size 15 to 20)
#    0.000    1.818    3.636    0.000    0.000    2.909 
#    3.273    0.000    0.000    0.000    0.000    0.000 
#    0.000    0.000    0.000    0.000    0.000    0.000 
#
# Total GULP energy -122687.975889 kJ/mol
# GULP energy per Si atom -5576.726177 kJ/mol
# Density = 1.945082 g / cm^3
# Si number density = 19.495191 Si / 1000 Ang^3
#
#
#
# Elastic Constant Matrix: (Units=GPa)
#
#
# Indices 1 2 3 4 5 6 
#
# 1 122.0393 33.2337 49.6706 0.0000 29.6901 0.0000
# 2 33.2337 83.8398 26.2955 0.0000 10.4014 0.0000
# 3 49.6706 26.2955 94.3414 0.0000 0.7628 0.0000
# 4 0.0000 0.0000 0.0000 24.4431 0.0000 4.0779
# 5 29.6901 10.4014 0.7628 0.0000 35.6599 0.0000
# 6 0.0000 0.0000 0.0000 4.0779 0.0000 3.3630
#
#
#
# Elastic Compliance Matrix: (Units=1/GPa)
#
#
# Indices 1 2 3 4 5 6 
#
# 1 0.014249 -0.002133 -0.006818 0.000000 -0.011096 0.000000
# 2 -0.002133 0.013907 -0.002735 0.000000 -0.002222 0.000000
# 3 -0.006818 -0.002735 0.014902 0.000000 0.006156 0.000000
# 4 0.000000 0.000000 0.000000 0.051286 0.000000 -0.062188
# 5 -0.011096 -0.002222 0.006156 0.000000 0.037797 0.000000
# 6 0.000000 0.000000 0.000000 -0.062188 0.000000 0.372760
#
#
# Mechanical properties :
#
#
# Convention : Reuss Voigt Hill
#
# Bulk Modulus (GPa) = 50.79915 57.62444 54.21180
# Shear Modulus (GPa) = 9.34866 25.42790 17.38828
#
# Velocity S-wave (km/s) = 2.19221 3.61545 2.98975
# Velocity P-wave (km/s) = 5.70277 6.85938 6.30764
#
# Compressibility (1/GPa) = 0.01968537
#
# Stress axis : x y z
#
# Youngs Moduli (GPa) = 70.17823 71.90834 67.10530
#
# Poissons Ratio (x) = 0.15341 0.45752
# Poissons Ratio (y) = 0.14972 0.18353
# Poissons Ratio (z) = 0.47847 0.19666
#
# Static dielectric constant tensor:
#      x y z
#    x 3.114110 0.000000 1.831970 
#    y 0.000000 1.657070 0.000000 
#    z 1.831970 0.000000 4.162010 
# 
# From -- ./inp_files/151728.got.cif
#   From: 2010.05.17/outbox.cif.g08.bks.cpg/sg15_76_cif.got.tgz:151728.got - 2010.06.03 18:47:42.
