data_PCOD9276969
_publ_section_title
;
Structure prediction by ZEFSAII (Michael W. Deem and Ramdas Pophale) SiO2 
 PCOD9276969
Probable space group: C 2/C
;
_chemical_formula_sum "Si O2"
_cell_formula_units_Z 56
_cell_length_a 7.942389
_cell_length_b 18.435316
_cell_length_c 16.500133
_cell_angle_alpha 90.000000
_cell_angle_beta 63.917137
_cell_angle_gamma 90.000000
_cell_volume 2169.913738
_symmetry_space_group_name_H-M "C 2/C"
_symmetry_group_IT_number 15
_symmetry_cell_setting 'monoclinic'
loop_
_space_group_symop_operation_xyz
x,y,z
-x,y,1/2-z
-x,-y,-z
x,-y,1/2+z
1/2+x,1/2+y,z
1/2-x,1/2+y,1/2-z
1/2-x,1/2-y,-z
1/2+x,1/2-y,1/2+z
loop_
_atom_site_type_symbol
_atom_site_label
_atom_site_fract_x
_atom_site_fract_y
_atom_site_fract_z
Si Si1 0.227987 0.394186 0.114807
Si Si2 0.000000 0.000000 0.500000
Si Si3 0.455419 0.277876 0.978996
Si Si4 0.194199 0.608550 0.815656
Si Si5 0.719481 0.555120 0.186254
Si Si6 0.818779 0.892030 0.638936
Si Si7 0.495245 0.832598 0.902446
Si Si8 0.500000 0.273110 0.250000
O O1 0.400053 0.342545 0.053363
O O2 0.222233 0.399273 0.212697
O O3 0.023546 0.372140 0.127551
O O4 0.288223 0.470135 0.064747
O O5 0.982556 0.948440 0.583498
O O6 0.554832 0.216612 0.010456
O O7 0.250000 0.250000 0.000000
O O8 0.574673 0.313763 0.881309
O O9 0.242372 0.529021 0.841046
O O10 0.333865 0.672260 0.810475
O O11 0.500000 0.568470 0.250000
O O12 0.792574 0.577758 0.261232
O O13 0.834411 0.613680 0.110519
O O14 0.681057 0.877932 0.592409
O O15 0.547377 0.778512 0.816518
#
# Coordination Sequence:
#
# PCOD9276969 Si02
#       8
#     8   4   8   8   8   8   8   4
#     4  10  22  39  69  91 132 181 225 276 352 413
#     4  10  20  40  66  96 132 182 228 278 352 422
#     4  11  25  44  63  98 135 177 224 287 350 421
#     4  11  23  42  67 101 138 179 234 290 346 419
#     4  12  24  41  68 102 137 177 232 293 343 409
#     4  11  23  42  67  95 135 180 227 285 349 421
#     4  12  25  44  70 101 134 186 235 290 349 418
#     4  12  24  42  70 104 140 174 238 292 352 408
#
# _framework density 25.807476000000001
#
# number of rings (size 3 to 8) (size 9 to 14) (size 15 to 20)
#    0.000    0.857    5.000    2.143    4.000    1.143 
#    0.000    0.000    0.000    6.000    0.000    0.000 
#    0.000    0.000    0.000    0.000    0.000    0.000 
#
# Total GULP energy -156108.729583 kJ/mol
# GULP energy per Si atom -5575.311771 kJ/mol
# Density = 2.574874 g / cm^3
# Si number density = 25.807476 Si / 1000 Ang^3
#
#
#
# Elastic Constant Matrix: (Units=GPa)
#
#
# Indices 1 2 3 4 5 6 
#
# 1 84.5614 14.1271 -10.8384 0.0000 -24.8083 0.0000
# 2 14.1271 125.3079 17.7540 0.0000 -7.6338 0.0000
# 3 -10.8384 17.7540 81.0959 0.0000 -13.7807 0.0000
# 4 0.0000 0.0000 0.0000 32.8522 0.0000 -8.4869
# 5 -24.8083 -7.6338 -13.7807 0.0000 32.5618 0.0000
# 6 0.0000 0.0000 0.0000 -8.4869 0.0000 47.0124
#
#
#
# Elastic Compliance Matrix: (Units=1/GPa)
#
#
# Indices 1 2 3 4 5 6 
#
# 1 0.017143 -0.001765 0.005201 0.000000 0.014849 0.000000
# 2 -0.001765 0.008466 -0.002134 0.000000 -0.000263 0.000000
# 3 0.005201 -0.002134 0.015173 0.000000 0.009884 0.000000
# 4 0.000000 0.000000 0.000000 0.031928 0.000000 0.005764
# 5 0.014849 -0.000263 0.009884 0.000000 0.046145 0.000000
# 6 0.000000 0.000000 0.000000 0.005764 0.000000 0.022311
#
#
# Mechanical properties :
#
#
# Convention : Reuss Voigt Hill
#
# Bulk Modulus (GPa) = 23.04905 37.00563 30.02734
# Shear Modulus (GPa) = 32.67440 40.48012 36.57726
#
# Velocity S-wave (km/s) = 3.56207 3.96478 3.76881
# Velocity P-wave (km/s) = 5.08609 5.94387 5.53163
#
# Compressibility (1/GPa) = 0.04338573
#
# Stress axis : x y z
#
# Youngs Moduli (GPa) = 58.33129 118.12453 65.90707
#
# Poissons Ratio (x) = 0.20849 -0.34277
# Poissons Ratio (y) = 0.10296 0.14064
# Poissons Ratio (z) = -0.30337 0.25207
#
# Static dielectric constant tensor:
#      x y z
#    x 2.240970 0.000000 0.097590 
#    y 0.000000 2.171870 0.000000 
#    z 0.097590 0.000000 2.054000 
# 
# From -- ./inp_files/265206.got.cif
#   From: 2010.05.17/outbox.cif.g08.bks.cpg/sg15_133_cif.got.tgz:265206.got - 2010.06.03 18:47:42.
