data_PCOD9276973
_publ_section_title
;
Structure prediction by ZEFSAII (Michael W. Deem and Ramdas Pophale) SiO2 
 PCOD9276973
Probable space group: C 2/C
;
_chemical_formula_sum "Si O2"
_cell_formula_units_Z 52
_cell_length_a 28.688791
_cell_length_b 8.179506
_cell_length_c 11.100973
_cell_angle_alpha 90.000000
_cell_angle_beta 118.608514
_cell_angle_gamma 90.000000
_cell_volume 2286.921573
_symmetry_space_group_name_H-M "C 2/C"
_symmetry_group_IT_number 15
_symmetry_cell_setting 'monoclinic'
loop_
_space_group_symop_operation_xyz
x,y,z
-x,y,1/2-z
-x,-y,-z
x,-y,1/2+z
1/2+x,1/2+y,z
1/2-x,1/2+y,1/2-z
1/2-x,1/2-y,-z
1/2+x,1/2-y,1/2+z
loop_
_atom_site_type_symbol
_atom_site_label
_atom_site_fract_x
_atom_site_fract_y
_atom_site_fract_z
Si Si1 0.749968 0.634786 0.383941
Si Si2 0.500000 0.545322 0.250000
Si Si3 0.415441 0.751199 0.049545
Si Si4 0.690926 0.824790 0.954369
Si Si5 0.513324 0.751067 0.599053
Si Si6 0.184395 0.840272 0.210613
Si Si7 0.585051 0.872501 0.911223
O O1 0.750000 0.750000 0.500000
O O2 0.793629 0.500598 0.475512
O O3 0.765816 0.753102 0.293713
O O4 0.700928 0.516387 0.285239
O O5 0.447580 0.653673 0.189371
O O6 0.499233 0.428360 0.364625
O O7 0.404033 0.935123 0.074122
O O8 0.456045 0.756303 0.987269
O O9 0.362669 0.657172 0.943562
O O10 0.666928 0.787485 0.792802
O O11 0.641127 0.775402 0.977639
O O12 0.750000 0.750000 0.000000
O O13 0.551303 0.828369 0.749708
O O14 0.455732 0.836448 0.530966
#
# Coordination Sequence:
#
# PCOD9276973 Si02
#       7
#     8   4   8   8   8   8   8
#     4  11  24  46  66 101 140 178 232 285 346 417
#     4  10  24  42  62  96 138 178 234 288 342 412
#     4  12  22  42  69 100 137 178 233 283 351 415
#     4  10  21  42  68  94 137 174 229 292 341 415
#     4  10  23  43  65  91 137 179 229 287 350 404
#     4  11  24  43  71  99 138 184 230 286 354 419
#     4  10  20  40  66  97 126 178 226 282 345 410
#
# _framework density 22.73799
#
# number of rings (size 3 to 8) (size 9 to 14) (size 15 to 20)
#    0.000    1.538    3.077    2.769    0.000    1.231 
#   13.846    0.000    0.000    0.000    0.000    0.000 
#    0.000    0.000    0.000    0.000    0.000    0.000 
#
# Total GULP energy -144919.208178 kJ/mol
# GULP energy per Si atom -5573.815699 kJ/mol
# Density = 2.268624 g / cm^3
# Si number density = 22.737990 Si / 1000 Ang^3
#
#
#
# Elastic Constant Matrix: (Units=GPa)
#
#
# Indices 1 2 3 4 5 6 
#
# 1 102.3767 23.8085 2.8428 0.0000 28.2981 0.0000
# 2 23.8085 96.3860 39.1011 0.0000 16.9238 0.0000
# 3 2.8428 39.1011 52.1403 0.0000 25.1210 0.0000
# 4 0.0000 0.0000 0.0000 40.1752 0.0000 0.3117
# 5 28.2981 16.9238 25.1210 0.0000 46.9491 0.0000
# 6 0.0000 0.0000 0.0000 0.3117 0.0000 17.3135
#
#
#
# Elastic Compliance Matrix: (Units=1/GPa)
#
#
# Indices 1 2 3 4 5 6 
#
# 1 0.013623 -0.004711 0.007987 0.000000 -0.010787 0.000000
# 2 -0.004711 0.016564 -0.014358 0.000000 0.004551 0.000000
# 3 0.007987 -0.014358 0.039526 0.000000 -0.020788 0.000000
# 4 0.000000 0.000000 0.000000 0.024894 0.000000 -0.000448
# 5 -0.010787 0.004551 -0.020788 0.000000 0.037284 0.000000
# 6 0.000000 0.000000 0.000000 -0.000448 0.000000 0.057766
#
#
# Mechanical properties :
#
#
# Convention : Reuss Voigt Hill
#
# Bulk Modulus (GPa) = 21.03027 42.48975 31.76001
# Shear Modulus (GPa) = 21.96146 33.23094 27.59620
#
# Velocity S-wave (km/s) = 3.11118 3.82707 3.48754
# Velocity P-wave (km/s) = 4.70903 6.18513 5.49685
#
# Compressibility (1/GPa) = 0.04755050
#
# Stress axis : x y z
#
# Youngs Moduli (GPa) = 73.40352 60.37153 25.29966
#
# Poissons Ratio (x) = 0.28444 -0.20208
# Poissons Ratio (y) = 0.34584 0.36324
# Poissons Ratio (z) = -0.58631 0.86679
#
# Static dielectric constant tensor:
#      x y z
#    x 1.897150 0.000000 0.019660 
#    y 0.000000 1.892950 0.000000 
#    z 0.019660 0.000000 1.927660 
# 
# From -- ./inp_files/122052.got.cif
#   From: 2010.05.17/outbox.cif.g08.bks.cpg/sg15_62_cif.got.tgz:122052.got - 2010.06.03 18:47:42.
