data_PCOD9276407
_publ_section_title
;
Structure prediction by ZEFSAII (Michael W. Deem and Ramdas Pophale) SiO2 
 PCOD9276407
Probable space group: C 2/C
;
_chemical_formula_sum "Si O2"
_cell_formula_units_Z 64
_cell_length_a 15.128927
_cell_length_b 16.735611
_cell_length_c 14.899903
_cell_angle_alpha 90.000000
_cell_angle_beta 125.122783
_cell_angle_gamma 90.000000
_cell_volume 3085.634662
_symmetry_space_group_name_H-M "C 2/C"
_symmetry_group_IT_number 15
_symmetry_cell_setting 'monoclinic'
loop_
_space_group_symop_operation_xyz
x,y,z
-x,y,1/2-z
-x,-y,-z
x,-y,1/2+z
1/2+x,1/2+y,z
1/2-x,1/2+y,1/2-z
1/2-x,1/2-y,-z
1/2+x,1/2-y,1/2+z
loop_
_atom_site_type_symbol
_atom_site_label
_atom_site_fract_x
_atom_site_fract_y
_atom_site_fract_z
Si Si1 0.104869 0.023691 0.150509
Si Si2 0.895109 0.707835 0.452354
Si Si3 0.766068 0.670480 0.065145
Si Si4 0.742333 0.230983 0.722305
Si Si5 0.527035 0.693386 0.163098
Si Si6 0.275373 0.955471 0.899285
Si Si7 0.615285 0.526460 0.952298
Si Si8 0.888876 0.614490 0.981117
O O1 0.051988 0.112084 0.124309
O O2 0.212868 0.029339 0.270113
O O3 0.123684 0.996016 0.060113
O O4 0.011495 0.971733 0.142776
O O5 0.841962 0.768363 0.349146
O O6 0.813289 0.635640 0.426333
O O7 0.932210 0.757818 0.559983
O O8 0.001724 0.660888 0.478861
O O9 0.770863 0.696539 0.170450
O O10 0.750000 0.750000 0.000000
O O11 0.664939 0.614072 0.987410
O O12 0.865257 0.628705 0.072970
O O13 0.635686 0.254388 0.716092
O O14 0.704340 0.156897 0.636796
O O15 0.500000 0.675020 0.250000
O O16 0.188881 0.976908 0.926674
O O17 0.372767 0.019777 0.959468
#
# Coordination Sequence:
#
# PCOD9276407 Si02
#       8
#     8   8   8   8   8   8   8   8
#     4  11  22  40  62  90 130 162 210 268 312 378
#     4  11  23  40  63  89 129 171 210 258 316 381
#     4   9  17  37  62  87 128 157 202 264 309 374
#     4  10  20  40  61  91 124 164 210 259 311 375
#     4  11  23  41  61  89 124 164 212 262 312 381
#     4  11  21  42  63  91 128 169 208 262 323 372
#     4  10  21  36  62  93 122 167 208 258 320 372
#     4   9  22  38  62  92 127 163 215 259 309 379
#
# _framework density 20.741277
#
# number of rings (size 3 to 8) (size 9 to 14) (size 15 to 20)
#    0.000    1.750    2.500    1.500    0.000    3.000 
#    4.500    1.250    2.750    0.000    0.000    0.000 
#    0.000    0.000    0.000    0.000    0.000    0.000 
#
# Total GULP energy -178518.905596 kJ/mol
# GULP energy per Si atom -5578.715800 kJ/mol
# Density = 2.069407 g / cm^3
# Si number density = 20.741277 Si / 1000 Ang^3
#
#
#
# Elastic Constant Matrix: (Units=GPa)
#
#
# Indices 1 2 3 4 5 6 
#
# 1 57.1516 5.0960 20.8015 0.0000 -8.6507 0.0000
# 2 5.0960 32.7880 5.7688 0.0000 -0.5774 0.0000
# 3 20.8015 5.7688 87.1940 0.0000 1.6626 0.0000
# 4 0.0000 0.0000 0.0000 24.7656 0.0000 4.9580
# 5 -8.6507 -0.5774 1.6626 0.0000 25.8737 0.0000
# 6 0.0000 0.0000 0.0000 4.9580 0.0000 23.2422
#
#
#
# Elastic Compliance Matrix: (Units=1/GPa)
#
#
# Indices 1 2 3 4 5 6 
#
# 1 0.020556 -0.002208 -0.004894 0.000000 0.007138 0.000000
# 2 -0.002208 0.031113 -0.001533 0.000000 0.000055 0.000000
# 3 -0.004894 -0.001533 0.012785 0.000000 -0.002492 0.000000
# 4 0.000000 0.000000 0.000000 0.042180 0.000000 -0.008998
# 5 0.007138 0.000055 -0.002492 0.000000 0.041197 0.000000
# 6 0.000000 0.000000 0.000000 -0.008998 0.000000 0.044945
#
#
# Mechanical properties :
#
#
# Convention : Reuss Voigt Hill
#
# Bulk Modulus (GPa) = 21.19347 26.71846 23.95596
# Shear Modulus (GPa) = 22.14614 24.47413 23.31014
#
# Velocity S-wave (km/s) = 3.27116 3.43880 3.35603
# Velocity P-wave (km/s) = 4.95051 5.35508 5.15676
#
# Compressibility (1/GPa) = 0.04718434
#
# Stress axis : x y z
#
# Youngs Moduli (GPa) = 48.64784 32.14110 78.21584
#
# Poissons Ratio (x) = 0.07097 0.38278
# Poissons Ratio (y) = 0.10742 0.11988
# Poissons Ratio (z) = 0.23808 0.04926
#
# Static dielectric constant tensor:
#      x y z
#    x 1.774470 0.000000 0.019360 
#    y 0.000000 1.723710 0.000000 
#    z 0.019360 0.000000 1.718820 
# 
# From -- ./inp_files/155523.got.cif
#   From: 2010.05.17/outbox.cif.g08.bks.cpg/sg15_78_cif.got.tgz:155523.got - 2010.06.03 18:47:42.
