data_PCOD9276966
_publ_section_title
;
Structure prediction by ZEFSAII (Michael W. Deem and Ramdas Pophale) SiO2 
 PCOD9276966
Probable space group: C 2/C
;
_chemical_formula_sum "Si O2"
_cell_formula_units_Z 64
_cell_length_a 14.227125
_cell_length_b 33.480133
_cell_length_c 11.161321
_cell_angle_alpha 90.000000
_cell_angle_beta 37.122342
_cell_angle_gamma 90.000000
_cell_volume 3208.564940
_symmetry_space_group_name_H-M "C 2/C"
_symmetry_group_IT_number 15
_symmetry_cell_setting 'monoclinic'
loop_
_space_group_symop_operation_xyz
x,y,z
-x,y,1/2-z
-x,-y,-z
x,-y,1/2+z
1/2+x,1/2+y,z
1/2-x,1/2+y,1/2-z
1/2-x,1/2-y,-z
1/2+x,1/2-y,1/2+z
loop_
_atom_site_type_symbol
_atom_site_label
_atom_site_fract_x
_atom_site_fract_y
_atom_site_fract_z
Si Si1 0.672816 0.664018 0.319334
Si Si2 0.837951 0.078387 0.275279
Si Si3 0.941024 0.311417 0.677105
Si Si4 0.429883 0.717564 0.687872
Si Si5 0.185332 0.918630 0.420621
Si Si6 0.688267 0.294653 0.563753
Si Si7 0.491716 0.031741 0.900135
Si Si8 0.281198 0.836180 0.225835
O O1 0.656200 0.617884 0.310628
O O2 0.769595 0.671610 0.339584
O O3 0.522770 0.690703 0.498699
O O4 0.743265 0.683783 0.128722
O O5 0.825267 0.092383 0.427235
O O6 0.678410 0.053648 0.415252
O O7 0.014221 0.060469 0.076160
O O8 0.931796 0.264261 0.653947
O O9 0.000000 0.315526 0.750000
O O10 0.037188 0.338661 0.487380
O O11 0.500000 0.714633 0.750000
O O12 0.265754 0.696029 0.830939
O O13 0.348660 0.942415 0.244481
O O14 0.202823 0.879583 0.318225
O O15 0.500000 0.296376 0.750000
O O16 0.750000 0.250000 0.500000
O O17 0.755037 0.315954 0.379605
O O18 0.500000 0.018086 0.750000
O O19 0.500000 0.000000 0.000000
#
# Coordination Sequence:
#
# PCOD9276966 Si02
#       8
#     8   8   8   8   8   8   8   8
#     4  12  22  38  60  84 120 158 214 268 318 377
#     4  10  20  40  66  96 131 169 205 252 318 398
#     4  11  25  40  54  77 114 172 228 271 322 377
#     4  11  22  38  56  76 114 170 222 269 318 369
#     4  10  20  40  66  96 131 169 205 252 318 398
#     4  12  24  36  54  88 124 158 204 274 328 360
#     4  10  23  44  72 103 132 168 206 252 320 394
#     4  12  22  38  60  84 120 158 214 268 318 377
#
# _framework density 19.946614
#
# number of rings (size 3 to 8) (size 9 to 14) (size 15 to 20)
#    0.000    1.000    3.750    3.750    1.750    2.500 
#    0.000    3.750    0.000    0.000    0.000    0.000 
#    0.000    0.000    0.000    0.000    0.000    0.000 
#
# Total GULP energy -178229.009261 kJ/mol
# GULP energy per Si atom -5569.656539 kJ/mol
# Density = 1.990121 g / cm^3
# Si number density = 19.946614 Si / 1000 Ang^3
#
#
#
# Elastic Constant Matrix: (Units=GPa)
#
#
# Indices 1 2 3 4 5 6 
#
# 1 96.8848 40.7017 25.8609 0.0000 -4.5479 0.0000
# 2 40.7017 55.8158 29.5563 0.0000 -0.7046 0.0000
# 3 25.8609 29.5563 106.4845 0.0000 -10.1038 0.0000
# 4 0.0000 0.0000 0.0000 16.2267 0.0000 0.6944
# 5 -4.5479 -0.7046 -10.1038 0.0000 31.3011 0.0000
# 6 0.0000 0.0000 0.0000 0.6944 0.0000 27.3375
#
#
#
# Elastic Compliance Matrix: (Units=1/GPa)
#
#
# Indices 1 2 3 4 5 6 
#
# 1 0.015020 -0.010654 -0.000522 0.000000 0.001774 0.000000
# 2 -0.010654 0.028624 -0.005615 0.000000 -0.002716 0.000000
# 3 -0.000522 -0.005615 0.011407 0.000000 0.003480 0.000000
# 4 0.000000 0.000000 0.000000 0.061694 0.000000 -0.001567
# 5 0.001774 -0.002716 0.003480 0.000000 0.033268 0.000000
# 6 0.000000 0.000000 0.000000 -0.001567 0.000000 0.036620
#
#
# Mechanical properties :
#
#
# Convention : Reuss Voigt Hill
#
# Bulk Modulus (GPa) = 46.58132 50.15811 48.36971
# Shear Modulus (GPa) = 21.99053 25.84416 23.91735
#
# Velocity S-wave (km/s) = 3.32395 3.60344 3.46651
# Velocity P-wave (km/s) = 6.17537 6.52026 6.35016
#
# Compressibility (1/GPa) = 0.02146783
#
# Stress axis : x y z
#
# Youngs Moduli (GPa) = 66.57828 34.93552 87.66789
#
# Poissons Ratio (x) = 0.37219 0.04579
# Poissons Ratio (y) = 0.70931 0.49229
# Poissons Ratio (z) = 0.03478 0.19618
#
# Static dielectric constant tensor:
#      x y z
#    x 2.295700 0.000000 -0.985060 
#    y 0.000000 1.720090 0.000000 
#    z -0.985060 0.000000 3.314800 
# 
# From -- ./inp_files/101632.got.cif
#   From: 2010.05.17/outbox.cif.g08.bks.cpg/sg15_51_cif.got.tgz:101632.got - 2010.06.03 18:47:42.
