data_PCOD9276544
_publ_section_title
;
Structure prediction by ZEFSAII (Michael W. Deem and Ramdas Pophale) SiO2 
 PCOD9276544
Probable space group: C 2/C
;
_chemical_formula_sum "Si O2"
_cell_formula_units_Z 40
_cell_length_a 18.062071
_cell_length_b 8.999914
_cell_length_c 13.679944
_cell_angle_alpha 90.000000
_cell_angle_beta 54.480933
_cell_angle_gamma 90.000000
_cell_volume 1809.977317
_symmetry_space_group_name_H-M "C 2/C"
_symmetry_group_IT_number 15
_symmetry_cell_setting 'monoclinic'
loop_
_space_group_symop_operation_xyz
x,y,z
-x,y,1/2-z
-x,-y,-z
x,-y,1/2+z
1/2+x,1/2+y,z
1/2-x,1/2+y,1/2-z
1/2-x,1/2-y,-z
1/2+x,1/2-y,1/2+z
loop_
_atom_site_type_symbol
_atom_site_label
_atom_site_fract_x
_atom_site_fract_y
_atom_site_fract_z
Si Si1 0.514374 0.609614 0.854145
Si Si2 0.857392 0.934687 0.082953
Si Si3 0.210519 0.401387 0.575064
Si Si4 0.546974 0.061598 0.341945
Si Si5 0.627382 0.903530 0.981526
O O1 0.500000 0.597219 0.750000
O O2 0.612790 0.570642 0.825958
O O3 0.496864 0.780535 0.900339
O O4 0.442709 0.502262 0.959597
O O5 0.774846 0.034811 0.110546
O O6 0.846209 0.766071 0.055830
O O7 0.250000 0.250000 0.500000
O O8 0.111312 0.397001 0.701914
O O9 0.199675 0.514477 0.493440
O O10 0.609917 0.028488 0.387415
O O11 0.472223 0.932345 0.392440
#
# Coordination Sequence:
#
# PCOD9276544 Si02
#       5
#     8   8   8   8   8
#     4  10  20  40  63  85 119 160 202 248 310 374
#     4  10  23  39  60  92 121 154 207 257 303 368
#     4  12  24  40  63  92 128 165 207 259 312 369
#     4  10  22  40  64  90 122 168 210 249 310 380
#     4  10  22  41  61  89 127 164 207 257 310 372
#
# _framework density 22.099726
#
# number of rings (size 3 to 8) (size 9 to 14) (size 15 to 20)
#    0.000    1.600    0.000    4.800    0.000    8.000 
#    0.000    2.000    0.000    0.000    0.000    0.000 
#    0.000    0.000    0.000    0.000    0.000    0.000 
#
# Total GULP energy -111663.773672 kJ/mol
# GULP energy per Si atom -5583.188684 kJ/mol
# Density = 2.204943 g / cm^3
# Si number density = 22.099726 Si / 1000 Ang^3
#
#
#
# Elastic Constant Matrix: (Units=GPa)
#
#
# Indices 1 2 3 4 5 6 
#
# 1 129.9696 37.4729 26.4400 0.0000 33.7784 0.0000
# 2 37.4729 70.4459 18.3059 0.0000 5.3785 0.0000
# 3 26.4400 18.3059 81.5364 0.0000 16.9184 0.0000
# 4 0.0000 0.0000 0.0000 21.7845 0.0000 -1.8470
# 5 33.7784 5.3785 16.9184 0.0000 40.7751 0.0000
# 6 0.0000 0.0000 0.0000 -1.8470 0.0000 45.0109
#
#
#
# Elastic Compliance Matrix: (Units=1/GPa)
#
#
# Indices 1 2 3 4 5 6 
#
# 1 0.011624 -0.005321 -0.000790 0.000000 -0.008600 0.000000
# 2 -0.005321 0.017526 -0.002893 0.000000 0.003297 0.000000
# 3 -0.000790 -0.002893 0.014176 0.000000 -0.004845 0.000000
# 4 0.000000 0.000000 0.000000 0.046064 0.000000 0.001890
# 5 -0.008600 0.003297 -0.004845 0.000000 0.033224 0.000000
# 6 0.000000 0.000000 0.000000 0.001890 0.000000 0.022294
#
#
# Mechanical properties :
#
#
# Convention : Reuss Voigt Hill
#
# Bulk Modulus (GPa) = 39.50081 49.59883 44.54982
# Shear Modulus (GPa) = 29.17869 34.82963 32.00416
#
# Velocity S-wave (km/s) = 3.63756 3.97422 3.80961
# Velocity P-wave (km/s) = 5.96282 6.59933 6.28913
#
# Compressibility (1/GPa) = 0.02531594
#
# Stress axis : x y z
#
# Youngs Moduli (GPa) = 86.02776 57.05779 70.54314
#
# Poissons Ratio (x) = 0.30363 0.05575
# Poissons Ratio (y) = 0.45779 0.20411
# Poissons Ratio (z) = 0.06799 0.16509
#
# Static dielectric constant tensor:
#      x y z
#    x 1.895190 0.000000 -0.005660 
#    y 0.000000 1.778690 0.000000 
#    z -0.005660 0.000000 1.864680 
# 
# From -- ./inp_files/159131.got.cif
#   From: 2010.05.17/outbox.cif.g08.bks.cpg/sg15_80_cif.got.tgz:159131.got - 2010.06.03 18:47:42.
