data_PCOD9276031
_publ_section_title
;
Structure prediction by ZEFSAII (Michael W. Deem and Ramdas Pophale) SiO2 
 PCOD9276031
Probable space group: C 2/C
;
_chemical_formula_sum "Si O2"
_cell_formula_units_Z 56
_cell_length_a 18.686135
_cell_length_b 8.729487
_cell_length_c 27.560836
_cell_angle_alpha 90.000000
_cell_angle_beta 142.267813
_cell_angle_gamma 90.000000
_cell_volume 2751.260659
_symmetry_space_group_name_H-M "C 2/C"
_symmetry_group_IT_number 15
_symmetry_cell_setting 'monoclinic'
loop_
_space_group_symop_operation_xyz
x,y,z
-x,y,1/2-z
-x,-y,-z
x,-y,1/2+z
1/2+x,1/2+y,z
1/2-x,1/2+y,1/2-z
1/2-x,1/2-y,-z
1/2+x,1/2-y,1/2+z
loop_
_atom_site_type_symbol
_atom_site_label
_atom_site_fract_x
_atom_site_fract_y
_atom_site_fract_z
Si Si1 0.778729 0.827360 0.208198
Si Si2 0.121065 0.801251 0.055960
Si Si3 0.896211 0.671727 0.064142
Si Si4 0.356024 0.341249 0.942782
Si Si5 0.343209 0.870458 0.826776
Si Si6 0.536119 0.593012 0.824902
Si Si7 0.252313 0.619446 0.041684
O O1 0.745859 0.750690 0.139436
O O2 0.765884 0.696602 0.241879
O O3 0.909020 0.899187 0.282423
O O4 0.694736 0.967624 0.173332
O O5 0.157541 0.748416 0.129225
O O6 0.181482 0.686614 0.050003
O O7 0.158909 0.976124 0.066795
O O8 0.978873 0.801038 0.980993
O O9 0.896052 0.764967 0.114086
O O10 0.027356 0.615114 0.125024
O O11 0.869686 0.785570 0.005176
O O12 0.813532 0.527022 0.015546
O O13 0.500000 0.611794 0.750000
O O14 0.618039 0.443915 0.875448
O O15 0.250000 0.750000 0.000000
#
# Coordination Sequence:
#
# PCOD9276031 Si02
#       7
#     8   8   8   8   8   8   8
#     4  11  22  37  60  90 124 160 199 252 313 364
#     4  10  21  38  62  93 119 153 204 255 309 362
#     4  10  22  41  63  87 115 158 207 248 301 362
#     4  10  20  39  67  91 118 154 204 263 310 363
#     4  10  21  37  61  89 119 152 197 257 309 356
#     4  11  24  41  61  87 123 167 204 245 305 375
#     4  12  25  41  62  89 124 165 208 252 300 371
#
# _framework density 20.354305
#
# number of rings (size 3 to 8) (size 9 to 14) (size 15 to 20)
#    0.000    1.429    0.000    5.571    0.000    8.000 
#    0.000    3.571    0.000    1.714    0.000    0.000 
#    0.000    0.000    0.000    0.000    0.000    0.000 
#
# Total GULP energy -156453.817563 kJ/mol
# GULP energy per Si atom -5587.636342 kJ/mol
# Density = 2.030798 g / cm^3
# Si number density = 20.354305 Si / 1000 Ang^3
#
#
#
# Elastic Constant Matrix: (Units=GPa)
#
#
# Indices 1 2 3 4 5 6 
#
# 1 72.0332 38.0275 32.0086 0.0000 -1.4627 0.0000
# 2 38.0275 114.0505 64.0702 0.0000 -0.2640 0.0000
# 3 32.0086 64.0702 108.2285 0.0000 -11.5632 0.0000
# 4 0.0000 0.0000 0.0000 32.0415 0.0000 -0.6710
# 5 -1.4627 -0.2640 -11.5632 0.0000 36.7015 0.0000
# 6 0.0000 0.0000 0.0000 -0.6710 0.0000 28.0543
#
#
#
# Elastic Compliance Matrix: (Units=1/GPa)
#
#
# Indices 1 2 3 4 5 6 
#
# 1 0.017306 -0.004324 -0.002575 0.000000 -0.000153 0.000000
# 2 -0.004324 0.014432 -0.007525 0.000000 -0.002439 0.000000
# 3 -0.002575 -0.007525 0.014942 0.000000 0.004551 0.000000
# 4 0.000000 0.000000 0.000000 0.031225 0.000000 0.000747
# 5 -0.000153 -0.002439 0.004551 0.000000 0.028657 0.000000
# 6 0.000000 0.000000 0.000000 0.000747 0.000000 0.035663
#
#
# Mechanical properties :
#
#
# Convention : Reuss Voigt Hill
#
# Bulk Modulus (GPa) = 56.07922 62.50276 59.29099
# Shear Modulus (GPa) = 28.24579 30.03986 29.14283
#
# Velocity S-wave (km/s) = 3.72923 3.84584 3.78799
# Velocity P-wave (km/s) = 6.79369 7.10597 6.95158
#
# Compressibility (1/GPa) = 0.01783192
#
# Stress axis : x y z
#
# Youngs Moduli (GPa) = 57.78214 69.29231 66.92484
#
# Poissons Ratio (x) = 0.29965 0.17231
# Poissons Ratio (y) = 0.24987 0.50361
# Poissons Ratio (z) = 0.14877 0.52143
#
# Static dielectric constant tensor:
#      x y z
#    x 1.752560 0.000000 0.028490 
#    y 0.000000 1.684670 0.000000 
#    z 0.028490 0.000000 1.738670 
# 
# From -- ./inp_files/298561.got.cif
#   From: 2010.05.17/outbox.cif.g08.bks.cpg/sg15_150_cif.got.tgz:298561.got - 2010.06.03 18:47:42.
