data_PCOD9276435
_publ_section_title
;
Structure prediction by ZEFSAII (Michael W. Deem and Ramdas Pophale) SiO2 
 PCOD9276435
Probable space group: C 2/C
;
_chemical_formula_sum "Si O2"
_cell_formula_units_Z 48
_cell_length_a 11.303977
_cell_length_b 21.781848
_cell_length_c 13.174566
_cell_angle_alpha 90.000000
_cell_angle_beta 139.388531
_cell_angle_gamma 90.000000
_cell_volume 2111.514416
_symmetry_space_group_name_H-M "C 2/C"
_symmetry_group_IT_number 15
_symmetry_cell_setting 'monoclinic'
loop_
_space_group_symop_operation_xyz
x,y,z
-x,y,1/2-z
-x,-y,-z
x,-y,1/2+z
1/2+x,1/2+y,z
1/2-x,1/2+y,1/2-z
1/2-x,1/2-y,-z
1/2+x,1/2-y,1/2+z
loop_
_atom_site_type_symbol
_atom_site_label
_atom_site_fract_x
_atom_site_fract_y
_atom_site_fract_z
Si Si1 0.027814 0.832894 0.086920
Si Si2 0.416022 0.895940 0.851772
Si Si3 0.267261 0.430024 0.981302
Si Si4 0.849180 0.185057 0.062849
Si Si5 0.827092 0.272639 0.709852
Si Si6 0.783078 0.939355 0.588685
O O1 0.962096 0.896299 0.095551
O O2 0.846929 0.790643 0.968958
O O3 0.073243 0.832740 0.997484
O O4 0.177446 0.794530 0.244864
O O5 0.631647 0.899852 0.975375
O O6 0.324256 0.918878 0.687399
O O7 0.352674 0.824752 0.813883
O O8 0.333732 0.938943 0.884803
O O9 0.264749 0.501259 0.007377
O O10 0.725643 0.125876 0.004738
O O11 0.000000 0.188916 0.250000
O O12 0.750000 0.250000 0.000000
O O13 0.000000 0.278360 0.750000
O O14 0.000000 0.936121 0.750000
#
# Coordination Sequence:
#
# PCOD9276435 Si02
#       6
#     8   8   8   8   8   8
#     4  11  22  38  63  92 128 162 206 261 308 371
#     4  10  20  40  62  84 122 162 205 252 309 369
#     4  10  21  39  61  90 121 161 205 255 312 365
#     4  11  23  43  65  91 125 165 209 251 311 374
#     4  11  20  37  62  93 122 163 203 257 314 362
#     4  11  23  39  63  88 122 164 202 254 311 370
#
# _framework density 22.732498
#
# number of rings (size 3 to 8) (size 9 to 14) (size 15 to 20)
#    0.000    1.333    3.333    7.000    0.000    3.333 
#    3.000    0.000    0.000    0.000    0.000    0.000 
#    0.000    0.000    0.000    0.000    0.000    0.000 
#
# Total GULP energy -134036.754269 kJ/mol
# GULP energy per Si atom -5584.864761 kJ/mol
# Density = 2.268076 g / cm^3
# Si number density = 22.732498 Si / 1000 Ang^3
#
#
#
# Elastic Constant Matrix: (Units=GPa)
#
#
# Indices 1 2 3 4 5 6 
#
# 1 127.8761 34.5895 5.3636 0.0000 -11.1292 0.0000
# 2 34.5895 176.7105 27.4072 0.0000 -16.0966 0.0000
# 3 5.3636 27.4072 21.5018 0.0000 -6.9775 0.0000
# 4 0.0000 0.0000 0.0000 21.9376 0.0000 -2.2253
# 5 -11.1292 -16.0966 -6.9775 0.0000 14.3123 0.0000
# 6 0.0000 0.0000 0.0000 -2.2253 0.0000 23.1714
#
#
#
# Elastic Compliance Matrix: (Units=1/GPa)
#
#
# Indices 1 2 3 4 5 6 
#
# 1 0.008646 -0.001393 0.001534 0.000000 0.005905 0.000000
# 2 -0.001393 0.007499 -0.008108 0.000000 0.003398 0.000000
# 3 0.001534 -0.008108 0.064015 0.000000 0.023283 0.000000
# 4 0.000000 0.000000 0.000000 0.046032 0.000000 0.004421
# 5 0.005905 0.003398 0.023283 0.000000 0.089634 0.000000
# 6 0.000000 0.000000 0.000000 0.004421 0.000000 0.043581
#
#
# Mechanical properties :
#
#
# Convention : Reuss Voigt Hill
#
# Bulk Modulus (GPa) = 15.56954 51.20101 33.38528
# Shear Modulus (GPa) = 16.84924 29.13280 22.99102
#
# Velocity S-wave (km/s) = 2.72545 3.58376 3.18366
# Velocity P-wave (km/s) = 4.09487 6.30052 5.31340
#
# Compressibility (1/GPa) = 0.06422798
#
# Stress axis : x y z
#
# Youngs Moduli (GPa) = 115.65619 133.35855 15.62126
#
# Poissons Ratio (x) = 0.18570 -0.02397
# Poissons Ratio (y) = 0.16105 0.12666
# Poissons Ratio (z) = -0.17747 1.08128
#
# Static dielectric constant tensor:
#      x y z
#    x 1.915670 0.000000 0.022280 
#    y 0.000000 1.909700 0.000000 
#    z 0.022280 0.000000 1.882200 
# 
# From -- ./inp_files/147457.got.cif
#   From: 2010.05.17/outbox.cif.g08.bks.cpg/sg15_74_cif.got.tgz:147457.got - 2010.06.03 18:47:42.
