data_PCOD9276192
_publ_section_title
;
Structure prediction by ZEFSAII (Michael W. Deem and Ramdas Pophale) SiO2 
 PCOD9276192
Probable space group: C 2/C
;
_chemical_formula_sum "Si O2"
_cell_formula_units_Z 40
_cell_length_a 17.591390
_cell_length_b 7.739324
_cell_length_c 26.884098
_cell_angle_alpha 90.000000
_cell_angle_beta 29.873182
_cell_angle_gamma 90.000000
_cell_volume 1823.053592
_symmetry_space_group_name_H-M "C 2/C"
_symmetry_group_IT_number 15
_symmetry_cell_setting 'monoclinic'
loop_
_space_group_symop_operation_xyz
x,y,z
-x,y,1/2-z
-x,-y,-z
x,-y,1/2+z
1/2+x,1/2+y,z
1/2-x,1/2+y,1/2-z
1/2-x,1/2-y,-z
1/2+x,1/2-y,1/2+z
loop_
_atom_site_type_symbol
_atom_site_label
_atom_site_fract_x
_atom_site_fract_y
_atom_site_fract_z
Si Si1 0.728688 0.774687 0.427656
Si Si2 0.478719 0.794177 0.498934
Si Si3 0.006219 0.815077 0.620117
Si Si4 0.329312 0.986752 0.940036
Si Si5 0.648416 0.394207 0.697229
O O1 0.583538 0.701577 0.480209
O O2 0.667020 0.874091 0.511677
O O3 0.841552 0.632430 0.385157
O O4 0.810412 0.917102 0.347573
O O5 0.533515 0.736892 0.413414
O O6 0.296099 0.774648 0.604232
O O7 0.500000 0.000000 0.500000
O O8 0.049451 0.636633 0.623009
O O9 0.885400 0.903442 0.724979
O O10 0.160680 0.928150 0.533334
O O11 0.500000 0.338136 0.750000
#
# Coordination Sequence:
#
# PCOD9276192 Si02
#       5
#     8   8   8   8   8
#     4  10  21  42  66  93 137 168 209 281 330 374
#     4  10  21  42  65  94 139 169 208 284 328 374
#     4  11  20  39  71  95 123 180 222 259 327 402
#     4  10  20  39  70  94 125 176 214 265 335 388
#     4  11  20  39  67  95 131 177 220 265 320 398
#
# _framework density 21.941210000000002
#
# number of rings (size 3 to 8) (size 9 to 14) (size 15 to 20)
#    0.000    1.600    6.000    1.200    0.000    0.800 
#    7.200    3.000    0.000    0.000    0.000    0.000 
#    0.000    0.000    0.000    0.000    0.000    0.000 
#
# Total GULP energy -111701.722661 kJ/mol
# GULP energy per Si atom -5585.086133 kJ/mol
# Density = 2.189127 g / cm^3
# Si number density = 21.941210 Si / 1000 Ang^3
#
#
#
# Elastic Constant Matrix: (Units=GPa)
#
#
# Indices 1 2 3 4 5 6 
#
# 1 174.6468 46.4036 51.9285 -0.0002 12.3391 0.0009
# 2 46.4036 47.9573 13.5861 -0.0004 14.8608 0.0017
# 3 51.9285 13.5861 76.0619 0.0010 17.1095 -0.0001
# 4 -0.0002 -0.0004 0.0010 19.1114 0.0000 18.9142
# 5 12.3391 14.8608 17.1095 0.0000 32.5987 -0.0002
# 6 0.0009 0.0017 -0.0001 18.9142 -0.0002 39.9619
#
#
#
# Elastic Compliance Matrix: (Units=1/GPa)
#
#
# Indices 1 2 3 4 5 6 
#
# 1 0.009453 -0.008564 -0.005666 0.000000 0.003300 0.000000
# 2 -0.008564 0.032339 0.003013 0.000003 -0.013082 -0.000003
# 3 -0.005666 0.003013 0.018486 -0.000002 -0.008932 0.000001
# 4 0.000000 0.000003 -0.000002 0.098433 -0.000001 -0.046589
# 5 0.003300 -0.013082 -0.008932 -0.000001 0.040078 0.000001
# 6 0.000000 -0.000003 0.000001 -0.046589 0.000001 0.047075
#
#
# Mechanical properties :
#
#
# Convention : Reuss Voigt Hill
#
# Bulk Modulus (GPa) = 26.42436 58.05585 42.24010
# Shear Modulus (GPa) = 17.79910 30.78425 24.29168
#
# Velocity S-wave (km/s) = 2.85128 3.74977 3.33096
# Velocity P-wave (km/s) = 4.78635 6.72792 5.83841
#
# Compressibility (1/GPa) = 0.03784387
#
# Stress axis : x y z
#
# Youngs Moduli (GPa) = 105.78740 30.92277 54.09361
#
# Poissons Ratio (x) = 0.26482 0.30651
# Poissons Ratio (y) = 0.90596 -0.16299
# Poissons Ratio (z) = 0.59942 -0.09318
#
# Static dielectric constant tensor:
#      x y z
#    x 1.829230 0.000000 -0.022200 
#    y 0.000000 1.885520 0.000000 
#    z -0.022200 0.000000 1.826070 
# 
# From -- ./inp_files/221808.got.cif
#   From: 2010.05.17/outbox.cif.g08.bks.cpg/sg15_111_cif.got.tgz:221808.got - 2010.06.03 18:47:42.
