data_PCOD9276231
_publ_section_title
;
Structure prediction by ZEFSAII (Michael W. Deem and Ramdas Pophale) SiO2 
 PCOD9276231
Probable space group: C 2/C
;
_chemical_formula_sum "Si O2"
_cell_formula_units_Z 40
_cell_length_a 18.040272
_cell_length_b 16.144976
_cell_length_c 11.457719
_cell_angle_alpha 90.000000
_cell_angle_beta 150.368988
_cell_angle_gamma 90.000000
_cell_volume 1649.939511
_symmetry_space_group_name_H-M "C 2/C"
_symmetry_group_IT_number 15
_symmetry_cell_setting 'monoclinic'
loop_
_space_group_symop_operation_xyz
x,y,z
-x,y,1/2-z
-x,-y,-z
x,-y,1/2+z
1/2+x,1/2+y,z
1/2-x,1/2+y,1/2-z
1/2-x,1/2-y,-z
1/2+x,1/2-y,1/2+z
loop_
_atom_site_type_symbol
_atom_site_label
_atom_site_fract_x
_atom_site_fract_y
_atom_site_fract_z
Si Si1 0.511654 0.600522 0.005173
Si Si2 0.228208 0.236487 0.831056
Si Si3 0.254326 0.578911 0.001502
Si Si4 0.543795 0.844223 0.017498
Si Si5 0.500000 0.027007 0.250000
Si Si6 0.500000 0.451204 0.250000
O O1 0.630178 0.631408 0.262111
O O2 0.500000 0.500000 0.000000
O O3 0.356246 0.648172 0.804882
O O4 0.552052 0.606338 0.925808
O O5 0.374014 0.223944 0.951476
O O6 0.106148 0.305944 0.631980
O O7 0.250000 0.250000 0.000000
O O8 0.155851 0.625414 0.771278
O O9 0.144702 0.530738 0.938901
O O10 0.360267 0.510731 0.085583
O O11 0.503748 0.917187 0.871481
#
# Coordination Sequence:
#
# PCOD9276231 Si02
#       6
#     8   8   8   8   4   4
#     4  10  23  42  72 102 138 187 246 298 361 438
#     4  12  26  46  70 105 146 193 242 300 371 449
#     4  11  24  44  69 109 144 189 245 310 365 432
#     4  12  26  45  74 103 152 192 243 307 371 444
#     4  12  24  45  70 111 148 188 248 306 376 441
#     4  10  20  39  76  99 140 186 246 296 358 439
#
# _framework density 24.243313000000001
#
# number of rings (size 3 to 8) (size 9 to 14) (size 15 to 20)
#    0.000    0.800    2.000    6.600    2.800    2.400 
#    0.000    0.000    0.000    0.000    0.000    0.000 
#    0.000    0.000    0.000    0.000    0.000    0.000 
#
# Total GULP energy -111963.999798 kJ/mol
# GULP energy per Si atom -5598.199990 kJ/mol
# Density = 2.418813 g / cm^3
# Si number density = 24.243313 Si / 1000 Ang^3
#
#
#
# Elastic Constant Matrix: (Units=GPa)
#
#
# Indices 1 2 3 4 5 6 
#
# 1 43.2009 1.9869 -0.3885 0.0000 4.5653 0.0000
# 2 1.9869 79.4579 23.5141 0.0000 -5.0259 0.0000
# 3 -0.3885 23.5141 118.8628 0.0000 -24.6758 0.0000
# 4 0.0000 0.0000 0.0000 30.1277 0.0000 18.0256
# 5 4.5653 -5.0259 -24.6758 0.0000 65.5009 0.0000
# 6 0.0000 0.0000 0.0000 18.0256 0.0000 23.1697
#
#
#
# Elastic Compliance Matrix: (Units=1/GPa)
#
#
# Indices 1 2 3 4 5 6 
#
# 1 0.023360 -0.000648 -0.000156 0.000000 -0.001737 0.000000
# 2 -0.000648 0.013386 -0.002634 0.000000 0.000080 0.000000
# 3 -0.000156 -0.002634 0.009648 0.000000 0.003444 0.000000
# 4 0.000000 0.000000 0.000000 0.062096 0.000000 -0.048309
# 5 -0.001737 0.000080 0.003444 0.000000 0.016691 0.000000
# 6 0.000000 0.000000 0.000000 -0.048309 0.000000 0.080744
#
#
# Mechanical properties :
#
#
# Convention : Reuss Voigt Hill
#
# Bulk Modulus (GPa) = 25.30416 32.41628 28.86022
# Shear Modulus (GPa) = 22.12657 38.18692 30.15674
#
# Velocity S-wave (km/s) = 3.02435 3.97312 3.53075
# Velocity P-wave (km/s) = 4.75981 5.86923 5.34339
#
# Compressibility (1/GPa) = 0.03951919
#
# Stress axis : x y z
#
# Youngs Moduli (GPa) = 42.80898 74.70545 103.64385
#
# Poissons Ratio (x) = 0.04839 0.01617
# Poissons Ratio (y) = 0.02773 0.27295
# Poissons Ratio (z) = 0.00668 0.19674
#
# Static dielectric constant tensor:
#      x y z
#    x 2.017390 0.000000 0.001410 
#    y 0.000000 2.031580 0.000000 
#    z 0.001410 0.000000 2.040700 
# 
# From -- ./inp_files/85820.got.cif
#   From: 2010.05.17/outbox.cif.g08.bks.cpg/sg15_43_cif.got.tgz:85820.got - 2010.06.03 18:47:42.
