data_PCOD9276514
_publ_section_title
;
Structure prediction by ZEFSAII (Michael W. Deem and Ramdas Pophale) SiO2 
 PCOD9276514
Probable space group: C 2/C
;
_chemical_formula_sum "Si O2"
_cell_formula_units_Z 64
_cell_length_a 12.031667
_cell_length_b 12.020943
_cell_length_c 21.796201
_cell_angle_alpha 90.000000
_cell_angle_beta 69.447258
_cell_angle_gamma 90.000000
_cell_volume 2951.773917
_symmetry_space_group_name_H-M "C 2/C"
_symmetry_group_IT_number 15
_symmetry_cell_setting 'monoclinic'
loop_
_space_group_symop_operation_xyz
x,y,z
-x,y,1/2-z
-x,-y,-z
x,-y,1/2+z
1/2+x,1/2+y,z
1/2-x,1/2+y,1/2-z
1/2-x,1/2-y,-z
1/2+x,1/2-y,1/2+z
loop_
_atom_site_type_symbol
_atom_site_label
_atom_site_fract_x
_atom_site_fract_y
_atom_site_fract_z
Si Si1 0.662202 0.579614 0.162677
Si Si2 0.567868 0.677474 0.676402
Si Si3 0.718068 0.367603 0.475027
Si Si4 0.010773 0.096617 0.411823
Si Si5 0.845748 0.882177 0.147881
Si Si6 0.372482 0.783515 0.243285
Si Si7 0.139422 0.498445 0.964594
Si Si8 0.320173 0.775914 0.109390
O O1 0.616682 0.450690 0.179012
O O2 0.565312 0.630142 0.133965
O O3 0.659310 0.659596 0.222567
O O4 0.788551 0.572385 0.102139
O O5 0.500000 0.713252 0.750000
O O6 0.467139 0.678384 0.644252
O O7 0.681920 0.751794 0.641476
O O8 0.750000 0.250000 0.500000
O O9 0.596887 0.426847 0.521386
O O10 0.706782 0.345330 0.406292
O O11 0.814786 0.453793 0.479484
O O12 0.089068 0.185687 0.431748
O O13 0.104422 0.006129 0.370785
O O14 0.737737 0.861950 0.215040
O O15 0.500000 0.812821 0.250000
O O16 0.367779 0.792549 0.170278
O O17 0.174944 0.620860 0.936891
O O18 0.000000 0.500000 0.000000
#
# Coordination Sequence:
#
# PCOD9276514 Si02
#       8
#     8   8   8   8   8   8   8   8
#     4   9  20  37  65  93 120 171 229 266 319 390
#     4  10  20  40  62  93 128 169 208 266 335 392
#     4  11  23  44  72  98 123 167 230 274 323 400
#     4  10  21  40  62  93 127 170 216 268 321 396
#     4  11  24  41  67  93 129 169 220 273 329 398
#     4  12  23  37  65  99 130 170 230 280 319 391
#     4  10  22  39  63  96 133 168 211 280 342 387
#     4  11  23  38  63  95 132 172 217 268 336 394
#
# _framework density 21.681878000000001
#
# number of rings (size 3 to 8) (size 9 to 14) (size 15 to 20)
#    0.000    1.500    2.500    3.750    3.500    0.000 
#    0.000    5.625    0.000    0.000    0.000    0.000 
#    0.000    0.000    0.000    0.000    0.000    0.000 
#
# Total GULP energy -178401.222491 kJ/mol
# GULP energy per Si atom -5575.038203 kJ/mol
# Density = 2.163253 g / cm^3
# Si number density = 21.681878 Si / 1000 Ang^3
#
#
#
# Elastic Constant Matrix: (Units=GPa)
#
#
# Indices 1 2 3 4 5 6 
#
# 1 153.3113 31.8912 24.2316 0.0000 -18.0918 0.0000
# 2 31.8912 41.0536 -11.0292 0.0000 -1.0742 0.0000
# 3 24.2316 -11.0292 37.7302 0.0000 -0.7281 0.0000
# 4 0.0000 0.0000 0.0000 13.3309 0.0000 -1.2666
# 5 -18.0918 -1.0742 -0.7281 0.0000 47.1604 0.0000
# 6 0.0000 0.0000 0.0000 -1.2666 0.0000 23.7192
#
#
#
# Elastic Compliance Matrix: (Units=1/GPa)
#
#
# Indices 1 2 3 4 5 6 
#
# 1 0.010875 -0.011076 -0.010149 0.000000 0.003763 0.000000
# 2 -0.011076 0.037740 0.018085 0.000000 -0.003110 0.000000
# 3 -0.010149 0.018085 0.038253 0.000000 -0.002891 0.000000
# 4 0.000000 0.000000 0.000000 0.075396 0.000000 0.004026
# 5 0.003763 -0.003110 -0.002891 0.000000 0.022532 0.000000
# 6 0.000000 0.000000 0.000000 0.004026 0.000000 0.042375
#
#
# Mechanical properties :
#
#
# Convention : Reuss Voigt Hill
#
# Bulk Modulus (GPa) = 12.40885 35.80915 24.10900
# Shear Modulus (GPa) = 19.20762 29.30886 24.25824
#
# Velocity S-wave (km/s) = 2.97961 3.68063 3.34851
# Velocity P-wave (km/s) = 4.19202 5.88339 5.10819
#
# Compressibility (1/GPa) = 0.08058763
#
# Stress axis : x y z
#
# Youngs Moduli (GPa) = 91.95545 26.49733 26.14175
#
# Poissons Ratio (x) = 0.29348 0.26532
# Poissons Ratio (y) = 1.01849 -0.47278
# Poissons Ratio (z) = 0.93328 -0.47921
#
# Static dielectric constant tensor:
#      x y z
#    x 1.761230 0.000000 0.036620 
#    y 0.000000 1.854000 0.000000 
#    z 0.036620 0.000000 1.858290 
# 
# From -- ./inp_files/269236.got.cif
#   From: 2010.05.17/outbox.cif.g08.bks.cpg/sg15_135_cif.got.tgz:269236.got - 2010.06.03 18:47:42.
