data_PCOD9276093
_publ_section_title
;
Structure prediction by ZEFSAII (Michael W. Deem and Ramdas Pophale) SiO2 
 PCOD9276093
Probable space group: C 2/C
;
_chemical_formula_sum "Si O2"
_cell_formula_units_Z 48
_cell_length_a 14.349670
_cell_length_b 15.660795
_cell_length_c 14.932046
_cell_angle_alpha 90.000000
_cell_angle_beta 37.749441
_cell_angle_gamma 90.000000
_cell_volume 2054.353369
_symmetry_space_group_name_H-M "C 2/C"
_symmetry_group_IT_number 15
_symmetry_cell_setting 'monoclinic'
loop_
_space_group_symop_operation_xyz
x,y,z
-x,y,1/2-z
-x,-y,-z
x,-y,1/2+z
1/2+x,1/2+y,z
1/2-x,1/2+y,1/2-z
1/2-x,1/2-y,-z
1/2+x,1/2-y,1/2+z
loop_
_atom_site_type_symbol
_atom_site_label
_atom_site_fract_x
_atom_site_fract_y
_atom_site_fract_z
Si Si1 0.394786 0.328211 0.548108
Si Si2 0.315908 0.030531 0.528646
Si Si3 0.130641 0.194282 0.712439
Si Si4 0.863067 0.745707 0.044721
Si Si5 0.151213 0.418557 0.818170
Si Si6 0.327711 0.877271 0.402382
O O1 0.270116 0.259228 0.612851
O O2 0.537493 0.332496 0.372507
O O3 0.471987 0.290100 0.579131
O O4 0.297313 0.411864 0.643204
O O5 0.203708 0.109940 0.614838
O O6 0.493432 0.060098 0.388068
O O7 0.317700 0.984001 0.624672
O O8 0.262341 0.963717 0.494131
O O9 0.000000 0.233523 0.750000
O O10 0.835072 0.688071 0.979680
O O11 0.862824 0.675610 0.124699
O O12 0.749776 0.826465 0.120269
O O13 0.500000 0.898400 0.250000
#
# Coordination Sequence:
#
# PCOD9276093 Si02
#       6
#     8   8   8   8   8   8
#     4  12  23  42  72  94 125 177 235 281 335 408
#     4  10  23  42  62  96 145 178 215 281 345 404
#     4  12  26  43  65  94 131 173 230 292 339 403
#     4  10  20  39  68 102 133 173 234 281 327 410
#     4  10  21  41  69  98 132 180 227 271 341 414
#     4  10  22  37  66 102 141 180 218 279 347 409
#
# _framework density 23.365017000000002
#
# number of rings (size 3 to 8) (size 9 to 14) (size 15 to 20)
#    0.000    1.333    3.333    1.500    0.000    3.333 
#    0.000    2.500    0.000    0.000    0.000    0.000 
#    0.000    0.000    0.000    0.000    0.000    0.000 
#
# Total GULP energy -134036.311812 kJ/mol
# GULP energy per Si atom -5584.846326 kJ/mol
# Density = 2.331184 g / cm^3
# Si number density = 23.365017 Si / 1000 Ang^3
#
#
#
# Elastic Constant Matrix: (Units=GPa)
#
#
# Indices 1 2 3 4 5 6 
#
# 1 63.3691 27.2805 6.1521 -0.0004 -21.4247 -0.0002
# 2 27.2805 65.0598 17.4764 -0.0001 -7.4718 0.0000
# 3 6.1521 17.4764 45.5344 -0.0009 -17.1202 -0.0003
# 4 -0.0004 -0.0001 -0.0009 159.2132 0.0007 75.0053
# 5 -21.4247 -7.4718 -17.1202 0.0007 33.9634 0.0003
# 6 -0.0002 0.0000 -0.0003 75.0053 0.0003 82.2457
#
#
#
# Elastic Compliance Matrix: (Units=1/GPa)
#
#
# Indices 1 2 3 4 5 6 
#
# 1 0.025543 -0.010640 0.007170 0.000000 0.017386 0.000000
# 2 -0.010640 0.021578 -0.009356 0.000000 -0.006681 0.000000
# 3 0.007170 -0.009356 0.031476 0.000000 0.018331 0.000000
# 4 0.000000 0.000000 0.000000 0.011012 0.000000 -0.010042
# 5 0.017386 -0.006681 0.018331 0.000000 0.048181 0.000000
# 6 0.000000 0.000000 0.000000 -0.010042 0.000000 0.021317
#
#
# Mechanical properties :
#
#
# Convention : Reuss Voigt Hill
#
# Bulk Modulus (GPa) = 18.88785 30.64236 24.76511
# Shear Modulus (GPa) = 24.70257 63.28807 43.99532
#
# Velocity S-wave (km/s) = 3.25506 5.21013 4.34401
# Velocity P-wave (km/s) = 4.71472 7.02404 5.98188
#
# Compressibility (1/GPa) = 0.05294409
#
# Stress axis : x y z
#
# Youngs Moduli (GPa) = 39.14931 46.34376 31.77046
#
# Poissons Ratio (x) = 0.49309 -0.22778
# Poissons Ratio (y) = 0.41654 0.29725
# Poissons Ratio (z) = -0.28068 0.43360
#
# Static dielectric constant tensor:
#      x y z
#    x 1.962450 0.000000 0.073030 
#    y 0.000000 1.893880 0.000000 
#    z 0.073030 0.000000 1.910970 
# 
# From -- ./inp_files/206383.got.cif
#   From: 2010.05.17/outbox.cif.g08.bks.cpg/sg15_104_cif.got.tgz:206383.got - 2010.06.03 18:47:42.
