data_PCOD9276794
_publ_section_title
;
Structure prediction by ZEFSAII (Michael W. Deem and Ramdas Pophale) SiO2 
 PCOD9276794
Probable space group: C 2/C
;
_chemical_formula_sum "Si O2"
_cell_formula_units_Z 64
_cell_length_a 14.465456
_cell_length_b 10.349744
_cell_length_c 25.656019
_cell_angle_alpha 90.000000
_cell_angle_beta 40.162510
_cell_angle_gamma 90.000000
_cell_volume 2477.321036
_symmetry_space_group_name_H-M "C 2/C"
_symmetry_group_IT_number 15
_symmetry_cell_setting 'monoclinic'
loop_
_space_group_symop_operation_xyz
x,y,z
-x,y,1/2-z
-x,-y,-z
x,-y,1/2+z
1/2+x,1/2+y,z
1/2-x,1/2+y,1/2-z
1/2-x,1/2-y,-z
1/2+x,1/2-y,1/2+z
loop_
_atom_site_type_symbol
_atom_site_label
_atom_site_fract_x
_atom_site_fract_y
_atom_site_fract_z
Si Si1 0.219873 0.372568 0.187570
Si Si2 0.113826 0.891116 0.768621
Si Si3 0.684697 0.375571 0.463106
Si Si4 0.613546 0.021127 0.837147
Si Si5 0.218442 0.920448 0.567054
Si Si6 0.743121 0.302227 0.084076
Si Si7 0.484654 0.738735 0.901207
Si Si8 0.886445 0.214320 0.117773
O O1 0.148998 0.230112 0.216880
O O2 0.242838 0.429224 0.120264
O O3 0.126372 0.447700 0.270255
O O4 0.379008 0.348341 0.142951
O O5 0.224708 0.004651 0.710314
O O6 0.157047 0.844346 0.808394
O O7 0.948170 0.922446 0.843725
O O8 0.728720 0.223765 0.444364
O O9 0.727450 0.435981 0.500132
O O10 0.512260 0.369800 0.537989
O O11 0.537557 0.886283 0.878874
O O12 0.548989 0.145403 0.893568
O O13 0.286234 0.045884 0.564414
O O14 0.591644 0.291389 0.120452
O O15 0.758741 0.240448 0.133586
O O16 0.860624 0.228994 0.997834
#
# Coordination Sequence:
#
# PCOD9276794 Si02
#       8
#     8   8   8   8   8   8   8   8
#     4  10  20  40  65  87 122 173 208 248 323 378
#     4   9  21  40  57  88 127 160 203 265 311 380
#     4  10  21  40  64  93 124 163 214 267 302 378
#     4  10  21  40  64  88 125 171 204 257 319 384
#     4  10  22  38  61  94 127 155 213 269 312 357
#     4  11  22  39  65  96 123 162 209 267 309 365
#     4  10  22  39  62  95 130 154 213 267 305 376
#     4  10  21  40  68  89 120 168 216 251 316 373
#
# _framework density 25.834357000000001
#
# number of rings (size 3 to 8) (size 9 to 14) (size 15 to 20)
#    0.000    2.000    1.250    1.500    3.500    2.500 
#    4.500   11.250    8.250    0.000    0.000    0.000 
#    0.000    0.000    0.000    0.000    0.000    0.000 
#
# Total GULP energy -179295.928852 kJ/mol
# GULP energy per Si atom -5602.997777 kJ/mol
# Density = 2.577556 g / cm^3
# Si number density = 25.834357 Si / 1000 Ang^3
#
#
#
# Elastic Constant Matrix: (Units=GPa)
#
#
# Indices 1 2 3 4 5 6 
#
# 1 100.1175 2.2081 31.6083 0.0000 11.7877 0.0000
# 2 2.2081 83.0404 6.2911 0.0000 3.5858 0.0000
# 3 31.6083 6.2911 103.9087 0.0000 11.1316 0.0000
# 4 0.0000 0.0000 0.0000 14.6904 0.0000 -9.1045
# 5 11.7877 3.5858 11.1316 0.0000 39.0112 0.0000
# 6 0.0000 0.0000 0.0000 -9.1045 0.0000 15.9559
#
#
#
# Elastic Compliance Matrix: (Units=1/GPa)
#
#
# Indices 1 2 3 4 5 6 
#
# 1 0.011282 0.000048 -0.003166 0.000000 -0.002510 0.000000
# 2 0.000048 0.012131 -0.000648 0.000000 -0.000945 0.000000
# 3 -0.003166 -0.000648 0.010849 0.000000 -0.002079 0.000000
# 4 0.000000 0.000000 0.000000 0.105315 0.000000 0.060093
# 5 -0.002510 -0.000945 -0.002079 0.000000 0.027072 0.000000
# 6 0.000000 0.000000 0.000000 0.060093 0.000000 0.096962
#
#
# Mechanical properties :
#
#
# Convention : Reuss Voigt Hill
#
# Bulk Modulus (GPa) = 37.41012 40.80908 39.10960
# Shear Modulus (GPa) = 17.85375 30.39544 24.12459
#
# Velocity S-wave (km/s) = 2.63170 3.43381 3.05916
# Velocity P-wave (km/s) = 4.87306 5.61713 5.25827
#
# Compressibility (1/GPa) = 0.02673073
#
# Stress axis : x y z
#
# Youngs Moduli (GPa) = 88.63454 82.43389 92.17515
#
# Poissons Ratio (x) = -0.00398 0.29183
# Poissons Ratio (y) = -0.00428 0.05972
# Poissons Ratio (z) = 0.28062 0.05341
#
# Static dielectric constant tensor:
#      x y z
#    x 2.039320 0.000000 0.005350 
#    y 0.000000 2.024770 0.000000 
#    z 0.005350 0.000000 1.985980 
# 
# From -- ./inp_files/296103.got.cif
#   From: 2010.05.17/outbox.cif.g08.bks.cpg/sg15_149_cif.got.tgz:296103.got - 2010.06.03 18:47:42.
