data_PCOD9276365
_publ_section_title
;
Structure prediction by ZEFSAII (Michael W. Deem and Ramdas Pophale) SiO2 
 PCOD9276365
Probable space group: C 2/C
;
_chemical_formula_sum "Si O2"
_cell_formula_units_Z 52
_cell_length_a 20.591599
_cell_length_b 16.464517
_cell_length_c 14.313313
_cell_angle_alpha 90.000000
_cell_angle_beta 149.298056
_cell_angle_gamma 90.000000
_cell_volume 2477.629183
_symmetry_space_group_name_H-M "C 2/C"
_symmetry_group_IT_number 15
_symmetry_cell_setting 'monoclinic'
loop_
_space_group_symop_operation_xyz
x,y,z
-x,y,1/2-z
-x,-y,-z
x,-y,1/2+z
1/2+x,1/2+y,z
1/2-x,1/2+y,1/2-z
1/2-x,1/2-y,-z
1/2+x,1/2-y,1/2+z
loop_
_atom_site_type_symbol
_atom_site_label
_atom_site_fract_x
_atom_site_fract_y
_atom_site_fract_z
Si Si1 0.659630 0.767092 0.141744
Si Si2 0.908402 0.558935 0.940383
Si Si3 0.500000 0.071024 0.250000
Si Si4 0.504161 0.606350 0.587944
Si Si5 0.237294 0.331958 0.037472
Si Si6 0.647324 0.276366 0.954300
Si Si7 0.617915 0.559624 0.527499
O O1 0.572962 0.845205 0.064420
O O2 0.716312 0.806086 0.118415
O O3 0.773835 0.748413 0.355376
O O4 0.579444 0.687960 0.017056
O O5 0.762616 0.545099 0.735961
O O6 0.000000 0.500000 0.000000
O O7 0.930927 0.533792 0.076301
O O8 0.612987 0.123828 0.345939
O O9 0.634694 0.618077 0.805093
O O10 0.539764 0.591804 0.522043
O O11 0.438049 0.529727 0.554394
O O12 0.250000 0.250000 0.000000
O O13 0.500000 0.247658 0.750000
O O14 0.750000 0.250000 0.000000
O O15 0.626188 0.372622 0.955458
#
# Coordination Sequence:
#
# PCOD9276365 Si02
#       7
#     8   8   4   8   8   8   8
#     4  10  23  43  69 101 137 183 241 291 368 436
#     4  10  21  44  67  96 142 181 230 295 355 432
#     4  10  20  40  60  96 136 170 230 282 360 424
#     4  11  21  43  74  98 145 182 233 305 364 439
#     4  11  21  39  69 104 133 176 230 294 369 436
#     4  11  23  46  76 104 147 200 252 300 363 454
#     4  10  23  45  67 102 139 189 238 296 366 422
#
# _framework density 20.987807
#
# number of rings (size 3 to 8) (size 9 to 14) (size 15 to 20)
#    0.000    1.538    4.615    2.769    0.000    2.462 
#   11.077    3.077    0.000    0.000    0.000    0.000 
#    0.000    0.000    0.000    0.000    0.000    0.000 
#
# Total GULP energy -144787.392911 kJ/mol
# GULP energy per Si atom -5568.745881 kJ/mol
# Density = 2.094004 g / cm^3
# Si number density = 20.987807 Si / 1000 Ang^3
#
#
#
# Elastic Constant Matrix: (Units=GPa)
#
#
# Indices 1 2 3 4 5 6 
#
# 1 57.8938 26.8217 24.5922 0.0000 10.6046 0.0000
# 2 26.8217 110.5856 30.9728 0.0000 30.4052 0.0000
# 3 24.5922 30.9728 146.2790 0.0000 18.5618 0.0000
# 4 0.0000 0.0000 0.0000 20.1194 0.0000 11.9342
# 5 10.6046 30.4052 18.5618 0.0000 27.6827 0.0000
# 6 0.0000 0.0000 0.0000 11.9342 0.0000 36.6076
#
#
#
# Elastic Compliance Matrix: (Units=1/GPa)
#
#
# Indices 1 2 3 4 5 6 
#
# 1 0.020385 -0.003682 -0.002371 0.000000 -0.002175 0.000000
# 2 -0.003682 0.013762 -0.000608 0.000000 -0.013298 0.000000
# 3 -0.002371 -0.000608 0.007830 0.000000 -0.003674 0.000000
# 4 0.000000 0.000000 0.000000 0.061619 0.000000 -0.020088
# 5 -0.002175 -0.013298 -0.003674 0.000000 0.054026 0.000000
# 6 0.000000 0.000000 0.000000 -0.020088 0.000000 0.033865
#
#
# Mechanical properties :
#
#
# Convention : Reuss Voigt Hill
#
# Bulk Modulus (GPa) = 34.89859 53.28130 44.08994
# Shear Modulus (GPa) = 23.32522 32.37339 27.84931
#
# Velocity S-wave (km/s) = 3.33734 3.93171 3.64665
# Velocity P-wave (km/s) = 5.61378 6.78624 6.22766
#
# Compressibility (1/GPa) = 0.02865446
#
# Stress axis : x y z
#
# Youngs Moduli (GPa) = 49.05680 72.66305 127.71680
#
# Poissons Ratio (x) = 0.26755 0.30287
# Poissons Ratio (y) = 0.18063 0.07760
# Poissons Ratio (z) = 0.11634 0.04415
#
# Static dielectric constant tensor:
#      x y z
#    x 1.805860 0.000000 -0.041060 
#    y 0.000000 1.764560 0.000000 
#    z -0.041060 0.000000 1.758520 
# 
# From -- ./inp_files/169017.got.cif
#   From: 2010.05.17/outbox.cif.g08.bks.cpg/sg15_85_cif.got.tgz:169017.got - 2010.06.03 18:47:42.
