data_PCOD9276077
_publ_section_title
;
Structure prediction by ZEFSAII (Michael W. Deem and Ramdas Pophale) SiO2 
 PCOD9276077
Probable space group: C 2/C
;
_chemical_formula_sum "Si O2"
_cell_formula_units_Z 52
_cell_length_a 10.040782
_cell_length_b 25.142070
_cell_length_c 11.828522
_cell_angle_alpha 90.000000
_cell_angle_beta 60.450408
_cell_angle_gamma 90.000000
_cell_volume 2597.663773
_symmetry_space_group_name_H-M "C 2/C"
_symmetry_group_IT_number 15
_symmetry_cell_setting 'monoclinic'
loop_
_space_group_symop_operation_xyz
x,y,z
-x,y,1/2-z
-x,-y,-z
x,-y,1/2+z
1/2+x,1/2+y,z
1/2-x,1/2+y,1/2-z
1/2-x,1/2-y,-z
1/2+x,1/2-y,1/2+z
loop_
_atom_site_type_symbol
_atom_site_label
_atom_site_fract_x
_atom_site_fract_y
_atom_site_fract_z
Si Si1 0.647550 0.851308 0.270878
Si Si2 0.500000 0.624382 0.250000
Si Si3 0.705873 0.088159 0.260052
Si Si4 0.396866 0.231084 0.506825
Si Si5 0.500000 0.171313 0.250000
Si Si6 0.513209 0.940132 0.044584
Si Si7 0.647366 0.698432 0.005004
Si Si8 0.500000 0.995602 0.250000
O O1 0.500000 0.846579 0.250000
O O2 0.641988 0.808333 0.374129
O O3 0.632099 0.906917 0.348178
O O4 0.779631 0.835901 0.127443
O O5 0.382610 0.591185 0.220202
O O6 0.607804 0.661735 0.128180
O O7 0.648736 0.133250 0.197339
O O8 0.607449 0.094242 0.417339
O O9 0.632515 0.033996 0.242110
O O10 0.250000 0.250000 0.500000
O O11 0.498184 0.204473 0.365532
O O12 0.489261 0.278530 0.524456
O O13 0.591371 0.956405 0.128446
O O14 0.500000 0.000000 0.000000
O O15 0.750000 0.750000 0.000000
#
# Coordination Sequence:
#
# PCOD9276077 Si02
#       8
#     8   4   8   8   4   8   8   4
#     4  12  22  40  69  98 131 178 232 282 332 402
#     4  12  24  40  61  90 138 170 211 272 342 402
#     4  10  21  39  61  93 121 167 213 266 335 393
#     4  12  24  40  61  94 138 178 223 272 333 401
#     4  11  20  38  60  86 122 168 218 260 315 384
#     4  10  20  39  67  98 122 167 228 282 329 400
#     4  12  24  41  63  96 132 180 229 274 330 407
#     4   9  20  36  71  92 116 156 221 276 325 392
#
# _framework density 20.017986000000001
#
# number of rings (size 3 to 8) (size 9 to 14) (size 15 to 20)
#    0.000    0.923    3.846    4.615    0.000    0.000 
#    0.000    0.769    0.000    0.000    0.000    0.000 
#    0.000    0.000    0.000    0.000    0.000    0.000 
#
# Total GULP energy -144735.683785 kJ/mol
# GULP energy per Si atom -5566.757069 kJ/mol
# Density = 1.997242 g / cm^3
# Si number density = 20.017986 Si / 1000 Ang^3
#
#
#
# Elastic Constant Matrix: (Units=GPa)
#
#
# Indices 1 2 3 4 5 6 
#
# 1 107.4778 27.1176 -15.4692 0.0000 3.7182 0.0000
# 2 27.1176 85.5746 33.9643 0.0000 -1.2321 0.0000
# 3 -15.4692 33.9643 100.4693 0.0000 11.3852 0.0000
# 4 0.0000 0.0000 0.0000 35.3223 0.0000 18.2001
# 5 3.7182 -1.2321 11.3852 0.0000 26.6335 0.0000
# 6 0.0000 0.0000 0.0000 18.2001 0.0000 18.9230
#
#
#
# Elastic Compliance Matrix: (Units=1/GPa)
#
#
# Indices 1 2 3 4 5 6 
#
# 1 0.011286 -0.005165 0.003877 0.000000 -0.003472 0.000000
# 2 -0.005165 0.016049 -0.006712 0.000000 0.004333 0.000000
# 3 0.003877 -0.006712 0.013573 0.000000 -0.006654 0.000000
# 4 0.000000 0.000000 0.000000 0.056125 0.000000 -0.053981
# 5 -0.003472 0.004333 -0.006654 0.000000 0.041076 0.000000
# 6 0.000000 0.000000 0.000000 -0.053981 0.000000 0.104764
#
#
# Mechanical properties :
#
#
# Convention : Reuss Voigt Hill
#
# Bulk Modulus (GPa) = 40.14713 42.74969 41.44841
# Shear Modulus (GPa) = 18.71437 32.70301 25.70869
#
# Velocity S-wave (km/s) = 3.06089 4.04627 3.58757
# Velocity P-wave (km/s) = 5.70887 6.57508 6.15723
#
# Compressibility (1/GPa) = 0.02490838
#
# Stress axis : x y z
#
# Youngs Moduli (GPa) = 88.60861 62.31052 73.67475
#
# Poissons Ratio (x) = 0.32184 -0.28565
# Poissons Ratio (y) = 0.45767 0.49447
# Poissons Ratio (z) = -0.34355 0.41820
#
# Static dielectric constant tensor:
#      x y z
#    x 1.732170 0.000000 0.074010 
#    y 0.000000 1.839250 0.000000 
#    z 0.074010 0.000000 1.922150 
# 
# From -- ./inp_files/81212.got.cif
#   From: 2010.05.17/outbox.cif.g08.bks.cpg/sg15_41_cif.got.tgz:81212.got - 2010.06.03 18:47:42.
