data_PCOD9276587
_publ_section_title
;
Structure prediction by ZEFSAII (Michael W. Deem and Ramdas Pophale) SiO2 
 PCOD9276587
Probable space group: C 2/C
;
_chemical_formula_sum "Si O2"
_cell_formula_units_Z 48
_cell_length_a 25.063846
_cell_length_b 9.501464
_cell_length_c 13.621819
_cell_angle_alpha 90.000000
_cell_angle_beta 136.144899
_cell_angle_gamma 90.000000
_cell_volume 2247.524306
_symmetry_space_group_name_H-M "C 2/C"
_symmetry_group_IT_number 15
_symmetry_cell_setting 'monoclinic'
loop_
_space_group_symop_operation_xyz
x,y,z
-x,y,1/2-z
-x,-y,-z
x,-y,1/2+z
1/2+x,1/2+y,z
1/2-x,1/2+y,1/2-z
1/2-x,1/2-y,-z
1/2+x,1/2-y,1/2+z
loop_
_atom_site_type_symbol
_atom_site_label
_atom_site_fract_x
_atom_site_fract_y
_atom_site_fract_z
Si Si1 0.784944 0.783418 0.942099
Si Si2 0.139190 0.670168 0.798499
Si Si3 0.816538 0.092054 0.989936
Si Si4 0.487466 0.845756 0.527814
Si Si5 0.100835 0.533120 0.425037
Si Si6 0.134569 0.722924 0.117993
O O1 0.714758 0.811655 0.775808
O O2 0.832311 0.926874 0.017139
O O3 0.750000 0.750000 0.000000
O O4 0.829975 0.642935 0.975135
O O5 0.224078 0.620437 0.876478
O O6 0.085176 0.704695 0.634052
O O7 0.104089 0.546605 0.823338
O O8 0.148669 0.808974 0.878418
O O9 0.850071 0.145151 0.931410
O O10 0.466666 0.874166 0.613082
O O11 0.565166 0.762480 0.603829
O O12 0.500000 0.000000 0.500000
O O13 0.113426 0.403692 0.516355
#
# Coordination Sequence:
#
# PCOD9276587 Si02
#       6
#     8   8   8   8   8   8
#     4  12  22  38  61  92 120 155 208 257 306 362
#     4  10  20  40  63  92 117 164 211 250 312 356
#     4  10  21  38  64  88 123 158 205 259 303 371
#     4  10  21  38  64  92 123 160 210 255 298 372
#     4  10  22  37  65  91 119 161 200 266 296 365
#     4  10  22  40  62  89 121 161 203 252 313 364
#
# _framework density 21.356832000000001
#
# number of rings (size 3 to 8) (size 9 to 14) (size 15 to 20)
#    0.000    1.667    1.667    4.000    0.000    6.000 
#    3.000    0.833    3.667    0.000    0.000    0.000 
#    0.000    0.000    0.000    0.000    0.000    0.000 
#
# Total GULP energy -133911.155794 kJ/mol
# GULP energy per Si atom -5579.631491 kJ/mol
# Density = 2.130822 g / cm^3
# Si number density = 21.356832 Si / 1000 Ang^3
#
#
#
# Elastic Constant Matrix: (Units=GPa)
#
#
# Indices 1 2 3 4 5 6 
#
# 1 137.9839 20.9142 24.4721 0.0000 -2.7325 0.0000
# 2 20.9142 76.2731 24.8498 0.0000 -2.0176 0.0000
# 3 24.4721 24.8498 73.3181 0.0000 -7.4568 0.0000
# 4 0.0000 0.0000 0.0000 9.2399 0.0000 5.4119
# 5 -2.7325 -2.0176 -7.4568 0.0000 25.4035 0.0000
# 6 0.0000 0.0000 0.0000 5.4119 0.0000 35.0807
#
#
#
# Elastic Compliance Matrix: (Units=1/GPa)
#
#
# Indices 1 2 3 4 5 6 
#
# 1 0.007845 -0.001460 -0.002113 0.000000 0.000108 0.000000
# 2 -0.001460 0.015012 -0.004634 0.000000 -0.000325 0.000000
# 3 -0.002113 -0.004634 0.016342 0.000000 0.004202 0.000000
# 4 0.000000 0.000000 0.000000 0.118977 0.000000 -0.018355
# 5 0.000108 -0.000325 0.004202 0.000000 0.040584 0.000000
# 6 0.000000 0.000000 0.000000 -0.018355 0.000000 0.031337
#
#
# Mechanical properties :
#
#
# Convention : Reuss Voigt Hill
#
# Bulk Modulus (GPa) = 43.88552 47.56082 45.72317
# Shear Modulus (GPa) = 19.67674 28.43408 24.05541
#
# Velocity S-wave (km/s) = 3.03864 3.65277 3.35976
# Velocity P-wave (km/s) = 5.73624 6.33311 6.04205
#
# Compressibility (1/GPa) = 0.02278656
#
# Stress axis : x y z
#
# Youngs Moduli (GPa) = 127.46376 66.61236 61.19089
#
# Poissons Ratio (x) = 0.09725 0.12929
# Poissons Ratio (y) = 0.18610 0.28355
# Poissons Ratio (z) = 0.26931 0.30867
#
# Static dielectric constant tensor:
#      x y z
#    x 1.907930 0.000000 0.190950 
#    y 0.000000 1.732570 0.000000 
#    z 0.190950 0.000000 2.131780 
# 
# From -- ./inp_files/176961.got.cif
#   From: 2010.05.17/outbox.cif.g08.bks.cpg/sg15_89_cif.got.tgz:176961.got - 2010.06.03 18:47:42.
