data_PCOD9276166
_publ_section_title
;
Structure prediction by ZEFSAII (Michael W. Deem and Ramdas Pophale) SiO2 
 PCOD9276166
Probable space group: C 2/C
;
_chemical_formula_sum "Si O2"
_cell_formula_units_Z 32
_cell_length_a 24.873362
_cell_length_b 7.901935
_cell_length_c 15.385051
_cell_angle_alpha 90.000000
_cell_angle_beta 157.258831
_cell_angle_gamma 90.000000
_cell_volume 1168.943992
_symmetry_space_group_name_H-M "C 2/C"
_symmetry_group_IT_number 15
_symmetry_cell_setting 'monoclinic'
loop_
_space_group_symop_operation_xyz
x,y,z
-x,y,1/2-z
-x,-y,-z
x,-y,1/2+z
1/2+x,1/2+y,z
1/2-x,1/2+y,1/2-z
1/2-x,1/2-y,-z
1/2+x,1/2-y,1/2+z
loop_
_atom_site_type_symbol
_atom_site_label
_atom_site_fract_x
_atom_site_fract_y
_atom_site_fract_z
Si Si1 0.030911 0.781470 0.392257
Si Si2 0.788801 0.906594 0.296573
Si Si3 0.531672 0.809928 0.194354
Si Si4 0.783457 0.009410 0.588277
O O1 0.137075 0.656186 0.599552
O O2 0.000000 0.717093 0.250000
O O3 0.123267 0.955416 0.519034
O O4 0.884404 0.837340 0.213041
O O5 0.884635 0.737666 0.432791
O O6 0.774936 0.982115 0.179554
O O7 0.500000 0.806079 0.250000
O O8 0.629093 0.972213 0.321733
O O9 0.627368 0.652857 0.308106
#
# Coordination Sequence:
#
# PCOD9276166 Si02
#       4
#     8   8   8   8
#     4  11  25  43  65  96 132 171 219 269 319 384
#     4  11  23  41  67  96 130 173 217 265 323 384
#     4  10  20  39  69  97 126 171 219 264 321 385
#     4  10  22  41  66  97 131 169 217 268 320 385
#
# _framework density 27.375136000000001
#
# number of rings (size 3 to 8) (size 9 to 14) (size 15 to 20)
#    0.000    1.500    0.000    7.500    0.000   10.000 
#    0.000    2.500    0.000    0.000    0.000    0.000 
#    0.000    0.000    0.000    0.000    0.000    0.000 
#
# Total GULP energy -89573.013666 kJ/mol
# GULP energy per Si atom -5598.313354 kJ/mol
# Density = 2.731283 g / cm^3
# Si number density = 27.375136 Si / 1000 Ang^3
#
#
#
# Elastic Constant Matrix: (Units=GPa)
#
#
# Indices 1 2 3 4 5 6 
#
# 1 76.1862 34.8075 35.4464 0.0000 18.6119 0.0000
# 2 34.8075 148.9825 54.7754 0.0000 19.6845 0.0000
# 3 35.4464 54.7754 210.2283 0.0000 55.6823 0.0000
# 4 0.0000 0.0000 0.0000 66.2673 0.0000 24.1954
# 5 18.6119 19.6845 55.6823 0.0000 43.4008 0.0000
# 6 0.0000 0.0000 0.0000 24.1954 0.0000 24.1775
#
#
#
# Elastic Compliance Matrix: (Units=1/GPa)
#
#
# Indices 1 2 3 4 5 6 
#
# 1 0.015881 -0.002838 -0.000720 0.000000 -0.004599 0.000000
# 2 -0.002838 0.007982 -0.001461 0.000000 -0.000529 0.000000
# 3 -0.000720 -0.001461 0.007576 0.000000 -0.008748 0.000000
# 4 0.000000 0.000000 0.000000 0.023779 0.000000 -0.023796
# 5 -0.004599 -0.000529 -0.008748 0.000000 0.036477 0.000000
# 6 0.000000 0.000000 0.000000 -0.023796 0.000000 0.065175
#
#
# Mechanical properties :
#
#
# Convention : Reuss Voigt Hill
#
# Bulk Modulus (GPa) = 46.72729 76.16175 61.44452
# Shear Modulus (GPa) = 28.72868 47.46031 38.09449
#
# Velocity S-wave (km/s) = 3.24303 4.16829 3.73443
# Velocity P-wave (km/s) = 5.57936 7.14480 6.41005
#
# Compressibility (1/GPa) = 0.02140077
#
# Stress axis : x y z
#
# Youngs Moduli (GPa) = 62.96869 125.27648 131.99571
#
# Poissons Ratio (x) = 0.35552 0.09504
# Poissons Ratio (y) = 0.17870 0.19289
# Poissons Ratio (z) = 0.04534 0.18307
#
# Static dielectric constant tensor:
#      x y z
#    x 2.049810 0.000000 0.084310 
#    y 0.000000 2.250620 0.000000 
#    z 0.084310 0.000000 2.118490 
# 
# From -- ./inp_files/172535.got.cif
#   From: 2010.05.17/outbox.cif.g08.bks.cpg/sg15_87_cif.got.tgz:172535.got - 2010.06.03 18:47:42.
