data_PCOD9276634
_publ_section_title
;
Structure prediction by ZEFSAII (Michael W. Deem and Ramdas Pophale) SiO2 
 PCOD9276634
Probable space group: C 2/C
;
_chemical_formula_sum "Si O2"
_cell_formula_units_Z 40
_cell_length_a 24.831982
_cell_length_b 6.993309
_cell_length_c 15.820608
_cell_angle_alpha 90.000000
_cell_angle_beta 142.486176
_cell_angle_gamma 90.000000
_cell_volume 1673.019194
_symmetry_space_group_name_H-M "C 2/C"
_symmetry_group_IT_number 15
_symmetry_cell_setting 'monoclinic'
loop_
_space_group_symop_operation_xyz
x,y,z
-x,y,1/2-z
-x,-y,-z
x,-y,1/2+z
1/2+x,1/2+y,z
1/2-x,1/2+y,1/2-z
1/2-x,1/2-y,-z
1/2+x,1/2-y,1/2+z
loop_
_atom_site_type_symbol
_atom_site_label
_atom_site_fract_x
_atom_site_fract_y
_atom_site_fract_z
Si Si1 0.755014 0.739152 0.171298
Si Si2 0.094762 0.761014 0.374417
Si Si3 0.617023 0.977880 0.242520
Si Si4 0.246852 0.817556 0.851342
Si Si5 0.947352 0.625315 0.598270
O O1 0.843821 0.612822 0.281676
O O2 0.718165 0.734040 0.219970
O O3 0.769814 0.955966 0.159403
O O4 0.684438 0.645619 0.018548
O O5 0.113774 0.629397 0.316118
O O6 0.076017 0.599723 0.422119
O O7 0.000000 0.866529 0.250000
O O8 0.688342 0.808853 0.340824
O O9 0.522279 0.873537 0.119628
O O10 0.352118 0.777999 0.981582
O O11 0.000000 0.676680 0.750000
#
# Coordination Sequence:
#
# PCOD9276634 Si02
#       5
#     8   8   8   8   8
#     4  11  21  37  60  86 120 156 193 243 290 346
#     4   8  18  38  61  88 115 154 200 241 289 348
#     4  10  20  40  64  84 115 160 196 239 300 341
#     4  11  22  39  61  88 122 154 196 243 292 351
#     4   8  19  38  60  88 118 154 198 244 291 345
#
# _framework density 23.908871000000001
#
# number of rings (size 3 to 8) (size 9 to 14) (size 15 to 20)
#    0.000    2.800    2.000    0.600    0.000    8.000 
#    3.600    8.000    0.000   10.800    0.000    0.000 
#    0.000    0.000    0.000    0.000    0.000    0.000 
#
# Total GULP energy -111437.489684 kJ/mol
# GULP energy per Si atom -5571.874484 kJ/mol
# Density = 2.385445 g / cm^3
# Si number density = 23.908871 Si / 1000 Ang^3
#
#
#
# Elastic Constant Matrix: (Units=GPa)
#
#
# Indices 1 2 3 4 5 6 
#
# 1 86.2179 20.2748 26.0869 0.0000 35.8355 0.0000
# 2 20.2748 101.7638 19.2222 0.0000 26.7702 0.0000
# 3 26.0869 19.2222 105.1512 0.0000 23.4750 0.0000
# 4 0.0000 0.0000 0.0000 15.0807 0.0000 6.5608
# 5 35.8355 26.7702 23.4750 0.0000 40.3642 0.0000
# 6 0.0000 0.0000 0.0000 6.5608 0.0000 17.1611
#
#
#
# Elastic Compliance Matrix: (Units=1/GPa)
#
#
# Indices 1 2 3 4 5 6 
#
# 1 0.018539 0.000818 -0.001096 0.000000 -0.016365 0.000000
# 2 0.000818 0.011960 -0.000524 0.000000 -0.008354 0.000000
# 3 -0.001096 -0.000524 0.011013 0.000000 -0.005084 0.000000
# 4 0.000000 0.000000 0.000000 0.079539 0.000000 -0.030408
# 5 -0.016365 -0.008354 -0.005084 0.000000 0.047801 0.000000
# 6 0.000000 0.000000 0.000000 -0.030408 0.000000 0.069897
#
#
# Mechanical properties :
#
#
# Convention : Reuss Voigt Hill
#
# Bulk Modulus (GPa) = 25.05692 47.14453 36.10073
# Shear Modulus (GPa) = 19.71177 29.69113 24.70145
#
# Velocity S-wave (km/s) = 2.87445 3.52781 3.21775
# Velocity P-wave (km/s) = 4.63891 6.02952 5.37934
#
# Compressibility (1/GPa) = 0.03990913
#
# Stress axis : x y z
#
# Youngs Moduli (GPa) = 53.93890 83.61029 90.80277
#
# Poissons Ratio (x) = -0.06841 0.09948
# Poissons Ratio (y) = -0.04413 0.04762
# Poissons Ratio (z) = 0.05909 0.04385
#
# Static dielectric constant tensor:
#      x y z
#    x 1.990200 0.000000 0.048360 
#    y 0.000000 1.927390 0.000000 
#    z 0.048360 0.000000 2.047530 
# 
# From -- ./inp_files/218409.got.cif
#   From: 2010.05.17/outbox.cif.g08.bks.cpg/sg15_110_cif.got.tgz:218409.got - 2010.06.03 18:47:42.
