data_PCOD9276210
_publ_section_title
;
Structure prediction by ZEFSAII (Michael W. Deem and Ramdas Pophale) SiO2 
 PCOD9276210
Probable space group: C 2/C
;
_chemical_formula_sum "Si O2"
_cell_formula_units_Z 40
_cell_length_a 9.134244
_cell_length_b 21.304948
_cell_length_c 8.545693
_cell_angle_alpha 90.000000
_cell_angle_beta 94.778027
_cell_angle_gamma 90.000000
_cell_volume 1657.251873
_symmetry_space_group_name_H-M "C 2/C"
_symmetry_group_IT_number 15
_symmetry_cell_setting 'monoclinic'
loop_
_space_group_symop_operation_xyz
x,y,z
-x,y,1/2-z
-x,-y,-z
x,-y,1/2+z
1/2+x,1/2+y,z
1/2-x,1/2+y,1/2-z
1/2-x,1/2-y,-z
1/2+x,1/2-y,1/2+z
loop_
_atom_site_type_symbol
_atom_site_label
_atom_site_fract_x
_atom_site_fract_y
_atom_site_fract_z
Si Si1 0.898169 0.717257 0.461795
Si Si2 0.500000 0.130206 0.750000
Si Si3 0.204606 0.570209 0.532652
Si Si4 0.500000 0.118518 0.250000
Si Si5 0.896009 0.955867 0.588175
Si Si6 0.025925 0.161220 0.064653
O O1 0.750000 0.750000 0.500000
O O2 0.950843 0.673758 0.605458
O O3 0.887910 0.669173 0.316911
O O4 0.013734 0.775204 0.464184
O O5 0.634400 0.092091 0.688866
O O6 0.083557 0.577289 0.385565
O O7 0.253044 0.498546 0.573406
O O8 0.334071 0.618615 0.481740
O O9 0.000000 0.948326 0.750000
O O10 0.890037 0.886556 0.518676
O O11 0.000000 0.000000 0.500000
O O12 0.000000 0.177305 0.250000
#
# Coordination Sequence:
#
# PCOD9276210 Si02
#       6
#     8   4   8   4   8   8
#     4  11  23  38  62  98 138 175 225 273 348 403
#     4  10  24  38  62 101 135 186 214 278 336 410
#     4  10  22  43  67 101 142 171 236 270 347 408
#     4  10  24  38  64 105 137 190 210 284 340 408
#     4   9  20  40  71 100 124 172 231 284 333 394
#     4  10  20  39  71  96 129 178 226 294 325 400
#
# _framework density 24.136344999999999
#
# number of rings (size 3 to 8) (size 9 to 14) (size 15 to 20)
#    0.000    2.000    1.000    1.200    2.800    4.800 
#    1.800    4.000    0.000   68.400    0.000    0.000 
#    0.000    0.000    0.000    0.000    0.000    0.000 
#
# Total GULP energy -111506.962472 kJ/mol
# GULP energy per Si atom -5575.348124 kJ/mol
# Density = 2.408141 g / cm^3
# Si number density = 24.136345 Si / 1000 Ang^3
#
#
#
# Elastic Constant Matrix: (Units=GPa)
#
#
# Indices 1 2 3 4 5 6 
#
# 1 84.5700 28.7993 -0.8995 0.0000 -9.1414 0.0000
# 2 28.7993 116.9974 36.8577 0.0000 14.2664 0.0000
# 3 -0.8995 36.8577 43.7806 0.0000 -3.8645 0.0000
# 4 0.0000 0.0000 0.0000 -1.0730 0.0000 -23.1721
# 5 -9.1414 14.2664 -3.8645 0.0000 37.4525 0.0000
# 6 0.0000 0.0000 0.0000 -23.1721 0.0000 23.1962
#
#
#
# Elastic Compliance Matrix: (Units=1/GPa)
#
#
# Indices 1 2 3 4 5 6 
#
# 1 0.014823 -0.006469 0.006346 0.000000 0.006737 0.000000
# 2 -0.006469 0.015694 -0.014141 0.000000 -0.009016 0.000000
# 3 0.006346 -0.014141 0.035815 0.000000 0.010631 0.000000
# 4 0.000000 0.000000 0.000000 -0.041286 0.000000 -0.041244
# 5 0.006737 -0.009016 0.010631 0.000000 0.032876 0.000000
# 6 0.000000 0.000000 0.000000 -0.041244 0.000000 0.001910
#
#
# Mechanical properties :
#
#
# Convention : Reuss Voigt Hill
#
# Bulk Modulus (GPa) = 26.45328 41.65145 34.05237
# Shear Modulus (GPa) = 49.52334 23.95450 36.73892
#
# Velocity S-wave (km/s) = 4.53461 3.15376 3.90570
# Velocity P-wave (km/s) = 6.19683 5.52773 5.87182
#
# Compressibility (1/GPa) = 0.03780250
#
# Stress axis : x y z
#
# Youngs Moduli (GPa) = 67.46129 63.71879 27.92133
#
# Poissons Ratio (x) = 0.41222 -0.17718
# Poissons Ratio (y) = 0.43643 0.39484
# Poissons Ratio (z) = -0.42808 0.90105
#
# Static dielectric constant tensor:
#      x y z
#    x 1.987360 0.000000 -0.015780 
#    y 0.000000 2.085820 0.000000 
#    z -0.015780 0.000000 1.879030 
# 
# From -- ./inp_files/23798.got.cif
#   From: 2010.05.17/outbox.cif.g08.bks.cpg/sg15_12_cif.got.tgz:23798.got - 2010.06.03 18:47:42.
