data_PCOD9276656
_publ_section_title
;
Structure prediction by ZEFSAII (Michael W. Deem and Ramdas Pophale) SiO2 
 PCOD9276656
Probable space group: C 2/C
;
_chemical_formula_sum "Si O2"
_cell_formula_units_Z 48
_cell_length_a 15.919545
_cell_length_b 10.682780
_cell_length_c 24.672646
_cell_angle_alpha 90.000000
_cell_angle_beta 147.038521
_cell_angle_gamma 90.000000
_cell_volume 2282.913627
_symmetry_space_group_name_H-M "C 2/C"
_symmetry_group_IT_number 15
_symmetry_cell_setting 'monoclinic'
loop_
_space_group_symop_operation_xyz
x,y,z
-x,y,1/2-z
-x,-y,-z
x,-y,1/2+z
1/2+x,1/2+y,z
1/2-x,1/2+y,1/2-z
1/2-x,1/2-y,-z
1/2+x,1/2-y,1/2+z
loop_
_atom_site_type_symbol
_atom_site_label
_atom_site_fract_x
_atom_site_fract_y
_atom_site_fract_z
Si Si1 0.900789 0.610934 0.069876
Si Si2 0.371132 0.068491 0.768168
Si Si3 0.337759 0.233825 0.604479
Si Si4 0.467530 0.619249 0.883309
Si Si5 0.234204 0.979503 0.589693
Si Si6 0.394064 0.515062 0.645408
O O1 0.830197 0.580022 0.091301
O O2 0.035724 0.509443 0.136555
O O3 0.966338 0.748630 0.100565
O O4 0.763455 0.587577 0.953126
O O5 0.493398 0.170791 0.812440
O O6 0.212886 0.125355 0.703662
O O7 0.319129 0.969909 0.693017
O O8 0.250000 0.250000 0.500000
O O9 0.240613 0.129560 0.583886
O O10 0.352068 0.371751 0.636237
O O11 0.510134 0.520769 0.858961
O O12 0.565428 0.577071 0.988927
O O13 0.500000 0.569421 0.750000
#
# Coordination Sequence:
#
# PCOD9276656 Si02
#       6
#     8   8   8   8   8   8
#     4  10  22  40  62  91 122 162 210 247 297 380
#     4  11  23  39  64  94 124 159 201 262 308 360
#     4  11  19  39  66  86 118 161 209 246 295 372
#     4  11  24  38  62  93 129 155 199 263 312 353
#     4  10  20  40  64  88 118 166 210 242 299 380
#     4  11  22  40  64  87 118 166 204 244 304 371
#
# _framework density 21.025762
#
# number of rings (size 3 to 8) (size 9 to 14) (size 15 to 20)
#    0.000    1.333    5.000    5.500    2.333    2.667 
#    0.000    2.500    0.000    0.000    0.000    0.000 
#    0.000    0.000    0.000    0.000    0.000    0.000 
#
# Total GULP energy -134022.007092 kJ/mol
# GULP energy per Si atom -5584.250296 kJ/mol
# Density = 2.097791 g / cm^3
# Si number density = 21.025762 Si / 1000 Ang^3
#
#
#
# Elastic Constant Matrix: (Units=GPa)
#
#
# Indices 1 2 3 4 5 6 
#
# 1 38.7989 22.9364 33.7805 0.0000 9.8726 0.0000
# 2 22.9364 91.0823 11.3679 0.0000 15.8614 0.0000
# 3 33.7805 11.3679 158.8853 0.0000 3.7549 0.0000
# 4 0.0000 0.0000 0.0000 26.4743 0.0000 7.3366
# 5 9.8726 15.8614 3.7549 0.0000 35.6167 0.0000
# 6 0.0000 0.0000 0.0000 7.3366 0.0000 11.7015
#
#
#
# Elastic Compliance Matrix: (Units=1/GPa)
#
#
# Indices 1 2 3 4 5 6 
#
# 1 0.038430 -0.007618 -0.007473 0.000000 -0.006472 0.000000
# 2 -0.007618 0.013497 0.000748 0.000000 -0.003978 0.000000
# 3 -0.007473 0.000748 0.007807 0.000000 0.000915 0.000000
# 4 0.000000 0.000000 0.000000 0.045715 0.000000 -0.028663
# 5 -0.006472 -0.003978 0.000915 0.000000 0.031546 0.000000
# 6 0.000000 0.000000 0.000000 -0.028663 0.000000 0.103430
#
#
# Mechanical properties :
#
#
# Convention : Reuss Voigt Hill
#
# Bulk Modulus (GPa) = 32.20657 47.21513 39.71085
# Shear Modulus (GPa) = 17.89161 29.47062 23.68111
#
# Velocity S-wave (km/s) = 2.92025 3.74791 3.35967
# Velocity P-wave (km/s) = 5.16927 6.42135 5.82903
#
# Compressibility (1/GPa) = 0.03104957
#
# Stress axis : x y z
#
# Youngs Moduli (GPa) = 26.02114 74.09176 128.08260
#
# Poissons Ratio (x) = 0.56442 0.95712
# Poissons Ratio (y) = 0.19822 -0.09580
# Poissons Ratio (z) = 0.19445 -0.05542
#
# Static dielectric constant tensor:
#      x y z
#    x 1.794040 0.000000 -0.011870 
#    y 0.000000 1.752350 0.000000 
#    z -0.011870 0.000000 1.808530 
# 
# From -- ./inp_files/298790.got.cif
#   From: 2010.05.17/outbox.cif.g08.bks.cpg/sg15_150_cif.got.tgz:298790.got - 2010.06.03 18:47:42.
