data_PCOD9276621
_publ_section_title
;
Structure prediction by ZEFSAII (Michael W. Deem and Ramdas Pophale) SiO2 
 PCOD9276621
Probable space group: C 2/C
;
_chemical_formula_sum "Si O2"
_cell_formula_units_Z 52
_cell_length_a 6.385015
_cell_length_b 18.784896
_cell_length_c 24.990074
_cell_angle_alpha 90.000000
_cell_angle_beta 54.203495
_cell_angle_gamma 90.000000
_cell_volume 2431.153567
_symmetry_space_group_name_H-M "C 2/C"
_symmetry_group_IT_number 15
_symmetry_cell_setting 'monoclinic'
loop_
_space_group_symop_operation_xyz
x,y,z
-x,y,1/2-z
-x,-y,-z
x,-y,1/2+z
1/2+x,1/2+y,z
1/2-x,1/2+y,1/2-z
1/2-x,1/2-y,-z
1/2+x,1/2-y,1/2+z
loop_
_atom_site_type_symbol
_atom_site_label
_atom_site_fract_x
_atom_site_fract_y
_atom_site_fract_z
Si Si1 0.525282 0.836625 0.164468
Si Si2 0.500000 0.963439 0.250000
Si Si3 0.979257 0.006247 0.872022
Si Si4 0.987139 0.734524 0.132955
Si Si5 0.375430 0.140297 0.575289
Si Si6 0.000000 0.253064 0.750000
Si Si7 0.000000 0.000000 0.000000
Si Si8 0.011867 0.404247 0.938779
O O1 0.492493 0.909446 0.201099
O O2 0.745231 0.786395 0.156266
O O3 0.572279 0.854669 0.095237
O O4 0.254095 0.795703 0.207590
O O5 0.761934 0.005287 0.200527
O O6 0.852611 0.083723 0.878146
O O7 0.763978 0.949431 0.888595
O O8 0.024583 0.002563 0.928996
O O9 0.991305 0.668643 0.093026
O O10 0.239173 0.783917 0.087310
O O11 0.979468 0.709022 0.195831
O O12 0.513941 0.113240 0.501699
O O13 0.740499 0.049431 0.034901
#
# Coordination Sequence:
#
# PCOD9276621 Si02
#       8
#     8   4   8   8   8   4   4   8
#     4  11  21  40  70 101 132 176 231 297 343 415
#     4  12  22  42  71 100 133 184 236 288 350 414
#     4  11  25  43  69 102 137 189 237 286 344 432
#     4  11  22  41  68 102 136 177 229 295 356 415
#     4  10  22  41  71 102 133 175 240 289 354 418
#     4  10  20  40  63  98 137 178 226 282 356 414
#     4  10  24  50  70  90 142 192 232 286 352 420
#     4  11  26  44  68 102 142 183 232 293 356 424
#
# _framework density 21.389022000000001
#
# number of rings (size 3 to 8) (size 9 to 14) (size 15 to 20)
#    0.000    1.231    3.077    3.231    4.308    3.077 
#    0.000    4.615    3.385    0.000    0.000    0.000 
#    0.000    0.000    0.000    0.000    0.000    0.000 
#
# Total GULP energy -144944.199662 kJ/mol
# GULP energy per Si atom -5574.776910 kJ/mol
# Density = 2.134034 g / cm^3
# Si number density = 21.389022 Si / 1000 Ang^3
#
#
#
# Elastic Constant Matrix: (Units=GPa)
#
#
# Indices 1 2 3 4 5 6 
#
# 1 88.1066 38.1614 50.1373 0.0000 10.4086 0.0000
# 2 38.1614 78.2250 48.8432 0.0000 -7.7836 0.0000
# 3 50.1373 48.8432 78.8234 0.0000 -8.2508 0.0000
# 4 0.0000 0.0000 0.0000 13.0482 0.0000 0.4947
# 5 10.4086 -7.7836 -8.2508 0.0000 40.2923 0.0000
# 6 0.0000 0.0000 0.0000 0.4947 0.0000 0.7796
#
#
#
# Elastic Compliance Matrix: (Units=1/GPa)
#
#
# Indices 1 2 3 4 5 6 
#
# 1 0.020573 -0.003511 -0.011790 0.000000 -0.008407 -0.000001
# 2 -0.003511 0.021529 -0.010809 0.000000 0.002853 0.000000
# 3 -0.011790 -0.010809 0.027575 0.000000 0.006604 0.000001
# 4 0.000000 0.000000 0.000000 0.078528 0.000000 -0.049828
# 5 -0.008407 0.002853 0.006604 0.000000 0.028894 0.000001
# 6 -0.000001 0.000000 0.000001 -0.049828 0.000001 1.314360
#
#
# Mechanical properties :
#
#
# Convention : Reuss Voigt Hill
#
# Bulk Modulus (GPa) = 57.28345 57.71542 57.49944
# Shear Modulus (GPa) = 3.22685 18.02489 10.62587
#
# Velocity S-wave (km/s) = 1.22960 2.90611 2.23130
# Velocity P-wave (km/s) = 5.37175 6.18893 5.79477
#
# Compressibility (1/GPa) = 0.01745705
#
# Stress axis : x y z
#
# Youngs Moduli (GPa) = 48.60702 46.44835 36.26472
#
# Poissons Ratio (x) = 0.16309 0.42757
# Poissons Ratio (y) = 0.17067 0.39198
# Poissons Ratio (z) = 0.57309 0.50205
#
# Static dielectric constant tensor:
#      x y z
#    x 1.786490 0.000000 0.019290 
#    y 0.000000 1.768190 0.000000 
#    z 0.019290 0.000000 1.798390 
# 
# From -- ./inp_files/261324.got.cif
#   From: 2010.05.17/outbox.cif.g08.bks.cpg/sg15_131_cif.got.tgz:261324.got - 2010.06.03 18:47:42.
