data_PCOD9276284
_publ_section_title
;
Structure prediction by ZEFSAII (Michael W. Deem and Ramdas Pophale) SiO2 
 PCOD9276284
Probable space group: C 2/C
;
_chemical_formula_sum "Si O2"
_cell_formula_units_Z 56
_cell_length_a 18.189769
_cell_length_b 15.242610
_cell_length_c 17.052180
_cell_angle_alpha 90.000000
_cell_angle_beta 147.156041
_cell_angle_gamma 90.000000
_cell_volume 2564.179615
_symmetry_space_group_name_H-M "C 2/C"
_symmetry_group_IT_number 15
_symmetry_cell_setting 'monoclinic'
loop_
_space_group_symop_operation_xyz
x,y,z
-x,y,1/2-z
-x,-y,-z
x,-y,1/2+z
1/2+x,1/2+y,z
1/2-x,1/2+y,1/2-z
1/2-x,1/2-y,-z
1/2+x,1/2-y,1/2+z
loop_
_atom_site_type_symbol
_atom_site_label
_atom_site_fract_x
_atom_site_fract_y
_atom_site_fract_z
Si Si1 0.924012 0.220187 0.064900
Si Si2 0.132428 0.888212 0.142439
Si Si3 0.669515 0.446802 0.588665
Si Si4 0.655132 0.531513 0.894753
Si Si5 0.380834 0.829776 0.600594
Si Si6 0.805187 0.157097 0.123200
Si Si7 0.750476 0.244545 0.363986
O O1 0.898362 0.165042 0.964524
O O2 0.846479 0.178384 0.070231
O O3 0.846322 0.313234 0.990983
O O4 0.083588 0.211967 0.227357
O O5 0.204087 0.819526 0.263907
O O6 0.209107 0.977134 0.184787
O O7 0.989612 0.923499 0.046947
O O8 0.686987 0.482052 0.515689
O O9 0.741464 0.352870 0.664491
O O10 0.765042 0.603284 0.971553
O O11 0.669539 0.446626 0.852534
O O12 0.500000 0.882434 0.750000
O O13 0.340298 0.769293 0.638844
O O14 0.394322 0.770657 0.534767
O O15 0.000000 0.937902 0.250000
#
# Coordination Sequence:
#
# PCOD9276284 Si02
#       7
#     8   8   8   8   8   8   8
#     4  10  21  37  62  87 130 165 211 261 313 384
#     4  11  21  38  60  94 122 169 210 258 314 387
#     4  10  22  37  61  88 124 160 212 262 308 373
#     4  11  19  39  65  93 121 165 218 268 307 382
#     4  10  22  41  64  93 125 162 210 267 324 373
#     4  10  20  40  58  93 124 167 216 261 317 377
#     4  10  22  39  64  90 127 164 207 261 321 380
#
# _framework density 21.839341999999998
#
# number of rings (size 3 to 8) (size 9 to 14) (size 15 to 20)
#    0.000    1.714    2.857    1.714    2.000    5.143 
#    5.143    0.000    0.000    4.286    0.000    0.000 
#    0.000    0.000    0.000    0.000    0.000    0.000 
#
# Total GULP energy -156098.178212 kJ/mol
# GULP energy per Si atom -5574.934936 kJ/mol
# Density = 2.178963 g / cm^3
# Si number density = 21.839342 Si / 1000 Ang^3
#
#
#
# Elastic Constant Matrix: (Units=GPa)
#
#
# Indices 1 2 3 4 5 6 
#
# 1 39.6313 29.9288 20.6864 0.0000 -20.7375 0.0000
# 2 29.9288 112.1263 59.0223 0.0001 -4.1685 0.0000
# 3 20.6864 59.0223 113.4591 0.0001 -14.4966 0.0001
# 4 0.0000 0.0001 0.0001 36.5276 0.0001 -4.9477
# 5 -20.7375 -4.1685 -14.4966 0.0001 29.7380 0.0000
# 6 0.0000 0.0000 0.0001 -4.9477 0.0000 25.9783
#
#
#
# Elastic Compliance Matrix: (Units=1/GPa)
#
#
# Indices 1 2 3 4 5 6 
#
# 1 0.054086 -0.014258 0.002260 0.000000 0.036820 0.000000
# 2 -0.014258 0.016102 -0.007208 0.000000 -0.011199 0.000000
# 3 0.002260 -0.007208 0.013035 0.000000 0.006920 0.000000
# 4 0.000000 0.000000 0.000000 0.028102 0.000000 0.005352
# 5 0.036820 -0.011199 0.006920 0.000000 0.061107 0.000000
# 6 0.000000 0.000000 0.000000 0.005352 0.000000 0.039513
#
#
# Mechanical properties :
#
#
# Convention : Reuss Voigt Hill
#
# Bulk Modulus (GPa) = 22.31488 53.83241 38.07365
# Shear Modulus (GPa) = 18.84710 28.82071 23.83390
#
# Velocity S-wave (km/s) = 2.94085 3.63667 3.30711
# Velocity P-wave (km/s) = 4.66599 6.50666 5.66163
#
# Compressibility (1/GPa) = 0.04481314
#
# Stress axis : x y z
#
# Youngs Moduli (GPa) = 18.48897 62.10446 76.71436
#
# Poissons Ratio (x) = 0.88546 -0.17338
# Poissons Ratio (y) = 0.26361 0.55293
# Poissons Ratio (z) = -0.04179 0.44763
#
# Static dielectric constant tensor:
#      x y z
#    x 1.866500 0.000000 0.082820 
#    y 0.000000 1.925180 0.000000 
#    z 0.082820 0.000000 1.975470 
# 
# From -- ./inp_files/215775.got.cif
#   From: 2010.05.17/outbox.cif.g08.bks.cpg/sg15_108_cif.got.tgz:215775.got - 2010.06.03 18:47:42.
