data_PCOD9276378
_publ_section_title
;
Structure prediction by ZEFSAII (Michael W. Deem and Ramdas Pophale) SiO2 
 PCOD9276378
Probable space group: C 2/C
;
_chemical_formula_sum "Si O2"
_cell_formula_units_Z 64
_cell_length_a 9.204946
_cell_length_b 30.183816
_cell_length_c 12.849558
_cell_angle_alpha 90.000000
_cell_angle_beta 87.789775
_cell_angle_gamma 90.000000
_cell_volume 3567.470292
_symmetry_space_group_name_H-M "C 2/C"
_symmetry_group_IT_number 15
_symmetry_cell_setting 'monoclinic'
loop_
_space_group_symop_operation_xyz
x,y,z
-x,y,1/2-z
-x,-y,-z
x,-y,1/2+z
1/2+x,1/2+y,z
1/2-x,1/2+y,1/2-z
1/2-x,1/2-y,-z
1/2+x,1/2-y,1/2+z
loop_
_atom_site_type_symbol
_atom_site_label
_atom_site_fract_x
_atom_site_fract_y
_atom_site_fract_z
Si Si1 0.354997 0.518584 0.951915
Si Si2 0.221372 0.859682 0.496361
Si Si3 0.000220 0.202553 0.128300
Si Si4 0.532432 0.393232 0.133467
Si Si5 0.836911 0.572069 0.378053
Si Si6 0.022991 0.307108 0.127023
Si Si7 0.742113 0.838090 0.509504
Si Si8 0.675098 0.937883 0.861299
O O1 0.402917 0.557345 0.871534
O O2 0.264272 0.479277 0.902850
O O3 0.500000 0.500000 0.000000
O O4 0.260551 0.542605 0.043373
O O5 0.118182 0.825749 0.561468
O O6 0.341227 0.833664 0.425527
O O7 0.291295 0.893577 0.575556
O O8 0.116155 0.889041 0.426730
O O9 0.000000 0.189066 0.250000
O O10 0.042741 0.254138 0.122955
O O11 0.842857 0.193366 0.078948
O O12 0.500000 0.378251 0.250000
O O13 0.647403 0.361833 0.073141
O O14 0.824646 0.622655 0.417870
O O15 0.786623 0.569028 0.260483
O O16 0.002370 0.555275 0.376388
O O17 0.000000 0.319331 0.250000
O O18 0.884192 0.317028 0.057116
#
# Coordination Sequence:
#
# PCOD9276378 Si02
#       8
#     8   8   8   8   8   8   8   8
#     4  11  23  38  58  87 117 149 191 243 292 342
#     4  11  21  39  61  85 121 157 197 244 294 347
#     4  10  22  38  59  91 121 156 199 244 298 354
#     4  10  22  38  57  85 116 154 199 240 289 349
#     4  10  23  40  59  87 117 155 197 238 290 351
#     4  11  22  38  62  89 120 157 199 245 300 355
#     4  10  20  40  61  84 123 156 197 244 293 349
#     4  11  22  39  62  83 119 156 195 241 288 351
#
# _framework density 17.939885
#
# number of rings (size 3 to 8) (size 9 to 14) (size 15 to 20)
#    0.000    1.500    2.500    2.625    1.750    0.000 
#    0.000    0.000    0.000    6.000    0.000    0.000 
#    0.000    0.000    0.000    0.000    0.000    0.000 
#
# Total GULP energy -178652.662437 kJ/mol
# GULP energy per Si atom -5582.895701 kJ/mol
# Density = 1.789905 g / cm^3
# Si number density = 17.939885 Si / 1000 Ang^3
#
#
#
# Elastic Constant Matrix: (Units=GPa)
#
#
# Indices 1 2 3 4 5 6 
#
# 1 90.8827 36.2653 49.9786 0.0000 1.8166 0.0000
# 2 36.2653 91.0541 47.3355 0.0000 -0.4298 0.0000
# 3 49.9786 47.3355 132.2093 0.0000 1.4073 0.0000
# 4 0.0000 0.0000 0.0000 14.3540 0.0000 11.3373
# 5 1.8166 -0.4298 1.4073 0.0000 17.4243 0.0000
# 6 0.0000 0.0000 0.0000 11.3373 0.0000 16.2517
#
#
#
# Elastic Compliance Matrix: (Units=1/GPa)
#
#
# Indices 1 2 3 4 5 6 
#
# 1 0.014858 -0.003700 -0.004278 0.000000 -0.001295 0.000000
# 2 -0.003700 0.014424 -0.003777 0.000000 0.001047 0.000000
# 3 -0.004278 -0.003777 0.010539 0.000000 -0.000498 0.000000
# 4 0.000000 0.000000 0.000000 0.155160 0.000000 -0.108241
# 5 -0.001295 0.001047 -0.000498 0.000000 0.057592 0.000000
# 6 0.000000 0.000000 0.000000 -0.108241 0.000000 0.137042
#
#
# Mechanical properties :
#
#
# Convention : Reuss Voigt Hill
#
# Bulk Modulus (GPa) = 61.30772 64.58944 62.94858
# Shear Modulus (GPa) = 11.94565 21.64378 16.79472
#
# Velocity S-wave (km/s) = 2.58325 3.47718 3.06300
# Velocity P-wave (km/s) = 6.56854 7.22513 6.90464
#
# Compressibility (1/GPa) = 0.01631116
#
# Stress axis : x y z
#
# Youngs Moduli (GPa) = 67.30305 69.32663 94.88823
#
# Poissons Ratio (x) = 0.25649 0.40597
# Poissons Ratio (y) = 0.24900 0.35839
# Poissons Ratio (z) = 0.28795 0.26185
#
# Static dielectric constant tensor:
#      x y z
#    x 1.606850 0.000000 0.010080 
#    y 0.000000 1.596400 0.000000 
#    z 0.010080 0.000000 1.595980 
# 
# From -- ./inp_files/82605.got.cif
#   From: 2010.05.17/outbox.cif.g08.bks.cpg/sg15_42_cif.got.tgz:82605.got - 2010.06.03 18:47:42.
