data_PCOD9276491
_publ_section_title
;
Structure prediction by ZEFSAII (Michael W. Deem and Ramdas Pophale) SiO2 
 PCOD9276491
Probable space group: C 2/C
;
_chemical_formula_sum "Si O2"
_cell_formula_units_Z 44
_cell_length_a 12.885776
_cell_length_b 23.619543
_cell_length_c 7.813746
_cell_angle_alpha 90.000000
_cell_angle_beta 116.836270
_cell_angle_gamma 90.000000
_cell_volume 2122.034096
_symmetry_space_group_name_H-M "C 2/C"
_symmetry_group_IT_number 15
_symmetry_cell_setting 'monoclinic'
loop_
_space_group_symop_operation_xyz
x,y,z
-x,y,1/2-z
-x,-y,-z
x,-y,1/2+z
1/2+x,1/2+y,z
1/2-x,1/2+y,1/2-z
1/2-x,1/2-y,-z
1/2+x,1/2-y,1/2+z
loop_
_atom_site_type_symbol
_atom_site_label
_atom_site_fract_x
_atom_site_fract_y
_atom_site_fract_z
Si Si1 0.280360 0.835892 0.730379
Si Si2 0.105301 0.071336 0.083860
Si Si3 0.085605 0.748697 0.665830
Si Si4 0.500000 0.219730 0.250000
Si Si5 0.145475 0.942604 0.020629
Si Si6 0.127302 0.622979 0.837348
O O1 0.189273 0.879623 0.581172
O O2 0.204216 0.782951 0.738302
O O3 0.383338 0.816739 0.684432
O O4 0.339146 0.862280 0.942480
O O5 0.124454 0.069826 0.304079
O O6 0.141812 0.010220 0.040585
O O7 0.967011 0.079578 0.958734
O O8 0.017394 0.753714 0.436968
O O9 0.111491 0.683011 0.728829
O O10 0.000000 0.770949 0.750000
O O11 0.267869 0.914303 0.158937
O O12 0.000000 0.594857 0.750000
#
# Coordination Sequence:
#
# PCOD9276491 Si02
#       6
#     8   8   8   4   8   8
#     4  11  23  40  63  92 128 170 212 262 320 375
#     4   9  20  38  61  92 118 164 212 261 314 372
#     4  11  24  41  66  91 130 170 210 261 318 379
#     4  12  24  42  58  96 136 158 216 262 308 396
#     4   9  19  37  61  87 125 156 214 262 308 377
#     4  10  20  40  62  91 122 169 211 251 316 380
#
# _framework density 20.734822999999999
#
# number of rings (size 3 to 8) (size 9 to 14) (size 15 to 20)
#    0.000    1.818    3.636    1.091    5.091    1.455 
#    1.636    5.455    0.000    0.000    0.000    0.000 
#    0.000    0.000    0.000    0.000    0.000    0.000 
#
# Total GULP energy -122886.010552 kJ/mol
# GULP energy per Si atom -5585.727752 kJ/mol
# Density = 2.068763 g / cm^3
# Si number density = 20.734823 Si / 1000 Ang^3
#
#
#
# Elastic Constant Matrix: (Units=GPa)
#
#
# Indices 1 2 3 4 5 6 
#
# 1 166.6822 61.8841 42.0693 0.0000 41.3194 0.0000
# 2 61.8841 40.5529 13.6261 0.0000 27.0855 0.0000
# 3 42.0693 13.6261 66.5780 0.0000 18.2921 0.0000
# 4 0.0000 0.0000 0.0000 10.9330 0.0000 -42.0598
# 5 41.3194 27.0855 18.2921 0.0000 47.1573 0.0000
# 6 0.0000 0.0000 0.0000 -42.0598 0.0000 46.0775
#
#
#
# Elastic Compliance Matrix: (Units=1/GPa)
#
#
# Indices 1 2 3 4 5 6 
#
# 1 0.015484 -0.022937 -0.005576 0.000000 0.001770 0.000000
# 2 -0.022937 0.074249 0.006148 0.000000 -0.024933 0.000000
# 3 -0.005576 0.006148 0.018930 0.000000 -0.005989 0.000000
# 4 0.000000 0.000000 0.000000 -0.036417 0.000000 -0.033242
# 5 0.001770 -0.024933 -0.005989 0.000000 0.036298 0.000000
# 6 0.000000 0.000000 0.000000 -0.033242 0.000000 -0.008641
#
#
# Mechanical properties :
#
#
# Convention : Reuss Voigt Hill
#
# Bulk Modulus (GPa) = 15.64148 56.55245 36.09696
# Shear Modulus (GPa) = 30.13051 31.24914 30.68982
#
# Velocity S-wave (km/s) = 3.81614 3.88633 3.85139
# Velocity P-wave (km/s) = 5.19395 6.88995 6.10117
#
# Compressibility (1/GPa) = 0.06393259
#
# Stress axis : x y z
#
# Youngs Moduli (GPa) = 64.58324 13.46818 52.82512
#
# Poissons Ratio (x) = 0.30893 0.29455
# Poissons Ratio (y) = 1.48137 -0.32477
# Poissons Ratio (z) = 0.36011 -0.08280
#
# Static dielectric constant tensor:
#      x y z
#    x 1.606780 0.000000 -0.139540 
#    y 0.000000 1.731800 0.000000 
#    z -0.139540 0.000000 1.645390 
# 
# From -- ./inp_files/34511.got.cif
#   From: 2010.05.17/outbox.cif.g08.bks.cpg/sg15_18_cif.got.tgz:34511.got - 2010.06.03 18:47:42.
