data_PCOD9276515
_publ_section_title
;
Structure prediction by ZEFSAII (Michael W. Deem and Ramdas Pophale) SiO2 
 PCOD9276515
Probable space group: C 2/C
;
_chemical_formula_sum "Si O2"
_cell_formula_units_Z 44
_cell_length_a 25.744126
_cell_length_b 13.340208
_cell_length_c 16.538540
_cell_angle_alpha 90.000000
_cell_angle_beta 160.131112
_cell_angle_gamma 90.000000
_cell_volume 1930.409158
_symmetry_space_group_name_H-M "C 2/C"
_symmetry_group_IT_number 15
_symmetry_cell_setting 'monoclinic'
loop_
_space_group_symop_operation_xyz
x,y,z
-x,y,1/2-z
-x,-y,-z
x,-y,1/2+z
1/2+x,1/2+y,z
1/2-x,1/2+y,1/2-z
1/2-x,1/2-y,-z
1/2+x,1/2-y,1/2+z
loop_
_atom_site_type_symbol
_atom_site_label
_atom_site_fract_x
_atom_site_fract_y
_atom_site_fract_z
Si Si1 0.820688 0.954861 0.679603
Si Si2 0.000000 0.534147 0.750000
Si Si3 0.636172 0.601725 0.609214
Si Si4 0.892406 0.497077 0.921040
Si Si5 0.202837 0.808758 0.630135
Si Si6 0.364890 0.659727 0.651344
O O1 0.854422 0.006709 0.815956
O O2 0.817669 0.054460 0.620236
O O3 0.653022 0.908964 0.446217
O O4 0.954178 0.885292 0.840014
O O5 0.962703 0.471974 0.612247
O O6 0.739306 0.564230 0.685493
O O7 0.721804 0.699966 0.765547
O O8 0.833787 0.384203 0.850265
O O9 0.000000 0.500000 0.000000
O O10 0.154206 0.849964 0.472087
O O11 0.037613 0.811164 0.432506
O O12 0.250000 0.750000 0.500000
#
# Coordination Sequence:
#
# PCOD9276515 Si02
#       6
#     8   4   8   8   8   8
#     4  10  20  40  62  93 129 173 213 276 344 403
#     4  10  24  40  70  88 130 176 226 262 334 406
#     4  10  22  39  64  92 134 174 215 278 347 399
#     4  11  24  44  66  99 134 181 222 278 337 409
#     4  11  24  38  63 100 133 169 225 281 342 402
#     4  11  22  35  64 100 132 162 218 289 343 400
#
# _framework density 22.793095000000001
#
# number of rings (size 3 to 8) (size 9 to 14) (size 15 to 20)
#    0.000    1.455    3.636    1.091    7.636    0.000 
#    0.000    0.909    4.000    0.000    0.000    0.000 
#    0.000    0.000    0.000    0.000    0.000    0.000 
#
# Total GULP energy -122524.004496 kJ/mol
# GULP energy per Si atom -5569.272932 kJ/mol
# Density = 2.274122 g / cm^3
# Si number density = 22.793095 Si / 1000 Ang^3
#
#
#
# Elastic Constant Matrix: (Units=GPa)
#
#
# Indices 1 2 3 4 5 6 
#
# 1 119.8920 32.4715 59.3160 0.0000 36.0616 0.0000
# 2 32.4715 59.3081 42.0875 0.0000 6.1132 0.0000
# 3 59.3160 42.0875 150.2603 0.0000 58.7266 0.0000
# 4 0.0000 0.0000 0.0000 27.6794 0.0000 -0.6564
# 5 36.0616 6.1132 58.7266 0.0000 46.8517 0.0000
# 6 0.0000 0.0000 0.0000 -0.6564 0.0000 18.5247
#
#
#
# Elastic Compliance Matrix: (Units=1/GPa)
#
#
# Indices 1 2 3 4 5 6 
#
# 1 0.012679 -0.006311 0.000500 0.000000 -0.009562 0.000000
# 2 -0.006311 0.026370 -0.010681 0.000000 0.014805 0.000000
# 3 0.000500 -0.010681 0.017752 0.000000 -0.021242 0.000000
# 4 0.000000 0.000000 0.000000 0.036158 0.000000 0.001281
# 5 -0.009562 0.014805 -0.021242 0.000000 0.053397 0.000000
# 6 0.000000 0.000000 0.000000 0.001281 0.000000 0.054027
#
#
# Mechanical properties :
#
#
# Convention : Reuss Voigt Hill
#
# Bulk Modulus (GPa) = 41.98904 66.35670 54.17287
# Shear Modulus (GPa) = 20.72046 31.65019 26.18532
#
# Velocity S-wave (km/s) = 3.01835 3.73042 3.39311
# Velocity P-wave (km/s) = 5.53254 6.90873 6.25858
#
# Compressibility (1/GPa) = 0.02381574
#
# Stress axis : x y z
#
# Youngs Moduli (GPa) = 78.87161 37.92173 56.33252
#
# Poissons Ratio (x) = 0.23931 -0.02814
# Poissons Ratio (y) = 0.49773 0.60171
# Poissons Ratio (z) = -0.03940 0.40506
#
# Static dielectric constant tensor:
#      x y z
#    x 1.994110 0.000000 0.005980 
#    y 0.000000 1.824390 0.000000 
#    z 0.005980 0.000000 2.092690 
# 
# From -- ./inp_files/222769.got.cif
#   From: 2010.05.17/outbox.cif.g08.bks.cpg/sg15_112_cif.got.tgz:222769.got - 2010.06.03 18:47:42.
