data_PCOD9276594
_publ_section_title
;
Structure prediction by ZEFSAII (Michael W. Deem and Ramdas Pophale) SiO2 
 PCOD9276594
Probable space group: C 2/C
;
_chemical_formula_sum "Si O2"
_cell_formula_units_Z 56
_cell_length_a 13.403902
_cell_length_b 8.760958
_cell_length_c 26.631567
_cell_angle_alpha 90.000000
_cell_angle_beta 54.289906
_cell_angle_gamma 90.000000
_cell_volume 2539.365852
_symmetry_space_group_name_H-M "C 2/C"
_symmetry_group_IT_number 15
_symmetry_cell_setting 'monoclinic'
loop_
_space_group_symop_operation_xyz
x,y,z
-x,y,1/2-z
-x,-y,-z
x,-y,1/2+z
1/2+x,1/2+y,z
1/2-x,1/2+y,1/2-z
1/2-x,1/2-y,-z
1/2+x,1/2-y,1/2+z
loop_
_atom_site_type_symbol
_atom_site_label
_atom_site_fract_x
_atom_site_fract_y
_atom_site_fract_z
Si Si1 0.935631 0.853900 0.591088
Si Si2 0.282309 0.390246 0.191845
Si Si3 0.605484 0.662196 0.187464
Si Si4 0.673293 0.484024 0.069676
Si Si5 0.439706 0.104140 0.675761
Si Si6 0.931882 0.642968 0.496030
Si Si7 0.010295 0.283165 0.627657
O O1 0.921104 0.708267 0.632370
O O2 0.920342 0.779970 0.540334
O O3 0.070687 0.933083 0.563838
O O4 0.835284 0.979538 0.638983
O O5 0.209787 0.250301 0.187417
O O6 0.187435 0.447946 0.261441
O O7 0.400264 0.314676 0.182845
O O8 0.500000 0.570470 0.250000
O O9 0.670186 0.578237 0.122191
O O10 0.518090 0.790996 0.189350
O O11 0.808107 0.439856 0.010881
O O12 0.628334 0.317541 0.099510
O O13 0.515872 0.953049 0.644142
O O14 0.000000 0.500000 0.500000
O O15 0.007831 0.708066 0.427094
#
# Coordination Sequence:
#
# PCOD9276594 Si02
#       7
#     8   8   8   8   8   8   8
#     4  10  23  42  64  95 125 170 212 259 329 381
#     4  10  21  39  65  92 125 165 208 259 321 382
#     4   9  20  40  61  91 127 164 209 262 320 381
#     4  10  24  43  61  94 128 169 211 266 322 378
#     4  10  20  40  63  92 128 160 208 262 321 380
#     4  12  24  43  65  93 126 166 221 262 321 388
#     4  11  23  41  62  94 125 164 210 263 317 382
#
# _framework density 22.052748999999999
#
# number of rings (size 3 to 8) (size 9 to 14) (size 15 to 20)
#    0.000    1.714    1.429    2.143    2.000    4.000 
#    5.143    0.000    0.000    0.000    0.000    0.000 
#    0.000    0.000    0.000    0.000    0.000    0.000 
#
# Total GULP energy -156129.392028 kJ/mol
# GULP energy per Si atom -5576.049715 kJ/mol
# Density = 2.200256 g / cm^3
# Si number density = 22.052749 Si / 1000 Ang^3
#
#
#
# Elastic Constant Matrix: (Units=GPa)
#
#
# Indices 1 2 3 4 5 6 
#
# 1 30.4375 -6.2420 6.3703 0.0000 -15.8843 0.0001
# 2 -6.2420 94.1627 13.9552 0.0000 -3.1919 0.0001
# 3 6.3703 13.9552 43.5679 0.0000 -12.3464 0.0000
# 4 0.0000 0.0000 0.0000 170.8304 0.0000 -230.7028
# 5 -15.8843 -3.1919 -12.3464 0.0000 34.2192 0.0000
# 6 0.0001 0.0001 0.0000 -230.7028 0.0000 391.3282
#
#
#
# Elastic Compliance Matrix: (Units=1/GPa)
#
#
# Indices 1 2 3 4 5 6 
#
# 1 0.044739 0.003958 -0.002027 0.000000 0.020405 0.000000
# 2 0.003958 0.011502 -0.003830 0.000000 0.001528 0.000000
# 3 -0.002027 -0.003830 0.026854 0.000000 0.008391 0.000000
# 4 0.000000 0.000000 0.000000 0.028717 0.000000 0.016930
# 5 0.020405 0.001528 0.008391 0.000000 0.041865 0.000000
# 6 0.000000 0.000000 0.000000 0.016930 0.000000 0.012536
#
#
# Mechanical properties :
#
#
# Convention : Reuss Voigt Hill
#
# Bulk Modulus (GPa) = 12.61081 21.81499 17.21290
# Shear Modulus (GPa) = 25.45276 129.54788 77.50032
#
# Velocity S-wave (km/s) = 3.40100 7.67281 5.93460
# Velocity P-wave (km/s) = 4.59927 9.40265 7.40146
#
# Compressibility (1/GPa) = 0.07929704
#
# Stress axis : x y z
#
# Youngs Moduli (GPa) = 22.35188 86.94399 37.23903
#
# Poissons Ratio (x) = -0.34411 0.07547
# Poissons Ratio (y) = -0.08846 0.14261
# Poissons Ratio (z) = 0.04530 0.33297
#
# Static dielectric constant tensor:
#      x y z
#    x 1.726520 0.000000 -0.065920 
#    y 0.000000 1.906260 0.000000 
#    z -0.065920 0.000000 1.829480 
# 
# From -- ./inp_files/312845.got.cif
#   From: 2010.05.17/outbox.cif.g08.bks.cpg/sg15_157_cif.got.tgz:312845.got - 2010.06.03 18:47:42.
