data_PCOD9276546
_publ_section_title
;
Structure prediction by ZEFSAII (Michael W. Deem and Ramdas Pophale) SiO2 
 PCOD9276546
Probable space group: C 2/C
;
_chemical_formula_sum "Si O2"
_cell_formula_units_Z 40
_cell_length_a 26.296687
_cell_length_b 7.105864
_cell_length_c 13.734329
_cell_angle_alpha 90.000000
_cell_angle_beta 55.019148
_cell_angle_gamma 90.000000
_cell_volume 2102.768613
_symmetry_space_group_name_H-M "C 2/C"
_symmetry_group_IT_number 15
_symmetry_cell_setting 'monoclinic'
loop_
_space_group_symop_operation_xyz
x,y,z
-x,y,1/2-z
-x,-y,-z
x,-y,1/2+z
1/2+x,1/2+y,z
1/2-x,1/2+y,1/2-z
1/2-x,1/2-y,-z
1/2+x,1/2-y,1/2+z
loop_
_atom_site_type_symbol
_atom_site_label
_atom_site_fract_x
_atom_site_fract_y
_atom_site_fract_z
Si Si1 0.496864 0.394146 0.868630
Si Si2 0.412820 0.678024 0.068773
Si Si3 0.805476 0.100295 0.712842
Si Si4 0.269339 0.831948 0.581447
Si Si5 0.391375 0.109913 0.049410
O O1 0.500000 0.389725 0.750000
O O2 0.562477 0.367837 0.849934
O O3 0.464533 0.585643 0.941823
O O4 0.452325 0.227459 0.956729
O O5 0.349377 0.564300 0.122723
O O6 0.405337 0.897815 0.061038
O O7 0.760230 0.175903 0.677438
O O8 0.852522 0.275923 0.674935
O O9 0.769127 0.014824 0.843081
O O10 0.250000 0.750000 0.500000
O O11 0.342452 0.877762 0.513299
#
# Coordination Sequence:
#
# PCOD9276546 Si02
#       5
#     8   8   8   8   8
#     4  10  22  38  61  91 123 158 202 251 306 367
#     4  10  20  40  63  85 126 159 197 257 306 366
#     4   9  21  37  61  88 120 164 199 257 308 361
#     4  10  21  40  62  87 126 161 208 257 305 365
#     4   9  21  39  61  89 120 161 207 241 315 365
#
# _framework density 19.022541
#
# number of rings (size 3 to 8) (size 9 to 14) (size 15 to 20)
#    1.200    1.200    0.000    1.800    2.800    0.800 
#    0.000    8.000    0.000    0.000    0.000    0.000 
#    0.000    0.000    0.000    0.000    0.000    0.000 
#
# Total GULP energy -111389.385014 kJ/mol
# GULP energy per Si atom -5569.469251 kJ/mol
# Density = 1.897924 g / cm^3
# Si number density = 19.022541 Si / 1000 Ang^3
#
#
#
# Elastic Constant Matrix: (Units=GPa)
#
#
# Indices 1 2 3 4 5 6 
#
# 1 67.2625 33.6096 19.3033 0.0000 10.5968 0.0000
# 2 33.6096 154.9051 33.5859 0.0000 4.3766 -0.0001
# 3 19.3033 33.5859 25.0834 0.0000 9.7033 0.0000
# 4 0.0000 0.0000 0.0000 -0.7967 0.0000 3.1961
# 5 10.5968 4.3766 9.7033 0.0000 22.0583 0.0000
# 6 0.0000 -0.0001 0.0000 3.1961 0.0000 23.2311
#
#
#
# Elastic Compliance Matrix: (Units=1/GPa)
#
#
# Indices 1 2 3 4 5 6 
#
# 1 0.019582 -0.001708 -0.011176 0.000000 -0.004152 0.000000
# 2 -0.001708 0.009594 -0.013391 0.000000 0.004808 0.000000
# 3 -0.011176 -0.013391 0.076273 0.000000 -0.025526 0.000000
# 4 0.000000 0.000000 0.000000 -0.808767 0.000000 0.111269
# 5 -0.004152 0.004808 -0.025526 0.000000 0.057604 0.000000
# 6 0.000000 0.000000 0.000000 0.111269 0.000000 0.027737
#
#
# Mechanical properties :
#
#
# Convention : Reuss Voigt Hill
#
# Bulk Modulus (GPa) = 18.90457 46.69428 32.79942
# Shear Modulus (GPa) = -9.12752 19.61535 5.24392
#
# Velocity S-wave (km/s) = -2.19287 3.21466 1.66213
# Velocity P-wave (km/s) = 1.88361 6.19506 4.57858
#
# Compressibility (1/GPa) = 0.05289727
#
# Stress axis : x y z
#
# Youngs Moduli (GPa) = 51.06664 104.23474 13.11088
#
# Poissons Ratio (x) = 0.17805 0.14653
# Poissons Ratio (y) = 0.08723 0.17557
# Poissons Ratio (z) = 0.57074 1.39580
#
# Static dielectric constant tensor:
#      x y z
#    x 1.683920 0.000000 -0.027760 
#    y 0.000000 1.659670 0.000000 
#    z -0.027760 0.000000 1.654370 
# 
# From -- ./inp_files/179598.got.cif
#   From: 2010.05.17/outbox.cif.g08.bks.cpg/sg15_90_cif.got.tgz:179598.got - 2010.06.03 18:47:42.
