data_PCOD9276252
_publ_section_title
;
Structure prediction by ZEFSAII (Michael W. Deem and Ramdas Pophale) SiO2 
 PCOD9276252
Probable space group: C 2/C
;
_chemical_formula_sum "Si O2"
_cell_formula_units_Z 40
_cell_length_a 11.839048
_cell_length_b 20.274645
_cell_length_c 7.104712
_cell_angle_alpha 90.000000
_cell_angle_beta 87.354914
_cell_angle_gamma 90.000000
_cell_volume 1703.544797
_symmetry_space_group_name_H-M "C 2/C"
_symmetry_group_IT_number 15
_symmetry_cell_setting 'monoclinic'
loop_
_space_group_symop_operation_xyz
x,y,z
-x,y,1/2-z
-x,-y,-z
x,-y,1/2+z
1/2+x,1/2+y,z
1/2-x,1/2+y,1/2-z
1/2-x,1/2-y,-z
1/2+x,1/2-y,1/2+z
loop_
_atom_site_type_symbol
_atom_site_label
_atom_site_fract_x
_atom_site_fract_y
_atom_site_fract_z
Si Si1 0.500000 0.880156 0.750000
Si Si2 0.335792 0.559126 0.456033
Si Si3 0.785236 0.316306 0.719888
Si Si4 0.000000 0.046826 0.750000
Si Si5 0.396815 0.939111 0.377245
Si Si6 0.871442 0.704975 0.796079
O O1 0.392503 0.838705 0.831440
O O2 0.450840 0.916863 0.571371
O O3 0.291004 0.619607 0.331137
O O4 0.425365 0.585930 0.604064
O O5 0.407484 0.502138 0.350458
O O6 0.222048 0.527766 0.559895
O O7 0.843041 0.291104 0.520954
O O8 0.709845 0.256644 0.796417
O O9 0.500000 0.968278 0.250000
O O10 0.359296 0.873393 0.266127
O O11 0.000000 0.722747 0.750000
#
# Coordination Sequence:
#
# PCOD9276252 Si02
#       6
#     4   8   8   4   8   8
#     4   8  16  32  53  76 108 150 177 212 274 314
#     4   9  20  37  57  77 108 141 181 230 282 319
#     4   9  17  32  52  78 109 144 176 224 266 328
#     4  10  20  40  57  76 106 144 183 236 276 324
#     4   9  18  38  57  81 116 147 176 232 271 330
#     4   8  15  29  50  76 110 141 175 215 267 316
#
# _framework density 23.480453000000001
#
# number of rings (size 3 to 8) (size 9 to 14) (size 15 to 20)
#    0.000    3.600    0.000    0.000    1.400    0.000 
#   14.400   26.000    2.200    0.000    0.000    0.000 
#    0.000    0.000    0.000    0.000    0.000    0.000 
#
# Total GULP energy -111499.716631 kJ/mol
# GULP energy per Si atom -5574.985832 kJ/mol
# Density = 2.342701 g / cm^3
# Si number density = 23.480453 Si / 1000 Ang^3
#
#
#
# Elastic Constant Matrix: (Units=GPa)
#
#
# Indices 1 2 3 4 5 6 
#
# 1 201.8173 61.1933 36.7342 0.0000 -4.7236 0.0000
# 2 61.1933 84.4581 16.8931 0.0000 9.5548 0.0000
# 3 36.7342 16.8931 48.5540 0.0000 7.8383 0.0000
# 4 0.0000 0.0000 0.0000 10.1557 0.0000 1.4733
# 5 -4.7236 9.5548 7.8383 0.0000 55.3985 0.0000
# 6 0.0000 0.0000 0.0000 1.4733 0.0000 -74.0898
#
#
#
# Elastic Compliance Matrix: (Units=1/GPa)
#
#
# Indices 1 2 3 4 5 6 
#
# 1 0.007139 -0.004570 -0.004131 0.000000 0.001981 0.000000
# 2 -0.004570 0.015793 -0.001570 0.000000 -0.002891 0.000000
# 3 -0.004131 -0.001570 0.024848 0.000000 -0.003597 0.000000
# 4 0.000000 0.000000 0.000000 0.098183 0.000000 0.001952
# 5 0.001981 -0.002891 -0.003597 0.000000 0.019228 0.000000
# 6 0.000000 0.000000 0.000000 0.001952 0.000000 -0.013458
#
#
# Mechanical properties :
#
#
# Convention : Reuss Voigt Hill
#
# Bulk Modulus (GPa) = 36.71486 62.71895 49.71691
# Shear Modulus (GPa) = 27.57036 12.96012 20.26524
#
# Velocity S-wave (km/s) = 3.43035 2.35192 2.94099
# Velocity P-wave (km/s) = 5.60001 5.84333 5.72296
#
# Compressibility (1/GPa) = 0.02723693
#
# Stress axis : x y z
#
# Youngs Moduli (GPa) = 140.07448 63.31981 40.24492
#
# Poissons Ratio (x) = 0.28940 0.16625
# Poissons Ratio (y) = 0.64021 0.06319
# Poissons Ratio (z) = 0.57863 0.09942
#
# Static dielectric constant tensor:
#      x y z
#    x 1.896350 0.000000 -0.029650 
#    y 0.000000 1.952120 0.000000 
#    z -0.029650 0.000000 2.003340 
# 
# From -- ./inp_files/24614.got.cif
#   From: 2010.05.17/outbox.cif.g08.bks.cpg/sg15_13_cif.got.tgz:24614.got - 2010.06.03 18:47:42.
