data_PCOD9276775
_publ_section_title
;
Structure prediction by ZEFSAII (Michael W. Deem and Ramdas Pophale) SiO2 
 PCOD9276775
Probable space group: C 2/C
;
_chemical_formula_sum "Si O2"
_cell_formula_units_Z 60
_cell_length_a 11.908382
_cell_length_b 15.427035
_cell_length_c 25.426155
_cell_angle_alpha 90.000000
_cell_angle_beta 30.254845
_cell_angle_gamma 90.000000
_cell_volume 2353.502201
_symmetry_space_group_name_H-M "C 2/C"
_symmetry_group_IT_number 15
_symmetry_cell_setting 'monoclinic'
loop_
_space_group_symop_operation_xyz
x,y,z
-x,y,1/2-z
-x,-y,-z
x,-y,1/2+z
1/2+x,1/2+y,z
1/2-x,1/2+y,1/2-z
1/2-x,1/2-y,-z
1/2+x,1/2-y,1/2+z
loop_
_atom_site_type_symbol
_atom_site_label
_atom_site_fract_x
_atom_site_fract_y
_atom_site_fract_z
Si Si1 0.759835 0.895315 0.144485
Si Si2 0.584004 0.886916 0.474787
Si Si3 0.813884 0.351434 0.479571
Si Si4 0.500000 0.606258 0.750000
Si Si5 0.568084 0.874283 0.847914
Si Si6 0.653150 0.426778 0.854626
Si Si7 0.264338 0.683727 0.746323
Si Si8 0.322912 0.311484 0.566417
O O1 0.500000 0.871014 0.250000
O O2 0.862143 0.873821 0.160256
O O3 0.789627 0.997599 0.127692
O O4 0.921150 0.842934 0.041594
O O5 0.405546 0.876030 0.500226
O O6 0.796825 0.938846 0.364579
O O7 0.481903 0.907168 0.573164
O O8 0.676509 0.789402 0.445095
O O9 0.750000 0.250000 0.500000
O O10 0.605541 0.412864 0.552330
O O11 0.017224 0.353306 0.356537
O O12 0.379247 0.664167 0.754927
O O13 0.712253 0.938550 0.753650
O O14 0.704357 0.782150 0.787875
O O15 0.337627 0.856380 0.910640
O O16 0.737948 0.340007 0.849970
#
# Coordination Sequence:
#
# PCOD9276775 Si02
#       8
#     8   8   8   4   8   8   8   8
#     4  12  27  44  66  99 142 184 228 283 353 421
#     4  11  22  37  66 105 130 169 222 294 339 403
#     4  11  22  40  66  94 131 178 226 283 346 400
#     4  10  20  40  64  98 134 168 228 276 346 404
#     4  12  23  39  68 104 134 175 237 290 338 406
#     4  12  26  44  64  96 139 184 227 286 351 414
#     4  11  22  40  67  97 133 178 230 284 340 412
#     4  12  22  40  69  99 137 174 231 283 348 411
#
# _framework density 25.493922999999999
#
# number of rings (size 3 to 8) (size 9 to 14) (size 15 to 20)
#    0.000    0.533    5.333    4.400    0.000    1.600 
#    0.000    1.333    0.000    4.000    0.000    0.000 
#    0.000    0.000    0.000    0.000    0.000    0.000 
#
# Total GULP energy -167862.554118 kJ/mol
# GULP energy per Si atom -5595.418471 kJ/mol
# Density = 2.543590 g / cm^3
# Si number density = 25.493923 Si / 1000 Ang^3
#
#
#
# Elastic Constant Matrix: (Units=GPa)
#
#
# Indices 1 2 3 4 5 6 
#
# 1 123.0825 -10.3721 60.0595 0.0030 19.2469 -0.0028
# 2 -10.3721 55.3921 15.9334 0.0041 1.1051 -0.0033
# 3 60.0595 15.9334 181.4522 0.0188 8.0742 -0.0113
# 4 0.0030 0.0041 0.0188 17.6197 -0.0079 -2.8258
# 5 19.2469 1.1051 8.0742 -0.0079 57.3698 0.0046
# 6 -0.0028 -0.0033 -0.0113 -2.8258 0.0046 20.4810
#
#
#
# Elastic Compliance Matrix: (Units=1/GPa)
#
#
# Indices 1 2 3 4 5 6 
#
# 1 0.010663 0.003113 -0.003664 0.000000 -0.003122 0.000001
# 2 0.003113 0.019431 -0.002690 -0.000002 -0.001040 0.000002
# 3 -0.003664 -0.002690 0.006947 -0.000006 0.000303 0.000002
# 4 0.000000 -0.000002 -0.000006 0.058039 0.000008 0.008008
# 5 -0.003122 -0.001040 0.000303 0.000008 0.018455 -0.000003
# 6 0.000001 0.000002 0.000002 0.008008 -0.000003 0.049931
#
#
# Mechanical properties :
#
#
# Convention : Reuss Voigt Hill
#
# Bulk Modulus (GPa) = 32.72525 54.57426 43.64976
# Shear Modulus (GPa) = 27.75725 38.71450 33.23587
#
# Velocity S-wave (km/s) = 3.30324 3.90112 3.61457
# Velocity P-wave (km/s) = 5.23574 6.46103 5.88038
#
# Compressibility (1/GPa) = 0.03055744
#
# Stress axis : x y z
#
# Youngs Moduli (GPa) = 93.78351 51.46536 143.95723
#
# Poissons Ratio (x) = -0.16020 0.52743
# Poissons Ratio (y) = -0.29193 0.38728
# Poissons Ratio (z) = 0.34360 0.13845
#
# Static dielectric constant tensor:
#      x y z
#    x 2.014700 0.000010 0.003820 
#    y 0.000010 2.010280 0.000000 
#    z 0.003820 0.000000 2.086130 
# 
# From -- ./inp_files/293539.got.cif
#   From: 2010.05.17/outbox.cif.g08.bks.cpg/sg15_147_cif.got.tgz:293539.got - 2010.06.03 18:47:42.
