data_PCOD9276457
_publ_section_title
;
Structure prediction by ZEFSAII (Michael W. Deem and Ramdas Pophale) SiO2 
 PCOD9276457
Probable space group: C 2/C
;
_chemical_formula_sum "Si O2"
_cell_formula_units_Z 60
_cell_length_a 9.030330
_cell_length_b 21.628751
_cell_length_c 17.745094
_cell_angle_alpha 90.000000
_cell_angle_beta 63.621955
_cell_angle_gamma 90.000000
_cell_volume 3105.018647
_symmetry_space_group_name_H-M "C 2/C"
_symmetry_group_IT_number 15
_symmetry_cell_setting 'monoclinic'
loop_
_space_group_symop_operation_xyz
x,y,z
-x,y,1/2-z
-x,-y,-z
x,-y,1/2+z
1/2+x,1/2+y,z
1/2-x,1/2+y,1/2-z
1/2-x,1/2-y,-z
1/2+x,1/2-y,1/2+z
loop_
_atom_site_type_symbol
_atom_site_label
_atom_site_fract_x
_atom_site_fract_y
_atom_site_fract_z
Si Si1 0.500000 0.911646 0.250000
Si Si2 0.918335 0.324031 0.136820
Si Si3 0.738440 0.178287 0.984927
Si Si4 0.083515 0.377823 0.861654
Si Si5 0.435380 0.601608 0.049007
Si Si6 0.128684 0.185172 0.289774
Si Si7 0.134551 0.509252 0.115205
Si Si8 0.688858 0.905246 0.001074
O O1 0.406860 0.869183 0.210610
O O2 0.626626 0.956938 0.180079
O O3 0.791530 0.333126 0.096564
O O4 0.899345 0.254447 0.171831
O O5 0.093073 0.346418 0.059649
O O6 0.750000 0.250000 0.000000
O O7 0.578483 0.154504 0.067051
O O8 0.892037 0.142958 0.986220
O O9 0.191637 0.333433 0.784399
O O10 0.009672 0.439931 0.841323
O O11 0.188187 0.396622 0.911797
O O12 0.398871 0.640313 0.133188
O O13 0.308051 0.544765 0.074825
O O14 0.627621 0.587864 0.009145
O O15 0.000000 0.176136 0.250000
O O16 0.102043 0.468844 0.047108
#
# Coordination Sequence:
#
# PCOD9276457 Si02
#       8
#     4   8   8   8   8   8   8   8
#     4  10  20  40  62  86 126 166 206 244 308 374
#     4  10  22  39  63  88 122 168 206 247 309 371
#     4  10  21  40  59  90 123 160 207 251 302 369
#     4  10  22  38  64  92 120 165 203 253 308 361
#     4  11  22  38  63  92 126 157 207 263 305 355
#     4  12  22  37  60  94 127 156 206 254 308 374
#     4  10  21  39  63  89 121 163 209 251 305 361
#     4  10  21  39  64  90 120 162 209 254 301 363
#
# _framework density 19.323556
#
# number of rings (size 3 to 8) (size 9 to 14) (size 15 to 20)
#    0.000    1.600    3.333    1.600    0.000    4.267 
#    0.000    0.000    0.000    0.000    0.000    0.000 
#    0.000    0.000    0.000    0.000    0.000    0.000 
#
# Total GULP energy -167325.507508 kJ/mol
# GULP energy per Si atom -5577.516917 kJ/mol
# Density = 1.927958 g / cm^3
# Si number density = 19.323556 Si / 1000 Ang^3
#
#
#
# Elastic Constant Matrix: (Units=GPa)
#
#
# Indices 1 2 3 4 5 6 
#
# 1 87.8569 27.8243 25.8248 0.0000 12.8124 0.0000
# 2 27.8243 119.0726 47.7266 0.0000 8.2642 0.0000
# 3 25.8248 47.7266 87.1157 0.0000 24.7816 0.0000
# 4 0.0000 0.0000 0.0000 24.4848 0.0000 0.2966
# 5 12.8124 8.2642 24.7816 0.0000 31.5251 0.0000
# 6 0.0000 0.0000 0.0000 0.2966 0.0000 23.6237
#
#
#
# Elastic Compliance Matrix: (Units=1/GPa)
#
#
# Indices 1 2 3 4 5 6 
#
# 1 0.013059 -0.002115 -0.001752 0.000000 -0.003376 0.000000
# 2 -0.002115 0.011239 -0.006359 0.000000 0.002912 0.000000
# 3 -0.001752 -0.006359 0.019070 0.000000 -0.012611 0.000000
# 4 0.000000 0.000000 0.000000 0.040848 0.000000 -0.000513
# 5 -0.003376 0.002912 -0.012611 0.000000 0.042243 0.000000
# 6 0.000000 0.000000 0.000000 -0.000513 0.000000 0.042337
#
#
# Mechanical properties :
#
#
# Convention : Reuss Voigt Hill
#
# Bulk Modulus (GPa) = 43.63784 55.19962 49.41873
# Shear Modulus (GPa) = 25.39535 28.77136 27.08335
#
# Velocity S-wave (km/s) = 3.62915 3.86285 3.74782
# Velocity P-wave (km/s) = 6.33977 6.96588 6.66018
#
# Compressibility (1/GPa) = 0.02291589
#
# Stress axis : x y z
#
# Youngs Moduli (GPa) = 76.57361 88.97552 52.43940
#
# Poissons Ratio (x) = 0.18818 0.09189
# Poissons Ratio (y) = 0.16195 0.33345
# Poissons Ratio (z) = 0.13419 0.56577
#
# Static dielectric constant tensor:
#      x y z
#    x 1.681910 0.000000 0.007830 
#    y 0.000000 1.674880 0.000000 
#    z 0.007830 0.000000 1.701150 
# 
# From -- ./inp_files/192099.got.cif
#   From: 2010.05.17/outbox.cif.g08.bks.cpg/sg15_97_cif.got.tgz:192099.got - 2010.06.03 18:47:42.
