data_PCOD9276497
_publ_section_title
;
Structure prediction by ZEFSAII (Michael W. Deem and Ramdas Pophale) SiO2 
 PCOD9276497
Probable space group: C 2/C
;
_chemical_formula_sum "Si O2"
_cell_formula_units_Z 60
_cell_length_a 23.989015
_cell_length_b 5.001792
_cell_length_c 19.457023
_cell_angle_alpha 90.000000
_cell_angle_beta 90.492508
_cell_angle_gamma 90.000000
_cell_volume 2334.524257
_symmetry_space_group_name_H-M "C 2/C"
_symmetry_group_IT_number 15
_symmetry_cell_setting 'monoclinic'
loop_
_space_group_symop_operation_xyz
x,y,z
-x,y,1/2-z
-x,-y,-z
x,-y,1/2+z
1/2+x,1/2+y,z
1/2-x,1/2+y,1/2-z
1/2-x,1/2-y,-z
1/2+x,1/2-y,1/2+z
loop_
_atom_site_type_symbol
_atom_site_label
_atom_site_fract_x
_atom_site_fract_y
_atom_site_fract_z
Si Si1 0.139396 0.107540 0.537441
Si Si2 0.000000 0.297294 0.250000
Si Si3 0.855207 0.414784 0.833108
Si Si4 0.945993 0.224647 0.370660
Si Si5 0.531826 0.753047 0.471374
Si Si6 0.755655 0.736525 0.795616
Si Si7 0.393243 0.947317 0.683163
Si Si8 0.341009 0.489577 0.612208
O O1 0.168833 0.248946 0.602355
O O2 0.094926 0.282818 0.493110
O O3 0.172407 0.010073 0.470362
O O4 0.096635 0.911664 0.577481
O O5 0.956591 0.118625 0.294326
O O6 0.954761 0.484695 0.210832
O O7 0.917329 0.488357 0.859020
O O8 0.816958 0.678050 0.826106
O O9 0.861930 0.338929 0.752973
O O10 0.009620 0.234887 0.394982
O O11 0.500000 0.500000 0.500000
O O12 0.500000 0.000000 0.500000
O O13 0.750472 0.040339 0.770863
O O14 0.711817 0.620578 0.849687
O O15 0.389562 0.709459 0.627403
O O16 0.361324 0.210654 0.649657
#
# Coordination Sequence:
#
# PCOD9276497 Si02
#       8
#     8   4   8   8   8   8   8   8
#     4  11  26  42  74 104 154 185 238 304 366 431
#     4  10  24  42  70 104 142 192 246 300 350 428
#     4  11  24  44  74 101 145 184 245 306 357 417
#     4  10  23  43  65 103 145 189 236 294 352 432
#     4  10  20  40  62  91 134 187 217 265 350 420
#     4  12  25  48  77 104 139 193 245 302 367 436
#     4  11  26  47  72 105 148 190 248 291 359 440
#     4  12  26  49  73 107 142 197 238 299 370 443
#
# _framework density 25.701166000000001
#
# number of rings (size 3 to 8) (size 9 to 14) (size 15 to 20)
#    0.000    1.067    4.000    0.800    7.467    3.200 
#    4.800    0.667    0.000    0.000    0.000    0.000 
#    0.000    0.000    0.000    0.000    0.000    0.000 
#
# Total GULP energy -167028.783108 kJ/mol
# GULP energy per Si atom -5567.626104 kJ/mol
# Density = 2.564267 g / cm^3
# Si number density = 25.701166 Si / 1000 Ang^3
#
#
#
# Elastic Constant Matrix: (Units=GPa)
#
#
# Indices 1 2 3 4 5 6 
#
# 1 58.7653 -3.5941 27.5374 0.0000 -9.1589 0.0000
# 2 -3.5941 92.6365 29.7997 0.0000 1.3727 0.0000
# 3 27.5374 29.7997 164.8113 0.0000 -18.7899 0.0000
# 4 0.0000 0.0000 0.0000 29.3877 0.0000 10.0525
# 5 -9.1589 1.3727 -18.7899 0.0000 48.5067 0.0000
# 6 0.0000 0.0000 0.0000 10.0525 0.0000 27.3441
#
#
#
# Elastic Compliance Matrix: (Units=1/GPa)
#
#
# Indices 1 2 3 4 5 6 
#
# 1 0.018992 0.001741 -0.003227 0.000000 0.002287 0.000000
# 2 0.001741 0.011686 -0.002515 0.000000 -0.000976 0.000000
# 3 -0.003227 -0.002515 0.007324 0.000000 0.002299 0.000000
# 4 0.000000 0.000000 0.000000 0.038923 0.000000 -0.014309
# 5 0.002287 -0.000976 0.002299 0.000000 0.021966 0.000000
# 6 0.000000 0.000000 0.000000 -0.014309 0.000000 0.041831
#
#
# Mechanical properties :
#
#
# Convention : Reuss Voigt Hill
#
# Bulk Modulus (GPa) = 33.33457 47.07768 40.20612
# Shear Modulus (GPa) = 31.50128 38.54570 35.02349
#
# Velocity S-wave (km/s) = 3.50476 3.87688 3.69551
# Velocity P-wave (km/s) = 5.41997 6.19656 5.82123
#
# Compressibility (1/GPa) = 0.02999889
#
# Stress axis : x y z
#
# Youngs Moduli (GPa) = 52.65352 85.57251 136.54418
#
# Poissons Ratio (x) = -0.14900 0.44068
# Poissons Ratio (y) = -0.09168 0.34343
# Poissons Ratio (z) = 0.16993 0.21523
#
# Static dielectric constant tensor:
#      x y z
#    x 1.884820 0.000000 -0.076240 
#    y 0.000000 2.067090 0.000000 
#    z -0.076240 0.000000 2.346890 
# 
# From -- ./inp_files/221261.got.cif
#   From: 2010.05.17/outbox.cif.g08.bks.cpg/sg15_111_cif.got.tgz:221261.got - 2010.06.03 18:47:42.
