data_PCOD9276390
_publ_section_title
;
Structure prediction by ZEFSAII (Michael W. Deem and Ramdas Pophale) SiO2 
 PCOD9276390
Probable space group: C 2/C
;
_chemical_formula_sum "Si O2"
_cell_formula_units_Z 60
_cell_length_a 20.024944
_cell_length_b 25.149823
_cell_length_c 8.822131
_cell_angle_alpha 90.000000
_cell_angle_beta 143.814882
_cell_angle_gamma 90.000000
_cell_volume 2623.150372
_symmetry_space_group_name_H-M "C 2/C"
_symmetry_group_IT_number 15
_symmetry_cell_setting 'monoclinic'
loop_
_space_group_symop_operation_xyz
x,y,z
-x,y,1/2-z
-x,-y,-z
x,-y,1/2+z
1/2+x,1/2+y,z
1/2-x,1/2+y,1/2-z
1/2-x,1/2-y,-z
1/2+x,1/2-y,1/2+z
loop_
_atom_site_type_symbol
_atom_site_label
_atom_site_fract_x
_atom_site_fract_y
_atom_site_fract_z
Si Si1 0.340233 0.708985 0.948052
Si Si2 0.647307 0.649768 0.209709
Si Si3 0.913132 0.518794 0.470922
Si Si4 0.370833 0.169690 0.491386
Si Si5 0.692203 0.069882 0.500790
Si Si6 0.000000 0.770807 0.250000
Si Si7 0.946514 0.111071 0.997655
Si Si8 0.868300 0.683682 0.138564
O O1 0.367719 0.769056 0.042014
O O2 0.225435 0.708568 0.642128
O O3 0.332240 0.675870 0.087851
O O4 0.421420 0.674269 0.985244
O O5 0.773242 0.634370 0.389234
O O6 0.544034 0.608834 0.049588
O O7 0.596688 0.691404 0.995434
O O8 0.846921 0.473669 0.446547
O O9 0.000000 0.500000 0.500000
O O10 0.829729 0.552206 0.212704
O O11 0.000000 0.544134 0.750000
O O12 0.337019 0.175209 0.254340
O O13 0.500000 0.153037 0.750000
O O14 0.619458 0.123465 0.397636
O O15 0.824242 0.085531 0.751397
O O16 0.034774 0.727944 0.185675
O O17 0.000000 0.089057 0.250000
#
# Coordination Sequence:
#
# PCOD9276390 Si02
#       8
#     8   8   8   8   8   4   8   8
#     4  10  20  40  61  87 135 187 237 272 333 377
#     4  11  24  39  62  90 134 195 228 283 327 373
#     4   9  20  42  72 102 133 170 208 275 356 426
#     4  12  24  39  58  92 139 182 238 282 325 383
#     4  10  22  43  71  98 135 173 220 280 357 413
#     4  12  24  36  64  92 140 182 240 268 328 376
#     4   9  20  41  67  97 132 180 232 280 328 402
#     4  11  25  37  61  97 131 178 226 280 326 410
#
# _framework density 22.873259000000001
#
# number of rings (size 3 to 8) (size 9 to 14) (size 15 to 20)
#    0.000    1.600    1.333    3.600    8.400    0.533 
#    0.000    8.667    0.000    0.000    0.000    0.000 
#    0.000    0.000    0.000    0.000    0.000    0.000 
#
# Total GULP energy -167351.923747 kJ/mol
# GULP energy per Si atom -5578.397458 kJ/mol
# Density = 2.282120 g / cm^3
# Si number density = 22.873259 Si / 1000 Ang^3
#
#
#
# Elastic Constant Matrix: (Units=GPa)
#
#
# Indices 1 2 3 4 5 6 
#
# 1 134.3221 33.3558 56.9420 0.0000 22.6504 0.0000
# 2 33.3558 76.6603 43.6574 0.0000 9.0965 0.0000
# 3 56.9420 43.6574 149.6455 0.0000 10.0371 0.0000
# 4 0.0000 0.0000 0.0000 39.8839 0.0000 -14.6603
# 5 22.6504 9.0965 10.0371 0.0000 41.3828 0.0000
# 6 0.0000 0.0000 0.0000 -14.6603 0.0000 31.8502
#
#
#
# Elastic Compliance Matrix: (Units=1/GPa)
#
#
# Indices 1 2 3 4 5 6 
#
# 1 0.009913 -0.002186 -0.002849 0.000000 -0.004254 0.000000
# 2 -0.002186 0.016358 -0.003842 0.000000 -0.001467 0.000000
# 3 -0.002849 -0.003842 0.008870 0.000000 0.000252 0.000000
# 4 0.000000 0.000000 0.000000 0.030179 0.000000 0.013891
# 5 -0.004254 -0.001467 0.000252 0.000000 0.026754 0.000000
# 6 0.000000 0.000000 0.000000 0.013891 0.000000 0.037791
#
#
# Mechanical properties :
#
#
# Convention : Reuss Voigt Hill
#
# Bulk Modulus (GPa) = 57.51319 69.83758 63.67538
# Shear Modulus (GPa) = 32.59149 37.73488 35.16319
#
# Velocity S-wave (km/s) = 3.77884 4.06610 3.92510
# Velocity P-wave (km/s) = 6.65120 7.25555 6.95993
#
# Compressibility (1/GPa) = 0.01738732
#
# Stress axis : x y z
#
# Youngs Moduli (GPa) = 100.88103 61.13287 112.73426
#
# Poissons Ratio (x) = 0.13363 0.32116
# Poissons Ratio (y) = 0.22052 0.43313
# Poissons Ratio (z) = 0.28739 0.23487
#
# Static dielectric constant tensor:
#      x y z
#    x 1.982900 0.000000 0.064510 
#    y 0.000000 1.892330 0.000000 
#    z 0.064510 0.000000 1.851710 
# 
# From -- ./inp_files/59134.got.cif
#   From: 2010.05.17/outbox.cif.g08.bks.cpg/sg15_30_cif.got.tgz:59134.got - 2010.06.03 18:47:42.
