data_PCOD9276856
_publ_section_title
;
Structure prediction by ZEFSAII (Michael W. Deem and Ramdas Pophale) SiO2 
 PCOD9276856
Probable space group: C 2/C
;
_chemical_formula_sum "Si O2"
_cell_formula_units_Z 56
_cell_length_a 11.211663
_cell_length_b 27.826690
_cell_length_c 10.123872
_cell_angle_alpha 90.000000
_cell_angle_beta 115.774621
_cell_angle_gamma 90.000000
_cell_volume 2844.248111
_symmetry_space_group_name_H-M "C 2/C"
_symmetry_group_IT_number 15
_symmetry_cell_setting 'monoclinic'
loop_
_space_group_symop_operation_xyz
x,y,z
-x,y,1/2-z
-x,-y,-z
x,-y,1/2+z
1/2+x,1/2+y,z
1/2-x,1/2+y,1/2-z
1/2-x,1/2-y,-z
1/2+x,1/2-y,1/2+z
loop_
_atom_site_type_symbol
_atom_site_label
_atom_site_fract_x
_atom_site_fract_y
_atom_site_fract_z
Si Si1 0.123272 0.177852 0.217121
Si Si2 0.842995 0.744777 0.416857
Si Si3 0.903357 0.493432 0.830793
Si Si4 0.535189 0.341619 0.115749
Si Si5 0.469600 0.166996 0.891594
Si Si6 0.302224 0.901844 0.916391
Si Si7 0.758467 0.590229 0.705447
O O1 0.246890 0.214476 0.274879
O O2 0.178848 0.130977 0.318130
O O3 0.000000 0.195315 0.250000
O O4 0.077797 0.163762 0.048996
O O5 0.750000 0.750000 0.500000
O O6 0.869070 0.797701 0.378009
O O7 0.982187 0.717692 0.519540
O O8 0.822884 0.445189 0.825444
O O9 0.807083 0.539489 0.783193
O O10 0.000000 0.491177 0.750000
O O11 0.000000 0.500000 0.000000
O O12 0.500000 0.334072 0.250000
O O13 0.607767 0.392782 0.140177
O O14 0.500000 0.173492 0.750000
O O15 0.337301 0.134200 0.816453
O O16 0.568561 0.131736 0.017548
O O17 0.291476 0.914570 0.065731
#
# Coordination Sequence:
#
# PCOD9276856 Si02
#       7
#     8   8   8   8   8   8   8
#     4  11  22  43  68  91 126 174 225 258 313 400
#     4  11  22  37  67  95 120 172 223 263 312 390
#     4  12  22  38  67 103 132 162 216 276 325 381
#     4  12  28  44  63  95 137 172 215 275 330 382
#     4   9  18  33  61  95 124 159 216 264 317 373
#     4  10  20  40  65  96 128 172 215 268 321 388
#     4  11  21  41  66  91 133 173 212 269 330 383
#
# _framework density 19.688859000000001
#
# number of rings (size 3 to 8) (size 9 to 14) (size 15 to 20)
#    0.000    1.143    5.714    2.143    4.000    1.714 
#    0.000    2.857    0.000    0.000    0.000    0.000 
#    0.000    0.000    0.000    0.000    0.000    0.000 
#
# Total GULP energy -156019.588216 kJ/mol
# GULP energy per Si atom -5572.128151 kJ/mol
# Density = 1.964405 g / cm^3
# Si number density = 19.688859 Si / 1000 Ang^3
#
#
#
# Elastic Constant Matrix: (Units=GPa)
#
#
# Indices 1 2 3 4 5 6 
#
# 1 29.5960 18.9318 19.7891 0.0000 -2.2395 0.0000
# 2 18.9318 107.8926 34.1374 0.0000 8.2487 0.0000
# 3 19.7891 34.1374 120.6132 0.0000 11.8162 0.0000
# 4 0.0000 0.0000 0.0000 36.5312 0.0000 10.0566
# 5 -2.2395 8.2487 11.8162 0.0000 32.8944 0.0000
# 6 0.0000 0.0000 0.0000 10.0566 0.0000 16.9104
#
#
#
# Elastic Compliance Matrix: (Units=1/GPa)
#
#
# Indices 1 2 3 4 5 6 
#
# 1 0.042026 -0.006026 -0.005823 0.000000 0.006464 0.000000
# 2 -0.006026 0.011123 -0.001913 0.000000 -0.002512 0.000000
# 3 -0.005823 -0.001913 0.010136 0.000000 -0.003558 0.000000
# 4 0.000000 0.000000 0.000000 0.032733 0.000000 -0.019466
# 5 0.006464 -0.002512 -0.003558 0.000000 0.032748 0.000000
# 6 0.000000 0.000000 0.000000 -0.019466 0.000000 0.070712
#
#
# Mechanical properties :
#
#
# Convention : Reuss Voigt Hill
#
# Bulk Modulus (GPa) = 27.96363 44.86870 36.41617
# Shear Modulus (GPa) = 20.92722 29.61677 25.27199
#
# Velocity S-wave (km/s) = 3.26375 3.88266 3.58658
# Velocity P-wave (km/s) = 5.33257 6.55274 5.97389
#
# Compressibility (1/GPa) = 0.03576073
#
# Stress axis : x y z
#
# Youngs Moduli (GPa) = 23.79501 89.90102 98.65390
#
# Poissons Ratio (x) = 0.54175 0.57445
# Poissons Ratio (y) = 0.14339 0.18877
# Poissons Ratio (z) = 0.13856 0.17202
#
# Static dielectric constant tensor:
#      x y z
#    x 1.784080 0.000000 0.046300 
#    y 0.000000 1.738940 0.000000 
#    z 0.046300 0.000000 1.703680 
# 
# From -- ./inp_files/35764.got.cif
#   From: 2010.05.17/outbox.cif.g08.bks.cpg/sg15_18_cif.got.tgz:35764.got - 2010.06.03 18:47:42.
