data_PCOD9276229
_publ_section_title
;
Structure prediction by ZEFSAII (Michael W. Deem and Ramdas Pophale) SiO2 
 PCOD9276229
Probable space group: C 2/C
;
_chemical_formula_sum "Si O2"
_cell_formula_units_Z 32
_cell_length_a 25.733192
_cell_length_b 7.766340
_cell_length_c 19.315808
_cell_angle_alpha 90.000000
_cell_angle_beta 18.949761
_cell_angle_gamma 90.000000
_cell_volume 1253.595260
_symmetry_space_group_name_H-M "C 2/C"
_symmetry_group_IT_number 15
_symmetry_cell_setting 'monoclinic'
loop_
_space_group_symop_operation_xyz
x,y,z
-x,y,1/2-z
-x,-y,-z
x,-y,1/2+z
1/2+x,1/2+y,z
1/2-x,1/2+y,1/2-z
1/2-x,1/2-y,-z
1/2+x,1/2-y,1/2+z
loop_
_atom_site_type_symbol
_atom_site_label
_atom_site_fract_x
_atom_site_fract_y
_atom_site_fract_z
Si Si1 0.575768 0.682921 0.996153
Si Si2 0.124438 0.409962 0.156226
Si Si3 0.932229 0.138859 0.758111
Si Si4 0.045972 0.324615 0.481938
O O1 0.495050 0.851581 0.132119
O O2 0.530708 0.524171 0.102346
O O3 0.764716 0.690266 0.751832
O O4 0.509701 0.679731 0.002104
O O5 0.000000 0.414203 0.250000
O O6 0.249455 0.568912 0.991956
O O7 0.250000 0.250000 0.000000
O O8 0.969292 0.282738 0.653097
O O9 0.000000 0.172630 0.750000
O O10 0.000000 0.500000 0.500000
#
# Coordination Sequence:
#
# PCOD9276229 Si02
#       4
#     8   8   8   8
#     4  11  22  46  77 111 152 203 254 310 380 460
#     4  10  20  39  75 117 156 201 252 312 378 453
#     4  11  24  48  78 113 152 201 260 319 385 464
#     4  12  27  47  76 115 157 203 255 317 388 465
#
# _framework density 25.526581
#
# number of rings (size 3 to 8) (size 9 to 14) (size 15 to 20)
#    0.000    1.000    0.000    9.750    0.000    2.000 
#    0.000   13.750    0.000    7.500    0.000    1.750 
#    0.000    0.000    0.000    0.000    0.000    0.000 
#
# Total GULP energy -89543.544548 kJ/mol
# GULP energy per Si atom -5596.471534 kJ/mol
# Density = 2.546848 g / cm^3
# Si number density = 25.526581 Si / 1000 Ang^3
#
#
#
# Elastic Constant Matrix: (Units=GPa)
#
#
# Indices 1 2 3 4 5 6 
#
# 1 267.9066 83.5570 136.5314 0.0000 -5.1650 0.0000
# 2 83.5570 203.5566 79.2755 -0.0001 6.3767 0.0000
# 3 136.5314 79.2755 310.2136 0.0000 -15.8277 0.0000
# 4 0.0000 -0.0001 0.0000 16.8260 0.0000 25.2918
# 5 -5.1650 6.3767 -15.8277 0.0000 79.2842 0.0000
# 6 0.0000 0.0000 0.0000 25.2918 0.0000 30.1238
#
#
#
# Elastic Compliance Matrix: (Units=1/GPa)
#
#
# Indices 1 2 3 4 5 6 
#
# 1 0.005131 -0.001366 -0.001906 0.000000 0.000064 0.000000
# 2 -0.001366 0.005861 -0.000935 0.000000 -0.000747 0.000000
# 3 -0.001906 -0.000935 0.004343 0.000000 0.000818 0.000000
# 4 0.000000 0.000000 0.000000 -0.226815 0.000000 0.190433
# 5 0.000064 -0.000747 0.000818 0.000000 0.012840 0.000000
# 6 0.000000 0.000000 0.000000 0.190433 0.000000 -0.126690
#
#
# Mechanical properties :
#
#
# Convention : Reuss Voigt Hill
#
# Bulk Modulus (GPa) = 144.47242 153.37829 148.92535
# Shear Modulus (GPa) = -15.89276 57.40101 20.75413
#
# Velocity S-wave (km/s) = -2.49790 4.74717 2.85448
# Velocity P-wave (km/s) = 6.95704 9.50072 8.32658
#
# Compressibility (1/GPa) = 0.00692174
#
# Stress axis : x y z
#
# Youngs Moduli (GPa) = 194.88327 170.62660 230.25230
#
# Poissons Ratio (x) = 0.23307 0.43887
# Poissons Ratio (y) = 0.26621 0.21520
# Poissons Ratio (z) = 0.37146 0.15947
#
# Static dielectric constant tensor:
#      x y z
#    x 1.967510 0.000000 0.093740 
#    y 0.000000 2.181020 0.000000 
#    z 0.093740 0.000000 1.930950 
# 
# From -- ./inp_files/257094.got.cif
#   From: 2010.05.17/outbox.cif.g08.bks.cpg/sg15_129_cif.got.tgz:257094.got - 2010.06.03 18:47:42.
