data_PCOD9276473
_publ_section_title
;
Structure prediction by ZEFSAII (Michael W. Deem and Ramdas Pophale) SiO2 
 PCOD9276473
Probable space group: C 2/C
;
_chemical_formula_sum "Si O2"
_cell_formula_units_Z 44
_cell_length_a 17.991207
_cell_length_b 6.862924
_cell_length_c 16.631066
_cell_angle_alpha 90.000000
_cell_angle_beta 97.069956
_cell_angle_gamma 90.000000
_cell_volume 2037.862374
_symmetry_space_group_name_H-M "C 2/C"
_symmetry_group_IT_number 15
_symmetry_cell_setting 'monoclinic'
loop_
_space_group_symop_operation_xyz
x,y,z
-x,y,1/2-z
-x,-y,-z
x,-y,1/2+z
1/2+x,1/2+y,z
1/2-x,1/2+y,1/2-z
1/2-x,1/2-y,-z
1/2+x,1/2-y,1/2+z
loop_
_atom_site_type_symbol
_atom_site_label
_atom_site_fract_x
_atom_site_fract_y
_atom_site_fract_z
Si Si1 0.500000 0.516775 0.750000
Si Si2 0.850737 0.160140 0.800031
Si Si3 0.824122 0.846840 0.547793
Si Si4 0.234743 0.510124 0.664111
Si Si5 0.987480 0.167323 0.068343
Si Si6 0.144824 0.822322 0.564765
O O1 0.424308 0.638439 0.755502
O O2 0.511103 0.403752 0.837409
O O3 0.836851 0.377779 0.827694
O O4 0.774117 0.110417 0.743818
O O5 0.857231 0.002680 0.872042
O O6 0.750000 0.750000 0.500000
O O7 0.904404 0.745067 0.545838
O O8 0.799513 0.873997 0.635761
O O9 0.839333 0.063502 0.514990
O O10 0.208403 0.673998 0.598670
O O11 0.064229 0.282103 0.062590
O O12 0.000000 0.000000 0.000000
#
# Coordination Sequence:
#
# PCOD9276473 Si02
#       6
#     4   8   8   8   8   8
#     4  10  20  40  62  88 130 172 210 268 328 380
#     4  11  22  38  62  89 123 163 210 262 315 384
#     4  11  21  39  65  94 125 166 212 263 323 386
#     4  12  22  39  62  93 124 162 212 263 318 381
#     4   9  20  38  65  91 128 174 210 258 331 387
#     4  10  22  40  61  89 126 168 205 259 321 376
#
# _framework density 21.591252000000001
#
# number of rings (size 3 to 8) (size 9 to 14) (size 15 to 20)
#    0.000    1.455    5.455    0.545    0.000    0.000 
#    0.000    8.182    0.000    0.000    0.000    0.000 
#    0.000    0.000    0.000    0.000    0.000    0.000 
#
# Total GULP energy -122508.556722 kJ/mol
# GULP energy per Si atom -5568.570760 kJ/mol
# Density = 2.154211 g / cm^3
# Si number density = 21.591252 Si / 1000 Ang^3
#
#
#
# Elastic Constant Matrix: (Units=GPa)
#
#
# Indices 1 2 3 4 5 6 
#
# 1 172.7300 24.6454 28.4724 0.0000 -8.0125 0.0000
# 2 24.6454 31.6477 -0.4222 0.0000 -5.4590 0.0000
# 3 28.4724 -0.4222 66.8952 0.0000 -16.1304 0.0000
# 4 0.0000 0.0000 0.0000 24.7827 0.0000 1.6244
# 5 -8.0125 -5.4590 -16.1304 0.0000 38.1743 0.0000
# 6 0.0000 0.0000 0.0000 1.6244 0.0000 27.0868
#
#
#
# Elastic Compliance Matrix: (Units=1/GPa)
#
#
# Indices 1 2 3 4 5 6 
#
# 1 0.007101 -0.005691 -0.003224 0.000000 -0.000686 0.000000
# 2 -0.005691 0.037089 0.004061 0.000000 0.005825 0.000000
# 3 -0.003224 0.004061 0.018175 0.000000 0.007584 0.000000
# 4 0.000000 0.000000 0.000000 0.040510 0.000000 -0.002429
# 5 -0.000686 0.005825 0.007584 0.000000 0.030089 0.000000
# 6 0.000000 0.000000 0.000000 -0.002429 0.000000 0.037064
#
#
# Mechanical properties :
#
#
# Convention : Reuss Voigt Hill
#
# Bulk Modulus (GPa) = 18.99067 41.85158 30.42113
# Shear Modulus (GPa) = 25.34367 32.58057 28.96212
#
# Velocity S-wave (km/s) = 3.42978 3.88876 3.66646
# Velocity P-wave (km/s) = 4.94967 6.29198 5.66075
#
# Compressibility (1/GPa) = 0.05265743
#
# Stress axis : x y z
#
# Youngs Moduli (GPa) = 140.82615 26.96242 55.02018
#
# Poissons Ratio (x) = 0.15344 0.17736
# Poissons Ratio (y) = 0.80145 -0.22343
# Poissons Ratio (z) = 0.45396 -0.10949
#
# Static dielectric constant tensor:
#      x y z
#    x 1.848350 0.000000 0.040380 
#    y 0.000000 1.824510 0.000000 
#    z 0.040380 0.000000 1.828620 
# 
# From -- ./inp_files/202625.got.cif
#   From: 2010.05.17/outbox.cif.g08.bks.cpg/sg15_102_cif.got.tgz:202625.got - 2010.06.03 18:47:42.
