data_PCOD9276822
_publ_section_title
;
Structure prediction by ZEFSAII (Michael W. Deem and Ramdas Pophale) SiO2 
 PCOD9276822
Probable space group: C 2/C
;
_chemical_formula_sum "Si O2"
_cell_formula_units_Z 44
_cell_length_a 7.891225
_cell_length_b 20.099287
_cell_length_c 13.616318
_cell_angle_alpha 90.000000
_cell_angle_beta 109.459758
_cell_angle_gamma 90.000000
_cell_volume 2036.288043
_symmetry_space_group_name_H-M "C 2/C"
_symmetry_group_IT_number 15
_symmetry_cell_setting 'monoclinic'
loop_
_space_group_symop_operation_xyz
x,y,z
-x,y,1/2-z
-x,-y,-z
x,-y,1/2+z
1/2+x,1/2+y,z
1/2-x,1/2+y,1/2-z
1/2-x,1/2-y,-z
1/2+x,1/2-y,1/2+z
loop_
_atom_site_type_symbol
_atom_site_label
_atom_site_fract_x
_atom_site_fract_y
_atom_site_fract_z
Si Si1 0.145332 0.836053 0.865743
Si Si2 0.000000 0.918535 0.250000
Si Si3 0.987333 0.722051 0.133101
Si Si4 0.475823 0.644866 0.544391
Si Si5 0.827630 0.427271 0.607469
Si Si6 0.203906 0.527553 0.173647
O O1 0.315169 0.788974 0.875884
O O2 0.210872 0.912077 0.869312
O O3 0.000000 0.824798 0.750000
O O4 0.073757 0.833062 0.962806
O O5 0.062329 0.879425 0.163854
O O6 0.827718 0.963625 0.189537
O O7 0.000000 0.738178 0.250000
O O8 0.893954 0.785112 0.065132
O O9 0.900513 0.648651 0.115374
O O10 0.352549 0.582305 0.488208
O O11 0.787434 0.447378 0.711269
O O12 0.991490 0.475035 0.607770
#
# Coordination Sequence:
#
# PCOD9276822 Si02
#       6
#     8   4   8   8   8   8
#     4  11  20  39  68  94 119 168 223 257 305 384
#     4  12  26  40  60  92 142 166 210 262 328 376
#     4  11  20  40  66  94 130 162 209 263 325 388
#     4  12  24  39  62  99 132 168 196 271 333 377
#     4  10  20  40  71  88 120 167 227 260 303 383
#     4  10  20  40  65  92 115 174 224 256 303 377
#
# _framework density 21.607944
#
# number of rings (size 3 to 8) (size 9 to 14) (size 15 to 20)
#    0.000    1.091    7.273    1.091    0.000    3.636 
#    0.000    5.455    4.000    0.000    0.000    0.000 
#    0.000    0.000    0.000    0.000    0.000    0.000 
#
# Total GULP energy -122578.931464 kJ/mol
# GULP energy per Si atom -5571.769612 kJ/mol
# Density = 2.155876 g / cm^3
# Si number density = 21.607944 Si / 1000 Ang^3
#
#
#
# Elastic Constant Matrix: (Units=GPa)
#
#
# Indices 1 2 3 4 5 6 
#
# 1 37.5991 9.5133 33.1436 0.0000 -10.7624 0.0000
# 2 9.5133 50.0194 25.2853 0.0000 -13.0763 0.0000
# 3 33.1436 25.2853 132.1976 0.0000 -40.6485 0.0000
# 4 0.0000 0.0000 0.0000 72.3830 0.0000 27.4828
# 5 -10.7624 -13.0763 -40.6485 0.0000 23.4201 0.0000
# 6 0.0000 0.0000 0.0000 27.4828 0.0000 44.0844
#
#
#
# Elastic Compliance Matrix: (Units=1/GPa)
#
#
# Indices 1 2 3 4 5 6 
#
# 1 0.034408 -0.002339 -0.007975 0.000000 0.000665 0.000000
# 2 -0.002339 0.023628 -0.000444 0.000000 0.011347 0.000000
# 3 -0.007975 -0.000444 0.018111 0.000000 0.027522 0.000000
# 4 0.000000 0.000000 0.000000 0.018100 0.000000 -0.011284
# 5 0.000665 0.011347 0.027522 0.000000 0.097107 0.000000
# 6 0.000000 0.000000 0.000000 -0.011284 0.000000 0.029718
#
#
# Mechanical properties :
#
#
# Convention : Reuss Voigt Hill
#
# Bulk Modulus (GPa) = 18.30433 39.52230 28.91331
# Shear Modulus (GPa) = 19.17194 38.10241 28.63718
#
# Velocity S-wave (km/s) = 2.98193 4.20378 3.64443
# Velocity P-wave (km/s) = 4.51058 6.47246 5.57845
#
# Compressibility (1/GPa) = 0.05463189
#
# Stress axis : x y z
#
# Youngs Moduli (GPa) = 29.06278 42.32286 55.21456
#
# Poissons Ratio (x) = 0.09900 0.44033
# Poissons Ratio (y) = 0.06798 0.02450
# Poissons Ratio (z) = 0.23177 0.01878
#
# Static dielectric constant tensor:
#      x y z
#    x 1.866400 0.000000 0.049130 
#    y 0.000000 1.746860 0.000000 
#    z 0.049130 0.000000 1.829510 
# 
# From -- ./inp_files/78315.got.cif
#   From: 2010.05.17/outbox.cif.g08.bks.cpg/sg15_40_cif.got.tgz:78315.got - 2010.06.03 18:47:42.
