data_PCOD9276297
_publ_section_title
;
Structure prediction by ZEFSAII (Michael W. Deem and Ramdas Pophale) SiO2 
 PCOD9276297
Probable space group: C 2/C
;
_chemical_formula_sum "Si O2"
_cell_formula_units_Z 60
_cell_length_a 26.029686
_cell_length_b 11.216716
_cell_length_c 8.236989
_cell_angle_alpha 90.000000
_cell_angle_beta 96.265733
_cell_angle_gamma 90.000000
_cell_volume 2390.567775
_symmetry_space_group_name_H-M "C 2/C"
_symmetry_group_IT_number 15
_symmetry_cell_setting 'monoclinic'
loop_
_space_group_symop_operation_xyz
x,y,z
-x,y,1/2-z
-x,-y,-z
x,-y,1/2+z
1/2+x,1/2+y,z
1/2-x,1/2+y,1/2-z
1/2-x,1/2-y,-z
1/2+x,1/2-y,1/2+z
loop_
_atom_site_type_symbol
_atom_site_label
_atom_site_fract_x
_atom_site_fract_y
_atom_site_fract_z
Si Si1 0.224512 0.278800 0.179536
Si Si2 0.000000 0.065909 0.250000
Si Si3 0.128088 0.526191 0.115748
Si Si4 0.120765 0.682111 0.824337
Si Si5 0.249136 0.538192 0.133238
Si Si6 0.850209 0.108123 0.968566
Si Si7 0.353081 0.768213 0.649963
Si Si8 0.428550 0.596929 0.500088
O O1 0.182490 0.309767 0.304926
O O2 0.257294 0.400678 0.185276
O O3 0.246722 0.149586 0.239824
O O4 0.307007 0.234940 0.000895
O O5 0.962986 0.978865 0.135512
O O6 0.966263 0.136779 0.368982
O O7 0.106015 0.397843 0.161487
O O8 0.188010 0.527839 0.074708
O O9 0.132399 0.600246 0.285405
O O10 0.100920 0.605379 0.970290
O O11 0.116410 0.818550 0.884689
O O12 0.295283 0.568190 0.024479
O O13 0.844903 0.198569 0.817151
O O14 0.882765 0.992650 0.926959
O O15 0.400366 0.702115 0.581643
#
# Coordination Sequence:
#
# PCOD9276297 Si02
#       8
#     8   4   8   8   8   8   8   8
#     4  10  23  43  63  92 134 195 243 300 336 393
#     4  10  24  44  76 100 138 160 210 288 368 454
#     4  10  20  40  59  89 133 184 238 282 324 390
#     4   9  20  38  60  88 126 178 235 281 334 382
#     4  10  23  42  63  93 143 190 251 286 339 387
#     4  10  23  42  65  99 140 184 231 287 333 423
#     4  11  24  42  66  94 134 183 234 285 346 415
#     4  11  23  46  69 108 132 170 214 281 370 428
#
# _framework density 25.09864
#
# number of rings (size 3 to 8) (size 9 to 14) (size 15 to 20)
#    0.000    1.867    1.333    1.600    5.600    5.333 
#   12.000    4.000    0.000    0.000    0.000    5.600 
#    0.000    0.000    0.000    0.000    0.000    0.000 
#
# Total GULP energy -167515.608296 kJ/mol
# GULP energy per Si atom -5583.853610 kJ/mol
# Density = 2.504151 g / cm^3
# Si number density = 25.098640 Si / 1000 Ang^3
#
#
#
# Elastic Constant Matrix: (Units=GPa)
#
#
# Indices 1 2 3 4 5 6 
#
# 1 53.8073 25.4864 45.9855 0.0000 -15.2792 0.0000
# 2 25.4864 139.5272 65.8853 0.0000 -13.3800 0.0000
# 3 45.9855 65.8853 122.3396 0.0000 -15.7116 0.0000
# 4 0.0000 0.0000 0.0000 46.1566 0.0000 -1.4324
# 5 -15.2792 -13.3800 -15.7116 0.0000 42.5933 0.0000
# 6 0.0000 0.0000 0.0000 -1.4324 0.0000 17.3363
#
#
#
# Elastic Compliance Matrix: (Units=1/GPa)
#
#
# Indices 1 2 3 4 5 6 
#
# 1 0.029108 0.000117 -0.010139 0.000000 0.006738 0.000000
# 2 0.000117 0.009667 -0.005096 0.000000 0.001199 0.000000
# 3 -0.010139 -0.005096 0.014756 0.000000 0.000205 0.000000
# 4 0.000000 0.000000 0.000000 0.021721 0.000000 0.001795
# 5 0.006738 0.001199 0.000205 0.000000 0.026347 0.000000
# 6 0.000000 0.000000 0.000000 0.001795 0.000000 0.057831
#
#
# Mechanical properties :
#
#
# Convention : Reuss Voigt Hill
#
# Bulk Modulus (GPa) = 42.92821 65.59872 54.26346
# Shear Modulus (GPa) = 25.32534 33.10503 29.21518
#
# Velocity S-wave (km/s) = 3.17997 3.63574 3.41547
# Velocity P-wave (km/s) = 5.53389 6.61951 6.10089
#
# Compressibility (1/GPa) = 0.02329470
#
# Stress axis : x y z
#
# Youngs Moduli (GPa) = 34.35506 103.44379 67.77014
#
# Poissons Ratio (x) = -0.01208 0.68710
# Poissons Ratio (y) = -0.00401 0.34536
# Poissons Ratio (z) = 0.34831 0.52716
#
# Static dielectric constant tensor:
#      x y z
#    x 2.025250 0.000000 0.026160 
#    y 0.000000 2.021090 0.000000 
#    z 0.026160 0.000000 2.105090 
# 
# From -- ./inp_files/69077.got.cif
#   From: 2010.05.17/outbox.cif.g08.bks.cpg/sg15_35_cif.got.tgz:69077.got - 2010.06.03 18:47:42.
