data_PCOD9276328
_publ_section_title
;
Structure prediction by ZEFSAII (Michael W. Deem and Ramdas Pophale) SiO2 
 PCOD9276328
Probable space group: C 2/C
;
_chemical_formula_sum "Si O2"
_cell_formula_units_Z 36
_cell_length_a 7.268834
_cell_length_b 12.475535
_cell_length_c 16.017038
_cell_angle_alpha 90.000000
_cell_angle_beta 74.035713
_cell_angle_gamma 90.000000
_cell_volume 1396.449720
_symmetry_space_group_name_H-M "C 2/C"
_symmetry_group_IT_number 15
_symmetry_cell_setting 'monoclinic'
loop_
_space_group_symop_operation_xyz
x,y,z
-x,y,1/2-z
-x,-y,-z
x,-y,1/2+z
1/2+x,1/2+y,z
1/2-x,1/2+y,1/2-z
1/2-x,1/2-y,-z
1/2+x,1/2-y,1/2+z
loop_
_atom_site_type_symbol
_atom_site_label
_atom_site_fract_x
_atom_site_fract_y
_atom_site_fract_z
Si Si1 0.684941 0.483676 0.567676
Si Si2 0.503173 0.318059 0.009241
Si Si3 0.092542 0.362838 0.369387
Si Si4 0.500000 0.416220 0.750000
Si Si5 0.737050 0.283056 0.306949
O O1 0.673344 0.371084 0.521766
O O2 0.635891 0.579021 0.510125
O O3 0.872666 0.522488 0.593123
O O4 0.519881 0.476597 0.659878
O O5 0.437284 0.277822 0.107859
O O6 0.593013 0.228421 0.939880
O O7 0.263273 0.342233 0.281635
O O8 0.901248 0.344483 0.340299
O O9 0.680451 0.334833 0.724624
#
# Coordination Sequence:
#
# PCOD9276328 Si02
#       5
#     8   8   8   4   8
#     4  11  22  37  66  90 127 159 223 255 314 395
#     4  11  22  39  62  95 125 168 206 266 321 373
#     4  10  21  40  64  90 123 168 207 262 322 373
#     4  10  20  40  60  88 116 176 196 260 322 368
#     4  10  21  40  61  85 131 160 211 260 323 373
#
# _framework density 25.779662999999999
#
# number of rings (size 3 to 8) (size 9 to 14) (size 15 to 20)
#    0.000    1.778    4.444    2.667    0.000    0.889 
#    0.000    0.000    0.000    0.000    0.000    0.000 
#    0.000    0.000    0.000    0.000    0.000    0.000 
#
# Total GULP energy -100678.169722 kJ/mol
# GULP energy per Si atom -5593.231651 kJ/mol
# Density = 2.572099 g / cm^3
# Si number density = 25.779663 Si / 1000 Ang^3
#
#
#
# Elastic Constant Matrix: (Units=GPa)
#
#
# Indices 1 2 3 4 5 6 
#
# 1 52.7382 27.6926 30.5437 0.0000 7.3165 0.0000
# 2 27.6926 100.6991 50.3534 0.0000 1.2344 0.0000
# 3 30.5437 50.3534 213.1418 0.0000 -26.3983 0.0000
# 4 0.0000 0.0000 0.0000 54.3104 0.0000 -4.4627
# 5 7.3165 1.2344 -26.3983 0.0000 37.4495 0.0000
# 6 0.0000 0.0000 0.0000 -4.4627 0.0000 19.9434
#
#
#
# Elastic Compliance Matrix: (Units=1/GPa)
#
#
# Indices 1 2 3 4 5 6 
#
# 1 0.024379 -0.005048 -0.003145 0.000000 -0.006813 0.000000
# 2 -0.005048 0.012517 -0.002369 0.000000 -0.001097 0.000000
# 3 -0.003145 -0.002369 0.006342 0.000000 0.005163 0.000000
# 4 0.000000 0.000000 0.000000 0.018758 0.000000 0.004197
# 5 -0.006813 -0.001097 0.005163 0.000000 0.031709 0.000000
# 6 0.000000 0.000000 0.000000 0.004197 0.000000 0.051081
#
#
# Mechanical properties :
#
#
# Convention : Reuss Voigt Hill
#
# Bulk Modulus (GPa) = 45.22309 64.86205 55.04257
# Shear Modulus (GPa) = 28.85479 39.53994 34.19736
#
# Velocity S-wave (km/s) = 3.34920 3.92058 3.64610
# Velocity P-wave (km/s) = 5.70407 6.76087 6.25483
#
# Compressibility (1/GPa) = 0.02211260
#
# Stress axis : x y z
#
# Youngs Moduli (GPa) = 41.01892 79.89041 157.69001
#
# Poissons Ratio (x) = 0.40331 0.49590
# Poissons Ratio (y) = 0.20708 0.37364
# Poissons Ratio (z) = 0.12900 0.18930
#
# Static dielectric constant tensor:
#      x y z
#    x 2.211400 0.000000 -0.021050 
#    y 0.000000 2.001870 0.000000 
#    z -0.021050 0.000000 2.057640 
# 
# From -- ./inp_files/132699.got.cif
#   From: 2010.05.17/outbox.cif.g08.bks.cpg/sg15_67_cif.got.tgz:132699.got - 2010.06.03 18:47:42.
