data_PCOD9276330
_publ_section_title
;
Structure prediction by ZEFSAII (Michael W. Deem and Ramdas Pophale) SiO2 
 PCOD9276330
Probable space group: C 2/C
;
_chemical_formula_sum "Si O2"
_cell_formula_units_Z 56
_cell_length_a 11.717380
_cell_length_b 15.637482
_cell_length_c 29.879329
_cell_angle_alpha 90.000000
_cell_angle_beta 29.225338
_cell_angle_gamma 90.000000
_cell_volume 2673.046759
_symmetry_space_group_name_H-M "C 2/C"
_symmetry_group_IT_number 15
_symmetry_cell_setting 'monoclinic'
loop_
_space_group_symop_operation_xyz
x,y,z
-x,y,1/2-z
-x,-y,-z
x,-y,1/2+z
1/2+x,1/2+y,z
1/2-x,1/2+y,1/2-z
1/2-x,1/2-y,-z
1/2+x,1/2-y,1/2+z
loop_
_atom_site_type_symbol
_atom_site_label
_atom_site_fract_x
_atom_site_fract_y
_atom_site_fract_z
Si Si1 0.943962 0.317530 0.987767
Si Si2 0.130856 0.602555 0.848706
Si Si3 0.518450 0.573037 0.852575
Si Si4 0.006997 0.765535 0.931847
Si Si5 0.862184 0.925406 0.020878
Si Si6 0.316329 0.534808 0.350983
Si Si7 0.738127 0.333603 0.354452
O O1 0.113315 0.397567 0.923921
O O2 0.049887 0.244095 0.918823
O O3 0.685191 0.356125 0.073604
O O4 0.969244 0.278204 0.028240
O O5 0.290351 0.587664 0.751281
O O6 0.227775 0.553448 0.858974
O O7 0.151320 0.704252 0.850085
O O8 0.873334 0.561259 0.927648
O O9 0.406138 0.486522 0.870425
O O10 0.651826 0.586640 0.853598
O O11 0.750000 0.750000 0.000000
O O12 0.032977 0.866287 0.932091
O O13 0.759751 0.865849 0.095498
O O14 0.000000 0.000000 0.000000
O O15 0.500000 0.565790 0.250000
O O16 0.000000 0.307751 0.250000
#
# Coordination Sequence:
#
# PCOD9276330 Si02
#       7
#     8   8   8   8   8   8   8
#     4  11  22  38  63  95 119 159 210 254 307 366
#     4  10  20  40  60  88 125 159 200 252 307 364
#     4  11  22  37  63  89 124 165 200 254 309 369
#     4   9  20  37  62  89 117 161 205 249 305 365
#     4  10  22  39  65  86 120 162 207 250 302 369
#     4  10  22  38  60  92 123 154 202 258 304 359
#     4  11  23  42  63  88 126 164 204 250 319 370
#
# _framework density 20.949877000000001
#
# number of rings (size 3 to 8) (size 9 to 14) (size 15 to 20)
#    0.000    1.714    2.857    1.286    2.000    1.143 
#    0.000    0.000    6.286    0.000    0.000    0.000 
#    0.000    0.000    0.000    0.000    0.000    0.000 
#
# Total GULP energy -155881.058500 kJ/mol
# GULP energy per Si atom -5567.180661 kJ/mol
# Density = 2.090219 g / cm^3
# Si number density = 20.949877 Si / 1000 Ang^3
#
#
#
# Elastic Constant Matrix: (Units=GPa)
#
#
# Indices 1 2 3 4 5 6 
#
# 1 61.6626 -1.9751 -0.3112 -0.0060 -4.1347 -0.0024
# 2 -1.9751 53.9505 2.7415 0.0155 -7.7818 -0.0091
# 3 -0.3112 2.7415 48.5349 0.0195 -10.3175 -0.0068
# 4 -0.0060 0.0155 0.0195 0.1331 0.0194 12.5904
# 5 -4.1347 -7.7818 -10.3175 0.0194 22.0476 -0.0015
# 6 -0.0024 -0.0091 -0.0068 12.5904 -0.0015 24.0105
#
#
#
# Elastic Compliance Matrix: (Units=1/GPa)
#
#
# Indices 1 2 3 4 5 6 
#
# 1 0.016519 0.001123 0.000872 0.000007 0.003903 -0.000001
# 2 0.001123 0.019613 0.000462 0.000085 0.007349 -0.000037
# 3 0.000872 0.000462 0.022934 0.000117 0.011059 -0.000054
# 4 0.000007 0.000085 0.000117 -0.154584 0.000227 0.081060
# 5 0.003903 0.007349 0.011059 0.000227 0.053857 -0.000110
# 6 -0.000001 -0.000037 -0.000054 0.081060 -0.000110 -0.000857
#
#
# Mechanical properties :
#
#
# Convention : Reuss Voigt Hill
#
# Bulk Modulus (GPa) = 15.62974 18.33981 16.98477
# Shear Modulus (GPa) = -191.53622 20.15111 -85.69255
#
# Velocity S-wave (km/s) = -9.57206 3.10477 -6.40253
# Velocity P-wave (km/s) = 10.70930 4.65037 6.82141
#
# Compressibility (1/GPa) = 0.06398061
#
# Stress axis : x y z
#
# Youngs Moduli (GPa) = 60.53507 50.98604 43.60335
#
# Poissons Ratio (x) = -0.05728 -0.03803
# Poissons Ratio (y) = -0.06800 -0.02013
# Poissons Ratio (z) = -0.05279 -0.02353
#
# Static dielectric constant tensor:
#      x y z
#    x 1.796840 0.000000 -0.022070 
#    y 0.000000 1.717140 0.000000 
#    z -0.022070 0.000000 1.763890 
# 
# From -- ./inp_files/311316.got.cif
#   From: 2010.05.17/outbox.cif.g08.bks.cpg/sg15_156_cif.got.tgz:311316.got - 2010.06.03 18:47:42.
