data_PCOD9276396
_publ_section_title
;
Structure prediction by ZEFSAII (Michael W. Deem and Ramdas Pophale) SiO2 
 PCOD9276396
Probable space group: C 2/C
;
_chemical_formula_sum "Si O2"
_cell_formula_units_Z 44
_cell_length_a 23.184418
_cell_length_b 12.080134
_cell_length_c 10.027546
_cell_angle_alpha 90.000000
_cell_angle_beta 121.629240
_cell_angle_gamma 90.000000
_cell_volume 2391.258711
_symmetry_space_group_name_H-M "C 2/C"
_symmetry_group_IT_number 15
_symmetry_cell_setting 'monoclinic'
loop_
_space_group_symop_operation_xyz
x,y,z
-x,y,1/2-z
-x,-y,-z
x,-y,1/2+z
1/2+x,1/2+y,z
1/2-x,1/2+y,1/2-z
1/2-x,1/2-y,-z
1/2+x,1/2-y,1/2+z
loop_
_atom_site_type_symbol
_atom_site_label
_atom_site_fract_x
_atom_site_fract_y
_atom_site_fract_z
Si Si1 0.892369 0.282360 0.321910
Si Si2 0.334197 0.866243 0.994670
Si Si3 0.500000 0.685857 0.250000
Si Si4 0.683709 0.557926 0.293899
Si Si5 0.047475 0.534853 0.435177
Si Si6 0.136228 0.887131 0.025988
O O1 0.956707 0.257459 0.302908
O O2 0.857591 0.165324 0.308733
O O3 0.915043 0.353023 0.474638
O O4 0.841631 0.350434 0.163879
O O5 0.263071 0.920007 0.871777
O O6 0.340665 0.741389 0.946178
O O7 0.396255 0.941494 0.022640
O O8 0.555652 0.616662 0.399118
O O9 0.657824 0.452049 0.182870
O O10 0.668412 0.556590 0.433388
O O11 0.000000 0.548973 0.250000
O O12 0.000000 0.500000 0.500000
#
# Coordination Sequence:
#
# PCOD9276396 Si02
#       6
#     8   8   4   8   8   8
#     4  10  20  40  61  89 117 157 198 243 296 356
#     4  10  22  38  66  79 125 159 192 245 298 359
#     4   8  18  40  64  80 122 160 190 238 302 352
#     4  10  23  39  61  88 118 159 200 237 298 352
#     4  12  23  39  63  91 117 156 201 248 302 346
#     4  10  21  40  61  85 117 158 201 240 292 355
#
# _framework density 18.400352000000002
#
# number of rings (size 3 to 8) (size 9 to 14) (size 15 to 20)
#    0.000    2.182    1.818    4.364    6.364    2.909 
#    8.182    0.909    0.000    0.000    0.000    0.000 
#    0.000    0.000    0.000    0.000    0.000    0.000 
#
# Total GULP energy -122802.115438 kJ/mol
# GULP energy per Si atom -5581.914338 kJ/mol
# Density = 1.835847 g / cm^3
# Si number density = 18.400352 Si / 1000 Ang^3
#
#
#
# Elastic Constant Matrix: (Units=GPa)
#
#
# Indices 1 2 3 4 5 6 
#
# 1 64.2188 32.1782 38.3639 0.0000 22.0332 0.0000
# 2 32.1782 67.1969 54.8512 0.0000 2.6076 0.0000
# 3 38.3639 54.8512 90.8605 0.0000 10.5482 0.0000
# 4 0.0000 0.0000 0.0000 40.4122 0.0000 4.4697
# 5 22.0332 2.6076 10.5482 0.0000 26.9374 0.0000
# 6 0.0000 0.0000 0.0000 4.4697 0.0000 14.8947
#
#
#
# Elastic Compliance Matrix: (Units=1/GPa)
#
#
# Indices 1 2 3 4 5 6 
#
# 1 0.031254 -0.010801 -0.004012 0.000000 -0.022947 0.000000
# 2 -0.010801 0.033553 -0.017122 0.000000 0.012291 0.000000
# 3 -0.004012 -0.017122 0.023532 0.000000 -0.004276 0.000000
# 4 0.000000 0.000000 0.000000 0.025594 0.000000 -0.007681
# 5 -0.022947 0.012291 -0.004276 0.000000 0.056377 0.000000
# 6 0.000000 0.000000 0.000000 -0.007681 0.000000 0.069443
#
#
# Mechanical properties :
#
#
# Convention : Reuss Voigt Hill
#
# Bulk Modulus (GPa) = 40.86696 52.56252 46.71474
# Shear Modulus (GPa) = 16.03697 22.90772 19.47235
#
# Velocity S-wave (km/s) = 2.95542 3.53223 3.25662
# Velocity P-wave (km/s) = 5.82272 6.72782 6.29157
#
# Compressibility (1/GPa) = 0.02446965
#
# Stress axis : x y z
#
# Youngs Moduli (GPa) = 31.99641 29.80345 42.49459
#
# Poissons Ratio (x) = 0.32191 0.17047
# Poissons Ratio (y) = 0.34560 0.72759
# Poissons Ratio (z) = 0.12836 0.51029
#
# Static dielectric constant tensor:
#      x y z
#    x 1.675780 0.000000 0.025740 
#    y 0.000000 1.639510 0.000000 
#    z 0.025740 0.000000 1.626200 
# 
# From -- ./inp_files/54528.got.cif
#   From: 2010.05.17/outbox.cif.g08.bks.cpg/sg15_28_cif.got.tgz:54528.got - 2010.06.03 18:47:42.
