data_PCOD9276410
_publ_section_title
;
Structure prediction by ZEFSAII (Michael W. Deem and Ramdas Pophale) SiO2 
 PCOD9276410
Probable space group: C 2/C
;
_chemical_formula_sum "Si O2"
_cell_formula_units_Z 56
_cell_length_a 18.619756
_cell_length_b 9.114574
_cell_length_c 26.718420
_cell_angle_alpha 90.000000
_cell_angle_beta 38.296065
_cell_angle_gamma 90.000000
_cell_volume 2810.090085
_symmetry_space_group_name_H-M "C 2/C"
_symmetry_group_IT_number 15
_symmetry_cell_setting 'monoclinic'
loop_
_space_group_symop_operation_xyz
x,y,z
-x,y,1/2-z
-x,-y,-z
x,-y,1/2+z
1/2+x,1/2+y,z
1/2-x,1/2+y,1/2-z
1/2-x,1/2-y,-z
1/2+x,1/2-y,1/2+z
loop_
_atom_site_type_symbol
_atom_site_label
_atom_site_fract_x
_atom_site_fract_y
_atom_site_fract_z
Si Si1 0.125768 0.921469 0.927015
Si Si2 0.636729 0.699158 0.531673
Si Si3 0.197546 0.768439 0.353905
Si Si4 0.407344 0.377280 0.919729
Si Si5 0.506492 0.065881 0.422576
Si Si6 0.370209 0.776146 0.173968
Si Si7 0.790891 0.351732 0.554490
O O1 0.128459 0.810897 0.878869
O O2 0.200503 0.063386 0.870124
O O3 0.159815 0.836183 0.959678
O O4 0.000000 0.000000 0.000000
O O5 0.750000 0.750000 0.500000
O O6 0.576718 0.548145 0.580036
O O7 0.546586 0.829555 0.590159
O O8 0.072227 0.685691 0.421168
O O9 0.253289 0.760140 0.269055
O O10 0.260113 0.677797 0.363237
O O11 0.527137 0.291909 0.847712
O O12 0.311545 0.374990 0.928771
O O13 0.353933 0.293782 0.997588
O O14 0.596452 0.943467 0.356325
O O15 0.390601 0.977093 0.503100
#
# Coordination Sequence:
#
# PCOD9276410 Si02
#       7
#     8   8   8   8   8   8   8
#     4  12  22  42  66  91 129 173 216 271 327 384
#     4  12  23  39  67  96 120 161 218 276 320 370
#     4  12  23  40  63  95 132 171 208 268 336 390
#     4  10  20  40  61  91 128 164 213 265 326 380
#     4  11  23  37  65  95 121 160 221 267 305 382
#     4  11  25  39  62  96 133 169 213 266 328 402
#     4  10  21  37  64  93 124 165 216 268 312 391
#
# _framework density 19.928187000000001
#
# number of rings (size 3 to 8) (size 9 to 14) (size 15 to 20)
#    0.000    0.857    5.714    2.143    2.000    0.571 
#    0.000    0.000    0.000    2.571    0.000    0.000 
#    0.000    0.000    0.000    0.000    0.000    0.000 
#
# Total GULP energy -156004.236752 kJ/mol
# GULP energy per Si atom -5571.579884 kJ/mol
# Density = 1.988283 g / cm^3
# Si number density = 19.928187 Si / 1000 Ang^3
#
#
#
# Elastic Constant Matrix: (Units=GPa)
#
#
# Indices 1 2 3 4 5 6 
#
# 1 94.2289 28.5879 31.6248 0.0000 9.6348 0.0001
# 2 28.5879 138.7314 22.0675 0.0000 4.4404 0.0001
# 3 31.6248 22.0675 44.8510 0.0000 16.0097 -0.0001
# 4 0.0000 0.0000 0.0000 16.0954 0.0000 -4.8931
# 5 9.6348 4.4404 16.0097 0.0000 20.3116 0.0000
# 6 0.0001 0.0001 -0.0001 -4.8931 0.0000 36.6290
#
#
#
# Elastic Compliance Matrix: (Units=1/GPa)
#
#
# Indices 1 2 3 4 5 6 
#
# 1 0.014187 -0.001411 -0.009764 0.000000 0.001275 0.000000
# 2 -0.001411 0.008010 -0.003562 0.000000 0.001726 0.000000
# 3 -0.009764 -0.003562 0.040357 0.000000 -0.026399 0.000000
# 4 0.000000 0.000000 0.000000 0.064759 0.000000 0.008651
# 5 0.001275 0.001726 -0.026399 0.000000 0.069059 0.000000
# 6 0.000000 0.000000 0.000000 0.008651 0.000000 0.028456
#
#
# Mechanical properties :
#
#
# Convention : Reuss Voigt Hill
#
# Bulk Modulus (GPa) = 30.23084 49.15242 39.69163
# Shear Modulus (GPa) = 18.84434 27.64260 23.24347
#
# Velocity S-wave (km/s) = 3.07842 3.72843 3.41891
# Velocity P-wave (km/s) = 5.27621 6.57672 5.96203
#
# Compressibility (1/GPa) = 0.03307880
#
# Stress axis : x y z
#
# Youngs Moduli (GPa) = 70.48547 124.83814 24.77880
#
# Poissons Ratio (x) = 0.17617 0.24195
# Poissons Ratio (y) = 0.09947 0.08827
# Poissons Ratio (z) = 0.68825 0.44472
#
# Static dielectric constant tensor:
#      x y z
#    x 1.752100 0.000000 -0.008650 
#    y 0.000000 1.756360 0.000000 
#    z -0.008650 0.000000 1.705650 
# 
# From -- ./inp_files/298505.got.cif
#   From: 2010.05.17/outbox.cif.g08.bks.cpg/sg15_150_cif.got.tgz:298505.got - 2010.06.03 18:47:42.
