data_PCOD9276401
_publ_section_title
;
Structure prediction by ZEFSAII (Michael W. Deem and Ramdas Pophale) SiO2 
 PCOD9276401
Probable space group: C 2/C
;
_chemical_formula_sum "Si O2"
_cell_formula_units_Z 56
_cell_length_a 20.576728
_cell_length_b 12.090108
_cell_length_c 17.947267
_cell_angle_alpha 90.000000
_cell_angle_beta 145.534856
_cell_angle_gamma 90.000000
_cell_volume 2526.667989
_symmetry_space_group_name_H-M "C 2/C"
_symmetry_group_IT_number 15
_symmetry_cell_setting 'monoclinic'
loop_
_space_group_symop_operation_xyz
x,y,z
-x,y,1/2-z
-x,-y,-z
x,-y,1/2+z
1/2+x,1/2+y,z
1/2-x,1/2+y,1/2-z
1/2-x,1/2-y,-z
1/2+x,1/2-y,1/2+z
loop_
_atom_site_type_symbol
_atom_site_label
_atom_site_fract_x
_atom_site_fract_y
_atom_site_fract_z
Si Si1 0.649821 0.042035 0.160304
Si Si2 0.909331 0.910957 0.883883
Si Si3 0.000000 0.712517 0.750000
Si Si4 0.400604 0.960891 0.065027
Si Si5 0.500000 0.612637 0.750000
Si Si6 0.146176 0.290175 0.957264
Si Si7 0.928094 0.325409 0.457504
Si Si8 0.150245 0.089925 0.347506
O O1 0.781300 0.072921 0.297536
O O2 0.627912 0.912263 0.152894
O O3 0.622330 0.043140 0.045226
O O4 0.549351 0.118804 0.099431
O O5 0.955678 0.790604 0.947529
O O6 0.888455 0.913390 0.775512
O O7 0.000000 0.000000 0.000000
O O8 0.996921 0.625665 0.679351
O O9 0.898907 0.801549 0.660465
O O10 0.400656 0.084749 0.099488
O O11 0.284125 0.910209 0.986409
O O12 0.546703 0.697890 0.855637
O O13 0.397829 0.527568 0.669316
O O14 0.250000 0.250000 0.000000
O O15 0.163982 0.301606 0.063191
#
# Coordination Sequence:
#
# PCOD9276401 Si02
#       8
#     8   8   4   8   4   8   8   8
#     4   9  22  41  63  90 129 169 207 274 321 384
#     4  11  23  39  65  92 123 169 220 263 321 394
#     4  11  21  36  64  90 123 165 204 260 312 387
#     4  10  20  40  61  89 125 162 212 255 320 378
#     4  11  21  38  60  86 123 163 198 256 322 371
#     4  11  22  38  63  91 120 163 207 258 314 387
#     4  10  22  41  63  90 129 164 212 265 331 380
#     4  10  22  39  59  87 126 162 205 260 316 374
#
# _framework density 22.163575999999999
#
# number of rings (size 3 to 8) (size 9 to 14) (size 15 to 20)
#    0.000    1.714    1.429    2.571    2.000    1.143 
#    0.000    2.857    0.000    0.000    0.000    0.000 
#    0.000    0.000    0.000    0.000    0.000    0.000 
#
# Total GULP energy -155940.929006 kJ/mol
# GULP energy per Si atom -5569.318893 kJ/mol
# Density = 2.211313 g / cm^3
# Si number density = 22.163576 Si / 1000 Ang^3
#
#
#
# Elastic Constant Matrix: (Units=GPa)
#
#
# Indices 1 2 3 4 5 6 
#
# 1 71.6208 30.4833 5.8103 0.0000 12.3979 0.0000
# 2 30.4833 191.2254 30.2033 0.0000 -1.2177 0.0000
# 3 5.8103 30.2033 51.4300 0.0000 9.7616 0.0000
# 4 0.0000 0.0000 0.0000 13.5790 0.0000 -9.2981
# 5 12.3979 -1.2177 9.7616 0.0000 28.5168 0.0000
# 6 0.0000 0.0000 0.0000 -9.2981 0.0000 18.3932
#
#
#
# Elastic Compliance Matrix: (Units=1/GPa)
#
#
# Indices 1 2 3 4 5 6 
#
# 1 0.016412 -0.002869 0.001292 0.000000 -0.007700 0.000000
# 2 -0.002869 0.006327 -0.003935 0.000000 0.002865 0.000000
# 3 0.001292 -0.003935 0.023258 0.000000 -0.008692 0.000000
# 4 0.000000 0.000000 0.000000 0.112630 0.000000 0.056936
# 5 -0.007700 0.002865 -0.008692 0.000000 0.041512 0.000000
# 6 0.000000 0.000000 0.000000 0.056936 0.000000 0.083150
#
#
# Mechanical properties :
#
#
# Convention : Reuss Voigt Hill
#
# Bulk Modulus (GPa) = 28.59341 49.69666 39.14504
# Shear Modulus (GPa) = 16.34147 28.61641 22.47894
#
# Velocity S-wave (km/s) = 2.71830 3.59715 3.18815
# Velocity P-wave (km/s) = 4.77297 6.30270 5.59041
#
# Compressibility (1/GPa) = 0.03497309
#
# Stress axis : x y z
#
# Youngs Moduli (GPa) = 60.93186 158.06296 42.99513
#
# Poissons Ratio (x) = 0.45354 -0.05557
# Poissons Ratio (y) = 0.17484 0.16918
# Poissons Ratio (z) = -0.07875 0.62197
#
# Static dielectric constant tensor:
#      x y z
#    x 1.913710 0.000000 -0.006030 
#    y 0.000000 1.840400 0.000000 
#    z -0.006030 0.000000 1.840220 
# 
# From -- ./inp_files/255503.got.cif
#   From: 2010.05.17/outbox.cif.g08.bks.cpg/sg15_128_cif.got.tgz:255503.got - 2010.06.03 18:47:42.
