data_PCOD9276437
_publ_section_title
;
Structure prediction by ZEFSAII (Michael W. Deem and Ramdas Pophale) SiO2 
 PCOD9276437
Probable space group: C 2/C
;
_chemical_formula_sum "Si O2"
_cell_formula_units_Z 60
_cell_length_a 10.740612
_cell_length_b 11.929112
_cell_length_c 24.568757
_cell_angle_alpha 90.000000
_cell_angle_beta 45.629396
_cell_angle_gamma 90.000000
_cell_volume 2250.215144
_symmetry_space_group_name_H-M "C 2/C"
_symmetry_group_IT_number 15
_symmetry_cell_setting 'monoclinic'
loop_
_space_group_symop_operation_xyz
x,y,z
-x,y,1/2-z
-x,-y,-z
x,-y,1/2+z
1/2+x,1/2+y,z
1/2-x,1/2+y,1/2-z
1/2-x,1/2-y,-z
1/2+x,1/2-y,1/2+z
loop_
_atom_site_type_symbol
_atom_site_label
_atom_site_fract_x
_atom_site_fract_y
_atom_site_fract_z
Si Si1 0.293976 0.855273 0.856962
Si Si2 0.641253 0.701970 0.294061
Si Si3 0.555789 0.742822 0.585432
Si Si4 0.077741 0.580510 0.645059
Si Si5 0.575890 0.953908 0.032330
Si Si6 0.000000 0.947203 0.750000
Si Si7 0.926357 0.783065 0.014510
Si Si8 0.433268 0.490710 0.383735
O O1 0.417603 0.796095 0.863671
O O2 0.279437 0.797647 0.801646
O O3 0.361773 0.983073 0.832790
O O4 0.102852 0.849558 0.944900
O O5 0.560031 0.820675 0.301731
O O6 0.644424 0.630575 0.236617
O O7 0.506211 0.615780 0.364968
O O8 0.750000 0.750000 0.500000
O O9 0.444108 0.778601 0.567803
O O10 0.474050 0.619947 0.623739
O O11 0.000737 0.521134 0.614241
O O12 0.256807 0.641230 0.571856
O O13 0.581740 0.819787 0.024625
O O14 0.764758 0.007830 0.971969
O O15 0.500000 0.000000 0.000000
O O16 0.911889 0.018857 0.824983
#
# Coordination Sequence:
#
# PCOD9276437 Si02
#       8
#     8   8   8   8   8   4   8   8
#     4  11  21  35  57  89 131 161 200 269 331 388
#     4  10  21  42  64  90 118 167 231 261 316 389
#     4  10  21  36  56  94 130 162 201 264 341 392
#     4  12  22  36  60  95 124 164 208 269 329 388
#     4  12  21  33  58  95 130 160 199 262 339 394
#     4   8  22  42  66  84 114 176 230 254 300 386
#     4  11  19  34  53  87 129 161 200 250 322 402
#     4  10  20  40  62  84 124 166 214 261 311 393
#
# _framework density 26.664117000000001
#
# number of rings (size 3 to 8) (size 9 to 14) (size 15 to 20)
#    0.800    0.533    2.667    6.400    0.000    0.000 
#    0.000    1.333    2.933    0.800    0.000    0.000 
#    0.000    0.000    0.000    0.000    0.000    0.000 
#
# Total GULP energy -167294.838784 kJ/mol
# GULP energy per Si atom -5576.494626 kJ/mol
# Density = 2.660343 g / cm^3
# Si number density = 26.664117 Si / 1000 Ang^3
#
#
#
# Elastic Constant Matrix: (Units=GPa)
#
#
# Indices 1 2 3 4 5 6 
#
# 1 119.4592 36.7826 27.2727 0.0000 36.5643 0.0000
# 2 36.7826 132.8625 31.6599 0.0000 -1.4041 0.0000
# 3 27.2727 31.6599 88.8408 0.0000 3.0721 0.0000
# 4 0.0000 0.0000 0.0000 11.3350 0.0000 20.4605
# 5 36.5643 -1.4041 3.0721 0.0000 30.3197 0.0000
# 6 0.0000 0.0000 0.0000 20.4605 0.0000 50.3279
#
#
#
# Elastic Compliance Matrix: (Units=1/GPa)
#
#
# Indices 1 2 3 4 5 6 
#
# 1 0.016215 -0.004009 -0.002877 0.000000 -0.019449 0.000000
# 2 -0.004009 0.009230 -0.002248 0.000000 0.005490 0.000000
# 3 -0.002877 -0.002248 0.012869 0.000000 0.002061 0.000000
# 4 0.000000 0.000000 0.000000 0.331462 0.000000 -0.134754
# 5 -0.019449 0.005490 0.002061 0.000000 0.056482 0.000000
# 6 0.000000 0.000000 0.000000 -0.134754 0.000000 0.074653
#
#
# Mechanical properties :
#
#
# Convention : Reuss Voigt Hill
#
# Bulk Modulus (GPa) = 49.88449 59.17701 54.53075
# Shear Modulus (GPa) = 9.50819 34.75968 22.13393
#
# Velocity S-wave (km/s) = 1.89041 3.61447 2.88427
# Velocity P-wave (km/s) = 4.84912 6.29769 5.62027
#
# Compressibility (1/GPa) = 0.02004631
#
# Stress axis : x y z
#
# Youngs Moduli (GPa) = 61.67013 108.33835 77.70524
#
# Poissons Ratio (x) = 0.43436 0.22352
# Poissons Ratio (y) = 0.24725 0.17472
# Poissons Ratio (z) = 0.17740 0.24360
#
# Static dielectric constant tensor:
#      x y z
#    x -8.199910 0.000000 -1.339570 
#    y 0.000000 2.120980 0.000000 
#    z -1.339570 0.000000 2.032190 
# 
# From -- ./inp_files/310628.got.cif
#   From: 2010.05.17/outbox.cif.g08.bks.cpg/sg15_156_cif.got.tgz:310628.got - 2010.06.03 18:47:42.
