data_PCOD9276316
_publ_section_title
;
Structure prediction by ZEFSAII (Michael W. Deem and Ramdas Pophale) SiO2 
 PCOD9276316
Probable space group: C 2/C
;
_chemical_formula_sum "Si O2"
_cell_formula_units_Z 52
_cell_length_a 13.298225
_cell_length_b 25.615176
_cell_length_c 10.353403
_cell_angle_alpha 90.000000
_cell_angle_beta 48.965494
_cell_angle_gamma 90.000000
_cell_volume 2660.274808
_symmetry_space_group_name_H-M "C 2/C"
_symmetry_group_IT_number 15
_symmetry_cell_setting 'monoclinic'
loop_
_space_group_symop_operation_xyz
x,y,z
-x,y,1/2-z
-x,-y,-z
x,-y,1/2+z
1/2+x,1/2+y,z
1/2-x,1/2+y,1/2-z
1/2-x,1/2-y,-z
1/2+x,1/2-y,1/2+z
loop_
_atom_site_type_symbol
_atom_site_label
_atom_site_fract_x
_atom_site_fract_y
_atom_site_fract_z
Si Si1 0.149198 0.054071 0.788143
Si Si2 0.631125 0.867987 0.399574
Si Si3 0.749316 0.690972 0.454075
Si Si4 0.080252 0.939729 0.805630
Si Si5 0.000000 0.138483 0.750000
Si Si6 0.654930 0.203490 0.630052
Si Si7 0.677115 0.863150 0.860974
O O1 0.291461 0.078568 0.702734
O O2 0.095492 0.099481 0.742687
O O3 0.143579 0.997208 0.728042
O O4 0.039809 0.053150 0.992527
O O5 0.671396 0.843568 0.505451
O O6 0.668016 0.823513 0.260481
O O7 0.474659 0.881243 0.530381
O O8 0.750000 0.750000 0.500000
O O9 0.594864 0.673343 0.582922
O O10 0.803677 0.680851 0.265279
O O11 0.201104 0.903893 0.753807
O O12 0.000000 0.918487 0.750000
O O13 0.500000 0.220501 0.750000
O O14 0.750000 0.250000 0.500000
O O15 0.680656 0.158794 0.502515
#
# Coordination Sequence:
#
# PCOD9276316 Si02
#       7
#     8   8   8   8   4   8   8
#     4  10  21  39  60  88 121 156 203 253 313 360
#     4  10  23  40  61  87 129 160 200 257 310 370
#     4  11  23  39  62  90 124 164 206 253 312 369
#     4  11  22  38  65  89 121 159 211 257 311 367
#     4  10  20  40  60  86 122 158 200 254 306 364
#     4  10  22  41  59  85 122 162 203 254 304 363
#     4  11  23  40  61  92 122 160 208 256 304 373
#
# _framework density 19.546852000000001
#
# number of rings (size 3 to 8) (size 9 to 14) (size 15 to 20)
#    0.000    1.538    2.308    2.308    2.154    2.462 
#    2.769    0.000    0.000    3.692    0.000    0.000 
#    0.000    0.000    0.000    0.000    0.000    0.000 
#
# Total GULP energy -144850.833247 kJ/mol
# GULP energy per Si atom -5571.185894 kJ/mol
# Density = 1.950236 g / cm^3
# Si number density = 19.546852 Si / 1000 Ang^3
#
#
#
# Elastic Constant Matrix: (Units=GPa)
#
#
# Indices 1 2 3 4 5 6 
#
# 1 54.1502 11.5075 14.7209 0.0000 -7.8289 0.0000
# 2 11.5075 61.7233 7.0134 0.0000 -16.2146 0.0000
# 3 14.7209 7.0134 79.1424 0.0000 -10.0117 0.0000
# 4 0.0000 0.0000 0.0000 24.3384 0.0000 -0.6998
# 5 -7.8289 -16.2146 -10.0117 0.0000 37.2363 0.0000
# 6 0.0000 0.0000 0.0000 -0.6998 0.0000 19.7205
#
#
#
# Elastic Compliance Matrix: (Units=1/GPa)
#
#
# Indices 1 2 3 4 5 6 
#
# 1 0.020265 -0.002845 -0.003245 0.000000 0.002149 0.000000
# 2 -0.002845 0.018724 -0.000181 0.000000 0.007507 0.000000
# 3 -0.003245 -0.000181 0.013622 0.000000 0.002902 0.000000
# 4 0.000000 0.000000 0.000000 0.041129 0.000000 0.001460
# 5 0.002149 0.007507 0.002902 0.000000 0.031356 0.000000
# 6 0.000000 0.000000 0.000000 0.001460 0.000000 0.050760
#
#
# Mechanical properties :
#
#
# Convention : Reuss Voigt Hill
#
# Bulk Modulus (GPa) = 24.95639 29.05552 27.00596
# Shear Modulus (GPa) = 24.78253 27.04399 25.91326
#
# Velocity S-wave (km/s) = 3.56456 3.72364 3.64497
# Velocity P-wave (km/s) = 5.45313 5.77790 5.61786
#
# Compressibility (1/GPa) = 0.04006989
#
# Stress axis : x y z
#
# Youngs Moduli (GPa) = 49.34696 53.40673 73.40979
#
# Poissons Ratio (x) = 0.15193 0.23824
# Poissons Ratio (y) = 0.14038 0.01325
# Poissons Ratio (z) = 0.16015 0.00964
#
# Static dielectric constant tensor:
#      x y z
#    x 1.748890 0.000000 -0.055920 
#    y 0.000000 0.538720 0.000000 
#    z -0.055920 0.000000 1.744750 
# 
# From -- ./inp_files/100627.got.cif
#   From: 2010.05.17/outbox.cif.g08.bks.cpg/sg15_51_cif.got.tgz:100627.got - 2010.06.03 18:47:42.
