data_PCOD9276342
_publ_section_title
;
Structure prediction by ZEFSAII (Michael W. Deem and Ramdas Pophale) SiO2 
 PCOD9276342
Probable space group: C 2/C
;
_chemical_formula_sum "Si O2"
_cell_formula_units_Z 40
_cell_length_a 19.429626
_cell_length_b 11.523406
_cell_length_c 7.576837
_cell_angle_alpha 90.000000
_cell_angle_beta 86.782713
_cell_angle_gamma 90.000000
_cell_volume 1693.745706
_symmetry_space_group_name_H-M "C 2/C"
_symmetry_group_IT_number 15
_symmetry_cell_setting 'monoclinic'
loop_
_space_group_symop_operation_xyz
x,y,z
-x,y,1/2-z
-x,-y,-z
x,-y,1/2+z
1/2+x,1/2+y,z
1/2-x,1/2+y,1/2-z
1/2-x,1/2-y,-z
1/2+x,1/2-y,1/2+z
loop_
_atom_site_type_symbol
_atom_site_label
_atom_site_fract_x
_atom_site_fract_y
_atom_site_fract_z
Si Si1 0.796108 0.650666 0.810429
Si Si2 0.568840 0.840902 0.625476
Si Si3 0.366467 0.984825 0.592743
Si Si4 0.840658 0.118802 0.438268
Si Si5 0.420821 0.594155 0.767221
O O1 0.802931 0.572925 0.636097
O O2 0.817575 0.784450 0.798416
O O3 0.854782 0.597990 0.929871
O O4 0.725888 0.625132 0.923178
O O5 0.500000 0.850729 0.750000
O O6 0.571950 0.924118 0.455504
O O7 0.582166 0.704985 0.601853
O O8 0.625699 0.897857 0.745748
O O9 0.901087 0.140569 0.574439
O O10 0.867796 0.004403 0.336226
O O11 0.500000 0.551310 0.750000
#
# Coordination Sequence:
#
# PCOD9276342 Si02
#       5
#     8   8   8   8   8
#     4  10  22  40  64  89 124 156 210 253 310 368
#     4  10  21  38  62  88 125 160 210 255 304 365
#     4  10  20  40  60  91 119 162 205 257 313 361
#     4  11  23  42  61  91 123 164 203 259 304 371
#     4  11  24  42  63  91 127 162 211 253 308 368
#
# _framework density 23.616294
#
# number of rings (size 3 to 8) (size 9 to 14) (size 15 to 20)
#    0.000    1.600    2.000    2.400    2.800    0.000 
#    0.000    4.000    0.000    0.000    0.000    0.000 
#    0.000    0.000    0.000    0.000    0.000    0.000 
#
# Total GULP energy -111474.956388 kJ/mol
# GULP energy per Si atom -5573.747819 kJ/mol
# Density = 2.356254 g / cm^3
# Si number density = 23.616294 Si / 1000 Ang^3
#
#
#
# Elastic Constant Matrix: (Units=GPa)
#
#
# Indices 1 2 3 4 5 6 
#
# 1 75.4093 50.2193 5.7849 0.0000 -19.9282 0.0000
# 2 50.2193 144.3197 19.3436 0.0000 -31.6981 0.0000
# 3 5.7849 19.3436 45.2216 0.0000 -12.0090 0.0000
# 4 0.0000 0.0000 0.0000 23.4186 0.0000 1.4946
# 5 -19.9282 -31.6981 -12.0090 0.0000 33.8495 0.0000
# 6 0.0000 0.0000 0.0000 1.4946 0.0000 -17.5333
#
#
#
# Elastic Compliance Matrix: (Units=1/GPa)
#
#
# Indices 1 2 3 4 5 6 
#
# 1 0.018287 -0.005147 0.001591 0.000000 0.006511 0.000000
# 2 -0.005147 0.010295 -0.002197 0.000000 0.005832 0.000000
# 3 0.001591 -0.002197 0.024898 0.000000 0.007713 0.000000
# 4 0.000000 0.000000 0.000000 0.042470 0.000000 0.003620
# 5 0.006511 0.005832 0.007713 0.000000 0.041573 0.000000
# 6 0.000000 0.000000 0.000000 0.003620 0.000000 -0.056726
#
#
# Mechanical properties :
#
#
# Convention : Reuss Voigt Hill
#
# Bulk Modulus (GPa) = 23.82340 46.18291 35.00316
# Shear Modulus (GPa) = 47.03975 20.58716 33.81345
#
# Velocity S-wave (km/s) = 4.46784 2.95572 3.78800
# Velocity P-wave (km/s) = 6.06012 5.58984 5.82973
#
# Compressibility (1/GPa) = 0.04197554
#
# Stress axis : x y z
#
# Youngs Moduli (GPa) = 54.68377 97.13281 40.16447
#
# Poissons Ratio (x) = 0.49990 -0.06391
# Poissons Ratio (y) = 0.28143 0.08823
# Poissons Ratio (z) = -0.08701 0.21338
#
# Static dielectric constant tensor:
#      x y z
#    x 1.942700 0.000000 -0.004350 
#    y 0.000000 1.917410 0.000000 
#    z -0.004350 0.000000 2.042340 
# 
# From -- ./inp_files/46097.got.cif
#   From: 2010.05.17/outbox.cif.g08.bks.cpg/sg15_24_cif.got.tgz:46097.got - 2010.06.03 18:47:42.
