data_PCOD9276273
_publ_section_title
;
Structure prediction by ZEFSAII (Michael W. Deem and Ramdas Pophale) SiO2 
 PCOD9276273
Probable space group: C 2/C
;
_chemical_formula_sum "Si O2"
_cell_formula_units_Z 60
_cell_length_a 12.554432
_cell_length_b 8.729344
_cell_length_c 23.320904
_cell_angle_alpha 90.000000
_cell_angle_beta 114.891112
_cell_angle_gamma 90.000000
_cell_volume 2318.375003
_symmetry_space_group_name_H-M "C 2/C"
_symmetry_group_IT_number 15
_symmetry_cell_setting 'monoclinic'
loop_
_space_group_symop_operation_xyz
x,y,z
-x,y,1/2-z
-x,-y,-z
x,-y,1/2+z
1/2+x,1/2+y,z
1/2-x,1/2+y,1/2-z
1/2-x,1/2-y,-z
1/2+x,1/2-y,1/2+z
loop_
_atom_site_type_symbol
_atom_site_label
_atom_site_fract_x
_atom_site_fract_y
_atom_site_fract_z
Si Si1 0.695624 0.557292 0.634393
Si Si2 0.863237 0.715314 0.887573
Si Si3 0.604833 0.862749 0.393813
Si Si4 0.294642 0.915254 0.487263
Si Si5 0.249609 0.529478 0.222791
Si Si6 0.000000 0.927791 0.750000
Si Si7 0.497316 0.861518 0.814403
Si Si8 0.056505 0.921107 0.385421
O O1 0.696781 0.378687 0.615140
O O2 0.772737 0.667980 0.611537
O O3 0.735954 0.538111 0.709833
O O4 0.557194 0.589768 0.600721
O O5 0.870877 0.622838 0.948421
O O6 0.782707 0.611124 0.827071
O O7 0.994358 0.738559 0.890347
O O8 0.641466 0.971119 0.454986
O O9 0.542005 0.966836 0.330835
O O10 0.250000 0.750000 0.500000
O O11 0.172073 0.991773 0.438526
O O12 0.366474 0.624619 0.232890
O O13 0.136506 0.637767 0.195520
O O14 0.023308 0.008093 0.816501
O O15 0.500000 0.809958 0.750000
O O16 0.575358 0.754424 0.871216
#
# Coordination Sequence:
#
# PCOD9276273 Si02
#       8
#     8   8   8   8   8   4   8   8
#     4  11  24  42  64  97 137 175 215 273 345 397
#     4  11  24  45  66  99 136 172 227 281 327 408
#     4  11  24  43  68  98 129 177 223 275 335 398
#     4  12  22  43  73  95 128 180 226 275 329 397
#     4  10  23  37  67  96 129 172 215 277 341 392
#     4  10  20  40  58  88 130 168 210 264 332 388
#     4  11  20  38  67  92 126 166 225 274 321 396
#     4  11  23  38  66  95 127 174 223 270 332 397
#
# _framework density 25.880196000000002
#
# number of rings (size 3 to 8) (size 9 to 14) (size 15 to 20)
#    0.000    1.067    6.000    0.400    3.733    0.533 
#    4.800    0.667    0.000    0.000    0.000    0.000 
#    0.000    0.000    0.000    0.000    0.000    0.000 
#
# Total GULP energy -167663.687570 kJ/mol
# GULP energy per Si atom -5588.789586 kJ/mol
# Density = 2.582129 g / cm^3
# Si number density = 25.880196 Si / 1000 Ang^3
#
#
#
# Elastic Constant Matrix: (Units=GPa)
#
#
# Indices 1 2 3 4 5 6 
#
# 1 195.6376 19.0663 23.8474 0.0000 -3.3182 0.0000
# 2 19.0663 23.6803 1.9448 0.0000 6.7046 0.0000
# 3 23.8474 1.9448 75.0675 0.0000 5.4533 0.0000
# 4 0.0000 0.0000 0.0000 20.9218 0.0000 -6.1280
# 5 -3.3182 6.7046 5.4533 0.0000 39.7610 0.0000
# 6 0.0000 0.0000 0.0000 -6.1280 0.0000 11.3016
#
#
#
# Elastic Compliance Matrix: (Units=1/GPa)
#
#
# Indices 1 2 3 4 5 6 
#
# 1 0.005851 -0.005009 -0.001844 0.000000 0.001586 0.000000
# 2 -0.005009 0.048662 0.000967 0.000000 -0.008756 0.000000
# 3 -0.001844 0.000967 0.014045 0.000000 -0.002243 0.000000
# 4 0.000000 0.000000 0.000000 0.056821 0.000000 0.030810
# 5 0.001586 -0.008756 -0.002243 0.000000 0.027067 0.000000
# 6 0.000000 0.000000 0.000000 0.030810 0.000000 0.105189
#
#
# Mechanical properties :
#
#
# Convention : Reuss Voigt Hill
#
# Bulk Modulus (GPa) = 17.61021 42.67804 30.14413
# Shear Modulus (GPa) = 17.34085 31.03201 24.18643
#
# Velocity S-wave (km/s) = 2.59133 3.46651 3.06036
# Velocity P-wave (km/s) = 3.97147 5.70514 4.91534
#
# Compressibility (1/GPa) = 0.05678525
#
# Stress axis : x y z
#
# Youngs Moduli (GPa) = 170.90096 20.55005 71.19889
#
# Poissons Ratio (x) = 0.10293 0.13131
# Poissons Ratio (y) = 0.85600 -0.06882
# Poissons Ratio (z) = 0.31519 -0.01986
#
# Static dielectric constant tensor:
#      x y z
#    x 2.114390 0.000000 0.002780 
#    y 0.000000 2.116680 0.000000 
#    z 0.002780 0.000000 1.975780 
# 
# From -- ./inp_files/268969.got.cif
#   From: 2010.05.17/outbox.cif.g08.bks.cpg/sg15_135_cif.got.tgz:268969.got - 2010.06.03 18:47:42.
