data_PCOD9276787
_publ_section_title
;
Structure prediction by ZEFSAII (Michael W. Deem and Ramdas Pophale) SiO2 
 PCOD9276787
Probable space group: C 2/C
;
_chemical_formula_sum "Si O2"
_cell_formula_units_Z 48
_cell_length_a 21.490541
_cell_length_b 14.461234
_cell_length_c 9.913335
_cell_angle_alpha 90.000000
_cell_angle_beta 138.793375
_cell_angle_gamma 90.000000
_cell_volume 2029.600467
_symmetry_space_group_name_H-M "C 2/C"
_symmetry_group_IT_number 15
_symmetry_cell_setting 'monoclinic'
loop_
_space_group_symop_operation_xyz
x,y,z
-x,y,1/2-z
-x,-y,-z
x,-y,1/2+z
1/2+x,1/2+y,z
1/2-x,1/2+y,1/2-z
1/2-x,1/2-y,-z
1/2+x,1/2-y,1/2+z
loop_
_atom_site_type_symbol
_atom_site_label
_atom_site_fract_x
_atom_site_fract_y
_atom_site_fract_z
Si Si1 0.564717 0.214305 0.471325
Si Si2 0.721599 0.505787 0.646385
Si Si3 0.946732 0.226718 0.028314
Si Si4 0.564652 0.000831 0.974185
Si Si5 0.603287 0.458507 0.198915
Si Si6 0.764318 0.771254 0.367489
O O1 0.500000 0.256663 0.250000
O O2 0.515927 0.219629 0.539391
O O3 0.579705 0.106829 0.458736
O O4 0.667323 0.258637 0.640030
O O5 0.646225 0.466883 0.416919
O O6 0.679619 0.492453 0.726603
O O7 0.724825 0.617110 0.624892
O O8 0.828862 0.468786 0.815788
O O9 0.907026 0.145711 0.869598
O O10 0.855050 0.273386 0.944938
O O11 0.000000 0.190853 0.250000
O O12 0.500000 0.045151 0.750000
O O13 0.500000 0.000000 0.000000
O O14 0.500000 0.500000 0.000000
O O15 0.750000 0.750000 0.500000
#
# Coordination Sequence:
#
# PCOD9276787 Si02
#       6
#     8   8   8   8   8   8
#     4  10  23  40  61  93 127 157 206 263 313 367
#     4  10  22  39  61  89 122 162 205 253 311 369
#     4  11  22  40  64  92 126 169 209 252 314 381
#     4  10  21  41  64  88 121 159 203 262 317 365
#     4  11  22  38  58  89 127 165 207 251 303 372
#     4  10  20  40  65  85 121 164 207 256 306 369
#
# _framework density 23.649975000000001
#
# number of rings (size 3 to 8) (size 9 to 14) (size 15 to 20)
#    0.000    1.667    1.667    3.500    0.000    4.000 
#    3.000    0.000    0.000    0.000    0.000    0.000 
#    0.000    0.000    0.000    0.000    0.000    0.000 
#
# Total GULP energy -134106.989123 kJ/mol
# GULP energy per Si atom -5587.791213 kJ/mol
# Density = 2.359615 g / cm^3
# Si number density = 23.649975 Si / 1000 Ang^3
#
#
#
# Elastic Constant Matrix: (Units=GPa)
#
#
# Indices 1 2 3 4 5 6 
#
# 1 101.8672 -16.4732 16.5232 0.0000 24.8965 0.0000
# 2 -16.4732 52.2526 -1.4648 0.0000 -0.2420 0.0000
# 3 16.5232 -1.4648 140.7267 0.0000 16.4367 0.0000
# 4 0.0000 0.0000 0.0000 18.2622 0.0000 -6.9557
# 5 24.8965 -0.2420 16.4367 0.0000 55.1411 0.0000
# 6 0.0000 0.0000 0.0000 -6.9557 0.0000 19.5829
#
#
#
# Elastic Compliance Matrix: (Units=1/GPa)
#
#
# Indices 1 2 3 4 5 6 
#
# 1 0.011772 0.003667 -0.000751 0.000000 -0.005075 0.000000
# 2 0.003667 0.020285 -0.000038 0.000000 -0.001555 0.000000
# 3 -0.000751 -0.000038 0.007412 0.000000 -0.001870 0.000000
# 4 0.000000 0.000000 0.000000 0.063325 0.000000 0.022492
# 5 -0.005075 -0.001555 -0.001870 0.000000 0.020977 0.000000
# 6 0.000000 0.000000 0.000000 0.022492 0.000000 0.059054
#
#
# Mechanical properties :
#
#
# Convention : Reuss Voigt Hill
#
# Bulk Modulus (GPa) = 22.11171 32.44633 27.27902
# Shear Modulus (GPa) = 26.02196 38.34800 32.18498
#
# Velocity S-wave (km/s) = 3.32067 4.03113 3.69302
# Velocity P-wave (km/s) = 4.90635 5.95112 5.45381
#
# Compressibility (1/GPa) = 0.04522491
#
# Stress axis : x y z
#
# Youngs Moduli (GPa) = 84.94846 49.29635 134.91180
#
# Poissons Ratio (x) = -0.18075 0.10135
# Poissons Ratio (y) = -0.31147 0.00509
# Poissons Ratio (z) = 0.06382 0.00186
#
# Static dielectric constant tensor:
#      x y z
#    x 1.868060 0.000000 0.053550 
#    y 0.000000 1.955150 0.000000 
#    z 0.053550 0.000000 1.889580 
# 
# From -- ./inp_files/57682.got.cif
#   From: 2010.05.17/outbox.cif.g08.bks.cpg/sg15_29_cif.got.tgz:57682.got - 2010.06.03 18:47:42.
