data_PCOD9276531
_publ_section_title
;
Structure prediction by ZEFSAII (Michael W. Deem and Ramdas Pophale) SiO2 
 PCOD9276531
Probable space group: C 2/C
;
_chemical_formula_sum "Si O2"
_cell_formula_units_Z 48
_cell_length_a 10.693159
_cell_length_b 10.927734
_cell_length_c 18.880211
_cell_angle_alpha 90.000000
_cell_angle_beta 120.443986
_cell_angle_gamma 90.000000
_cell_volume 1902.011718
_symmetry_space_group_name_H-M "C 2/C"
_symmetry_group_IT_number 15
_symmetry_cell_setting 'monoclinic'
loop_
_space_group_symop_operation_xyz
x,y,z
-x,y,1/2-z
-x,-y,-z
x,-y,1/2+z
1/2+x,1/2+y,z
1/2-x,1/2+y,1/2-z
1/2-x,1/2-y,-z
1/2+x,1/2-y,1/2+z
loop_
_atom_site_type_symbol
_atom_site_label
_atom_site_fract_x
_atom_site_fract_y
_atom_site_fract_z
Si Si1 0.000000 0.772058 0.750000
Si Si2 0.200071 0.160243 0.689796
Si Si3 0.436570 0.919571 0.879274
Si Si4 0.237140 0.525027 0.539886
Si Si5 0.000000 0.440286 0.750000
Si Si6 0.970085 0.087266 0.388981
Si Si7 0.232319 0.243634 0.859257
O O1 0.856303 0.689891 0.699224
O O2 0.976306 0.856545 0.811554
O O3 0.100767 0.277554 0.641853
O O4 0.215058 0.172941 0.779514
O O5 0.125597 0.035636 0.643158
O O6 0.424093 0.987969 0.799769
O O7 0.321801 0.963134 0.905015
O O8 0.595036 0.952449 0.953458
O O9 0.366955 0.448376 0.542740
O O10 0.297362 0.654206 0.584904
O O11 0.878535 0.354011 0.680168
O O12 0.890234 0.193158 0.410339
#
# Coordination Sequence:
#
# PCOD9276531 Si02
#       7
#     4   8   8   8   4   8   8
#     4  10  20  40  62  96 142 176 230 280 338 400
#     4  10  21  38  65 100 131 183 223 282 336 408
#     4  10  23  43  70  99 136 185 226 275 356 394
#     4  11  22  45  71  94 143 184 219 290 340 408
#     4  10  22  44  60 102 132 162 240 280 318 424
#     4  11  22  39  67  98 135 183 227 275 346 400
#     4  10  23  38  66 100 134 176 231 275 342 403
#
# _framework density 25.236438
#
# number of rings (size 3 to 8) (size 9 to 14) (size 15 to 20)
#    0.000    1.667    1.667    3.000    4.667    4.000 
#    3.000    6.667    0.000    0.000    0.000    0.000 
#    0.000    0.000    0.000    0.000    0.000    0.000 
#
# Total GULP energy -134445.676545 kJ/mol
# GULP energy per Si atom -5601.903189 kJ/mol
# Density = 2.517900 g / cm^3
# Si number density = 25.236438 Si / 1000 Ang^3
#
#
#
# Elastic Constant Matrix: (Units=GPa)
#
#
# Indices 1 2 3 4 5 6 
#
# 1 83.6834 -5.1842 21.2042 0.0000 15.5901 0.0000
# 2 -5.1842 58.9081 18.6975 0.0000 -7.9983 0.0000
# 3 21.2042 18.6975 39.5281 0.0000 9.6680 0.0000
# 4 0.0000 0.0000 0.0000 7.7774 0.0000 6.6213
# 5 15.5901 -7.9983 9.6680 0.0000 50.1005 0.0000
# 6 0.0000 0.0000 0.0000 6.6213 0.0000 46.8668
#
#
#
# Elastic Compliance Matrix: (Units=1/GPa)
#
#
# Indices 1 2 3 4 5 6 
#
# 1 0.014990 0.003999 -0.009391 0.000000 -0.002214 0.000000
# 2 0.003999 0.022456 -0.014001 0.000000 0.005042 0.000000
# 3 -0.009391 -0.014001 0.038613 0.000000 -0.006764 0.000000
# 4 0.000000 0.000000 0.000000 0.146157 0.000000 -0.020649
# 5 -0.002214 0.005042 -0.006764 0.000000 0.022759 0.000000
# 6 0.000000 0.000000 0.000000 -0.020649 0.000000 0.024254
#
#
# Mechanical properties :
#
#
# Convention : Reuss Voigt Hill
#
# Bulk Modulus (GPa) = 26.82867 27.95053 27.38960
# Shear Modulus (GPa) = 15.60358 30.77575 23.18967
#
# Velocity S-wave (km/s) = 2.48925 3.49592 3.03462
# Velocity P-wave (km/s) = 4.34924 5.23400 4.81200
#
# Compressibility (1/GPa) = 0.03727356
#
# Stress axis : x y z
#
# Youngs Moduli (GPa) = 66.71297 44.53145 25.89786
#
# Poissons Ratio (x) = -0.17810 0.24321
# Poissons Ratio (y) = -0.26681 0.36259
# Poissons Ratio (z) = 0.62652 0.62347
#
# Static dielectric constant tensor:
#      x y z
#    x 2.074010 0.000000 0.028110 
#    y 0.000000 2.043180 0.000000 
#    z 0.028110 0.000000 1.956090 
# 
# From -- ./inp_files/196253.got.cif
#   From: 2010.05.17/outbox.cif.g08.bks.cpg/sg15_99_cif.got.tgz:196253.got - 2010.06.03 18:47:42.
