data_PCOD9276915
_publ_section_title
;
Structure prediction by ZEFSAII (Michael W. Deem and Ramdas Pophale) SiO2 
 PCOD9276915
Probable space group: C 2/C
;
_chemical_formula_sum "Si O2"
_cell_formula_units_Z 60
_cell_length_a 21.426092
_cell_length_b 20.979065
_cell_length_c 8.148713
_cell_angle_alpha 90.000000
_cell_angle_beta 132.450958
_cell_angle_gamma 90.000000
_cell_volume 2702.647077
_symmetry_space_group_name_H-M "C 2/C"
_symmetry_group_IT_number 15
_symmetry_cell_setting 'monoclinic'
loop_
_space_group_symop_operation_xyz
x,y,z
-x,y,1/2-z
-x,-y,-z
x,-y,1/2+z
1/2+x,1/2+y,z
1/2-x,1/2+y,1/2-z
1/2-x,1/2-y,-z
1/2+x,1/2-y,1/2+z
loop_
_atom_site_type_symbol
_atom_site_label
_atom_site_fract_x
_atom_site_fract_y
_atom_site_fract_z
Si Si1 0.406589 0.900102 0.092913
Si Si2 0.957879 0.795085 0.493460
Si Si3 0.000000 0.713350 0.250000
Si Si4 0.346665 0.989504 0.698263
Si Si5 0.811789 0.683134 0.918868
Si Si6 0.237310 0.061535 0.725786
Si Si7 0.951758 0.940045 0.494470
Si Si8 0.297036 0.792738 0.766744
O O1 0.500000 0.871201 0.250000
O O2 0.396209 0.947703 0.227338
O O3 0.393843 0.945162 0.910801
O O4 0.335881 0.845727 0.954567
O O5 0.996761 0.754151 0.412900
O O6 0.955388 0.868528 0.427101
O O7 0.866881 0.762332 0.361995
O O8 0.000000 0.792252 0.750000
O O9 0.087757 0.674694 0.414849
O O10 0.316691 0.951487 0.486701
O O11 0.258186 0.014359 0.616321
O O12 0.753897 0.635014 0.712972
O O13 0.787102 0.755914 0.829825
O O14 0.786297 0.676966 0.066573
O O15 0.146900 0.048456 0.642574
O O16 0.000000 0.932423 0.750000
O O17 0.000000 0.000000 0.500000
#
# Coordination Sequence:
#
# PCOD9276915 Si02
#       8
#     8   8   4   8   8   8   8   8
#     4  11  22  41  64  97 132 176 221 277 331 403
#     4  10  22  42  64  95 135 166 220 282 329 398
#     4  10  24  42  66 102 124 178 226 270 344 412
#     4  10  24  39  63  95 128 179 217 267 339 401
#     4  10  21  40  66  93 129 172 218 273 339 403
#     4  11  21  45  64  92 135 167 221 276 330 411
#     4  11  24  42  66  95 127 176 220 277 341 396
#     4  10  20  40  66  90 126 177 213 267 347 389
#
# _framework density 22.200457
#
# number of rings (size 3 to 8) (size 9 to 14) (size 15 to 20)
#    0.000    1.600    2.667    1.600    0.933    3.200 
#   14.400    1.333    0.000    0.000    0.000    0.000 
#    0.000    0.000    0.000    0.000    0.000    0.000 
#
# Total GULP energy -167390.434759 kJ/mol
# GULP energy per Si atom -5579.681159 kJ/mol
# Density = 2.214993 g / cm^3
# Si number density = 22.200457 Si / 1000 Ang^3
#
#
#
# Elastic Constant Matrix: (Units=GPa)
#
#
# Indices 1 2 3 4 5 6 
#
# 1 73.0576 19.9899 19.0307 0.0000 17.6535 0.0000
# 2 19.9899 95.1053 15.1281 0.0000 3.9562 0.0000
# 3 19.0307 15.1281 60.7131 0.0000 10.7062 0.0000
# 4 0.0000 0.0000 0.0000 9.5343 0.0000 -2.9772
# 5 17.6535 3.9562 10.7062 0.0000 34.2100 0.0000
# 6 0.0000 0.0000 0.0000 -2.9772 0.0000 22.7097
#
#
#
# Elastic Compliance Matrix: (Units=1/GPa)
#
#
# Indices 1 2 3 4 5 6 
#
# 1 0.017121 -0.002753 -0.003365 0.000000 -0.007464 0.000000
# 2 -0.002753 0.011397 -0.002112 0.000000 0.000763 0.000000
# 3 -0.003365 -0.002112 0.018736 0.000000 -0.003883 0.000000
# 4 0.000000 0.000000 0.000000 0.109362 0.000000 0.014337
# 5 -0.007464 0.000763 -0.003883 0.000000 0.034210 0.000000
# 6 0.000000 0.000000 0.000000 0.014337 0.000000 0.045914
#
#
# Mechanical properties :
#
#
# Convention : Reuss Voigt Hill
#
# Bulk Modulus (GPa) = 32.47101 37.46372 34.96736
# Shear Modulus (GPa) = 18.97794 24.93929 21.95861
#
# Velocity S-wave (km/s) = 2.92694 3.35530 3.14842
# Velocity P-wave (km/s) = 5.10693 5.65001 5.38532
#
# Compressibility (1/GPa) = 0.03079670
#
# Stress axis : x y z
#
# Youngs Moduli (GPa) = 58.40766 87.73910 53.37186
#
# Poissons Ratio (x) = 0.24154 0.17957
# Poissons Ratio (y) = 0.16079 0.11270
# Poissons Ratio (z) = 0.19651 0.18527
#
# Static dielectric constant tensor:
#      x y z
#    x 1.801460 0.000000 -0.017530 
#    y 0.000000 1.921880 0.000000 
#    z -0.017530 0.000000 1.825530 
# 
# From -- ./inp_files/58124.got.cif
#   From: 2010.05.17/outbox.cif.g08.bks.cpg/sg15_30_cif.got.tgz:58124.got - 2010.06.03 18:47:42.
