data_PCOD9276421
_publ_section_title
;
Structure prediction by ZEFSAII (Michael W. Deem and Ramdas Pophale) SiO2 
 PCOD9276421
Probable space group: C 2/C
;
_chemical_formula_sum "Si O2"
_cell_formula_units_Z 44
_cell_length_a 15.760067
_cell_length_b 16.047323
_cell_length_c 7.804412
_cell_angle_alpha 90.000000
_cell_angle_beta 103.564392
_cell_angle_gamma 90.000000
_cell_volume 1918.734520
_symmetry_space_group_name_H-M "C 2/C"
_symmetry_group_IT_number 15
_symmetry_cell_setting 'monoclinic'
loop_
_space_group_symop_operation_xyz
x,y,z
-x,y,1/2-z
-x,-y,-z
x,-y,1/2+z
1/2+x,1/2+y,z
1/2-x,1/2+y,1/2-z
1/2-x,1/2-y,-z
1/2+x,1/2-y,1/2+z
loop_
_atom_site_type_symbol
_atom_site_label
_atom_site_fract_x
_atom_site_fract_y
_atom_site_fract_z
Si Si1 0.777121 0.392878 0.442098
Si Si2 0.884360 0.243291 0.406979
Si Si3 0.309604 0.665914 0.042667
Si Si4 0.000000 0.370551 0.250000
Si Si5 0.590746 0.634205 0.760387
Si Si6 0.335689 0.032540 0.633611
O O1 0.798990 0.298864 0.407855
O O2 0.676191 0.412006 0.371725
O O3 0.816444 0.434101 0.626555
O O4 0.830410 0.445749 0.330561
O O5 0.857791 0.175991 0.248915
O O6 0.917208 0.207794 0.602204
O O7 0.952207 0.307539 0.357163
O O8 0.250000 0.750000 0.000000
O O9 0.379987 0.660101 0.918376
O O10 0.243277 0.588346 0.984780
O O11 0.071762 0.428878 0.375011
O O12 0.500000 0.586805 0.750000
#
# Coordination Sequence:
#
# PCOD9276421 Si02
#       6
#     8   8   8   4   8   8
#     4  10  23  42  58  92 126 172 208 256 322 390
#     4  11  22  39  68  93 130 166 213 264 324 381
#     4  11  21  42  65  91 131 174 207 263 327 374
#     4  10  20  40  62 100 128 160 214 268 320 384
#     4  11  24  40  66  98 124 163 228 267 309 382
#     4  10  23  38  65  88 133 167 212 259 326 385
#
# _framework density 22.93178
#
# number of rings (size 3 to 8) (size 9 to 14) (size 15 to 20)
#    0.000    1.455    5.455    1.636    2.545    2.909 
#    1.636    3.636    2.000    0.000    0.000    0.000 
#    0.000    0.000    0.000    0.000    0.000    0.000 
#
# Total GULP energy -122567.525661 kJ/mol
# GULP energy per Si atom -5571.251166 kJ/mol
# Density = 2.287959 g / cm^3
# Si number density = 22.931780 Si / 1000 Ang^3
#
#
#
# Elastic Constant Matrix: (Units=GPa)
#
#
# Indices 1 2 3 4 5 6 
#
# 1 138.0603 31.6893 27.1622 0.0000 6.7085 0.0000
# 2 31.6893 22.5601 16.1629 0.0000 -8.3696 0.0000
# 3 27.1622 16.1629 92.6368 0.0000 -8.2697 0.0000
# 4 0.0000 0.0000 0.0000 33.8218 0.0000 20.1809
# 5 6.7085 -8.3696 -8.2697 0.0000 28.2642 0.0000
# 6 0.0000 0.0000 0.0000 20.1809 0.0000 10.5793
#
#
#
# Elastic Compliance Matrix: (Units=1/GPa)
#
#
# Indices 1 2 3 4 5 6 
#
# 1 0.012574 -0.020435 -0.000953 0.000000 -0.009314 0.000000
# 2 -0.020435 0.088775 -0.006898 0.000000 0.029120 0.000000
# 3 -0.000953 -0.006898 0.012441 0.000000 0.001823 0.000000
# 4 0.000000 0.000000 0.000000 -0.213898 0.000000 0.408030
# 5 -0.009314 0.029120 0.001823 0.000000 0.046748 0.000000
# 6 0.000000 0.000000 0.000000 0.408030 0.000000 -0.683828
#
#
# Mechanical properties :
#
#
# Convention : Reuss Voigt Hill
#
# Bulk Modulus (GPa) = 17.47686 44.80954 31.14320
# Shear Modulus (GPa) = -7.55806 26.41591 9.42893
#
# Velocity S-wave (km/s) = -1.81743 3.39770 2.02994
# Velocity P-wave (km/s) = 1.79826 5.91399 4.37087
#
# Compressibility (1/GPa) = 0.05721853
#
# Stress axis : x y z
#
# Youngs Moduli (GPa) = 79.53120 11.26442 80.38237
#
# Poissons Ratio (x) = 0.23018 0.07660
# Poissons Ratio (y) = 1.62519 0.55447
# Poissons Ratio (z) = 0.07578 0.07770
#
# Static dielectric constant tensor:
#      x y z
#    x 1.971830 0.000000 -0.053580 
#    y 0.000000 2.164370 0.000000 
#    z -0.053580 0.000000 1.912140 
# 
# From -- ./inp_files/39351.got.cif
#   From: 2010.05.17/outbox.cif.g08.bks.cpg/sg15_20_cif.got.tgz:39351.got - 2010.06.03 18:47:42.
