data_PCOD9276043
_publ_section_title
;
Structure prediction by ZEFSAII (Michael W. Deem and Ramdas Pophale) SiO2 
 PCOD9276043
Probable space group: C 2/C
;
_chemical_formula_sum "Si O2"
_cell_formula_units_Z 64
_cell_length_a 25.509989
_cell_length_b 18.713507
_cell_length_c 19.658132
_cell_angle_alpha 90.000000
_cell_angle_beta 19.430692
_cell_angle_gamma 90.000000
_cell_volume 3121.882625
_symmetry_space_group_name_H-M "C 2/C"
_symmetry_group_IT_number 15
_symmetry_cell_setting 'monoclinic'
loop_
_space_group_symop_operation_xyz
x,y,z
-x,y,1/2-z
-x,-y,-z
x,-y,1/2+z
1/2+x,1/2+y,z
1/2-x,1/2+y,1/2-z
1/2-x,1/2-y,-z
1/2+x,1/2-y,1/2+z
loop_
_atom_site_type_symbol
_atom_site_label
_atom_site_fract_x
_atom_site_fract_y
_atom_site_fract_z
Si Si1 0.037834 0.744784 0.778693
Si Si2 0.163482 0.904713 0.803905
Si Si3 0.235344 0.375128 0.970296
Si Si4 0.309616 0.032534 0.477342
Si Si5 0.586308 0.177156 0.959264
Si Si6 0.348795 0.783686 0.638614
Si Si7 0.864203 0.317945 0.857949
Si Si8 0.812777 0.065433 0.720612
O O1 0.000000 0.772722 0.750000
O O2 0.147393 0.807086 0.673973
O O3 0.893945 0.665110 0.822865
O O4 0.896421 0.738908 0.004063
O O5 0.265003 0.895249 0.610154
O O6 0.244330 0.854310 0.759458
O O7 0.161070 0.984835 0.835119
O O8 0.978431 0.891995 0.013998
O O9 0.258553 0.456978 0.967468
O O10 0.500000 0.020952 0.250000
O O11 0.283529 0.104643 0.466618
O O12 0.241816 0.054713 0.634358
O O13 0.727857 0.225881 0.814441
O O14 0.672875 0.101504 0.849805
O O15 0.507977 0.204656 0.985908
O O16 0.449531 0.178776 0.181409
O O17 0.000000 0.312377 0.750000
O O18 0.750000 0.250000 0.000000
#
# Coordination Sequence:
#
# PCOD9276043 Si02
#       8
#     8   8   8   8   8   8   8   8
#     4  11  22  39  62  94 128 171 216 263 315 387
#     4  10  22  42  65  95 127 175 211 265 327 389
#     4  10  21  38  65  92 125 168 216 261 314 386
#     4  10  20  39  67  93 120 166 215 260 320 388
#     4  12  24  41  63  94 129 169 210 270 320 382
#     4  12  26  39  64  94 134 169 216 267 325 383
#     4  11  23  42  66  94 120 164 214 268 321 385
#     4  10  21  41  68  92 129 167 218 263 327 392
#
# _framework density 20.500451000000002
#
# number of rings (size 3 to 8) (size 9 to 14) (size 15 to 20)
#    0.000    1.250    3.750    3.375    5.250    0.500 
#    0.000    0.625    2.750    0.000    0.000    0.000 
#    0.000    0.000    0.000    0.000    0.000    0.000 
#
# Total GULP energy -178135.570057 kJ/mol
# GULP energy per Si atom -5566.736564 kJ/mol
# Density = 2.045379 g / cm^3
# Si number density = 20.500451 Si / 1000 Ang^3
#
#
#
# Elastic Constant Matrix: (Units=GPa)
#
#
# Indices 1 2 3 4 5 6 
#
# 1 31.7240 13.1167 -19.5426 -0.0198 -4.7587 0.0083
# 2 13.1167 136.5467 19.4549 -0.0186 -16.5760 0.0087
# 3 -19.5426 19.4549 45.1065 -0.0357 2.6458 0.0182
# 4 -0.0198 -0.0186 -0.0357 -11.1512 0.0190 8.2400
# 5 -4.7587 -16.5760 2.6458 0.0190 27.6328 -0.0065
# 6 0.0083 0.0087 0.0182 8.2400 -0.0065 20.3265
#
#
#
# Elastic Compliance Matrix: (Units=1/GPa)
#
#
# Indices 1 2 3 4 5 6 
#
# 1 0.050971 -0.008391 0.025627 -0.000143 0.001291 0.000018
# 2 -0.008391 0.009948 -0.008238 0.000031 0.005311 -0.000004
# 3 0.025627 -0.008238 0.037065 -0.000145 -0.004077 0.000017
# 4 -0.000143 0.000031 -0.000145 -0.069005 0.000062 0.027974
# 5 0.001291 0.005311 -0.004077 0.000062 0.039987 -0.000011
# 6 0.000018 -0.000004 0.000017 0.027974 -0.000011 0.037857
#
#
# Mechanical properties :
#
#
# Convention : Reuss Voigt Hill
#
# Bulk Modulus (GPa) = 8.62212 26.60392 17.61302
# Shear Modulus (GPa) = 39.21974 20.71818 29.96896
#
# Velocity S-wave (km/s) = 4.37866 3.18247 3.82759
# Velocity P-wave (km/s) = 5.45697 5.14875 5.30510
#
# Compressibility (1/GPa) = 0.11598079
#
# Stress axis : x y z
#
# Youngs Moduli (GPa) = 19.61885 100.52311 26.97986
#
# Poissons Ratio (x) = 0.84348 -0.69141
# Poissons Ratio (y) = 0.16462 0.22225
# Poissons Ratio (z) = -0.50277 0.82807
#
# Static dielectric constant tensor:
#      x y z
#    x 1.790390 0.000000 -0.082570 
#    y 0.000000 1.790970 0.000000 
#    z -0.082570 0.000000 1.841770 
# 
# From -- ./inp_files/56635.got.cif
#   From: 2010.05.17/outbox.cif.g08.bks.cpg/sg15_29_cif.got.tgz:56635.got - 2010.06.03 18:47:42.
