data_PCOD9276997
_publ_section_title
;
Structure prediction by ZEFSAII (Michael W. Deem and Ramdas Pophale) SiO2 
 PCOD9276997
Probable space group: C 2/C
;
_chemical_formula_sum "Si O2"
_cell_formula_units_Z 48
_cell_length_a 22.262529
_cell_length_b 11.785190
_cell_length_c 11.048711
_cell_angle_alpha 90.000000
_cell_angle_beta 131.037044
_cell_angle_gamma 90.000000
_cell_volume 2186.544490
_symmetry_space_group_name_H-M "C 2/C"
_symmetry_group_IT_number 15
_symmetry_cell_setting 'monoclinic'
loop_
_space_group_symop_operation_xyz
x,y,z
-x,y,1/2-z
-x,-y,-z
x,-y,1/2+z
1/2+x,1/2+y,z
1/2-x,1/2+y,1/2-z
1/2-x,1/2-y,-z
1/2+x,1/2-y,1/2+z
loop_
_atom_site_type_symbol
_atom_site_label
_atom_site_fract_x
_atom_site_fract_y
_atom_site_fract_z
Si Si1 0.212399 0.593008 0.456987
Si Si2 0.235399 0.220301 0.183071
Si Si3 0.444813 0.238075 0.296293
Si Si4 0.413227 0.734382 0.335048
Si Si5 0.549707 0.494041 0.191491
Si Si6 0.687200 0.834342 0.481649
O O1 0.242765 0.672258 0.605774
O O2 0.264168 0.611974 0.404647
O O3 0.126024 0.647329 0.306906
O O4 0.210366 0.464807 0.497083
O O5 0.154050 0.235946 0.149588
O O6 0.307021 0.203652 0.372192
O O7 0.500000 0.225085 0.250000
O O8 0.503842 0.236184 0.490058
O O9 0.413518 0.368520 0.254700
O O10 0.403050 0.610337 0.260722
O O11 0.393354 0.818753 0.199868
O O12 0.500000 0.503444 0.250000
O O13 0.500000 0.500000 0.000000
O O14 0.750000 0.750000 0.500000
#
# Coordination Sequence:
#
# PCOD9276997 Si02
#       6
#     8   8   8   8   8   8
#     4  11  24  43  70  99 133 186 234 283 356 421
#     4  10  24  43  66  99 133 181 236 278 345 424
#     4  10  20  40  67 102 139 178 232 285 342 421
#     4  10  21  43  67  99 140 181 225 297 346 406
#     4   9  20  38  63  98 139 176 229 279 341 411
#     4  10  25  44  63  96 139 171 229 292 340 413
#
# _framework density 21.952445000000001
#
# number of rings (size 3 to 8) (size 9 to 14) (size 15 to 20)
#    0.000    2.000    1.667    0.000    4.667    8.667 
#    0.000    0.833    0.000    0.000    0.000    0.000 
#    0.000    0.000    0.000    0.000    0.000    0.000 
#
# Total GULP energy -133940.796899 kJ/mol
# GULP energy per Si atom -5580.866537 kJ/mol
# Density = 2.190248 g / cm^3
# Si number density = 21.952445 Si / 1000 Ang^3
#
#
#
# Elastic Constant Matrix: (Units=GPa)
#
#
# Indices 1 2 3 4 5 6 
#
# 1 69.3603 13.3299 48.6516 0.0000 -8.9928 0.0000
# 2 13.3299 105.2952 48.0324 0.0000 -5.7050 0.0000
# 3 48.6516 48.0324 182.1424 0.0000 -15.1330 0.0000
# 4 0.0000 0.0000 0.0000 29.6968 0.0000 5.6999
# 5 -8.9928 -5.7050 -15.1330 0.0000 33.3356 0.0000
# 6 0.0000 0.0000 0.0000 5.6999 0.0000 15.4019
#
#
#
# Elastic Compliance Matrix: (Units=1/GPa)
#
#
# Indices 1 2 3 4 5 6 
#
# 1 0.017985 -0.000046 -0.004562 0.000000 0.002773 0.000000
# 2 -0.000046 0.010807 -0.002790 0.000000 0.000570 0.000000
# 3 -0.004562 -0.002790 0.007589 0.000000 0.001737 0.000000
# 4 0.000000 0.000000 0.000000 0.036248 0.000000 -0.013415
# 5 0.002773 0.000570 0.001737 0.000000 0.031632 0.000000
# 6 0.000000 0.000000 0.000000 -0.013415 0.000000 0.069892
#
#
# Mechanical properties :
#
#
# Convention : Reuss Voigt Hill
#
# Bulk Modulus (GPa) = 46.32676 64.09173 55.20925
# Shear Modulus (GPa) = 25.49152 32.13911 28.81532
#
# Velocity S-wave (km/s) = 3.41136 3.83042 3.62695
# Velocity P-wave (km/s) = 6.05521 6.98727 6.53787
#
# Compressibility (1/GPa) = 0.02158580
#
# Stress axis : x y z
#
# Youngs Moduli (GPa) = 55.60041 92.53603 131.77422
#
# Poissons Ratio (x) = 0.00424 0.60110
# Poissons Ratio (y) = 0.00254 0.36767
# Poissons Ratio (z) = 0.25363 0.25819
#
# Static dielectric constant tensor:
#      x y z
#    x 1.855480 0.000000 0.034610 
#    y 0.000000 1.817240 0.000000 
#    z 0.034610 0.000000 1.859460 
# 
# From -- ./inp_files/117726.got.cif
#   From: 2010.05.17/outbox.cif.g08.bks.cpg/sg15_59_cif.got.tgz:117726.got - 2010.06.03 18:47:42.
