data_PCOD9276853
_publ_section_title
;
Structure prediction by ZEFSAII (Michael W. Deem and Ramdas Pophale) SiO2 
 PCOD9276853
Probable space group: C 2/C
;
_chemical_formula_sum "Si O2"
_cell_formula_units_Z 48
_cell_length_a 22.779522
_cell_length_b 7.873167
_cell_length_c 11.668574
_cell_angle_alpha 90.000000
_cell_angle_beta 73.153753
_cell_angle_gamma 90.000000
_cell_volume 2002.916151
_symmetry_space_group_name_H-M "C 2/C"
_symmetry_group_IT_number 15
_symmetry_cell_setting 'monoclinic'
loop_
_space_group_symop_operation_xyz
x,y,z
-x,y,1/2-z
-x,-y,-z
x,-y,1/2+z
1/2+x,1/2+y,z
1/2-x,1/2+y,1/2-z
1/2-x,1/2-y,-z
1/2+x,1/2-y,1/2+z
loop_
_atom_site_type_symbol
_atom_site_label
_atom_site_fract_x
_atom_site_fract_y
_atom_site_fract_z
Si Si1 0.421884 0.818827 0.045566
Si Si2 0.230898 0.066745 0.122547
Si Si3 0.943757 0.274409 0.523624
Si Si4 0.682444 0.674593 0.814501
Si Si5 0.110477 0.260326 0.178173
Si Si6 0.674947 0.118158 0.084257
O O1 0.407658 0.749851 0.179493
O O2 0.427812 0.025554 0.053325
O O3 0.487968 0.749042 0.968803
O O4 0.368295 0.789991 0.984975
O O5 0.277978 0.220721 0.116489
O O6 0.164047 0.125929 0.123286
O O7 0.219442 0.991068 0.256366
O O8 0.263963 0.940596 0.016315
O O9 0.887964 0.165976 0.606498
O O10 0.941883 0.245777 0.387761
O O11 0.681301 0.774193 0.694584
O O12 0.140105 0.445660 0.141192
#
# Coordination Sequence:
#
# PCOD9276853 Si02
#       6
#     8   8   8   8   8   8
#     4  10  20  40  65  96 120 164 213 262 300 371
#     4  12  25  39  64  93 132 164 208 260 319 385
#     4  10  22  38  67  93 122 164 215 257 309 366
#     4  12  24  41  61  97 123 168 209 260 318 375
#     4  11  21  40  64  91 128 163 207 260 316 372
#     4  11  21  40  63  94 126 163 210 255 314 374
#
# _framework density 23.965059
#
# number of rings (size 3 to 8) (size 9 to 14) (size 15 to 20)
#    0.000    1.000    5.000    3.500    2.333    0.667 
#    0.000    0.833    3.667    0.000    0.000    0.000 
#    0.000    0.000    0.000    0.000    0.000    0.000 
#
# Total GULP energy -134378.659780 kJ/mol
# GULP energy per Si atom -5599.110824 kJ/mol
# Density = 2.391051 g / cm^3
# Si number density = 23.965059 Si / 1000 Ang^3
#
#
#
# Elastic Constant Matrix: (Units=GPa)
#
#
# Indices 1 2 3 4 5 6 
#
# 1 115.8412 17.3666 31.1639 0.0000 -2.7441 0.0000
# 2 17.3666 24.9175 14.2783 0.0000 -0.5908 0.0000
# 3 31.1639 14.2783 100.0086 0.0000 -4.9623 0.0000
# 4 0.0000 0.0000 0.0000 25.0237 0.0000 2.3955
# 5 -2.7441 -0.5908 -4.9623 0.0000 38.3573 0.0000
# 6 0.0000 0.0000 0.0000 2.3955 0.0000 18.7513
#
#
#
# Elastic Compliance Matrix: (Units=1/GPa)
#
#
# Indices 1 2 3 4 5 6 
#
# 1 0.010122 -0.005717 -0.002321 0.000000 0.000336 0.000000
# 2 -0.005717 0.046937 -0.004936 0.000000 -0.000325 0.000000
# 3 -0.002321 -0.004936 0.011489 0.000000 0.001244 0.000000
# 4 0.000000 0.000000 0.000000 0.040457 0.000000 -0.005168
# 5 0.000336 -0.000325 0.001244 0.000000 0.026251 0.000000
# 6 0.000000 0.000000 0.000000 -0.005168 0.000000 0.053990
#
#
# Mechanical properties :
#
#
# Convention : Reuss Voigt Hill
#
# Bulk Modulus (GPa) = 23.47389 40.70945 32.09167
# Shear Modulus (GPa) = 21.79659 28.29035 25.04347
#
# Velocity S-wave (km/s) = 3.01909 3.43954 3.23615
# Velocity P-wave (km/s) = 4.68716 5.72694 5.23294
#
# Compressibility (1/GPa) = 0.04260053
#
# Stress axis : x y z
#
# Youngs Moduli (GPa) = 98.79520 21.30497 87.04008
#
# Poissons Ratio (x) = 0.12179 0.20205
# Poissons Ratio (y) = 0.56476 0.42964
# Poissons Ratio (z) = 0.22933 0.10516
#
# Static dielectric constant tensor:
#      x y z
#    x 1.863820 0.000000 -0.001110 
#    y 0.000000 1.972960 0.000000 
#    z -0.001110 0.000000 1.904260 
# 
# From -- ./inp_files/116468.got.cif
#   From: 2010.05.17/outbox.cif.g08.bks.cpg/sg15_59_cif.got.tgz:116468.got - 2010.06.03 18:47:42.
