data_PCOD9276926
_publ_section_title
;
Structure prediction by ZEFSAII (Michael W. Deem and Ramdas Pophale) SiO2 
 PCOD9276926
Probable space group: C 2/C
;
_chemical_formula_sum "Si O2"
_cell_formula_units_Z 56
_cell_length_a 26.561102
_cell_length_b 8.761471
_cell_length_c 14.283066
_cell_angle_alpha 90.000000
_cell_angle_beta 124.131397
_cell_angle_gamma 90.000000
_cell_volume 2751.346696
_symmetry_space_group_name_H-M "C 2/C"
_symmetry_group_IT_number 15
_symmetry_cell_setting 'monoclinic'
loop_
_space_group_symop_operation_xyz
x,y,z
-x,y,1/2-z
-x,-y,-z
x,-y,1/2+z
1/2+x,1/2+y,z
1/2-x,1/2+y,1/2-z
1/2-x,1/2-y,-z
1/2+x,1/2-y,1/2+z
loop_
_atom_site_type_symbol
_atom_site_label
_atom_site_fract_x
_atom_site_fract_y
_atom_site_fract_z
Si Si1 0.703640 0.118632 0.483298
Si Si2 0.664640 0.716554 0.679096
Si Si3 0.500000 0.021508 0.250000
Si Si4 0.921559 0.737507 0.582996
Si Si5 0.500000 0.517336 0.250000
Si Si6 0.687023 0.200602 0.885248
Si Si7 0.231152 0.925041 0.782842
Si Si8 0.406138 0.260227 0.202502
O O1 0.750000 0.250000 0.500000
O O2 0.639464 0.205915 0.427648
O O3 0.690102 0.983632 0.393131
O O4 0.731736 0.027346 0.601025
O O5 0.614795 0.760279 0.550652
O O6 0.720041 0.834233 0.726827
O O7 0.690818 0.547601 0.686353
O O8 0.635273 0.717142 0.750302
O O9 0.541436 0.915606 0.357994
O O10 0.455835 0.127581 0.264498
O O11 0.870682 0.749415 0.612364
O O12 0.970637 0.872260 0.642051
O O13 0.444774 0.410889 0.224284
O O14 0.690565 0.296394 0.793252
O O15 0.750000 0.250000 0.000000
#
# Coordination Sequence:
#
# PCOD9276926 Si02
#       8
#     8   8   4   8   4   8   8   8
#     4  11  21  40  69  94 126 171 214 258 317 404
#     4  12  25  39  61  99 135 158 204 279 333 380
#     4  10  22  44  66  84 116 186 226 252 302 398
#     4  11  22  42  67  89 124 168 223 261 317 374
#     4  10  26  42  66  86 118 182 226 256 296 392
#     4  10  20  40  66  91 123 170 212 252 317 402
#     4  11  25  37  62 102 133 170 204 258 346 387
#     4  11  23  41  64  92 127 163 222 264 317 376
#
# _framework density 20.353669
#
# number of rings (size 3 to 8) (size 9 to 14) (size 15 to 20)
#    0.000    1.143    5.714    0.857    4.000    2.286 
#    0.000    0.000    0.000    0.000    0.000    0.000 
#    0.000    0.000    0.000    0.000    0.000    0.000 
#
# Total GULP energy -156355.739909 kJ/mol
# GULP energy per Si atom -5584.133568 kJ/mol
# Density = 2.030734 g / cm^3
# Si number density = 20.353669 Si / 1000 Ang^3
#
#
#
# Elastic Constant Matrix: (Units=GPa)
#
#
# Indices 1 2 3 4 5 6 
#
# 1 62.2653 21.0064 -9.9482 0.0000 12.5015 0.0000
# 2 21.0064 116.4841 3.2042 0.0000 10.1632 0.0000
# 3 -9.9482 3.2042 34.2824 0.0000 13.5475 0.0000
# 4 0.0000 0.0000 0.0000 23.6171 0.0000 10.2046
# 5 12.5015 10.1632 13.5475 0.0000 30.0837 0.0000
# 6 0.0000 0.0000 0.0000 10.2046 0.0000 37.6267
#
#
#
# Elastic Compliance Matrix: (Units=1/GPa)
#
#
# Indices 1 2 3 4 5 6 
#
# 1 0.021651 -0.003071 0.011819 0.000000 -0.013282 0.000000
# 2 -0.003071 0.009286 -0.001245 0.000000 -0.001300 0.000000
# 3 0.011819 -0.001245 0.041956 0.000000 -0.023385 0.000000
# 4 0.000000 0.000000 0.000000 0.047963 0.000000 -0.013008
# 5 -0.013282 -0.001300 -0.023385 0.000000 0.049730 0.000000
# 6 0.000000 0.000000 0.000000 -0.013008 0.000000 0.030105
#
#
# Mechanical properties :
#
#
# Convention : Reuss Voigt Hill
#
# Bulk Modulus (GPa) = 11.37661 26.83963 19.10812
# Shear Modulus (GPa) = 23.25731 31.51680 27.38705
#
# Velocity S-wave (km/s) = 3.38399 3.93931 3.67217
# Velocity P-wave (km/s) = 4.56838 5.82290 5.23337
#
# Compressibility (1/GPa) = 0.08789966
#
# Stress axis : x y z
#
# Youngs Moduli (GPa) = 46.18647 107.68494 23.83424
#
# Poissons Ratio (x) = 0.33068 -0.28169
# Poissons Ratio (y) = 0.14183 0.02968
# Poissons Ratio (z) = -0.54586 0.13408
#
# Static dielectric constant tensor:
#      x y z
#    x 1.728270 0.000000 -0.008910 
#    y 0.000000 1.960950 0.000000 
#    z -0.008910 0.000000 1.743860 
# 
# From -- ./inp_files/172523.got.cif
#   From: 2010.05.17/outbox.cif.g08.bks.cpg/sg15_87_cif.got.tgz:172523.got - 2010.06.03 18:47:42.
