data_PCOD9276565
_publ_section_title
;
Structure prediction by ZEFSAII (Michael W. Deem and Ramdas Pophale) SiO2 
 PCOD9276565
Probable space group: C 2/C
;
_chemical_formula_sum "Si O2"
_cell_formula_units_Z 56
_cell_length_a 11.681499
_cell_length_b 9.006012
_cell_length_c 26.389167
_cell_angle_alpha 90.000000
_cell_angle_beta 124.066566
_cell_angle_gamma 90.000000
_cell_volume 2299.800874
_symmetry_space_group_name_H-M "C 2/C"
_symmetry_group_IT_number 15
_symmetry_cell_setting 'monoclinic'
loop_
_space_group_symop_operation_xyz
x,y,z
-x,y,1/2-z
-x,-y,-z
x,-y,1/2+z
1/2+x,1/2+y,z
1/2-x,1/2+y,1/2-z
1/2-x,1/2-y,-z
1/2+x,1/2-y,1/2+z
loop_
_atom_site_type_symbol
_atom_site_label
_atom_site_fract_x
_atom_site_fract_y
_atom_site_fract_z
Si Si1 0.420852 0.502061 0.409139
Si Si2 0.288932 0.678790 0.281959
Si Si3 0.500000 0.903619 0.750000
Si Si4 0.000000 0.853276 0.750000
Si Si5 0.088669 0.443784 0.135379
Si Si6 0.357743 0.136849 0.638929
Si Si7 0.851652 0.726938 0.948071
Si Si8 0.934175 0.282105 0.579382
O O1 0.355271 0.588744 0.345217
O O2 0.303565 0.390881 0.401238
O O3 0.447079 0.634057 0.455161
O O4 0.538793 0.393247 0.419162
O O5 0.124494 0.679438 0.252101
O O6 0.364462 0.606906 0.251676
O O7 0.335393 0.851572 0.301003
O O8 0.425121 0.008104 0.690749
O O9 0.911012 0.779602 0.682145
O O10 0.149790 0.390528 0.097484
O O11 0.932123 0.379322 0.103509
O O12 0.062513 0.619281 0.129575
O O13 0.699020 0.795489 0.918023
O O14 0.896738 0.664993 0.013374
#
# Coordination Sequence:
#
# PCOD9276565 Si02
#       8
#     8   8   4   4   8   8   8   8
#     4  10  20  40  63  90 122 166 202 253 310 379
#     4   9  20  38  66  90 126 164 215 252 317 373
#     4   9  18  36  64  89 118 173 201 254 314 373
#     4   9  18  36  58  89 120 159 207 258 300 375
#     4  10  20  40  63  88 124 166 201 256 305 376
#     4   9  18  36  61  81 123 163 196 244 321 353
#     4  10  22  41  61  93 124 163 208 255 308 380
#     4  11  22  39  65  90 127 161 205 260 316 363
#
# _framework density 24.349934000000001
#
# number of rings (size 3 to 8) (size 9 to 14) (size 15 to 20)
#    0.000    2.286    1.429    0.857    0.000    1.143 
#   10.286    0.714    0.000    8.571    0.000    0.000 
#    0.000    0.000    0.000    0.000    0.000    0.000 
#
# Total GULP energy -156110.687306 kJ/mol
# GULP energy per Si atom -5575.381690 kJ/mol
# Density = 2.429451 g / cm^3
# Si number density = 24.349934 Si / 1000 Ang^3
#
#
#
# Elastic Constant Matrix: (Units=GPa)
#
#
# Indices 1 2 3 4 5 6 
#
# 1 138.4247 27.8798 28.8175 0.0000 -20.0122 0.0000
# 2 27.8798 63.1096 3.0518 0.0000 -3.7687 0.0000
# 3 28.8175 3.0518 61.7882 0.0000 -16.7198 0.0000
# 4 0.0000 0.0000 0.0000 19.5260 0.0000 4.6580
# 5 -20.0122 -3.7687 -16.7198 0.0000 42.0170 0.0000
# 6 0.0000 0.0000 0.0000 4.6580 0.0000 30.3912
#
#
#
# Elastic Compliance Matrix: (Units=1/GPa)
#
#
# Indices 1 2 3 4 5 6 
#
# 1 0.009038 -0.003674 -0.003315 0.000000 0.002656 0.000000
# 2 -0.003674 0.017435 0.000899 0.000000 0.000172 0.000000
# 3 -0.003315 0.000899 0.019366 0.000000 0.006208 0.000000
# 4 0.000000 0.000000 0.000000 0.053157 0.000000 -0.008147
# 5 0.002656 0.000172 0.006208 0.000000 0.027551 0.000000
# 6 0.000000 0.000000 0.000000 -0.008147 0.000000 0.034153
#
#
# Mechanical properties :
#
#
# Convention : Reuss Voigt Hill
#
# Bulk Modulus (GPa) = 29.70987 42.53563 36.12275
# Shear Modulus (GPa) = 27.15905 31.95839 29.55872
#
# Velocity S-wave (km/s) = 3.34333 3.62672 3.48791
# Velocity P-wave (km/s) = 5.20879 5.91979 5.57563
#
# Compressibility (1/GPa) = 0.03365885
#
# Stress axis : x y z
#
# Youngs Moduli (GPa) = 110.64094 57.35509 51.63703
#
# Poissons Ratio (x) = 0.21072 0.17119
# Poissons Ratio (y) = 0.40648 -0.04641
# Poissons Ratio (z) = 0.36679 -0.05155
#
# Static dielectric constant tensor:
#      x y z
#    x 1.990950 0.000000 -0.007990 
#    y 0.000000 1.991100 0.000000 
#    z -0.007990 0.000000 1.970830 
# 
# From -- ./inp_files/310071.got.cif
#   From: 2010.05.17/outbox.cif.g08.bks.cpg/sg15_156_cif.got.tgz:310071.got - 2010.06.03 18:47:42.
