data_PCOD9276764
_publ_section_title
;
Structure prediction by ZEFSAII (Michael W. Deem and Ramdas Pophale) SiO2 
 PCOD9276764
Probable space group: C 2/C
;
_chemical_formula_sum "Si O2"
_cell_formula_units_Z 60
_cell_length_a 18.848790
_cell_length_b 12.669528
_cell_length_c 13.126843
_cell_angle_alpha 90.000000
_cell_angle_beta 65.798090
_cell_angle_gamma 90.000000
_cell_volume 2859.234198
_symmetry_space_group_name_H-M "C 2/C"
_symmetry_group_IT_number 15
_symmetry_cell_setting 'monoclinic'
loop_
_space_group_symop_operation_xyz
x,y,z
-x,y,1/2-z
-x,-y,-z
x,-y,1/2+z
1/2+x,1/2+y,z
1/2-x,1/2+y,1/2-z
1/2-x,1/2-y,-z
1/2+x,1/2-y,1/2+z
loop_
_atom_site_type_symbol
_atom_site_label
_atom_site_fract_x
_atom_site_fract_y
_atom_site_fract_z
Si Si1 0.229019 0.632835 0.471717
Si Si2 0.713134 0.579100 0.539183
Si Si3 0.993537 0.740682 0.133697
Si Si4 0.360163 0.668597 0.244565
Si Si5 0.051242 0.597959 0.515527
Si Si6 0.000000 0.711826 0.750000
Si Si7 0.163866 0.274948 0.440082
Si Si8 0.428561 0.461458 0.222531
O O1 0.250000 0.750000 0.500000
O O2 0.268098 0.537401 0.512658
O O3 0.279252 0.631334 0.338922
O O4 0.140189 0.598260 0.505170
O O5 0.785511 0.624709 0.560621
O O6 0.702045 0.667464 0.460281
O O7 0.639124 0.573974 0.658602
O O8 0.960888 0.859599 0.145918
O O9 0.000000 0.714310 0.250000
O O10 0.942350 0.671694 0.088145
O O11 0.079556 0.724170 0.039851
O O12 0.422141 0.716687 0.287850
O O13 0.344702 0.759385 0.173731
O O14 0.399714 0.562395 0.176728
O O15 0.000000 0.500000 0.500000
O O16 0.006425 0.645255 0.641214
O O17 0.500000 0.498047 0.250000
#
# Coordination Sequence:
#
# PCOD9276764 Si02
#       8
#     8   8   8   8   8   4   8   8
#     4  11  25  47  68  97 142 188 242 289 358 436
#     4  10  23  42  65  95 139 173 222 293 342 419
#     4  11  23  42  70 101 132 177 232 293 343 430
#     4  11  24  42  69 101 135 181 227 298 358 420
#     4  12  28  48  71 102 142 194 240 293 360 436
#     4  12  24  48  72  98 142 178 234 302 352 432
#     4  11  22  42  67  99 136 173 224 280 364 406
#     4  10  20  40  64  97 131 167 225 281 342 409
#
# _framework density 20.984639000000001
#
# number of rings (size 3 to 8) (size 9 to 14) (size 15 to 20)
#    0.000    1.067    6.000    0.800    2.800    1.600 
#    4.800    0.000    0.000    0.000    0.000    0.000 
#    0.000    0.000    0.000    0.000    0.000    0.000 
#
# Total GULP energy -167177.965214 kJ/mol
# GULP energy per Si atom -5572.598840 kJ/mol
# Density = 2.093688 g / cm^3
# Si number density = 20.984639 Si / 1000 Ang^3
#
#
#
# Elastic Constant Matrix: (Units=GPa)
#
#
# Indices 1 2 3 4 5 6 
#
# 1 72.9358 28.5532 1.5807 0.0000 -25.5256 0.0000
# 2 28.5532 94.4938 2.3769 0.0000 -6.0526 0.0000
# 3 1.5807 2.3769 33.3802 0.0000 -14.7982 0.0000
# 4 0.0000 0.0000 0.0000 -0.1943 0.0000 14.0630
# 5 -25.5256 -6.0526 -14.7982 0.0000 40.4358 0.0000
# 6 0.0000 0.0000 0.0000 14.0630 0.0000 4.9914
#
#
#
# Elastic Compliance Matrix: (Units=1/GPa)
#
#
# Indices 1 2 3 4 5 6 
#
# 1 0.020786 -0.005503 0.005801 0.000000 0.014421 0.000000
# 2 -0.005503 0.012142 -0.001598 0.000000 -0.002241 0.000000
# 3 0.005801 -0.001598 0.037379 0.000000 0.017102 0.000000
# 4 0.000000 0.000000 0.000000 -0.025115 0.000000 0.070762
# 5 0.014421 -0.002241 0.017102 0.000000 0.039757 0.000000
# 6 0.000000 0.000000 0.000000 0.070762 0.000000 0.000978
#
#
# Mechanical properties :
#
#
# Convention : Reuss Voigt Hill
#
# Bulk Modulus (GPa) = 14.76960 29.53681 22.15320
# Shear Modulus (GPa) = 45.00619 20.26651 32.63635
#
# Velocity S-wave (km/s) = 4.63614 3.11107 3.94794
# Velocity P-wave (km/s) = 5.97595 5.19721 5.60013
#
# Compressibility (1/GPa) = 0.06770666
#
# Stress axis : x y z
#
# Youngs Moduli (GPa) = 48.10881 82.35711 26.75329
#
# Poissons Ratio (x) = 0.45323 -0.15518
# Poissons Ratio (y) = 0.26475 0.04274
# Poissons Ratio (z) = -0.27906 0.13157
#
# Static dielectric constant tensor:
#      x y z
#    x 1.910650 0.000000 0.061430 
#    y 0.000000 1.815720 0.000000 
#    z 0.061430 0.000000 1.781300 
# 
# From -- ./inp_files/167590.got.cif
#   From: 2010.05.17/outbox.cif.g08.bks.cpg/sg15_84_cif.got.tgz:167590.got - 2010.06.03 18:47:42.
