data_PCOD9276868
_publ_section_title
;
Structure prediction by ZEFSAII (Michael W. Deem and Ramdas Pophale) SiO2 
 PCOD9276868
Probable space group: C 2/C
;
_chemical_formula_sum "Si O2"
_cell_formula_units_Z 56
_cell_length_a 19.909576
_cell_length_b 11.992476
_cell_length_c 11.479421
_cell_angle_alpha 90.000000
_cell_angle_beta 93.149191
_cell_angle_gamma 90.000000
_cell_volume 2736.746161
_symmetry_space_group_name_H-M "C 2/C"
_symmetry_group_IT_number 15
_symmetry_cell_setting 'monoclinic'
loop_
_space_group_symop_operation_xyz
x,y,z
-x,y,1/2-z
-x,-y,-z
x,-y,1/2+z
1/2+x,1/2+y,z
1/2-x,1/2+y,1/2-z
1/2-x,1/2-y,-z
1/2+x,1/2-y,1/2+z
loop_
_atom_site_type_symbol
_atom_site_label
_atom_site_fract_x
_atom_site_fract_y
_atom_site_fract_z
Si Si1 0.943123 0.208830 0.106593
Si Si2 0.000000 0.988615 0.750000
Si Si3 0.440568 0.793435 0.541648
Si Si4 0.804850 0.884897 0.562309
Si Si5 0.870852 0.103747 0.680345
Si Si6 0.608807 0.871462 0.195822
Si Si7 0.500000 0.054017 0.250000
Si Si8 0.751324 0.325282 0.180884
O O1 0.979419 0.093468 0.143654
O O2 0.872974 0.182664 0.038488
O O3 0.924055 0.274616 0.224108
O O4 0.992512 0.273966 0.028078
O O5 0.067234 0.058869 0.734757
O O6 0.407650 0.681854 0.590125
O O7 0.390200 0.841903 0.440160
O O8 0.463692 0.871780 0.648842
O O9 0.767983 0.803100 0.649968
O O10 0.761610 0.890206 0.441532
O O11 0.831130 0.999694 0.619122
O O12 0.815246 0.168244 0.748476
O O13 0.684484 0.879691 0.249851
O O14 0.559205 0.975788 0.205451
#
# Coordination Sequence:
#
# PCOD9276868 Si02
#       8
#     8   4   8   8   8   8   4   8
#     4  10  20  41  71  96 132 176 232 275 339 402
#     4  10  20  40  66 100 134 176 214 278 342 386
#     4  12  25  41  67 104 132 173 232 288 332 404
#     4   9  23  43  69  94 136 187 217 284 335 403
#     4  11  26  39  67 104 135 175 221 282 339 402
#     4  11  23  46  69  92 133 187 224 282 335 408
#     4  12  26  42  68 102 132 178 226 288 348 394
#     4  10  24  45  65  97 137 180 233 266 341 414
#
# _framework density 20.462256
#
# number of rings (size 3 to 8) (size 9 to 14) (size 15 to 20)
#    0.000    1.429    2.857    0.857    6.000    4.000 
#    2.571    0.000    0.000    0.000    0.000    0.000 
#    0.000    0.000    0.000    0.000    0.000    0.000 
#
# Total GULP energy -156373.580475 kJ/mol
# GULP energy per Si atom -5584.770731 kJ/mol
# Density = 2.041568 g / cm^3
# Si number density = 20.462256 Si / 1000 Ang^3
#
#
#
# Elastic Constant Matrix: (Units=GPa)
#
#
# Indices 1 2 3 4 5 6 
#
# 1 120.0315 41.6244 47.4630 0.0000 25.9391 0.0000
# 2 41.6244 74.3286 47.5516 0.0000 13.5766 0.0000
# 3 47.4630 47.5516 85.9409 0.0000 20.7335 0.0000
# 4 0.0000 0.0000 0.0000 17.5922 0.0000 -9.6040
# 5 25.9391 13.5766 20.7335 0.0000 36.4774 0.0000
# 6 0.0000 0.0000 0.0000 -9.6040 0.0000 69.4423
#
#
#
# Elastic Compliance Matrix: (Units=1/GPa)
#
#
# Indices 1 2 3 4 5 6 
#
# 1 0.012074 -0.003630 -0.003377 0.000000 -0.005315 0.000000
# 2 -0.003630 0.021978 -0.010204 0.000000 0.000201 0.000000
# 3 -0.003377 -0.010204 0.020457 0.000000 -0.005428 0.000000
# 4 0.000000 0.000000 0.000000 0.061486 0.000000 0.008504
# 5 -0.005315 0.000201 -0.005428 0.000000 0.034204 0.000000
# 6 0.000000 0.000000 0.000000 0.008504 0.000000 0.015577
#
#
# Mechanical properties :
#
#
# Convention : Reuss Voigt Hill
#
# Bulk Modulus (GPa) = 49.78767 61.50875 55.64821
# Shear Modulus (GPa) = 24.16700 34.27986 29.22343
#
# Velocity S-wave (km/s) = 3.44037 4.09745 3.78320
# Velocity P-wave (km/s) = 6.33765 7.24640 6.80721
#
# Compressibility (1/GPa) = 0.02008529
#
# Stress axis : x y z
#
# Youngs Moduli (GPa) = 82.82214 45.49991 48.88351
#
# Poissons Ratio (x) = 0.16516 0.16510
# Poissons Ratio (y) = 0.30064 0.49883
# Poissons Ratio (z) = 0.27972 0.46430
#
# Static dielectric constant tensor:
#      x y z
#    x 1.728220 0.000000 0.014910 
#    y 0.000000 1.748420 0.000000 
#    z 0.014910 0.000000 1.731800 
# 
# From -- ./inp_files/111105.got.cif
#   From: 2010.05.17/outbox.cif.g08.bks.cpg/sg15_56_cif.got.tgz:111105.got - 2010.06.03 18:47:42.
