data_PCOD9276578
_publ_section_title
;
Structure prediction by ZEFSAII (Michael W. Deem and Ramdas Pophale) SiO2 
 PCOD9276578
Probable space group: C 2/C
;
_chemical_formula_sum "Si O2"
_cell_formula_units_Z 60
_cell_length_a 30.355652
_cell_length_b 8.155512
_cell_length_c 23.865246
_cell_angle_alpha 90.000000
_cell_angle_beta 26.188239
_cell_angle_gamma 90.000000
_cell_volume 2607.425808
_symmetry_space_group_name_H-M "C 2/C"
_symmetry_group_IT_number 15
_symmetry_cell_setting 'monoclinic'
loop_
_space_group_symop_operation_xyz
x,y,z
-x,y,1/2-z
-x,-y,-z
x,-y,1/2+z
1/2+x,1/2+y,z
1/2-x,1/2+y,1/2-z
1/2-x,1/2-y,-z
1/2+x,1/2-y,1/2+z
loop_
_atom_site_type_symbol
_atom_site_label
_atom_site_fract_x
_atom_site_fract_y
_atom_site_fract_z
Si Si1 0.037102 0.174073 0.636290
Si Si2 0.109875 0.837734 0.933212
Si Si3 0.500000 0.624094 0.250000
Si Si4 0.318359 0.884659 0.952359
Si Si5 0.077362 0.478314 0.767943
Si Si6 0.073650 0.629085 0.389260
Si Si7 0.868517 0.345672 0.474683
Si Si8 0.296023 0.689974 0.672034
O O1 0.111981 0.165529 0.498418
O O2 0.095895 0.269804 0.617855
O O3 0.951126 0.291494 0.713206
O O4 0.990627 0.002645 0.708866
O O5 0.181234 0.707351 0.821053
O O6 0.151023 0.018361 0.873822
O O7 0.997209 0.785344 0.045600
O O8 0.409651 0.733697 0.376584
O O9 0.348832 0.009565 0.867278
O O10 0.300416 0.009750 0.025308
O O11 0.250000 0.750000 0.000000
O O12 0.117428 0.463541 0.784631
O O13 0.973100 0.576995 0.880302
O O14 0.152981 0.682565 0.343727
O O15 0.000000 0.500000 0.500000
O O16 0.817372 0.247429 0.583810
#
# Coordination Sequence:
#
# PCOD9276578 Si02
#       8
#     8   8   4   8   8   8   8   8
#     4  10  21  40  66  87 126 173 219 272 339 406
#     4  11  26  42  65 101 135 183 231 288 355 419
#     4  12  18  40  68  94 122 166 234 276 336 404
#     4  11  23  39  63  97 129 169 220 275 344 415
#     4  10  20  40  63  90 123 172 219 267 331 413
#     4  11  23  42  68  96 130 178 231 288 348 413
#     4  11  22  40  69  94 130 176 224 285 346 408
#     4  12  25  43  67  98 139 181 232 289 351 428
#
# _framework density 23.011199999999999
#
# number of rings (size 3 to 8) (size 9 to 14) (size 15 to 20)
#    0.000    1.067    5.333    2.000    5.600    0.000 
#    0.000    2.000    0.000    0.000    0.000    0.000 
#    0.000    0.000    0.000    0.000    0.000    0.000 
#
# Total GULP energy -167184.836410 kJ/mol
# GULP energy per Si atom -5572.827880 kJ/mol
# Density = 2.295883 g / cm^3
# Si number density = 23.011200 Si / 1000 Ang^3
#
#
#
# Elastic Constant Matrix: (Units=GPa)
#
#
# Indices 1 2 3 4 5 6 
#
# 1 90.5487 22.3961 38.1939 -0.0082 22.1530 0.0025
# 2 22.3961 96.5462 8.1427 0.0177 8.8536 0.0015
# 3 38.1939 8.1427 80.0769 0.0258 23.6862 -0.0027
# 4 -0.0082 0.0177 0.0258 34.1013 -0.0054 7.7253
# 5 22.1530 8.8536 23.6862 -0.0054 37.4565 0.0001
# 6 0.0025 0.0015 -0.0027 7.7253 0.0001 22.7145
#
#
#
# Elastic Compliance Matrix: (Units=1/GPa)
#
#
# Indices 1 2 3 4 5 6 
#
# 1 0.015226 -0.002617 -0.005555 0.000010 -0.004874 -0.000005
# 2 -0.002617 0.011048 0.000540 -0.000008 -0.001406 0.000002
# 3 -0.005555 0.000540 0.017404 -0.000018 -0.007848 0.000009
# 4 0.000010 -0.000008 -0.000018 0.031772 0.000012 -0.010806
# 5 -0.004874 -0.001406 -0.007848 0.000012 0.034876 -0.000005
# 6 -0.000005 0.000002 0.000009 -0.010806 -0.000005 0.047700
#
#
# Mechanical properties :
#
#
# Convention : Reuss Voigt Hill
#
# Bulk Modulus (GPa) = 35.19069 44.95968 40.07518
# Shear Modulus (GPa) = 27.35827 32.08375 29.72101
#
# Velocity S-wave (km/s) = 3.45180 3.73804 3.59777
# Velocity P-wave (km/s) = 5.58682 6.18152 5.89168
#
# Compressibility (1/GPa) = 0.02841661
#
# Stress axis : x y z
#
# Youngs Moduli (GPa) = 65.67513 90.51368 57.45861
#
# Poissons Ratio (x) = 0.23684 0.31916
# Poissons Ratio (y) = 0.17185 -0.03105
# Poissons Ratio (z) = 0.36480 -0.04891
#
# Static dielectric constant tensor:
#      x y z
#    x 1.802080 0.000010 0.126390 
#    y 0.000010 1.882560 0.000000 
#    z 0.126390 0.000000 1.920510 
# 
# From -- ./inp_files/284292.got.cif
#   From: 2010.05.17/outbox.cif.g08.bks.cpg/sg15_143_cif.got.tgz:284292.got - 2010.06.03 18:47:42.
