data_PCOD9276991
_publ_section_title
;
Structure prediction by ZEFSAII (Michael W. Deem and Ramdas Pophale) SiO2 
 PCOD9276991
Probable space group: C 2/C
;
_chemical_formula_sum "Si O2"
_cell_formula_units_Z 48
_cell_length_a 7.809653
_cell_length_b 30.675614
_cell_length_c 8.699987
_cell_angle_alpha 90.000000
_cell_angle_beta 84.680265
_cell_angle_gamma 90.000000
_cell_volume 2075.243118
_symmetry_space_group_name_H-M "C 2/C"
_symmetry_group_IT_number 15
_symmetry_cell_setting 'monoclinic'
loop_
_space_group_symop_operation_xyz
x,y,z
-x,y,1/2-z
-x,-y,-z
x,-y,1/2+z
1/2+x,1/2+y,z
1/2-x,1/2+y,1/2-z
1/2-x,1/2-y,-z
1/2+x,1/2-y,1/2+z
loop_
_atom_site_type_symbol
_atom_site_label
_atom_site_fract_x
_atom_site_fract_y
_atom_site_fract_z
Si Si1 0.500000 0.150123 0.750000
Si Si2 0.260389 0.300207 0.043542
Si Si3 0.000000 0.511054 0.250000
Si Si4 0.970069 0.353705 0.917494
Si Si5 0.737873 0.980440 0.971056
Si Si6 0.938013 0.068949 0.926092
Si Si7 0.404568 0.340793 0.591718
O O1 0.662307 0.181997 0.703478
O O2 0.466459 0.124992 0.591275
O O3 0.140522 0.324649 0.927896
O O4 0.456179 0.315925 0.023871
O O5 0.250000 0.250000 0.000000
O O6 0.101358 0.482533 0.118311
O O7 0.144871 0.536967 0.328535
O O8 0.793316 0.326283 0.911141
O O9 0.000000 0.376389 0.750000
O O10 0.898760 0.952527 0.004630
O O11 0.800076 0.029873 0.931126
O O12 0.000000 0.081407 0.750000
O O13 0.887054 0.109793 0.031902
O O14 0.500000 0.339727 0.750000
#
# Coordination Sequence:
#
# PCOD9276991 Si02
#       7
#     4   8   4   8   8   8   8
#     4   8  22  42  67 100 130 174 226 292 338 416
#     4  10  24  46  70 101 138 178 234 288 355 429
#     4  10  20  40  67 100 124 170 224 282 336 392
#     4  10  22  47  66  98 138 173 231 288 340 428
#     4  10  22  44  65  95 134 175 230 273 339 406
#     4  11  25  42  66  95 136 183 228 279 336 425
#     4  12  26  44  70 101 138 189 228 289 361 408
#
# _framework density 23.129822000000001
#
# number of rings (size 3 to 8) (size 9 to 14) (size 15 to 20)
#    1.000    0.667    3.333    0.000    5.833    0.667 
#   10.500    1.667    0.000    0.000    0.000    0.000 
#    0.000    0.000    0.000    0.000    0.000    0.000 
#
# Total GULP energy -133770.409665 kJ/mol
# GULP energy per Si atom -5573.767069 kJ/mol
# Density = 2.307718 g / cm^3
# Si number density = 23.129822 Si / 1000 Ang^3
#
#
#
# Elastic Constant Matrix: (Units=GPa)
#
#
# Indices 1 2 3 4 5 6 
#
# 1 131.0097 -7.4350 16.4772 0.0000 8.7563 0.0000
# 2 -7.4350 35.2558 4.1409 0.0000 3.6392 0.0000
# 3 16.4772 4.1409 146.2695 0.0000 13.3949 0.0000
# 4 0.0000 0.0000 0.0000 -2.7647 0.0000 4.4088
# 5 8.7563 3.6392 13.3949 0.0000 45.0181 0.0000
# 6 0.0000 0.0000 0.0000 4.4088 0.0000 10.0281
#
#
#
# Elastic Compliance Matrix: (Units=1/GPa)
#
#
# Indices 1 2 3 4 5 6 
#
# 1 0.007942 0.001921 -0.000816 0.000000 -0.001457 0.000000
# 2 0.001921 0.029121 -0.000813 0.000000 -0.002486 0.000000
# 3 -0.000816 -0.000813 0.007125 0.000000 -0.001896 0.000000
# 4 0.000000 0.000000 0.000000 -0.212629 0.000000 0.093481
# 5 -0.001457 -0.002486 -0.001896 0.000000 0.023262 0.000000
# 6 0.000000 0.000000 0.000000 0.093481 0.000000 0.058621
#
#
# Mechanical properties :
#
#
# Convention : Reuss Voigt Hill
#
# Bulk Modulus (GPa) = 22.33477 37.65569 29.99523
# Shear Modulus (GPa) = -69.23493 30.41310 -19.41092
#
# Velocity S-wave (km/s) = -5.47706 3.63007 -2.90007
# Velocity P-wave (km/s) = 5.50639 5.82111 1.33511
#
# Compressibility (1/GPa) = 0.04477324
#
# Stress axis : x y z
#
# Youngs Moduli (GPa) = 125.91237 34.33903 140.34709
#
# Poissons Ratio (x) = -0.06597 0.11447
# Poissons Ratio (y) = -0.24189 0.11413
# Poissons Ratio (z) = 0.10269 0.02792
#
# Static dielectric constant tensor:
#      x y z
#    x 1.841710 0.000000 0.007030 
#    y 0.000000 1.822590 0.000000 
#    z 0.007030 0.000000 1.965550 
# 
# From -- ./inp_files/26162.got.cif
#   From: 2010.05.17/outbox.cif.g08.bks.cpg/sg15_14_cif.got.tgz:26162.got - 2010.06.03 18:47:42.
