data_PCOD9276385
_publ_section_title
;
Structure prediction by ZEFSAII (Michael W. Deem and Ramdas Pophale) SiO2 
 PCOD9276385
Probable space group: C 2/C
;
_chemical_formula_sum "Si O2"
_cell_formula_units_Z 56
_cell_length_a 14.775790
_cell_length_b 11.981208
_cell_length_c 15.988304
_cell_angle_alpha 90.000000
_cell_angle_beta 64.464643
_cell_angle_gamma 90.000000
_cell_volume 2553.959653
_symmetry_space_group_name_H-M "C 2/C"
_symmetry_group_IT_number 15
_symmetry_cell_setting 'monoclinic'
loop_
_space_group_symop_operation_xyz
x,y,z
-x,y,1/2-z
-x,-y,-z
x,-y,1/2+z
1/2+x,1/2+y,z
1/2-x,1/2+y,1/2-z
1/2-x,1/2-y,-z
1/2+x,1/2-y,1/2+z
loop_
_atom_site_type_symbol
_atom_site_label
_atom_site_fract_x
_atom_site_fract_y
_atom_site_fract_z
Si Si1 0.062150 0.099738 0.933872
Si Si2 0.268365 0.430310 0.018934
Si Si3 0.568328 0.745129 0.397803
Si Si4 0.096238 0.221493 0.757238
Si Si5 0.619691 0.744399 0.125597
Si Si6 0.769840 0.139583 0.266826
Si Si7 0.233765 0.416609 0.389076
O O1 0.177336 0.074846 0.913731
O O2 0.059439 0.126313 0.837095
O O3 0.008861 0.206755 0.999280
O O4 0.000000 0.000000 0.000000
O O5 0.177077 0.344131 0.056092
O O6 0.355965 0.374147 0.928093
O O7 0.234697 0.540467 0.984375
O O8 0.496679 0.765037 0.345792
O O9 0.648660 0.648804 0.340337
O O10 0.634792 0.849545 0.400799
O O11 0.164369 0.310063 0.779344
O O12 0.171902 0.163962 0.662338
O O13 0.000000 0.270617 0.750000
O O14 0.678321 0.725576 0.188409
O O15 0.751054 0.023192 0.321096
#
# Coordination Sequence:
#
# PCOD9276385 Si02
#       7
#     8   8   8   8   8   8   8
#     4  11  21  38  63  88 118 163 216 250 301 369
#     4   9  18  34  58  90 115 155 199 258 303 354
#     4  10  22  36  61  95 123 160 206 258 303 373
#     4  11  23  41  60  85 122 165 200 251 309 375
#     4   9  17  34  60  88 118 149 202 256 304 351
#     4  10  20  40  61  86 124 158 204 254 312 365
#     4  10  22  39  62  89 125 162 204 256 316 364
#
# _framework density 21.926735999999998
#
# number of rings (size 3 to 8) (size 9 to 14) (size 15 to 20)
#    0.000    2.000    1.429    2.143    2.000    2.857 
#    0.000   10.714    0.000    0.000    0.000    0.000 
#    0.000    0.000    0.000    0.000    0.000    0.000 
#
# Total GULP energy -156113.091771 kJ/mol
# GULP energy per Si atom -5575.467563 kJ/mol
# Density = 2.187683 g / cm^3
# Si number density = 21.926736 Si / 1000 Ang^3
#
#
#
# Elastic Constant Matrix: (Units=GPa)
#
#
# Indices 1 2 3 4 5 6 
#
# 1 178.8225 36.0078 25.9815 0.0000 -19.5661 0.0000
# 2 36.0078 54.3082 10.1015 0.0000 -15.8007 0.0000
# 3 25.9815 10.1015 36.2191 0.0000 2.4802 0.0000
# 4 0.0000 0.0000 0.0000 22.6451 0.0000 6.4235
# 5 -19.5661 -15.8007 2.4802 0.0000 23.0578 0.0000
# 6 0.0000 0.0000 0.0000 6.4235 0.0000 16.8039
#
#
#
# Elastic Compliance Matrix: (Units=1/GPa)
#
#
# Indices 1 2 3 4 5 6 
#
# 1 0.007366 -0.002489 -0.004938 0.000000 0.005076 0.000000
# 2 -0.002489 0.026089 -0.006619 0.000000 0.016478 0.000000
# 3 -0.004938 -0.006619 0.033845 0.000000 -0.012366 0.000000
# 4 0.000000 0.000000 0.000000 0.049530 0.000000 -0.018934
# 5 0.005076 0.016478 -0.012366 0.000000 0.060299 0.000000
# 6 0.000000 0.000000 0.000000 -0.018934 0.000000 0.066748
#
#
# Mechanical properties :
#
#
# Convention : Reuss Voigt Hill
#
# Bulk Modulus (GPa) = 25.50464 45.94794 35.72629
# Shear Modulus (GPa) = 17.54160 25.65196 21.59678
#
# Velocity S-wave (km/s) = 2.83151 3.42408 3.14180
# Velocity P-wave (km/s) = 4.72726 6.05253 5.43047
#
# Compressibility (1/GPa) = 0.03920855
#
# Stress axis : x y z
#
# Youngs Moduli (GPa) = 135.75776 38.33062 29.54677
#
# Poissons Ratio (x) = 0.09539 0.14589
# Poissons Ratio (y) = 0.33784 0.19558
# Poissons Ratio (z) = 0.67031 0.25372
#
# Static dielectric constant tensor:
#      x y z
#    x 1.821890 0.000000 0.055640 
#    y 0.000000 1.803340 0.000000 
#    z 0.055640 0.000000 1.910550 
# 
# From -- ./inp_files/204369.got.cif
#   From: 2010.05.17/outbox.cif.g08.bks.cpg/sg15_103_cif.got.tgz:204369.got - 2010.06.03 18:47:42.
