data_PCOD9276689
_publ_section_title
;
Structure prediction by ZEFSAII (Michael W. Deem and Ramdas Pophale) SiO2 
 PCOD9276689
Probable space group: C 2/C
;
_chemical_formula_sum "Si O2"
_cell_formula_units_Z 60
_cell_length_a 18.816207
_cell_length_b 21.117674
_cell_length_c 9.512984
_cell_angle_alpha 90.000000
_cell_angle_beta 51.822658
_cell_angle_gamma 90.000000
_cell_volume 2971.484652
_symmetry_space_group_name_H-M "C 2/C"
_symmetry_group_IT_number 15
_symmetry_cell_setting 'monoclinic'
loop_
_space_group_symop_operation_xyz
x,y,z
-x,y,1/2-z
-x,-y,-z
x,-y,1/2+z
1/2+x,1/2+y,z
1/2-x,1/2+y,1/2-z
1/2-x,1/2-y,-z
1/2+x,1/2-y,1/2+z
loop_
_atom_site_type_symbol
_atom_site_label
_atom_site_fract_x
_atom_site_fract_y
_atom_site_fract_z
Si Si1 0.210135 0.857409 0.304966
Si Si2 0.922104 0.051759 0.074323
Si Si3 0.223934 0.492029 0.345838
Si Si4 0.131434 0.739911 0.930443
Si Si5 0.661332 0.926451 0.689558
Si Si6 0.500000 0.150016 0.250000
Si Si7 0.410228 0.674061 0.281736
Si Si8 0.146656 0.134915 0.585039
O O1 0.266948 0.922681 0.236672
O O2 0.276194 0.800075 0.182027
O O3 0.162617 0.842737 0.509655
O O4 0.139435 0.867009 0.262166
O O5 0.932861 0.109926 0.168692
O O6 0.824988 0.019800 0.223229
O O7 0.909930 0.083358 0.934438
O O8 0.000000 0.000000 0.000000
O O9 0.188551 0.479974 0.544135
O O10 0.160131 0.539747 0.340249
O O11 0.121345 0.774269 0.792841
O O12 0.052142 0.692533 0.072114
O O13 0.127500 0.795978 0.049281
O O14 0.573235 0.891806 0.742666
O O15 0.748060 0.879933 0.578559
O O16 0.500000 0.696864 0.250000
#
# Coordination Sequence:
#
# PCOD9276689 Si02
#       8
#     8   8   8   8   8   4   8   8
#     4  11  21  41  65  92 126 166 215 264 328 388
#     4  10  21  41  64  97 134 170 215 257 318 397
#     4  10  20  40  64  90 127 167 205 257 326 379
#     4  11  24  42  65  91 125 171 219 268 319 387
#     4  10  22  40  63  93 123 164 213 266 322 381
#     4  12  24  42  68  92 122 162 234 266 304 388
#     4  11  25  40  60  96 131 167 205 269 328 385
#     4   9  21  41  66  94 123 179 212 259 329 385
#
# _framework density 20.191927
#
# number of rings (size 3 to 8) (size 9 to 14) (size 15 to 20)
#    0.000    1.600    2.667    2.400    1.867    2.667 
#    2.400    6.000    0.000    0.000    0.000    0.000 
#    0.000    0.000    0.000    0.000    0.000    0.000 
#
# Total GULP energy -167705.760803 kJ/mol
# GULP energy per Si atom -5590.192027 kJ/mol
# Density = 2.014597 g / cm^3
# Si number density = 20.191927 Si / 1000 Ang^3
#
#
#
# Elastic Constant Matrix: (Units=GPa)
#
#
# Indices 1 2 3 4 5 6 
#
# 1 114.9151 58.6951 29.7638 0.0000 6.7720 0.0000
# 2 58.6951 88.4978 20.1850 0.0000 8.6778 0.0000
# 3 29.7638 20.1850 74.0799 0.0000 10.2792 0.0000
# 4 0.0000 0.0000 0.0000 2.4172 0.0000 2.9868
# 5 6.7720 8.6778 10.2792 0.0000 25.6165 0.0000
# 6 0.0000 0.0000 0.0000 2.9868 0.0000 22.8516
#
#
#
# Elastic Compliance Matrix: (Units=1/GPa)
#
#
# Indices 1 2 3 4 5 6 
#
# 1 0.013872 -0.008493 -0.003335 0.000000 0.000548 0.000000
# 2 -0.008493 0.017460 -0.000885 0.000000 -0.003314 0.000000
# 3 -0.003335 -0.000885 0.015796 0.000000 -0.005157 0.000000
# 4 0.000000 0.000000 0.000000 0.493393 0.000000 -0.064489
# 5 0.000548 -0.003314 -0.005157 0.000000 0.042084 0.000000
# 6 0.000000 0.000000 0.000000 -0.064489 0.000000 0.052190
#
#
# Mechanical properties :
#
#
# Convention : Reuss Voigt Hill
#
# Bulk Modulus (GPa) = 46.08322 54.97563 50.52942
# Shear Modulus (GPa) = 7.49115 21.43366 14.46240
#
# Velocity S-wave (km/s) = 1.92822 3.26160 2.67918
# Velocity P-wave (km/s) = 5.27537 6.43969 5.88639
#
# Compressibility (1/GPa) = 0.02169987
#
# Stress axis : x y z
#
# Youngs Moduli (GPa) = 72.08897 57.27495 63.30843
#
# Poissons Ratio (x) = 0.48645 0.21115
# Poissons Ratio (y) = 0.61227 0.05603
# Poissons Ratio (z) = 0.24043 0.05069
#
# Static dielectric constant tensor:
#      x y z
#    x 1.728390 0.000000 0.000260 
#    y 0.000000 1.709180 0.000000 
#    z 0.000260 0.000000 1.711060 
# 
# From -- ./inp_files/50632.got.cif
#   From: 2010.05.17/outbox.cif.g08.bks.cpg/sg15_26_cif.got.tgz:50632.got - 2010.06.03 18:47:42.
