data_PCOD9276332
_publ_section_title
;
Structure prediction by ZEFSAII (Michael W. Deem and Ramdas Pophale) SiO2 
 PCOD9276332
Probable space group: C 2/C
;
_chemical_formula_sum "Si O2"
_cell_formula_units_Z 48
_cell_length_a 12.241777
_cell_length_b 14.672797
_cell_length_c 14.559997
_cell_angle_alpha 90.000000
_cell_angle_beta 68.301587
_cell_angle_gamma 90.000000
_cell_volume 2429.971222
_symmetry_space_group_name_H-M "C 2/C"
_symmetry_group_IT_number 15
_symmetry_cell_setting 'monoclinic'
loop_
_space_group_symop_operation_xyz
x,y,z
-x,y,1/2-z
-x,-y,-z
x,-y,1/2+z
1/2+x,1/2+y,z
1/2-x,1/2+y,1/2-z
1/2-x,1/2-y,-z
1/2+x,1/2-y,1/2+z
loop_
_atom_site_type_symbol
_atom_site_label
_atom_site_fract_x
_atom_site_fract_y
_atom_site_fract_z
Si Si1 0.018613 0.295123 0.852239
Si Si2 0.394456 0.034098 0.468911
Si Si3 0.230070 0.179416 0.137968
Si Si4 0.850534 0.011190 0.850519
Si Si5 0.434595 0.591722 0.638621
Si Si6 0.710267 0.124619 0.590609
O O1 0.151589 0.321984 0.838876
O O2 0.008070 0.191384 0.888987
O O3 0.000000 0.296893 0.750000
O O4 0.929261 0.366371 0.924102
O O5 0.272857 0.033439 0.563264
O O6 0.500000 0.000000 0.500000
O O7 0.378139 0.959802 0.392315
O O8 0.178418 0.281965 0.154278
O O9 0.152392 0.092085 0.186944
O O10 0.267104 0.157293 0.021081
O O11 0.874369 0.078384 0.757696
O O12 0.957089 0.022257 0.889368
O O13 0.330557 0.587185 0.597688
#
# Coordination Sequence:
#
# PCOD9276332 Si02
#       6
#     8   8   8   8   8   8
#     4  11  21  39  61  89 121 162 193 254 311 353
#     4  11  22  37  64  93 124 155 202 252 301 361
#     4   9  19  36  63  82 122 154 199 244 303 357
#     4  10  20  40  60  89 122 158 199 257 294 360
#     4  10  22  40  63  85 123 161 204 247 304 351
#     4   9  19  37  62  87 113 163 195 244 298 361
#
# _framework density 19.753321
#
# number of rings (size 3 to 8) (size 9 to 14) (size 15 to 20)
#    0.000    2.000    5.000    0.000    2.333    3.333 
#    0.000    0.000   22.000    0.000    0.000    0.000 
#    0.000    0.000    0.000    0.000    0.000    0.000 
#
# Total GULP energy -133748.571303 kJ/mol
# GULP energy per Si atom -5572.857138 kJ/mol
# Density = 1.970836 g / cm^3
# Si number density = 19.753321 Si / 1000 Ang^3
#
#
#
# Elastic Constant Matrix: (Units=GPa)
#
#
# Indices 1 2 3 4 5 6 
#
# 1 143.2494 55.8593 28.7556 0.0000 29.9170 0.0000
# 2 55.8593 132.7017 11.7736 0.0000 -5.1558 0.0000
# 3 28.7556 11.7736 21.0839 0.0000 15.7340 0.0000
# 4 0.0000 0.0000 0.0000 30.2036 0.0000 -1.9751
# 5 29.9170 -5.1558 15.7340 0.0000 40.7948 0.0000
# 6 0.0000 0.0000 0.0000 -1.9751 0.0000 47.3487
#
#
#
# Elastic Compliance Matrix: (Units=1/GPa)
#
#
# Indices 1 2 3 4 5 6 
#
# 1 0.011701 -0.004297 -0.009478 0.000000 -0.005468 0.000000
# 2 -0.004297 0.009951 -0.004193 0.000000 0.006026 0.000000
# 3 -0.009478 -0.004193 0.081309 0.000000 -0.024939 0.000000
# 4 0.000000 0.000000 0.000000 0.033199 0.000000 0.001385
# 5 -0.005468 0.006026 -0.024939 0.000000 0.038903 0.000000
# 6 0.000000 0.000000 0.000000 0.001385 0.000000 0.021178
#
#
# Mechanical properties :
#
#
# Convention : Reuss Voigt Hill
#
# Bulk Modulus (GPa) = 14.92006 54.42355 34.67181
# Shear Modulus (GPa) = 19.64490 37.04585 28.34538
#
# Velocity S-wave (km/s) = 3.15701 4.33531 3.79221
# Velocity P-wave (km/s) = 4.56711 7.25750 6.06341
#
# Compressibility (1/GPa) = 0.06702384
#
# Stress axis : x y z
#
# Youngs Moduli (GPa) = 85.46162 100.49633 12.29878
#
# Poissons Ratio (x) = 0.43183 0.11657
# Poissons Ratio (y) = 0.36723 0.05157
# Poissons Ratio (z) = 0.81004 0.42138
#
# Static dielectric constant tensor:
#      x y z
#    x 1.692010 0.000000 0.005780 
#    y 0.000000 1.774270 0.000000 
#    z 0.005780 0.000000 1.702920 
# 
# From -- ./inp_files/143531.got.cif
#   From: 2010.05.17/outbox.cif.g08.bks.cpg/sg15_72_cif.got.tgz:143531.got - 2010.06.03 18:47:42.
