data_PCOD9276547
_publ_section_title
;
Structure prediction by ZEFSAII (Michael W. Deem and Ramdas Pophale) SiO2 
 PCOD9276547
Probable space group: C 2/C
;
_chemical_formula_sum "Si O2"
_cell_formula_units_Z 48
_cell_length_a 14.854115
_cell_length_b 29.475689
_cell_length_c 15.240869
_cell_angle_alpha 90.000000
_cell_angle_beta 160.421919
_cell_angle_gamma 90.000000
_cell_volume 2236.059931
_symmetry_space_group_name_H-M "C 2/C"
_symmetry_group_IT_number 15
_symmetry_cell_setting 'monoclinic'
loop_
_space_group_symop_operation_xyz
x,y,z
-x,y,1/2-z
-x,-y,-z
x,-y,1/2+z
1/2+x,1/2+y,z
1/2-x,1/2+y,1/2-z
1/2-x,1/2-y,-z
1/2+x,1/2-y,1/2+z
loop_
_atom_site_type_symbol
_atom_site_label
_atom_site_fract_x
_atom_site_fract_y
_atom_site_fract_z
Si Si1 0.779821 0.301021 0.488954
Si Si2 0.642947 0.779826 0.298440
Si Si3 0.719976 0.440344 0.028999
Si Si4 0.070968 0.892180 0.573144
Si Si5 0.093455 0.664495 0.577350
Si Si6 0.789501 0.485154 0.731535
O O1 0.500000 0.324393 0.250000
O O2 0.750000 0.250000 0.500000
O O3 0.858621 0.302305 0.460629
O O4 0.000000 0.324817 0.750000
O O5 0.500000 0.803376 0.250000
O O6 0.643584 0.810044 0.213798
O O7 0.939626 0.762228 0.593287
O O8 0.819861 0.486317 0.170402
O O9 0.000000 0.419529 0.250000
O O10 0.500000 0.447768 0.750000
O O11 0.568844 0.411173 0.965965
O O12 0.250478 0.931287 0.692033
O O13 0.823778 0.874232 0.287699
O O14 0.291089 0.853978 0.796442
O O15 0.500000 0.500000 0.500000
O O16 0.000000 0.500000 0.000000
#
# Coordination Sequence:
#
# PCOD9276547 Si02
#       6
#     8   8   8   8   8   8
#     4  10  23  41  64  93 121 162 222 280 324 396
#     4  10  23  41  62  89 124 166 218 264 314 402
#     4  11  22  39  65  97 127 173 229 263 318 397
#     4  11  24  41  62  97 133 169 210 275 331 403
#     4  12  24  40  68  95 132 175 213 273 362 382
#     4  10  20  40  63  85 127 172 217 257 309 389
#
# _framework density 21.466329000000002
#
# number of rings (size 3 to 8) (size 9 to 14) (size 15 to 20)
#    0.000    1.333    0.000    7.000    4.667    2.000 
#    0.000    5.000    0.000    0.000    0.000    0.000 
#    0.000    0.000    0.000    0.000    0.000    0.000 
#
# Total GULP energy -133948.438089 kJ/mol
# GULP energy per Si atom -5581.184920 kJ/mol
# Density = 2.141747 g / cm^3
# Si number density = 21.466329 Si / 1000 Ang^3
#
#
#
# Elastic Constant Matrix: (Units=GPa)
#
#
# Indices 1 2 3 4 5 6 
#
# 1 134.7890 46.5903 33.7121 -0.0040 -9.0842 -0.0042
# 2 46.5903 53.1877 15.1992 -0.0020 -1.2698 -0.0006
# 3 33.7121 15.1992 167.1746 -0.0101 4.7926 -0.0047
# 4 -0.0040 -0.0020 -0.0101 6.5386 -0.0045 10.8115
# 5 -9.0842 -1.2698 4.7926 -0.0045 35.8719 -0.0025
# 6 -0.0042 -0.0006 -0.0047 10.8115 -0.0025 59.1142
#
#
#
# Elastic Compliance Matrix: (Units=1/GPa)
#
#
# Indices 1 2 3 4 5 6 
#
# 1 0.011193 -0.009315 -0.001488 0.000003 0.002704 0.000000
# 2 -0.009315 0.027085 -0.000546 0.000002 -0.001327 -0.000001
# 3 -0.001488 -0.000546 0.006367 0.000010 -0.001247 -0.000002
# 4 0.000003 0.000002 0.000010 0.219236 0.000024 -0.040097
# 5 0.002704 -0.001327 -0.001247 0.000024 0.028681 -0.000003
# 6 0.000000 -0.000001 -0.000002 -0.040097 -0.000003 0.024250
#
#
# Mechanical properties :
#
#
# Convention : Reuss Voigt Hill
#
# Bulk Modulus (GPa) = 45.56251 60.68384 53.12318
# Shear Modulus (GPa) = 14.41645 37.61494 26.01569
#
# Velocity S-wave (km/s) = 2.59431 4.19056 3.48506
# Velocity P-wave (km/s) = 5.49955 7.19341 6.40274
#
# Compressibility (1/GPa) = 0.02194787
#
# Stress axis : x y z
#
# Youngs Moduli (GPa) = 89.34100 36.92053 157.05541
#
# Poissons Ratio (x) = 0.34391 0.23366
# Poissons Ratio (y) = 0.83221 0.08576
# Poissons Ratio (z) = 0.13292 0.02016
#
# Static dielectric constant tensor:
#      x y z
#    x 1.830370 0.000000 0.028700 
#    y 0.000000 1.878830 0.000000 
#    z 0.028700 0.000000 1.805460 
# 
# From -- ./inp_files/157728.got.cif
#   From: 2010.05.17/outbox.cif.g08.bks.cpg/sg15_79_cif.got.tgz:157728.got - 2010.06.03 18:47:42.
