data_PCOD9276548
_publ_section_title
;
Structure prediction by ZEFSAII (Michael W. Deem and Ramdas Pophale) SiO2 
 PCOD9276548
Probable space group: C 2/C
;
_chemical_formula_sum "Si O2"
_cell_formula_units_Z 48
_cell_length_a 27.520013
_cell_length_b 6.577705
_cell_length_c 21.999131
_cell_angle_alpha 90.000000
_cell_angle_beta 152.065388
_cell_angle_gamma 90.000000
_cell_volume 1865.539331
_symmetry_space_group_name_H-M "C 2/C"
_symmetry_group_IT_number 15
_symmetry_cell_setting 'monoclinic'
loop_
_space_group_symop_operation_xyz
x,y,z
-x,y,1/2-z
-x,-y,-z
x,-y,1/2+z
1/2+x,1/2+y,z
1/2-x,1/2+y,1/2-z
1/2-x,1/2-y,-z
1/2+x,1/2-y,1/2+z
loop_
_atom_site_type_symbol
_atom_site_label
_atom_site_fract_x
_atom_site_fract_y
_atom_site_fract_z
Si Si1 0.606985 0.932379 0.738731
Si Si2 0.909262 0.078883 0.028437
Si Si3 0.908524 0.065410 0.698935
Si Si4 0.248536 0.313591 0.574572
Si Si5 0.581924 0.053527 0.039449
Si Si6 0.235535 0.692927 0.652469
O O1 0.622217 0.792682 0.815167
O O2 0.655187 0.806582 0.734879
O O3 0.671916 0.137879 0.816520
O O4 0.487046 0.979617 0.595492
O O5 0.862460 0.212653 0.032011
O O6 0.898004 0.212788 0.955227
O O7 0.844238 0.872054 0.953043
O O8 0.027179 0.023241 0.172583
O O9 0.000000 0.073823 0.750000
O O10 0.806129 0.922125 0.580358
O O11 0.243436 0.508946 0.613635
O O12 0.685833 0.918346 0.155829
O O13 0.500000 0.000000 0.000000
#
# Coordination Sequence:
#
# PCOD9276548 Si02
#       6
#     8   8   8   8   8   8
#     4  10  20  41  59  86 129 156 196 261 300 362
#     4  10  20  40  63  85 128 156 197 259 292 361
#     4  11  22  37  63  91 118 161 204 247 308 364
#     4   9  20  39  63  85 122 161 196 253 309 350
#     4  11  22  39  63  93 117 163 205 242 306 363
#     4   9  20  40  61  86 124 160 195 254 309 350
#
# _framework density 25.729824000000001
#
# number of rings (size 3 to 8) (size 9 to 14) (size 15 to 20)
#    0.000    2.000    3.333    0.000    0.000    2.000 
#    9.000    7.500    0.000    0.000    0.000    0.000 
#    0.000    0.000    0.000    0.000    0.000    0.000 
#
# Total GULP energy -133930.593781 kJ/mol
# GULP energy per Si atom -5580.441408 kJ/mol
# Density = 2.567126 g / cm^3
# Si number density = 25.729824 Si / 1000 Ang^3
#
#
#
# Elastic Constant Matrix: (Units=GPa)
#
#
# Indices 1 2 3 4 5 6 
#
# 1 164.6234 52.3004 -5.0606 0.0000 36.4651 0.0000
# 2 52.3004 157.9307 28.1249 -0.0001 27.0677 0.0000
# 3 -5.0606 28.1249 86.5507 0.0000 28.5736 0.0000
# 4 0.0000 -0.0001 0.0000 66.4738 0.0000 15.6239
# 5 36.4651 27.0677 28.5736 0.0000 36.6252 0.0000
# 6 0.0000 0.0000 0.0000 15.6239 0.0000 52.5246
#
#
#
# Elastic Compliance Matrix: (Units=1/GPa)
#
#
# Indices 1 2 3 4 5 6 
#
# 1 0.009550 -0.002020 0.005200 0.000000 -0.012073 0.000000
# 2 -0.002020 0.007718 -0.001895 0.000000 -0.002215 0.000000
# 3 0.005200 -0.001895 0.018481 0.000000 -0.018195 0.000000
# 4 0.000000 0.000000 0.000000 0.016174 0.000000 -0.004811
# 5 -0.012073 -0.002215 -0.018195 0.000000 0.055156 0.000000
# 6 0.000000 0.000000 0.000000 -0.004811 0.000000 0.020470
#
#
# Mechanical properties :
#
#
# Convention : Reuss Voigt Hill
#
# Bulk Modulus (GPa) = 26.09556 62.20379 44.14968
# Shear Modulus (GPa) = 36.29761 53.37406 44.83584
#
# Velocity S-wave (km/s) = 3.76003 4.55950 4.17893
# Velocity P-wave (km/s) = 5.38652 7.20743 6.36245
#
# Compressibility (1/GPa) = 0.03832069
#
# Stress axis : x y z
#
# Youngs Moduli (GPa) = 104.70979 129.57216 54.11069
#
# Poissons Ratio (x) = 0.26168 -0.28140
# Poissons Ratio (y) = 0.21147 0.10253
# Poissons Ratio (z) = -0.54454 0.24551
#
# Static dielectric constant tensor:
#      x y z
#    x 2.147600 0.000000 -0.081510 
#    y 0.000000 2.009060 0.000000 
#    z -0.081510 0.000000 1.994460 
# 
# From -- ./inp_files/179669.got.cif
#   From: 2010.05.17/outbox.cif.g08.bks.cpg/sg15_90_cif.got.tgz:179669.got - 2010.06.03 18:47:42.
