data_PCOD9276194
_publ_section_title
;
Structure prediction by ZEFSAII (Michael W. Deem and Ramdas Pophale) SiO2 
 PCOD9276194
Probable space group: C 2/C
;
_chemical_formula_sum "Si O2"
_cell_formula_units_Z 28
_cell_length_a 5.406907
_cell_length_b 32.750477
_cell_length_c 9.008006
_cell_angle_alpha 90.000000
_cell_angle_beta 94.297285
_cell_angle_gamma 90.000000
_cell_volume 1590.642340
_symmetry_space_group_name_H-M "C 2/C"
_symmetry_group_IT_number 15
_symmetry_cell_setting 'monoclinic'
loop_
_space_group_symop_operation_xyz
x,y,z
-x,y,1/2-z
-x,-y,-z
x,-y,1/2+z
1/2+x,1/2+y,z
1/2-x,1/2+y,1/2-z
1/2-x,1/2-y,-z
1/2+x,1/2-y,1/2+z
loop_
_atom_site_type_symbol
_atom_site_label
_atom_site_fract_x
_atom_site_fract_y
_atom_site_fract_z
Si Si1 0.813945 0.463833 0.030007
Si Si2 0.500000 0.895855 0.250000
Si Si3 0.000000 0.984929 0.750000
Si Si4 0.008632 0.236746 0.582347
Si Si5 0.000000 0.156522 0.750000
O O1 0.946650 0.424851 0.105860
O O2 0.651345 0.484117 0.152564
O O3 0.657621 0.457891 0.872443
O O4 0.000000 0.500000 0.000000
O O5 0.251177 0.869648 0.264572
O O6 0.250000 0.250000 0.500000
O O7 0.000000 0.254193 0.750000
O O8 0.750000 0.250000 0.500000
O O9 0.013814 0.187925 0.611823
#
# Coordination Sequence:
#
# PCOD9276194 Si02
#       5
#     8   4   4   8   4
#     4  11  21  36  61  86 114 174 219 264 304 371
#     4  12  22  40  62  90 132 166 203 281 316 362
#     4  10  21  36  56  88 113 150 248 253 300 368
#     4  10  20  39  70  97 124 163 207 250 297 402
#     4  10  25  38  66 100 125 158 211 250 344 374
#
# _framework density 17.602951999999998
#
# number of rings (size 3 to 8) (size 9 to 14) (size 15 to 20)
#    0.857    0.571    2.857    3.429    4.000    0.000 
#    0.000    0.000   12.571    0.000    0.000    0.000 
#    0.000    0.000    0.000    0.000    0.000    0.000 
#
# Total GULP energy -77994.533672 kJ/mol
# GULP energy per Si atom -5571.038119 kJ/mol
# Density = 1.756289 g / cm^3
# Si number density = 17.602952 Si / 1000 Ang^3
#
#
#
# Elastic Constant Matrix: (Units=GPa)
#
#
# Indices 1 2 3 4 5 6 
#
# 1 180.7009 82.0661 90.8147 0.0000 5.3996 0.0000
# 2 82.0661 122.7575 57.2635 0.0000 17.3102 0.0000
# 3 90.8147 57.2635 158.2342 0.0000 19.4900 0.0000
# 4 0.0000 0.0000 0.0000 36.4932 0.0000 6.6670
# 5 5.3996 17.3102 19.4900 0.0000 44.6377 0.0000
# 6 0.0000 0.0000 0.0000 6.6670 0.0000 40.4900
#
#
#
# Elastic Compliance Matrix: (Units=1/GPa)
#
#
# Indices 1 2 3 4 5 6 
#
# 1 0.009798 -0.004981 -0.004135 0.000000 0.002552 0.000000
# 2 -0.004981 0.012578 -0.001233 0.000000 -0.003737 0.000000
# 3 -0.004135 -0.001233 0.009531 0.000000 -0.003183 0.000000
# 4 0.000000 0.000000 0.000000 0.028252 0.000000 -0.004652
# 5 0.002552 -0.003737 -0.003183 0.000000 0.024933 0.000000
# 6 0.000000 0.000000 0.000000 -0.004652 0.000000 0.025463
#
#
# Mechanical properties :
#
#
# Convention : Reuss Voigt Hill
#
# Bulk Modulus (GPa) = 89.21107 102.44234 95.82671
# Shear Modulus (GPa) = 37.03955 39.76076 38.40016
#
# Velocity S-wave (km/s) = 4.59210 4.75779 4.67568
# Velocity P-wave (km/s) = 8.88291 9.40769 9.14906
#
# Compressibility (1/GPa) = 0.01120937
#
# Stress axis : x y z
#
# Youngs Moduli (GPa) = 102.05996 79.50247 104.91844
#
# Poissons Ratio (x) = 0.39602 0.43385
# Poissons Ratio (y) = 0.50838 0.12934
# Poissons Ratio (z) = 0.42203 0.09801
#
# Static dielectric constant tensor:
#      x y z
#    x 1.607880 0.000000 -0.014750 
#    y 0.000000 1.614700 0.000000 
#    z -0.014750 0.000000 1.393720 
# 
# From -- ./inp_files/19796.got.cif
#   From: 2010.05.17/outbox.cif.g08.bks.cpg/sg15_10_cif.got.tgz:19796.got - 2010.06.03 18:47:42.
