data_PCOD9276703
_publ_section_title
;
Structure prediction by ZEFSAII (Michael W. Deem and Ramdas Pophale) SiO2 
 PCOD9276703
Probable space group: C 2/C
;
_chemical_formula_sum "Si O2"
_cell_formula_units_Z 44
_cell_length_a 13.436224
_cell_length_b 13.603884
_cell_length_c 20.439849
_cell_angle_alpha 90.000000
_cell_angle_beta 152.746901
_cell_angle_gamma 90.000000
_cell_volume 1710.839808
_symmetry_space_group_name_H-M "C 2/C"
_symmetry_group_IT_number 15
_symmetry_cell_setting 'monoclinic'
loop_
_space_group_symop_operation_xyz
x,y,z
-x,y,1/2-z
-x,-y,-z
x,-y,1/2+z
1/2+x,1/2+y,z
1/2-x,1/2+y,1/2-z
1/2-x,1/2-y,-z
1/2+x,1/2-y,1/2+z
loop_
_atom_site_type_symbol
_atom_site_label
_atom_site_fract_x
_atom_site_fract_y
_atom_site_fract_z
Si Si1 0.376993 0.344106 0.050640
Si Si2 0.000000 0.882767 0.750000
Si Si3 0.263847 0.439094 0.155468
Si Si4 0.312420 0.427979 0.810443
Si Si5 0.879708 0.292427 0.887855
Si Si6 0.774563 0.469828 0.104015
O O1 0.530405 0.376311 0.199644
O O2 0.517856 0.313673 0.068202
O O3 0.250000 0.250000 0.000000
O O4 0.220023 0.433820 0.939179
O O5 0.186312 0.971161 0.866881
O O6 0.156776 0.810741 0.798580
O O7 0.233527 0.501698 0.205185
O O8 0.072507 0.363905 0.026104
O O9 0.190455 0.327882 0.725857
O O10 0.275853 0.483200 0.855404
O O11 0.572056 0.410456 0.956938
O O12 0.000000 0.416824 0.250000
#
# Coordination Sequence:
#
# PCOD9276703 Si02
#       6
#     8   4   8   8   8   8
#     4  11  24  38  63  99 132 167 211 280 340 388
#     4  10  20  40  64  92 120 176 220 266 318 396
#     4  10  22  40  64  91 127 168 225 271 324 389
#     4   9  20  38  58  89 122 163 215 261 314 386
#     4  11  23  38  67  93 136 168 224 278 332 399
#     4  10  21  37  63  90 126 164 214 266 322 384
#
# _framework density 25.718363
#
# number of rings (size 3 to 8) (size 9 to 14) (size 15 to 20)
#    0.000    1.818    0.000    4.364    5.091    7.273 
#    0.000    0.909   18.000    0.000    0.000    0.000 
#    0.000    0.000    0.000    0.000    0.000    0.000 
#
# Total GULP energy -122532.483902 kJ/mol
# GULP energy per Si atom -5569.658359 kJ/mol
# Density = 2.565983 g / cm^3
# Si number density = 25.718363 Si / 1000 Ang^3
#
#
#
# Elastic Constant Matrix: (Units=GPa)
#
#
# Indices 1 2 3 4 5 6 
#
# 1 98.3175 22.1824 18.5722 0.0004 6.9265 -0.0004
# 2 22.1824 79.8996 36.6296 0.0089 0.0886 -0.0004
# 3 18.5722 36.6296 152.0770 0.0218 -2.0788 -0.0019
# 4 0.0004 0.0089 0.0218 38.2785 -0.0022 9.8279
# 5 6.9265 0.0886 -2.0788 -0.0022 37.7041 -0.0012
# 6 -0.0004 -0.0004 -0.0019 9.8279 -0.0012 31.9589
#
#
#
# Elastic Compliance Matrix: (Units=1/GPa)
#
#
# Indices 1 2 3 4 5 6 
#
# 1 0.011071 -0.002741 -0.000720 0.000001 -0.002067 0.000000
# 2 -0.002741 0.014750 -0.003214 -0.000002 0.000292 0.000000
# 3 -0.000720 -0.003214 0.007445 -0.000004 0.000550 0.000002
# 4 0.000001 -0.000002 -0.000004 0.028364 0.000001 -0.008722
# 5 -0.002067 0.000292 0.000550 0.000001 0.026932 0.000001
# 6 0.000000 0.000000 0.000002 -0.008722 0.000001 0.033972
#
#
# Mechanical properties :
#
#
# Convention : Reuss Voigt Hill
#
# Bulk Modulus (GPa) = 50.21144 53.89583 52.05363
# Shear Modulus (GPa) = 35.08196 38.44895 36.76545
#
# Velocity S-wave (km/s) = 3.69736 3.87072 3.78503
# Velocity P-wave (km/s) = 6.14762 6.40143 6.27581
#
# Compressibility (1/GPa) = 0.01991578
#
# Stress axis : x y z
#
# Youngs Moduli (GPa) = 90.32382 67.79723 134.31495
#
# Poissons Ratio (x) = 0.18585 0.09671
# Poissons Ratio (y) = 0.24761 0.43168
# Poissons Ratio (z) = 0.06504 0.21789
#
# Static dielectric constant tensor:
#      x y z
#    x 2.242380 0.000000 0.137340 
#    y 0.000000 2.037880 0.000000 
#    z 0.137340 0.000000 2.090400 
# 
# From -- ./inp_files/274875.got.cif
#   From: 2010.05.17/outbox.cif.g08.bks.cpg/sg15_138_cif.got.tgz:274875.got - 2010.06.03 18:47:42.
