data_PCOD9276025
_publ_section_title
;
Structure prediction by ZEFSAII (Michael W. Deem and Ramdas Pophale) SiO2 
 PCOD9276025
Probable space group: C 2/C
;
_chemical_formula_sum "Si O2"
_cell_formula_units_Z 32
_cell_length_a 9.109669
_cell_length_b 18.989323
_cell_length_c 10.118594
_cell_angle_alpha 90.000000
_cell_angle_beta 121.342298
_cell_angle_gamma 90.000000
_cell_volume 1494.955597
_symmetry_space_group_name_H-M "C 2/C"
_symmetry_group_IT_number 15
_symmetry_cell_setting 'monoclinic'
loop_
_space_group_symop_operation_xyz
x,y,z
-x,y,1/2-z
-x,-y,-z
x,-y,1/2+z
1/2+x,1/2+y,z
1/2-x,1/2+y,1/2-z
1/2-x,1/2-y,-z
1/2+x,1/2-y,1/2+z
loop_
_atom_site_type_symbol
_atom_site_label
_atom_site_fract_x
_atom_site_fract_y
_atom_site_fract_z
Si Si1 0.221541 0.315897 0.177753
Si Si2 0.500000 0.087384 0.750000
Si Si3 0.500000 0.406068 0.250000
Si Si4 0.191965 0.980233 0.547424
Si Si5 0.202867 0.669883 0.353844
O O1 0.068319 0.360814 0.166960
O O2 0.399479 0.354413 0.304934
O O3 0.215260 0.232109 0.195247
O O4 0.236533 0.321380 0.026199
O O5 0.340655 0.037801 0.631375
O O6 0.650970 0.455122 0.378405
O O7 0.246525 0.910087 0.652978
O O8 0.000000 0.000000 0.500000
O O9 0.000000 0.678838 0.250000
#
# Coordination Sequence:
#
# PCOD9276025 Si02
#       5
#     8   4   4   8   8
#     4  10  22  39  67  95 129 172 219 275 324 389
#     4  12  24  41  69 104 134 164 226 286 324 373
#     4  10  20  39  67  86 132 174 214 260 334 393
#     4  11  23  40  64  99 133 168 218 274 328 387
#     4  10  21  41  67  91 127 185 221 251 334 412
#
# _framework density 21.405318000000001
#
# number of rings (size 3 to 8) (size 9 to 14) (size 15 to 20)
#    0.000    1.500    5.000    0.000    0.000    6.000 
#    0.000    6.250    0.000    0.000    0.000    0.000 
#    0.000    0.000    0.000    0.000    0.000    0.000 
#
# Total GULP energy -89094.689224 kJ/mol
# GULP energy per Si atom -5568.418076 kJ/mol
# Density = 2.135660 g / cm^3
# Si number density = 21.405318 Si / 1000 Ang^3
#
#
#
# Elastic Constant Matrix: (Units=GPa)
#
#
# Indices 1 2 3 4 5 6 
#
# 1 115.1226 88.4278 20.5331 0.0000 22.8082 0.0000
# 2 88.4278 199.1929 35.7158 0.0000 17.6744 0.0000
# 3 20.5331 35.7158 57.9659 0.0000 24.9528 0.0000
# 4 0.0000 0.0000 0.0000 657.6097 0.0000 428.8752
# 5 22.8082 17.6744 24.9528 0.0000 27.1620 0.0000
# 6 0.0000 0.0000 0.0000 428.8752 0.0000 322.9500
#
#
#
# Elastic Compliance Matrix: (Units=1/GPa)
#
#
# Indices 1 2 3 4 5 6 
#
# 1 0.015348 -0.006406 0.003745 0.000000 -0.012160 0.000000
# 2 -0.006406 0.008328 -0.004706 0.000000 0.004283 0.000000
# 3 0.003745 -0.004706 0.031198 0.000000 -0.028743 0.000000
# 4 0.000000 0.000000 0.000000 0.011355 0.000000 -0.015079
# 5 -0.012160 0.004283 -0.028743 0.000000 0.070645 0.000000
# 6 0.000000 0.000000 0.000000 -0.015079 0.000000 0.023122
#
#
# Mechanical properties :
#
#
# Convention : Reuss Voigt Hill
#
# Bulk Modulus (GPa) = 24.91324 73.51499 49.21411
# Shear Modulus (GPa) = 26.58035 216.71798 121.64916
#
# Velocity S-wave (km/s) = 3.52769 10.07297 7.54683
# Velocity P-wave (km/s) = 5.31572 13.02709 9.94892
#
# Compressibility (1/GPa) = 0.04013931
#
# Stress axis : x y z
#
# Youngs Moduli (GPa) = 65.15424 120.07956 32.05385
#
# Poissons Ratio (x) = 0.76924 -0.12004
# Poissons Ratio (y) = 0.41738 0.15084
# Poissons Ratio (z) = -0.24399 0.56508
#
# Static dielectric constant tensor:
#      x y z
#    x 1.804280 0.000000 -0.022920 
#    y 0.000000 1.938510 0.000000 
#    z -0.022920 0.000000 1.990150 
# 
# From -- ./inp_files/22186.got.cif
#   From: 2010.05.17/outbox.cif.g08.bks.cpg/sg15_12_cif.got.tgz:22186.got - 2010.06.03 18:47:42.
