data_PCOD9276029
_publ_section_title
;
Structure prediction by ZEFSAII (Michael W. Deem and Ramdas Pophale) SiO2 
 PCOD9276029
Probable space group: C 2/C
;
_chemical_formula_sum "Si O2"
_cell_formula_units_Z 56
_cell_length_a 15.048035
_cell_length_b 13.578500
_cell_length_c 11.236584
_cell_angle_alpha 90.000000
_cell_angle_beta 95.896293
_cell_angle_gamma 90.000000
_cell_volume 2283.821424
_symmetry_space_group_name_H-M "C 2/C"
_symmetry_group_IT_number 15
_symmetry_cell_setting 'monoclinic'
loop_
_space_group_symop_operation_xyz
x,y,z
-x,y,1/2-z
-x,-y,-z
x,-y,1/2+z
1/2+x,1/2+y,z
1/2-x,1/2+y,1/2-z
1/2-x,1/2-y,-z
1/2+x,1/2-y,1/2+z
loop_
_atom_site_type_symbol
_atom_site_label
_atom_site_fract_x
_atom_site_fract_y
_atom_site_fract_z
Si Si1 0.106883 0.008661 0.501975
Si Si2 0.322886 0.346979 0.806503
Si Si3 0.598131 0.624935 0.802210
Si Si4 0.152208 0.301421 0.647266
Si Si5 0.406384 0.726733 0.081695
Si Si6 0.484886 0.944326 0.622139
Si Si7 0.095930 0.717898 0.506383
O O1 0.147212 0.944892 0.617097
O O2 0.143069 0.963221 0.381908
O O3 0.113651 0.124541 0.488636
O O4 0.000000 0.000000 0.500000
O O5 0.231162 0.357113 0.723775
O O6 0.388225 0.303428 0.713700
O O7 0.323137 0.257359 0.902835
O O8 0.500000 0.589032 0.750000
O O9 0.644709 0.694635 0.711597
O O10 0.579648 0.699998 0.906045
O O11 0.158351 0.298044 0.504032
O O12 0.060345 0.360574 0.653326
O O13 0.504894 0.771866 0.072368
O O14 0.500000 0.001941 0.750000
O O15 0.397321 0.882156 0.568613
O O16 0.500000 0.000000 0.500000
#
# Coordination Sequence:
#
# PCOD9276029 Si02
#       7
#     8   8   8   8   8   8   8
#     4  11  23  36  63 102 127 170 208 265 328 392
#     4  11  25  40  61  96 134 168 212 268 331 403
#     4  11  18  37  68  88 124 164 215 259 314 402
#     4  11  23  45  65  90 131 178 213 270 339 386
#     4  11  22  40  64  90 136 168 212 261 330 407
#     4  11  23  45  70  93 123 173 236 283 321 391
#     4  10  20  39  67  90 118 177 208 257 327 396
#
# _framework density 24.520306000000001
#
# number of rings (size 3 to 8) (size 9 to 14) (size 15 to 20)
#    0.000    1.143    7.143    0.857    4.000    4.571 
#    5.143    0.000    0.000    0.000    0.000    0.000 
#    0.000    0.000    0.000    0.000    0.000    0.000 
#
# Total GULP energy -155918.093458 kJ/mol
# GULP energy per Si atom -5568.503338 kJ/mol
# Density = 2.446450 g / cm^3
# Si number density = 24.520306 Si / 1000 Ang^3
#
#
#
# Elastic Constant Matrix: (Units=GPa)
#
#
# Indices 1 2 3 4 5 6 
#
# 1 27.4261 -10.7510 7.3611 0.0000 10.2041 0.0000
# 2 -10.7510 48.6484 29.2220 0.0000 7.2631 0.0000
# 3 7.3611 29.2220 184.6601 0.0000 12.8625 0.0000
# 4 0.0000 0.0000 0.0000 34.7103 0.0000 -4.0593
# 5 10.2041 7.2631 12.8625 0.0000 45.7819 0.0000
# 6 0.0000 0.0000 0.0000 -4.0593 0.0000 16.3165
#
#
#
# Elastic Compliance Matrix: (Units=1/GPa)
#
#
# Indices 1 2 3 4 5 6 
#
# 1 0.047347 0.014226 -0.003311 0.000000 -0.011880 0.000000
# 2 0.014226 0.027308 -0.004453 0.000000 -0.006252 0.000000
# 3 -0.003311 -0.004453 0.006274 0.000000 -0.000318 0.000000
# 4 0.000000 0.000000 0.000000 0.029673 0.000000 0.007382
# 5 -0.011880 -0.006252 -0.000318 0.000000 0.025572 0.000000
# 6 0.000000 0.000000 0.000000 0.007382 0.000000 0.063124
#
#
# Mechanical properties :
#
#
# Convention : Reuss Voigt Hill
#
# Bulk Modulus (GPa) = 10.65505 34.71097 22.68301
# Shear Modulus (GPa) = 22.97178 35.02192 28.99685
#
# Velocity S-wave (km/s) = 3.06412 3.78336 3.44257
# Velocity P-wave (km/s) = 4.10771 5.76818 5.00725
#
# Compressibility (1/GPa) = 0.09385222
#
# Stress axis : x y z
#
# Youngs Moduli (GPa) = 21.12075 36.61971 159.38311
#
# Poissons Ratio (x) = -0.52095 0.52774
# Poissons Ratio (y) = -0.30046 0.70973
# Poissons Ratio (z) = 0.06993 0.16307
#
# Static dielectric constant tensor:
#      x y z
#    x 2.009220 0.000000 -0.070810 
#    y 0.000000 2.057610 0.000000 
#    z -0.070810 0.000000 2.050420 
# 
# From -- ./inp_files/105421.got.cif
#   From: 2010.05.17/outbox.cif.g08.bks.cpg/sg15_53_cif.got.tgz:105421.got - 2010.06.03 18:47:42.
