data_PCOD9276844
_publ_section_title
;
Structure prediction by ZEFSAII (Michael W. Deem and Ramdas Pophale) SiO2 
 PCOD9276844
Probable space group: C 2/C
;
_chemical_formula_sum "Si O2"
_cell_formula_units_Z 44
_cell_length_a 10.627177
_cell_length_b 16.796081
_cell_length_c 15.529803
_cell_angle_alpha 90.000000
_cell_angle_beta 42.803178
_cell_angle_gamma 90.000000
_cell_volume 1883.518013
_symmetry_space_group_name_H-M "C 2/C"
_symmetry_group_IT_number 15
_symmetry_cell_setting 'monoclinic'
loop_
_space_group_symop_operation_xyz
x,y,z
-x,y,1/2-z
-x,-y,-z
x,-y,1/2+z
1/2+x,1/2+y,z
1/2-x,1/2+y,1/2-z
1/2-x,1/2-y,-z
1/2+x,1/2-y,1/2+z
loop_
_atom_site_type_symbol
_atom_site_label
_atom_site_fract_x
_atom_site_fract_y
_atom_site_fract_z
Si Si1 0.000000 0.438501 0.750000
Si Si2 0.594502 0.751748 0.292273
Si Si3 0.128546 0.894770 0.008170
Si Si4 0.262870 0.069625 0.781683
Si Si5 0.004629 0.729713 0.461164
Si Si6 0.826143 0.556798 0.565354
O O1 0.180639 0.387428 0.639815
O O2 0.092914 0.500810 0.769476
O O3 0.500000 0.725899 0.250000
O O4 0.632969 0.846465 0.263728
O O5 0.498552 0.742170 0.434844
O O6 0.796703 0.713382 0.181359
O O7 0.076137 0.803114 0.053264
O O8 0.200822 0.956170 0.044874
O O9 0.931208 0.925681 0.070214
O O10 0.205464 0.059116 0.711717
O O11 0.898855 0.646664 0.514326
O O12 0.000000 0.500000 0.500000
#
# Coordination Sequence:
#
# PCOD9276844 Si02
#       6
#     4   8   8   8   8   8
#     4  12  22  40  66  94 134 168 224 276 330 412
#     4  10  20  40  65  93 135 174 219 278 336 405
#     4  11  24  41  66  94 135 173 223 276 341 405
#     4  10  22  41  64  95 128 177 219 273 341 397
#     4  10  24  39  64  99 131 175 229 272 347 401
#     4  11  22  43  66  93 131 177 223 281 336 404
#
# _framework density 23.360541000000001
#
# number of rings (size 3 to 8) (size 9 to 14) (size 15 to 20)
#    0.000    1.455    2.727    2.182    2.545    0.000 
#    3.273    1.818    0.000    0.000    0.000    0.000 
#    0.000    0.000    0.000    0.000    0.000    0.000 
#
# Total GULP energy -122474.350760 kJ/mol
# GULP energy per Si atom -5567.015944 kJ/mol
# Density = 2.330737 g / cm^3
# Si number density = 23.360541 Si / 1000 Ang^3
#
#
#
# Elastic Constant Matrix: (Units=GPa)
#
#
# Indices 1 2 3 4 5 6 
#
# 1 83.9455 11.0532 14.4376 0.0004 3.7923 0.0003
# 2 11.0532 55.5469 1.1441 0.0022 -11.7620 -0.0003
# 3 14.4376 1.1441 82.7494 0.0062 -12.8527 -0.0016
# 4 0.0004 0.0022 0.0062 3.9052 -0.0008 5.7010
# 5 3.7923 -11.7620 -12.8527 -0.0008 30.8038 -0.0005
# 6 0.0003 -0.0003 -0.0016 5.7010 -0.0005 22.3538
#
#
#
# Elastic Compliance Matrix: (Units=1/GPa)
#
#
# Indices 1 2 3 4 5 6 
#
# 1 0.013039 -0.003404 -0.002865 0.000008 -0.004100 -0.000003
# 2 -0.003404 0.020545 0.001704 -0.000020 0.008975 0.000006
# 3 -0.002865 0.001704 0.013598 -0.000036 0.006677 0.000010
# 4 0.000008 -0.000020 -0.000036 0.407953 -0.000015 -0.104043
# 5 -0.004100 0.008975 0.006677 -0.000015 0.039181 0.000005
# 6 -0.000003 0.000006 0.000010 -0.104043 0.000005 0.071270
#
#
# Mechanical properties :
#
#
# Convention : Reuss Voigt Hill
#
# Bulk Modulus (GPa) = 26.27929 30.61243 28.44586
# Shear Modulus (GPa) = 8.51209 24.45303 16.48256
#
# Velocity S-wave (km/s) = 1.91094 3.23889 2.65914
# Velocity P-wave (km/s) = 4.01781 5.20768 4.65095
#
# Compressibility (1/GPa) = 0.03805277
#
# Stress axis : x y z
#
# Youngs Moduli (GPa) = 76.69552 48.67264 73.54025
#
# Poissons Ratio (x) = 0.16567 0.21067
# Poissons Ratio (y) = 0.26105 -0.12530
# Poissons Ratio (z) = 0.21971 -0.08293
#
# Static dielectric constant tensor:
#      x y z
#    x 1.952770 0.000000 0.101740 
#    y 0.000000 1.838290 0.000000 
#    z 0.101740 0.000000 1.990650 
# 
# From -- ./inp_files/174175.got.cif
#   From: 2010.05.17/outbox.cif.g08.bks.cpg/sg15_88_cif.got.tgz:174175.got - 2010.06.03 18:47:42.
