data_PCOD9276106
_publ_section_title
;
Structure prediction by ZEFSAII (Michael W. Deem and Ramdas Pophale) SiO2 
 PCOD9276106
Probable space group: C 2/C
;
_chemical_formula_sum "Si O2"
_cell_formula_units_Z 40
_cell_length_a 16.978635
_cell_length_b 7.175362
_cell_length_c 15.705970
_cell_angle_alpha 90.000000
_cell_angle_beta 104.118697
_cell_angle_gamma 90.000000
_cell_volume 1855.624757
_symmetry_space_group_name_H-M "C 2/C"
_symmetry_group_IT_number 15
_symmetry_cell_setting 'monoclinic'
loop_
_space_group_symop_operation_xyz
x,y,z
-x,y,1/2-z
-x,-y,-z
x,-y,1/2+z
1/2+x,1/2+y,z
1/2-x,1/2+y,1/2-z
1/2-x,1/2-y,-z
1/2+x,1/2-y,1/2+z
loop_
_atom_site_type_symbol
_atom_site_label
_atom_site_fract_x
_atom_site_fract_y
_atom_site_fract_z
Si Si1 0.305831 0.887753 0.711438
Si Si2 0.395650 0.430738 0.140756
Si Si3 0.053151 0.055292 0.594871
Si Si4 0.795494 0.912192 0.461590
Si Si5 0.363590 0.727452 0.262097
O O1 0.265471 0.975861 0.615372
O O2 0.362057 0.050822 0.762848
O O3 0.354369 0.705495 0.697300
O O4 0.230898 0.833597 0.752397
O O5 0.485514 0.362387 0.139893
O O6 0.398234 0.634284 0.185566
O O7 0.339090 0.454817 0.042646
O O8 0.131495 0.163147 0.579980
O O9 0.089117 0.871110 0.648965
O O10 0.000000 0.000000 0.500000
O O11 0.750000 0.750000 0.500000
#
# Coordination Sequence:
#
# PCOD9276106 Si02
#       5
#     8   8   8   8   8
#     4  11  22  38  66  98 121 170 212 261 317 377
#     4  11  21  40  65  93 130 163 208 261 318 373
#     4   9  22  41  64  88 128 170 203 263 322 370
#     4  10  20  39  68  92 126 165 211 259 314 383
#     4  11  21  39  66  92 126 164 217 259 313 384
#
# _framework density 21.556083999999998
#
# number of rings (size 3 to 8) (size 9 to 14) (size 15 to 20)
#    0.000    1.600    4.000    1.200    0.000    0.000 
#    0.000    5.000    4.400    0.000    0.000    0.000 
#    0.000    0.000    0.000    0.000    0.000    0.000 
#
# Total GULP energy -111743.436509 kJ/mol
# GULP energy per Si atom -5587.171825 kJ/mol
# Density = 2.150702 g / cm^3
# Si number density = 21.556084 Si / 1000 Ang^3
#
#
#
# Elastic Constant Matrix: (Units=GPa)
#
#
# Indices 1 2 3 4 5 6 
#
# 1 135.3196 27.1808 14.3028 0.0000 -21.1295 0.0000
# 2 27.1808 59.3359 -3.2837 0.0000 -4.2907 0.0000
# 3 14.3028 -3.2837 70.7546 0.0000 10.7021 0.0000
# 4 0.0000 0.0000 0.0000 30.3028 0.0000 -5.8989
# 5 -21.1295 -4.2907 10.7021 0.0000 45.5407 0.0000
# 6 0.0000 0.0000 0.0000 -5.8989 0.0000 23.4829
#
#
#
# Elastic Compliance Matrix: (Units=1/GPa)
#
#
# Indices 1 2 3 4 5 6 
#
# 1 0.009196 -0.004036 -0.002731 0.000000 0.004528 0.000000
# 2 -0.004036 0.018762 0.001765 0.000000 -0.000520 0.000000
# 3 -0.002731 0.001765 0.015484 0.000000 -0.004740 0.000000
# 4 0.000000 0.000000 0.000000 0.034697 0.000000 0.008716
# 5 0.004528 -0.000520 -0.004740 0.000000 0.025124 0.000000
# 6 0.000000 0.000000 0.000000 0.008716 0.000000 0.044774
#
#
# Mechanical properties :
#
#
# Convention : Reuss Voigt Hill
#
# Bulk Modulus (GPa) = 29.90582 37.97886 33.94234
# Shear Modulus (GPa) = 29.55277 35.01262 32.28270
#
# Velocity S-wave (km/s) = 3.70668 4.03458 3.87410
# Velocity P-wave (km/s) = 5.67652 6.27381 5.98262
#
# Compressibility (1/GPa) = 0.03343831
#
# Stress axis : x y z
#
# Youngs Moduli (GPa) = 108.73728 53.29828 64.58137
#
# Poissons Ratio (x) = 0.21514 0.17639
# Poissons Ratio (y) = 0.43891 -0.11401
# Poissons Ratio (z) = 0.29700 -0.09409
#
# Static dielectric constant tensor:
#      x y z
#    x 1.805430 0.000000 -0.012480 
#    y 0.000000 1.738000 0.000000 
#    z -0.012480 0.000000 1.818880 
# 
# From -- ./inp_files/207982.got.cif
#   From: 2010.05.17/outbox.cif.g08.bks.cpg/sg15_104_cif.got.tgz:207982.got - 2010.06.03 18:47:42.
