data_PCOD9276126
_publ_section_title
;
Structure prediction by ZEFSAII (Michael W. Deem and Ramdas Pophale) SiO2 
 PCOD9276126
Probable space group: C 2/C
;
_chemical_formula_sum "Si O2"
_cell_formula_units_Z 48
_cell_length_a 14.107237
_cell_length_b 11.648985
_cell_length_c 15.563035
_cell_angle_alpha 90.000000
_cell_angle_beta 58.157323
_cell_angle_gamma 90.000000
_cell_volume 2172.639652
_symmetry_space_group_name_H-M "C 2/C"
_symmetry_group_IT_number 15
_symmetry_cell_setting 'monoclinic'
loop_
_space_group_symop_operation_xyz
x,y,z
-x,y,1/2-z
-x,-y,-z
x,-y,1/2+z
1/2+x,1/2+y,z
1/2-x,1/2+y,1/2-z
1/2-x,1/2-y,-z
1/2+x,1/2-y,1/2+z
loop_
_atom_site_type_symbol
_atom_site_label
_atom_site_fract_x
_atom_site_fract_y
_atom_site_fract_z
Si Si1 0.941004 0.615401 0.996784
Si Si2 0.716506 0.460833 0.517271
Si Si3 0.851859 0.111416 0.088414
Si Si4 0.827661 0.190339 0.851560
Si Si5 0.475775 0.290921 0.122170
Si Si6 0.497503 0.310834 0.651135
O O1 0.013851 0.694848 0.898642
O O2 0.829532 0.593337 0.996859
O O3 0.922251 0.691608 0.090711
O O4 0.000000 0.500000 0.000000
O O5 0.715164 0.505633 0.419699
O O6 0.700362 0.573749 0.584839
O O7 0.613439 0.374696 0.575597
O O8 0.774710 0.223423 0.110968
O O9 0.896773 0.110247 0.163611
O O10 0.962923 0.124609 0.974786
O O11 0.886574 0.163024 0.732742
O O12 0.920970 0.250895 0.867611
O O13 0.500000 0.288907 0.750000
#
# Coordination Sequence:
#
# PCOD9276126 Si02
#       6
#     8   8   8   8   8   8
#     4  11  23  46  66  93 135 180 216 278 341 398
#     4  11  22  40  69  95 132 176 222 272 340 391
#     4  10  21  42  65  93 132 178 216 275 332 402
#     4  10  20  39  68  97 126 172 231 269 325 410
#     4   9  20  37  64  96 129 163 220 273 320 396
#     4  11  26  43  63  96 138 167 223 279 337 400
#
# _framework density 22.092939999999999
#
# number of rings (size 3 to 8) (size 9 to 14) (size 15 to 20)
#    0.000    1.667    0.000    6.000    7.000    0.000 
#    6.000    0.000    0.000    0.000    0.000    0.000 
#    0.000    0.000    0.000    0.000    0.000    0.000 
#
# Total GULP energy -134102.152914 kJ/mol
# GULP energy per Si atom -5587.589705 kJ/mol
# Density = 2.204266 g / cm^3
# Si number density = 22.092940 Si / 1000 Ang^3
#
#
#
# Elastic Constant Matrix: (Units=GPa)
#
#
# Indices 1 2 3 4 5 6 
#
# 1 126.3696 38.3579 19.0395 0.0000 25.8414 0.0000
# 2 38.3579 79.5831 14.9717 0.0000 12.5558 0.0000
# 3 19.0395 14.9717 84.7919 0.0000 26.7976 0.0000
# 4 0.0000 0.0000 0.0000 16.3838 0.0000 7.6931
# 5 25.8414 12.5558 26.7976 0.0000 38.2073 0.0000
# 6 0.0000 0.0000 0.0000 7.6931 0.0000 36.3630
#
#
#
# Elastic Compliance Matrix: (Units=1/GPa)
#
#
# Indices 1 2 3 4 5 6 
#
# 1 0.010306 -0.004099 0.000240 0.000000 -0.005792 0.000000
# 2 -0.004099 0.014985 -0.001343 0.000000 -0.001210 0.000000
# 3 0.000240 -0.001343 0.015274 0.000000 -0.010434 0.000000
# 4 0.000000 0.000000 0.000000 0.067768 0.000000 -0.014337
# 5 -0.005792 -0.001210 -0.010434 0.000000 0.037806 0.000000
# 6 0.000000 0.000000 0.000000 -0.014337 0.000000 0.030534
#
#
# Mechanical properties :
#
#
# Convention : Reuss Voigt Hill
#
# Bulk Modulus (GPa) = 33.15511 48.38700 40.77106
# Shear Modulus (GPa) = 25.36413 32.74920 29.05666
#
# Velocity S-wave (km/s) = 3.39199 3.85429 3.63050
# Velocity P-wave (km/s) = 5.51185 6.46193 6.00570
#
# Compressibility (1/GPa) = 0.03016126
#
# Stress axis : x y z
#
# Youngs Moduli (GPa) = 97.03537 66.73554 65.46912
#
# Poissons Ratio (x) = 0.27352 -0.01571
# Poissons Ratio (y) = 0.39770 0.08793
# Poissons Ratio (z) = -0.02329 0.08963
#
# Static dielectric constant tensor:
#      x y z
#    x 1.825210 0.000000 0.016280 
#    y 0.000000 1.837890 0.000000 
#    z 0.016280 0.000000 1.822500 
# 
# From -- ./inp_files/151829.got.cif
#   From: 2010.05.17/outbox.cif.g08.bks.cpg/sg15_76_cif.got.tgz:151829.got - 2010.06.03 18:47:42.
