data_PCOD9276388
_publ_section_title
;
Structure prediction by ZEFSAII (Michael W. Deem and Ramdas Pophale) SiO2 
 PCOD9276388
Probable space group: C 2/C
;
_chemical_formula_sum "Si O2"
_cell_formula_units_Z 40
_cell_length_a 9.030354
_cell_length_b 29.643516
_cell_length_c 6.758153
_cell_angle_alpha 90.000000
_cell_angle_beta 66.759358
_cell_angle_gamma 90.000000
_cell_volume 1662.301546
_symmetry_space_group_name_H-M "C 2/C"
_symmetry_group_IT_number 15
_symmetry_cell_setting 'monoclinic'
loop_
_space_group_symop_operation_xyz
x,y,z
-x,y,1/2-z
-x,-y,-z
x,-y,1/2+z
1/2+x,1/2+y,z
1/2-x,1/2+y,1/2-z
1/2-x,1/2-y,-z
1/2+x,1/2-y,1/2+z
loop_
_atom_site_type_symbol
_atom_site_label
_atom_site_fract_x
_atom_site_fract_y
_atom_site_fract_z
Si Si1 0.751638 0.065305 0.559868
Si Si2 0.323845 0.963624 0.949047
Si Si3 0.500000 0.127301 0.750000
Si Si4 0.922605 0.891480 0.509157
Si Si5 0.728136 0.184567 0.910415
Si Si6 0.000000 0.753983 0.250000
O O1 0.610535 0.096594 0.551826
O O2 0.913279 0.095096 0.461840
O O3 0.748724 0.013893 0.490801
O O4 0.693454 0.057198 0.821129
O O5 0.500000 0.966538 0.750000
O O6 0.202760 0.931846 0.891599
O O7 0.625065 0.155136 0.814858
O O8 0.815360 0.845565 0.537579
O O9 0.000000 0.894628 0.250000
O O10 0.869635 0.211970 0.724862
O O11 0.604281 0.221278 0.059451
#
# Coordination Sequence:
#
# PCOD9276388 Si02
#       6
#     8   8   4   8   8   4
#     4  11  23  39  61  89 133 174 211 254 305 350
#     4  11  22  37  62  92 125 172 218 258 295 361
#     4  12  22  38  67  92 128 166 199 264 304 368
#     4  10  20  40  61  87 125 171 201 255 302 371
#     4  11  22  43  69  93 125 157 207 251 329 370
#     4  10  24  44  71  94 118 160 199 264 316 402
#
# _framework density 24.063023000000001
#
# number of rings (size 3 to 8) (size 9 to 14) (size 15 to 20)
#    0.000    1.200    6.000    1.200    1.400    0.800 
#    0.000    0.000    0.000    2.400    0.000    0.000 
#    0.000    0.000    0.000    0.000    0.000    0.000 
#
# Total GULP energy -111555.371758 kJ/mol
# GULP energy per Si atom -5577.768588 kJ/mol
# Density = 2.400825 g / cm^3
# Si number density = 24.063023 Si / 1000 Ang^3
#
#
#
# Elastic Constant Matrix: (Units=GPa)
#
#
# Indices 1 2 3 4 5 6 
#
# 1 149.1003 88.0205 27.2016 0.0000 -42.5805 0.0000
# 2 88.0205 173.9731 26.6045 0.0000 -28.1483 0.0000
# 3 27.2016 26.6045 87.8009 0.0000 -22.5948 0.0000
# 4 0.0000 0.0000 0.0000 36.4825 0.0000 -18.4706
# 5 -42.5805 -28.1483 -22.5948 0.0000 27.4525 0.0000
# 6 0.0000 0.0000 0.0000 -18.4706 0.0000 53.5645
#
#
#
# Elastic Compliance Matrix: (Units=1/GPa)
#
#
# Indices 1 2 3 4 5 6 
#
# 1 0.014631 -0.004517 0.001883 0.000000 0.019611 0.000000
# 2 -0.004517 0.008294 -0.000924 0.000000 0.000737 0.000000
# 3 0.001883 -0.000924 0.014709 0.000000 0.014079 0.000000
# 4 0.000000 0.000000 0.000000 0.033208 0.000000 0.011451
# 5 0.019611 0.000737 0.014079 0.000000 0.079188 0.000000
# 6 0.000000 0.000000 0.000000 0.011451 0.000000 0.022618
#
#
# Mechanical properties :
#
#
# Convention : Reuss Voigt Hill
#
# Bulk Modulus (GPa) = 32.76846 77.16973 54.96909
# Shear Modulus (GPa) = 26.32449 41.43641 33.88045
#
# Velocity S-wave (km/s) = 3.31113 4.15419 3.75639
# Velocity P-wave (km/s) = 5.31652 7.42625 6.45812
#
# Compressibility (1/GPa) = 0.03051715
#
# Stress axis : x y z
#
# Youngs Moduli (GPa) = 68.34961 120.56810 67.98426
#
# Poissons Ratio (x) = 0.54463 -0.12800
# Poissons Ratio (y) = 0.30875 0.06281
# Poissons Ratio (z) = -0.12868 0.11140
#
# Static dielectric constant tensor:
#      x y z
#    x 2.029000 0.000000 0.062030 
#    y 0.000000 1.947400 0.000000 
#    z 0.062030 0.000000 2.023860 
# 
# From -- ./inp_files/25421.got.cif
#   From: 2010.05.17/outbox.cif.g08.bks.cpg/sg15_13_cif.got.tgz:25421.got - 2010.06.03 18:47:42.
