data_PCOD9276607
_publ_section_title
;
Structure prediction by ZEFSAII (Michael W. Deem and Ramdas Pophale) SiO2 
 PCOD9276607
Probable space group: C 2/C
;
_chemical_formula_sum "Si O2"
_cell_formula_units_Z 56
_cell_length_a 16.676454
_cell_length_b 30.017376
_cell_length_c 9.103995
_cell_angle_alpha 90.000000
_cell_angle_beta 142.302371
_cell_angle_gamma 90.000000
_cell_volume 2786.768270
_symmetry_space_group_name_H-M "C 2/C"
_symmetry_group_IT_number 15
_symmetry_cell_setting 'monoclinic'
loop_
_space_group_symop_operation_xyz
x,y,z
-x,y,1/2-z
-x,-y,-z
x,-y,1/2+z
1/2+x,1/2+y,z
1/2-x,1/2+y,1/2-z
1/2-x,1/2-y,-z
1/2+x,1/2-y,1/2+z
loop_
_atom_site_type_symbol
_atom_site_label
_atom_site_fract_x
_atom_site_fract_y
_atom_site_fract_z
Si Si1 0.725860 0.599360 0.409061
Si Si2 0.110075 0.635617 0.122024
Si Si3 0.322630 0.855196 0.293395
Si Si4 0.695710 0.927766 0.994300
Si Si5 0.491273 0.548395 0.912757
Si Si6 0.848930 0.713014 0.080061
Si Si7 0.910690 0.520736 0.740610
O O1 0.810783 0.626574 0.411570
O O2 0.704544 0.632469 0.514539
O O3 0.796783 0.556983 0.594431
O O4 0.604374 0.578774 0.145894
O O5 0.144999 0.591651 0.267318
O O6 0.150302 0.676128 0.288553
O O7 0.954772 0.644529 0.886647
O O8 0.354876 0.894690 0.455351
O O9 0.300598 0.812202 0.362185
O O10 0.851318 0.928911 0.234984
O O11 0.649018 0.978367 0.930941
O O12 0.500000 0.542939 0.750000
O O13 0.500000 0.500000 0.000000
O O14 0.000000 0.725943 0.250000
O O15 0.750000 0.750000 0.000000
O O16 0.000000 0.544976 0.750000
O O17 0.000000 0.500000 0.000000
#
# Coordination Sequence:
#
# PCOD9276607 Si02
#       7
#     8   8   8   8   8   8   8
#     4  12  23  39  60  89 128 170 218 263 321 371
#     4  10  20  40  63  94 125 159 207 266 317 376
#     4  10  22  38  65  94 124 160 206 266 319 371
#     4  11  21  39  56  81 122 166 225 254 318 365
#     4  12  27  42  56  78 126 182 226 271 322 374
#     4   9  20  43  72 101 131 164 203 251 328 406
#     4  12  23  32  54  85 117 158 212 267 303 354
#
# _framework density 20.094961999999999
#
# number of rings (size 3 to 8) (size 9 to 14) (size 15 to 20)
#    0.000    1.143    2.857    6.000    2.000    0.000 
#    5.143    0.714    0.000    0.000    0.000    0.000 
#    0.000    0.000    0.000    0.000    0.000    0.000 
#
# Total GULP energy -156111.234167 kJ/mol
# GULP energy per Si atom -5575.401220 kJ/mol
# Density = 2.004922 g / cm^3
# Si number density = 20.094962 Si / 1000 Ang^3
#
#
#
# Elastic Constant Matrix: (Units=GPa)
#
#
# Indices 1 2 3 4 5 6 
#
# 1 90.2381 45.1907 57.8251 0.0000 -2.6908 0.0000
# 2 45.1907 91.2830 34.0325 0.0000 6.3940 0.0000
# 3 57.8251 34.0325 132.3080 0.0000 -11.4990 0.0000
# 4 0.0000 0.0000 0.0000 6.2898 0.0000 15.9304
# 5 -2.6908 6.3940 -11.4990 0.0000 29.9108 0.0000
# 6 0.0000 0.0000 0.0000 15.9304 0.0000 23.2527
#
#
#
# Elastic Compliance Matrix: (Units=1/GPa)
#
#
# Indices 1 2 3 4 5 6 
#
# 1 0.018592 -0.006913 -0.006284 0.000000 0.000735 0.000000
# 2 -0.006913 0.015148 -0.001252 0.000000 -0.004342 0.000000
# 3 -0.006284 -0.001252 0.010967 0.000000 0.003919 0.000000
# 4 0.000000 0.000000 0.000000 -0.216258 0.000000 0.148158
# 5 0.000735 -0.004342 0.003919 0.000000 0.035933 0.000000
# 6 0.000000 0.000000 0.000000 0.148158 0.000000 -0.058497
#
#
# Mechanical properties :
#
#
# Convention : Reuss Voigt Hill
#
# Bulk Modulus (GPa) = 63.25373 65.32507 64.28940
# Shear Modulus (GPa) = -31.26059 23.67603 -3.79228
#
# Velocity S-wave (km/s) = -3.94844 3.43623 -1.37524
# Velocity P-wave (km/s) = 3.28006 6.95142 5.43512
#
# Compressibility (1/GPa) = 0.01580934
#
# Stress axis : x y z
#
# Youngs Moduli (GPa) = 53.78535 66.01342 91.18129
#
# Poissons Ratio (x) = 0.45636 0.57296
# Poissons Ratio (y) = 0.37183 0.11420
# Poissons Ratio (z) = 0.33797 0.08268
#
# Static dielectric constant tensor:
#      x y z
#    x 1.904490 0.000000 0.043310 
#    y 0.000000 1.703980 0.000000 
#    z 0.043310 0.000000 1.752080 
# 
# From -- ./inp_files/34179.got.cif
#   From: 2010.05.17/outbox.cif.g08.bks.cpg/sg15_18_cif.got.tgz:34179.got - 2010.06.03 18:47:42.
