data_PCOD9276720
_publ_section_title
;
Structure prediction by ZEFSAII (Michael W. Deem and Ramdas Pophale) SiO2 
 PCOD9276720
Probable space group: C 2/C
;
_chemical_formula_sum "Si O2"
_cell_formula_units_Z 60
_cell_length_a 24.583525
_cell_length_b 8.341699
_cell_length_c 20.803430
_cell_angle_alpha 90.000000
_cell_angle_beta 40.044729
_cell_angle_gamma 90.000000
_cell_volume 2744.762966
_symmetry_space_group_name_H-M "C 2/C"
_symmetry_group_IT_number 15
_symmetry_cell_setting 'monoclinic'
loop_
_space_group_symop_operation_xyz
x,y,z
-x,y,1/2-z
-x,-y,-z
x,-y,1/2+z
1/2+x,1/2+y,z
1/2-x,1/2+y,1/2-z
1/2-x,1/2-y,-z
1/2+x,1/2-y,1/2+z
loop_
_atom_site_type_symbol
_atom_site_label
_atom_site_fract_x
_atom_site_fract_y
_atom_site_fract_z
Si Si1 0.867177 0.618907 0.030477
Si Si2 0.304423 0.167180 0.826684
Si Si3 0.000000 0.075759 0.250000
Si Si4 0.021057 0.169981 0.370267
Si Si5 0.343997 0.643879 0.859375
Si Si6 0.358988 0.425066 0.197906
Si Si7 0.297230 0.076071 0.218591
Si Si8 0.668135 0.021261 0.072764
O O1 0.783181 0.732705 0.097986
O O2 0.847046 0.507734 0.110800
O O3 0.875189 0.525396 0.955407
O O4 0.951704 0.721698 0.967623
O O5 0.386456 0.257332 0.725700
O O6 0.301550 0.012602 0.782712
O O7 0.323639 0.120234 0.882910
O O8 0.015626 0.162266 0.168824
O O9 0.919833 0.967293 0.310748
O O10 0.046509 0.999443 0.379951
O O11 0.329951 0.610906 0.797105
O O12 0.368100 0.824593 0.856913
O O13 0.261630 0.581062 0.969984
O O14 0.336013 0.254001 0.187295
O O15 0.300112 0.552553 0.213991
#
# Coordination Sequence:
#
# PCOD9276720 Si02
#       8
#     8   8   4   8   8   8   8   8
#     4  12  24  41  68  99 134 171 233 274 331 404
#     4  12  24  43  69  95 134 179 220 276 337 397
#     4  10  20  40  64  92 134 174 214 276 338 398
#     4  11  24  42  66  97 135 179 221 279 338 390
#     4  10  21  38  66  96 133 169 220 279 338 397
#     4  11  21  45  66  97 132 179 224 273 336 401
#     4  12  23  43  71  94 133 184 222 271 337 398
#     4  11  22  39  65 101 128 173 221 280 334 402
#
# _framework density 21.859812000000002
#
# number of rings (size 3 to 8) (size 9 to 14) (size 15 to 20)
#    0.000    0.800    5.333    2.800    0.000    2.133 
#    0.000    0.000    0.000    0.000    0.000    0.000 
#    0.000    0.000    0.000    0.000    0.000    0.000 
#
# Total GULP energy -167330.173910 kJ/mol
# GULP energy per Si atom -5577.672464 kJ/mol
# Density = 2.181006 g / cm^3
# Si number density = 21.859812 Si / 1000 Ang^3
#
#
#
# Elastic Constant Matrix: (Units=GPa)
#
#
# Indices 1 2 3 4 5 6 
#
# 1 85.9120 14.2739 14.8859 0.0003 19.4685 -0.0002
# 2 14.2739 53.8384 8.3819 0.0007 -6.1159 0.0002
# 3 14.8859 8.3819 54.0383 -0.0005 2.0663 0.0000
# 4 0.0003 0.0007 -0.0005 28.3767 0.0006 9.7029
# 5 19.4685 -6.1159 2.0663 0.0006 22.7533 -0.0004
# 6 -0.0002 0.0002 0.0000 9.7029 -0.0004 38.2361
#
#
#
# Elastic Compliance Matrix: (Units=1/GPa)
#
#
# Indices 1 2 3 4 5 6 
#
# 1 0.016629 -0.005683 -0.003108 0.000000 -0.015473 0.000000
# 2 -0.005683 0.021661 -0.002211 -0.000001 0.010885 0.000000
# 3 -0.003108 -0.002211 0.019694 0.000001 0.000276 0.000000
# 4 0.000000 -0.000001 0.000001 0.038589 -0.000002 -0.009792
# 5 -0.015473 0.010885 0.000276 -0.000002 0.060090 0.000001
# 6 0.000000 0.000000 0.000000 -0.009792 0.000001 0.028638
#
#
# Mechanical properties :
#
#
# Convention : Reuss Voigt Hill
#
# Bulk Modulus (GPa) = 27.79162 29.87466 28.83314
# Shear Modulus (GPa) = 22.80016 28.28969 25.54492
#
# Velocity S-wave (km/s) = 3.23308 3.60132 3.42216
# Velocity P-wave (km/s) = 5.16510 5.56676 5.36969
#
# Compressibility (1/GPa) = 0.03598207
#
# Stress axis : x y z
#
# Youngs Moduli (GPa) = 60.13650 46.16500 50.77738
#
# Poissons Ratio (x) = 0.26234 0.15780
# Poissons Ratio (y) = 0.34173 0.11226
# Poissons Ratio (z) = 0.18688 0.10206
#
# Static dielectric constant tensor:
#      x y z
#    x 1.890760 0.000000 0.061830 
#    y 0.000000 1.911770 0.000000 
#    z 0.061830 0.000000 1.826040 
# 
# From -- ./inp_files/255170.got.cif
#   From: 2010.05.17/outbox.cif.g08.bks.cpg/sg15_128_cif.got.tgz:255170.got - 2010.06.03 18:47:42.
