data_PCOD9276305
_publ_section_title
;
Structure prediction by ZEFSAII (Michael W. Deem and Ramdas Pophale) SiO2 
 PCOD9276305
Probable space group: C 2/C
;
_chemical_formula_sum "Si O2"
_cell_formula_units_Z 60
_cell_length_a 12.424329
_cell_length_b 8.810778
_cell_length_c 24.553652
_cell_angle_alpha 90.000000
_cell_angle_beta 109.243453
_cell_angle_gamma 90.000000
_cell_volume 2537.660804
_symmetry_space_group_name_H-M "C 2/C"
_symmetry_group_IT_number 15
_symmetry_cell_setting 'monoclinic'
loop_
_space_group_symop_operation_xyz
x,y,z
-x,y,1/2-z
-x,-y,-z
x,-y,1/2+z
1/2+x,1/2+y,z
1/2-x,1/2+y,1/2-z
1/2-x,1/2-y,-z
1/2+x,1/2-y,1/2+z
loop_
_atom_site_type_symbol
_atom_site_label
_atom_site_fract_x
_atom_site_fract_y
_atom_site_fract_z
Si Si1 0.659527 0.105110 0.561202
Si Si2 0.000000 0.510071 0.250000
Si Si3 0.551665 0.680520 0.647995
Si Si4 0.885789 0.880103 0.876748
Si Si5 0.073777 0.547372 0.430394
Si Si6 0.701725 0.771031 0.767262
Si Si7 0.429469 0.198090 0.648487
Si Si8 0.353662 0.498559 0.669924
O O1 0.665459 0.278442 0.583751
O O2 0.648440 0.087919 0.495059
O O3 0.544366 0.030890 0.567654
O O4 0.767799 0.022083 0.605166
O O5 0.893728 0.618992 0.222220
O O6 0.012886 0.403332 0.199763
O O7 0.601758 0.558639 0.614161
O O8 0.469793 0.803253 0.607495
O O9 0.653802 0.757896 0.698371
O O10 0.473864 0.580708 0.676291
O O11 0.815677 0.845477 0.809502
O O12 0.008351 0.807654 0.883968
O O13 0.131777 0.428620 0.398437
O O14 0.698357 0.599832 0.790491
O O15 0.370828 0.318948 0.678748
#
# Coordination Sequence:
#
# PCOD9276305 Si02
#       8
#     8   4   8   8   8   8   8   8
#     4   9  21  40  60  81 113 154 193 247 282 350
#     4  12  22  34  54  82 118 146 184 232 290 346
#     4  11  21  36  57  83 114 153 188 245 289 348
#     4   9  23  37  56  83 113 151 200 228 296 347
#     4  10  20  40  60  82 116 150 196 239 294 338
#     4  11  21  37  54  82 118 154 186 242 288 354
#     4  10  22  37  56  87 114 153 191 236 287 361
#     4  10  21  38  57  84 117 150 194 235 298 340
#
# _framework density 23.643822
#
# number of rings (size 3 to 8) (size 9 to 14) (size 15 to 20)
#    0.000    1.867    2.667    0.000    5.600    3.733 
#    0.000    0.000    0.000    0.000    0.000    0.000 
#    0.000    0.000    0.000    0.000    0.000    0.000 
#
# Total GULP energy -167614.972442 kJ/mol
# GULP energy per Si atom -5587.165748 kJ/mol
# Density = 2.359001 g / cm^3
# Si number density = 23.643822 Si / 1000 Ang^3
#
#
#
# Elastic Constant Matrix: (Units=GPa)
#
#
# Indices 1 2 3 4 5 6 
#
# 1 53.5318 4.7858 -9.2364 0.0000 11.2005 0.0000
# 2 4.7858 138.0539 26.6460 0.0000 3.6355 0.0000
# 3 -9.2364 26.6460 93.8212 0.0000 18.9071 0.0000
# 4 0.0000 0.0000 0.0000 21.3292 0.0000 -4.9211
# 5 11.2005 3.6355 18.9071 0.0000 28.6545 0.0000
# 6 0.0000 0.0000 0.0000 -4.9211 0.0000 17.5262
#
#
#
# Elastic Compliance Matrix: (Units=1/GPa)
#
#
# Indices 1 2 3 4 5 6 
#
# 1 0.022112 -0.001411 0.004940 0.000000 -0.011724 0.000000
# 2 -0.001411 0.007761 -0.002602 0.000000 0.001284 0.000000
# 3 0.004940 -0.002602 0.014079 0.000000 -0.010890 0.000000
# 4 0.000000 0.000000 0.000000 0.050132 0.000000 0.014076
# 5 -0.011724 0.001284 -0.010890 0.000000 0.046504 0.000000
# 6 0.000000 0.000000 0.000000 0.014076 0.000000 0.061010
#
#
# Mechanical properties :
#
#
# Convention : Reuss Voigt Hill
#
# Bulk Modulus (GPa) = 21.83132 36.64419 29.23776
# Shear Modulus (GPa) = 23.25459 31.04942 27.15200
#
# Velocity S-wave (km/s) = 3.13954 3.62776 3.39245
# Velocity P-wave (km/s) = 4.73242 5.75149 5.26666
#
# Compressibility (1/GPa) = 0.04580574
#
# Stress axis : x y z
#
# Youngs Moduli (GPa) = 45.22420 128.85196 71.03028
#
# Poissons Ratio (x) = 0.18185 -0.35091
# Poissons Ratio (y) = 0.06383 0.18481
# Poissons Ratio (z) = -0.22342 0.33525
#
# Static dielectric constant tensor:
#      x y z
#    x 1.947130 0.000000 -0.069580 
#    y 0.000000 1.912850 0.000000 
#    z -0.069580 0.000000 1.872680 
# 
# From -- ./inp_files/273202.got.cif
#   From: 2010.05.17/outbox.cif.g08.bks.cpg/sg15_137_cif.got.tgz:273202.got - 2010.06.03 18:47:42.
