data_PCOD9276135
_publ_section_title
;
Structure prediction by ZEFSAII (Michael W. Deem and Ramdas Pophale) SiO2 
 PCOD9276135
Probable space group: C 2/C
;
_chemical_formula_sum "Si O2"
_cell_formula_units_Z 24
_cell_length_a 11.445537
_cell_length_b 8.552169
_cell_length_c 15.799286
_cell_angle_alpha 90.000000
_cell_angle_beta 143.274943
_cell_angle_gamma 90.000000
_cell_volume 924.769431
_symmetry_space_group_name_H-M "C 2/C"
_symmetry_group_IT_number 15
_symmetry_cell_setting 'monoclinic'
loop_
_space_group_symop_operation_xyz
x,y,z
-x,y,1/2-z
-x,-y,-z
x,-y,1/2+z
1/2+x,1/2+y,z
1/2-x,1/2+y,1/2-z
1/2-x,1/2-y,-z
1/2+x,1/2-y,1/2+z
loop_
_atom_site_type_symbol
_atom_site_label
_atom_site_fract_x
_atom_site_fract_y
_atom_site_fract_z
Si Si1 0.358859 0.452705 0.100952
Si Si2 0.555917 0.843662 0.631259
Si Si3 0.220021 0.599818 0.848347
O O1 0.500000 0.530908 0.250000
O O2 0.462320 0.287503 0.139213
O O3 0.331610 0.539875 0.996307
O O4 0.142561 0.428858 0.013877
O O5 0.670462 0.745075 0.628694
O O6 0.692323 0.961561 0.762897
O O7 0.000000 0.631167 0.750000
#
# Coordination Sequence:
#
# PCOD9276135 Si02
#       3
#     8   8   8
#     4  10  20  39  68  98 133 178 219 272 343 403
#     4  10  20  40  69  97 131 175 225 277 332 399
#     4  10  22  42  68  99 131 173 226 277 334 399
#
# _framework density 25.952414999999998
#
# number of rings (size 3 to 8) (size 9 to 14) (size 15 to 20)
#    0.000    2.000    0.000    6.000    0.000    0.000 
#    0.000   28.333    0.000   28.000    0.000    2.333 
#    0.000    0.000    0.000    0.000    0.000    0.000 
#
# Total GULP energy -67372.258043 kJ/mol
# GULP energy per Si atom -5614.354837 kJ/mol
# Density = 2.589335 g / cm^3
# Si number density = 25.952415 Si / 1000 Ang^3
#
#
#
# Elastic Constant Matrix: (Units=GPa)
#
#
# Indices 1 2 3 4 5 6 
#
# 1 170.3611 88.0518 105.5713 0.0000 20.8961 0.0000
# 2 88.0518 161.3009 98.0649 0.0000 -9.3888 0.0000
# 3 105.5713 98.0649 267.9771 0.0000 -16.9967 0.0000
# 4 0.0000 0.0000 0.0000 -10.7128 0.0000 18.0515
# 5 20.8961 -9.3888 -16.9967 0.0000 26.9926 0.0000
# 6 0.0000 0.0000 0.0000 18.0515 0.0000 37.3877
#
#
#
# Elastic Compliance Matrix: (Units=1/GPa)
#
#
# Indices 1 2 3 4 5 6 
#
# 1 0.012970 -0.005477 -0.004024 0.000000 -0.014479 0.000000
# 2 -0.005477 0.010311 -0.001166 0.000000 0.007092 0.000000
# 3 -0.004024 -0.001166 0.006161 0.000000 0.006589 0.000000
# 4 0.000000 0.000000 0.000000 -0.051471 0.000000 0.024851
# 5 -0.014479 0.007092 0.006589 0.000000 0.054872 0.000000
# 6 0.000000 0.000000 0.000000 0.024851 0.000000 0.014748
#
#
# Mechanical properties :
#
#
# Convention : Reuss Voigt Hill
#
# Bulk Modulus (GPa) = 123.30917 131.44611 127.37764
# Shear Modulus (GPa) = 69.80583 31.26357 50.53470
#
# Velocity S-wave (km/s) = 5.19192 3.47457 4.41750
# Velocity P-wave (km/s) = 9.14101 8.17653 8.67219
#
# Compressibility (1/GPa) = 0.00810970
#
# Stress axis : x y z
#
# Youngs Moduli (GPa) = 77.10097 96.98621 162.29951
#
# Poissons Ratio (x) = 0.53115 0.65307
# Poissons Ratio (y) = 0.42225 0.18921
# Poissons Ratio (z) = 0.31024 0.11307
#
# Static dielectric constant tensor:
#      x y z
#    x 2.011780 0.000000 0.004950 
#    y 0.000000 2.046990 0.000000 
#    z 0.004950 0.000000 2.025430 
# 
# From -- ./inp_files/141498.got.cif
#   From: 2010.05.17/outbox.cif.g08.bks.cpg/sg15_71_cif.got.tgz:141498.got - 2010.06.03 18:47:42.
