data_PCOD9276189
_publ_section_title
;
Structure prediction by ZEFSAII (Michael W. Deem and Ramdas Pophale) SiO2 
 PCOD9276189
Probable space group: C 2/C
;
_chemical_formula_sum "Si O2"
_cell_formula_units_Z 48
_cell_length_a 9.570210
_cell_length_b 13.157344
_cell_length_c 16.375341
_cell_angle_alpha 90.000000
_cell_angle_beta 74.562724
_cell_angle_gamma 90.000000
_cell_volume 1987.568645
_symmetry_space_group_name_H-M "C 2/C"
_symmetry_group_IT_number 15
_symmetry_cell_setting 'monoclinic'
loop_
_space_group_symop_operation_xyz
x,y,z
-x,y,1/2-z
-x,-y,-z
x,-y,1/2+z
1/2+x,1/2+y,z
1/2-x,1/2+y,1/2-z
1/2-x,1/2-y,-z
1/2+x,1/2-y,1/2+z
loop_
_atom_site_type_symbol
_atom_site_label
_atom_site_fract_x
_atom_site_fract_y
_atom_site_fract_z
Si Si1 0.869101 0.726826 0.549245
Si Si2 0.000000 0.131298 0.250000
Si Si3 0.641982 0.957798 0.179733
Si Si4 0.746027 0.285939 0.249930
Si Si5 0.835977 0.357805 0.498634
Si Si6 0.961359 0.930734 0.928043
Si Si7 0.000000 0.346640 0.750000
O O1 0.750000 0.750000 0.500000
O O2 0.791014 0.699527 0.647617
O O3 0.999101 0.653718 0.496559
O O4 0.963419 0.825590 0.556918
O O5 0.864315 0.210051 0.272590
O O6 0.016672 0.061814 0.327065
O O7 0.500000 0.920027 0.250000
O O8 0.763744 0.896008 0.207916
O O9 0.642841 0.912957 0.090762
O O10 0.617143 0.078325 0.188915
O O11 0.596450 0.227313 0.288369
O O12 0.750000 0.250000 0.500000
O O13 0.712254 0.425851 0.558972
O O14 0.000000 0.000000 0.000000
#
# Coordination Sequence:
#
# PCOD9276189 Si02
#       7
#     8   4   8   8   8   8   4
#     4  10  21  39  63  94 135 172 229 290 360 426
#     4  10  21  42  69  90 134 190 231 276 381 424
#     4  10  20  42  66  94 137 180 236 294 353 440
#     4  11  20  43  69  95 141 192 229 299 364 429
#     4  10  20  39  70  92 127 184 230 279 377 429
#     4  10  23  41  65  97 132 181 232 295 349 438
#     4  10  25  36  69 106 132 182 249 288 361 446
#
# _framework density 24.150110000000002
#
# number of rings (size 3 to 8) (size 9 to 14) (size 15 to 20)
#    0.500    1.333    2.500    2.000    4.667    4.000 
#    6.000    1.667    0.000    0.000    0.000    0.000 
#    0.000    0.000    0.000    0.000    0.000    0.000 
#
# Total GULP energy -133812.570756 kJ/mol
# GULP energy per Si atom -5575.523781 kJ/mol
# Density = 2.409514 g / cm^3
# Si number density = 24.150110 Si / 1000 Ang^3
#
#
#
# Elastic Constant Matrix: (Units=GPa)
#
#
# Indices 1 2 3 4 5 6 
#
# 1 150.4459 57.6501 39.7790 0.0000 17.5414 0.0000
# 2 57.6501 65.4989 26.9132 0.0000 -2.5101 0.0000
# 3 39.7790 26.9132 88.6311 0.0000 12.4110 0.0000
# 4 0.0000 0.0000 0.0000 34.6454 0.0000 21.2080
# 5 17.5414 -2.5101 12.4110 0.0000 28.8844 0.0000
# 6 0.0000 0.0000 0.0000 21.2080 0.0000 40.5533
#
#
#
# Elastic Compliance Matrix: (Units=1/GPa)
#
#
# Indices 1 2 3 4 5 6 
#
# 1 0.011697 -0.010120 -0.001127 0.000000 -0.007499 0.000000
# 2 -0.010120 0.026652 -0.005039 0.000000 0.010627 0.000000
# 3 -0.001127 -0.005039 0.014135 0.000000 -0.005827 0.000000
# 4 0.000000 0.000000 0.000000 0.042455 0.000000 -0.022203
# 5 -0.007499 0.010627 -0.005827 0.000000 0.042602 0.000000
# 6 0.000000 0.000000 0.000000 -0.022203 0.000000 0.036270
#
#
# Mechanical properties :
#
#
# Convention : Reuss Voigt Hill
#
# Bulk Modulus (GPa) = 50.22037 61.47339 55.84688
# Shear Modulus (GPa) = 23.47195 32.83219 28.15207
#
# Velocity S-wave (km/s) = 3.12094 3.69115 3.41796
# Velocity P-wave (km/s) = 5.81612 6.60879 6.22508
#
# Compressibility (1/GPa) = 0.01991224
#
# Stress axis : x y z
#
# Youngs Moduli (GPa) = 85.49200 37.52015 70.74826
#
# Poissons Ratio (x) = 0.37969 0.07972
# Poissons Ratio (y) = 0.86515 0.35652
# Poissons Ratio (z) = 0.09634 0.18908
#
# Static dielectric constant tensor:
#      x y z
#    x 2.868940 0.000000 -0.042230 
#    y 0.000000 1.977000 0.000000 
#    z -0.042230 0.000000 1.856470 
# 
# From -- ./inp_files/189291.got.cif
#   From: 2010.05.17/outbox.cif.g08.bks.cpg/sg15_95_cif.got.tgz:189291.got - 2010.06.03 18:47:42.
