data_PCOD9276661
_publ_section_title
;
Structure prediction by ZEFSAII (Michael W. Deem and Ramdas Pophale) SiO2 
 PCOD9276661
Probable space group: C 2/C
;
_chemical_formula_sum "Si O2"
_cell_formula_units_Z 44
_cell_length_a 21.169907
_cell_length_b 8.373097
_cell_length_c 14.369915
_cell_angle_alpha 90.000000
_cell_angle_beta 125.101082
_cell_angle_gamma 90.000000
_cell_volume 2083.945190
_symmetry_space_group_name_H-M "C 2/C"
_symmetry_group_IT_number 15
_symmetry_cell_setting 'monoclinic'
loop_
_space_group_symop_operation_xyz
x,y,z
-x,y,1/2-z
-x,-y,-z
x,-y,1/2+z
1/2+x,1/2+y,z
1/2-x,1/2+y,1/2-z
1/2-x,1/2-y,-z
1/2+x,1/2-y,1/2+z
loop_
_atom_site_type_symbol
_atom_site_label
_atom_site_fract_x
_atom_site_fract_y
_atom_site_fract_z
Si Si1 0.841873 0.398521 0.047914
Si Si2 0.163462 0.280758 0.267858
Si Si3 0.831329 0.738556 0.124942
Si Si4 0.764895 0.967279 0.210956
Si Si5 0.000000 0.262776 0.750000
Si Si6 0.996367 0.451954 0.390689
O O1 0.819518 0.267708 0.106807
O O2 0.847721 0.553209 0.120463
O O3 0.926391 0.365727 0.079181
O O4 0.792495 0.457920 0.916973
O O5 0.219073 0.406392 0.261760
O O6 0.076601 0.340064 0.185724
O O7 0.176679 0.113339 0.226549
O O8 0.808791 0.815198 0.204146
O O9 0.914750 0.818506 0.168102
O O10 0.750000 0.750000 0.000000
O O11 0.008110 0.381198 0.668923
O O12 0.000000 0.500000 0.500000
#
# Coordination Sequence:
#
# PCOD9276661 Si02
#       6
#     8   8   8   8   4   8
#     4  10  20  41  64  88 117 164 214 256 306 381
#     4  12  22  38  60  90 124 162 207 260 315 369
#     4   9  19  38  63  91 119 161 208 250 312 372
#     4  11  24  37  62  92 125 162 206 258 315 377
#     4  10  20  40  64  88 122 164 206 258 308 370
#     4  11  20  36  65  87 115 161 214 249 301 379
#
# _framework density 21.113800000000001
#
# number of rings (size 3 to 8) (size 9 to 14) (size 15 to 20)
#    0.000    1.455    5.455    1.636    0.000    0.000 
#    3.273    0.000    0.000    2.182    0.000    0.000 
#    0.000    0.000    0.000    0.000    0.000    0.000 
#
# Total GULP energy -122471.482974 kJ/mol
# GULP energy per Si atom -5566.885590 kJ/mol
# Density = 2.106574 g / cm^3
# Si number density = 21.113800 Si / 1000 Ang^3
#
#
#
# Elastic Constant Matrix: (Units=GPa)
#
#
# Indices 1 2 3 4 5 6 
#
# 1 175.2719 25.3880 45.8900 0.0000 -1.6578 0.0000
# 2 25.3880 29.4934 -6.3740 0.0000 -3.6125 0.0000
# 3 45.8900 -6.3740 85.7191 0.0000 -7.6668 0.0000
# 4 0.0000 0.0000 0.0000 18.5492 0.0000 -0.2403
# 5 -1.6578 -3.6125 -7.6668 0.0000 47.0855 0.0000
# 6 0.0000 0.0000 0.0000 -0.2403 0.0000 32.0540
#
#
#
# Elastic Compliance Matrix: (Units=1/GPa)
#
#
# Indices 1 2 3 4 5 6 
#
# 1 0.008253 -0.008362 -0.005146 0.000000 -0.001189 0.000000
# 2 -0.008362 0.043386 0.008092 0.000000 0.004352 0.000000
# 3 -0.005146 0.008092 0.015285 0.000000 0.002928 0.000000
# 4 0.000000 0.000000 0.000000 0.053916 0.000000 0.000404
# 5 -0.001189 0.004352 0.002928 0.000000 0.022007 0.000000
# 6 0.000000 0.000000 0.000000 0.000404 0.000000 0.031200
#
#
# Mechanical properties :
#
#
# Convention : Reuss Voigt Hill
#
# Bulk Modulus (GPa) = 17.82831 46.69915 32.26373
# Shear Modulus (GPa) = 24.56091 34.57644 29.56868
#
# Velocity S-wave (km/s) = 3.41437 4.05115 3.74631
# Velocity P-wave (km/s) = 4.89960 6.63688 5.83328
#
# Compressibility (1/GPa) = 0.05609056
#
# Stress axis : x y z
#
# Youngs Moduli (GPa) = 121.17130 23.04915 65.42489
#
# Poissons Ratio (x) = 0.19273 0.33669
# Poissons Ratio (y) = 1.01321 -0.52941
# Poissons Ratio (z) = 0.62358 -0.18651
#
# Static dielectric constant tensor:
#      x y z
#    x 1.820280 0.000000 0.086900 
#    y 0.000000 1.824110 0.000000 
#    z 0.086900 0.000000 1.897790 
# 
# From -- ./inp_files/159438.got.cif
#   From: 2010.05.17/outbox.cif.g08.bks.cpg/sg15_80_cif.got.tgz:159438.got - 2010.06.03 18:47:42.
