data_PCOD9276100
_publ_section_title
;
Structure prediction by ZEFSAII (Michael W. Deem and Ramdas Pophale) SiO2 
 PCOD9276100
Probable space group: C 2/C
;
_chemical_formula_sum "Si O2"
_cell_formula_units_Z 64
_cell_length_a 12.198157
_cell_length_b 19.851536
_cell_length_c 27.361559
_cell_angle_alpha 90.000000
_cell_angle_beta 150.961607
_cell_angle_gamma 90.000000
_cell_volume 3216.066282
_symmetry_space_group_name_H-M "C 2/C"
_symmetry_group_IT_number 15
_symmetry_cell_setting 'monoclinic'
loop_
_space_group_symop_operation_xyz
x,y,z
-x,y,1/2-z
-x,-y,-z
x,-y,1/2+z
1/2+x,1/2+y,z
1/2-x,1/2+y,1/2-z
1/2-x,1/2-y,-z
1/2+x,1/2-y,1/2+z
loop_
_atom_site_type_symbol
_atom_site_label
_atom_site_fract_x
_atom_site_fract_y
_atom_site_fract_z
Si Si1 0.027605 0.234318 0.526982
Si Si2 0.752511 0.159975 0.794503
Si Si3 0.635991 0.553853 0.437953
Si Si4 0.307136 0.638734 0.136507
Si Si5 0.909680 0.819124 0.160542
Si Si6 0.888504 0.559000 0.988330
Si Si7 0.239916 0.379884 0.424370
Si Si8 0.241723 0.983448 0.152681
O O1 0.131613 0.206954 0.618902
O O2 0.189407 0.294045 0.571117
O O3 0.480756 0.159169 0.682486
O O4 0.776032 0.264430 0.429741
O O5 0.786100 0.082127 0.823279
O O6 0.946606 0.170902 0.998461
O O7 0.881408 0.176617 0.795087
O O8 0.610718 0.590920 0.375945
O O9 0.750492 0.481137 0.474876
O O10 0.797035 0.599011 0.534549
O O11 0.414113 0.539808 0.383693
O O12 0.500000 0.654514 0.250000
O O13 0.104258 0.602618 0.087401
O O14 0.000000 0.806567 0.250000
O O15 0.777097 0.890899 0.105263
O O16 0.000000 0.500000 0.000000
O O17 0.292194 0.447244 0.413229
O O18 0.500000 0.006749 0.250000
#
# Coordination Sequence:
#
# PCOD9276100 Si02
#       8
#     8   8   8   8   8   8   8   8
#     4  10  22  44  61  88 125 160 211 262 306 369
#     4  10  20  39  68  91 118 171 207 254 320 372
#     4  11  21  38  60  91 128 161 205 259 319 370
#     4  10  22  38  58  87 121 164 203 251 316 378
#     4  11  23  39  65  97 125 160 214 259 313 375
#     4   9  21  37  57  89 130 155 196 256 313 370
#     4  10  22  37  67  89 120 162 216 259 307 375
#     4   9  19  38  60  92 121 165 210 253 312 378
#
# _framework density 19.900086999999999
#
# number of rings (size 3 to 8) (size 9 to 14) (size 15 to 20)
#    0.000    2.000    1.250    2.625    5.250    4.500 
#    2.250    0.625    0.000    0.000    0.000    0.000 
#    0.000    0.000    0.000    0.000    0.000    0.000 
#
# Total GULP energy -178254.723931 kJ/mol
# GULP energy per Si atom -5570.460123 kJ/mol
# Density = 1.985479 g / cm^3
# Si number density = 19.900087 Si / 1000 Ang^3
#
#
#
# Elastic Constant Matrix: (Units=GPa)
#
#
# Indices 1 2 3 4 5 6 
#
# 1 101.5051 17.9948 48.4382 -0.0001 6.8731 -0.0002
# 2 17.9948 53.0191 17.5005 -0.0004 5.5911 -0.0001
# 3 48.4382 17.5005 63.7576 -0.0002 4.0410 0.0003
# 4 -0.0001 -0.0004 -0.0002 24.3348 0.0000 3.2723
# 5 6.8731 5.5911 4.0410 0.0000 27.8608 0.0000
# 6 -0.0002 -0.0001 0.0003 3.2723 0.0000 23.3819
#
#
#
# Elastic Compliance Matrix: (Units=1/GPa)
#
#
# Indices 1 2 3 4 5 6 
#
# 1 0.015666 -0.001347 -0.011410 0.000000 -0.001940 0.000000
# 2 -0.001347 0.021174 -0.004583 0.000000 -0.003252 0.000000
# 3 -0.011410 -0.004583 0.025609 0.000000 0.000020 0.000000
# 4 0.000000 0.000000 0.000000 0.041882 0.000000 -0.005861
# 5 -0.001940 -0.003252 0.000020 0.000000 0.037021 0.000000
# 6 0.000000 0.000000 0.000000 -0.005861 0.000000 0.043588
#
#
# Mechanical properties :
#
#
# Convention : Reuss Voigt Hill
#
# Bulk Modulus (GPa) = 36.00807 42.90543 39.45675
# Shear Modulus (GPa) = 21.84593 24.07206 22.95899
#
# Velocity S-wave (km/s) = 3.31687 3.48177 3.40032
# Velocity P-wave (km/s) = 5.72735 6.14580 5.94026
#
# Compressibility (1/GPa) = 0.02777155
#
# Stress axis : x y z
#
# Youngs Moduli (GPa) = 63.83060 47.22816 39.04845
#
# Poissons Ratio (x) = 0.06360 0.44553
# Poissons Ratio (y) = 0.08595 0.17895
# Poissons Ratio (z) = 0.72828 0.21643
#
# Static dielectric constant tensor:
#      x y z
#    x 1.721240 0.000000 0.000860 
#    y 0.000000 1.733900 0.000000 
#    z 0.000860 0.000000 1.740830 
# 
# From -- ./inp_files/293784.got.cif
#   From: 2010.05.17/outbox.cif.g08.bks.cpg/sg15_147_cif.got.tgz:293784.got - 2010.06.03 18:47:42.
