data_PCOD9276956
_publ_section_title
;
Structure prediction by ZEFSAII (Michael W. Deem and Ramdas Pophale) SiO2 
 PCOD9276956
Probable space group: C 2/C
;
_chemical_formula_sum "Si O2"
_cell_formula_units_Z 36
_cell_length_a 8.583515
_cell_length_b 14.688034
_cell_length_c 19.412846
_cell_angle_alpha 90.000000
_cell_angle_beta 137.196390
_cell_angle_gamma 90.000000
_cell_volume 1663.027924
_symmetry_space_group_name_H-M "C 2/C"
_symmetry_group_IT_number 15
_symmetry_cell_setting 'monoclinic'
loop_
_space_group_symop_operation_xyz
x,y,z
-x,y,1/2-z
-x,-y,-z
x,-y,1/2+z
1/2+x,1/2+y,z
1/2-x,1/2+y,1/2-z
1/2-x,1/2-y,-z
1/2+x,1/2-y,1/2+z
loop_
_atom_site_type_symbol
_atom_site_label
_atom_site_fract_x
_atom_site_fract_y
_atom_site_fract_z
Si Si1 0.362953 0.983109 0.102761
Si Si2 0.755067 0.658102 0.457187
Si Si3 0.296925 0.401674 0.307411
Si Si4 0.500000 0.729581 0.250000
Si Si5 0.295104 0.148464 0.988624
O O1 0.622007 0.943938 0.195292
O O2 0.244807 0.961833 0.137336
O O3 0.356196 0.085381 0.073977
O O4 0.234659 0.923756 0.003571
O O5 0.750000 0.750000 0.500000
O O6 0.566851 0.669355 0.336845
O O7 0.995690 0.647364 0.496141
O O8 0.202444 0.300479 0.296168
O O9 0.563400 0.390984 0.379210
O O10 0.250000 0.250000 0.000000
#
# Coordination Sequence:
#
# PCOD9276956 Si02
#       5
#     8   8   8   4   8
#     4  10  23  43  68  98 141 183 218 290 347 402
#     4  12  22  42  68  96 139 180 220 286 352 402
#     4  10  21  44  69  96 138 179 232 273 347 410
#     4  10  20  40  66  94 136 178 214 276 358 400
#     4  12  24  41  67 101 132 178 239 281 335 420
#
# _framework density 21.647259999999999
#
# number of rings (size 3 to 8) (size 9 to 14) (size 15 to 20)
#    0.000    1.333    6.667    1.333    0.000    2.667 
#    0.000    6.667    0.000    0.000    0.000    0.000 
#    0.000    0.000    0.000    0.000    0.000    0.000 
#
# Total GULP energy -100678.837909 kJ/mol
# GULP energy per Si atom -5593.268773 kJ/mol
# Density = 2.159799 g / cm^3
# Si number density = 21.647260 Si / 1000 Ang^3
#
#
#
# Elastic Constant Matrix: (Units=GPa)
#
#
# Indices 1 2 3 4 5 6 
#
# 1 70.2324 8.7662 20.7760 0.0000 11.8883 0.0000
# 2 8.7662 124.1382 54.2108 0.0000 -15.4895 0.0000
# 3 20.7760 54.2108 144.6015 0.0000 -12.8270 0.0000
# 4 0.0000 0.0000 0.0000 22.1334 0.0000 1.1954
# 5 11.8883 -15.4895 -12.8270 0.0000 35.0926 0.0000
# 6 0.0000 0.0000 0.0000 1.1954 0.0000 20.2878
#
#
#
# Elastic Compliance Matrix: (Units=1/GPa)
#
#
# Indices 1 2 3 4 5 6 
#
# 1 0.016283 -0.000859 -0.002626 0.000000 -0.006855 0.000000
# 2 -0.000859 0.010000 -0.003316 0.000000 0.003493 0.000000
# 3 -0.002626 -0.003316 0.008769 0.000000 0.002631 0.000000
# 4 0.000000 0.000000 0.000000 0.045325 0.000000 -0.002671
# 5 -0.006855 0.003493 0.002631 0.000000 0.033322 0.000000
# 6 0.000000 0.000000 0.000000 -0.002671 0.000000 0.049448
#
#
# Mechanical properties :
#
#
# Convention : Reuss Voigt Hill
#
# Bulk Modulus (GPa) = 46.61575 56.27534 51.44555
# Shear Modulus (GPa) = 27.18914 32.51738 29.85326
#
# Velocity S-wave (km/s) = 3.54787 3.87996 3.71762
# Velocity P-wave (km/s) = 6.19388 6.79154 6.49958
#
# Compressibility (1/GPa) = 0.02145198
#
# Stress axis : x y z
#
# Youngs Moduli (GPa) = 61.41514 100.00033 114.03426
#
# Poissons Ratio (x) = 0.08585 0.29941
# Poissons Ratio (y) = 0.05273 0.37811
# Poissons Ratio (z) = 0.16125 0.33158
#
# Static dielectric constant tensor:
#      x y z
#    x 1.777070 0.000000 0.045900 
#    y 0.000000 1.808420 0.000000 
#    z 0.045900 0.000000 1.774570 
# 
# From -- ./inp_files/189103.got.cif
#   From: 2010.05.17/outbox.cif.g08.bks.cpg/sg15_95_cif.got.tgz:189103.got - 2010.06.03 18:47:42.
