data_PCOD9276845
_publ_section_title
;
Structure prediction by ZEFSAII (Michael W. Deem and Ramdas Pophale) SiO2 
 PCOD9276845
Probable space group: C 2/C
;
_chemical_formula_sum "Si O2"
_cell_formula_units_Z 44
_cell_length_a 16.288992
_cell_length_b 16.428388
_cell_length_c 22.444444
_cell_angle_alpha 90.000000
_cell_angle_beta 160.364297
_cell_angle_gamma 90.000000
_cell_volume 2018.306382
_symmetry_space_group_name_H-M "C 2/C"
_symmetry_group_IT_number 15
_symmetry_cell_setting 'monoclinic'
loop_
_space_group_symop_operation_xyz
x,y,z
-x,y,1/2-z
-x,-y,-z
x,-y,1/2+z
1/2+x,1/2+y,z
1/2-x,1/2+y,1/2-z
1/2-x,1/2-y,-z
1/2+x,1/2-y,1/2+z
loop_
_atom_site_type_symbol
_atom_site_label
_atom_site_fract_x
_atom_site_fract_y
_atom_site_fract_z
Si Si1 0.423783 0.377163 0.132717
Si Si2 0.738524 0.527445 0.542653
Si Si3 0.939736 0.648536 0.592412
Si Si4 0.052338 0.903846 0.030382
Si Si5 0.000000 0.239029 0.250000
Si Si6 0.078045 0.298746 0.734035
O O1 0.500000 0.407022 0.250000
O O2 0.578730 0.297358 0.220209
O O3 0.416311 0.447957 0.078594
O O4 0.148228 0.342704 0.952489
O O5 0.801819 0.570010 0.524096
O O6 0.627112 0.594599 0.511232
O O7 0.000000 0.502634 0.750000
O O8 0.971820 0.708800 0.670959
O O9 0.752963 0.688234 0.418529
O O10 0.217313 0.621504 0.771659
O O11 0.824304 0.846659 0.888288
O O12 0.000000 0.000000 0.000000
O O13 0.000000 0.302791 0.750000
#
# Coordination Sequence:
#
# PCOD9276845 Si02
#       6
#     8   8   8   8   4   8
#     4  10  21  38  61  91 130 173 214 270 328 379
#     4  10  20  40  65  94 124 172 211 261 328 397
#     4  10  21  41  67  93 127 167 212 270 326 396
#     4  11  21  39  67  95 126 171 225 260 322 396
#     4  10  20  42  66  94 126 166 208 266 338 380
#     4  10  21  41  64  89 129 178 218 267 325 388
#
# _framework density 21.800456000000001
#
# number of rings (size 3 to 8) (size 9 to 14) (size 15 to 20)
#    0.000    1.818    2.727    3.818    1.273    0.727 
#   13.091    0.909    0.000    0.000    0.000    0.000 
#    0.000    0.000    0.000    0.000    0.000    0.000 
#
# Total GULP energy -122814.212464 kJ/mol
# GULP energy per Si atom -5582.464203 kJ/mol
# Density = 2.175084 g / cm^3
# Si number density = 21.800456 Si / 1000 Ang^3
#
#
#
# Elastic Constant Matrix: (Units=GPa)
#
#
# Indices 1 2 3 4 5 6 
#
# 1 63.9943 35.7623 39.9197 0.0048 12.1271 0.0056
# 2 35.7623 125.3068 72.4404 0.0036 14.2003 -0.0085
# 3 39.9197 72.4404 136.7860 -0.0255 12.0261 -0.0192
# 4 0.0048 0.0036 -0.0255 49.5863 -0.0070 1.0392
# 5 12.1271 14.2003 12.0261 -0.0070 38.8869 -0.0096
# 6 0.0056 -0.0085 -0.0192 1.0392 -0.0096 20.8582
#
#
#
# Elastic Compliance Matrix: (Units=1/GPa)
#
#
# Indices 1 2 3 4 5 6 
#
# 1 0.020640 -0.003105 -0.004022 -0.000004 -0.004059 -0.000012
# 2 -0.003105 0.012188 -0.005388 -0.000004 -0.001816 0.000000
# 3 -0.004022 -0.005388 0.011364 0.000006 -0.000292 0.000009
# 4 -0.000004 -0.000004 0.000006 0.020188 0.000004 -0.001006
# 5 -0.004059 -0.001816 -0.000292 0.000004 0.027735 0.000013
# 6 -0.000012 0.000000 0.000009 -0.001006 0.000013 0.047993
#
#
# Mechanical properties :
#
#
# Convention : Reuss Voigt Hill
#
# Bulk Modulus (GPa) = 52.19386 69.14800 60.67093
# Shear Modulus (GPa) = 29.15014 33.73056 31.44035
#
# Velocity S-wave (km/s) = 3.66065 3.93777 3.80173
# Velocity P-wave (km/s) = 6.46999 7.24307 6.86742
#
# Compressibility (1/GPa) = 0.01915934
#
# Stress axis : x y z
#
# Youngs Moduli (GPa) = 48.44961 82.05087 87.99791
#
# Poissons Ratio (x) = 0.25480 0.35394
# Poissons Ratio (y) = 0.15046 0.47418
# Poissons Ratio (z) = 0.19487 0.44213
#
# Static dielectric constant tensor:
#      x y z
#    x 2.212470 0.000500 0.098350 
#    y 0.000500 1.854970 0.000110 
#    z 0.098350 0.000110 1.838930 
# 
# From -- ./inp_files/277822.got.cif
#   From: 2010.05.17/outbox.cif.g08.bks.cpg/sg15_139_cif.got.tgz:277822.got - 2010.06.03 18:47:42.
