data_PCOD9276416
_publ_section_title
;
Structure prediction by ZEFSAII (Michael W. Deem and Ramdas Pophale) SiO2 
 PCOD9276416
Probable space group: C 2/C
;
_chemical_formula_sum "Si O2"
_cell_formula_units_Z 60
_cell_length_a 19.418489
_cell_length_b 19.640110
_cell_length_c 13.673970
_cell_angle_alpha 90.000000
_cell_angle_beta 33.589761
_cell_angle_gamma 90.000000
_cell_volume 2885.158384
_symmetry_space_group_name_H-M "C 2/C"
_symmetry_group_IT_number 15
_symmetry_cell_setting 'monoclinic'
loop_
_space_group_symop_operation_xyz
x,y,z
-x,y,1/2-z
-x,-y,-z
x,-y,1/2+z
1/2+x,1/2+y,z
1/2-x,1/2+y,1/2-z
1/2-x,1/2-y,-z
1/2+x,1/2-y,1/2+z
loop_
_atom_site_type_symbol
_atom_site_label
_atom_site_fract_x
_atom_site_fract_y
_atom_site_fract_z
Si Si1 0.252725 0.161020 0.032571
Si Si2 0.642982 0.769933 0.549114
Si Si3 0.623646 0.706496 0.364329
Si Si4 0.000000 0.123144 0.250000
Si Si5 0.029114 0.075469 0.999848
Si Si6 0.312475 0.097731 0.618609
Si Si7 0.109646 0.549186 0.542136
Si Si8 0.954460 0.664344 0.631224
O O1 0.232512 0.204991 0.154082
O O2 0.124772 0.165672 0.124269
O O3 0.273166 0.082282 0.040729
O O4 0.373390 0.175596 0.825207
O O5 0.500000 0.755280 0.750000
O O6 0.750000 0.750000 0.500000
O O7 0.665614 0.729420 0.421042
O O8 0.650983 0.849703 0.510375
O O9 0.565415 0.631777 0.430298
O O10 0.522857 0.761833 0.443382
O O11 0.975338 0.081108 0.377441
O O12 0.165070 0.095895 0.802737
O O13 0.000000 0.000000 0.000000
O O14 0.369113 0.126981 0.651756
O O15 0.359842 0.021303 0.544940
O O16 0.000000 0.537355 0.750000
O O17 0.062274 0.610777 0.528781
#
# Coordination Sequence:
#
# PCOD9276416 Si02
#       8
#     8   8   8   4   8   8   8   8
#     4  10  20  40  61  94 128 164 211 267 326 397
#     4  11  25  46  68 100 137 179 235 283 337 405
#     4  10  23  41  67  95 129 174 215 277 336 394
#     4  10  20  40  64  90 128 160 216 266 332 388
#     4  11  23  43  65  96 133 174 227 278 337 405
#     4  11  21  40  67  91 132 178 221 272 336 394
#     4  10  22  39  60  95 131 170 220 265 324 396
#     4  10  21  38  63  96 129 167 214 268 329 397
#
# _framework density 20.796085000000001
#
# number of rings (size 3 to 8) (size 9 to 14) (size 15 to 20)
#    0.000    1.600    1.333    3.600    0.000    4.267 
#   20.400    2.667    0.000    0.000    0.000    0.000 
#    0.000    0.000    0.000    0.000    0.000    0.000 
#
# Total GULP energy -167573.548539 kJ/mol
# GULP energy per Si atom -5585.784951 kJ/mol
# Density = 2.074875 g / cm^3
# Si number density = 20.796085 Si / 1000 Ang^3
#
#
#
# Elastic Constant Matrix: (Units=GPa)
#
#
# Indices 1 2 3 4 5 6 
#
# 1 121.1145 46.9579 44.0259 0.0000 6.2233 0.0000
# 2 46.9579 147.3336 30.0035 0.0000 11.4049 0.0000
# 3 44.0259 30.0035 74.0683 -0.0001 5.0981 0.0000
# 4 0.0000 0.0000 -0.0001 29.6237 0.0001 3.5960
# 5 6.2233 11.4049 5.0981 0.0001 35.4599 0.0000
# 6 0.0000 0.0000 0.0000 3.5960 0.0000 31.8116
#
#
#
# Elastic Compliance Matrix: (Units=1/GPa)
#
#
# Indices 1 2 3 4 5 6 
#
# 1 0.011283 -0.002404 -0.005706 0.000000 -0.000387 0.000000
# 2 -0.002404 0.008048 -0.001699 0.000000 -0.001922 0.000000
# 3 -0.005706 -0.001699 0.017649 0.000000 -0.000990 0.000000
# 4 0.000000 0.000000 0.000000 0.034226 0.000000 -0.003869
# 5 -0.000387 -0.001922 -0.000990 0.000000 0.029029 0.000000
# 6 0.000000 0.000000 0.000000 -0.003869 0.000000 0.031872
#
#
# Mechanical properties :
#
#
# Convention : Reuss Voigt Hill
#
# Bulk Modulus (GPa) = 57.59670 64.94343 61.27006
# Shear Modulus (GPa) = 31.74329 34.14764 32.94547
#
# Velocity S-wave (km/s) = 3.91116 4.05658 3.98454
# Velocity P-wave (km/s) = 6.93919 7.29641 7.12004
#
# Compressibility (1/GPa) = 0.01736211
#
# Stress axis : x y z
#
# Youngs Moduli (GPa) = 88.63061 124.24936 56.66055
#
# Poissons Ratio (x) = 0.29871 0.32330
# Poissons Ratio (y) = 0.21308 0.09626
# Poissons Ratio (z) = 0.50572 0.21109
#
# Static dielectric constant tensor:
#      x y z
#    x 1.757530 0.000000 -0.006910 
#    y 0.000000 1.737550 0.000000 
#    z -0.006910 0.000000 1.756920 
# 
# From -- ./inp_files/107627.got.cif
#   From: 2010.05.17/outbox.cif.g08.bks.cpg/sg15_54_cif.got.tgz:107627.got - 2010.06.03 18:47:42.
