data_PCOD9276759
_publ_section_title
;
Structure prediction by ZEFSAII (Michael W. Deem and Ramdas Pophale) SiO2 
 PCOD9276759
Probable space group: C 2/C
;
_chemical_formula_sum "Si O2"
_cell_formula_units_Z 36
_cell_length_a 24.587683
_cell_length_b 5.174908
_cell_length_c 13.446070
_cell_angle_alpha 90.000000
_cell_angle_beta 125.641431
_cell_angle_gamma 90.000000
_cell_volume 1390.384669
_symmetry_space_group_name_H-M "C 2/C"
_symmetry_group_IT_number 15
_symmetry_cell_setting 'monoclinic'
loop_
_space_group_symop_operation_xyz
x,y,z
-x,y,1/2-z
-x,-y,-z
x,-y,1/2+z
1/2+x,1/2+y,z
1/2-x,1/2+y,1/2-z
1/2-x,1/2-y,-z
1/2+x,1/2-y,1/2+z
loop_
_atom_site_type_symbol
_atom_site_label
_atom_site_fract_x
_atom_site_fract_y
_atom_site_fract_z
Si Si1 0.243537 0.683340 0.173600
Si Si2 0.958845 0.793708 0.021416
Si Si3 0.805411 0.474748 0.565296
Si Si4 0.920450 0.431023 0.301590
Si Si5 0.500000 0.441617 0.750000
O O1 0.266133 0.431691 0.263072
O O2 0.287848 0.798084 0.127982
O O3 0.184296 0.580727 0.035912
O O4 0.010662 0.571804 0.102755
O O5 0.900656 0.689314 0.887636
O O6 0.951201 0.917133 0.119789
O O7 0.000000 0.000000 0.000000
O O8 0.750000 0.250000 0.500000
O O9 0.870680 0.377918 0.693002
O O10 0.945100 0.216412 0.252661
#
# Coordination Sequence:
#
# PCOD9276759 Si02
#       5
#     8   8   8   8   4
#     4  11  24  49  70 101 144 187 245 293 360 429
#     4   9  20  40  62  92 136 168 222 280 346 415
#     4  11  25  44  72 105 145 189 246 299 355 433
#     4  10  22  42  65  99 136 178 226 286 351 421
#     4  10  20  40  64  96 136 174 230 282 356 430
#
# _framework density 25.892116999999999
#
# number of rings (size 3 to 8) (size 9 to 14) (size 15 to 20)
#    0.000    1.778    2.222    0.667    0.000    8.889 
#   16.000    0.000    0.000    0.000    0.000    0.000 
#    0.000    0.000    0.000    0.000    0.000    0.000 
#
# Total GULP energy -100276.441304 kJ/mol
# GULP energy per Si atom -5570.913406 kJ/mol
# Density = 2.583319 g / cm^3
# Si number density = 25.892117 Si / 1000 Ang^3
#
#
#
# Elastic Constant Matrix: (Units=GPa)
#
#
# Indices 1 2 3 4 5 6 
#
# 1 50.4769 25.9429 57.5137 0.0000 -23.2051 0.0000
# 2 25.9429 138.2610 101.8828 0.0001 -23.9966 0.0000
# 3 57.5137 101.8828 294.2933 0.0000 -14.0393 0.0000
# 4 0.0000 0.0001 0.0000 -214.1994 0.0000 -131.8501
# 5 -23.2051 -23.9966 -14.0393 0.0000 47.4512 0.0000
# 6 0.0000 0.0000 0.0000 -131.8501 0.0000 -6.2504
#
#
#
# Elastic Compliance Matrix: (Units=1/GPa)
#
#
# Indices 1 2 3 4 5 6 
#
# 1 0.033080 0.000813 -0.006040 0.000000 0.014801 0.000000
# 2 0.000813 0.010528 -0.003581 0.000000 0.004662 0.000000
# 3 -0.006040 -0.003581 0.005671 0.000000 -0.003087 0.000000
# 4 0.000000 0.000000 0.000000 0.000390 0.000000 -0.008217
# 5 0.014801 0.004662 -0.003087 0.000000 0.029757 0.000000
# 6 0.000000 0.000000 0.000000 -0.008217 0.000000 0.013349
#
#
# Mechanical properties :
#
#
# Convention : Reuss Voigt Hill
#
# Bulk Modulus (GPa) = 31.58395 94.85666 63.22031
# Shear Modulus (GPa) = 41.34090 -14.75360 13.29365
#
# Velocity S-wave (km/s) = 4.00016 -2.38966 2.26835
# Velocity P-wave (km/s) = 5.79308 5.39453 5.59735
#
# Compressibility (1/GPa) = 0.03166165
#
# Stress axis : x y z
#
# Youngs Moduli (GPa) = 30.23014 94.98146 176.33816
#
# Poissons Ratio (x) = -0.07719 1.06508
# Poissons Ratio (y) = -0.02457 0.63152
# Poissons Ratio (z) = 0.18259 0.34016
#
# Static dielectric constant tensor:
#      x y z
#    x 6.873980 0.000000 -3.334620 
#    y 0.000000 2.111810 0.000000 
#    z -3.334620 0.000000 4.411830 
# 
# From -- ./inp_files/124860.got.cif
#   From: 2010.05.17/outbox.cif.g08.bks.cpg/sg15_63_cif.got.tgz:124860.got - 2010.06.03 18:47:42.
