data_PCOD9276528
_publ_section_title
;
Structure prediction by ZEFSAII (Michael W. Deem and Ramdas Pophale) SiO2 
 PCOD9276528
Probable space group: C 2/C
;
_chemical_formula_sum "Si O2"
_cell_formula_units_Z 60
_cell_length_a 13.310237
_cell_length_b 14.142799
_cell_length_c 16.450280
_cell_angle_alpha 90.000000
_cell_angle_beta 74.269148
_cell_angle_gamma 90.000000
_cell_volume 2980.683745
_symmetry_space_group_name_H-M "C 2/C"
_symmetry_group_IT_number 15
_symmetry_cell_setting 'monoclinic'
loop_
_space_group_symop_operation_xyz
x,y,z
-x,y,1/2-z
-x,-y,-z
x,-y,1/2+z
1/2+x,1/2+y,z
1/2-x,1/2+y,1/2-z
1/2-x,1/2-y,-z
1/2+x,1/2-y,1/2+z
loop_
_atom_site_type_symbol
_atom_site_label
_atom_site_fract_x
_atom_site_fract_y
_atom_site_fract_z
Si Si1 0.212263 0.986444 0.365988
Si Si2 0.500000 0.412975 0.750000
Si Si3 0.809345 0.977536 0.322976
Si Si4 0.651810 0.296247 0.472632
Si Si5 0.297332 0.179087 0.555132
Si Si6 0.410235 0.021206 0.422887
Si Si7 0.931932 0.165048 0.106768
Si Si8 0.116467 0.398796 0.918878
O O1 0.201154 0.969776 0.272109
O O2 0.185368 0.891686 0.420575
O O3 0.330561 0.011812 0.366305
O O4 0.133628 0.072320 0.408121
O O5 0.576987 0.481008 0.683702
O O6 0.563290 0.349147 0.797870
O O7 0.785188 0.880613 0.374485
O O8 0.726135 0.054732 0.372125
O O9 0.750000 0.250000 0.500000
O O10 0.549454 0.322699 0.547768
O O11 0.618605 0.213758 0.417026
O O12 0.250000 0.250000 0.500000
O O13 0.364231 0.102910 0.491062
O O14 0.369289 0.241952 0.596709
O O15 0.528472 0.052785 0.382140
O O16 0.408952 0.929620 0.482089
#
# Coordination Sequence:
#
# PCOD9276528 Si02
#       8
#     8   4   8   8   8   8   8   8
#     4  11  24  41  63  93 134 168 219 260 336 388
#     4  10  24  46  64  90 142 172 214 264 334 382
#     4  10  25  43  63  92 131 175 208 281 320 388
#     4  12  23  38  65  98 123 170 223 272 313 394
#     4  11  22  40  69  94 127 167 223 267 326 388
#     4  10  20  40  62  96 123 166 212 267 321 391
#     4  11  24  42  65  97 129 177 211 273 328 390
#     4  10  21  40  64  90 133 160 217 268 324 374
#
# _framework density 20.129608999999999
#
# number of rings (size 3 to 8) (size 9 to 14) (size 15 to 20)
#    0.000    1.333    4.000    1.200    1.867    5.867 
#    0.000    0.000    0.000    0.000    0.000    0.000 
#    0.000    0.000    0.000    0.000    0.000    0.000 
#
# Total GULP energy -167538.826399 kJ/mol
# GULP energy per Si atom -5584.627547 kJ/mol
# Density = 2.008379 g / cm^3
# Si number density = 20.129609 Si / 1000 Ang^3
#
#
#
# Elastic Constant Matrix: (Units=GPa)
#
#
# Indices 1 2 3 4 5 6 
#
# 1 82.5400 11.8809 3.2891 0.0000 -5.1780 0.0000
# 2 11.8809 99.7039 19.9314 0.0000 -1.8822 0.0000
# 3 3.2891 19.9314 39.0343 0.0000 -1.6122 0.0000
# 4 0.0000 0.0000 0.0000 28.3827 0.0000 5.6110
# 5 -5.1780 -1.8822 -1.6122 0.0000 37.2078 0.0000
# 6 0.0000 0.0000 0.0000 5.6110 0.0000 29.5287
#
#
#
# Elastic Compliance Matrix: (Units=1/GPa)
#
#
# Indices 1 2 3 4 5 6 
#
# 1 0.012430 -0.001397 -0.000266 0.000000 0.001648 0.000000
# 2 -0.001397 0.011331 -0.005662 0.000000 0.000133 0.000000
# 3 -0.000266 -0.005662 0.028570 0.000000 0.000914 0.000000
# 4 0.000000 0.000000 0.000000 0.036608 0.000000 -0.006956
# 5 0.001648 0.000133 0.000914 0.000000 0.027152 0.000000
# 6 0.000000 0.000000 0.000000 -0.006956 0.000000 0.035187
#
#
# Mechanical properties :
#
#
# Convention : Reuss Voigt Hill
#
# Bulk Modulus (GPa) = 26.53909 32.38678 29.46293
# Shear Modulus (GPa) = 28.01301 31.43562 29.72432
#
# Velocity S-wave (km/s) = 3.73451 3.95607 3.84688
# Velocity P-wave (km/s) = 5.63987 6.08206 5.86513
#
# Compressibility (1/GPa) = 0.03768027
#
# Stress axis : x y z
#
# Youngs Moduli (GPa) = 80.44809 88.25645 35.00182
#
# Poissons Ratio (x) = 0.12329 0.00931
# Poissons Ratio (y) = 0.11238 0.19819
# Poissons Ratio (z) = 0.02140 0.49974
#
# Static dielectric constant tensor:
#      x y z
#    x 1.783140 0.000000 0.018480 
#    y 0.000000 1.738740 0.000000 
#    z 0.018480 0.000000 1.705870 
# 
# From -- ./inp_files/197856.got.cif
#   From: 2010.05.17/outbox.cif.g08.bks.cpg/sg15_99_cif.got.tgz:197856.got - 2010.06.03 18:47:42.
