data_PCOD9276239
_publ_section_title
;
Structure prediction by ZEFSAII (Michael W. Deem and Ramdas Pophale) SiO2 
 PCOD9276239
Probable space group: C 2/C
;
_chemical_formula_sum "Si O2"
_cell_formula_units_Z 36
_cell_length_a 11.582596
_cell_length_b 24.389378
_cell_length_c 7.991482
_cell_angle_alpha 90.000000
_cell_angle_beta 128.474471
_cell_angle_gamma 90.000000
_cell_volume 1767.389133
_symmetry_space_group_name_H-M "C 2/C"
_symmetry_group_IT_number 15
_symmetry_cell_setting 'monoclinic'
loop_
_space_group_symop_operation_xyz
x,y,z
-x,y,1/2-z
-x,-y,-z
x,-y,1/2+z
1/2+x,1/2+y,z
1/2-x,1/2+y,1/2-z
1/2-x,1/2-y,-z
1/2+x,1/2-y,1/2+z
loop_
_atom_site_type_symbol
_atom_site_label
_atom_site_fract_x
_atom_site_fract_y
_atom_site_fract_z
Si Si1 0.392333 0.961180 0.016938
Si Si2 0.727904 0.226110 0.208773
Si Si3 0.174225 0.569216 0.382437
Si Si4 0.173189 0.170873 0.867289
Si Si5 0.500000 0.756470 0.250000
O O1 0.304103 0.926987 0.799211
O O2 0.500000 0.932799 0.250000
O O3 0.500000 0.000000 0.000000
O O4 0.300414 0.006556 0.035904
O O5 0.740187 0.195360 0.394284
O O6 0.708633 0.290326 0.242664
O O7 0.876374 0.221688 0.235557
O O8 0.589414 0.210307 0.970642
O O9 0.270641 0.609000 0.583261
O O10 0.000000 0.582792 0.250000
O O11 0.000000 0.174635 0.750000
#
# Coordination Sequence:
#
# PCOD9276239 Si02
#       5
#     8   8   8   8   4
#     4   7  13  31  52  77 106 136 178 237 268 313
#     4  10  22  38  60  78 118 149 187 225 289 322
#     4   9  18  32  58  79 109 143 193 226 277 326
#     4  11  22  37  55  85 117 154 183 227 277 350
#     4  10  20  40  56  78 106 150 184 240 270 326
#
# _framework density 20.369029999999999
#
# number of rings (size 3 to 8) (size 9 to 14) (size 15 to 20)
#    0.000    3.111    2.222    0.000    3.111    0.000 
#    2.000    7.778    2.444    0.000    0.000    0.000 
#    0.000    0.000    0.000    0.000    0.000    0.000 
#
# Total GULP energy -100205.657098 kJ/mol
# GULP energy per Si atom -5566.980950 kJ/mol
# Density = 2.032267 g / cm^3
# Si number density = 20.369030 Si / 1000 Ang^3
#
#
#
# Elastic Constant Matrix: (Units=GPa)
#
#
# Indices 1 2 3 4 5 6 
#
# 1 52.1144 1.2529 19.8374 0.0000 -5.3391 0.0000
# 2 1.2529 51.2277 17.1014 0.0000 -3.3303 0.0000
# 3 19.8374 17.1014 112.7829 0.0000 -12.2042 0.0000
# 4 0.0000 0.0000 0.0000 21.1587 0.0000 -2.6668
# 5 -5.3391 -3.3303 -12.2042 0.0000 30.1738 0.0000
# 6 0.0000 0.0000 0.0000 -2.6668 0.0000 8.9806
#
#
#
# Elastic Compliance Matrix: (Units=1/GPa)
#
#
# Indices 1 2 3 4 5 6 
#
# 1 0.020749 0.000820 -0.003521 0.000000 0.002338 0.000000
# 2 0.000820 0.020626 -0.003147 0.000000 0.001149 0.000000
# 3 -0.003521 -0.003147 0.010309 0.000000 0.003199 0.000000
# 4 0.000000 0.000000 0.000000 0.049100 0.000000 0.014580
# 5 0.002338 0.001149 0.003199 0.000000 0.034976 0.000000
# 6 0.000000 0.000000 0.000000 0.014580 0.000000 0.115680
#
#
# Mechanical properties :
#
#
# Convention : Reuss Voigt Hill
#
# Bulk Modulus (GPa) = 25.00807 32.50092 28.75449
# Shear Modulus (GPa) = 18.08545 23.92484 21.00515
#
# Velocity S-wave (km/s) = 2.98298 3.43092 3.21476
# Velocity P-wave (km/s) = 4.91613 5.62900 5.28460
#
# Compressibility (1/GPa) = 0.03998710
#
# Stress axis : x y z
#
# Youngs Moduli (GPa) = 48.19610 48.48243 96.99951
#
# Poissons Ratio (x) = -0.03975 0.34152
# Poissons Ratio (y) = -0.03951 0.30530
# Poissons Ratio (z) = 0.16969 0.15260
#
# Static dielectric constant tensor:
#      x y z
#    x 1.745410 0.000000 -0.043490 
#    y 0.000000 1.799530 0.000000 
#    z -0.043490 0.000000 1.786900 
# 
# From -- ./inp_files/33202.got.cif
#   From: 2010.05.17/outbox.cif.g08.bks.cpg/sg15_17_cif.got.tgz:33202.got - 2010.06.03 18:47:42.
