data_PCOD9276559
_publ_section_title
;
Structure prediction by ZEFSAII (Michael W. Deem and Ramdas Pophale) SiO2 
 PCOD9276559
Probable space group: C 2/C
;
_chemical_formula_sum "Si O2"
_cell_formula_units_Z 48
_cell_length_a 7.627230
_cell_length_b 12.620363
_cell_length_c 22.277541
_cell_angle_alpha 90.000000
_cell_angle_beta 76.379158
_cell_angle_gamma 90.000000
_cell_volume 2084.090293
_symmetry_space_group_name_H-M "C 2/C"
_symmetry_group_IT_number 15
_symmetry_cell_setting 'monoclinic'
loop_
_space_group_symop_operation_xyz
x,y,z
-x,y,1/2-z
-x,-y,-z
x,-y,1/2+z
1/2+x,1/2+y,z
1/2-x,1/2+y,1/2-z
1/2-x,1/2-y,-z
1/2+x,1/2-y,1/2+z
loop_
_atom_site_type_symbol
_atom_site_label
_atom_site_fract_x
_atom_site_fract_y
_atom_site_fract_z
Si Si1 0.988281 0.704130 0.322548
Si Si2 0.118427 0.158112 0.179655
Si Si3 0.256643 0.012228 0.389409
Si Si4 0.512630 0.675171 0.058300
Si Si5 0.955589 0.070475 0.823657
Si Si6 0.595004 0.894501 0.016900
O O1 0.193011 0.716110 0.328661
O O2 0.890598 0.813970 0.348747
O O3 0.000000 0.692838 0.250000
O O4 0.895105 0.599509 0.354475
O O5 0.005508 0.193192 0.130904
O O6 0.000000 0.165432 0.250000
O O7 0.166493 0.033817 0.164234
O O8 0.125546 0.080822 0.443540
O O9 0.131393 0.964428 0.347301
O O10 0.352839 0.921557 0.418946
O O11 0.485258 0.784491 0.025203
O O12 0.715563 0.633627 0.030118
O O13 0.000000 0.083063 0.750000
O O14 0.500000 0.000000 0.000000
#
# Coordination Sequence:
#
# PCOD9276559 Si02
#       6
#     8   8   8   8   8   8
#     4  11  21  35  58  88 121 158 200 245 303 368
#     4  10  20  40  63  87 123 158 195 250 307 362
#     4  11  23  39  62  90 120 160 206 253 304 358
#     4  10  23  42  62  88 122 157 201 253 302 357
#     4   9  20  38  58  86 122 158 197 246 303 361
#     4  11  24  42  63  88 119 162 208 250 299 355
#
# _framework density 23.03163
#
# number of rings (size 3 to 8) (size 9 to 14) (size 15 to 20)
#    0.000    1.667    0.000    5.500    0.000    6.000 
#    0.000   11.667    0.000    1.000    0.000    0.000 
#    0.000    0.000    0.000    0.000    0.000    0.000 
#
# Total GULP energy -134094.059631 kJ/mol
# GULP energy per Si atom -5587.252485 kJ/mol
# Density = 2.297921 g / cm^3
# Si number density = 23.031630 Si / 1000 Ang^3
#
#
#
# Elastic Constant Matrix: (Units=GPa)
#
#
# Indices 1 2 3 4 5 6 
#
# 1 51.0078 22.1002 0.8971 0.0000 -1.6073 0.0000
# 2 22.1002 115.5028 34.1355 0.0000 -11.9555 0.0000
# 3 0.8971 34.1355 42.3292 0.0000 -2.8256 0.0000
# 4 0.0000 0.0000 0.0000 -20.5225 0.0000 23.3752
# 5 -1.6073 -11.9555 -2.8256 0.0000 30.7733 0.0000
# 6 0.0000 0.0000 0.0000 23.3752 0.0000 22.5463
#
#
#
# Elastic Compliance Matrix: (Units=1/GPa)
#
#
# Indices 1 2 3 4 5 6 
#
# 1 0.021847 -0.005374 0.003831 0.000000 -0.000595 0.000000
# 2 -0.005374 0.013099 -0.010191 0.000000 0.003872 0.000000
# 3 0.003831 -0.010191 0.031705 0.000000 -0.000848 0.000000
# 4 0.000000 0.000000 0.000000 -0.022343 0.000000 0.023164
# 5 -0.000595 0.003872 -0.000848 0.000000 0.033891 0.000000
# 6 0.000000 0.000000 0.000000 0.023164 0.000000 0.020337
#
#
# Mechanical properties :
#
#
# Convention : Reuss Voigt Hill
#
# Bulk Modulus (GPa) = 23.15723 35.90059 29.52891
# Shear Modulus (GPa) = 36.65740 16.67320 26.66530
#
# Velocity S-wave (km/s) = 3.99383 2.69351 3.40629
# Velocity P-wave (km/s) = 5.59856 5.02938 5.32159
#
# Compressibility (1/GPa) = 0.04318306
#
# Stress axis : x y z
#
# Youngs Moduli (GPa) = 45.77257 76.34368 31.54105
#
# Poissons Ratio (x) = 0.41027 -0.12084
# Poissons Ratio (y) = 0.24598 0.32143
# Poissons Ratio (z) = -0.17536 0.77800
#
# Static dielectric constant tensor:
#      x y z
#    x 1.853430 0.000000 -0.010720 
#    y 0.000000 1.862270 0.000000 
#    z -0.010720 0.000000 1.870940 
# 
# From -- ./inp_files/263076.got.cif
#   From: 2010.05.17/outbox.cif.g08.bks.cpg/sg15_132_cif.got.tgz:263076.got - 2010.06.03 18:47:42.
