data_PCOD9276967
_publ_section_title
;
Structure prediction by ZEFSAII (Michael W. Deem and Ramdas Pophale) SiO2 
 PCOD9276967
Probable space group: C 2/C
;
_chemical_formula_sum "Si O2"
_cell_formula_units_Z 56
_cell_length_a 9.565479
_cell_length_b 16.975748
_cell_length_c 17.005026
_cell_angle_alpha 90.000000
_cell_angle_beta 117.879632
_cell_angle_gamma 90.000000
_cell_volume 2440.797550
_symmetry_space_group_name_H-M "C 2/C"
_symmetry_group_IT_number 15
_symmetry_cell_setting 'monoclinic'
loop_
_space_group_symop_operation_xyz
x,y,z
-x,y,1/2-z
-x,-y,-z
x,-y,1/2+z
1/2+x,1/2+y,z
1/2-x,1/2+y,1/2-z
1/2-x,1/2-y,-z
1/2+x,1/2-y,1/2+z
loop_
_atom_site_type_symbol
_atom_site_label
_atom_site_fract_x
_atom_site_fract_y
_atom_site_fract_z
Si Si1 0.121589 0.494000 0.659472
Si Si2 0.978533 0.178159 0.440272
Si Si3 0.000000 0.601739 0.750000
Si Si4 0.000000 0.226885 0.750000
Si Si5 0.054596 0.352177 0.043022
Si Si6 0.650470 0.860761 0.899482
Si Si7 0.780590 0.863335 0.627347
Si Si8 0.302313 0.695720 0.845568
O O1 0.101711 0.564725 0.592171
O O2 0.269591 0.441046 0.676298
O O3 0.117732 0.543394 0.736543
O O4 0.973089 0.433400 0.630343
O O5 0.935453 0.269589 0.409052
O O6 0.825820 0.124924 0.415394
O O7 0.074016 0.146323 0.391517
O O8 0.081700 0.182937 0.548672
O O9 0.865336 0.655519 0.676025
O O10 0.088897 0.287808 0.831638
O O11 0.111745 0.179325 0.716613
O O12 0.156824 0.336673 0.992144
O O13 0.873162 0.364816 0.969872
O O14 0.745687 0.787698 0.671386
#
# Coordination Sequence:
#
# PCOD9276967 Si02
#       8
#     8   8   4   4   8   8   8   8
#     4  11  23  43  68  98 137 189 220 271 353 420
#     4  11  22  42  71 105 128 173 238 291 321 399
#     4  12  27  46  68  97 142 184 228 286 353 410
#     4  12  23  42  64 103 138 174 224 278 353 394
#     4  10  20  40  66  97 132 180 227 270 334 407
#     4  11  23  40  71  96 137 181 223 277 346 408
#     4  10  20  40  66  96 132 173 230 277 327 412
#     4  11  25  42  68 101 135 177 233 283 336 407
#
# _framework density 22.943321000000001
#
# number of rings (size 3 to 8) (size 9 to 14) (size 15 to 20)
#    0.000    1.143    4.286    6.000    4.000    0.000 
#    0.000    7.857    0.000    5.143    0.000    0.000 
#    0.000    0.000    0.000    0.000    0.000    0.000 
#
# Total GULP energy -156239.326568 kJ/mol
# GULP energy per Si atom -5579.975949 kJ/mol
# Density = 2.289110 g / cm^3
# Si number density = 22.943321 Si / 1000 Ang^3
#
#
#
# Elastic Constant Matrix: (Units=GPa)
#
#
# Indices 1 2 3 4 5 6 
#
# 1 150.7172 25.7846 14.8492 0.0000 -28.2383 0.0000
# 2 25.7846 90.4811 13.0686 0.0000 -5.9883 0.0000
# 3 14.8492 13.0686 17.6547 0.0000 -11.8554 0.0000
# 4 0.0000 0.0000 0.0000 36.0539 0.0000 11.2708
# 5 -28.2383 -5.9883 -11.8554 0.0000 35.4024 0.0000
# 6 0.0000 0.0000 0.0000 11.2708 0.0000 114.1083
#
#
#
# Elastic Compliance Matrix: (Units=1/GPa)
#
#
# Indices 1 2 3 4 5 6 
#
# 1 0.008155 -0.001686 -0.001851 0.000000 0.005600 0.000000
# 2 -0.001686 0.012767 -0.009657 0.000000 -0.002419 0.000000
# 3 -0.001851 -0.009657 0.081611 0.000000 0.024220 0.000000
# 4 0.000000 0.000000 0.000000 0.028620 0.000000 -0.002827
# 5 0.005600 -0.002419 0.024220 0.000000 0.040415 0.000000
# 6 0.000000 0.000000 0.000000 -0.002827 0.000000 0.009043
#
#
# Mechanical properties :
#
#
# Convention : Reuss Voigt Hill
#
# Bulk Modulus (GPa) = 13.13275 40.69531 26.91403
# Shear Modulus (GPa) = 21.51648 50.78962 36.15305
#
# Velocity S-wave (km/s) = 3.06569 4.71010 3.97388
# Velocity P-wave (km/s) = 4.27407 6.88156 5.72816
#
# Compressibility (1/GPa) = 0.07614554
#
# Stress axis : x y z
#
# Youngs Moduli (GPa) = 122.62604 78.32562 12.25324
#
# Poissons Ratio (x) = 0.13206 0.02268
# Poissons Ratio (y) = 0.20675 0.11833
# Poissons Ratio (z) = 0.22694 0.75640
#
# Static dielectric constant tensor:
#      x y z
#    x 1.901970 0.000000 -0.035040 
#    y 0.000000 1.852570 0.000000 
#    z -0.035040 0.000000 1.976690 
# 
# From -- ./inp_files/191080.got.cif
#   From: 2010.05.17/outbox.cif.g08.bks.cpg/sg15_96_cif.got.tgz:191080.got - 2010.06.03 18:47:42.
