data_PCOD9276052
_publ_section_title
;
Structure prediction by ZEFSAII (Michael W. Deem and Ramdas Pophale) SiO2 
 PCOD9276052
Probable space group: C 2/C
;
_chemical_formula_sum "Si O2"
_cell_formula_units_Z 56
_cell_length_a 21.766965
_cell_length_b 8.644600
_cell_length_c 13.873680
_cell_angle_alpha 90.000000
_cell_angle_beta 118.744113
_cell_angle_gamma 90.000000
_cell_volume 2288.880889
_symmetry_space_group_name_H-M "C 2/C"
_symmetry_group_IT_number 15
_symmetry_cell_setting 'monoclinic'
loop_
_space_group_symop_operation_xyz
x,y,z
-x,y,1/2-z
-x,-y,-z
x,-y,1/2+z
1/2+x,1/2+y,z
1/2-x,1/2+y,1/2-z
1/2-x,1/2-y,-z
1/2+x,1/2-y,1/2+z
loop_
_atom_site_type_symbol
_atom_site_label
_atom_site_fract_x
_atom_site_fract_y
_atom_site_fract_z
Si Si1 0.302772 0.561042 0.144293
Si Si2 0.278892 0.137620 0.242111
Si Si3 0.632100 0.763625 0.081760
Si Si4 0.067770 0.908866 0.348460
Si Si5 0.314979 0.081284 0.601387
Si Si6 0.507260 0.641317 0.078266
Si Si7 0.394124 0.117757 0.467783
O O1 0.265074 0.529471 0.216832
O O2 0.371326 0.458940 0.178312
O O3 0.307219 0.748535 0.140700
O O4 0.251643 0.531372 0.014114
O O5 0.214575 0.230909 0.147046
O O6 0.336014 0.208623 0.359394
O O7 0.319204 0.044720 0.188764
O O8 0.588946 0.682774 0.136480
O O9 0.612339 0.942695 0.072079
O O10 0.601011 0.690124 0.959917
O O11 0.000000 0.828107 0.250000
O O12 0.035276 0.069843 0.365059
O O13 0.374671 0.103405 0.565950
O O14 0.500000 0.500000 0.000000
O O15 0.466035 0.792247 0.011987
#
# Coordination Sequence:
#
# PCOD9276052 Si02
#       7
#     8   8   8   8   8   8   8
#     4  10  20  39  67  93 137 183 245 291 357 434
#     4  11  23  40  70 107 142 189 240 300 376 438
#     4  11  24  43  67 104 149 184 240 309 364 444
#     4  11  22  42  65  97 136 193 246 302 361 432
#     4  10  21  41  66  99 138 188 235 297 361 442
#     4  10  23  44  73  97 138 192 246 299 361 442
#     4  11  24  45  72 108 147 191 240 307 372 437
#
# _framework density 24.466106
#
# number of rings (size 3 to 8) (size 9 to 14) (size 15 to 20)
#    0.000    1.429    2.857    2.143    0.000    2.857 
#    7.714    0.714    0.000    0.000    0.000    0.000 
#    0.000    0.000    0.000    0.000    0.000    0.000 
#
# Total GULP energy -156458.319380 kJ/mol
# GULP energy per Si atom -5587.797121 kJ/mol
# Density = 2.441042 g / cm^3
# Si number density = 24.466106 Si / 1000 Ang^3
#
#
#
# Elastic Constant Matrix: (Units=GPa)
#
#
# Indices 1 2 3 4 5 6 
#
# 1 75.1443 11.1861 20.1059 0.0000 6.4295 0.0000
# 2 11.1861 89.6685 31.0150 0.0000 0.6599 0.0000
# 3 20.1059 31.0150 119.9670 0.0000 3.4084 0.0000
# 4 0.0000 0.0000 0.0000 16.2604 0.0000 7.7106
# 5 6.4295 0.6599 3.4084 0.0000 30.2400 0.0000
# 6 0.0000 0.0000 0.0000 7.7106 0.0000 26.5776
#
#
#
# Elastic Compliance Matrix: (Units=1/GPa)
#
#
# Indices 1 2 3 4 5 6 
#
# 1 0.014247 -0.001052 -0.002037 0.000000 -0.002777 0.000000
# 2 -0.001052 0.012325 -0.003018 0.000000 0.000295 0.000000
# 3 -0.002037 -0.003018 0.009474 0.000000 -0.000569 0.000000
# 4 0.000000 0.000000 0.000000 0.071309 0.000000 -0.020688
# 5 -0.002777 0.000295 -0.000569 0.000000 0.033717 0.000000
# 6 0.000000 0.000000 0.000000 -0.020688 0.000000 0.043628
#
#
# Mechanical properties :
#
#
# Convention : Reuss Voigt Hill
#
# Bulk Modulus (GPa) = 41.96297 45.48822 43.72559
# Shear Modulus (GPa) = 24.40709 29.44711 26.92710
#
# Velocity S-wave (km/s) = 3.16189 3.47304 3.32111
# Velocity P-wave (km/s) = 5.52438 5.89198 5.71114
#
# Compressibility (1/GPa) = 0.02383054
#
# Stress axis : x y z
#
# Youngs Moduli (GPa) = 70.19062 81.13366 105.55758
#
# Poissons Ratio (x) = 0.08538 0.21500
# Poissons Ratio (y) = 0.07387 0.31862
# Poissons Ratio (z) = 0.14296 0.24490
#
# Static dielectric constant tensor:
#      x y z
#    x 1.991020 0.000000 -0.003300 
#    y 0.000000 1.947880 0.000000 
#    z -0.003300 0.000000 2.025370 
# 
# From -- ./inp_files/172490.got.cif
#   From: 2010.05.17/outbox.cif.g08.bks.cpg/sg15_87_cif.got.tgz:172490.got - 2010.06.03 18:47:42.
