data_PCOD9276243
_publ_section_title
;
Structure prediction by ZEFSAII (Michael W. Deem and Ramdas Pophale) SiO2 
 PCOD9276243
Probable space group: C 2/C
;
_chemical_formula_sum "Si O2"
_cell_formula_units_Z 52
_cell_length_a 14.208026
_cell_length_b 23.355895
_cell_length_c 10.910137
_cell_angle_alpha 90.000000
_cell_angle_beta 42.778806
_cell_angle_gamma 90.000000
_cell_volume 2458.888626
_symmetry_space_group_name_H-M "C 2/C"
_symmetry_group_IT_number 15
_symmetry_cell_setting 'monoclinic'
loop_
_space_group_symop_operation_xyz
x,y,z
-x,y,1/2-z
-x,-y,-z
x,-y,1/2+z
1/2+x,1/2+y,z
1/2-x,1/2+y,1/2-z
1/2-x,1/2-y,-z
1/2+x,1/2-y,1/2+z
loop_
_atom_site_type_symbol
_atom_site_label
_atom_site_fract_x
_atom_site_fract_y
_atom_site_fract_z
Si Si1 0.500886 0.321743 0.396761
Si Si2 0.500000 0.054909 0.750000
Si Si3 0.767492 0.434260 0.637852
Si Si4 0.045106 0.381607 0.843517
Si Si5 0.326454 0.949715 0.197354
Si Si6 0.286282 0.232973 0.325793
Si Si7 0.476131 0.434665 0.980994
O O1 0.500000 0.318542 0.250000
O O2 0.638550 0.287439 0.306481
O O3 0.359573 0.292458 0.582187
O O4 0.508058 0.387544 0.428179
O O5 0.624470 0.088481 0.565224
O O6 0.574064 0.023867 0.792778
O O7 0.823002 0.411318 0.715956
O O8 0.788995 0.502956 0.630978
O O9 0.607082 0.421962 0.769063
O O10 0.095550 0.316059 0.788526
O O11 0.000000 0.398871 0.750000
O O12 0.913365 0.398519 0.053375
O O13 0.184550 0.932159 0.398648
O O14 0.250000 0.250000 0.500000
O O15 0.500000 0.500000 0.000000
#
# Coordination Sequence:
#
# PCOD9276243 Si02
#       7
#     8   4   8   8   8   8   8
#     4  10  21  37  60  89 134 168 205 256 318 393
#     4  10  20  40  56  82 116 156 218 260 308 374
#     4  10  22  39  58  86 121 171 211 266 311 375
#     4  11  21  34  59  91 129 161 208 252 311 379
#     4  10  24  35  61  87 121 172 212 259 318 376
#     4  10  21  36  57  92 129 170 203 250 323 385
#     4  10  22  42  54  89 128 164 217 250 325 374
#
# _framework density 21.147765
#
# number of rings (size 3 to 8) (size 9 to 14) (size 15 to 20)
#    0.000    1.846    1.538    3.231   10.769    0.615 
#    8.308    0.000    0.000    0.000    0.000   17.231 
#    0.000    0.000    0.000    0.000    0.000    0.000 
#
# Total GULP energy -144780.533818 kJ/mol
# GULP energy per Si atom -5568.482070 kJ/mol
# Density = 2.109963 g / cm^3
# Si number density = 21.147765 Si / 1000 Ang^3
#
#
#
# Elastic Constant Matrix: (Units=GPa)
#
#
# Indices 1 2 3 4 5 6 
#
# 1 70.1199 12.9401 46.6875 0.0000 -24.2466 0.0000
# 2 12.9401 103.4373 39.0102 0.0000 -9.1990 0.0000
# 3 46.6875 39.0102 155.0383 0.0000 -39.2670 0.0000
# 4 0.0000 0.0000 0.0000 30.2258 0.0000 -6.0206
# 5 -24.2466 -9.1990 -39.2670 0.0000 39.2234 0.0000
# 6 0.0000 0.0000 0.0000 -6.0206 0.0000 24.5224
#
#
#
# Elastic Compliance Matrix: (Units=1/GPa)
#
#
# Indices 1 2 3 4 5 6 
#
# 1 0.019698 -0.000312 -0.003735 0.000000 0.008365 0.000000
# 2 -0.000312 0.010688 -0.002692 0.000000 -0.000381 0.000000
# 3 -0.003735 -0.002692 0.010058 0.000000 0.007129 0.000000
# 4 0.000000 0.000000 0.000000 0.034785 0.000000 0.008540
# 5 0.008365 -0.000381 0.007129 0.000000 0.037713 0.000000
# 6 0.000000 0.000000 0.000000 0.008540 0.000000 0.042876
#
#
# Mechanical properties :
#
#
# Convention : Reuss Voigt Hill
#
# Bulk Modulus (GPa) = 37.08302 58.43010 47.75656
# Shear Modulus (GPa) = 28.04528 34.12486 31.08507
#
# Velocity S-wave (km/s) = 3.64560 4.02137 3.83808
# Velocity P-wave (km/s) = 5.94085 7.01793 6.50173
#
# Compressibility (1/GPa) = 0.02696652
#
# Stress axis : x y z
#
# Youngs Moduli (GPa) = 50.76695 93.56264 99.42827
#
# Poissons Ratio (x) = 0.02917 0.37134
# Poissons Ratio (y) = 0.01583 0.26765
# Poissons Ratio (z) = 0.18960 0.25186
#
# Static dielectric constant tensor:
#      x y z
#    x 1.620860 0.000000 -0.036950 
#    y 0.000000 1.803000 0.000000 
#    z -0.036950 0.000000 1.826450 
# 
# From -- ./inp_files/100625.got.cif
#   From: 2010.05.17/outbox.cif.g08.bks.cpg/sg15_51_cif.got.tgz:100625.got - 2010.06.03 18:47:42.
