data_PCOD9276584
_publ_section_title
;
Structure prediction by ZEFSAII (Michael W. Deem and Ramdas Pophale) SiO2 
 PCOD9276584
Probable space group: C 2/C
;
_chemical_formula_sum "Si O2"
_cell_formula_units_Z 52
_cell_length_a 30.992510
_cell_length_b 15.595897
_cell_length_c 15.179440
_cell_angle_alpha 90.000000
_cell_angle_beta 18.437553
_cell_angle_gamma 90.000000
_cell_volume 2320.502666
_symmetry_space_group_name_H-M "C 2/C"
_symmetry_group_IT_number 15
_symmetry_cell_setting 'monoclinic'
loop_
_space_group_symop_operation_xyz
x,y,z
-x,y,1/2-z
-x,-y,-z
x,-y,1/2+z
1/2+x,1/2+y,z
1/2-x,1/2+y,1/2-z
1/2-x,1/2-y,-z
1/2+x,1/2-y,1/2+z
loop_
_atom_site_type_symbol
_atom_site_label
_atom_site_fract_x
_atom_site_fract_y
_atom_site_fract_z
Si Si1 0.030480 0.273919 0.877427
Si Si2 0.679934 0.301529 0.252494
Si Si3 0.545578 0.620172 0.565520
Si Si4 0.966826 0.548365 0.416948
Si Si5 0.755110 0.003648 0.401990
Si Si6 0.500000 0.644887 0.250000
Si Si7 0.670142 0.480095 0.548844
O O1 0.168302 0.264883 0.551178
O O2 0.084091 0.250043 0.870322
O O3 0.926158 0.202345 0.047751
O O4 0.973283 0.366603 0.964931
O O5 0.701141 0.402998 0.186922
O O6 0.610962 0.301408 0.481064
O O7 0.500000 0.646135 0.750000
O O8 0.670144 0.554223 0.320461
O O9 0.417901 0.566344 0.776064
O O10 0.818033 0.509160 0.718306
O O11 0.000000 0.568866 0.250000
O O12 0.093088 0.491824 0.205881
O O13 0.805214 0.043112 0.396983
O O14 0.418289 0.586353 0.337598
#
# Coordination Sequence:
#
# PCOD9276584 Si02
#       7
#     8   8   8   8   8   4   8
#     4  10  22  39  64  89 126 167 216 259 319 386
#     4  10  20  40  63  91 124 172 213 257 326 382
#     4  12  21  37  65  93 119 161 219 266 309 376
#     4  11  24  43  64  93 133 173 213 261 332 390
#     4  11  22  41  66  95 125 170 213 268 317 393
#     4  12  22  38  68  96 130 174 220 266 318 390
#     4  12  22  38  66  96 125 166 220 265 317 384
#
# _framework density 22.408937999999999
#
# number of rings (size 3 to 8) (size 9 to 14) (size 15 to 20)
#    0.000    0.923    3.846    5.077    0.000    0.000 
#    0.000    4.615    1.692    0.000    0.000    0.000 
#    0.000    0.000    0.000    0.000    0.000    0.000 
#
# Total GULP energy -145373.771925 kJ/mol
# GULP energy per Si atom -5591.298920 kJ/mol
# Density = 2.235793 g / cm^3
# Si number density = 22.408938 Si / 1000 Ang^3
#
#
#
# Elastic Constant Matrix: (Units=GPa)
#
#
# Indices 1 2 3 4 5 6 
#
# 1 84.9550 7.4410 2.8141 0.0000 -3.7088 0.0000
# 2 7.4410 47.8730 15.6219 0.0000 -4.7127 0.0000
# 3 2.8141 15.6219 85.6979 0.0000 -1.7642 0.0000
# 4 0.0000 0.0000 0.0000 16.5268 0.0000 6.1130
# 5 -3.7088 -4.7127 -1.7642 0.0000 37.7919 0.0000
# 6 0.0000 0.0000 0.0000 6.1130 0.0000 16.1361
#
#
#
# Elastic Compliance Matrix: (Units=1/GPa)
#
#
# Indices 1 2 3 4 5 6 
#
# 1 0.011968 -0.001748 -0.000055 0.000000 0.000954 0.000000
# 2 -0.001748 0.022720 -0.004033 0.000000 0.002473 0.000000
# 3 -0.000055 -0.004033 0.012407 0.000000 0.000071 0.000000
# 4 0.000000 0.000000 0.000000 0.070368 0.000000 -0.026659
# 5 0.000954 0.002473 0.000071 0.000000 0.026866 0.000000
# 6 0.000000 0.000000 0.000000 -0.026659 0.000000 0.072072
#
#
# Mechanical properties :
#
#
# Convention : Reuss Voigt Hill
#
# Bulk Modulus (GPa) = 28.23086 30.03110 29.13098
# Shear Modulus (GPa) = 20.84361 26.93421 23.88891
#
# Velocity S-wave (km/s) = 3.05314 3.47066 3.26857
# Velocity P-wave (km/s) = 5.00542 5.43058 5.22233
#
# Compressibility (1/GPa) = 0.03542223
#
# Stress axis : x y z
#
# Youngs Moduli (GPa) = 83.55947 44.01407 80.59712
#
# Poissons Ratio (x) = 0.07695 0.00440
# Poissons Ratio (y) = 0.14610 0.32507
# Poissons Ratio (z) = 0.00457 0.17752
#
# Static dielectric constant tensor:
#      x y z
#    x 1.851920 0.000000 0.008400 
#    y 0.000000 1.508390 0.000000 
#    z 0.008400 0.000000 1.819270 
# 
# From -- ./inp_files/182840.got.cif
#   From: 2010.05.17/outbox.cif.g08.bks.cpg/sg15_92_cif.got.tgz:182840.got - 2010.06.03 18:47:42.
