data_PCOD9276994
_publ_section_title
;
Structure prediction by ZEFSAII (Michael W. Deem and Ramdas Pophale) SiO2 
 PCOD9276994
Probable space group: C 2/C
;
_chemical_formula_sum "Si O2"
_cell_formula_units_Z 64
_cell_length_a 14.560740
_cell_length_b 8.878933
_cell_length_c 24.442005
_cell_angle_alpha 90.000000
_cell_angle_beta 117.525249
_cell_angle_gamma 90.000000
_cell_volume 2802.272059
_symmetry_space_group_name_H-M "C 2/C"
_symmetry_group_IT_number 15
_symmetry_cell_setting 'monoclinic'
loop_
_space_group_symop_operation_xyz
x,y,z
-x,y,1/2-z
-x,-y,-z
x,-y,1/2+z
1/2+x,1/2+y,z
1/2-x,1/2+y,1/2-z
1/2-x,1/2-y,-z
1/2+x,1/2-y,1/2+z
loop_
_atom_site_type_symbol
_atom_site_label
_atom_site_fract_x
_atom_site_fract_y
_atom_site_fract_z
Si Si1 0.481059 0.768421 0.013893
Si Si2 0.656235 0.794460 0.622932
Si Si3 0.232956 0.006990 0.695797
Si Si4 0.350272 0.848537 0.635988
Si Si5 0.674630 0.490687 0.380609
Si Si6 0.027333 0.840282 0.642577
Si Si7 0.556616 0.000667 0.178543
Si Si8 0.648925 0.062725 0.490009
O O1 0.510752 0.662467 0.072296
O O2 0.415528 0.907181 0.022219
O O3 0.404217 0.716883 0.944172
O O4 0.585751 0.826680 0.013331
O O5 0.685838 0.672513 0.676024
O O6 0.756826 0.886423 0.632063
O O7 0.579854 0.919459 0.626942
O O8 0.271567 0.953094 0.646939
O O9 0.140618 0.899244 0.688765
O O10 0.333920 0.001193 0.760921
O O11 0.330044 0.675660 0.646154
O O12 0.466593 0.902019 0.681123
O O13 0.342334 0.874805 0.568605
O O14 0.560803 0.554278 0.357341
O O15 0.737597 0.468533 0.454492
O O16 0.017926 0.669376 0.660812
#
# Coordination Sequence:
#
# PCOD9276994 Si02
#       8
#     8   8   8   8   8   8   8   8
#     4  10  20  40  71 100 135 177 217 280 347 401
#     4  11  24  45  71 101 135 177 228 282 339 404
#     4  12  28  44  69 100 133 184 231 277 336 400
#     4  12  23  44  69 100 136 180 225 278 333 404
#     4  11  26  40  68 104 140 175 222 275 343 405
#     4  12  25  44  69 102 139 176 225 281 338 407
#     4  12  24  49  71  94 136 180 230 284 336 397
#     4  10  20  40  67 100 136 178 217 273 343 403
#
# _framework density 22.838611
#
# number of rings (size 3 to 8) (size 9 to 14) (size 15 to 20)
#    0.000    0.750    2.500    6.000    1.750    1.500 
#    0.000    5.625    0.000    0.000    0.000    0.000 
#    0.000    0.000    0.000    0.000    0.000    0.000 
#
# Total GULP energy -179156.563711 kJ/mol
# GULP energy per Si atom -5598.642616 kJ/mol
# Density = 2.278663 g / cm^3
# Si number density = 22.838611 Si / 1000 Ang^3
#
#
#
# Elastic Constant Matrix: (Units=GPa)
#
#
# Indices 1 2 3 4 5 6 
#
# 1 56.5546 -13.2915 -6.0809 0.0000 17.6734 0.0000
# 2 -13.2915 50.0836 27.7628 0.0000 6.3100 0.0000
# 3 -6.0809 27.7628 61.2788 0.0000 24.8799 0.0000
# 4 0.0000 0.0000 0.0000 17.8335 0.0000 2.9633
# 5 17.6734 6.3100 24.8799 0.0000 37.8320 0.0000
# 6 0.0000 0.0000 0.0000 2.9633 0.0000 18.6647
#
#
#
# Elastic Compliance Matrix: (Units=1/GPa)
#
#
# Indices 1 2 3 4 5 6 
#
# 1 0.024995 0.004732 0.007364 0.000000 -0.017309 0.000000
# 2 0.004732 0.028205 -0.012963 0.000000 0.001610 0.000000
# 3 0.007364 -0.012963 0.031980 0.000000 -0.022310 0.000000
# 4 0.000000 0.000000 0.000000 0.057593 0.000000 -0.009144
# 5 -0.017309 0.001610 -0.022310 0.000000 0.048922 0.000000
# 6 0.000000 0.000000 0.000000 -0.009144 0.000000 0.055029
#
#
# Mechanical properties :
#
#
# Convention : Reuss Voigt Hill
#
# Bulk Modulus (GPa) = 11.98364 20.52197 16.25280
# Shear Modulus (GPa) = 18.09801 25.50115 21.79958
#
# Velocity S-wave (km/s) = 2.81807 3.34515 3.09286
# Velocity P-wave (km/s) = 3.98085 4.89134 4.45939
#
# Compressibility (1/GPa) = 0.08344709
#
# Stress axis : x y z
#
# Youngs Moduli (GPa) = 40.00819 35.45459 31.26914
#
# Poissons Ratio (x) = -0.16777 -0.23027
# Poissons Ratio (y) = -0.18932 0.40533
# Poissons Ratio (z) = -0.29462 0.45958
#
# Static dielectric constant tensor:
#      x y z
#    x 1.812340 0.000000 -0.012540 
#    y 0.000000 1.810510 0.000000 
#    z -0.012540 0.000000 1.882630 
# 
# From -- ./inp_files/313170.got.cif
#   From: 2010.05.17/outbox.cif.g08.bks.cpg/sg15_157_cif.got.tgz:313170.got - 2010.06.03 18:47:42.
