data_PCOD9276151
_publ_section_title
;
Structure prediction by ZEFSAII (Michael W. Deem and Ramdas Pophale) SiO2 
 PCOD9276151
Probable space group: C 2/C
;
_chemical_formula_sum "Si O2"
_cell_formula_units_Z 56
_cell_length_a 7.826396
_cell_length_b 13.541056
_cell_length_c 24.818672
_cell_angle_alpha 90.000000
_cell_angle_beta 129.138190
_cell_angle_gamma 90.000000
_cell_volume 2040.070493
_symmetry_space_group_name_H-M "C 2/C"
_symmetry_group_IT_number 15
_symmetry_cell_setting 'monoclinic'
loop_
_space_group_symop_operation_xyz
x,y,z
-x,y,1/2-z
-x,-y,-z
x,-y,1/2+z
1/2+x,1/2+y,z
1/2-x,1/2+y,1/2-z
1/2-x,1/2-y,-z
1/2+x,1/2-y,1/2+z
loop_
_atom_site_type_symbol
_atom_site_label
_atom_site_fract_x
_atom_site_fract_y
_atom_site_fract_z
Si Si1 0.919816 0.746203 0.415580
Si Si2 0.513831 0.181574 0.639118
Si Si3 0.718587 0.277908 0.764648
Si Si4 0.302568 0.606098 0.462977
Si Si5 0.504773 0.030023 0.561146
Si Si6 0.820896 0.493439 0.668646
Si Si7 0.510248 0.512796 0.308412
O O1 0.674223 0.735462 0.390470
O O2 0.893370 0.747293 0.345020
O O3 0.100109 0.661618 0.453248
O O4 0.002745 0.837319 0.468726
O O5 0.728079 0.225414 0.709636
O O6 0.540967 0.144032 0.584229
O O7 0.434927 0.082490 0.656850
O O8 0.500000 0.233348 0.750000
O O9 0.639343 0.389926 0.736450
O O10 0.257220 0.591157 0.389744
O O11 0.246941 0.495566 0.470907
O O12 0.727133 0.978543 0.629671
O O13 0.500000 0.000000 0.500000
O O14 0.609149 0.526373 0.661747
O O15 0.000000 0.463644 0.750000
O O16 0.500000 0.455125 0.250000
#
# Coordination Sequence:
#
# PCOD9276151 Si02
#       7
#     8   8   8   8   8   8   8
#     4  10  20  39  69  92 125 169 222 279 333 391
#     4  10  22  40  66  92 127 172 224 273 330 399
#     4   9  18  39  66  90 120 165 214 269 326 386
#     4  10  23  41  63  93 131 173 219 269 337 408
#     4  11  25  42  60  96 139 174 217 270 337 414
#     4  11  22  39  67  96 127 173 227 273 332 408
#     4  11  23  41  69  94 132 177 219 275 332 401
#
# _framework density 27.450033000000001
#
# number of rings (size 3 to 8) (size 9 to 14) (size 15 to 20)
#    0.000    1.714    0.000    6.429    4.000    1.143 
#    5.143    1.429    0.000    0.857    0.000    0.000 
#    0.000    0.000    0.000    0.000    0.000    0.000 
#
# Total GULP energy -156004.276005 kJ/mol
# GULP energy per Si atom -5571.581286 kJ/mol
# Density = 2.738756 g / cm^3
# Si number density = 27.450033 Si / 1000 Ang^3
#
#
#
# Elastic Constant Matrix: (Units=GPa)
#
#
# Indices 1 2 3 4 5 6 
#
# 1 75.4142 4.0353 -2.4867 0.0000 -3.7088 0.0000
# 2 4.0353 74.1120 10.4392 0.0000 1.6592 0.0000
# 3 -2.4867 10.4392 123.9626 0.0000 0.2596 0.0000
# 4 0.0000 0.0000 0.0000 36.4378 0.0000 -1.8765
# 5 -3.7088 1.6592 0.2596 0.0000 42.6512 0.0000
# 6 0.0000 0.0000 0.0000 -1.8765 0.0000 44.6309
#
#
#
# Elastic Compliance Matrix: (Units=1/GPa)
#
#
# Indices 1 2 3 4 5 6 
#
# 1 0.013373 -0.000802 0.000333 0.000000 0.001192 0.000000
# 2 -0.000802 0.013715 -0.001170 0.000000 -0.000596 0.000000
# 3 0.000333 -0.001170 0.008172 0.000000 0.000025 0.000000
# 4 0.000000 0.000000 0.000000 0.027504 0.000000 0.001156
# 5 0.001192 -0.000596 0.000025 0.000000 0.023573 0.000000
# 6 0.000000 0.000000 0.000000 0.001156 0.000000 0.022455
#
#
# Mechanical properties :
#
#
# Convention : Reuss Voigt Hill
#
# Bulk Modulus (GPa) = 31.26658 33.05160 32.15909
# Shear Modulus (GPa) = 40.74050 42.17738 41.45894
#
# Velocity S-wave (km/s) = 3.85667 3.92409 3.89053
# Velocity P-wave (km/s) = 5.58990 5.70948 5.65000
#
# Compressibility (1/GPa) = 0.03198304
#
# Stress axis : x y z
#
# Youngs Moduli (GPa) = 74.77966 72.91361 122.36761
#
# Poissons Ratio (x) = 0.05846 -0.04078
# Poissons Ratio (y) = 0.05995 0.14315
# Poissons Ratio (z) = -0.02492 0.08529
#
# Static dielectric constant tensor:
#      x y z
#    x 2.400700 0.000000 0.053330 
#    y 0.000000 2.335470 0.000000 
#    z 0.053330 0.000000 2.263200 
# 
# From -- ./inp_files/265606.got.cif
#   From: 2010.05.17/outbox.cif.g08.bks.cpg/sg15_133_cif.got.tgz:265606.got - 2010.06.03 18:47:42.
