data_PCOD9276264
_publ_section_title
;
Structure prediction by ZEFSAII (Michael W. Deem and Ramdas Pophale) SiO2 
 PCOD9276264
Probable space group: C 2/C
;
_chemical_formula_sum "Si O2"
_cell_formula_units_Z 36
_cell_length_a 15.133424
_cell_length_b 23.144839
_cell_length_c 8.620295
_cell_angle_alpha 90.000000
_cell_angle_beta 145.028507
_cell_angle_gamma 90.000000
_cell_volume 1730.597361
_symmetry_space_group_name_H-M "C 2/C"
_symmetry_group_IT_number 15
_symmetry_cell_setting 'monoclinic'
loop_
_space_group_symop_operation_xyz
x,y,z
-x,y,1/2-z
-x,-y,-z
x,-y,1/2+z
1/2+x,1/2+y,z
1/2-x,1/2+y,1/2-z
1/2-x,1/2-y,-z
1/2+x,1/2-y,1/2+z
loop_
_atom_site_type_symbol
_atom_site_label
_atom_site_fract_x
_atom_site_fract_y
_atom_site_fract_z
Si Si1 0.000000 0.631539 0.250000
Si Si2 0.758167 0.921282 0.995294
Si Si3 0.000000 0.823593 0.250000
Si Si4 0.885891 0.024798 0.966740
Si Si5 0.000000 0.260657 0.250000
Si Si6 0.836861 0.277437 0.323019
O O1 0.080753 0.596312 0.228916
O O2 0.128371 0.674500 0.501143
O O3 0.771135 0.940051 0.194694
O O4 0.871737 0.867640 0.130151
O O5 0.808139 0.972960 0.952133
O O6 0.087200 0.781822 0.499018
O O7 0.000000 0.057547 0.250000
O O8 0.000000 0.000000 0.000000
O O9 0.930595 0.292426 0.300831
O O10 0.154908 0.227777 0.529133
#
# Coordination Sequence:
#
# PCOD9276264 Si02
#       6
#     4   8   4   8   4   8
#     4  11  24  40  58  95 128 169 198 249 318 386
#     4  11  21  38  64  90 123 162 211 251 316 363
#     4  11  20  38  66  87 120 179 202 247 308 380
#     4   9  18  39  60  87 114 152 209 264 291 364
#     4  10  20  40  58  84 124 168 200 268 288 340
#     4  10  22  40  61  90 132 160 209 250 304 372
#
# _framework density 20.802064000000001
#
# number of rings (size 3 to 8) (size 9 to 14) (size 15 to 20)
#    0.000    1.778    3.333    2.667    0.000    4.444 
#   12.000    2.222    0.000    1.333    0.000    0.000 
#    0.000    0.000    0.000    0.000    0.000    0.000 
#
# Total GULP energy -100249.332934 kJ/mol
# GULP energy per Si atom -5569.407385 kJ/mol
# Density = 2.075472 g / cm^3
# Si number density = 20.802064 Si / 1000 Ang^3
#
#
#
# Elastic Constant Matrix: (Units=GPa)
#
#
# Indices 1 2 3 4 5 6 
#
# 1 131.4828 39.5661 31.7524 0.0000 16.6978 0.0000
# 2 39.5661 89.2366 22.1216 0.0000 0.8336 0.0000
# 3 31.7524 22.1216 72.8374 0.0000 3.0257 0.0000
# 4 0.0000 0.0000 0.0000 -14.0325 0.0000 -28.3997
# 5 16.6978 0.8336 3.0257 0.0000 45.5002 0.0000
# 6 0.0000 0.0000 0.0000 -28.3997 0.0000 -44.4130
#
#
#
# Elastic Compliance Matrix: (Units=1/GPa)
#
#
# Indices 1 2 3 4 5 6 
#
# 1 0.009847 -0.003574 -0.003068 0.000000 -0.003344 0.000000
# 2 -0.003574 0.013416 -0.002568 0.000000 0.001237 0.000000
# 3 -0.003068 -0.002568 0.015842 0.000000 0.000120 0.000000
# 4 0.000000 0.000000 0.000000 0.242274 0.000000 -0.154921
# 5 -0.003344 0.001237 0.000120 0.000000 0.023175 0.000000
# 6 0.000000 0.000000 0.000000 -0.154921 0.000000 0.076548
#
#
# Mechanical properties :
#
#
# Convention : Reuss Voigt Hill
#
# Bulk Modulus (GPa) = 48.34630 53.38188 50.86409
# Shear Modulus (GPa) = 12.30269 10.75207 11.52738
#
# Velocity S-wave (km/s) = 2.43454 2.27596 2.35658
# Velocity P-wave (km/s) = 5.58518 5.71176 5.64882
#
# Compressibility (1/GPa) = 0.02068411
#
# Stress axis : x y z
#
# Youngs Moduli (GPa) = 101.55711 74.53864 63.12479
#
# Poissons Ratio (x) = 0.26640 0.19367
# Poissons Ratio (y) = 0.36297 0.16210
# Poissons Ratio (z) = 0.31159 0.19141
#
# Static dielectric constant tensor:
#      x y z
#    x 1.794760 0.000000 0.056780 
#    y 0.000000 1.745090 0.000000 
#    z 0.056780 0.000000 1.903110 
# 
# From -- ./inp_files/30133.got.cif
#   From: 2010.05.17/outbox.cif.g08.bks.cpg/sg15_16_cif.got.tgz:30133.got - 2010.06.03 18:47:42.
