data_PCOD9276086
_publ_section_title
;
Structure prediction by ZEFSAII (Michael W. Deem and Ramdas Pophale) SiO2 
 PCOD9276086
Probable space group: C 2/C
;
_chemical_formula_sum "Si O2"
_cell_formula_units_Z 44
_cell_length_a 7.978953
_cell_length_b 16.038096
_cell_length_c 13.155614
_cell_angle_alpha 90.000000
_cell_angle_beta 97.787376
_cell_angle_gamma 90.000000
_cell_volume 1667.961681
_symmetry_space_group_name_H-M "C 2/C"
_symmetry_group_IT_number 15
_symmetry_cell_setting 'monoclinic'
loop_
_space_group_symop_operation_xyz
x,y,z
-x,y,1/2-z
-x,-y,-z
x,-y,1/2+z
1/2+x,1/2+y,z
1/2-x,1/2+y,1/2-z
1/2-x,1/2-y,-z
1/2+x,1/2-y,1/2+z
loop_
_atom_site_type_symbol
_atom_site_label
_atom_site_fract_x
_atom_site_fract_y
_atom_site_fract_z
Si Si1 0.286046 0.970278 0.791175
Si Si2 0.432043 0.149328 0.460925
Si Si3 0.636292 0.835088 0.174769
Si Si4 0.602416 0.339223 0.053215
Si Si5 0.046393 0.942961 0.601216
Si Si6 0.500000 0.673395 0.750000
O O1 0.419791 0.913701 0.865393
O O2 0.113549 0.952981 0.838722
O O3 0.223711 0.950470 0.672124
O O4 0.336394 0.066465 0.800165
O O5 0.585690 0.160800 0.551705
O O6 0.385901 0.241927 0.419296
O O7 0.280521 0.127774 0.527974
O O8 0.500000 0.805516 0.250000
O O9 0.817191 0.788999 0.204930
O O10 0.544717 0.379554 0.153550
O O11 0.471960 0.351822 0.951482
O O12 0.000000 0.000000 0.500000
#
# Coordination Sequence:
#
# PCOD9276086 Si02
#       6
#     8   8   8   8   8   4
#     4  10  22  39  64  96 135 178 228 281 345 408
#     4  10  23  44  66 100 140 183 226 286 345 416
#     4  12  24  43  69 100 136 181 226 289 346 407
#     4  10  22  43  70  98 139 181 228 282 349 413
#     4  10  20  39  67  99 133 179 230 282 342 410
#     4  12  24  44  70 100 132 180 232 280 350 418
#
# _framework density 26.379501000000001
#
# number of rings (size 3 to 8) (size 9 to 14) (size 15 to 20)
#    0.000    1.455    1.818    3.818    2.545    2.182 
#    8.182    0.000    0.000    0.000    0.000    0.000 
#    0.000    0.000    0.000    0.000    0.000    0.000 
#
# Total GULP energy -122844.704587 kJ/mol
# GULP energy per Si atom -5583.850209 kJ/mol
# Density = 2.631946 g / cm^3
# Si number density = 26.379501 Si / 1000 Ang^3
#
#
#
# Elastic Constant Matrix: (Units=GPa)
#
#
# Indices 1 2 3 4 5 6 
#
# 1 148.1702 3.5481 57.8516 0.0000 8.4774 0.0000
# 2 3.5481 42.3958 4.9740 0.0000 -1.9083 0.0000
# 3 57.8516 4.9740 165.4398 0.0000 31.1825 0.0000
# 4 0.0000 0.0000 0.0000 32.7857 0.0000 10.3137
# 5 8.4774 -1.9083 31.1825 0.0000 44.2941 0.0000
# 6 0.0000 0.0000 0.0000 10.3137 0.0000 20.0964
#
#
#
# Elastic Compliance Matrix: (Units=1/GPa)
#
#
# Indices 1 2 3 4 5 6 
#
# 1 0.007829 -0.000303 -0.002818 0.000000 0.000472 0.000000
# 2 -0.000303 0.023801 -0.000938 0.000000 0.001744 0.000000
# 3 -0.002818 -0.000938 0.008029 0.000000 -0.005154 0.000000
# 4 0.000000 0.000000 0.000000 0.036373 0.000000 -0.018667
# 5 0.000472 0.001744 -0.005154 0.000000 0.026189 0.000000
# 6 0.000000 0.000000 0.000000 -0.018667 0.000000 0.059340
#
#
# Mechanical properties :
#
#
# Convention : Reuss Voigt Hill
#
# Bulk Modulus (GPa) = 31.70433 54.30592 43.00512
# Shear Modulus (GPa) = 27.74762 38.74403 33.24582
#
# Velocity S-wave (km/s) = 3.24676 3.83654 3.55391
# Velocity P-wave (km/s) = 5.10881 6.34480 5.76005
#
# Compressibility (1/GPa) = 0.03154143
#
# Stress axis : x y z
#
# Youngs Moduli (GPa) = 127.72402 42.01464 124.54254
#
# Poissons Ratio (x) = 0.01275 0.35092
# Poissons Ratio (y) = 0.03875 0.11685
# Poissons Ratio (z) = 0.35988 0.03942
#
# Static dielectric constant tensor:
#      x y z
#    x 2.149470 0.000000 0.005200 
#    y 0.000000 2.205440 0.000000 
#    z 0.005200 0.000000 2.106580 
# 
# From -- ./inp_files/78297.got.cif
#   From: 2010.05.17/outbox.cif.g08.bks.cpg/sg15_40_cif.got.tgz:78297.got - 2010.06.03 18:47:42.
