data_PCOD9276331
_publ_section_title
;
Structure prediction by ZEFSAII (Michael W. Deem and Ramdas Pophale) SiO2 
 PCOD9276331
Probable space group: C 2/C
;
_chemical_formula_sum "Si O2"
_cell_formula_units_Z 36
_cell_length_a 13.236422
_cell_length_b 7.407559
_cell_length_c 17.796914
_cell_angle_alpha 90.000000
_cell_angle_beta 107.024296
_cell_angle_gamma 90.000000
_cell_volume 1668.516075
_symmetry_space_group_name_H-M "C 2/C"
_symmetry_group_IT_number 15
_symmetry_cell_setting 'monoclinic'
loop_
_space_group_symop_operation_xyz
x,y,z
-x,y,1/2-z
-x,-y,-z
x,-y,1/2+z
1/2+x,1/2+y,z
1/2-x,1/2+y,1/2-z
1/2-x,1/2-y,-z
1/2+x,1/2-y,1/2+z
loop_
_atom_site_type_symbol
_atom_site_label
_atom_site_fract_x
_atom_site_fract_y
_atom_site_fract_z
Si Si1 0.736333 0.161610 0.313297
Si Si2 0.431487 0.116740 0.592419
Si Si3 0.235039 0.758770 0.846293
Si Si4 0.500000 0.895330 0.750000
Si Si5 0.859619 0.571714 0.941371
O O1 0.793041 0.183685 0.244837
O O2 0.612430 0.202598 0.270527
O O3 0.776660 0.295622 0.385451
O O4 0.751768 0.955866 0.342629
O O5 0.358424 0.271510 0.612006
O O6 0.527100 0.156389 0.556649
O O7 0.487270 0.020931 0.674599
O O8 0.361016 0.974822 0.529465
O O9 0.332153 0.878870 0.896178
#
# Coordination Sequence:
#
# PCOD9276331 Si02
#       5
#     8   8   8   4   8
#     4  11  22  40  66  90 130 169 221 265 322 396
#     4  10  22  40  68  91 132 167 214 274 333 378
#     4  11  21  40  64  92 127 173 210 265 328 386
#     4  10  20  40  60  88 128 176 206 272 330 378
#     4  11  22  43  64  97 128 168 217 276 323 392
#
# _framework density 21.576059999999998
#
# number of rings (size 3 to 8) (size 9 to 14) (size 15 to 20)
#    0.000    1.333    4.444    2.000    0.000    3.556 
#    4.000    5.556    0.000    0.000    0.000    0.000 
#    0.000    0.000    0.000    0.000    0.000    0.000 
#
# Total GULP energy -100364.690848 kJ/mol
# GULP energy per Si atom -5575.816158 kJ/mol
# Density = 2.152695 g / cm^3
# Si number density = 21.576060 Si / 1000 Ang^3
#
#
#
# Elastic Constant Matrix: (Units=GPa)
#
#
# Indices 1 2 3 4 5 6 
#
# 1 88.3266 22.9946 -3.9726 0.0000 -3.1743 0.0000
# 2 22.9946 79.5127 29.6835 0.0000 9.5743 0.0000
# 3 -3.9726 29.6835 97.9752 0.0000 12.3849 0.0000
# 4 0.0000 0.0000 0.0000 2.5554 0.0000 2.4848
# 5 -3.1743 9.5743 12.3849 0.0000 36.4179 0.0000
# 6 0.0000 0.0000 0.0000 2.4848 0.0000 26.1849
#
#
#
# Elastic Compliance Matrix: (Units=1/GPa)
#
#
# Indices 1 2 3 4 5 6 
#
# 1 0.012622 -0.004473 0.001650 0.000000 0.001715 0.000000
# 2 -0.004473 0.015964 -0.004637 0.000000 -0.003010 0.000000
# 3 0.001650 -0.004637 0.012023 0.000000 -0.002726 0.000000
# 4 0.000000 0.000000 0.000000 0.431106 0.000000 -0.040910
# 5 0.001715 -0.003010 -0.002726 0.000000 0.029327 0.000000
# 6 0.000000 0.000000 0.000000 -0.040910 0.000000 0.042072
#
#
# Mechanical properties :
#
#
# Convention : Reuss Voigt Hill
#
# Bulk Modulus (GPa) = 38.92763 40.35839 39.64301
# Shear Modulus (GPa) = 8.82463 27.50558 18.16510
#
# Velocity S-wave (km/s) = 2.02457 3.57433 2.90472
# Velocity P-wave (km/s) = 4.85246 5.98166 5.44641
#
# Compressibility (1/GPa) = 0.02568869
#
# Stress axis : x y z
#
# Youngs Moduli (GPa) = 79.22760 62.64210 83.17300
#
# Poissons Ratio (x) = 0.28018 -0.13724
# Poissons Ratio (y) = 0.35436 0.38571
# Poissons Ratio (z) = -0.13073 0.29050
#
# Static dielectric constant tensor:
#      x y z
#    x 1.908140 0.000000 -0.027770 
#    y 0.000000 1.758530 0.000000 
#    z -0.027770 0.000000 1.780060 
# 
# From -- ./inp_files/194906.got.cif
#   From: 2010.05.17/outbox.cif.g08.bks.cpg/sg15_98_cif.got.tgz:194906.got - 2010.06.03 18:47:42.
