data_PCOD9276825
_publ_section_title
;
Structure prediction by ZEFSAII (Michael W. Deem and Ramdas Pophale) SiO2 
 PCOD9276825
Probable space group: C 2/C
;
_chemical_formula_sum "Si O2"
_cell_formula_units_Z 64
_cell_length_a 25.352348
_cell_length_b 15.808519
_cell_length_c 11.874977
_cell_angle_alpha 90.000000
_cell_angle_beta 41.719292
_cell_angle_gamma 90.000000
_cell_volume 3167.220345
_symmetry_space_group_name_H-M "C 2/C"
_symmetry_group_IT_number 15
_symmetry_cell_setting 'monoclinic'
loop_
_space_group_symop_operation_xyz
x,y,z
-x,y,1/2-z
-x,-y,-z
x,-y,1/2+z
1/2+x,1/2+y,z
1/2-x,1/2+y,1/2-z
1/2-x,1/2-y,-z
1/2+x,1/2-y,1/2+z
loop_
_atom_site_type_symbol
_atom_site_label
_atom_site_fract_x
_atom_site_fract_y
_atom_site_fract_z
Si Si1 0.296666 0.319185 0.081994
Si Si2 0.491656 0.099942 0.136859
Si Si3 0.595709 0.064077 0.782627
Si Si4 0.359339 0.711211 0.162431
Si Si5 0.872923 0.740081 0.383679
Si Si6 0.723731 0.438029 0.583345
Si Si7 0.289048 0.365266 0.349354
Si Si8 0.560796 0.232711 0.745836
O O1 0.208655 0.281919 0.207165
O O2 0.312190 0.343552 0.184955
O O3 0.310254 0.398551 0.978378
O O4 0.354812 0.245885 0.948072
O O5 0.500000 0.068826 0.250000
O O6 0.448563 0.189908 0.215450
O O7 0.434575 0.031737 0.170092
O O8 0.576523 0.095270 0.940525
O O9 0.682098 0.067071 0.590955
O O10 0.544693 0.134144 0.796454
O O11 0.313540 0.622820 0.261296
O O12 0.426348 0.723201 0.152417
O O13 0.383913 0.724955 0.993485
O O14 0.800523 0.671910 0.497946
O O15 0.843793 0.814492 0.349076
O O16 0.706494 0.535449 0.634516
O O17 0.500000 0.266968 0.750000
#
# Coordination Sequence:
#
# PCOD9276825 Si02
#       8
#     8   8   8   8   8   8   8   8
#     4  10  21  39  63  90 126 161 216 266 315 379
#     4  11  24  39  57  90 136 172 205 247 319 405
#     4  11  22  38  59  95 129 171 207 249 323 389
#     4  10  20  40  65  92 122 171 216 261 325 377
#     4  10  22  42  59  86 132 170 214 250 322 393
#     4  11  20  38  67  94 127 161 217 270 320 375
#     4  10  23  38  61  94 119 167 210 271 318 363
#     4  11  21  37  63  93 124 161 213 263 313 377
#
# _framework density 20.206993000000001
#
# number of rings (size 3 to 8) (size 9 to 14) (size 15 to 20)
#    0.000    1.500    3.750    1.875    5.250    0.000 
#    0.000    0.000    0.000    6.000    0.000    0.000 
#    0.000    0.000    0.000    0.000    0.000    0.000 
#
# Total GULP energy -178439.914524 kJ/mol
# GULP energy per Si atom -5576.247329 kJ/mol
# Density = 2.016100 g / cm^3
# Si number density = 20.206993 Si / 1000 Ang^3
#
#
#
# Elastic Constant Matrix: (Units=GPa)
#
#
# Indices 1 2 3 4 5 6 
#
# 1 104.9837 37.0178 34.9229 0.0000 23.4548 0.0000
# 2 37.0178 150.1601 56.5278 0.0000 18.7503 0.0000
# 3 34.9229 56.5278 92.3118 0.0000 15.3106 0.0000
# 4 0.0000 0.0000 0.0000 16.8308 0.0000 6.6767
# 5 23.4548 18.7503 15.3106 0.0000 30.6974 0.0000
# 6 0.0000 0.0000 0.0000 6.6767 0.0000 14.8343
#
#
#
# Elastic Compliance Matrix: (Units=1/GPa)
#
#
# Indices 1 2 3 4 5 6 
#
# 1 0.012524 -0.001086 -0.002830 0.000000 -0.007494 0.000000
# 2 -0.001086 0.008989 -0.004710 0.000000 -0.002311 0.000000
# 3 -0.002830 -0.004710 0.015210 0.000000 -0.002547 0.000000
# 4 0.000000 0.000000 0.000000 0.072329 0.000000 -0.032554
# 5 -0.007494 -0.002311 -0.002547 0.000000 0.040984 0.000000
# 6 0.000000 0.000000 0.000000 -0.032554 0.000000 0.082063
#
#
# Mechanical properties :
#
#
# Convention : Reuss Voigt Hill
#
# Bulk Modulus (GPa) = 51.35965 67.15474 59.25720
# Shear Modulus (GPa) = 19.54324 27.07163 23.30744
#
# Velocity S-wave (km/s) = 3.11328 3.66418 3.39991
# Velocity P-wave (km/s) = 6.19640 7.15592 6.69337
#
# Compressibility (1/GPa) = 0.01947054
#
# Stress axis : x y z
#
# Youngs Moduli (GPa) = 79.84677 111.24513 65.74544
#
# Poissons Ratio (x) = 0.12085 0.18605
# Poissons Ratio (y) = 0.08674 0.30968
# Poissons Ratio (z) = 0.22595 0.52399
#
# Static dielectric constant tensor:
#      x y z
#    x 1.758700 0.000000 -0.016470 
#    y 0.000000 1.718830 0.000000 
#    z -0.016470 0.000000 1.749830 
# 
# From -- ./inp_files/123514.got.cif
#   From: 2010.05.17/outbox.cif.g08.bks.cpg/sg15_62_cif.got.tgz:123514.got - 2010.06.03 18:47:42.
