data_PCOD9276648
_publ_section_title
;
Structure prediction by ZEFSAII (Michael W. Deem and Ramdas Pophale) SiO2 
 PCOD9276648
Probable space group: C 2/C
;
_chemical_formula_sum "Si O2"
_cell_formula_units_Z 56
_cell_length_a 9.667198
_cell_length_b 12.822300
_cell_length_c 24.146925
_cell_angle_alpha 90.000000
_cell_angle_beta 123.454482
_cell_angle_gamma 90.000000
_cell_volume 2497.256416
_symmetry_space_group_name_H-M "C 2/C"
_symmetry_group_IT_number 15
_symmetry_cell_setting 'monoclinic'
loop_
_space_group_symop_operation_xyz
x,y,z
-x,y,1/2-z
-x,-y,-z
x,-y,1/2+z
1/2+x,1/2+y,z
1/2-x,1/2+y,1/2-z
1/2-x,1/2-y,-z
1/2+x,1/2-y,1/2+z
loop_
_atom_site_type_symbol
_atom_site_label
_atom_site_fract_x
_atom_site_fract_y
_atom_site_fract_z
Si Si1 0.897779 0.978421 0.782732
Si Si2 0.758243 0.514188 0.035173
Si Si3 0.626415 0.754941 0.230019
Si Si4 0.536537 0.331436 0.003021
Si Si5 0.052711 0.822499 0.136580
Si Si6 0.819093 0.637950 0.936888
Si Si7 0.594099 0.045788 0.653692
O O1 0.931361 0.858612 0.801730
O O2 0.000000 0.011258 0.750000
O O3 0.928545 0.057605 0.839005
O O4 0.708287 0.984486 0.721288
O O5 0.679773 0.399799 0.005944
O O6 0.910376 0.496523 0.109648
O O7 0.618500 0.588573 0.029895
O O8 0.819353 0.575382 0.994474
O O9 0.500000 0.789551 0.250000
O O10 0.811019 0.760991 0.297275
O O11 0.609531 0.835832 0.177325
O O12 0.585262 0.313589 0.078445
O O13 0.467424 0.221648 0.966070
O O14 0.857856 0.801245 0.104231
O O15 0.832884 0.552159 0.891923
#
# Coordination Sequence:
#
# PCOD9276648 Si02
#       7
#     8   8   8   8   8   8   8
#     4  10  21  40  62  88 119 166 204 264 321 373
#     4  10  22  41  60  93 129 165 209 272 318 391
#     4  10  23  39  63  93 119 168 212 265 326 380
#     4  10  23  40  63  92 129 172 217 259 337 394
#     4  10  20  40  64  86 131 163 214 270 314 399
#     4  11  23  40  65  95 125 177 211 266 336 392
#     4  11  23  40  64  92 129 157 219 260 318 397
#
# _framework density 22.424610000000001
#
# number of rings (size 3 to 8) (size 9 to 14) (size 15 to 20)
#    0.000    1.714    1.429    3.000    4.000    4.000 
#    0.000    0.000    3.143    0.000    0.000    0.000 
#    0.000    0.000    0.000    0.000    0.000    0.000 
#
# Total GULP energy -156485.458734 kJ/mol
# GULP energy per Si atom -5588.766383 kJ/mol
# Density = 2.237357 g / cm^3
# Si number density = 22.424610 Si / 1000 Ang^3
#
#
#
# Elastic Constant Matrix: (Units=GPa)
#
#
# Indices 1 2 3 4 5 6 
#
# 1 30.9141 9.6741 4.5763 0.0000 11.9222 0.0000
# 2 9.6741 35.1930 17.5061 0.0000 -0.2018 0.0000
# 3 4.5763 17.5061 85.4856 0.0000 19.2917 0.0000
# 4 0.0000 0.0000 0.0000 -7.0098 0.0000 2.6989
# 5 11.9222 -0.2018 19.2917 0.0000 18.6752 0.0000
# 6 0.0000 0.0000 0.0000 2.6989 0.0000 15.7812
#
#
#
# Elastic Compliance Matrix: (Units=1/GPa)
#
#
# Indices 1 2 3 4 5 6 
#
# 1 0.056382 -0.022057 0.012616 0.000000 -0.049265 0.000000
# 2 -0.022057 0.041519 -0.013823 0.000000 0.028809 0.000000
# 3 0.012616 -0.013823 0.020478 0.000000 -0.029358 0.000000
# 4 0.000000 0.000000 0.000000 -0.133844 0.000000 0.022890
# 5 -0.049265 0.028809 -0.029358 0.000000 0.115636 0.000000
# 6 0.000000 0.000000 0.000000 0.022890 0.000000 0.059452
#
#
# Mechanical properties :
#
#
# Convention : Reuss Voigt Hill
#
# Bulk Modulus (GPa) = 13.91745 23.90063 18.90904
# Shear Modulus (GPa) = 21.72962 13.47841 17.60401
#
# Velocity S-wave (km/s) = 3.11627 2.45430 2.80488
# Velocity P-wave (km/s) = 4.37812 4.32583 4.35205
#
# Compressibility (1/GPa) = 0.07185226
#
# Stress axis : x y z
#
# Youngs Moduli (GPa) = 17.73623 24.08533 48.83175
#
# Poissons Ratio (x) = 0.53125 -0.61608
# Poissons Ratio (y) = 0.39120 0.67500
# Poissons Ratio (z) = -0.22377 0.33293
#
# Static dielectric constant tensor:
#      x y z
#    x 1.840930 0.000000 0.035300 
#    y 0.000000 1.820890 0.000000 
#    z 0.035300 0.000000 1.807520 
# 
# From -- ./inp_files/292294.got.cif
#   From: 2010.05.17/outbox.cif.g08.bks.cpg/sg15_147_cif.got.tgz:292294.got - 2010.06.03 18:47:42.
