data_PCOD9276691
_publ_section_title
;
Structure prediction by ZEFSAII (Michael W. Deem and Ramdas Pophale) SiO2 
 PCOD9276691
Probable space group: C 2/C
;
_chemical_formula_sum "Si O2"
_cell_formula_units_Z 56
_cell_length_a 21.770773
_cell_length_b 12.550640
_cell_length_c 10.293716
_cell_angle_alpha 90.000000
_cell_angle_beta 52.513414
_cell_angle_gamma 90.000000
_cell_volume 2231.806606
_symmetry_space_group_name_H-M "C 2/C"
_symmetry_group_IT_number 15
_symmetry_cell_setting 'monoclinic'
loop_
_space_group_symop_operation_xyz
x,y,z
-x,y,1/2-z
-x,-y,-z
x,-y,1/2+z
1/2+x,1/2+y,z
1/2-x,1/2+y,1/2-z
1/2-x,1/2-y,-z
1/2+x,1/2-y,1/2+z
loop_
_atom_site_type_symbol
_atom_site_label
_atom_site_fract_x
_atom_site_fract_y
_atom_site_fract_z
Si Si1 0.732851 0.884498 0.392553
Si Si2 0.619569 0.302827 0.674428
Si Si3 0.708208 0.343677 0.907192
Si Si4 0.953120 0.815510 0.017454
Si Si5 0.389262 0.099063 0.122738
Si Si6 0.365227 0.487895 0.668888
Si Si7 0.378268 0.065215 0.853258
O O1 0.696174 0.778823 0.384344
O O2 0.785514 0.850476 0.446825
O O3 0.792207 0.939485 0.222051
O O4 0.677010 0.972851 0.520246
O O5 0.541260 0.302866 0.861480
O O6 0.593752 0.318712 0.559254
O O7 0.659508 0.408404 0.681753
O O8 0.654049 0.183234 0.638673
O O9 0.795169 0.378115 0.744488
O O10 0.634684 0.408904 0.952474
O O11 0.925241 0.709820 0.127997
O O12 0.932872 0.928753 0.108415
O O13 0.407266 0.995226 0.186379
O O14 0.422835 0.087501 0.932602
#
# Coordination Sequence:
#
# PCOD9276691 Si02
#       7
#     8   8   8   8   8   8   8
#     4  10  21  36  56  89 127 163 197 253 330 381
#     4  10  24  40  61  89 121 172 218 259 309 384
#     4  10  21  35  56  91 125 161 197 254 329 382
#     4  10  22  44  60  84 128 172 210 260 331 369
#     4  10  20  40  64  90 129 168 212 263 327 384
#     4  12  21  36  64  91 119 159 211 265 307 386
#     4  10  22  39  63  93 126 167 212 265 315 387
#
# _framework density 25.09178
#
# number of rings (size 3 to 8) (size 9 to 14) (size 15 to 20)
#    0.000    1.714    2.857    1.286    2.000    1.143 
#    0.000    0.000    0.000    0.000    0.000    0.000 
#    0.000    0.000    0.000    0.000    0.000    0.000 
#
# Total GULP energy -156105.528373 kJ/mol
# GULP energy per Si atom -5575.197442 kJ/mol
# Density = 2.503467 g / cm^3
# Si number density = 25.091780 Si / 1000 Ang^3
#
#
#
# Elastic Constant Matrix: (Units=GPa)
#
#
# Indices 1 2 3 4 5 6 
#
# 1 26.0150 28.1322 -2.2206 0.0000 9.7915 0.0000
# 2 28.1322 194.3102 28.8184 0.0000 0.3171 0.0000
# 3 -2.2206 28.8184 62.0724 0.0000 6.3780 0.0000
# 4 0.0000 0.0000 0.0000 43.0847 0.0000 6.0360
# 5 9.7915 0.3171 6.3780 0.0000 33.9620 0.0000
# 6 0.0000 0.0000 0.0000 6.0360 0.0000 18.2445
#
#
#
# Elastic Compliance Matrix: (Units=1/GPa)
#
#
# Indices 1 2 3 4 5 6 
#
# 1 0.055695 -0.009233 0.008076 0.000000 -0.017488 0.000000
# 2 -0.009233 0.007064 -0.003953 0.000000 0.003338 0.000000
# 3 0.008076 -0.003953 0.018833 0.000000 -0.005828 0.000000
# 4 0.000000 0.000000 0.000000 0.024338 0.000000 -0.008052
# 5 -0.017488 0.003338 -0.005828 0.000000 0.035550 0.000000
# 6 0.000000 0.000000 0.000000 -0.008052 0.000000 0.057475
#
#
# Mechanical properties :
#
#
# Convention : Reuss Voigt Hill
#
# Bulk Modulus (GPa) = 14.01102 43.53972 28.77537
# Shear Modulus (GPa) = 21.46244 34.23609 27.84927
#
# Velocity S-wave (km/s) = 2.92782 3.69783 3.33512
# Velocity P-wave (km/s) = 4.12620 5.96840 5.13066
#
# Compressibility (1/GPa) = 0.07137241
#
# Stress axis : x y z
#
# Youngs Moduli (GPa) = 17.95500 141.56436 53.09776
#
# Poissons Ratio (x) = 1.30702 -0.42881
# Poissons Ratio (y) = 0.16577 0.20989
# Poissons Ratio (z) = -0.14500 0.55959
#
# Static dielectric constant tensor:
#      x y z
#    x 2.044210 0.000000 0.023580 
#    y 0.000000 2.174170 0.000000 
#    z 0.023580 0.000000 2.049130 
# 
# From -- ./inp_files/111135.got.cif
#   From: 2010.05.17/outbox.cif.g08.bks.cpg/sg15_56_cif.got.tgz:111135.got - 2010.06.03 18:47:42.
