data_PCOD9276784
_publ_section_title
;
Structure prediction by ZEFSAII (Michael W. Deem and Ramdas Pophale) SiO2 
 PCOD9276784
Probable space group: C 2/C
;
_chemical_formula_sum "Si O2"
_cell_formula_units_Z 48
_cell_length_a 16.213318
_cell_length_b 16.663195
_cell_length_c 18.247313
_cell_angle_alpha 90.000000
_cell_angle_beta 31.392746
_cell_angle_gamma 90.000000
_cell_volume 2567.939334
_symmetry_space_group_name_H-M "C 2/C"
_symmetry_group_IT_number 15
_symmetry_cell_setting 'monoclinic'
loop_
_space_group_symop_operation_xyz
x,y,z
-x,y,1/2-z
-x,-y,-z
x,-y,1/2+z
1/2+x,1/2+y,z
1/2-x,1/2+y,1/2-z
1/2-x,1/2-y,-z
1/2+x,1/2-y,1/2+z
loop_
_atom_site_type_symbol
_atom_site_label
_atom_site_fract_x
_atom_site_fract_y
_atom_site_fract_z
Si Si1 0.228370 0.435052 0.691731
Si Si2 0.819711 0.263871 0.367448
Si Si3 0.175781 0.094132 0.215476
Si Si4 0.822240 0.073813 0.526699
Si Si5 0.184159 0.328633 0.589267
Si Si6 0.638833 0.011970 0.040821
O O1 0.270389 0.409113 0.741216
O O2 0.331585 0.508564 0.583189
O O3 0.251415 0.363182 0.615256
O O4 0.047788 0.470045 0.826630
O O5 0.750000 0.250000 0.500000
O O6 0.802896 0.182895 0.333910
O O7 0.727791 0.339877 0.404657
O O8 0.000000 0.282852 0.250000
O O9 0.987438 0.077281 0.357912
O O10 0.276873 0.029678 0.092171
O O11 0.686284 0.045035 0.573087
O O12 0.250000 0.250000 0.500000
O O13 0.204848 0.401590 0.515933
O O14 0.000000 0.317130 0.750000
#
# Coordination Sequence:
#
# PCOD9276784 Si02
#       6
#     8   8   8   8   8   8
#     4  10  23  41  60  89 124 156 202 260 308 349
#     4  12  22  40  62  91 124 164 207 247 302 377
#     4  12  23  39  58  97 126 151 205 258 307 358
#     4  11  22  40  64  87 122 166 204 246 301 371
#     4   9  20  40  60  83 111 157 209 242 290 365
#     4  10  20  40  65  83 117 164 205 243 299 376
#
# _framework density 18.692031
#
# number of rings (size 3 to 8) (size 9 to 14) (size 15 to 20)
#    0.000    1.333    3.333    4.000    0.000    2.667 
#    9.000    0.000    0.000    0.000    0.000    0.000 
#    0.000    0.000    0.000    0.000    0.000    0.000 
#
# Total GULP energy -133888.656184 kJ/mol
# GULP energy per Si atom -5578.694008 kJ/mol
# Density = 1.864949 g / cm^3
# Si number density = 18.692031 Si / 1000 Ang^3
#
#
#
# Elastic Constant Matrix: (Units=GPa)
#
#
# Indices 1 2 3 4 5 6 
#
# 1 89.6715 46.2038 34.4693 0.0002 21.0630 0.0002
# 2 46.2038 159.5958 70.0469 0.0011 25.7304 -0.0006
# 3 34.4693 70.0469 105.2276 0.0024 12.4857 -0.0014
# 4 0.0002 0.0011 0.0024 47.3633 -0.0009 12.1288
# 5 21.0630 25.7304 12.4857 -0.0009 34.6844 0.0003
# 6 0.0002 -0.0006 -0.0014 12.1288 0.0003 14.1139
#
#
#
# Elastic Compliance Matrix: (Units=1/GPa)
#
#
# Indices 1 2 3 4 5 6 
#
# 1 0.014767 -0.002041 -0.002710 0.000000 -0.006478 -0.000001
# 2 -0.002041 0.009913 -0.005437 0.000000 -0.004157 0.000000
# 3 -0.002710 -0.005437 0.013931 -0.000001 0.000664 0.000002
# 4 0.000000 0.000000 -0.000001 0.027071 0.000001 -0.023263
# 5 -0.006478 -0.004157 0.000664 0.000001 0.035610 -0.000002
# 6 -0.000001 0.000000 0.000002 -0.023263 -0.000002 0.090844
#
#
# Mechanical properties :
#
#
# Convention : Reuss Voigt Hill
#
# Bulk Modulus (GPa) = 54.83885 72.88167 63.86026
# Shear Modulus (GPa) = 22.87381 32.81730 27.84555
#
# Velocity S-wave (km/s) = 3.50197 4.19463 3.86385
# Velocity P-wave (km/s) = 6.76413 7.90793 7.35829
#
# Compressibility (1/GPa) = 0.01823525
#
# Stress axis : x y z
#
# Youngs Moduli (GPa) = 67.71945 100.87326 71.78072
#
# Poissons Ratio (x) = 0.20593 0.19450
# Poissons Ratio (y) = 0.13825 0.39028
# Poissons Ratio (z) = 0.18349 0.54846
#
# Static dielectric constant tensor:
#      x y z
#    x 1.662030 0.000000 -0.015170 
#    y 0.000000 1.463390 0.000000 
#    z -0.015170 0.000000 1.634370 
# 
# From -- ./inp_files/66472.got.cif
#   From: 2010.05.17/outbox.cif.g08.bks.cpg/sg15_34_cif.got.tgz:66472.got - 2010.06.03 18:47:42.
