data_PCOD9276097
_publ_section_title
;
Structure prediction by ZEFSAII (Michael W. Deem and Ramdas Pophale) SiO2 
 PCOD9276097
Probable space group: C 2/C
;
_chemical_formula_sum "Si O2"
_cell_formula_units_Z 60
_cell_length_a 9.535701
_cell_length_b 21.867872
_cell_length_c 10.831506
_cell_angle_alpha 90.000000
_cell_angle_beta 75.281141
_cell_angle_gamma 90.000000
_cell_volume 2184.525784
_symmetry_space_group_name_H-M "C 2/C"
_symmetry_group_IT_number 15
_symmetry_cell_setting 'monoclinic'
loop_
_space_group_symop_operation_xyz
x,y,z
-x,y,1/2-z
-x,-y,-z
x,-y,1/2+z
1/2+x,1/2+y,z
1/2-x,1/2+y,1/2-z
1/2-x,1/2-y,-z
1/2+x,1/2-y,1/2+z
loop_
_atom_site_type_symbol
_atom_site_label
_atom_site_fract_x
_atom_site_fract_y
_atom_site_fract_z
Si Si1 0.509907 0.331667 0.077329
Si Si2 0.086074 0.287050 0.016748
Si Si3 0.328026 0.948914 0.601419
Si Si4 0.000000 0.484945 0.250000
Si Si5 0.826889 0.163408 0.269102
Si Si6 0.078094 0.036104 0.596472
Si Si7 0.877668 0.293024 0.871962
Si Si8 0.305382 0.121003 0.847018
O O1 0.595399 0.394325 0.047406
O O2 0.601335 0.280686 0.131287
O O3 0.356844 0.363166 0.155038
O O4 0.270468 0.406542 0.787145
O O5 0.937444 0.314203 0.990700
O O6 0.217087 0.301399 0.889698
O O7 0.057380 0.214905 0.008653
O O8 0.118704 0.314143 0.142717
O O9 0.334224 0.907452 0.477765
O O10 0.472092 0.970524 0.639836
O O11 0.231836 0.004891 0.579138
O O12 0.128600 0.435340 0.240965
O O13 0.775798 0.190220 0.148636
O O14 0.000000 0.163724 0.250000
O O15 0.000000 0.031552 0.750000
O O16 0.000000 0.000000 0.500000
O O17 0.000000 0.317067 0.750000
#
# Coordination Sequence:
#
# PCOD9276097 Si02
#       8
#     8   8   8   4   8   8   8   8
#     4  10  20  41  77 102 148 205 250 318 414 476
#     4   8  20  38  72 100 143 198 244 312 403 474
#     4  11  26  45  71 107 150 211 256 329 399 477
#     4  12  28  44  72 106 146 208 270 328 384 494
#     4  10  20  39  68 110 149 191 259 323 390 469
#     4  12  25  46  77 113 155 207 271 326 395 483
#     4   8  17  35  65 108 132 199 241 306 389 473
#     4  11  22  45  69 106 145 195 262 326 399 473
#
# _framework density 27.465917000000001
#
# number of rings (size 3 to 8) (size 9 to 14) (size 15 to 20)
#    0.800    1.067    1.333    2.400    4.667    0.000 
#    1.200    0.000    1.467    4.000    3.467    0.000 
#    0.000    0.000    0.000    0.000    0.000    0.000 
#
# Total GULP energy -167291.737174 kJ/mol
# GULP energy per Si atom -5576.391239 kJ/mol
# Density = 2.740340 g / cm^3
# Si number density = 27.465917 Si / 1000 Ang^3
#
#
#
# Elastic Constant Matrix: (Units=GPa)
#
#
# Indices 1 2 3 4 5 6 
#
# 1 182.6301 62.9641 24.8073 0.0000 27.0514 0.0000
# 2 62.9641 172.8789 29.4351 0.0000 13.6442 0.0000
# 3 24.8073 29.4351 74.1578 0.0000 9.0683 0.0000
# 4 0.0000 0.0000 0.0000 37.8521 0.0000 16.7722
# 5 27.0514 13.6442 9.0683 0.0000 50.8276 0.0000
# 6 0.0000 0.0000 0.0000 16.7722 0.0000 29.7030
#
#
#
# Elastic Compliance Matrix: (Units=1/GPa)
#
#
# Indices 1 2 3 4 5 6 
#
# 1 0.006752 -0.002048 -0.001098 0.000000 -0.002848 0.000000
# 2 -0.002048 0.006904 -0.002006 0.000000 -0.000406 0.000000
# 3 -0.001098 -0.002006 0.014834 0.000000 -0.001524 0.000000
# 4 0.000000 0.000000 0.000000 0.035234 0.000000 -0.019896
# 5 -0.002848 -0.000406 -0.001524 0.000000 0.021571 0.000000
# 6 0.000000 0.000000 0.000000 -0.019896 0.000000 0.044901
#
#
# Mechanical properties :
#
#
# Convention : Reuss Voigt Hill
#
# Bulk Modulus (GPa) = 54.97991 73.78662 64.38327
# Shear Modulus (GPa) = 34.11530 44.50724 39.31127
#
# Velocity S-wave (km/s) = 3.52816 4.02985 3.78732
# Velocity P-wave (km/s) = 6.05460 6.96965 6.52818
#
# Compressibility (1/GPa) = 0.01818846
#
# Stress axis : x y z
#
# Youngs Moduli (GPa) = 148.09332 144.85070 67.41062
#
# Poissons Ratio (x) = 0.29660 0.07400
# Poissons Ratio (y) = 0.30324 0.13520
# Poissons Ratio (z) = 0.16258 0.29052
#
# Static dielectric constant tensor:
#      x y z
#    x 2.201610 0.000000 -0.088800 
#    y 0.000000 2.225430 0.000000 
#    z -0.088800 0.000000 2.403100 
# 
# From -- ./inp_files/81371.got.cif
#   From: 2010.05.17/outbox.cif.g08.bks.cpg/sg15_41_cif.got.tgz:81371.got - 2010.06.03 18:47:42.
