data_PCOD9276904
_publ_section_title
;
Structure prediction by ZEFSAII (Michael W. Deem and Ramdas Pophale) SiO2 
 PCOD9276904
Probable space group: C 2/C
;
_chemical_formula_sum "Si O2"
_cell_formula_units_Z 64
_cell_length_a 32.698874
_cell_length_b 11.018967
_cell_length_c 18.527558
_cell_angle_alpha 90.000000
_cell_angle_beta 28.408644
_cell_angle_gamma 90.000000
_cell_volume 3175.974225
_symmetry_space_group_name_H-M "C 2/C"
_symmetry_group_IT_number 15
_symmetry_cell_setting 'monoclinic'
loop_
_space_group_symop_operation_xyz
x,y,z
-x,y,1/2-z
-x,-y,-z
x,-y,1/2+z
1/2+x,1/2+y,z
1/2-x,1/2+y,1/2-z
1/2-x,1/2-y,-z
1/2+x,1/2-y,1/2+z
loop_
_atom_site_type_symbol
_atom_site_label
_atom_site_fract_x
_atom_site_fract_y
_atom_site_fract_z
Si Si1 0.805388 0.604780 0.717524
Si Si2 0.063778 0.298592 0.214546
Si Si3 0.280703 0.034079 0.054294
Si Si4 0.417363 0.141668 0.330572
Si Si5 0.294233 0.597731 0.484346
Si Si6 0.909848 0.911088 0.385990
Si Si7 0.994723 0.492242 0.922360
Si Si8 0.207248 0.872919 0.805792
O O1 0.905602 0.579824 0.547506
O O2 0.772117 0.728650 0.730246
O O3 0.766083 0.475015 0.753713
O O4 0.778571 0.629991 0.842832
O O5 0.129797 0.197533 0.142448
O O6 0.000000 0.256875 0.250000
O O7 0.011307 0.378035 0.355843
O O8 0.132494 0.387719 0.069251
O O9 0.247751 0.061795 0.025685
O O10 0.209647 0.076607 0.220960
O O11 0.322429 0.901956 0.001520
O O12 0.500000 0.096587 0.250000
O O13 0.422218 0.284537 0.326806
O O14 0.431955 0.089568 0.228246
O O15 0.341456 0.485749 0.448019
O O16 0.879330 0.883204 0.514274
O O17 0.000000 0.978175 0.250000
O O18 0.000000 0.500000 0.000000
#
# Coordination Sequence:
#
# PCOD9276904 Si02
#       8
#     8   8   8   8   8   8   8   8
#     4  11  22  40  62  98 124 170 214 271 319 393
#     4  11  22  40  64  90 127 171 213 262 319 395
#     4  11  21  37  62  99 121 164 211 279 326 375
#     4  10  20  40  66  89 130 171 219 259 323 397
#     4  11  24  39  64  89 136 166 209 270 342 379
#     4  10  22  42  61  86 123 179 211 257 324 408
#     4  11  23  37  65  96 125 159 214 269 317 383
#     4  11  22  37  67  89 129 158 224 266 324 384
#
# _framework density 20.151297
#
# number of rings (size 3 to 8) (size 9 to 14) (size 15 to 20)
#    0.000    1.250    1.250    7.500    1.750    0.500 
#    0.000    1.875    0.000    0.000    0.000    0.000 
#    0.000    0.000    0.000    0.000    0.000    0.000 
#
# Total GULP energy -178246.012008 kJ/mol
# GULP energy per Si atom -5570.187875 kJ/mol
# Density = 2.010543 g / cm^3
# Si number density = 20.151297 Si / 1000 Ang^3
#
#
#
# Elastic Constant Matrix: (Units=GPa)
#
#
# Indices 1 2 3 4 5 6 
#
# 1 80.3017 28.5854 41.0822 0.0000 20.8555 0.0000
# 2 28.5854 97.5508 29.7996 0.0000 3.6371 0.0000
# 3 41.0822 29.7996 88.4108 0.0000 17.7301 0.0000
# 4 0.0000 0.0000 0.0000 8.9631 0.0000 3.4673
# 5 20.8555 3.6371 17.7301 0.0000 38.4651 0.0000
# 6 0.0000 0.0000 0.0000 3.4673 0.0000 16.5906
#
#
#
# Elastic Compliance Matrix: (Units=1/GPa)
#
#
# Indices 1 2 3 4 5 6 
#
# 1 0.018563 -0.003312 -0.006119 0.000000 -0.006931 0.000000
# 2 -0.003312 0.012039 -0.002921 0.000000 0.002004 0.000000
# 3 -0.006119 -0.002921 0.015887 0.000000 -0.003729 0.000000
# 4 0.000000 0.000000 0.000000 0.121382 0.000000 -0.025368
# 5 -0.006931 0.002004 -0.003729 0.000000 0.031285 0.000000
# 6 0.000000 0.000000 0.000000 -0.025368 0.000000 0.065577
#
#
# Mechanical properties :
#
#
# Convention : Reuss Voigt Hill
#
# Bulk Modulus (GPa) = 45.90433 51.68865 48.79649
# Shear Modulus (GPa) = 16.85221 23.92350 20.38786
#
# Velocity S-wave (km/s) = 2.89500 3.44931 3.18424
# Velocity P-wave (km/s) = 5.83129 6.44745 6.14709
#
# Compressibility (1/GPa) = 0.02178444
#
# Stress axis : x y z
#
# Youngs Moduli (GPa) = 53.87178 83.06320 62.94606
#
# Poissons Ratio (x) = 0.27508 0.38519
# Poissons Ratio (y) = 0.17841 0.18385
# Poissons Ratio (z) = 0.32967 0.24261
#
# Static dielectric constant tensor:
#      x y z
#    x 1.716490 0.000000 0.011610 
#    y 0.000000 1.784390 0.000000 
#    z 0.011610 0.000000 1.770890 
# 
# From -- ./inp_files/225154.got.cif
#   From: 2010.05.17/outbox.cif.g08.bks.cpg/sg15_113_cif.got.tgz:225154.got - 2010.06.03 18:47:42.
