data_PCOD9276458
_publ_section_title
;
Structure prediction by ZEFSAII (Michael W. Deem and Ramdas Pophale) SiO2 
 PCOD9276458
Probable space group: C 2/C
;
_chemical_formula_sum "Si O2"
_cell_formula_units_Z 60
_cell_length_a 22.700201
_cell_length_b 27.284463
_cell_length_c 15.802646
_cell_angle_alpha 90.000000
_cell_angle_beta 17.986475
_cell_angle_gamma 90.000000
_cell_volume 3022.328350
_symmetry_space_group_name_H-M "C 2/C"
_symmetry_group_IT_number 15
_symmetry_cell_setting 'monoclinic'
loop_
_space_group_symop_operation_xyz
x,y,z
-x,y,1/2-z
-x,-y,-z
x,-y,1/2+z
1/2+x,1/2+y,z
1/2-x,1/2+y,1/2-z
1/2-x,1/2-y,-z
1/2+x,1/2-y,1/2+z
loop_
_atom_site_type_symbol
_atom_site_label
_atom_site_fract_x
_atom_site_fract_y
_atom_site_fract_z
Si Si1 0.656394 0.934483 0.691216
Si Si2 0.698831 0.404611 0.177763
Si Si3 0.741126 0.521053 0.762602
Si Si4 0.500000 0.509190 0.250000
Si Si5 0.477015 0.242047 0.527800
Si Si6 0.273070 0.403965 0.705296
Si Si7 0.392911 0.188833 0.984666
Si Si8 0.646887 0.806757 0.472382
O O1 0.660378 0.910873 0.593745
O O2 0.825249 0.975021 0.457740
O O3 0.714224 0.898415 0.687771
O O4 0.453834 0.958719 0.988588
O O5 0.681350 0.453854 0.256610
O O6 0.494278 0.392315 0.417382
O O7 0.766347 0.361178 0.145869
O O8 0.751147 0.462049 0.743693
O O9 0.594406 0.534783 0.039090
O O10 0.486314 0.213222 0.604016
O O11 0.303360 0.280643 0.758633
O O12 0.448062 0.206818 0.486957
O O13 0.677229 0.270380 0.249947
O O14 0.154375 0.366813 0.924197
O O15 0.500000 0.190652 0.750000
O O16 0.500000 0.802414 0.750000
#
# Coordination Sequence:
#
# PCOD9276458 Si02
#       8
#     8   8   8   4   8   8   8   8
#     4  11  22  42  64  90 130 183 209 269 326 388
#     4  12  23  42  65  95 136 169 219 270 328 388
#     4  11  24  41  64  95 131 176 220 264 323 388
#     4  10  20  40  62  86 130 172 220 264 318 372
#     4  10  24  46  66  95 135 162 218 277 320 396
#     4  11  23  43  63  96 131 168 222 265 327 383
#     4  11  24  45  72  95 127 173 216 269 330 392
#     4  11  23  42  66 100 129 171 215 265 337 390
#
# _framework density 19.852243999999999
#
# number of rings (size 3 to 8) (size 9 to 14) (size 15 to 20)
#    0.000    1.067    4.000    4.000    3.733    1.067 
#    2.400    0.000    1.467    0.000    0.000    0.000 
#    0.000    0.000    0.000    0.000    0.000    0.000 
#
# Total GULP energy -167643.990135 kJ/mol
# GULP energy per Si atom -5588.133004 kJ/mol
# Density = 1.980706 g / cm^3
# Si number density = 19.852244 Si / 1000 Ang^3
#
#
#
# Elastic Constant Matrix: (Units=GPa)
#
#
# Indices 1 2 3 4 5 6 
#
# 1 152.2243 58.1439 54.3502 0.0391 8.6015 -0.0521
# 2 58.1439 90.1500 26.6818 -0.0295 14.0038 -0.0642
# 3 54.3502 26.6818 106.6697 -0.1392 5.2248 -0.0663
# 4 0.0391 -0.0295 -0.1392 23.7353 -0.0451 -2.7348
# 5 8.6015 14.0038 5.2248 -0.0451 38.5164 0.0337
# 6 -0.0521 -0.0642 -0.0663 -2.7348 0.0337 34.1162
#
#
#
# Elastic Compliance Matrix: (Units=1/GPa)
#
#
# Indices 1 2 3 4 5 6 
#
# 1 0.009927 -0.005332 -0.003735 -0.000045 0.000229 -0.000006
# 2 -0.005332 0.015481 -0.000944 0.000017 -0.004310 0.000025
# 3 -0.003735 -0.000944 0.011533 0.000074 -0.000387 0.000021
# 4 -0.000045 0.000017 0.000074 0.042525 0.000041 0.003409
# 5 0.000229 -0.004310 -0.000387 0.000041 0.027531 -0.000032
# 6 -0.000006 0.000025 0.000021 0.003409 -0.000032 0.029585
#
#
# Mechanical properties :
#
#
# Convention : Reuss Voigt Hill
#
# Bulk Modulus (GPa) = 59.11248 69.71064 64.41156
# Shear Modulus (GPa) = 30.81763 33.26479 32.04121
#
# Velocity S-wave (km/s) = 3.94426 4.09787 4.02180
# Velocity P-wave (km/s) = 7.11223 7.58822 7.35408
#
# Compressibility (1/GPa) = 0.01691690
#
# Stress axis : x y z
#
# Youngs Moduli (GPa) = 100.73736 64.59610 86.70639
#
# Poissons Ratio (x) = 0.34446 0.32388
# Poissons Ratio (y) = 0.53718 0.08187
# Poissons Ratio (z) = 0.37629 0.06099
#
# Static dielectric constant tensor:
#      x y z
#    x 1.716920 -0.000030 -0.016760 
#    y -0.000030 1.700280 0.000070 
#    z -0.016760 0.000070 1.684060 
# 
# From -- ./inp_files/169930.got.cif
#   From: 2010.05.17/outbox.cif.g08.bks.cpg/sg15_85_cif.got.tgz:169930.got - 2010.06.03 18:47:42.
