data_PCOD9276698
_publ_section_title
;
Structure prediction by ZEFSAII (Michael W. Deem and Ramdas Pophale) SiO2 
 PCOD9276698
Probable space group: C 2/C
;
_chemical_formula_sum "Si O2"
_cell_formula_units_Z 64
_cell_length_a 15.145717
_cell_length_b 7.327213
_cell_length_c 25.690812
_cell_angle_alpha 90.000000
_cell_angle_beta 115.693932
_cell_angle_gamma 90.000000
_cell_volume 2569.156338
_symmetry_space_group_name_H-M "C 2/C"
_symmetry_group_IT_number 15
_symmetry_cell_setting 'monoclinic'
loop_
_space_group_symop_operation_xyz
x,y,z
-x,y,1/2-z
-x,-y,-z
x,-y,1/2+z
1/2+x,1/2+y,z
1/2-x,1/2+y,1/2-z
1/2-x,1/2-y,-z
1/2+x,1/2-y,1/2+z
loop_
_atom_site_type_symbol
_atom_site_label
_atom_site_fract_x
_atom_site_fract_y
_atom_site_fract_z
Si Si1 0.179139 0.489417 0.175302
Si Si2 0.892470 0.070285 0.478956
Si Si3 0.681031 0.609495 0.924531
Si Si4 0.296152 0.601039 0.300694
Si Si5 0.500484 0.436292 0.188389
Si Si6 0.993393 0.492310 0.187982
Si Si7 0.784982 0.514800 0.615113
Si Si8 0.390148 0.967105 0.450369
O O1 0.242615 0.604852 0.231118
O O2 0.233023 0.297851 0.181769
O O3 0.136042 0.563558 0.110778
O O4 0.086024 0.416024 0.182913
O O5 0.868460 0.124802 0.531767
O O6 0.811095 0.924914 0.440352
O O7 0.891768 0.248009 0.441820
O O8 0.000000 0.000000 0.500000
O O9 0.602693 0.516153 0.865883
O O10 0.699312 0.812380 0.906575
O O11 0.788232 0.514800 0.956641
O O12 0.404960 0.521756 0.316774
O O13 0.244303 0.478026 0.331655
O O14 0.500000 0.481718 0.250000
O O15 0.503424 0.213412 0.185283
O O16 0.894162 0.412352 0.139036
O O17 0.000000 0.450421 0.250000
O O18 0.500000 0.000000 0.500000
#
# Coordination Sequence:
#
# PCOD9276698 Si02
#       8
#     8   8   8   8   8   8   8   8
#     4  12  25  41  68  95 141 169 226 275 335 395
#     4  11  23  43  70  97 128 174 229 275 327 402
#     4  10  21  40  69  94 125 180 223 270 328 404
#     4  12  23  42  67  96 131 176 217 284 334 399
#     4  10  22  39  69  92 131 173 229 273 341 397
#     4  10  21  40  63  93 123 175 219 270 328 403
#     4  10  20  40  64  91 128 169 223 266 329 400
#     4  11  25  44  65  99 135 176 221 273 335 397
#
# _framework density 24.910902
#
# number of rings (size 3 to 8) (size 9 to 14) (size 15 to 20)
#    0.000    1.250    3.750    3.750    7.000    0.500 
#    2.250    1.875    0.000    0.000    0.000    0.000 
#    0.000    0.000    0.000    0.000    0.000    0.000 
#
# Total GULP energy -178583.290636 kJ/mol
# GULP energy per Si atom -5580.727832 kJ/mol
# Density = 2.485420 g / cm^3
# Si number density = 24.910902 Si / 1000 Ang^3
#
#
#
# Elastic Constant Matrix: (Units=GPa)
#
#
# Indices 1 2 3 4 5 6 
#
# 1 104.9841 -20.9312 36.2385 0.0000 16.0241 0.0000
# 2 -20.9312 49.6567 14.8691 0.0000 -2.5672 0.0000
# 3 36.2385 14.8691 148.3827 0.0000 21.2731 0.0000
# 4 0.0000 0.0000 0.0000 11.5389 0.0000 -3.4143
# 5 16.0241 -2.5672 21.2731 0.0000 65.4353 0.0000
# 6 0.0000 0.0000 0.0000 -3.4143 0.0000 17.2844
#
#
#
# Elastic Compliance Matrix: (Units=1/GPa)
#
#
# Indices 1 2 3 4 5 6 
#
# 1 0.012127 0.006023 -0.003329 0.000000 -0.001651 0.000000
# 2 0.006023 0.023906 -0.003975 0.000000 0.000755 0.000000
# 3 -0.003329 -0.003975 0.008240 0.000000 -0.002020 0.000000
# 4 0.000000 0.000000 0.000000 0.092043 0.000000 0.018182
# 5 -0.001651 0.000755 -0.002020 0.000000 0.016373 0.000000
# 6 0.000000 0.000000 0.000000 0.018182 0.000000 0.061447
#
#
# Mechanical properties :
#
#
# Convention : Reuss Voigt Hill
#
# Bulk Modulus (GPa) = 23.97334 40.37515 32.17425
# Shear Modulus (GPa) = 21.68237 37.04152 29.36194
#
# Velocity S-wave (km/s) = 2.95345 3.86030 3.43691
# Velocity P-wave (km/s) = 4.61248 6.00934 5.35664
#
# Compressibility (1/GPa) = 0.04171300
#
# Stress axis : x y z
#
# Youngs Moduli (GPa) = 82.45994 41.82987 121.35771
#
# Poissons Ratio (x) = -0.25195 0.40394
# Poissons Ratio (y) = -0.49666 0.48238
# Poissons Ratio (z) = 0.27447 0.16627
#
# Static dielectric constant tensor:
#      x y z
#    x 1.989500 0.000000 0.059510 
#    y 0.000000 2.075160 0.000000 
#    z 0.059510 0.000000 2.016470 
# 
# From -- ./inp_files/295201.got.cif
#   From: 2010.05.17/outbox.cif.g08.bks.cpg/sg15_148_cif.got.tgz:295201.got - 2010.06.03 18:47:42.
