data_PCOD9276507
_publ_section_title
;
Structure prediction by ZEFSAII (Michael W. Deem and Ramdas Pophale) SiO2 
 PCOD9276507
Probable space group: C 2/C
;
_chemical_formula_sum "Si O2"
_cell_formula_units_Z 40
_cell_length_a 10.582822
_cell_length_b 12.872461
_cell_length_c 21.906712
_cell_angle_alpha 90.000000
_cell_angle_beta 147.063584
_cell_angle_gamma 90.000000
_cell_volume 1622.579505
_symmetry_space_group_name_H-M "C 2/C"
_symmetry_group_IT_number 15
_symmetry_cell_setting 'monoclinic'
loop_
_space_group_symop_operation_xyz
x,y,z
-x,y,1/2-z
-x,-y,-z
x,-y,1/2+z
1/2+x,1/2+y,z
1/2-x,1/2+y,1/2-z
1/2-x,1/2-y,-z
1/2+x,1/2-y,1/2+z
loop_
_atom_site_type_symbol
_atom_site_label
_atom_site_fract_x
_atom_site_fract_y
_atom_site_fract_z
Si Si1 0.364434 0.897006 0.428432
Si Si2 0.682072 0.400678 0.116663
Si Si3 0.334310 0.820651 0.850124
Si Si4 0.126441 0.031146 0.723749
Si Si5 0.349374 0.094729 0.130885
O O1 0.534613 0.820825 0.531462
O O2 0.314801 0.899434 0.336724
O O3 0.114520 0.911659 0.358657
O O4 0.500000 0.000000 0.500000
O O5 0.761962 0.295912 0.184578
O O6 0.646930 0.477899 0.160184
O O7 0.839962 0.467524 0.133835
O O8 0.425636 0.384353 0.984206
O O9 0.530324 0.851310 0.878933
O O10 0.156144 0.915096 0.764058
O O11 0.500000 0.133602 0.250000
#
# Coordination Sequence:
#
# PCOD9276507 Si02
#       5
#     8   8   8   8   8
#     4   9  20  38  60  86 124 175 225 282 341 411
#     4  11  24  41  66 101 135 181 235 290 350 421
#     4  11  22  42  66  95 136 182 231 288 356 415
#     4  10  20  40  62  92 130 174 231 289 345 419
#     4  11  23  42  66  97 144 178 234 295 344 419
#
# _framework density 24.652104999999999
#
# number of rings (size 3 to 8) (size 9 to 14) (size 15 to 20)
#    0.000    1.600    4.000    0.600    0.000    1.600 
#    7.200    0.000    0.000    9.600    0.000    0.000 
#    0.000    0.000    0.000    0.000    0.000    0.000 
#
# Total GULP energy -111366.322570 kJ/mol
# GULP energy per Si atom -5568.316128 kJ/mol
# Density = 2.459600 g / cm^3
# Si number density = 24.652105 Si / 1000 Ang^3
#
#
#
# Elastic Constant Matrix: (Units=GPa)
#
#
# Indices 1 2 3 4 5 6 
#
# 1 77.6463 5.3494 14.6281 0.0001 -8.5297 0.0000
# 2 5.3494 139.7540 -6.0676 0.0000 -12.9931 0.0000
# 3 14.6281 -6.0676 114.0664 -0.0001 -27.1693 0.0000
# 4 0.0001 0.0000 -0.0001 17.5509 0.0000 -15.9837
# 5 -8.5297 -12.9931 -27.1693 0.0000 36.0390 0.0000
# 6 0.0000 0.0000 0.0000 -15.9837 0.0000 16.3626
#
#
#
# Elastic Compliance Matrix: (Units=1/GPa)
#
#
# Indices 1 2 3 4 5 6 
#
# 1 0.013368 -0.000370 -0.001234 -0.000001 0.002100 -0.000001
# 2 -0.000370 0.007564 0.001315 0.000000 0.003631 0.000000
# 3 -0.001234 0.001315 0.011017 0.000001 0.008487 0.000001
# 4 -0.000001 0.000000 0.000001 0.516167 0.000001 0.504213
# 5 0.002100 0.003631 0.008487 0.000001 0.035952 0.000001
# 6 -0.000001 0.000000 0.000001 0.504213 0.000001 0.553650
#
#
# Mechanical properties :
#
#
# Convention : Reuss Voigt Hill
#
# Bulk Modulus (GPa) = 31.87742 39.92071 35.89907
# Shear Modulus (GPa) = 4.35255 35.16095 19.75675
#
# Velocity S-wave (km/s) = 1.33020 3.78072 2.83401
# Velocity P-wave (km/s) = 3.91385 5.94030 5.03018
#
# Compressibility (1/GPa) = 0.03137017
#
# Stress axis : x y z
#
# Youngs Moduli (GPa) = 74.80800 132.20154 90.77290
#
# Poissons Ratio (x) = 0.04891 0.11198
# Poissons Ratio (y) = 0.02768 -0.11933
# Poissons Ratio (z) = 0.09229 -0.17379
#
# Static dielectric constant tensor:
#      x y z
#    x 2.028430 0.000000 -0.014120 
#    y 0.000000 2.128850 0.000000 
#    z -0.014120 0.000000 1.978040 
# 
# From -- ./inp_files/270027.got.cif
#   From: 2010.05.17/outbox.cif.g08.bks.cpg/sg15_136_cif.got.tgz:270027.got - 2010.06.03 18:47:42.
