data_PCOD9276779
_publ_section_title
;
Structure prediction by ZEFSAII (Michael W. Deem and Ramdas Pophale) SiO2 
 PCOD9276779
Probable space group: C 2/C
;
_chemical_formula_sum "Si O2"
_cell_formula_units_Z 56
_cell_length_a 14.030207
_cell_length_b 14.583386
_cell_length_c 16.449222
_cell_angle_alpha 90.000000
_cell_angle_beta 128.692394
_cell_angle_gamma 90.000000
_cell_volume 2626.928037
_symmetry_space_group_name_H-M "C 2/C"
_symmetry_group_IT_number 15
_symmetry_cell_setting 'monoclinic'
loop_
_space_group_symop_operation_xyz
x,y,z
-x,y,1/2-z
-x,-y,-z
x,-y,1/2+z
1/2+x,1/2+y,z
1/2-x,1/2+y,1/2-z
1/2-x,1/2-y,-z
1/2+x,1/2-y,1/2+z
loop_
_atom_site_type_symbol
_atom_site_label
_atom_site_fract_x
_atom_site_fract_y
_atom_site_fract_z
Si Si1 0.474090 0.560730 0.065864
Si Si2 0.397418 0.143231 0.083515
Si Si3 0.000000 0.678565 0.750000
Si Si4 0.304690 0.936081 0.042810
Si Si5 0.555156 0.102707 0.030378
Si Si6 0.106884 0.751020 0.653044
Si Si7 0.807990 0.207500 0.650707
Si Si8 0.000000 0.046068 0.750000
O O1 0.556223 0.650903 0.099791
O O2 0.500569 0.510968 0.166467
O O3 0.500000 0.500000 0.000000
O O4 0.329969 0.582960 0.996012
O O5 0.383588 0.209590 0.152237
O O6 0.341085 0.043092 0.069872
O O7 0.529100 0.133474 0.109353
O O8 0.307594 0.189514 0.969544
O O9 0.905265 0.617175 0.649029
O O10 0.920054 0.740072 0.766960
O O11 0.320849 0.906948 0.955959
O O12 0.473959 0.172044 0.933447
O O13 0.500000 0.000000 0.000000
O O14 0.246015 0.733523 0.702526
O O15 0.884914 0.114811 0.691834
#
# Coordination Sequence:
#
# PCOD9276779 Si02
#       8
#     8   8   4   8   8   8   8   4
#     4  12  27  45  71 102 144 192 234 296 363 427
#     4   9  17  37  65  94 129 173 230 286 355 411
#     4  10  23  39  66  98 140 180 235 282 349 434
#     4  10  20  40  64  99 139 184 230 290 352 430
#     4   8  17  33  63  96 123 173 222 276 345 418
#     4  10  22  42  64  93 136 183 228 290 352 422
#     4  10  21  39  66  93 134 180 237 298 344 422
#     4  12  27  45  68 106 142 192 247 296 363 426
#
# _framework density 21.317675999999999
#
# number of rings (size 3 to 8) (size 9 to 14) (size 15 to 20)
#    0.000    2.000    1.429    1.286    6.000    2.857 
#    0.000    2.857    0.000    0.000    0.000    0.000 
#    0.000    0.000    0.000    0.000    0.000    0.000 
#
# Total GULP energy -156212.367483 kJ/mol
# GULP energy per Si atom -5579.013124 kJ/mol
# Density = 2.126916 g / cm^3
# Si number density = 21.317676 Si / 1000 Ang^3
#
#
#
# Elastic Constant Matrix: (Units=GPa)
#
#
# Indices 1 2 3 4 5 6 
#
# 1 126.8403 31.8434 32.7153 0.0000 -15.2062 0.0000
# 2 31.8434 107.4015 18.3002 0.0000 -15.8923 0.0000
# 3 32.7153 18.3002 34.4115 0.0000 -11.0526 0.0000
# 4 0.0000 0.0000 0.0000 -22.6314 0.0000 3.0073
# 5 -15.2062 -15.8923 -11.0526 0.0000 30.1545 0.0000
# 6 0.0000 0.0000 0.0000 3.0073 0.0000 27.6607
#
#
#
# Elastic Compliance Matrix: (Units=1/GPa)
#
#
# Indices 1 2 3 4 5 6 
#
# 1 0.010730 -0.001449 -0.008997 0.000000 0.001350 0.000000
# 2 -0.001449 0.010845 -0.003161 0.000000 0.003827 0.000000
# 3 -0.008997 -0.003161 0.042280 0.000000 0.009294 0.000000
# 4 0.000000 0.000000 0.000000 -0.043557 0.000000 0.004736
# 5 0.001350 0.003827 0.009294 0.000000 0.039266 0.000000
# 6 0.000000 0.000000 0.000000 0.004736 0.000000 0.035638
#
#
# Mechanical properties :
#
#
# Convention : Reuss Voigt Hill
#
# Bulk Modulus (GPa) = 27.29186 48.26345 37.77766
# Shear Modulus (GPa) = 37.13884 19.42304 28.28094
#
# Velocity S-wave (km/s) = 4.17845 3.02176 3.64626
# Velocity P-wave (km/s) = 6.00912 5.90457 5.95707
#
# Compressibility (1/GPa) = 0.03664096
#
# Stress axis : x y z
#
# Youngs Moduli (GPa) = 93.19654 92.20645 23.65185
#
# Poissons Ratio (x) = 0.13357 0.21280
# Poissons Ratio (y) = 0.13500 0.07477
# Poissons Ratio (z) = 0.83851 0.29149
#
# Static dielectric constant tensor:
#      x y z
#    x 1.860300 0.000000 -0.046760 
#    y 0.000000 1.791250 0.000000 
#    z -0.046760 0.000000 1.802860 
# 
# From -- ./inp_files/198456.got.cif
#   From: 2010.05.17/outbox.cif.g08.bks.cpg/sg15_100_cif.got.tgz:198456.got - 2010.06.03 18:47:42.
