data_PCOD9276456
_publ_section_title
;
Structure prediction by ZEFSAII (Michael W. Deem and Ramdas Pophale) SiO2 
 PCOD9276456
Probable space group: C 2/C
;
_chemical_formula_sum "Si O2"
_cell_formula_units_Z 40
_cell_length_a 17.824154
_cell_length_b 10.149632
_cell_length_c 9.315076
_cell_angle_alpha 90.000000
_cell_angle_beta 98.766457
_cell_angle_gamma 90.000000
_cell_volume 1665.490773
_symmetry_space_group_name_H-M "C 2/C"
_symmetry_group_IT_number 15
_symmetry_cell_setting 'monoclinic'
loop_
_space_group_symop_operation_xyz
x,y,z
-x,y,1/2-z
-x,-y,-z
x,-y,1/2+z
1/2+x,1/2+y,z
1/2-x,1/2+y,1/2-z
1/2-x,1/2-y,-z
1/2+x,1/2-y,1/2+z
loop_
_atom_site_type_symbol
_atom_site_label
_atom_site_fract_x
_atom_site_fract_y
_atom_site_fract_z
Si Si1 0.669481 0.903020 0.400837
Si Si2 0.154031 0.142289 0.580405
Si Si3 0.455162 0.896807 0.589270
Si Si4 0.574959 0.257390 0.671975
Si Si5 0.088084 0.978946 0.309883
O O1 0.759497 0.903295 0.417780
O O2 0.647078 0.788913 0.510400
O O3 0.632631 0.853839 0.240937
O O4 0.627617 0.039353 0.417434
O O5 0.103193 0.041366 0.470122
O O6 0.132733 0.137178 0.742373
O O7 0.500000 0.885521 0.750000
O O8 0.448911 0.762267 0.498262
O O9 0.500000 0.000000 0.500000
O O10 0.500000 0.244349 0.750000
O O11 0.613169 0.393749 0.722166
O O12 0.000000 0.959267 0.250000
#
# Coordination Sequence:
#
# PCOD9276456 Si02
#       5
#     8   8   8   8   8
#     4  10  21  39  64  85 131 162 200 249 314 366
#     4  10  23  41  63  90 120 169 203 251 316 361
#     4  12  21  37  62  94 121 161 204 251 306 368
#     4  10  20  40  62  86 123 161 202 256 308 353
#     4  10  22  43  64  85 121 163 211 260 302 366
#
# _framework density 24.016943999999999
#
# number of rings (size 3 to 8) (size 9 to 14) (size 15 to 20)
#    0.000    1.600    4.000    0.600    2.800    0.000 
#    3.600    2.000    0.000    0.000    0.000    0.000 
#    0.000    0.000    0.000    0.000    0.000    0.000 
#
# Total GULP energy -111851.761018 kJ/mol
# GULP energy per Si atom -5592.588051 kJ/mol
# Density = 2.396228 g / cm^3
# Si number density = 24.016944 Si / 1000 Ang^3
#
#
#
# Elastic Constant Matrix: (Units=GPa)
#
#
# Indices 1 2 3 4 5 6 
#
# 1 81.0943 1.1269 -11.4228 0.0000 13.3176 0.0000
# 2 1.1269 37.8836 9.2538 0.0000 -0.6409 0.0000
# 3 -11.4228 9.2538 107.0913 0.0000 -0.0430 0.0000
# 4 0.0000 0.0000 0.0000 36.0272 0.0000 4.2846
# 5 13.3176 -0.6409 -0.0430 0.0000 30.7384 0.0000
# 6 0.0000 0.0000 0.0000 4.2846 0.0000 21.8345
#
#
#
# Elastic Compliance Matrix: (Units=1/GPa)
#
#
# Indices 1 2 3 4 5 6 
#
# 1 0.013522 -0.000872 0.001515 0.000000 -0.005874 0.000000
# 2 -0.000872 0.027032 -0.002428 0.000000 0.000938 0.000000
# 3 0.001515 -0.002428 0.009709 0.000000 -0.000694 0.000000
# 4 0.000000 0.000000 0.000000 0.028420 0.000000 -0.005577
# 5 -0.005874 0.000938 -0.000694 0.000000 0.035096 0.000000
# 6 0.000000 0.000000 0.000000 -0.005577 0.000000 0.046893
#
#
# Mechanical properties :
#
#
# Convention : Reuss Voigt Hill
#
# Bulk Modulus (GPa) = 21.41675 24.88721 23.15198
# Shear Modulus (GPa) = 27.80776 32.86078 30.33427
#
# Velocity S-wave (km/s) = 3.40640 3.70298 3.55778
# Velocity P-wave (km/s) = 4.94045 5.35421 5.15149
#
# Compressibility (1/GPa) = 0.04669243
#
# Stress axis : x y z
#
# Youngs Moduli (GPa) = 73.95581 36.99365 102.99709
#
# Poissons Ratio (x) = 0.03225 -0.15607
# Poissons Ratio (y) = 0.06447 0.25012
# Poissons Ratio (z) = -0.11206 0.08984
#
# Static dielectric constant tensor:
#      x y z
#    x 1.894070 0.000000 -0.056910 
#    y 0.000000 1.990250 0.000000 
#    z -0.056910 0.000000 1.987720 
# 
# From -- ./inp_files/46245.got.cif
#   From: 2010.05.17/outbox.cif.g08.bks.cpg/sg15_24_cif.got.tgz:46245.got - 2010.06.03 18:47:42.
