data_PCOD9276483
_publ_section_title
;
Structure prediction by ZEFSAII (Michael W. Deem and Ramdas Pophale) SiO2 
 PCOD9276483
Probable space group: C 2/C
;
_chemical_formula_sum "Si O2"
_cell_formula_units_Z 52
_cell_length_a 8.438222
_cell_length_b 34.325815
_cell_length_c 9.457731
_cell_angle_alpha 90.000000
_cell_angle_beta 112.423230
_cell_angle_gamma 90.000000
_cell_volume 2532.297259
_symmetry_space_group_name_H-M "C 2/C"
_symmetry_group_IT_number 15
_symmetry_cell_setting 'monoclinic'
loop_
_space_group_symop_operation_xyz
x,y,z
-x,y,1/2-z
-x,-y,-z
x,-y,1/2+z
1/2+x,1/2+y,z
1/2-x,1/2+y,1/2-z
1/2-x,1/2-y,-z
1/2+x,1/2-y,1/2+z
loop_
_atom_site_type_symbol
_atom_site_label
_atom_site_fract_x
_atom_site_fract_y
_atom_site_fract_z
Si Si1 0.500000 0.302588 0.250000
Si Si2 0.173726 0.789227 0.038140
Si Si3 0.756671 0.626941 0.861874
Si Si4 0.000000 0.338423 0.250000
Si Si5 0.211864 0.396304 0.809810
Si Si6 0.000000 0.153950 0.250000
Si Si7 0.314185 0.979886 0.616953
Si Si8 0.810850 0.957927 0.230930
O O1 0.547263 0.279220 0.125936
O O2 0.345317 0.333000 0.183637
O O3 0.340495 0.812787 0.146921
O O4 0.250000 0.750000 0.000000
O O5 0.069099 0.817439 0.897172
O O6 0.694368 0.588875 0.755772
O O7 0.943531 0.635393 0.863447
O O8 0.738248 0.616697 0.017142
O O9 0.334949 0.371842 0.746234
O O10 0.258645 0.442115 0.824588
O O11 0.000000 0.392729 0.750000
O O12 0.500000 0.983409 0.750000
O O13 0.305404 0.970440 0.445936
O O14 0.227806 0.019711 0.637718
O O15 0.000000 0.969288 0.250000
#
# Coordination Sequence:
#
# PCOD9276483 Si02
#       8
#     4   8   8   4   8   4   8   8
#     4  10  20  44  65  88 132 162 202 260 317 380
#     4  11  24  45  67 102 128 165 213 261 329 403
#     4  10  20  40  62  90 124 172 216 262 317 387
#     4  10  23  40  68  94 132 168 218 266 322 400
#     4  10  22  41  63  96 133 170 224 276 326 382
#     4  12  23  42  75  96 132 174 218 266 331 392
#     4  10  23  40  57  87 130 167 214 273 323 373
#     4  11  22  38  60  89 124 165 220 266 322 377
#
# _framework density 20.534713
#
# number of rings (size 3 to 8) (size 9 to 14) (size 15 to 20)
#    0.000    1.538    2.308    2.308    2.154    0.000 
#    9.692    2.308    0.000    0.000    0.000    0.000 
#    0.000    0.000    0.000    0.000    0.000    0.000 
#
# Total GULP energy -144769.887092 kJ/mol
# GULP energy per Si atom -5568.072580 kJ/mol
# Density = 2.048797 g / cm^3
# Si number density = 20.534713 Si / 1000 Ang^3
#
#
#
# Elastic Constant Matrix: (Units=GPa)
#
#
# Indices 1 2 3 4 5 6 
#
# 1 96.9455 34.2559 21.1853 0.0000 -23.3585 0.0000
# 2 34.2559 75.9321 11.4568 0.0000 -25.4664 0.0000
# 3 21.1853 11.4568 43.6758 0.0000 -5.6705 0.0000
# 4 0.0000 0.0000 0.0000 13.4318 0.0000 10.7573
# 5 -23.3585 -25.4664 -5.6705 0.0000 40.9879 0.0000
# 6 0.0000 0.0000 0.0000 10.7573 0.0000 67.0194
#
#
#
# Elastic Compliance Matrix: (Units=1/GPa)
#
#
# Indices 1 2 3 4 5 6 
#
# 1 0.013982 -0.003916 -0.005128 0.000000 0.004826 0.000000
# 2 -0.003916 0.018149 -0.001718 0.000000 0.008807 0.000000
# 3 -0.005128 -0.001718 0.025779 0.000000 -0.000424 0.000000
# 4 0.000000 0.000000 0.000000 0.085433 0.000000 -0.013713
# 5 0.004826 0.008807 -0.000424 0.000000 0.032561 0.000000
# 6 0.000000 0.000000 0.000000 -0.013713 0.000000 0.017122
#
#
# Mechanical properties :
#
#
# Convention : Reuss Voigt Hill
#
# Bulk Modulus (GPa) = 27.48284 38.92771 33.20528
# Shear Modulus (GPa) = 22.05758 34.26484 28.16121
#
# Velocity S-wave (km/s) = 3.28099 4.08932 3.70725
# Velocity P-wave (km/s) = 5.26933 6.42611 5.87626
#
# Compressibility (1/GPa) = 0.03638634
#
# Stress axis : x y z
#
# Youngs Moduli (GPa) = 71.51978 55.09901 38.79087
#
# Poissons Ratio (x) = 0.21574 0.19894
# Poissons Ratio (y) = 0.28004 0.06665
# Poissons Ratio (z) = 0.36679 0.09466
#
# Static dielectric constant tensor:
#      x y z
#    x 1.694840 0.000000 0.018440 
#    y 0.000000 1.890030 0.000000 
#    z 0.018440 0.000000 1.761920 
# 
# From -- ./inp_files/80887.got.cif
#   From: 2010.05.17/outbox.cif.g08.bks.cpg/sg15_41_cif.got.tgz:80887.got - 2010.06.03 18:47:42.
