data_PCOD9276542
_publ_section_title
;
Structure prediction by ZEFSAII (Michael W. Deem and Ramdas Pophale) SiO2 
 PCOD9276542
Probable space group: C 2/C
;
_chemical_formula_sum "Si O2"
_cell_formula_units_Z 40
_cell_length_a 16.131756
_cell_length_b 10.904137
_cell_length_c 9.080334
_cell_angle_alpha 90.000000
_cell_angle_beta 104.073814
_cell_angle_gamma 90.000000
_cell_volume 1549.312425
_symmetry_space_group_name_H-M "C 2/C"
_symmetry_group_IT_number 15
_symmetry_cell_setting 'monoclinic'
loop_
_space_group_symop_operation_xyz
x,y,z
-x,y,1/2-z
-x,-y,-z
x,-y,1/2+z
1/2+x,1/2+y,z
1/2-x,1/2+y,1/2-z
1/2-x,1/2-y,-z
1/2+x,1/2-y,1/2+z
loop_
_atom_site_type_symbol
_atom_site_label
_atom_site_fract_x
_atom_site_fract_y
_atom_site_fract_z
Si Si1 0.441171 0.939455 0.351054
Si Si2 0.766740 0.341043 0.332387
Si Si3 0.236471 0.980041 0.040789
Si Si4 0.361853 0.831508 0.886126
Si Si5 0.547237 0.390978 0.927484
O O1 0.500000 0.890144 0.250000
O O2 0.369164 0.843242 0.367196
O O3 0.500000 0.000000 0.500000
O O4 0.396022 0.067745 0.285999
O O5 0.740283 0.381941 0.483055
O O6 0.713925 0.240188 0.225613
O O7 0.739224 0.457335 0.215471
O O8 0.315995 0.903728 0.002635
O O9 0.145822 0.929608 0.946064
O O10 0.435120 0.735794 0.972253
O O11 0.500000 0.379428 0.750000
O O12 0.500000 0.500000 0.000000
#
# Coordination Sequence:
#
# PCOD9276542 Si02
#       5
#     8   8   8   8   8
#     4  11  24  42  64  94 127 160 206 266 312 359
#     4  10  20  40  63  85 118 163 204 245 302 375
#     4  10  21  39  60  86 120 160 201 248 301 370
#     4  10  23  40  62  88 123 164 204 245 309 379
#     4  11  22  37  61  93 123 157 202 258 307 357
#
# _framework density 25.817903000000001
#
# number of rings (size 3 to 8) (size 9 to 14) (size 15 to 20)
#    0.000    1.600    0.000    7.200    0.000    6.400 
#    0.000    9.000    0.000    0.000    0.000    1.400 
#    0.000    0.000    0.000    0.000    0.000    0.000 
#
# Total GULP energy -111824.993503 kJ/mol
# GULP energy per Si atom -5591.249675 kJ/mol
# Density = 2.575914 g / cm^3
# Si number density = 25.817903 Si / 1000 Ang^3
#
#
#
# Elastic Constant Matrix: (Units=GPa)
#
#
# Indices 1 2 3 4 5 6 
#
# 1 110.4832 11.9233 23.0872 0.0000 29.4889 0.0000
# 2 11.9233 123.4102 17.5290 0.0000 6.3127 0.0000
# 3 23.0872 17.5290 119.1821 0.0000 25.7357 0.0000
# 4 0.0000 0.0000 0.0000 48.1680 0.0000 18.2144
# 5 29.4889 6.3127 25.7357 0.0000 49.3061 0.0000
# 6 0.0000 0.0000 0.0000 18.2144 0.0000 46.3303
#
#
#
# Elastic Compliance Matrix: (Units=1/GPa)
#
#
# Indices 1 2 3 4 5 6 
#
# 1 0.010885 -0.000641 -0.000706 0.000000 -0.006060 0.000000
# 2 -0.000641 0.008324 -0.001074 0.000000 -0.000122 0.000000
# 3 -0.000706 -0.001074 0.009652 0.000000 -0.004478 0.000000
# 4 0.000000 0.000000 0.000000 0.024386 0.000000 -0.009587
# 5 -0.006060 -0.000122 -0.004478 0.000000 0.026259 0.000000
# 6 0.000000 0.000000 0.000000 -0.009587 0.000000 0.025353
#
#
# Mechanical properties :
#
#
# Convention : Reuss Voigt Hill
#
# Bulk Modulus (GPa) = 41.63315 50.90606 46.26960
# Shear Modulus (GPa) = 42.47817 48.79664 45.63741
#
# Velocity S-wave (km/s) = 4.06063 4.35217 4.20892
# Velocity P-wave (km/s) = 6.17622 6.70934 6.44829
#
# Compressibility (1/GPa) = 0.02401932
#
# Stress axis : x y z
#
# Youngs Moduli (GPa) = 91.86750 120.13792 103.60314
#
# Poissons Ratio (x) = 0.07707 0.07312
# Poissons Ratio (y) = 0.05893 0.11124
# Poissons Ratio (z) = 0.06484 0.12899
#
# Static dielectric constant tensor:
#      x y z
#    x 2.121550 0.000000 0.063740 
#    y 0.000000 2.195050 0.000000 
#    z 0.063740 0.000000 2.041970 
# 
# From -- ./inp_files/46246.got.cif
#   From: 2010.05.17/outbox.cif.g08.bks.cpg/sg15_24_cif.got.tgz:46246.got - 2010.06.03 18:47:42.
