data_PCOD9276059
_publ_section_title
;
Structure prediction by ZEFSAII (Michael W. Deem and Ramdas Pophale) SiO2 
 PCOD9276059
Probable space group: C 2/C
;
_chemical_formula_sum "Si O2"
_cell_formula_units_Z 36
_cell_length_a 11.576321
_cell_length_b 18.663648
_cell_length_c 8.551225
_cell_angle_alpha 90.000000
_cell_angle_beta 62.862740
_cell_angle_gamma 90.000000
_cell_volume 1644.162073
_symmetry_space_group_name_H-M "C 2/C"
_symmetry_group_IT_number 15
_symmetry_cell_setting 'monoclinic'
loop_
_space_group_symop_operation_xyz
x,y,z
-x,y,1/2-z
-x,-y,-z
x,-y,1/2+z
1/2+x,1/2+y,z
1/2-x,1/2+y,1/2-z
1/2-x,1/2-y,-z
1/2+x,1/2-y,1/2+z
loop_
_atom_site_type_symbol
_atom_site_label
_atom_site_fract_x
_atom_site_fract_y
_atom_site_fract_z
Si Si1 0.850906 0.468887 0.779830
Si Si2 0.775211 0.596264 0.008121
Si Si3 0.036640 0.706501 0.501949
Si Si4 0.500000 0.664684 0.250000
Si Si5 0.175251 0.321841 0.582786
O O1 0.843288 0.450143 0.602806
O O2 0.776369 0.401239 0.905646
O O3 0.000000 0.467526 0.750000
O O4 0.783417 0.543837 0.857225
O O5 0.866906 0.666056 0.939559
O O6 0.631656 0.619478 0.148907
O O7 0.000217 0.782464 0.598889
O O8 0.108313 0.702896 0.289072
O O9 0.908036 0.666687 0.524206
O O10 0.250000 0.250000 0.500000
#
# Coordination Sequence:
#
# PCOD9276059 Si02
#       5
#     8   8   8   4   8
#     4  11  22  42  65  92 126 160 219 264 315 381
#     4  11  25  41  64  94 125 174 209 264 318 376
#     4  10  21  40  62  93 125 169 209 262 311 377
#     4  12  26  42  60  94 140 162 218 256 324 384
#     4  10  20  39  67  95 124 164 214 261 319 379
#
# _framework density 21.895654
#
# number of rings (size 3 to 8) (size 9 to 14) (size 15 to 20)
#    0.000    1.333    4.444    4.000    1.556    2.667 
#    0.000    2.222    0.000    0.000    0.000    0.000 
#    0.000    0.000    0.000    0.000    0.000    0.000 
#
# Total GULP energy -100295.611649 kJ/mol
# GULP energy per Si atom -5571.978425 kJ/mol
# Density = 2.184582 g / cm^3
# Si number density = 21.895654 Si / 1000 Ang^3
#
#
#
# Elastic Constant Matrix: (Units=GPa)
#
#
# Indices 1 2 3 4 5 6 
#
# 1 46.2079 22.2108 11.5474 0.0000 -8.1539 0.0000
# 2 22.2108 106.4350 40.8204 0.0000 -25.5482 0.0000
# 3 11.5474 40.8204 51.0998 0.0000 4.5606 0.0000
# 4 0.0000 0.0000 0.0000 51.1828 0.0000 -9.1937
# 5 -8.1539 -25.5482 4.5606 0.0000 25.2351 0.0000
# 6 0.0000 0.0000 0.0000 -9.1937 0.0000 23.2607
#
#
#
# Elastic Compliance Matrix: (Units=1/GPa)
#
#
# Indices 1 2 3 4 5 6 
#
# 1 0.024950 -0.001382 -0.005213 0.000000 0.007605 0.000000
# 2 -0.001382 0.025390 -0.022589 0.000000 0.029341 0.000000
# 3 -0.005213 -0.022589 0.041656 0.000000 -0.032082 0.000000
# 4 0.000000 0.000000 0.000000 0.021031 0.000000 0.008312
# 5 0.007605 0.029341 -0.032082 0.000000 0.077588 0.000000
# 6 0.000000 0.000000 0.000000 0.008312 0.000000 0.046276
#
#
# Mechanical properties :
#
#
# Convention : Reuss Voigt Hill
#
# Bulk Modulus (GPa) = 29.73675 39.21111 34.47393
# Shear Modulus (GPa) = 16.31493 28.54665 22.43079
#
# Velocity S-wave (km/s) = 2.73265 3.61468 3.20416
# Velocity P-wave (km/s) = 4.85460 5.94712 5.42841
#
# Compressibility (1/GPa) = 0.03362843
#
# Stress axis : x y z
#
# Youngs Moduli (GPa) = 40.07979 39.38556 24.00635
#
# Poissons Ratio (x) = 0.05442 0.12515
# Poissons Ratio (y) = 0.05538 0.54228
# Poissons Ratio (z) = 0.20894 0.88968
#
# Static dielectric constant tensor:
#      x y z
#    x 1.912160 0.000000 -0.031510 
#    y 0.000000 1.836490 0.000000 
#    z -0.031510 0.000000 1.857320 
# 
# From -- ./inp_files/28966.got.cif
#   From: 2010.05.17/outbox.cif.g08.bks.cpg/sg15_15_cif.got.tgz:28966.got - 2010.06.03 18:47:42.
