data_PCOD9276035
_publ_section_title
;
Structure prediction by ZEFSAII (Michael W. Deem and Ramdas Pophale) SiO2 
 PCOD9276035
Probable space group: C 2/C
;
_chemical_formula_sum "Si O2"
_cell_formula_units_Z 56
_cell_length_a 28.175151
_cell_length_b 5.111856
_cell_length_c 18.794032
_cell_angle_alpha 90.000000
_cell_angle_beta 116.083359
_cell_angle_gamma 90.000000
_cell_volume 2431.175269
_symmetry_space_group_name_H-M "C 2/C"
_symmetry_group_IT_number 15
_symmetry_cell_setting 'monoclinic'
loop_
_space_group_symop_operation_xyz
x,y,z
-x,y,1/2-z
-x,-y,-z
x,-y,1/2+z
1/2+x,1/2+y,z
1/2-x,1/2+y,1/2-z
1/2-x,1/2-y,-z
1/2+x,1/2-y,1/2+z
loop_
_atom_site_type_symbol
_atom_site_label
_atom_site_fract_x
_atom_site_fract_y
_atom_site_fract_z
Si Si1 0.852557 0.525748 0.866847
Si Si2 0.584332 0.947308 0.232084
Si Si3 0.685399 0.561232 0.466396
Si Si4 0.915868 0.031756 0.939821
Si Si5 0.497750 0.619824 0.384349
Si Si6 0.579121 0.446110 0.328552
Si Si7 0.226212 0.561913 0.572338
O O1 0.868421 0.542764 0.794452
O O2 0.870104 0.240132 0.903057
O O3 0.794124 0.559831 0.860149
O O4 0.890260 0.744596 0.929090
O O5 0.528427 0.896491 0.154266
O O6 0.588358 0.689729 0.282750
O O7 0.583013 0.186782 0.284950
O O8 0.625923 0.468679 0.417174
O O9 0.714935 0.528585 0.409588
O O10 0.715449 0.353083 0.536239
O O11 0.692230 0.851188 0.502860
O O12 0.957255 0.124154 0.026167
O O13 0.948955 0.030367 0.888159
O O14 0.524886 0.484821 0.335456
#
# Coordination Sequence:
#
# PCOD9276035 Si02
#       7
#     8   8   8   8   8   8   8
#     4  11  21  40  59  86 119 152 190 244 298 338
#     4  11  26  38  55  84 120 162 203 229 277 359
#     4  10  22  39  64  95 115 144 196 241 299 357
#     4  10  23  37  61  89 113 146 200 250 292 345
#     4  10  23  40  59  84 116 156 200 245 290 333
#     4  12  24  41  59  83 122 162 195 238 285 348
#     4  10  20  39  67  92 116 144 186 253 304 342
#
# _framework density 23.034125
#
# number of rings (size 3 to 8) (size 9 to 14) (size 15 to 20)
#    0.000    1.429    0.000    5.571    0.000   13.143 
#    0.000    1.429    0.000    0.000    0.000    0.000 
#    0.000    0.000    0.000    0.000    0.000    0.000 
#
# Total GULP energy -156537.524935 kJ/mol
# GULP energy per Si atom -5590.625891 kJ/mol
# Density = 2.298170 g / cm^3
# Si number density = 23.034125 Si / 1000 Ang^3
#
#
#
# Elastic Constant Matrix: (Units=GPa)
#
#
# Indices 1 2 3 4 5 6 
#
# 1 141.8052 -1.6384 4.6540 0.0000 -44.5781 -0.0001
# 2 -1.6384 117.5355 9.9863 -0.0001 -7.4180 -0.0006
# 3 4.6540 9.9863 33.8091 0.0001 -18.9254 -0.0001
# 4 0.0000 -0.0001 0.0001 16.3353 0.0000 -1.9047
# 5 -44.5781 -7.4180 -18.9254 0.0000 39.0575 0.0001
# 6 -0.0001 -0.0006 -0.0001 -1.9047 0.0001 20.3484
#
#
#
# Elastic Compliance Matrix: (Units=1/GPa)
#
#
# Indices 1 2 3 4 5 6 
#
# 1 0.012661 0.000631 0.008544 0.000000 0.018710 0.000000
# 2 0.000631 0.008768 -0.001840 0.000000 0.001494 0.000000
# 3 0.008544 -0.001840 0.046941 0.000000 0.032147 0.000000
# 4 0.000000 0.000000 0.000000 0.061893 0.000000 0.005793
# 5 0.018710 0.001494 0.032147 0.000000 0.062819 0.000000
# 6 0.000000 0.000000 0.000000 0.005793 0.000000 0.049686
#
#
# Mechanical properties :
#
#
# Convention : Reuss Voigt Hill
#
# Bulk Modulus (GPa) = 12.04255 35.46152 23.75204
# Shear Modulus (GPa) = 19.54839 33.82474 26.68657
#
# Velocity S-wave (km/s) = 2.91636 3.83621 3.40746
# Velocity P-wave (km/s) = 4.07181 5.92036 5.08086
#
# Compressibility (1/GPa) = 0.08303890
#
# Stress axis : x y z
#
# Youngs Moduli (GPa) = 78.98573 114.05729 21.30356
#
# Poissons Ratio (x) = -0.07201 -0.18202
# Poissons Ratio (y) = -0.04987 0.03920
# Poissons Ratio (z) = -0.67486 0.20989
#
# Static dielectric constant tensor:
#      x y z
#    x 1.889840 0.000000 -0.027160 
#    y 0.000000 1.810790 0.000000 
#    z -0.027160 0.000000 1.905980 
# 
# From -- ./inp_files/221282.got.cif
#   From: 2010.05.17/outbox.cif.g08.bks.cpg/sg15_111_cif.got.tgz:221282.got - 2010.06.03 18:47:42.
