data_PCOD9276600
_publ_section_title
;
Structure prediction by ZEFSAII (Michael W. Deem and Ramdas Pophale) SiO2 
 PCOD9276600
Probable space group: C 2/C
;
_chemical_formula_sum "Si O2"
_cell_formula_units_Z 64
_cell_length_a 11.490444
_cell_length_b 15.346769
_cell_length_c 16.691265
_cell_angle_alpha 90.000000
_cell_angle_beta 91.132724
_cell_angle_gamma 90.000000
_cell_volume 2942.782352
_symmetry_space_group_name_H-M "C 2/C"
_symmetry_group_IT_number 15
_symmetry_cell_setting 'monoclinic'
loop_
_space_group_symop_operation_xyz
x,y,z
-x,y,1/2-z
-x,-y,-z
x,-y,1/2+z
1/2+x,1/2+y,z
1/2-x,1/2+y,1/2-z
1/2-x,1/2-y,-z
1/2+x,1/2-y,1/2+z
loop_
_atom_site_type_symbol
_atom_site_label
_atom_site_fract_x
_atom_site_fract_y
_atom_site_fract_z
Si Si1 0.632282 0.935416 0.752473
Si Si2 0.143404 0.753734 0.315413
Si Si3 0.944999 0.743993 0.658912
Si Si4 0.406173 0.695049 0.869514
Si Si5 0.329111 0.801479 0.435240
Si Si6 0.779189 0.426918 0.156027
Si Si7 0.638297 0.008247 0.494093
Si Si8 0.231034 0.352042 0.595159
O O1 0.500000 0.968917 0.750000
O O2 0.639403 0.850673 0.810438
O O3 0.660754 0.892793 0.668160
O O4 0.719103 0.016572 0.763734
O O5 0.124602 0.784026 0.224217
O O6 0.261765 0.789343 0.351031
O O7 0.042606 0.790215 0.371971
O O8 0.863648 0.656936 0.660903
O O9 0.857110 0.821149 0.628987
O O10 0.000000 0.757422 0.750000
O O11 0.042114 0.730404 0.590359
O O12 0.346725 0.601989 0.876924
O O13 0.339770 0.763261 0.925309
O O14 0.250000 0.750000 0.500000
O O15 0.331037 0.900490 0.465292
O O16 0.835014 0.498460 0.098742
O O17 0.500000 0.000000 0.500000
O O18 0.711685 0.926608 0.530009
#
# Coordination Sequence:
#
# PCOD9276600 Si02
#       8
#     8   8   8   8   8   8   8   8
#     4  11  19  36  67 100 128 172 223 290 337 401
#     4  10  20  40  63  93 127 173 230 264 336 413
#     4  11  24  45  70 105 134 182 234 288 345 407
#     4   9  20  39  65  94 126 173 216 280 337 401
#     4  12  27  43  69  96 141 184 224 282 344 421
#     4  11  23  37  67  97 135 170 228 283 342 401
#     4  12  26  44  62 103 131 175 231 281 340 413
#     4  10  23  40  67  98 138 171 226 289 343 399
#
# _framework density 21.748125000000002
#
# number of rings (size 3 to 8) (size 9 to 14) (size 15 to 20)
#    0.000    1.250    3.750    4.125    5.250    3.000 
#    0.000    5.000    0.000    0.000    0.000    0.000 
#    0.000    0.000    0.000    0.000    0.000    0.000 
#
# Total GULP energy -178523.608918 kJ/mol
# GULP energy per Si atom -5578.862779 kJ/mol
# Density = 2.169863 g / cm^3
# Si number density = 21.748125 Si / 1000 Ang^3
#
#
#
# Elastic Constant Matrix: (Units=GPa)
#
#
# Indices 1 2 3 4 5 6 
#
# 1 77.7166 13.7834 10.8034 0.0000 -0.0624 0.0000
# 2 13.7834 68.5929 11.2855 0.0000 8.7392 0.0000
# 3 10.8034 11.2855 37.5363 0.0000 -1.9403 0.0000
# 4 0.0000 0.0000 0.0000 23.6019 0.0000 1.0384
# 5 -0.0624 8.7392 -1.9403 0.0000 36.7798 0.0000
# 6 0.0000 0.0000 0.0000 1.0384 0.0000 14.7346
#
#
#
# Elastic Compliance Matrix: (Units=1/GPa)
#
#
# Indices 1 2 3 4 5 6 
#
# 1 0.013722 -0.002273 -0.003246 0.000000 0.000392 0.000000
# 2 -0.002273 0.016292 -0.004457 0.000000 -0.004110 0.000000
# 3 -0.003246 -0.004457 0.029049 0.000000 0.002586 0.000000
# 4 0.000000 0.000000 0.000000 0.042501 0.000000 -0.002995
# 5 0.000392 -0.004110 0.002586 0.000000 0.028303 0.000000
# 6 0.000000 0.000000 0.000000 -0.002995 0.000000 0.068078
#
#
# Mechanical properties :
#
#
# Convention : Reuss Voigt Hill
#
# Bulk Modulus (GPa) = 25.56760 28.39891 26.98326
# Shear Modulus (GPa) = 21.65126 24.88818 23.26972
#
# Velocity S-wave (km/s) = 3.15865 3.38654 3.27458
# Velocity P-wave (km/s) = 5.00844 5.32710 5.17023
#
# Compressibility (1/GPa) = 0.03911199
#
# Stress axis : x y z
#
# Youngs Moduli (GPa) = 72.87607 61.37796 34.42512
#
# Poissons Ratio (x) = 0.13953 0.11173
# Poissons Ratio (y) = 0.16567 0.15342
# Poissons Ratio (z) = 0.23652 0.27354
#
# Static dielectric constant tensor:
#      x y z
#    x 2.516210 0.000000 0.063090 
#    y 0.000000 1.802600 0.000000 
#    z 0.063090 0.000000 1.911350 
# 
# From -- ./inp_files/198359.got.cif
#   From: 2010.05.17/outbox.cif.g08.bks.cpg/sg15_100_cif.got.tgz:198359.got - 2010.06.03 18:47:42.
