data_PCOD9276424
_publ_section_title
;
Structure prediction by ZEFSAII (Michael W. Deem and Ramdas Pophale) SiO2 
 PCOD9276424
Probable space group: C 2/C
;
_chemical_formula_sum "Si O2"
_cell_formula_units_Z 52
_cell_length_a 5.208144
_cell_length_b 27.989248
_cell_length_c 18.372292
_cell_angle_alpha 90.000000
_cell_angle_beta 121.720128
_cell_angle_gamma 90.000000
_cell_volume 2278.119179
_symmetry_space_group_name_H-M "C 2/C"
_symmetry_group_IT_number 15
_symmetry_cell_setting 'monoclinic'
loop_
_space_group_symop_operation_xyz
x,y,z
-x,y,1/2-z
-x,-y,-z
x,-y,1/2+z
1/2+x,1/2+y,z
1/2-x,1/2+y,1/2-z
1/2-x,1/2-y,-z
1/2+x,1/2-y,1/2+z
loop_
_atom_site_type_symbol
_atom_site_label
_atom_site_fract_x
_atom_site_fract_y
_atom_site_fract_z
Si Si1 0.246091 0.437555 0.007001
Si Si2 0.817096 0.591402 0.838329
Si Si3 0.860694 0.646368 0.111917
Si Si4 0.664204 0.001902 0.871868
Si Si5 0.135198 0.303930 0.190082
Si Si6 0.912478 0.796765 0.650609
Si Si7 0.000000 0.577004 0.250000
O O1 0.151029 0.422869 0.072820
O O2 0.545325 0.467958 0.063882
O O3 0.293875 0.389447 0.967835
O O4 0.049513 0.472017 0.925461
O O5 0.500000 0.598861 0.750000
O O6 0.949884 0.644786 0.855416
O O7 0.939397 0.544020 0.817350
O O8 0.623675 0.669815 0.132204
O O9 0.070531 0.684248 0.101665
O O10 0.074335 0.612303 0.194608
O O11 0.727775 0.961174 0.820839
O O12 0.500000 0.296351 0.250000
O O13 0.000000 0.307050 0.250000
O O14 0.979649 0.257008 0.133409
O O15 0.000000 0.797188 0.750000
#
# Coordination Sequence:
#
# PCOD9276424 Si02
#       7
#     8   8   8   8   8   8   4
#     4  10  24  43  61  96 135 182 217 277 340 393
#     4  11  24  41  68  96 128 178 229 277 327 402
#     4  11  23  40  67 100 133 173 216 277 334 399
#     4  10  22  42  66  89 140 172 229 270 341 388
#     4  10  23  40  69 101 134 172 225 281 337 390
#     4  11  20  42  68  98 131 170 221 275 335 396
#     4  10  20  40  62 102 118 176 226 274 324 402
#
# _framework density 22.825845000000001
#
# number of rings (size 3 to 8) (size 9 to 14) (size 15 to 20)
#    0.000    1.538    1.538    3.231    7.538    0.000 
#   16.615    1.538    0.000    0.000    0.000    0.000 
#    0.000    0.000    0.000    0.000    0.000    0.000 
#
# Total GULP energy -144895.759513 kJ/mol
# GULP energy per Si atom -5572.913827 kJ/mol
# Density = 2.277389 g / cm^3
# Si number density = 22.825845 Si / 1000 Ang^3
#
#
#
# Elastic Constant Matrix: (Units=GPa)
#
#
# Indices 1 2 3 4 5 6 
#
# 1 97.7601 44.0920 19.3388 0.0000 -22.5960 0.0000
# 2 44.0920 156.4227 29.3595 0.0000 -22.6330 0.0000
# 3 19.3388 29.3595 54.8923 0.0000 -25.8127 0.0000
# 4 0.0000 0.0000 0.0000 31.9828 0.0000 -2.6890
# 5 -22.5960 -22.6330 -25.8127 0.0000 31.4878 0.0000
# 6 0.0000 0.0000 0.0000 -2.6890 0.0000 33.8541
#
#
#
# Elastic Compliance Matrix: (Units=1/GPa)
#
#
# Indices 1 2 3 4 5 6 
#
# 1 0.013165 -0.002657 0.000533 0.000000 0.007975 0.000000
# 2 -0.002657 0.007852 -0.002451 0.000000 0.001728 0.000000
# 3 0.000533 -0.002451 0.030418 0.000000 0.023556 0.000000
# 4 0.000000 0.000000 0.000000 0.031477 0.000000 0.002500
# 5 0.007975 0.001728 0.023556 0.000000 0.058034 0.000000
# 6 0.000000 0.000000 0.000000 0.002500 0.000000 0.029737
#
#
# Mechanical properties :
#
#
# Convention : Reuss Voigt Hill
#
# Bulk Modulus (GPa) = 23.64921 54.96173 39.30547
# Shear Modulus (GPa) = 25.78271 33.88394 29.83333
#
# Velocity S-wave (km/s) = 3.36451 3.85704 3.61916
# Velocity P-wave (km/s) = 5.04742 6.63074 5.89250
#
# Compressibility (1/GPa) = 0.04228470
#
# Stress axis : x y z
#
# Youngs Moduli (GPa) = 75.95688 127.35643 32.87536
#
# Poissons Ratio (x) = 0.33841 -0.01752
# Poissons Ratio (y) = 0.20183 0.08058
# Poissons Ratio (z) = -0.04049 0.31216
#
# Static dielectric constant tensor:
#      x y z
#    x 1.936480 0.000000 0.049060 
#    y 0.000000 1.936450 0.000000 
#    z 0.049060 0.000000 2.054160 
# 
# From -- ./inp_files/186312.got.cif
#   From: 2010.05.17/outbox.cif.g08.bks.cpg/sg15_94_cif.got.tgz:186312.got - 2010.06.03 18:47:42.
