data_PCOD9276773
_publ_section_title
;
Structure prediction by ZEFSAII (Michael W. Deem and Ramdas Pophale) SiO2 
 PCOD9276773
Probable space group: C 2/C
;
_chemical_formula_sum "Si O2"
_cell_formula_units_Z 44
_cell_length_a 8.376517
_cell_length_b 27.209307
_cell_length_c 12.319397
_cell_angle_alpha 90.000000
_cell_angle_beta 49.848906
_cell_angle_gamma 90.000000
_cell_volume 2146.153581
_symmetry_space_group_name_H-M "C 2/C"
_symmetry_group_IT_number 15
_symmetry_cell_setting 'monoclinic'
loop_
_space_group_symop_operation_xyz
x,y,z
-x,y,1/2-z
-x,-y,-z
x,-y,1/2+z
1/2+x,1/2+y,z
1/2-x,1/2+y,1/2-z
1/2-x,1/2-y,-z
1/2+x,1/2-y,1/2+z
loop_
_atom_site_type_symbol
_atom_site_label
_atom_site_fract_x
_atom_site_fract_y
_atom_site_fract_z
Si Si1 0.044535 0.400259 0.062927
Si Si2 0.126135 0.695271 0.805944
Si Si3 0.649092 0.080213 0.275021
Si Si4 0.000000 0.514795 0.750000
Si Si5 0.037076 0.236997 0.531123
Si Si6 0.020119 0.154288 0.120933
O O1 0.062422 0.448820 0.126761
O O2 0.858275 0.363348 0.179456
O O3 0.040036 0.415392 0.939456
O O4 0.249359 0.367133 0.994430
O O5 0.345543 0.723611 0.694461
O O6 0.000000 0.702684 0.750000
O O7 0.004420 0.717875 0.962372
O O8 0.500000 0.104681 0.250000
O O9 0.864686 0.108209 0.188759
O O10 0.666719 0.024090 0.225723
O O11 0.250000 0.250000 0.500000
O O12 0.045379 0.190778 0.445515
O O13 0.000000 0.177622 0.250000
#
# Coordination Sequence:
#
# PCOD9276773 Si02
#       6
#     8   8   8   4   8   8
#     4  11  21  42  68  91 134 175 230 272 334 411
#     4  12  25  44  68  96 129 186 223 271 337 409
#     4   9  23  37  65  96 129 174 218 282 343 390
#     4  10  20  40  64  98 130 172 224 280 342 394
#     4  12  27  42  64  99 134 170 226 285 338 391
#     4  10  22  42  65  92 128 176 223 272 334 408
#
# _framework density 20.501795999999999
#
# number of rings (size 3 to 8) (size 9 to 14) (size 15 to 20)
#    0.545    0.727    2.727    2.182    7.636    0.727 
#    0.000    0.000    0.000    0.000    0.000    0.000 
#    0.000    0.000    0.000    0.000    0.000    0.000 
#
# Total GULP energy -122799.371439 kJ/mol
# GULP energy per Si atom -5581.789611 kJ/mol
# Density = 2.045513 g / cm^3
# Si number density = 20.501796 Si / 1000 Ang^3
#
#
#
# Elastic Constant Matrix: (Units=GPa)
#
#
# Indices 1 2 3 4 5 6 
#
# 1 96.8298 31.5964 43.4672 0.0000 20.7044 0.0000
# 2 31.5964 114.0855 32.4783 0.0000 9.6790 0.0000
# 3 43.4672 32.4783 86.5751 0.0000 12.4514 0.0000
# 4 0.0000 0.0000 0.0000 -103.4657 0.0000 -40.9661
# 5 20.7044 9.6790 12.4514 0.0000 37.1962 0.0000
# 6 0.0000 0.0000 0.0000 -40.9661 0.0000 7.8760
#
#
#
# Elastic Compliance Matrix: (Units=1/GPa)
#
#
# Indices 1 2 3 4 5 6 
#
# 1 0.014843 -0.001943 -0.005892 0.000000 -0.005784 0.000000
# 2 -0.001943 0.010136 -0.002735 0.000000 -0.000641 0.000000
# 3 -0.005892 -0.002735 0.015717 0.000000 -0.001270 0.000000
# 4 0.000000 0.000000 0.000000 -0.003159 0.000000 -0.016432
# 5 -0.005784 -0.000641 -0.001270 0.000000 0.030696 0.000000
# 6 0.000000 0.000000 0.000000 -0.016432 0.000000 0.041501
#
#
# Mechanical properties :
#
#
# Convention : Reuss Voigt Hill
#
# Bulk Modulus (GPa) = 51.13023 56.95270 54.04146
# Shear Modulus (GPa) = 36.39217 0.98454 18.68836
#
# Velocity S-wave (km/s) = 4.21773 0.69373 3.02246
# Velocity P-wave (km/s) = 6.97944 5.33679 6.21264
#
# Compressibility (1/GPa) = 0.01955790
#
# Stress axis : x y z
#
# Youngs Moduli (GPa) = 67.37232 98.65429 63.62388
#
# Poissons Ratio (x) = 0.19167 0.37484
# Poissons Ratio (y) = 0.13089 0.17401
# Poissons Ratio (z) = 0.39692 0.26982
#
# Static dielectric constant tensor:
#      x y z
#    x 1.742280 0.000000 -0.016210 
#    y 0.000000 1.734580 0.000000 
#    z -0.016210 0.000000 1.782180 
# 
# From -- ./inp_files/81119.got.cif
#   From: 2010.05.17/outbox.cif.g08.bks.cpg/sg15_41_cif.got.tgz:81119.got - 2010.06.03 18:47:42.
