data_PCOD9276615
_publ_section_title
;
Structure prediction by ZEFSAII (Michael W. Deem and Ramdas Pophale) SiO2 
 PCOD9276615
Probable space group: C 2/C
;
_chemical_formula_sum "Si O2"
_cell_formula_units_Z 52
_cell_length_a 8.869157
_cell_length_b 23.273107
_cell_length_c 14.578886
_cell_angle_alpha 90.000000
_cell_angle_beta 63.312901
_cell_angle_gamma 90.000000
_cell_volume 2688.699440
_symmetry_space_group_name_H-M "C 2/C"
_symmetry_group_IT_number 15
_symmetry_cell_setting 'monoclinic'
loop_
_space_group_symop_operation_xyz
x,y,z
-x,y,1/2-z
-x,-y,-z
x,-y,1/2+z
1/2+x,1/2+y,z
1/2-x,1/2+y,1/2-z
1/2-x,1/2-y,-z
1/2+x,1/2-y,1/2+z
loop_
_atom_site_type_symbol
_atom_site_label
_atom_site_fract_x
_atom_site_fract_y
_atom_site_fract_z
Si Si1 0.190569 0.070379 0.231860
Si Si2 0.193878 0.002632 0.423130
Si Si3 0.951547 0.576649 0.469901
Si Si4 0.736740 0.796815 0.757544
Si Si5 0.123348 0.703885 0.078785
Si Si6 0.500000 0.206002 0.750000
Si Si7 0.923304 0.594336 0.864825
O O1 0.218446 0.036307 0.319952
O O2 0.361544 0.062384 0.123406
O O3 0.192910 0.139815 0.240349
O O4 0.000000 0.054155 0.250000
O O5 0.315222 0.033819 0.463686
O O6 0.245163 0.935864 0.414644
O O7 0.000000 0.000000 0.500000
O O8 0.884402 0.640134 0.461311
O O9 0.972706 0.578135 0.573652
O O10 0.574716 0.780244 0.863652
O O11 0.679313 0.800665 0.668626
O O12 0.869896 0.746987 0.735689
O O13 0.250000 0.750000 0.000000
O O14 0.420800 0.162172 0.846167
O O15 0.000000 0.569066 0.750000
#
# Coordination Sequence:
#
# PCOD9276615 Si02
#       7
#     8   8   8   8   8   4   8
#     4  11  22  41  70  98 126 167 229 282 333 392
#     4  12  25  42  67  99 132 174 232 275 333 408
#     4  11  22  43  67  94 131 179 221 279 334 403
#     4  10  20  40  63  96 127 169 214 284 320 408
#     4  10  21  37  65  94 127 167 221 266 345 385
#     4  10  22  42  64  92 142 166 224 270 350 392
#     4  10  24  42  63  90 134 179 214 271 350 388
#
# _framework density 19.340205000000001
#
# number of rings (size 3 to 8) (size 9 to 14) (size 15 to 20)
#    0.462    0.923    2.308    3.692    0.000    2.462 
#    2.769    2.308    0.000    0.000    0.000    0.000 
#    0.000    0.000    0.000    0.000    0.000    0.000 
#
# Total GULP energy -144864.993131 kJ/mol
# GULP energy per Si atom -5571.730505 kJ/mol
# Density = 1.929619 g / cm^3
# Si number density = 19.340205 Si / 1000 Ang^3
#
#
#
# Elastic Constant Matrix: (Units=GPa)
#
#
# Indices 1 2 3 4 5 6 
#
# 1 131.8881 63.9633 50.3420 0.0000 3.9650 0.0000
# 2 63.9633 124.5199 39.1369 0.0000 -3.8480 0.0000
# 3 50.3420 39.1369 92.5154 0.0000 11.5105 0.0000
# 4 0.0000 0.0000 0.0000 -48.2984 0.0000 -19.0310
# 5 3.9650 -3.8480 11.5105 0.0000 34.3948 0.0000
# 6 0.0000 0.0000 0.0000 -19.0310 0.0000 38.0170
#
#
#
# Elastic Compliance Matrix: (Units=1/GPa)
#
#
# Indices 1 2 3 4 5 6 
#
# 1 0.011417 -0.004545 -0.004239 0.000000 -0.000406 0.000000
# 2 -0.004545 0.011274 -0.002628 0.000000 0.002665 0.000000
# 3 -0.004239 -0.002628 0.014820 0.000000 -0.004765 0.000000
# 4 0.000000 0.000000 0.000000 -0.017294 0.000000 -0.008657
# 5 -0.000406 0.002665 -0.004765 0.000000 0.031014 0.000000
# 6 0.000000 0.000000 0.000000 -0.008657 0.000000 0.021970
#
#
# Mechanical properties :
#
#
# Convention : Reuss Voigt Hill
#
# Bulk Modulus (GPa) = 68.08615 72.86754 70.47684
# Shear Modulus (GPa) = 49.54431 17.85475 33.69953
#
# Velocity S-wave (km/s) = 5.06684 3.04171 4.17881
# Velocity P-wave (km/s) = 8.33735 7.07775 7.73324
#
# Compressibility (1/GPa) = 0.01468727
#
# Stress axis : x y z
#
# Youngs Moduli (GPa) = 87.59190 88.70349 67.47525
#
# Poissons Ratio (x) = 0.40312 0.28605
# Poissons Ratio (y) = 0.39807 0.17730
# Poissons Ratio (z) = 0.37133 0.23308
#
# Static dielectric constant tensor:
#      x y z
#    x 1.627080 0.000000 0.006720 
#    y 0.000000 1.670260 0.000000 
#    z 0.006720 0.000000 1.715150 
# 
# From -- ./inp_files/137194.got.cif
#   From: 2010.05.17/outbox.cif.g08.bks.cpg/sg15_69_cif.got.tgz:137194.got - 2010.06.03 18:47:42.
