data_PCOD9276016
_publ_section_title
;
Structure prediction by ZEFSAII (Michael W. Deem and Ramdas Pophale) SiO2 
 PCOD9276016
Probable space group: C 2/C
;
_chemical_formula_sum "Si O2"
_cell_formula_units_Z 48
_cell_length_a 16.581464
_cell_length_b 9.392122
_cell_length_c 22.737356
_cell_angle_alpha 90.000000
_cell_angle_beta 148.068008
_cell_angle_gamma 90.000000
_cell_volume 1872.881143
_symmetry_space_group_name_H-M "C 2/C"
_symmetry_group_IT_number 15
_symmetry_cell_setting 'monoclinic'
loop_
_space_group_symop_operation_xyz
x,y,z
-x,y,1/2-z
-x,-y,-z
x,-y,1/2+z
1/2+x,1/2+y,z
1/2-x,1/2+y,1/2-z
1/2-x,1/2-y,-z
1/2+x,1/2-y,1/2+z
loop_
_atom_site_type_symbol
_atom_site_label
_atom_site_fract_x
_atom_site_fract_y
_atom_site_fract_z
Si Si1 0.343346 0.585118 0.789289
Si Si2 0.313914 0.935897 0.489549
Si Si3 0.071805 0.358893 0.734927
Si Si4 0.008385 0.671834 0.584719
Si Si5 0.113914 0.847078 0.537705
Si Si6 0.977681 0.878689 0.669657
O O1 0.378295 0.731473 0.776742
O O2 0.169632 0.598509 0.701354
O O3 0.371639 0.455172 0.762622
O O4 0.475624 0.575118 0.919833
O O5 0.432573 0.937669 0.617264
O O6 0.325145 0.781220 0.467199
O O7 0.389322 0.051152 0.493060
O O8 0.150649 0.996921 0.406824
O O9 0.232051 0.432691 0.851405
O O10 0.000000 0.299194 0.750000
O O11 0.045586 0.772238 0.552992
O O12 0.942826 0.759575 0.599549
O O13 0.000000 0.825399 0.750000
#
# Coordination Sequence:
#
# PCOD9276016 Si02
#       6
#     8   8   8   8   8   8
#     4  10  23  41  69  99 132 183 234 289 336 409
#     4  11  24  44  69  99 142 183 228 285 354 408
#     4  10  20  39  67 100 130 173 234 289 339 403
#     4  11  26  42  67 101 141 183 236 276 353 412
#     4  10  22  42  72  97 135 179 236 290 338 407
#     4  12  26  44  70 101 143 185 230 282 348 415
#
# _framework density 25.628961
#
# number of rings (size 3 to 8) (size 9 to 14) (size 15 to 20)
#    0.000    1.333    0.000    5.500    9.333    4.000 
#    3.000    0.000    0.000    0.000    0.000    0.000 
#    0.000    0.000    0.000    0.000    0.000    0.000 
#
# Total GULP energy -134449.544826 kJ/mol
# GULP energy per Si atom -5602.064368 kJ/mol
# Density = 2.557063 g / cm^3
# Si number density = 25.628961 Si / 1000 Ang^3
#
#
#
# Elastic Constant Matrix: (Units=GPa)
#
#
# Indices 1 2 3 4 5 6 
#
# 1 102.1103 17.0101 47.7145 0.0000 4.3678 0.0000
# 2 17.0101 50.3427 7.0670 -0.0001 15.0853 0.0000
# 3 47.7145 7.0670 148.9456 -0.0003 -4.1220 -0.0001
# 4 0.0000 -0.0001 -0.0003 9.6081 -0.0001 7.2199
# 5 4.3678 15.0853 -4.1220 -0.0001 31.8431 0.0000
# 6 0.0000 0.0000 -0.0001 7.2199 0.0000 36.1943
#
#
#
# Elastic Compliance Matrix: (Units=1/GPa)
#
#
# Indices 1 2 3 4 5 6 
#
# 1 0.012132 -0.003416 -0.003739 0.000000 -0.000530 0.000000
# 2 -0.003416 0.024409 -0.000372 0.000000 -0.011143 0.000000
# 3 -0.003739 -0.000372 0.007977 0.000000 0.001722 0.000000
# 4 0.000000 0.000000 0.000000 0.122431 0.000000 -0.024422
# 5 -0.000530 -0.011143 0.001722 0.000000 0.036979 0.000000
# 6 0.000000 0.000000 0.000000 -0.024422 0.000000 0.032500
#
#
# Mechanical properties :
#
#
# Convention : Reuss Voigt Hill
#
# Bulk Modulus (GPa) = 33.93932 49.44242 41.69087
# Shear Modulus (GPa) = 19.13480 30.83622 24.98551
#
# Velocity S-wave (km/s) = 2.73538 3.47245 3.12572
# Velocity P-wave (km/s) = 4.82159 5.95069 5.41564
#
# Compressibility (1/GPa) = 0.02946435
#
# Stress axis : x y z
#
# Youngs Moduli (GPa) = 82.42498 40.96801 125.36022
#
# Poissons Ratio (x) = 0.13993 0.46874
# Poissons Ratio (y) = 0.28153 0.04668
# Poissons Ratio (z) = 0.30820 0.01525
#
# Static dielectric constant tensor:
#      x y z
#    x 2.014770 0.000000 -0.035880 
#    y 0.000000 2.028430 0.000000 
#    z -0.035880 0.000000 2.060360 
# 
# From -- ./inp_files/243982.got.cif
#   From: 2010.05.17/outbox.cif.g08.bks.cpg/sg15_122_cif.got.tgz:243982.got - 2010.06.03 18:47:42.
