data_PCOD9276253
_publ_section_title
;
Structure prediction by ZEFSAII (Michael W. Deem and Ramdas Pophale) SiO2 
 PCOD9276253
Probable space group: C 2/C
;
_chemical_formula_sum "Si O2"
_cell_formula_units_Z 40
_cell_length_a 19.300079
_cell_length_b 15.914683
_cell_length_c 11.532526
_cell_angle_alpha 90.000000
_cell_angle_beta 145.554522
_cell_angle_gamma 90.000000
_cell_volume 2003.584319
_symmetry_space_group_name_H-M "C 2/C"
_symmetry_group_IT_number 15
_symmetry_cell_setting 'monoclinic'
loop_
_space_group_symop_operation_xyz
x,y,z
-x,y,1/2-z
-x,-y,-z
x,-y,1/2+z
1/2+x,1/2+y,z
1/2-x,1/2+y,1/2-z
1/2-x,1/2-y,-z
1/2+x,1/2-y,1/2+z
loop_
_atom_site_type_symbol
_atom_site_label
_atom_site_fract_x
_atom_site_fract_y
_atom_site_fract_z
Si Si1 0.161540 0.655592 0.691846
Si Si2 0.420526 0.243572 0.312580
Si Si3 0.754427 0.614849 0.941130
Si Si4 0.633081 0.222676 0.990846
Si Si5 0.624232 0.051884 0.857498
O O1 0.216724 0.610593 0.656016
O O2 0.268798 0.706328 0.904263
O O3 0.099254 0.592583 0.697049
O O4 0.063479 0.723540 0.511175
O O5 0.374093 0.337072 0.218334
O O6 0.377040 0.226676 0.384330
O O7 0.352608 0.177425 0.136034
O O8 0.778928 0.522395 0.022184
O O9 0.500000 0.238846 0.750000
O O10 0.668262 0.129725 0.997256
O O11 0.500000 0.020425 0.750000
#
# Coordination Sequence:
#
# PCOD9276253 Si02
#       5
#     8   8   8   8   8
#     4  11  21  38  64  81 118 161 195 235 299 355
#     4  10  20  40  57  82 120 156 186 240 294 362
#     4  10  24  36  58  90 119 147 198 245 297 339
#     4  10  21  37  60  86 115 152 198 243 291 350
#     4  11  21  35  59  90 114 145 201 249 283 335
#
# _framework density 19.964220000000001
#
# number of rings (size 3 to 8) (size 9 to 14) (size 15 to 20)
#    0.000    1.600    4.000    2.400    2.800    1.600 
#    0.000    1.000    0.000    0.000    0.000    0.000 
#    0.000    0.000    0.000    0.000    0.000    0.000 
#
# Total GULP energy -111609.676615 kJ/mol
# GULP energy per Si atom -5580.483831 kJ/mol
# Density = 1.991878 g / cm^3
# Si number density = 19.964220 Si / 1000 Ang^3
#
#
#
# Elastic Constant Matrix: (Units=GPa)
#
#
# Indices 1 2 3 4 5 6 
#
# 1 35.0545 -0.4283 9.1150 0.0000 -10.0150 0.0000
# 2 -0.4283 80.5340 50.8914 0.0000 13.0672 0.0000
# 3 9.1150 50.8914 83.0502 0.0000 4.5564 0.0000
# 4 0.0000 0.0000 0.0000 33.3079 0.0000 1.9673
# 5 -10.0150 13.0672 4.5564 0.0000 32.2116 0.0000
# 6 0.0000 0.0000 0.0000 1.9673 0.0000 -0.9585
#
#
#
# Elastic Compliance Matrix: (Units=1/GPa)
#
#
# Indices 1 2 3 4 5 6 
#
# 1 0.032847 0.001879 -0.005316 0.000000 0.010202 0.000000
# 2 0.001879 0.021825 -0.013229 0.000000 -0.006398 0.000000
# 3 -0.005316 -0.013229 0.020688 0.000000 0.000787 0.000000
# 4 0.000000 0.000000 0.000000 0.026777 0.000000 0.054958
# 5 0.010202 -0.006398 0.000787 0.000000 0.036701 0.000000
# 6 0.000000 0.000000 0.000000 0.054958 0.000000 -0.930488
#
#
# Mechanical properties :
#
#
# Convention : Reuss Voigt Hill
#
# Bulk Modulus (GPa) = 23.79433 35.31055 29.55244
# Shear Modulus (GPa) = -6.71764 22.18290 7.73263
#
# Velocity S-wave (km/s) = -1.83634 3.33698 1.97019
# Velocity P-wave (km/s) = 2.72913 5.70724 4.47330
#
# Compressibility (1/GPa) = 0.04202682
#
# Stress axis : x y z
#
# Youngs Moduli (GPa) = 30.44413 45.81885 48.33806
#
# Poissons Ratio (x) = -0.08607 0.25696
# Poissons Ratio (y) = -0.05719 0.63947
# Poissons Ratio (z) = 0.16184 0.60614
#
# Static dielectric constant tensor:
#      x y z
#    x 1.738600 0.000000 0.012750 
#    y 0.000000 1.693400 0.000000 
#    z 0.012750 0.000000 1.719530 
# 
# From -- ./inp_files/86664.got.cif
#   From: 2010.05.17/outbox.cif.g08.bks.cpg/sg15_44_cif.got.tgz:86664.got - 2010.06.03 18:47:42.
