data_PCOD9276878
_publ_section_title
;
Structure prediction by ZEFSAII (Michael W. Deem and Ramdas Pophale) SiO2 
 PCOD9276878
Probable space group: C 2/C
;
_chemical_formula_sum "Si O2"
_cell_formula_units_Z 52
_cell_length_a 8.828922
_cell_length_b 18.480124
_cell_length_c 15.325533
_cell_angle_alpha 90.000000
_cell_angle_beta 68.476225
_cell_angle_gamma 90.000000
_cell_volume 2326.135559
_symmetry_space_group_name_H-M "C 2/C"
_symmetry_group_IT_number 15
_symmetry_cell_setting 'monoclinic'
loop_
_space_group_symop_operation_xyz
x,y,z
-x,y,1/2-z
-x,-y,-z
x,-y,1/2+z
1/2+x,1/2+y,z
1/2-x,1/2+y,1/2-z
1/2-x,1/2-y,-z
1/2+x,1/2-y,1/2+z
loop_
_atom_site_type_symbol
_atom_site_label
_atom_site_fract_x
_atom_site_fract_y
_atom_site_fract_z
Si Si1 0.000000 0.793564 0.750000
Si Si2 0.112016 0.706167 0.582353
Si Si3 0.500000 0.152566 0.250000
Si Si4 0.592994 0.417758 0.040957
Si Si5 0.765966 0.063023 0.500939
Si Si6 0.223755 0.917538 0.707086
Si Si7 0.210729 0.782356 0.914963
Si Si8 0.000000 0.947665 0.250000
O O1 0.123155 0.739929 0.675906
O O2 0.115386 0.852950 0.772084
O O3 0.250000 0.750000 0.500000
O O4 0.138659 0.620862 0.565682
O O5 0.931993 0.732815 0.594443
O O6 0.597886 0.100373 0.295984
O O7 0.627184 0.203841 0.173687
O O8 0.416786 0.436350 0.036539
O O9 0.556024 0.404772 0.151786
O O10 0.740266 0.476631 0.010123
O O11 0.643443 0.358860 0.960663
O O12 0.790598 0.089479 0.395234
O O13 0.144125 0.995040 0.746050
O O14 0.250000 0.750000 0.000000
#
# Coordination Sequence:
#
# PCOD9276878 Si02
#       8
#     4   8   4   8   8   8   8   4
#     4  11  20  36  67  95 137 174 242 278 355 412
#     4  12  22  41  68 104 132 178 236 295 339 430
#     4  12  26  41  65 103 149 194 236 294 362 437
#     4  10  22  44  72 104 137 187 229 298 368 429
#     4  10  21  40  75 100 138 176 242 290 356 425
#     4  10  20  40  66 103 132 192 236 286 349 443
#     4  12  27  45  68 101 144 188 238 297 367 428
#     4   9  22  41  76 100 138 184 238 298 367 437
#
# _framework density 22.354672999999998
#
# number of rings (size 3 to 8) (size 9 to 14) (size 15 to 20)
#    0.000    1.231    4.615    0.923    6.462    0.615 
#    2.769    7.692    0.000    0.000    0.000    0.000 
#    0.000    0.000    0.000    0.000    0.000    0.000 
#
# Total GULP energy -144745.865832 kJ/mol
# GULP energy per Si atom -5567.148686 kJ/mol
# Density = 2.230379 g / cm^3
# Si number density = 22.354673 Si / 1000 Ang^3
#
#
#
# Elastic Constant Matrix: (Units=GPa)
#
#
# Indices 1 2 3 4 5 6 
#
# 1 101.3852 14.5024 24.1916 0.0000 1.7128 0.0000
# 2 14.5024 51.7266 23.8976 0.0000 8.3482 0.0000
# 3 24.1916 23.8976 120.5006 0.0000 5.4492 0.0000
# 4 0.0000 0.0000 0.0000 25.2547 0.0000 3.1542
# 5 1.7128 8.3482 5.4492 0.0000 27.1708 0.0000
# 6 0.0000 0.0000 0.0000 3.1542 0.0000 20.4269
#
#
#
# Elastic Compliance Matrix: (Units=1/GPa)
#
#
# Indices 1 2 3 4 5 6 
#
# 1 0.010583 -0.002242 -0.001696 0.000000 0.000362 0.000000
# 2 -0.002242 0.022684 -0.003774 0.000000 -0.006072 0.000000
# 3 -0.001696 -0.003774 0.009416 0.000000 -0.000622 0.000000
# 4 0.000000 0.000000 0.000000 0.040375 0.000000 -0.006235
# 5 0.000362 -0.006072 -0.000622 0.000000 0.038772 0.000000
# 6 0.000000 0.000000 0.000000 -0.006235 0.000000 0.049918
#
#
# Mechanical properties :
#
#
# Convention : Reuss Voigt Hill
#
# Bulk Modulus (GPa) = 36.68572 44.31062 40.49817
# Shear Modulus (GPa) = 25.47664 28.63854 27.05759
#
# Velocity S-wave (km/s) = 3.37954 3.58313 3.48282
# Velocity P-wave (km/s) = 5.62804 6.08137 5.85909
#
# Compressibility (1/GPa) = 0.02725856
#
# Stress axis : x y z
#
# Youngs Moduli (GPa) = 94.49390 44.08307 106.20359
#
# Poissons Ratio (x) = 0.09882 0.18016
# Poissons Ratio (y) = 0.21183 0.40083
# Poissons Ratio (z) = 0.16030 0.16638
#
# Static dielectric constant tensor:
#      x y z
#    x 1.949300 0.000000 0.097170 
#    y 0.000000 1.815810 0.000000 
#    z 0.097170 0.000000 1.833440 
# 
# From -- ./inp_files/190871.got.cif
#   From: 2010.05.17/outbox.cif.g08.bks.cpg/sg15_96_cif.got.tgz:190871.got - 2010.06.03 18:47:42.
