data_PCOD9276850
_publ_section_title
;
Structure prediction by ZEFSAII (Michael W. Deem and Ramdas Pophale) SiO2 
 PCOD9276850
Probable space group: C 2/C
;
_chemical_formula_sum "Si O2"
_cell_formula_units_Z 28
_cell_length_a 8.881615
_cell_length_b 14.854624
_cell_length_c 8.390029
_cell_angle_alpha 90.000000
_cell_angle_beta 101.164479
_cell_angle_gamma 90.000000
_cell_volume 1085.974051
_symmetry_space_group_name_H-M "C 2/C"
_symmetry_group_IT_number 15
_symmetry_cell_setting 'monoclinic'
loop_
_space_group_symop_operation_xyz
x,y,z
-x,y,1/2-z
-x,-y,-z
x,-y,1/2+z
1/2+x,1/2+y,z
1/2-x,1/2+y,1/2-z
1/2-x,1/2-y,-z
1/2+x,1/2-y,1/2+z
loop_
_atom_site_type_symbol
_atom_site_label
_atom_site_fract_x
_atom_site_fract_y
_atom_site_fract_z
Si Si1 0.209392 0.959990 0.151118
Si Si2 0.815399 0.788288 0.180184
Si Si3 0.289808 0.370692 0.666704
Si Si4 0.000000 0.448612 0.750000
O O1 0.211076 0.894817 0.304152
O O2 0.143267 0.056246 0.192616
O O3 0.380073 0.988417 0.137380
O O4 0.152990 0.899288 0.994433
O O5 0.708091 0.733193 0.284449
O O6 0.000000 0.778346 0.250000
O O7 0.750000 0.750000 0.000000
O O8 0.108258 0.390940 0.658171
#
# Coordination Sequence:
#
# PCOD9276850 Si02
#       4
#     8   8   8   4
#     4  10  21  37  67  97 124 166 223 270 314 372
#     4  12  26  43  66  95 134 172 215 266 325 385
#     4  10  20  40  65  95 126 171 219 264 313 394
#     4   8  20  34  72  88 124 162 232 250 316 374
#
# _framework density 25.783306
#
# number of rings (size 3 to 8) (size 9 to 14) (size 15 to 20)
#    1.714    0.000    1.429    3.429    4.000    0.000 
#    0.000    5.714    0.000    0.000    0.000    0.000 
#    0.000    0.000    0.000    0.000    0.000    0.000 
#
# Total GULP energy -77946.085656 kJ/mol
# GULP energy per Si atom -5567.577547 kJ/mol
# Density = 2.572462 g / cm^3
# Si number density = 25.783306 Si / 1000 Ang^3
#
#
#
# Elastic Constant Matrix: (Units=GPa)
#
#
# Indices 1 2 3 4 5 6 
#
# 1 103.5098 11.5201 19.5922 0.0000 21.9384 0.0000
# 2 11.5201 109.1612 -8.6063 0.0000 13.4314 0.0000
# 3 19.5922 -8.6063 74.1908 0.0000 0.1860 0.0000
# 4 0.0000 0.0000 0.0000 25.7871 0.0000 19.6722
# 5 21.9384 13.4314 0.1860 0.0000 27.7081 0.0000
# 6 0.0000 0.0000 0.0000 19.6722 0.0000 -50.7884
#
#
#
# Elastic Compliance Matrix: (Units=1/GPa)
#
#
# Indices 1 2 3 4 5 6 
#
# 1 0.012354 -0.000385 -0.003283 0.000000 -0.009573 0.000000
# 2 -0.000385 0.009851 0.001256 0.000000 -0.004479 0.000000
# 3 -0.003283 0.001256 0.014487 0.000000 0.001894 0.000000
# 4 0.000000 0.000000 0.000000 0.029934 0.000000 0.011595
# 5 -0.009573 -0.004479 0.001894 0.000000 0.045829 0.000000
# 6 0.000000 0.000000 0.000000 0.011595 0.000000 -0.015199
#
#
# Mechanical properties :
#
#
# Convention : Reuss Voigt Hill
#
# Bulk Modulus (GPa) = 31.37953 36.87487 34.12720
# Shear Modulus (GPa) = 44.36419 18.16507 31.26463
#
# Velocity S-wave (km/s) = 4.15258 2.65718 3.48601
# Velocity P-wave (km/s) = 5.93201 4.87309 5.42843
#
# Compressibility (1/GPa) = 0.03186791
#
# Stress axis : x y z
#
# Youngs Moduli (GPa) = 80.94464 101.50740 69.02897
#
# Poissons Ratio (x) = 0.03905 0.22663
# Poissons Ratio (y) = 0.03114 -0.08667
# Poissons Ratio (z) = 0.26575 -0.12745
#
# Static dielectric constant tensor:
#      x y z
#    x 2.105270 0.000000 0.166280 
#    y 0.000000 2.030360 0.000000 
#    z 0.166280 0.000000 2.344810 
# 
# From -- ./inp_files/21678.got.cif
#   From: 2010.05.17/outbox.cif.g08.bks.cpg/sg15_11_cif.got.tgz:21678.got - 2010.06.03 18:47:42.
