data_PCOD9276580
_publ_section_title
;
Structure prediction by ZEFSAII (Michael W. Deem and Ramdas Pophale) SiO2 
 PCOD9276580
Probable space group: C 2/C
;
_chemical_formula_sum "Si O2"
_cell_formula_units_Z 48
_cell_length_a 24.095017
_cell_length_b 7.859549
_cell_length_c 15.568670
_cell_angle_alpha 90.000000
_cell_angle_beta 36.479879
_cell_angle_gamma 90.000000
_cell_volume 1752.902604
_symmetry_space_group_name_H-M "C 2/C"
_symmetry_group_IT_number 15
_symmetry_cell_setting 'monoclinic'
loop_
_space_group_symop_operation_xyz
x,y,z
-x,y,1/2-z
-x,-y,-z
x,-y,1/2+z
1/2+x,1/2+y,z
1/2-x,1/2+y,1/2-z
1/2-x,1/2-y,-z
1/2+x,1/2-y,1/2+z
loop_
_atom_site_type_symbol
_atom_site_label
_atom_site_fract_x
_atom_site_fract_y
_atom_site_fract_z
Si Si1 0.546421 0.854393 0.996584
Si Si2 0.394631 0.213584 0.914728
Si Si3 0.305140 0.454350 0.599935
Si Si4 0.134606 0.427435 0.211810
Si Si5 0.399282 0.705819 0.831331
Si Si6 0.392574 0.469252 0.162305
O O1 0.602779 0.916177 0.008980
O O2 0.444239 0.791683 0.158608
O O3 0.612751 0.726707 0.865430
O O4 0.500000 0.000000 0.000000
O O5 0.500000 0.209962 0.750000
O O6 0.328539 0.155552 0.921639
O O7 0.374395 0.395399 0.980641
O O8 0.205800 0.534916 0.698961
O O9 0.326160 0.309689 0.501798
O O10 0.328462 0.429272 0.671950
O O11 0.099837 0.609442 0.216235
O O12 0.500000 0.681602 0.750000
O O13 0.380713 0.563786 0.779453
O O14 0.500000 0.500000 0.000000
#
# Coordination Sequence:
#
# PCOD9276580 Si02
#       6
#     8   8   8   8   8   8
#     4  10  20  40  63  90 126 165 219 264 311 394
#     4   9  20  38  66  87 123 172 215 250 317 395
#     4  11  24  43  62  97 136 167 215 274 330 393
#     4  11  23  41  63  99 128 168 215 277 334 374
#     4  12  23  42  70  93 133 174 223 268 323 400
#     4  11  24  43  65  94 126 175 221 259 326 398
#
# _framework density 27.383154999999999
#
# number of rings (size 3 to 8) (size 9 to 14) (size 15 to 20)
#    0.000    1.333    3.333    3.000    4.667    0.000 
#    6.000    0.000    0.000    0.000    0.000    0.000 
#    0.000    0.000    0.000    0.000    0.000    0.000 
#
# Total GULP energy -133806.965892 kJ/mol
# GULP energy per Si atom -5575.290246 kJ/mol
# Density = 2.732083 g / cm^3
# Si number density = 27.383155 Si / 1000 Ang^3
#
#
#
# Elastic Constant Matrix: (Units=GPa)
#
#
# Indices 1 2 3 4 5 6 
#
# 1 175.2244 2.2200 47.5014 -0.0037 23.2269 0.0017
# 2 2.2200 61.8684 12.6826 -0.0064 10.8168 0.0046
# 3 47.5014 12.6826 61.7647 -0.0042 9.5387 0.0039
# 4 -0.0037 -0.0064 -0.0042 35.8858 0.0021 8.5987
# 5 23.2269 10.8168 9.5387 0.0021 35.5637 -0.0015
# 6 0.0017 0.0046 0.0039 8.5987 -0.0015 28.1231
#
#
#
# Elastic Compliance Matrix: (Units=1/GPa)
#
#
# Indices 1 2 3 4 5 6 
#
# 1 0.007758 0.001588 -0.005670 0.000001 -0.004029 0.000000
# 2 0.001588 0.017881 -0.004061 0.000004 -0.005387 -0.000004
# 3 -0.005670 -0.004061 0.021514 0.000002 -0.000832 -0.000003
# 4 0.000001 0.000004 0.000002 0.030069 -0.000004 -0.009194
# 5 -0.004029 -0.005387 -0.000832 -0.000004 0.032611 0.000004
# 6 0.000000 -0.000004 -0.000003 -0.009194 0.000004 0.038369
#
#
# Mechanical properties :
#
#
# Convention : Reuss Voigt Hill
#
# Bulk Modulus (GPa) = 32.39818 47.07396 39.73607
# Shear Modulus (GPa) = 28.60783 35.67809 32.14296
#
# Velocity S-wave (km/s) = 3.23572 3.61352 3.42983
# Velocity P-wave (km/s) = 5.08104 5.88542 5.49796
#
# Compressibility (1/GPa) = 0.03086593
#
# Stress axis : x y z
#
# Youngs Moduli (GPa) = 128.89708 55.92639 46.48169
#
# Poissons Ratio (x) = -0.08884 0.26357
# Poissons Ratio (y) = -0.20475 0.18878
# Poissons Ratio (z) = 0.73091 0.22714
#
# Static dielectric constant tensor:
#      x y z
#    x 2.248060 0.000010 -0.038600 
#    y 0.000010 2.637830 0.000010 
#    z -0.038600 0.000010 2.481080 
# 
# From -- ./inp_files/176904.got.cif
#   From: 2010.05.17/outbox.cif.g08.bks.cpg/sg15_89_cif.got.tgz:176904.got - 2010.06.03 18:47:42.
