data_PCOD9276756
_publ_section_title
;
Structure prediction by ZEFSAII (Michael W. Deem and Ramdas Pophale) SiO2 
 PCOD9276756
Probable space group: C 2/C
;
_chemical_formula_sum "Si O2"
_cell_formula_units_Z 48
_cell_length_a 18.613075
_cell_length_b 10.572926
_cell_length_c 13.411847
_cell_angle_alpha 90.000000
_cell_angle_beta 54.284911
_cell_angle_gamma 90.000000
_cell_volume 2142.991277
_symmetry_space_group_name_H-M "C 2/C"
_symmetry_group_IT_number 15
_symmetry_cell_setting 'monoclinic'
loop_
_space_group_symop_operation_xyz
x,y,z
-x,y,1/2-z
-x,-y,-z
x,-y,1/2+z
1/2+x,1/2+y,z
1/2-x,1/2+y,1/2-z
1/2-x,1/2-y,-z
1/2+x,1/2-y,1/2+z
loop_
_atom_site_type_symbol
_atom_site_label
_atom_site_fract_x
_atom_site_fract_y
_atom_site_fract_z
Si Si1 0.500000 0.955166 0.250000
Si Si2 0.667707 0.209187 0.634819
Si Si3 0.500000 0.614134 0.750000
Si Si4 0.082057 0.214742 0.507305
Si Si5 0.206309 0.574046 0.810009
Si Si6 0.939159 0.401596 0.608014
Si Si7 0.613923 0.456952 0.799187
O O1 0.416233 0.864898 0.347242
O O2 0.542398 0.048430 0.296323
O O3 0.750000 0.250000 0.500000
O O4 0.701498 0.124715 0.700710
O O5 0.630993 0.335219 0.716458
O O6 0.576336 0.691392 0.630312
O O7 0.534069 0.528499 0.812333
O O8 0.150349 0.326495 0.421592
O O9 0.103348 0.096853 0.419264
O O10 0.983828 0.266954 0.557657
O O11 0.159038 0.435599 0.846016
O O12 0.303886 0.552217 0.768695
O O13 0.000000 0.500000 0.500000
#
# Coordination Sequence:
#
# PCOD9276756 Si02
#       7
#     4   8   4   8   8   8   8
#     4  10  20  40  64  96 130 164 224 274 316 400
#     4  10  23  40  67  99 129 178 222 266 337 395
#     4  12  26  44  66  92 134 176 208 272 336 404
#     4  10  23  43  66  97 124 171 218 263 336 389
#     4   9  22  44  64  97 130 166 218 275 316 388
#     4   9  19  38  67  89 123 161 211 269 315 373
#     4  11  25  44  62  97 134 168 217 271 330 395
#
# _framework density 22.398599000000001
#
# number of rings (size 3 to 8) (size 9 to 14) (size 15 to 20)
#    0.000    2.000    0.000    2.500    7.000    3.333 
#    9.000    0.000    0.000    0.000    0.000    0.000 
#    0.000    0.000    0.000    0.000    0.000    0.000 
#
# Total GULP energy -133931.855027 kJ/mol
# GULP energy per Si atom -5580.493959 kJ/mol
# Density = 2.234762 g / cm^3
# Si number density = 22.398599 Si / 1000 Ang^3
#
#
#
# Elastic Constant Matrix: (Units=GPa)
#
#
# Indices 1 2 3 4 5 6 
#
# 1 58.8416 17.2150 5.9485 0.0000 -15.5965 0.0000
# 2 17.2150 64.6857 29.1003 0.0000 -3.3158 0.0000
# 3 5.9485 29.1003 119.0685 0.0000 -0.4273 0.0000
# 4 0.0000 0.0000 0.0000 12.1684 0.0000 -4.7134
# 5 -15.5965 -3.3158 -0.4273 0.0000 26.3711 0.0000
# 6 0.0000 0.0000 0.0000 -4.7134 0.0000 18.3141
#
#
#
# Elastic Compliance Matrix: (Units=1/GPa)
#
#
# Indices 1 2 3 4 5 6 
#
# 1 0.021747 -0.005273 0.000246 0.000000 0.012203 0.000000
# 2 -0.005273 0.018766 -0.004326 0.000000 -0.000829 0.000000
# 3 0.000246 -0.004326 0.009443 0.000000 -0.000245 0.000000
# 4 0.000000 0.000000 0.000000 0.091280 0.000000 0.023492
# 5 0.012203 -0.000829 -0.000245 0.000000 0.045029 0.000000
# 6 0.000000 0.000000 0.000000 0.023492 0.000000 0.060649
#
#
# Mechanical properties :
#
#
# Convention : Reuss Voigt Hill
#
# Bulk Modulus (GPa) = 31.99965 38.56928 35.28446
# Shear Modulus (GPa) = 18.11359 24.05952 21.08655
#
# Velocity S-wave (km/s) = 2.84684 3.28098 3.07159
# Velocity P-wave (km/s) = 5.01233 5.62228 5.32604
#
# Compressibility (1/GPa) = 0.03125034
#
# Stress axis : x y z
#
# Youngs Moduli (GPa) = 45.98338 53.28699 105.90258
#
# Poissons Ratio (x) = 0.28097 -0.02605
# Poissons Ratio (y) = 0.24246 0.45814
# Poissons Ratio (z) = -0.01131 0.23052
#
# Static dielectric constant tensor:
#      x y z
#    x 1.801980 0.000000 -0.011200 
#    y 0.000000 1.885230 0.000000 
#    z -0.011200 0.000000 1.889000 
# 
# From -- ./inp_files/167172.got.cif
#   From: 2010.05.17/outbox.cif.g08.bks.cpg/sg15_84_cif.got.tgz:167172.got - 2010.06.03 18:47:42.
