data_PCOD9276234
_publ_section_title
;
Structure prediction by ZEFSAII (Michael W. Deem and Ramdas Pophale) SiO2 
 PCOD9276234
Probable space group: C 2/C
;
_chemical_formula_sum "Si O2"
_cell_formula_units_Z 60
_cell_length_a 13.038673
_cell_length_b 24.373707
_cell_length_c 8.887140
_cell_angle_alpha 90.000000
_cell_angle_beta 72.989467
_cell_angle_gamma 90.000000
_cell_volume 2700.778079
_symmetry_space_group_name_H-M "C 2/C"
_symmetry_group_IT_number 15
_symmetry_cell_setting 'monoclinic'
loop_
_space_group_symop_operation_xyz
x,y,z
-x,y,1/2-z
-x,-y,-z
x,-y,1/2+z
1/2+x,1/2+y,z
1/2-x,1/2+y,1/2-z
1/2-x,1/2-y,-z
1/2+x,1/2-y,1/2+z
loop_
_atom_site_type_symbol
_atom_site_label
_atom_site_fract_x
_atom_site_fract_y
_atom_site_fract_z
Si Si1 0.683514 0.150563 0.756409
Si Si2 0.949917 0.275811 0.009264
Si Si3 0.000000 0.115682 0.750000
Si Si4 0.475261 0.662252 0.074173
Si Si5 0.173204 0.259417 0.738022
Si Si6 0.617980 0.553775 0.223156
Si Si7 0.222427 0.187645 0.062063
Si Si8 0.185595 0.050800 0.845820
O O1 0.771201 0.198935 0.766931
O O2 0.690702 0.155018 0.573209
O O3 0.719969 0.088300 0.763775
O O4 0.576939 0.170322 0.884241
O O5 0.861909 0.271191 0.915886
O O6 0.063589 0.266325 0.881386
O O7 0.938652 0.223952 0.124595
O O8 0.915409 0.079190 0.695081
O O9 0.042086 0.153581 0.596437
O O10 0.416087 0.610225 0.175821
O O11 0.396570 0.667482 0.437546
O O12 0.244426 0.308536 0.778450
O O13 0.500000 0.528313 0.250000
O O14 0.684920 0.512667 0.298742
O O15 0.669358 0.556210 0.033737
O O16 0.250000 0.250000 0.000000
#
# Coordination Sequence:
#
# PCOD9276234 Si02
#       8
#     8   8   4   8   8   8   8   8
#     4  11  22  39  60  88 132 174 214 267 324 391
#     4  11  22  39  64  89 130 186 221 258 336 384
#     4  12  20  40  64  82 132 178 214 266 316 394
#     4  12  23  39  64  93 134 184 220 267 328 389
#     4  10  22  41  58  91 134 179 220 274 313 396
#     4  12  24  40  61  94 127 174 216 266 338 397
#     4  10  20  40  54  85 132 172 213 268 311 382
#     4  12  24  43  60  93 132 168 219 275 324 407
#
# _framework density 22.215820999999998
#
# number of rings (size 3 to 8) (size 9 to 14) (size 15 to 20)
#    0.000    0.800    6.000    3.200    0.000    5.867 
#    2.400    1.333    0.000    0.000    0.000    0.000 
#    0.000   38.400    0.000    0.000    0.000    0.000 
#
# Total GULP energy -167161.652181 kJ/mol
# GULP energy per Si atom -5572.055073 kJ/mol
# Density = 2.216526 g / cm^3
# Si number density = 22.215821 Si / 1000 Ang^3
#
#
#
# Elastic Constant Matrix: (Units=GPa)
#
#
# Indices 1 2 3 4 5 6 
#
# 1 71.1477 25.9861 45.2506 0.0000 1.3330 0.0000
# 2 25.9861 137.8106 54.6176 0.0000 -4.0917 0.0000
# 3 45.2506 54.6176 130.4361 0.0000 7.6463 0.0000
# 4 0.0000 0.0000 0.0000 14.6849 0.0000 3.9572
# 5 1.3330 -4.0917 7.6463 0.0000 46.2747 0.0000
# 6 0.0000 0.0000 0.0000 3.9572 0.0000 39.4417
#
#
#
# Elastic Compliance Matrix: (Units=1/GPa)
#
#
# Indices 1 2 3 4 5 6 
#
# 1 0.018181 -0.001091 -0.005871 0.000000 0.000350 0.000000
# 2 -0.001091 0.008854 -0.003410 0.000000 0.001378 0.000000
# 3 -0.005871 -0.003410 0.011248 0.000000 -0.001991 0.000000
# 4 0.000000 0.000000 0.000000 0.069989 0.000000 -0.007022
# 5 0.000350 0.001378 -0.001991 0.000000 0.022051 0.000000
# 6 0.000000 0.000000 0.000000 -0.007022 0.000000 0.026058
#
#
# Mechanical properties :
#
#
# Convention : Reuss Voigt Hill
#
# Bulk Modulus (GPa) = 57.01403 65.67811 61.34607
# Shear Modulus (GPa) = 27.32650 34.31628 30.82139
#
# Velocity S-wave (km/s) = 3.51101 3.93450 3.72877
# Velocity P-wave (km/s) = 6.49274 7.09001 6.79794
#
# Compressibility (1/GPa) = 0.01753954
#
# Stress axis : x y z
#
# Youngs Moduli (GPa) = 55.00169 112.93840 88.90575
#
# Poissons Ratio (x) = 0.12323 0.52197
# Poissons Ratio (y) = 0.06001 0.30315
# Poissons Ratio (z) = 0.32292 0.38510
#
# Static dielectric constant tensor:
#      x y z
#    x 1.944700 0.000000 -0.021920 
#    y 0.000000 1.904300 0.000000 
#    z -0.021920 0.000000 1.994860 
# 
# From -- ./inp_files/51509.got.cif
#   From: 2010.05.17/outbox.cif.g08.bks.cpg/sg15_26_cif.got.tgz:51509.got - 2010.06.03 18:47:42.
