data_PCOD9276361
_publ_section_title
;
Structure prediction by ZEFSAII (Michael W. Deem and Ramdas Pophale) SiO2 
 PCOD9276361
Probable space group: C 2/C
;
_chemical_formula_sum "Si O2"
_cell_formula_units_Z 52
_cell_length_a 24.267657
_cell_length_b 5.266794
_cell_length_c 17.760669
_cell_angle_alpha 90.000000
_cell_angle_beta 100.390671
_cell_angle_gamma 90.000000
_cell_volume 2232.813227
_symmetry_space_group_name_H-M "C 2/C"
_symmetry_group_IT_number 15
_symmetry_cell_setting 'monoclinic'
loop_
_space_group_symop_operation_xyz
x,y,z
-x,y,1/2-z
-x,-y,-z
x,-y,1/2+z
1/2+x,1/2+y,z
1/2-x,1/2+y,1/2-z
1/2-x,1/2-y,-z
1/2+x,1/2-y,1/2+z
loop_
_atom_site_type_symbol
_atom_site_label
_atom_site_fract_x
_atom_site_fract_y
_atom_site_fract_z
Si Si1 0.650452 0.817745 0.350731
Si Si2 0.550558 0.831908 0.886988
Si Si3 0.756969 0.001744 0.451065
Si Si4 0.500000 0.540679 0.250000
Si Si5 0.876655 0.036104 0.008509
Si Si6 0.104069 0.850726 0.689623
Si Si7 0.924535 0.374843 0.901111
O O1 0.595465 0.984391 0.358111
O O2 0.707258 0.977571 0.378335
O O3 0.647035 0.605312 0.414878
O O4 0.647470 0.694579 0.267745
O O5 0.533523 0.630013 0.817908
O O6 0.581700 0.690975 0.963461
O O7 0.490467 0.919805 0.903899
O O8 0.750000 0.750000 0.500000
O O9 0.821909 0.005223 0.443387
O O10 0.750000 0.250000 0.500000
O O11 0.455584 0.702578 0.284458
O O12 0.910752 0.266787 0.980169
O O13 0.108352 0.627843 0.629736
O O14 0.095645 0.135624 0.656375
#
# Coordination Sequence:
#
# PCOD9276361 Si02
#       7
#     8   8   8   4   8   8   8
#     4  11  22  40  71  91 121 171 225 263 311 379
#     4  11  21  38  65  91 130 162 211 257 324 378
#     4  10  22  40  64  94 121 159 216 272 307 360
#     4  10  20  40  60  96 124 172 210 270 310 390
#     4  11  24  42  62  94 128 165 212 266 318 376
#     4  11  23  42  60  92 129 169 210 258 313 385
#     4  11  27  39  61  94 137 165 201 258 333 384
#
# _framework density 23.289007000000002
#
# number of rings (size 3 to 8) (size 9 to 14) (size 15 to 20)
#    0.000    1.231    3.077    3.231    4.308    1.231 
#    0.000    1.538    0.000    0.000    0.000    0.000 
#    0.000    0.000    0.000    0.000    0.000    0.000 
#
# Total GULP energy -145304.937819 kJ/mol
# GULP energy per Si atom -5588.651455 kJ/mol
# Density = 2.323600 g / cm^3
# Si number density = 23.289007 Si / 1000 Ang^3
#
#
#
# Elastic Constant Matrix: (Units=GPa)
#
#
# Indices 1 2 3 4 5 6 
#
# 1 105.3133 27.8808 31.4346 0.0000 32.9942 0.0000
# 2 27.8808 100.4438 34.9530 0.0000 16.3200 0.0000
# 3 31.4346 34.9530 116.6322 0.0000 23.4020 0.0000
# 4 0.0000 0.0000 0.0000 45.1140 0.0000 -1.8649
# 5 32.9942 16.3200 23.4020 0.0000 39.0193 0.0000
# 6 0.0000 0.0000 0.0000 -1.8649 0.0000 32.3402
#
#
#
# Elastic Compliance Matrix: (Units=1/GPa)
#
#
# Indices 1 2 3 4 5 6 
#
# 1 0.013396 -0.001719 -0.001099 0.000000 -0.009949 0.000000
# 2 -0.001719 0.011656 -0.002664 0.000000 -0.001824 0.000000
# 3 -0.001099 -0.002664 0.010525 0.000000 -0.004269 0.000000
# 4 0.000000 0.000000 0.000000 0.022219 0.000000 0.001281
# 5 -0.009949 -0.001824 -0.004269 0.000000 0.037364 0.000000
# 6 0.000000 0.000000 0.000000 0.001281 0.000000 0.030995
#
#
# Mechanical properties :
#
#
# Convention : Reuss Voigt Hill
#
# Bulk Modulus (GPa) = 40.62943 56.76957 48.69950
# Shear Modulus (GPa) = 34.40586 38.50276 36.45431
#
# Velocity S-wave (km/s) = 3.84779 4.07044 3.96068
# Velocity P-wave (km/s) = 6.10117 6.82058 6.47088
#
# Compressibility (1/GPa) = 0.02461270
#
# Stress axis : x y z
#
# Youngs Moduli (GPa) = 74.65126 85.78973 95.01145
#
# Poissons Ratio (x) = 0.14751 0.10440
# Poissons Ratio (y) = 0.12836 0.25310
# Poissons Ratio (z) = 0.08203 0.22854
#
# Static dielectric constant tensor:
#      x y z
#    x 1.904360 0.000000 0.008310 
#    y 0.000000 1.881640 0.000000 
#    z 0.008310 0.000000 1.950900 
# 
# From -- ./inp_files/256390.got.cif
#   From: 2010.05.17/outbox.cif.g08.bks.cpg/sg15_129_cif.got.tgz:256390.got - 2010.06.03 18:47:42.
