data_PCOD9276233
_publ_section_title
;
Structure prediction by ZEFSAII (Michael W. Deem and Ramdas Pophale) SiO2 
 PCOD9276233
Probable space group: C 2/C
;
_chemical_formula_sum "Si O2"
_cell_formula_units_Z 48
_cell_length_a 22.408303
_cell_length_b 20.021131
_cell_length_c 9.339787
_cell_angle_alpha 90.000000
_cell_angle_beta 37.893474
_cell_angle_gamma 90.000000
_cell_volume 2573.600012
_symmetry_space_group_name_H-M "C 2/C"
_symmetry_group_IT_number 15
_symmetry_cell_setting 'monoclinic'
loop_
_space_group_symop_operation_xyz
x,y,z
-x,y,1/2-z
-x,-y,-z
x,-y,1/2+z
1/2+x,1/2+y,z
1/2-x,1/2+y,1/2-z
1/2-x,1/2-y,-z
1/2+x,1/2-y,1/2+z
loop_
_atom_site_type_symbol
_atom_site_label
_atom_site_fract_x
_atom_site_fract_y
_atom_site_fract_z
Si Si1 0.000000 0.781129 0.750000
Si Si2 0.635093 0.772701 0.734176
Si Si3 0.331820 0.840582 0.289967
Si Si4 0.433787 0.963976 0.243321
Si Si5 0.888890 0.603800 0.396292
Si Si6 0.380710 0.312740 0.721510
Si Si7 0.500000 0.301080 0.250000
O O1 0.936949 0.824725 0.760879
O O2 0.079081 0.744137 0.491764
O O3 0.750000 0.750000 0.500000
O O4 0.623803 0.851590 0.720938
O O5 0.572817 0.739090 0.720441
O O6 0.387540 0.899191 0.263646
O O7 0.382306 0.768426 0.200932
O O8 0.229181 0.832847 0.558381
O O9 0.323583 0.862089 0.141054
O O10 0.500000 0.943989 0.250000
O O11 0.366085 0.025778 0.420319
O O12 0.500000 0.000000 0.000000
O O13 0.000000 0.607752 0.250000
O O14 0.433110 0.341689 0.484718
#
# Coordination Sequence:
#
# PCOD9276233 Si02
#       7
#     4   8   8   8   8   8   4
#     4  10  22  34  54  93 113 152 208 240 302 366
#     4  11  21  36  58  84 117 161 200 247 308 362
#     4  11  21  37  55  88 117 163 206 227 314 361
#     4  11  23  36  57  86 122 165 191 237 302 368
#     4  11  19  38  54  78 126 162 182 245 307 347
#     4  10  22  36  62  81 124 159 192 265 290 359
#     4  10  20  40  52  85 121 154 194 256 316 348
#
# _framework density 18.650915999999999
#
# number of rings (size 3 to 8) (size 9 to 14) (size 15 to 20)
#    0.000    1.333    5.833    2.000    3.500    0.000 
#    0.000    0.000    0.000    0.000    0.000   19.833 
#    0.000    0.000    0.000    0.000    0.000    0.000 
#
# Total GULP energy -133762.376777 kJ/mol
# GULP energy per Si atom -5573.432366 kJ/mol
# Density = 1.860847 g / cm^3
# Si number density = 18.650916 Si / 1000 Ang^3
#
#
#
# Elastic Constant Matrix: (Units=GPa)
#
#
# Indices 1 2 3 4 5 6 
#
# 1 82.0926 17.0330 46.6748 0.0000 8.7169 0.0000
# 2 17.0330 60.9756 19.9063 0.0000 -4.5774 0.0000
# 3 46.6748 19.9063 131.1402 0.0000 3.6604 0.0000
# 4 0.0000 0.0000 0.0000 15.4194 0.0000 -2.7008
# 5 8.7169 -4.5774 3.6604 0.0000 34.5284 0.0000
# 6 0.0000 0.0000 0.0000 -2.7008 0.0000 20.9012
#
#
#
# Elastic Compliance Matrix: (Units=1/GPa)
#
#
# Indices 1 2 3 4 5 6 
#
# 1 0.016195 -0.003130 -0.005179 0.000000 -0.003955 0.000000
# 2 -0.003130 0.018091 -0.001726 0.000000 0.003372 0.000000
# 3 -0.005179 -0.001726 0.009729 0.000000 0.000047 0.000000
# 4 0.000000 0.000000 0.000000 0.066355 0.000000 0.008574
# 5 -0.003955 0.003372 0.000047 0.000000 0.030402 0.000000
# 6 0.000000 0.000000 0.000000 0.008574 0.000000 0.048952
#
#
# Mechanical properties :
#
#
# Convention : Reuss Voigt Hill
#
# Bulk Modulus (GPa) = 41.76137 49.04851 45.40494
# Shear Modulus (GPa) = 22.95934 26.87608 24.91771
#
# Velocity S-wave (km/s) = 3.51237 3.80018 3.65910
# Velocity P-wave (km/s) = 6.23608 6.75355 6.49996
#
# Compressibility (1/GPa) = 0.02394557
#
# Stress axis : x y z
#
# Youngs Moduli (GPa) = 61.74719 55.27604 102.78280
#
# Poissons Ratio (x) = 0.17303 0.53227
# Poissons Ratio (y) = 0.19328 0.17742
# Poissons Ratio (z) = 0.31976 0.09541
#
# Static dielectric constant tensor:
#      x y z
#    x 1.678140 0.000000 0.024020 
#    y 0.000000 1.669740 0.000000 
#    z 0.024020 0.000000 1.685350 
# 
# From -- ./inp_files/57734.got.cif
#   From: 2010.05.17/outbox.cif.g08.bks.cpg/sg15_29_cif.got.tgz:57734.got - 2010.06.03 18:47:42.
