data_PCOD9276167
_publ_section_title
;
Structure prediction by ZEFSAII (Michael W. Deem and Ramdas Pophale) SiO2 
 PCOD9276167
Probable space group: C 2/C
;
_chemical_formula_sum "Si O2"
_cell_formula_units_Z 48
_cell_length_a 13.192745
_cell_length_b 10.000877
_cell_length_c 23.795568
_cell_angle_alpha 90.000000
_cell_angle_beta 138.475380
_cell_angle_gamma 90.000000
_cell_volume 2081.348200
_symmetry_space_group_name_H-M "C 2/C"
_symmetry_group_IT_number 15
_symmetry_cell_setting 'monoclinic'
loop_
_space_group_symop_operation_xyz
x,y,z
-x,y,1/2-z
-x,-y,-z
x,-y,1/2+z
1/2+x,1/2+y,z
1/2-x,1/2+y,1/2-z
1/2-x,1/2-y,-z
1/2+x,1/2-y,1/2+z
loop_
_atom_site_type_symbol
_atom_site_label
_atom_site_fract_x
_atom_site_fract_y
_atom_site_fract_z
Si Si1 0.357840 0.839900 0.227830
Si Si2 0.662565 0.553889 0.319703
Si Si3 0.050466 0.509125 0.128890
Si Si4 0.578551 0.642599 0.527436
Si Si5 0.807137 0.933745 0.539867
Si Si6 0.074958 0.219085 0.937055
O O1 0.500000 0.885320 0.250000
O O2 0.363438 0.678893 0.233404
O O3 0.213018 0.865604 0.128828
O O4 0.373341 0.919852 0.291237
O O5 0.500000 0.475743 0.250000
O O6 0.826016 0.494682 0.370046
O O7 0.680954 0.608804 0.390692
O O8 0.030477 0.668141 0.135346
O O9 0.872962 0.466875 0.045579
O O10 0.500000 0.500000 0.500000
O O11 0.634342 0.660128 0.486921
O O12 0.461504 0.738541 0.511431
O O13 0.920099 0.064690 0.580935
O O14 0.250000 0.250000 0.000000
#
# Coordination Sequence:
#
# PCOD9276167 Si02
#       6
#     8   8   8   8   8   8
#     4  11  23  44  62  98 136 171 229 277 341 410
#     4  11  26  42  62  98 135 173 224 285 340 413
#     4  11  22  43  69  91 135 179 222 284 335 410
#     4  10  20  39  69  97 132 176 222 277 338 411
#     4  10  22  43  71  96 131 175 225 282 341 405
#     4   9  20  40  67 100 129 171 225 275 329 407
#
# _framework density 23.061975
#
# number of rings (size 3 to 8) (size 9 to 14) (size 15 to 20)
#    0.000    1.667    3.333    0.500    4.667    0.667 
#    0.000    2.500    0.000    0.000    0.000    0.000 
#    0.000    0.000    0.000    0.000    0.000    0.000 
#
# Total GULP energy -133696.032201 kJ/mol
# GULP energy per Si atom -5570.668008 kJ/mol
# Density = 2.300949 g / cm^3
# Si number density = 23.061975 Si / 1000 Ang^3
#
#
#
# Elastic Constant Matrix: (Units=GPa)
#
#
# Indices 1 2 3 4 5 6 
#
# 1 202.1321 19.3738 59.2707 0.0000 -0.7175 0.0000
# 2 19.3738 70.5947 16.7556 0.0000 -13.9590 0.0000
# 3 59.2707 16.7556 78.5501 0.0000 -7.4681 0.0000
# 4 0.0000 0.0000 0.0000 29.0181 0.0000 -28.4700
# 5 -0.7175 -13.9590 -7.4681 0.0000 42.1702 0.0000
# 6 0.0000 0.0000 0.0000 -28.4700 0.0000 -103.8870
#
#
#
# Elastic Compliance Matrix: (Units=1/GPa)
#
#
# Indices 1 2 3 4 5 6 
#
# 1 0.006420 -0.000831 -0.004763 0.000000 -0.001009 0.000000
# 2 -0.000831 0.015897 -0.002304 0.000000 0.004840 0.000000
# 3 -0.004763 -0.002304 0.017022 0.000000 0.002171 0.000000
# 4 0.000000 0.000000 0.000000 0.027159 0.000000 -0.007443
# 5 -0.001009 0.004840 0.002171 0.000000 0.025683 0.000000
# 6 0.000000 0.000000 0.000000 -0.007443 0.000000 -0.007586
#
#
# Mechanical properties :
#
#
# Convention : Reuss Voigt Hill
#
# Bulk Modulus (GPa) = 42.47339 60.23079 51.35209
# Shear Modulus (GPa) = 46.19404 10.51872 28.35638
#
# Velocity S-wave (km/s) = 4.48039 2.13798 3.51033
# Velocity P-wave (km/s) = 6.72475 5.68051 6.22457
#
# Compressibility (1/GPa) = 0.02354415
#
# Stress axis : x y z
#
# Youngs Moduli (GPa) = 155.76453 62.90378 58.74580
#
# Poissons Ratio (x) = 0.05227 0.27980
# Poissons Ratio (y) = 0.12943 0.13534
# Poissons Ratio (z) = 0.74190 0.14492
#
# Static dielectric constant tensor:
#      x y z
#    x 2.073600 0.000000 0.120450 
#    y 0.000000 1.981650 0.000000 
#    z 0.120450 0.000000 1.921460 
# 
# From -- ./inp_files/237739.got.cif
#   From: 2010.05.17/outbox.cif.g08.bks.cpg/sg15_119_cif.got.tgz:237739.got - 2010.06.03 18:47:42.
