data_PCOD9276030
_publ_section_title
;
Structure prediction by ZEFSAII (Michael W. Deem and Ramdas Pophale) SiO2 
 PCOD9276030
Probable space group: C 2/C
;
_chemical_formula_sum "Si O2"
_cell_formula_units_Z 48
_cell_length_a 17.152566
_cell_length_b 9.926364
_cell_length_c 22.823354
_cell_angle_alpha 90.000000
_cell_angle_beta 33.995086
_cell_angle_gamma 90.000000
_cell_volume 2172.727128
_symmetry_space_group_name_H-M "C 2/C"
_symmetry_group_IT_number 15
_symmetry_cell_setting 'monoclinic'
loop_
_space_group_symop_operation_xyz
x,y,z
-x,y,1/2-z
-x,-y,-z
x,-y,1/2+z
1/2+x,1/2+y,z
1/2-x,1/2+y,1/2-z
1/2-x,1/2-y,-z
1/2+x,1/2-y,1/2+z
loop_
_atom_site_type_symbol
_atom_site_label
_atom_site_fract_x
_atom_site_fract_y
_atom_site_fract_z
Si Si1 0.650264 0.874053 0.896546
Si Si2 0.608362 0.415428 0.271340
Si Si3 0.580639 0.642593 0.141427
Si Si4 0.412683 0.118039 0.941720
Si Si5 0.355512 0.434724 0.111933
Si Si6 0.095581 0.610458 0.290839
O O1 0.680417 0.714463 0.889028
O O2 0.616157 0.873714 0.848719
O O3 0.768851 0.988976 0.830657
O O4 0.544287 0.899081 0.016900
O O5 0.468715 0.492975 0.342038
O O6 0.630987 0.422135 0.326635
O O7 0.594679 0.259061 0.264289
O O8 0.500000 0.686795 0.250000
O O9 0.530785 0.744254 0.121560
O O10 0.746470 0.637664 0.043693
O O11 0.464553 0.991337 0.871344
O O12 0.226563 0.533185 0.181712
O O13 0.500000 0.500000 0.000000
#
# Coordination Sequence:
#
# PCOD9276030 Si02
#       6
#     8   8   8   8   8   8
#     4  10  20  39  67  90 125 166 201 257 317 378
#     4  10  21  39  60  89 128 159 203 256 308 373
#     4  11  23  42  65  89 123 169 216 249 305 376
#     4  11  23  40  68  90 121 167 212 258 304 374
#     4  10  21  37  61  93 125 160 203 260 311 369
#     4  10  23  38  62  98 125 158 207 260 320 367
#
# _framework density 22.09205
#
# number of rings (size 3 to 8) (size 9 to 14) (size 15 to 20)
#    0.000    1.667    1.667    2.500    0.000    8.667 
#    0.000    0.833    0.000    0.000    0.000    0.000 
#    0.000    0.000    0.000    0.000    0.000    0.000 
#
# Total GULP energy -133878.116359 kJ/mol
# GULP energy per Si atom -5578.254848 kJ/mol
# Density = 2.204177 g / cm^3
# Si number density = 22.092050 Si / 1000 Ang^3
#
#
#
# Elastic Constant Matrix: (Units=GPa)
#
#
# Indices 1 2 3 4 5 6 
#
# 1 25.8007 11.5066 10.1447 0.0000 -0.4509 0.0000
# 2 11.5066 192.3331 78.6654 0.0000 2.8863 0.0000
# 3 10.1447 78.6654 121.9502 0.0001 -1.6488 -0.0001
# 4 0.0000 0.0000 0.0001 31.2533 -0.0001 7.3916
# 5 -0.4509 2.8863 -1.6488 -0.0001 21.2635 0.0000
# 6 0.0000 0.0000 -0.0001 7.3916 0.0000 26.6978
#
#
#
# Elastic Compliance Matrix: (Units=1/GPa)
#
#
# Indices 1 2 3 4 5 6 
#
# 1 0.040366 -0.001439 -0.002418 0.000000 0.000864 0.000000
# 2 -0.001439 0.007151 -0.004511 0.000000 -0.001351 0.000000
# 3 -0.002418 -0.004511 0.011331 0.000000 0.001440 0.000000
# 4 0.000000 0.000000 0.000000 0.034239 0.000000 -0.009479
# 5 0.000864 -0.001351 0.001440 0.000000 0.047342 0.000000
# 6 0.000000 0.000000 0.000000 -0.009479 0.000000 0.040081
#
#
# Mechanical properties :
#
#
# Convention : Reuss Voigt Hill
#
# Bulk Modulus (GPa) = 23.74660 60.07969 41.91314
# Shear Modulus (GPa) = 23.66494 31.82741 27.74618
#
# Velocity S-wave (km/s) = 3.27647 3.79974 3.54776
# Velocity P-wave (km/s) = 5.00858 6.81945 5.98292
#
# Compressibility (1/GPa) = 0.04211129
#
# Stress axis : x y z
#
# Youngs Moduli (GPa) = 24.77314 139.84422 88.25548
#
# Poissons Ratio (x) = 0.20122 0.21341
# Poissons Ratio (y) = 0.03565 0.39815
# Poissons Ratio (z) = 0.05990 0.63088
#
# Static dielectric constant tensor:
#      x y z
#    x 1.881640 0.000000 -0.008180 
#    y 0.000000 1.826490 0.000000 
#    z -0.008180 0.000000 1.820590 
# 
# From -- ./inp_files/300457.got.cif
#   From: 2010.05.17/outbox.cif.g08.bks.cpg/sg15_151_cif.got.tgz:300457.got - 2010.06.03 18:47:42.
