data_PCOD9276936
_publ_section_title
;
Structure prediction by ZEFSAII (Michael W. Deem and Ramdas Pophale) SiO2 
 PCOD9276936
Probable space group: C 2/C
;
_chemical_formula_sum "Si O2"
_cell_formula_units_Z 60
_cell_length_a 27.729330
_cell_length_b 6.549685
_cell_length_c 19.664641
_cell_angle_alpha 90.000000
_cell_angle_beta 54.574807
_cell_angle_gamma 90.000000
_cell_volume 2910.286493
_symmetry_space_group_name_H-M "C 2/C"
_symmetry_group_IT_number 15
_symmetry_cell_setting 'monoclinic'
loop_
_space_group_symop_operation_xyz
x,y,z
-x,y,1/2-z
-x,-y,-z
x,-y,1/2+z
1/2+x,1/2+y,z
1/2-x,1/2+y,1/2-z
1/2-x,1/2-y,-z
1/2+x,1/2-y,1/2+z
loop_
_atom_site_type_symbol
_atom_site_label
_atom_site_fract_x
_atom_site_fract_y
_atom_site_fract_z
Si Si1 0.000000 0.872400 0.750000
Si Si2 0.998619 0.541021 0.634089
Si Si3 0.709700 0.634633 0.191306
Si Si4 0.307806 0.308509 0.411831
Si Si5 0.950743 0.878469 0.997501
Si Si6 0.137039 0.527764 0.250509
Si Si7 0.923872 0.844737 0.389635
Si Si8 0.321686 0.688299 0.667293
O O1 0.008657 0.722388 0.805606
O O2 0.053136 0.028759 0.694261
O O3 0.933261 0.446035 0.681117
O O4 0.024390 0.657382 0.546934
O O5 0.043858 0.371591 0.625879
O O6 0.707522 0.496282 0.125747
O O7 0.656046 0.793829 0.230253
O O8 0.699326 0.494650 0.266379
O O9 0.771589 0.754184 0.153077
O O10 0.250000 0.250000 0.500000
O O11 0.355035 0.336617 0.433149
O O12 0.338031 0.142654 0.336449
O O13 0.886732 0.857753 0.084692
O O14 0.940063 0.018092 0.940452
O O15 0.000000 0.000000 0.000000
O O16 0.169457 0.621518 0.289286
#
# Coordination Sequence:
#
# PCOD9276936 Si02
#       8
#     4   8   8   8   8   8   8   8
#     4  10  20  40  66  92 128 166 218 262 336 390
#     4  11  23  41  69  98 128 178 219 275 344 404
#     4  11  24  44  69  96 135 180 226 279 332 406
#     4  11  27  43  63 100 134 180 226 276 333 398
#     4  11  26  43  66 102 136 172 221 290 347 402
#     4  11  23  43  70  94 133 173 228 277 335 409
#     4  11  24  42  65  95 137 171 220 279 332 405
#     4  11  24  43  68  99 133 179 229 276 341 401
#
# _framework density 20.616524999999999
#
# number of rings (size 3 to 8) (size 9 to 14) (size 15 to 20)
#    0.000    1.067    1.333    4.400    3.733    9.067 
#    0.000    0.000    0.000    0.000    0.000    0.000 
#    0.000    0.000    0.000    0.000    0.000    0.000 
#
# Total GULP energy -167595.275159 kJ/mol
# GULP energy per Si atom -5586.509172 kJ/mol
# Density = 2.056960 g / cm^3
# Si number density = 20.616525 Si / 1000 Ang^3
#
#
#
# Elastic Constant Matrix: (Units=GPa)
#
#
# Indices 1 2 3 4 5 6 
#
# 1 135.2035 26.0791 32.8968 0.0229 -14.0275 0.0130
# 2 26.0791 88.8731 26.0224 0.0430 3.2634 0.0013
# 3 32.8968 26.0224 82.2338 0.0166 -18.0450 0.0088
# 4 0.0229 0.0430 0.0166 26.5583 -0.0035 -6.0296
# 5 -14.0275 3.2634 -18.0450 -0.0035 37.0067 -0.0027
# 6 0.0130 0.0013 0.0088 -6.0296 -0.0027 27.2564
#
#
#
# Elastic Compliance Matrix: (Units=1/GPa)
#
#
# Indices 1 2 3 4 5 6 
#
# 1 0.008568 -0.001919 -0.002318 -0.000003 0.002286 -0.000004
# 2 -0.001919 0.013217 -0.004289 -0.000018 -0.003985 -0.000003
# 3 -0.002318 -0.004289 0.016053 -0.000001 0.007327 -0.000003
# 4 -0.000003 -0.000018 -0.000001 0.039644 0.000004 0.008770
# 5 0.002286 -0.003985 0.007327 0.000004 0.031813 0.000001
# 6 -0.000004 -0.000003 -0.000003 0.008770 0.000001 0.038629
#
#
# Mechanical properties :
#
#
# Convention : Reuss Voigt Hill
#
# Bulk Modulus (GPa) = 48.11253 52.92300 50.51777
# Shear Modulus (GPa) = 29.08570 32.91841 31.00206
#
# Velocity S-wave (km/s) = 3.76013 4.00021 3.88203
# Velocity P-wave (km/s) = 6.49915 6.86014 6.68208
#
# Compressibility (1/GPa) = 0.02078460
#
# Stress axis : x y z
#
# Youngs Moduli (GPa) = 116.71637 75.65790 62.29360
#
# Poissons Ratio (x) = 0.14521 0.14442
# Poissons Ratio (y) = 0.22401 0.26719
# Poissons Ratio (z) = 0.27059 0.32451
#
# Static dielectric constant tensor:
#      x y z
#    x 2.039620 -0.000050 -0.215890 
#    y -0.000050 1.738440 0.000020 
#    z -0.215890 0.000020 1.899450 
# 
# From -- ./inp_files/256768.got.cif
#   From: 2010.05.17/outbox.cif.g08.bks.cpg/sg15_129_cif.got.tgz:256768.got - 2010.06.03 18:47:42.
