data_PCOD9276574
_publ_section_title
;
Structure prediction by ZEFSAII (Michael W. Deem and Ramdas Pophale) SiO2 
 PCOD9276574
Probable space group: C 2/C
;
_chemical_formula_sum "Si O2"
_cell_formula_units_Z 60
_cell_length_a 17.529630
_cell_length_b 24.594926
_cell_length_c 8.639740
_cell_angle_alpha 90.000000
_cell_angle_beta 129.295896
_cell_angle_gamma 90.000000
_cell_volume 2882.675088
_symmetry_space_group_name_H-M "C 2/C"
_symmetry_group_IT_number 15
_symmetry_cell_setting 'monoclinic'
loop_
_space_group_symop_operation_xyz
x,y,z
-x,y,1/2-z
-x,-y,-z
x,-y,1/2+z
1/2+x,1/2+y,z
1/2-x,1/2+y,1/2-z
1/2-x,1/2-y,-z
1/2+x,1/2-y,1/2+z
loop_
_atom_site_type_symbol
_atom_site_label
_atom_site_fract_x
_atom_site_fract_y
_atom_site_fract_z
Si Si1 0.682053 0.020507 0.028642
Si Si2 0.546981 0.889880 0.488530
Si Si3 0.320495 0.524961 0.940466
Si Si4 0.965286 0.882619 0.554739
Si Si5 0.690964 0.322445 0.358745
Si Si6 0.897865 0.297305 0.713059
Si Si7 0.500000 0.946577 0.750000
Si Si8 0.395527 0.596498 0.528417
O O1 0.754423 0.045706 0.995700
O O2 0.592037 0.986669 0.843548
O O3 0.635739 0.067511 0.074336
O O4 0.748147 0.976766 0.202408
O O5 0.583387 0.832831 0.607914
O O6 0.490132 0.914371 0.571466
O O7 0.500000 0.885829 0.250000
O O8 0.416735 0.559701 0.034962
O O9 0.348237 0.461762 0.996914
O O10 0.877008 0.853171 0.352185
O O11 0.000000 0.850950 0.750000
O O12 0.065974 0.893660 0.593178
O O13 0.809156 0.323389 0.496145
O O14 0.646278 0.262010 0.307559
O O15 0.669010 0.354637 0.489635
O O16 0.000000 0.293297 0.750000
O O17 0.500000 0.597361 0.750000
#
# Coordination Sequence:
#
# PCOD9276574 Si02
#       8
#     8   8   8   8   8   8   4   8
#     4  12  23  39  59  92 139 186 234 276 347 422
#     4  12  25  41  68 101 135 187 242 295 347 415
#     4  12  23  34  63  95 135 179 230 286 338 426
#     4  11  23  39  63  99 138 175 228 293 357 411
#     4  10  24  45  72  97 130 189 234 281 363 427
#     4  11  24  46  73  99 132 181 242 294 352 419
#     4  12  24  46  62  92 148 198 228 282 356 420
#     4  10  20  40  63  89 132 178 230 276 348 422
#
# _framework density 20.814
#
# number of rings (size 3 to 8) (size 9 to 14) (size 15 to 20)
#    0.000    0.800    2.667    6.400    1.867    1.600 
#    0.000    0.000    0.000    4.800    0.000    0.000 
#    0.000    0.000    0.000    0.000    0.000    0.000 
#
# Total GULP energy -167291.380630 kJ/mol
# GULP energy per Si atom -5576.379354 kJ/mol
# Density = 2.076663 g / cm^3
# Si number density = 20.814000 Si / 1000 Ang^3
#
#
#
# Elastic Constant Matrix: (Units=GPa)
#
#
# Indices 1 2 3 4 5 6 
#
# 1 109.7875 28.7107 46.1948 0.0000 -1.5616 0.0000
# 2 28.7107 98.2526 27.7821 0.0000 0.7442 0.0000
# 3 46.1948 27.7821 103.3794 0.0000 5.4657 0.0000
# 4 0.0000 0.0000 0.0000 52.4499 0.0000 6.6595
# 5 -1.5616 0.7442 5.4657 0.0000 39.7259 0.0000
# 6 0.0000 0.0000 0.0000 6.6595 0.0000 21.0703
#
#
#
# Elastic Compliance Matrix: (Units=1/GPa)
#
#
# Indices 1 2 3 4 5 6 
#
# 1 0.011650 -0.002082 -0.004707 0.000000 0.001145 0.000000
# 2 -0.002082 0.011389 -0.002130 0.000000 -0.000002 0.000000
# 3 -0.004707 -0.002130 0.012447 0.000000 -0.001858 0.000000
# 4 0.000000 0.000000 0.000000 0.019863 0.000000 -0.006278
# 5 0.001145 -0.000002 -0.001858 0.000000 0.025473 0.000000
# 6 0.000000 0.000000 0.000000 -0.006278 0.000000 0.049444
#
#
# Mechanical properties :
#
#
# Convention : Reuss Voigt Hill
#
# Bulk Modulus (GPa) = 56.66468 57.42163 57.04316
# Shear Modulus (GPa) = 32.47062 36.56469 34.51766
#
# Velocity S-wave (km/s) = 3.95402 4.19589 4.07675
# Velocity P-wave (km/s) = 6.93751 7.14996 7.04453
#
# Compressibility (1/GPa) = 0.01764768
#
# Stress axis : x y z
#
# Youngs Moduli (GPa) = 85.83974 87.80738 80.34138
#
# Poissons Ratio (x) = 0.18281 0.37813
# Poissons Ratio (y) = 0.17872 0.17114
# Poissons Ratio (z) = 0.40401 0.18704
#
# Static dielectric constant tensor:
#      x y z
#    x 1.882420 0.000000 -0.092400 
#    y 0.000000 1.740360 0.000000 
#    z -0.092400 0.000000 1.828160 
# 
# From -- ./inp_files/52195.got.cif
#   From: 2010.05.17/outbox.cif.g08.bks.cpg/sg15_27_cif.got.tgz:52195.got - 2010.06.03 18:47:42.
