data_PCOD9276413
_publ_section_title
;
Structure prediction by ZEFSAII (Michael W. Deem and Ramdas Pophale) SiO2 
 PCOD9276413
Probable space group: C 2/C
;
_chemical_formula_sum "Si O2"
_cell_formula_units_Z 64
_cell_length_a 22.696698
_cell_length_b 8.212443
_cell_length_c 28.619735
_cell_angle_alpha 90.000000
_cell_angle_beta 29.303055
_cell_angle_gamma 90.000000
_cell_volume 2610.900429
_symmetry_space_group_name_H-M "C 2/C"
_symmetry_group_IT_number 15
_symmetry_cell_setting 'monoclinic'
loop_
_space_group_symop_operation_xyz
x,y,z
-x,y,1/2-z
-x,-y,-z
x,-y,1/2+z
1/2+x,1/2+y,z
1/2-x,1/2+y,1/2-z
1/2-x,1/2-y,-z
1/2+x,1/2-y,1/2+z
loop_
_atom_site_type_symbol
_atom_site_label
_atom_site_fract_x
_atom_site_fract_y
_atom_site_fract_z
Si Si1 0.610892 0.427173 0.143734
Si Si2 0.803973 0.576128 0.257938
Si Si3 0.267633 0.767368 0.109104
Si Si4 0.261266 0.724346 0.332425
Si Si5 0.914658 0.047988 0.154767
Si Si6 0.333688 0.500986 0.989575
Si Si7 0.374583 0.205876 0.852598
Si Si8 0.461534 0.198806 0.072164
O O1 0.500000 0.358158 0.250000
O O2 0.718664 0.391208 0.104434
O O3 0.627864 0.375508 0.078598
O O4 0.590368 0.620467 0.150173
O O5 0.816302 0.709267 0.290329
O O6 0.795896 0.395493 0.284027
O O7 0.677041 0.621185 0.320176
O O8 0.905797 0.575203 0.148125
O O9 0.289581 0.602750 0.064416
O O10 0.399270 0.821465 0.034710
O O11 0.338130 0.579989 0.254932
O O12 0.297755 0.747533 0.360129
O O13 0.122208 0.699950 0.415472
O O14 0.050217 0.101651 0.073706
O O15 0.938417 0.869157 0.116344
O O16 0.215262 0.403033 0.055327
O O17 0.500000 0.124426 0.750000
#
# Coordination Sequence:
#
# PCOD9276413 Si02
#       8
#     8   8   8   8   8   8   8   8
#     4  11  26  44  64  89 125 169 210 259 313 372
#     4  10  21  38  62  97 127 163 202 258 319 366
#     4  11  24  40  64  96 123 165 207 257 314 385
#     4  10  20  40  61  92 125 163 205 251 317 365
#     4   9  20  37  67  88 125 163 208 251 313 379
#     4  11  23  43  65  93 119 167 210 263 311 372
#     4  11  24  40  63  92 124 167 210 259 307 369
#     4   9  22  38  65  91 130 160 204 256 312 381
#
# _framework density 24.512615
#
# number of rings (size 3 to 8) (size 9 to 14) (size 15 to 20)
#    0.000    1.750    1.250    2.250    7.000    4.000 
#    0.000    0.625    0.000    0.000    0.000    0.000 
#    0.000    0.000    0.000    0.000    0.000    0.000 
#
# Total GULP energy -178726.176826 kJ/mol
# GULP energy per Si atom -5585.193026 kJ/mol
# Density = 2.445682 g / cm^3
# Si number density = 24.512615 Si / 1000 Ang^3
#
#
#
# Elastic Constant Matrix: (Units=GPa)
#
#
# Indices 1 2 3 4 5 6 
#
# 1 73.4138 -9.4283 3.4495 -0.0260 6.6543 0.0931
# 2 -9.4283 47.5494 -10.6117 -0.0123 -1.7394 0.0651
# 3 3.4495 -10.6117 60.3786 0.0098 -11.6761 0.0344
# 4 -0.0260 -0.0123 0.0098 18.2235 0.0110 2.6334
# 5 6.6543 -1.7394 -11.6761 0.0110 43.0399 -0.0519
# 6 0.0931 0.0651 0.0344 2.6334 -0.0519 26.9858
#
#
#
# Elastic Compliance Matrix: (Units=1/GPa)
#
#
# Indices 1 2 3 4 5 6 
#
# 1 0.014197 0.002550 -0.000810 0.000033 -0.002312 -0.000062
# 2 0.002550 0.022518 0.004128 0.000025 0.001636 -0.000068
# 3 -0.000810 0.004128 0.018353 -0.000009 0.005271 -0.000020
# 4 0.000033 0.000025 -0.000009 0.055659 -0.000027 -0.005432
# 5 -0.002312 0.001636 0.005271 -0.000027 0.025088 0.000048
# 6 -0.000062 -0.000068 -0.000020 -0.005432 0.000048 0.037587
#
#
# Mechanical properties :
#
#
# Convention : Reuss Voigt Hill
#
# Bulk Modulus (GPa) = 14.96932 16.46233 15.71583
# Shear Modulus (GPa) = 27.18376 30.84533 29.01454
#
# Velocity S-wave (km/s) = 3.33373 3.55116 3.44417
# Velocity P-wave (km/s) = 4.57585 4.85230 4.71610
#
# Compressibility (1/GPa) = 0.06680329
#
# Stress axis : x y z
#
# Youngs Moduli (GPa) = 70.43969 44.40980 54.48613
#
# Poissons Ratio (x) = -0.11323 0.04413
# Poissons Ratio (y) = -0.17960 -0.22493
# Poissons Ratio (z) = 0.05705 -0.18333
#
# Static dielectric constant tensor:
#      x y z
#    x 1.954650 -0.000010 0.019430 
#    y -0.000010 2.018350 0.000010 
#    z 0.019430 0.000010 1.970390 
# 
# From -- ./inp_files/318618.got.cif
#   From: 2010.05.17/outbox.cif.g08.bks.cpg/sg15_160_cif.got.tgz:318618.got - 2010.06.03 18:47:42.
