data_PCOD9276950
_publ_section_title
;
Structure prediction by ZEFSAII (Michael W. Deem and Ramdas Pophale) SiO2 
 PCOD9276950
Probable space group: C 2/C
;
_chemical_formula_sum "Si O2"
_cell_formula_units_Z 44
_cell_length_a 11.518079
_cell_length_b 10.663727
_cell_length_c 15.224499
_cell_angle_alpha 90.000000
_cell_angle_beta 59.559053
_cell_angle_gamma 90.000000
_cell_volume 1612.188519
_symmetry_space_group_name_H-M "C 2/C"
_symmetry_group_IT_number 15
_symmetry_cell_setting 'monoclinic'
loop_
_space_group_symop_operation_xyz
x,y,z
-x,y,1/2-z
-x,-y,-z
x,-y,1/2+z
1/2+x,1/2+y,z
1/2-x,1/2+y,1/2-z
1/2-x,1/2-y,-z
1/2+x,1/2-y,1/2+z
loop_
_atom_site_type_symbol
_atom_site_label
_atom_site_fract_x
_atom_site_fract_y
_atom_site_fract_z
Si Si1 0.590571 0.843072 0.974292
Si Si2 0.311256 0.809974 0.170438
Si Si3 0.634414 0.336170 0.088593
Si Si4 0.652370 0.599906 0.032345
Si Si5 0.089156 0.371696 0.788381
Si Si6 0.000000 0.751704 0.750000
O O1 0.688635 0.907146 0.006662
O O2 0.603650 0.921536 0.880341
O O3 0.438563 0.824461 0.059432
O O4 0.640360 0.698121 0.957767
O O5 0.192779 0.880850 0.161638
O O6 0.235818 0.673742 0.202550
O O7 0.382645 0.820348 0.238854
O O8 0.604092 0.458490 0.043407
O O9 0.506263 0.248951 0.153795
O O10 0.750000 0.250000 0.000000
O O11 0.575259 0.664776 0.145610
O O12 0.000000 0.439671 0.750000
#
# Coordination Sequence:
#
# PCOD9276950 Si02
#       6
#     8   8   8   8   8   4
#     4  10  20  43  65  94 127 167 221 268 320 378
#     4  10  21  39  66  89 131 164 211 269 317 384
#     4  11  23  42  62  95 133 173 209 263 330 387
#     4  10  23  38  68  96 125 173 217 268 317 384
#     4  10  21  38  64  91 130 168 208 263 319 389
#     4  10  20  40  66  94 122 172 220 270 314 376
#
# _framework density 27.292095
#
# number of rings (size 3 to 8) (size 9 to 14) (size 15 to 20)
#    0.000    1.818    3.636    0.000    3.818    1.455 
#    0.000    0.000    2.000    0.000    0.000    0.000 
#    0.000    0.000    0.000    0.000    0.000    0.000 
#
# Total GULP energy -122805.424821 kJ/mol
# GULP energy per Si atom -5582.064765 kJ/mol
# Density = 2.722998 g / cm^3
# Si number density = 27.292095 Si / 1000 Ang^3
#
#
#
# Elastic Constant Matrix: (Units=GPa)
#
#
# Indices 1 2 3 4 5 6 
#
# 1 160.6120 19.0858 10.7224 0.0000 27.6686 0.0000
# 2 19.0858 103.1673 5.4383 0.0000 9.7969 0.0000
# 3 10.7224 5.4383 129.7028 0.0000 -4.1354 0.0000
# 4 0.0000 0.0000 0.0000 9.8471 0.0000 -0.6288
# 5 27.6686 9.7969 -4.1354 0.0000 56.9234 0.0000
# 6 0.0000 0.0000 0.0000 -0.6288 0.0000 36.0573
#
#
#
# Elastic Compliance Matrix: (Units=1/GPa)
#
#
# Indices 1 2 3 4 5 6 
#
# 1 0.006942 -0.000941 -0.000638 0.000000 -0.003259 0.000000
# 2 -0.000941 0.010010 -0.000383 0.000000 -0.001293 0.000000
# 3 -0.000638 -0.000383 0.007809 0.000000 0.000944 0.000000
# 4 0.000000 0.000000 0.000000 0.101666 0.000000 0.001773
# 5 -0.003259 -0.001293 0.000944 0.000000 0.019443 0.000000
# 6 0.000000 0.000000 0.000000 0.001773 0.000000 0.027765
#
#
# Mechanical properties :
#
#
# Convention : Reuss Voigt Hill
#
# Bulk Modulus (GPa) = 47.99453 51.55279 49.77366
# Shear Modulus (GPa) = 27.09958 44.44794 35.77376
#
# Velocity S-wave (km/s) = 3.15452 4.03997 3.62439
# Velocity P-wave (km/s) = 5.55803 6.37904 5.98263
#
# Compressibility (1/GPa) = 0.02083571
#
# Stress axis : x y z
#
# Youngs Moduli (GPa) = 144.05052 99.89904 128.05983
#
# Poissons Ratio (x) = 0.09402 0.08174
# Poissons Ratio (y) = 0.13558 0.04906
# Poissons Ratio (z) = 0.09195 0.03828
#
# Static dielectric constant tensor:
#      x y z
#    x 2.189280 0.000000 0.142180 
#    y 0.000000 2.173070 0.000000 
#    z 0.142180 0.000000 2.237000 
# 
# From -- ./inp_files/142277.got.cif
#   From: 2010.05.17/outbox.cif.g08.bks.cpg/sg15_72_cif.got.tgz:142277.got - 2010.06.03 18:47:42.
