data_PCOD9276786
_publ_section_title
;
Structure prediction by ZEFSAII (Michael W. Deem and Ramdas Pophale) SiO2 
 PCOD9276786
Probable space group: C 2/C
;
_chemical_formula_sum "Si O2"
_cell_formula_units_Z 48
_cell_length_a 17.653647
_cell_length_b 14.710242
_cell_length_c 17.974392
_cell_angle_alpha 90.000000
_cell_angle_beta 150.389216
_cell_angle_gamma 90.000000
_cell_volume 2306.365656
_symmetry_space_group_name_H-M "C 2/C"
_symmetry_group_IT_number 15
_symmetry_cell_setting 'monoclinic'
loop_
_space_group_symop_operation_xyz
x,y,z
-x,y,1/2-z
-x,-y,-z
x,-y,1/2+z
1/2+x,1/2+y,z
1/2-x,1/2+y,1/2-z
1/2-x,1/2-y,-z
1/2+x,1/2-y,1/2+z
loop_
_atom_site_type_symbol
_atom_site_label
_atom_site_fract_x
_atom_site_fract_y
_atom_site_fract_z
Si Si1 0.781414 0.423515 0.975182
Si Si2 0.754985 0.470481 0.309317
Si Si3 0.962436 0.718661 0.859127
Si Si4 0.500000 0.675246 0.250000
Si Si5 0.000000 0.444916 0.750000
Si Si6 0.572597 0.888443 0.648246
Si Si7 0.869487 0.810069 0.368579
O O1 0.706299 0.471106 0.839383
O O2 0.644900 0.378335 0.904163
O O3 0.906477 0.355311 0.045664
O O4 0.869477 0.491445 0.103838
O O5 0.812602 0.538798 0.293097
O O6 0.620313 0.401351 0.170782
O O7 0.906626 0.416538 0.470879
O O8 0.928049 0.764270 0.751996
O O9 0.804428 0.678143 0.751858
O O10 0.020435 0.793001 0.967736
O O11 0.061926 0.394578 0.728761
O O12 0.615139 0.785640 0.661832
#
# Coordination Sequence:
#
# PCOD9276786 Si02
#       7
#     8   8   8   4   4   8   8
#     4  11  23  43  60  93 126 167 203 254 311 372
#     4  10  20  40  65  84 126 165 205 252 306 366
#     4  12  23  38  63  92 127 159 205 255 314 368
#     4  12  25  38  57  98 136 152 200 265 317 362
#     4  10  23  38  69  86 118 172 210 245 309 370
#     4  10  20  41  62  93 119 161 214 254 298 375
#     4  12  22  40  66  93 119 168 211 252 305 368
#
# _framework density 20.811965000000001
#
# number of rings (size 3 to 8) (size 9 to 14) (size 15 to 20)
#    0.000    1.000    5.000    3.000    4.667    0.000 
#    3.000    5.833    0.000    0.000    0.000    0.000 
#    0.000    0.000    0.000    0.000    0.000    0.000 
#
# Total GULP energy -133981.436094 kJ/mol
# GULP energy per Si atom -5582.559837 kJ/mol
# Density = 2.076460 g / cm^3
# Si number density = 20.811965 Si / 1000 Ang^3
#
#
#
# Elastic Constant Matrix: (Units=GPa)
#
#
# Indices 1 2 3 4 5 6 
#
# 1 77.4871 8.3401 3.4168 -0.0002 -22.1650 0.0008
# 2 8.3401 57.4080 -8.1253 0.0002 -12.0757 0.0010
# 3 3.4168 -8.1253 29.4661 0.0004 -14.2168 0.0015
# 4 -0.0002 0.0002 0.0004 28.2640 0.0004 2.0984
# 5 -22.1650 -12.0757 -14.2168 0.0004 31.8554 0.0001
# 6 0.0008 0.0010 0.0015 2.0984 0.0001 -4.8809
#
#
#
# Elastic Compliance Matrix: (Units=1/GPa)
#
#
# Indices 1 2 3 4 5 6 
#
# 1 0.016688 0.001429 0.005509 -0.000001 0.014612 0.000005
# 2 0.001429 0.022379 0.013481 -0.000001 0.015494 0.000009
# 3 0.005509 0.013481 0.052673 -0.000003 0.032451 0.000020
# 4 -0.000001 -0.000001 -0.000003 0.034286 -0.000003 0.014741
# 5 0.014612 0.015494 0.032451 -0.000003 0.061915 0.000016
# 6 0.000005 0.000009 0.000020 0.014741 0.000016 -0.198543
#
#
# Mechanical properties :
#
#
# Convention : Reuss Voigt Hill
#
# Bulk Modulus (GPa) = 7.54281 19.06938 13.30610
# Shear Modulus (GPa) = -689.98422 21.76301 -334.11060
#
# Velocity S-wave (km/s) = -18.22779 3.23723 -12.68409
# Velocity P-wave (km/s) = 20.96117 4.81202 14.42594
#
# Compressibility (1/GPa) = 0.13257653
#
# Stress axis : x y z
#
# Youngs Moduli (GPa) = 59.92190 44.68537 18.98519
#
# Poissons Ratio (x) = -0.06385 -0.10459
# Poissons Ratio (y) = -0.08562 -0.25593
# Poissons Ratio (z) = -0.33010 -0.60239
#
# Static dielectric constant tensor:
#      x y z
#    x 1.775960 0.000000 0.052380 
#    y 0.000000 1.786460 0.000000 
#    z 0.052380 0.000000 1.821470 
# 
# From -- ./inp_files/66446.got.cif
#   From: 2010.05.17/outbox.cif.g08.bks.cpg/sg15_34_cif.got.tgz:66446.got - 2010.06.03 18:47:42.
