data_PCOD9276268
_publ_section_title
;
Structure prediction by ZEFSAII (Michael W. Deem and Ramdas Pophale) SiO2 
 PCOD9276268
Probable space group: C 2/C
;
_chemical_formula_sum "Si O2"
_cell_formula_units_Z 56
_cell_length_a 13.665550
_cell_length_b 21.455968
_cell_length_c 13.739695
_cell_angle_alpha 90.000000
_cell_angle_beta 136.581514
_cell_angle_gamma 90.000000
_cell_volume 2768.933345
_symmetry_space_group_name_H-M "C 2/C"
_symmetry_group_IT_number 15
_symmetry_cell_setting 'monoclinic'
loop_
_space_group_symop_operation_xyz
x,y,z
-x,y,1/2-z
-x,-y,-z
x,-y,1/2+z
1/2+x,1/2+y,z
1/2-x,1/2+y,1/2-z
1/2-x,1/2-y,-z
1/2+x,1/2-y,1/2+z
loop_
_atom_site_type_symbol
_atom_site_label
_atom_site_fract_x
_atom_site_fract_y
_atom_site_fract_z
Si Si1 0.782617 0.371572 0.299089
Si Si2 0.096156 0.248243 0.189566
Si Si3 0.691370 0.175160 0.012851
Si Si4 0.089607 0.864691 0.990503
Si Si5 0.764088 0.040728 0.570963
Si Si6 0.043631 0.549475 0.947131
Si Si7 0.992789 0.004257 0.380136
O O1 0.822538 0.299268 0.316466
O O2 0.638360 0.380111 0.134800
O O3 0.781605 0.395300 0.409697
O O4 0.895426 0.415150 0.321609
O O5 0.203552 0.217007 0.345101
O O6 0.953233 0.287106 0.114985
O O7 0.028375 0.188313 0.089174
O O8 0.645244 0.110523 0.033009
O O9 0.774950 0.158522 0.974520
O O10 0.035462 0.924259 0.892642
O O11 0.887216 0.040361 0.580115
O O12 0.842978 0.007656 0.720105
O O13 0.633864 0.996843 0.443370
O O14 0.000000 0.500000 0.000000
O O15 0.000000 0.000000 0.500000
#
# Coordination Sequence:
#
# PCOD9276268 Si02
#       7
#     8   8   8   8   8   8   8
#     4  10  22  37  57  82 122 166 201 244 309 381
#     4  11  23  36  55  88 125 168 208 254 321 376
#     4  11  22  35  55  85 129 165 207 264 318 381
#     4  12  22  35  54  87 126 156 207 256 318 379
#     4  10  20  40  58  86 121 159 203 252 314 366
#     4   9  19  36  57  80 118 168 197 245 316 375
#     4  11  22  37  62  91 118 155 202 261 317 370
#
# _framework density 20.224394
#
# number of rings (size 3 to 8) (size 9 to 14) (size 15 to 20)
#    0.000    1.429    4.286    1.714    4.000    1.714 
#    0.000    0.000    0.000    0.857    0.000    0.000 
#    0.000    0.000    0.000    0.000    0.000    0.000 
#
# Total GULP energy -155956.700080 kJ/mol
# GULP energy per Si atom -5569.882146 kJ/mol
# Density = 2.017836 g / cm^3
# Si number density = 20.224394 Si / 1000 Ang^3
#
#
#
# Elastic Constant Matrix: (Units=GPa)
#
#
# Indices 1 2 3 4 5 6 
#
# 1 65.9783 32.8007 21.2197 0.0000 -3.7718 0.0000
# 2 32.8007 114.3409 29.4557 0.0000 -0.3109 0.0000
# 3 21.2197 29.4557 72.9176 0.0000 -0.0061 0.0000
# 4 0.0000 0.0000 0.0000 36.9844 0.0000 8.6826
# 5 -3.7718 -0.3109 -0.0061 0.0000 24.0407 0.0000
# 6 0.0000 0.0000 0.0000 8.6826 0.0000 32.6062
#
#
#
# Elastic Compliance Matrix: (Units=1/GPa)
#
#
# Indices 1 2 3 4 5 6 
#
# 1 0.018690 -0.004412 -0.003657 0.000000 0.002874 0.000000
# 2 -0.004412 0.010803 -0.003080 0.000000 -0.000553 0.000000
# 3 -0.003657 -0.003080 0.016022 0.000000 -0.000609 0.000000
# 4 0.000000 0.000000 0.000000 0.028841 0.000000 -0.007680
# 5 0.002874 -0.000553 -0.000609 0.000000 0.042040 0.000000
# 6 0.000000 0.000000 0.000000 -0.007680 0.000000 0.032714
#
#
# Mechanical properties :
#
#
# Convention : Reuss Voigt Hill
#
# Bulk Modulus (GPa) = 43.06882 46.68767 44.87824
# Shear Modulus (GPa) = 27.90985 30.04363 28.97674
#
# Velocity S-wave (km/s) = 3.71888 3.85842 3.78929
# Velocity P-wave (km/s) = 6.30728 6.55628 6.43298
#
# Compressibility (1/GPa) = 0.02321866
#
# Stress axis : x y z
#
# Youngs Moduli (GPa) = 53.50421 92.56338 62.41239
#
# Poissons Ratio (x) = 0.40837 0.22821
# Poissons Ratio (y) = 0.23605 0.19225
# Poissons Ratio (z) = 0.19564 0.28512
#
# Static dielectric constant tensor:
#      x y z
#    x 1.803350 0.000000 0.017730 
#    y 0.000000 1.784000 0.000000 
#    z 0.017730 0.000000 1.735460 
# 
# From -- ./inp_files/156224.got.cif
#   From: 2010.05.17/outbox.cif.g08.bks.cpg/sg15_79_cif.got.tgz:156224.got - 2010.06.03 18:47:42.
