data_PCOD9276287
_publ_section_title
;
Structure prediction by ZEFSAII (Michael W. Deem and Ramdas Pophale) SiO2 
 PCOD9276287
Probable space group: C 2/C
;
_chemical_formula_sum "Si O2"
_cell_formula_units_Z 40
_cell_length_a 18.303071
_cell_length_b 10.971344
_cell_length_c 21.294476
_cell_angle_alpha 90.000000
_cell_angle_beta 159.976213
_cell_angle_gamma 90.000000
_cell_volume 1464.190201
_symmetry_space_group_name_H-M "C 2/C"
_symmetry_group_IT_number 15
_symmetry_cell_setting 'monoclinic'
loop_
_space_group_symop_operation_xyz
x,y,z
-x,y,1/2-z
-x,-y,-z
x,-y,1/2+z
1/2+x,1/2+y,z
1/2-x,1/2+y,1/2-z
1/2-x,1/2-y,-z
1/2+x,1/2-y,1/2+z
loop_
_atom_site_type_symbol
_atom_site_label
_atom_site_fract_x
_atom_site_fract_y
_atom_site_fract_z
Si Si1 0.514725 0.972460 0.938589
Si Si2 0.407194 0.378030 0.960401
Si Si3 0.505977 0.615987 0.688499
Si Si4 0.205701 0.697584 0.798113
Si Si5 0.854615 0.135742 0.049583
O O1 0.463862 0.107380 0.870432
O O2 0.335447 0.886695 0.759603
O O3 0.500000 0.000000 0.000000
O O4 0.745051 0.913903 0.116497
O O5 0.500000 0.500000 0.000000
O O6 0.431957 0.363118 0.055637
O O7 0.576155 0.286772 0.064180
O O8 0.500000 0.692092 0.750000
O O9 0.364803 0.494244 0.589641
O O10 0.093309 0.823662 0.724003
O O11 0.242355 0.627950 0.892704
O O12 0.750000 0.250000 0.000000
#
# Coordination Sequence:
#
# PCOD9276287 Si02
#       5
#     8   8   8   8   8
#     4  11  19  37  63  81 118 170 214 267 298 358
#     4  10  20  40  59  82 117 166 228 254 293 376
#     4  12  23  38  61  93 130 167 206 261 321 374
#     4  11  21  37  57  84 125 169 214 250 299 381
#     4  12  23  37  56  94 141 173 198 248 324 404
#
# _framework density 27.318856
#
# number of rings (size 3 to 8) (size 9 to 14) (size 15 to 20)
#    0.000    0.800    8.000    4.200    0.000    0.800 
#    0.000    0.000    0.000    0.000    0.000    1.400 
#    0.000    0.000    0.000    0.000    0.000    0.000 
#
# Total GULP energy -111820.467720 kJ/mol
# GULP energy per Si atom -5591.023386 kJ/mol
# Density = 2.725668 g / cm^3
# Si number density = 27.318856 Si / 1000 Ang^3
#
#
#
# Elastic Constant Matrix: (Units=GPa)
#
#
# Indices 1 2 3 4 5 6 
#
# 1 214.1412 17.4224 69.5925 0.0024 -42.9910 0.0005
# 2 17.4224 62.4700 18.2621 0.0192 -6.6394 0.0100
# 3 69.5925 18.2621 185.4369 0.0215 -27.6639 0.0049
# 4 0.0024 0.0192 0.0215 34.3602 0.0087 -0.0617
# 5 -42.9910 -6.6394 -27.6639 0.0087 73.7602 0.0002
# 6 0.0005 0.0100 0.0049 -0.0617 0.0002 25.7685
#
#
#
# Elastic Compliance Matrix: (Units=1/GPa)
#
#
# Indices 1 2 3 4 5 6 
#
# 1 0.005831 -0.000843 -0.001705 0.000000 0.002683 0.000001
# 2 -0.000843 0.016664 -0.001244 -0.000009 0.000542 -0.000006
# 3 -0.001705 -0.001244 0.006345 -0.000003 0.001274 -0.000001
# 4 0.000000 -0.000009 -0.000003 0.029104 -0.000005 0.000070
# 5 0.002683 0.000542 0.001274 -0.000005 0.015648 -0.000001
# 6 0.000001 -0.000006 -0.000001 0.000070 -0.000001 0.038807
#
#
# Mechanical properties :
#
#
# Convention : Reuss Voigt Hill
#
# Bulk Modulus (GPa) = 47.04344 74.73358 60.88851
# Shear Modulus (GPa) = 39.34894 50.56253 44.95573
#
# Velocity S-wave (km/s) = 3.79932 4.30679 4.06099
# Velocity P-wave (km/s) = 6.04185 7.22127 6.65773
#
# Compressibility (1/GPa) = 0.02125695
#
# Stress axis : x y z
#
# Youngs Moduli (GPa) = 171.49090 60.00972 157.60104
#
# Poissons Ratio (x) = 0.05057 0.26873
# Poissons Ratio (y) = 0.14450 0.19605
# Poissons Ratio (z) = 0.29241 0.07465
#
# Static dielectric constant tensor:
#      x y z
#    x 2.164120 -0.000010 0.008820 
#    y -0.000010 2.305950 0.000010 
#    z 0.008820 0.000010 2.178820 
# 
# From -- ./inp_files/249326.got.cif
#   From: 2010.05.17/outbox.cif.g08.bks.cpg/sg15_125_cif.got.tgz:249326.got - 2010.06.03 18:47:42.
