data_PCOD9276277
_publ_section_title
;
Structure prediction by ZEFSAII (Michael W. Deem and Ramdas Pophale) SiO2 
 PCOD9276277
Probable space group: C 2/C
;
_chemical_formula_sum "Si O2"
_cell_formula_units_Z 48
_cell_length_a 10.180801
_cell_length_b 27.492223
_cell_length_c 8.014069
_cell_angle_alpha 90.000000
_cell_angle_beta 69.571433
_cell_angle_gamma 90.000000
_cell_volume 2102.008975
_symmetry_space_group_name_H-M "C 2/C"
_symmetry_group_IT_number 15
_symmetry_cell_setting 'monoclinic'
loop_
_space_group_symop_operation_xyz
x,y,z
-x,y,1/2-z
-x,-y,-z
x,-y,1/2+z
1/2+x,1/2+y,z
1/2-x,1/2+y,1/2-z
1/2-x,1/2-y,-z
1/2+x,1/2-y,1/2+z
loop_
_atom_site_type_symbol
_atom_site_label
_atom_site_fract_x
_atom_site_fract_y
_atom_site_fract_z
Si Si1 0.712816 0.340310 0.741428
Si Si2 0.270367 0.550378 0.581649
Si Si3 0.500000 0.578122 0.250000
Si Si4 0.500000 0.812737 0.750000
Si Si5 0.333912 0.852178 0.321474
Si Si6 0.398414 0.967298 0.656686
Si Si7 0.868548 0.258970 0.083016
O O1 0.608617 0.386040 0.796720
O O2 0.853417 0.341712 0.795275
O O3 0.767948 0.338412 0.528124
O O4 0.625582 0.291697 0.823769
O O5 0.420872 0.547577 0.427647
O O6 0.247279 0.598952 0.700962
O O7 0.212375 0.502849 0.700451
O O8 0.175152 0.561719 0.458427
O O9 0.502832 0.778197 0.585338
O O10 0.500000 0.864120 0.250000
O O11 0.324369 0.804176 0.215225
O O12 0.500000 0.943897 0.750000
O O13 0.500000 0.000000 0.500000
O O14 0.750000 0.250000 0.000000
#
# Coordination Sequence:
#
# PCOD9276277 Si02
#       7
#     8   8   4   4   8   8   8
#     4  10  22  39  62  89 130 176 229 272 333 389
#     4  10  22  40  64  99 133 173 211 271 342 407
#     4  10  24  40  58  96 135 176 217 266 326 410
#     4  10  20  40  58  90 117 170 231 280 322 382
#     4  11  20  37  63  94 126 172 225 272 332 390
#     4   9  18  39  69  99 128 163 212 271 335 405
#     4  10  22  37  60  91 130 172 224 284 332 379
#
# _framework density 22.835298000000002
#
# number of rings (size 3 to 8) (size 9 to 14) (size 15 to 20)
#    0.000    2.000    1.667    2.000    1.167    6.000 
#    6.000   10.000    0.000   16.000    0.000    0.000 
#    0.000    0.000    0.000    0.000    0.000    0.000 
#
# Total GULP energy -133872.285447 kJ/mol
# GULP energy per Si atom -5578.011894 kJ/mol
# Density = 2.278332 g / cm^3
# Si number density = 22.835298 Si / 1000 Ang^3
#
#
#
# Elastic Constant Matrix: (Units=GPa)
#
#
# Indices 1 2 3 4 5 6 
#
# 1 66.7416 8.5437 10.1845 0.0000 -14.6260 0.0000
# 2 8.5437 90.9683 38.1704 0.0000 -7.2952 0.0000
# 3 10.1845 38.1704 119.2145 0.0000 -19.8605 0.0000
# 4 0.0000 0.0000 0.0000 19.6294 0.0000 -15.5615
# 5 -14.6260 -7.2952 -19.8605 0.0000 35.7432 0.0000
# 6 0.0000 0.0000 0.0000 -15.5615 0.0000 20.3383
#
#
#
# Elastic Compliance Matrix: (Units=1/GPa)
#
#
# Indices 1 2 3 4 5 6 
#
# 1 0.016553 -0.001032 0.000011 0.000000 0.006569 0.000000
# 2 -0.001032 0.012768 -0.004007 0.000000 -0.000043 0.000000
# 3 0.000011 -0.004007 0.010507 0.000000 0.005025 0.000000
# 4 0.000000 0.000000 0.000000 0.129487 0.000000 0.099075
# 5 0.006569 -0.000043 0.005025 0.000000 0.033449 0.000000
# 6 0.000000 0.000000 0.000000 0.099075 0.000000 0.124974
#
#
# Mechanical properties :
#
#
# Convention : Reuss Voigt Hill
#
# Bulk Modulus (GPa) = 33.58967 43.41351 38.50159
# Shear Modulus (GPa) = 14.37942 29.81054 22.09498
#
# Velocity S-wave (km/s) = 2.51211 3.61703 3.11397
# Velocity P-wave (km/s) = 4.81204 6.04125 5.46134
#
# Compressibility (1/GPa) = 0.02977106
#
# Stress axis : x y z
#
# Youngs Moduli (GPa) = 60.41129 78.32278 95.17101
#
# Poissons Ratio (x) = 0.08086 -0.00102
# Poissons Ratio (y) = 0.06237 0.38135
# Poissons Ratio (z) = -0.00065 0.31384
#
# Static dielectric constant tensor:
#      x y z
#    x 1.908180 0.000000 -0.019390 
#    y 0.000000 1.908870 0.000000 
#    z -0.019390 0.000000 1.868380 
# 
# From -- ./inp_files/33439.got.cif
#   From: 2010.05.17/outbox.cif.g08.bks.cpg/sg15_17_cif.got.tgz:33439.got - 2010.06.03 18:47:42.
