data_PCOD9276023
_publ_section_title
;
Structure prediction by ZEFSAII (Michael W. Deem and Ramdas Pophale) SiO2 
 PCOD9276023
Probable space group: C 2/C
;
_chemical_formula_sum "Si O2"
_cell_formula_units_Z 56
_cell_length_a 11.259337
_cell_length_b 8.719526
_cell_length_c 31.267836
_cell_angle_alpha 90.000000
_cell_angle_beta 63.800939
_cell_angle_gamma 90.000000
_cell_volume 2754.384342
_symmetry_space_group_name_H-M "C 2/C"
_symmetry_group_IT_number 15
_symmetry_cell_setting 'monoclinic'
loop_
_space_group_symop_operation_xyz
x,y,z
-x,y,1/2-z
-x,-y,-z
x,-y,1/2+z
1/2+x,1/2+y,z
1/2-x,1/2+y,1/2-z
1/2-x,1/2-y,-z
1/2+x,1/2-y,1/2+z
loop_
_atom_site_type_symbol
_atom_site_label
_atom_site_fract_x
_atom_site_fract_y
_atom_site_fract_z
Si Si1 0.807721 0.899798 0.872460
Si Si2 0.781440 0.171455 0.040676
Si Si3 0.292063 0.130447 0.200350
Si Si4 0.210136 0.341413 0.048989
Si Si5 0.552449 0.077027 0.948284
Si Si6 0.419868 0.724530 0.857167
Si Si7 0.838226 0.799588 0.279465
O O1 0.796870 0.824931 0.827035
O O2 0.807082 0.769869 0.908350
O O3 0.673894 0.992530 0.906308
O O4 0.917945 0.036254 0.856894
O O5 0.903148 0.255994 0.043573
O O6 0.657683 0.218443 0.089547
O O7 0.802668 0.989994 0.037518
O O8 0.750000 0.250000 0.000000
O O9 0.438844 0.192551 0.166062
O O10 0.282287 0.195149 0.250175
O O11 0.251238 0.951884 0.208370
O O12 0.067654 0.414982 0.064333
O O13 0.250000 0.250000 0.000000
O O14 0.500000 0.000000 0.000000
O O15 0.336686 0.767847 0.827581
O O16 0.000000 0.830530 0.250000
#
# Coordination Sequence:
#
# PCOD9276023 Si02
#       7
#     8   8   8   8   8   8   8
#     4  10  22  39  59  90 122 157 207 257 299 359
#     4  11  22  37  62  90 123 167 208 248 302 364
#     4  10  20  39  67  86 123 158 194 256 315 364
#     4  12  23  37  57  86 118 161 212 254 299 361
#     4  11  21  40  59  82 127 167 203 256 303 351
#     4   9  20  40  62  87 124 163 202 251 307 369
#     4   9  20  40  62  91 118 153 198 251 312 373
#
# _framework density 20.331222
#
# number of rings (size 3 to 8) (size 9 to 14) (size 15 to 20)
#    0.000    1.714    2.857    1.714    0.000    2.857 
#    0.000   19.286    0.000    0.000    0.000    0.000 
#    0.000    0.000    0.000    0.000    0.000    0.000 
#
# Total GULP energy -155983.466749 kJ/mol
# GULP energy per Si atom -5570.838098 kJ/mol
# Density = 2.028495 g / cm^3
# Si number density = 20.331222 Si / 1000 Ang^3
#
#
#
# Elastic Constant Matrix: (Units=GPa)
#
#
# Indices 1 2 3 4 5 6 
#
# 1 61.1312 39.6637 9.1826 0.0000 10.2230 0.0000
# 2 39.6637 94.2834 22.2378 0.0000 19.6356 0.0000
# 3 9.1826 22.2378 102.5677 0.0000 35.9929 0.0000
# 4 0.0000 0.0000 0.0000 36.9051 0.0000 9.5923
# 5 10.2230 19.6356 35.9929 0.0000 35.0062 0.0000
# 6 0.0000 0.0000 0.0000 9.5923 0.0000 40.8217
#
#
#
# Elastic Compliance Matrix: (Units=1/GPa)
#
#
# Indices 1 2 3 4 5 6 
#
# 1 0.022599 -0.009227 0.000746 0.000000 -0.002192 0.000000
# 2 -0.009227 0.015786 -0.000680 0.000000 -0.005460 0.000000
# 3 0.000746 -0.000680 0.015290 0.000000 -0.015557 0.000000
# 4 0.000000 0.000000 0.000000 0.028859 0.000000 -0.006781
# 5 -0.002192 -0.005460 -0.015557 0.000000 0.048264 0.000000
# 6 0.000000 0.000000 0.000000 -0.006781 0.000000 0.026090
#
#
# Mechanical properties :
#
#
# Convention : Reuss Voigt Hill
#
# Bulk Modulus (GPa) = 28.28630 44.46117 36.37374
# Shear Modulus (GPa) = 26.73883 35.00650 30.87266
#
# Velocity S-wave (km/s) = 3.63045 4.15397 3.90100
# Velocity P-wave (km/s) = 5.61396 6.70248 6.18222
#
# Compressibility (1/GPa) = 0.03535280
#
# Stress axis : x y z
#
# Youngs Moduli (GPa) = 44.24919 63.34910 65.40427
#
# Poissons Ratio (x) = 0.58451 -0.04881
# Poissons Ratio (y) = 0.40828 0.04449
# Poissons Ratio (z) = -0.03302 0.04309
#
# Static dielectric constant tensor:
#      x y z
#    x 1.729600 0.000000 0.020650 
#    y 0.000000 1.689660 0.000000 
#    z 0.020650 0.000000 1.848370 
# 
# From -- ./inp_files/309922.got.cif
#   From: 2010.05.17/outbox.cif.g08.bks.cpg/sg15_155_cif.got.tgz:309922.got - 2010.06.03 18:47:42.
