data_PCOD9276220
_publ_section_title
;
Structure prediction by ZEFSAII (Michael W. Deem and Ramdas Pophale) SiO2 
 PCOD9276220
Probable space group: C 2/C
;
_chemical_formula_sum "Si O2"
_cell_formula_units_Z 40
_cell_length_a 24.335318
_cell_length_b 8.006141
_cell_length_c 18.076230
_cell_angle_alpha 90.000000
_cell_angle_beta 24.595843
_cell_angle_gamma 90.000000
_cell_volume 1465.836939
_symmetry_space_group_name_H-M "C 2/C"
_symmetry_group_IT_number 15
_symmetry_cell_setting 'monoclinic'
loop_
_space_group_symop_operation_xyz
x,y,z
-x,y,1/2-z
-x,-y,-z
x,-y,1/2+z
1/2+x,1/2+y,z
1/2-x,1/2+y,1/2-z
1/2-x,1/2-y,-z
1/2+x,1/2-y,1/2+z
loop_
_atom_site_type_symbol
_atom_site_label
_atom_site_fract_x
_atom_site_fract_y
_atom_site_fract_z
Si Si1 0.353734 0.592571 0.344079
Si Si2 0.525120 0.706824 0.893207
Si Si3 0.624026 0.874033 0.646404
Si Si4 0.282733 0.841329 0.727215
Si Si5 0.765223 0.833439 0.111292
O O1 0.443099 0.451110 0.198013
O O2 0.199320 0.532957 0.523936
O O3 0.355435 0.749691 0.286965
O O4 0.642526 0.608546 0.071105
O O5 0.561587 0.873472 0.803376
O O6 0.627451 0.713356 0.835179
O O7 0.371320 0.704321 0.094264
O O8 0.500000 0.819300 0.750000
O O9 0.750000 0.750000 0.500000
O O10 0.328297 0.808555 0.587332
O O11 0.273049 0.012498 0.787068
#
# Coordination Sequence:
#
# PCOD9276220 Si02
#       5
#     8   8   8   8   8
#     4  10  23  48  72 111 150 201 257 316 375 462
#     4  11  24  47  81 110 152 203 256 315 390 465
#     4  10  20  39  73 110 143 188 245 308 368 444
#     4  12  27  49  77 112 158 205 252 318 399 459
#     4  11  26  48  73 110 157 201 253 317 387 461
#
# _framework density 27.288167999999999
#
# number of rings (size 3 to 8) (size 9 to 14) (size 15 to 20)
#    0.000    1.200    2.000    3.600    2.800    4.000 
#   10.800    0.000    0.000    0.000    0.000    0.000 
#    0.000    0.000    0.000    0.000    0.000    0.000 
#
# Total GULP energy -111594.097910 kJ/mol
# GULP energy per Si atom -5579.704895 kJ/mol
# Density = 2.722606 g / cm^3
# Si number density = 27.288168 Si / 1000 Ang^3
#
#
#
# Elastic Constant Matrix: (Units=GPa)
#
#
# Indices 1 2 3 4 5 6 
#
# 1 252.5568 75.5383 67.4895 0.0002 18.0860 0.0000
# 2 75.5383 127.0802 52.0349 0.0013 9.5761 -0.0001
# 3 67.4895 52.0349 128.2539 0.0013 -24.7895 -0.0002
# 4 0.0002 0.0013 0.0013 29.3904 -0.0002 12.6487
# 5 18.0860 9.5761 -24.7895 -0.0002 36.7206 0.0000
# 6 0.0000 -0.0001 -0.0002 12.6487 0.0000 63.0196
#
#
#
# Elastic Compliance Matrix: (Units=1/GPa)
#
#
# Indices 1 2 3 4 5 6 
#
# 1 0.005627 -0.001739 -0.003109 0.000000 -0.004417 0.000000
# 2 -0.001739 0.011187 -0.004626 0.000000 -0.005184 0.000000
# 3 -0.003109 -0.004626 0.013616 0.000000 0.011930 0.000000
# 4 0.000000 0.000000 0.000000 0.037242 0.000000 -0.007475
# 5 -0.004417 -0.005184 0.011930 0.000000 0.038814 0.000000
# 6 0.000000 0.000000 0.000000 -0.007475 0.000000 0.017368
#
#
# Mechanical properties :
#
#
# Convention : Reuss Voigt Hill
#
# Bulk Modulus (GPa) = 87.09153 99.77959 93.43556
# Shear Modulus (GPa) = 34.09980 46.68132 40.39056
#
# Velocity S-wave (km/s) = 3.53883 4.14052 3.85144
# Velocity P-wave (km/s) = 6.97729 7.71383 7.35478
#
# Compressibility (1/GPa) = 0.01148217
#
# Stress axis : x y z
#
# Youngs Moduli (GPa) = 177.72496 89.38659 73.44412
#
# Poissons Ratio (x) = 0.15541 0.22835
# Poissons Ratio (y) = 0.30900 0.33975
# Poissons Ratio (z) = 0.55258 0.41350
#
# Static dielectric constant tensor:
#      x y z
#    x 2.277540 0.000000 -0.067100 
#    y 0.000000 2.360910 0.000000 
#    z -0.067100 0.000000 2.209320 
# 
# From -- ./inp_files/284262.got.cif
#   From: 2010.05.17/outbox.cif.g08.bks.cpg/sg15_143_cif.got.tgz:284262.got - 2010.06.03 18:47:42.
