data_PCOD9276071
_publ_section_title
;
Structure prediction by ZEFSAII (Michael W. Deem and Ramdas Pophale) SiO2 
 PCOD9276071
Probable space group: C 2/C
;
_chemical_formula_sum "Si O2"
_cell_formula_units_Z 44
_cell_length_a 9.164011
_cell_length_b 11.834061
_cell_length_c 19.785221
_cell_angle_alpha 90.000000
_cell_angle_beta 116.808991
_cell_angle_gamma 90.000000
_cell_volume 1915.031233
_symmetry_space_group_name_H-M "C 2/C"
_symmetry_group_IT_number 15
_symmetry_cell_setting 'monoclinic'
loop_
_space_group_symop_operation_xyz
x,y,z
-x,y,1/2-z
-x,-y,-z
x,-y,1/2+z
1/2+x,1/2+y,z
1/2-x,1/2+y,1/2-z
1/2-x,1/2-y,-z
1/2+x,1/2-y,1/2+z
loop_
_atom_site_type_symbol
_atom_site_label
_atom_site_fract_x
_atom_site_fract_y
_atom_site_fract_z
Si Si1 0.204505 0.749670 0.873173
Si Si2 0.634990 0.787057 0.127248
Si Si3 0.147865 0.874695 0.209226
Si Si4 0.026929 0.620486 0.473456
Si Si5 0.078304 0.354616 0.830409
Si Si6 0.000000 0.925049 0.750000
O O1 0.258054 0.640834 0.841215
O O2 0.363223 0.803691 0.940243
O O3 0.142008 0.842297 0.805227
O O4 0.051555 0.725717 0.889164
O O5 0.725967 0.865175 0.201492
O O6 0.737246 0.672278 0.151964
O O7 0.651398 0.823522 0.052600
O O8 0.024808 0.765532 0.186145
O O9 0.050636 0.989338 0.201110
O O10 0.000000 0.500000 0.500000
O O11 0.072655 0.601477 0.405058
O O12 0.000000 0.417998 0.750000
#
# Coordination Sequence:
#
# PCOD9276071 Si02
#       6
#     8   8   8   8   8   4
#     4  11  24  41  65 100 134 179 227 289 328 406
#     4  11  19  42  62  91 136 170 216 291 340 386
#     4  10  20  39  67  97 128 177 230 273 339 393
#     4  11  24  40  62  95 136 178 223 274 352 408
#     4   9  20  40  67  91 126 176 226 277 337 401
#     4  12  20  40  74  92 134 182 236 272 342 400
#
# _framework density 22.976126000000001
#
# number of rings (size 3 to 8) (size 9 to 14) (size 15 to 20)
#    0.000    1.455    4.545    2.182    0.000    0.000 
#    3.273    0.909    4.000    0.000    0.000    0.000 
#    0.000    0.000    0.000    0.000    0.000    0.000 
#
# Total GULP energy -122935.509942 kJ/mol
# GULP energy per Si atom -5587.977725 kJ/mol
# Density = 2.292383 g / cm^3
# Si number density = 22.976126 Si / 1000 Ang^3
#
#
#
# Elastic Constant Matrix: (Units=GPa)
#
#
# Indices 1 2 3 4 5 6 
#
# 1 95.1301 -1.4181 23.4269 0.0000 -25.9797 0.0000
# 2 -1.4181 53.7613 15.2781 0.0000 -8.0711 0.0000
# 3 23.4269 15.2781 134.8658 0.0000 -15.3977 0.0000
# 4 0.0000 0.0000 0.0000 27.9474 0.0000 -12.4112
# 5 -25.9797 -8.0711 -15.3977 0.0000 46.3192 0.0000
# 6 0.0000 0.0000 0.0000 -12.4112 0.0000 19.5229
#
#
#
# Elastic Compliance Matrix: (Units=1/GPa)
#
#
# Indices 1 2 3 4 5 6 
#
# 1 0.012852 0.001855 -0.001645 0.000000 0.006985 0.000000
# 2 0.001855 0.019825 -0.002136 0.000000 0.003785 0.000000
# 3 -0.001645 -0.002136 0.008102 0.000000 0.001398 0.000000
# 4 0.000000 0.000000 0.000000 0.049857 0.000000 0.031696
# 5 0.006985 0.003785 0.001398 0.000000 0.026632 0.000000
# 6 0.000000 0.000000 0.000000 0.031696 0.000000 0.071372
#
#
# Mechanical properties :
#
#
# Convention : Reuss Voigt Hill
#
# Bulk Modulus (GPa) = 27.08007 39.81453 33.44730
# Shear Modulus (GPa) = 24.41393 35.18925 29.80159
#
# Velocity S-wave (km/s) = 3.26326 3.91776 3.60539
# Velocity P-wave (km/s) = 5.10002 6.15072 5.64985
#
# Compressibility (1/GPa) = 0.03692753
#
# Stress axis : x y z
#
# Youngs Moduli (GPa) = 77.80695 50.44158 123.42353
#
# Poissons Ratio (x) = -0.09358 0.20306
# Poissons Ratio (y) = -0.14435 0.26363
# Poissons Ratio (z) = 0.12801 0.10774
#
# Static dielectric constant tensor:
#      x y z
#    x 1.913130 0.000000 0.011040 
#    y 0.000000 1.920090 0.000000 
#    z 0.011040 0.000000 2.103240 
# 
# From -- ./inp_files/189003.got.cif
#   From: 2010.05.17/outbox.cif.g08.bks.cpg/sg15_95_cif.got.tgz:189003.got - 2010.06.03 18:47:42.
