data_PCOD9276063
_publ_section_title
;
Structure prediction by ZEFSAII (Michael W. Deem and Ramdas Pophale) SiO2 
 PCOD9276063
Probable space group: C 2/C
;
_chemical_formula_sum "Si O2"
_cell_formula_units_Z 44
_cell_length_a 23.081881
_cell_length_b 18.252997
_cell_length_c 15.295054
_cell_angle_alpha 90.000000
_cell_angle_beta 160.800831
_cell_angle_gamma 90.000000
_cell_volume 2119.132619
_symmetry_space_group_name_H-M "C 2/C"
_symmetry_group_IT_number 15
_symmetry_cell_setting 'monoclinic'
loop_
_space_group_symop_operation_xyz
x,y,z
-x,y,1/2-z
-x,-y,-z
x,-y,1/2+z
1/2+x,1/2+y,z
1/2-x,1/2+y,1/2-z
1/2-x,1/2-y,-z
1/2+x,1/2-y,1/2+z
loop_
_atom_site_type_symbol
_atom_site_label
_atom_site_fract_x
_atom_site_fract_y
_atom_site_fract_z
Si Si1 0.321377 0.184976 0.438451
Si Si2 0.179354 0.519717 0.377090
Si Si3 0.548028 0.431055 0.631093
Si Si4 0.787357 0.659174 0.781701
Si Si5 0.500000 0.868874 0.750000
Si Si6 0.926094 0.589434 0.434904
O O1 0.172086 0.130620 0.262969
O O2 0.263491 0.268515 0.344217
O O3 0.361397 0.156472 0.398566
O O4 0.500000 0.179682 0.750000
O O5 0.334074 0.466778 0.625406
O O6 0.134897 0.578651 0.388767
O O7 0.002500 0.471264 0.109897
O O8 0.213175 0.557193 0.331793
O O9 0.500000 0.500000 0.500000
O O10 0.378404 0.389592 0.426329
O O11 0.913844 0.613274 0.898888
O O12 0.895722 0.674617 0.026049
#
# Coordination Sequence:
#
# PCOD9276063 Si02
#       6
#     8   8   8   8   4   8
#     4  12  26  47  66  95 141 181 213 276 350 399
#     4  10  20  39  67  95 129 168 218 279 328 384
#     4  12  25  43  71 105 130 172 233 279 324 398
#     4  11  26  43  69  98 136 179 225 272 338 406
#     4  10  20  46  64  90 140 180 210 282 346 388
#     4  10  23  42  68  94 132 175 221 269 346 393
#
# _framework density 20.763211999999999
#
# number of rings (size 3 to 8) (size 9 to 14) (size 15 to 20)
#    0.000    1.091    3.636    2.182    7.636    1.455 
#    3.273    2.727    0.000    0.000    0.000    0.000 
#    0.000    0.000    0.000    0.000    0.000    0.000 
#
# Total GULP energy -122970.352672 kJ/mol
# GULP energy per Si atom -5589.561485 kJ/mol
# Density = 2.071595 g / cm^3
# Si number density = 20.763212 Si / 1000 Ang^3
#
#
#
# Elastic Constant Matrix: (Units=GPa)
#
#
# Indices 1 2 3 4 5 6 
#
# 1 77.5983 34.9288 56.7026 0.0000 4.5873 0.0000
# 2 34.9288 117.4124 49.5686 0.0000 3.0139 0.0000
# 3 56.7026 49.5686 99.5459 0.0000 -2.2959 0.0000
# 4 0.0000 0.0000 0.0000 44.6743 0.0000 -6.0761
# 5 4.5873 3.0139 -2.2959 0.0000 31.0220 0.0000
# 6 0.0000 0.0000 0.0000 -6.0761 0.0000 31.5921
#
#
#
# Elastic Compliance Matrix: (Units=1/GPa)
#
#
# Indices 1 2 3 4 5 6 
#
# 1 0.022831 -0.001462 -0.012373 0.000000 -0.004150 0.000000
# 2 -0.001462 0.010943 -0.004644 0.000000 -0.001191 0.000000
# 3 -0.012373 -0.004644 0.019491 0.000000 0.003723 0.000000
# 4 0.000000 0.000000 0.000000 0.022986 0.000000 0.004421
# 5 -0.004150 -0.001191 0.003723 0.000000 0.033240 0.000000
# 6 0.000000 0.000000 0.000000 0.004421 0.000000 0.032504
#
#
# Mechanical properties :
#
#
# Convention : Reuss Voigt Hill
#
# Bulk Modulus (GPa) = 61.31642 64.10629 62.71135
# Shear Modulus (GPa) = 27.11677 31.68147 29.39912
#
# Velocity S-wave (km/s) = 3.61778 3.91045 3.76696
# Velocity P-wave (km/s) = 6.85905 7.16455 7.01346
#
# Compressibility (1/GPa) = 0.01630885
#
# Stress axis : x y z
#
# Youngs Moduli (GPa) = 43.79965 91.38313 51.30473
#
# Poissons Ratio (x) = 0.13361 0.63477
# Poissons Ratio (y) = 0.06404 0.23824
# Poissons Ratio (z) = 0.54192 0.42435
#
# Static dielectric constant tensor:
#      x y z
#    x 1.734740 0.000000 -0.012640 
#    y 0.000000 1.768200 0.000000 
#    z -0.012640 0.000000 1.770110 
# 
# From -- ./inp_files/174169.got.cif
#   From: 2010.05.17/outbox.cif.g08.bks.cpg/sg15_88_cif.got.tgz:174169.got - 2010.06.03 18:47:42.
