data_PCOD9276257
_publ_section_title
;
Structure prediction by ZEFSAII (Michael W. Deem and Ramdas Pophale) SiO2 
 PCOD9276257
Probable space group: C 2/C
;
_chemical_formula_sum "Si O2"
_cell_formula_units_Z 56
_cell_length_a 28.208608
_cell_length_b 14.336296
_cell_length_c 8.811878
_cell_angle_alpha 90.000000
_cell_angle_beta 138.278256
_cell_angle_gamma 90.000000
_cell_volume 2371.614321
_symmetry_space_group_name_H-M "C 2/C"
_symmetry_group_IT_number 15
_symmetry_cell_setting 'monoclinic'
loop_
_space_group_symop_operation_xyz
x,y,z
-x,y,1/2-z
-x,-y,-z
x,-y,1/2+z
1/2+x,1/2+y,z
1/2-x,1/2+y,1/2-z
1/2-x,1/2-y,-z
1/2+x,1/2-y,1/2+z
loop_
_atom_site_type_symbol
_atom_site_label
_atom_site_fract_x
_atom_site_fract_y
_atom_site_fract_z
Si Si1 0.188129 0.870010 0.210841
Si Si2 0.802927 0.629928 0.470575
Si Si3 0.799994 0.691091 0.790066
Si Si4 0.813889 0.977914 0.998311
Si Si5 0.918043 0.697609 0.512654
Si Si6 0.549232 0.794008 0.732534
Si Si7 0.031923 0.912280 0.165157
O O1 0.270359 0.844743 0.381912
O O2 0.187806 0.952703 0.330293
O O3 0.132993 0.789741 0.123873
O O4 0.170521 0.915073 0.005587
O O5 0.807405 0.618881 0.665172
O O6 0.758327 0.727096 0.366928
O O7 0.754595 0.560353 0.255179
O O8 0.876182 0.643701 0.549530
O O9 0.878274 0.728328 0.004875
O O10 0.884026 0.923173 0.118580
O O11 0.927799 0.652884 0.367006
O O12 0.000000 0.717884 0.750000
O O13 0.500000 0.834732 0.750000
O O14 0.516203 0.696150 0.591284
O O15 0.000000 0.926415 0.250000
O O16 0.000000 0.000000 0.000000
#
# Coordination Sequence:
#
# PCOD9276257 Si02
#       7
#     8   8   8   8   8   8   8
#     4  11  24  36  61  84 128 158 209 255 319 374
#     4  10  21  38  64  82 118 157 218 262 316 372
#     4  10  20  40  57  87 112 161 209 270 311 373
#     4  12  22  40  57  91 120 171 205 263 314 381
#     4  11  23  40  59  89 121 166 208 260 313 375
#     4  11  22  38  59  84 120 164 211 257 312 372
#     4  11  24  36  53  81 125 169 207 247 303 381
#
# _framework density 23.612608999999999
#
# number of rings (size 3 to 8) (size 9 to 14) (size 15 to 20)
#    0.000    1.143    2.857    3.429    2.000    2.286 
#    0.000    0.000    0.000    0.857    0.000    6.000 
#    0.000    0.000    0.000    0.000    0.000    0.000 
#
# Total GULP energy -155901.916803 kJ/mol
# GULP energy per Si atom -5567.925600 kJ/mol
# Density = 2.355887 g / cm^3
# Si number density = 23.612609 Si / 1000 Ang^3
#
#
#
# Elastic Constant Matrix: (Units=GPa)
#
#
# Indices 1 2 3 4 5 6 
#
# 1 213.3867 4.6421 43.4880 0.0000 10.7340 0.0000
# 2 4.6421 8.7994 -1.0936 0.0000 1.6308 0.0000
# 3 43.4880 -1.0936 75.3620 0.0000 14.1825 0.0000
# 4 0.0000 0.0000 0.0000 25.6610 0.0000 -8.6641
# 5 10.7340 1.6308 14.1825 0.0000 24.0194 0.0000
# 6 0.0000 0.0000 0.0000 -8.6641 0.0000 28.1868
#
#
#
# Elastic Compliance Matrix: (Units=1/GPa)
#
#
# Indices 1 2 3 4 5 6 
#
# 1 0.005405 -0.003167 -0.003095 0.000000 -0.000373 0.000000
# 2 -0.003167 0.117790 0.005372 0.000000 -0.009754 0.000000
# 3 -0.003095 0.005372 0.016809 0.000000 -0.008907 0.000000
# 4 0.000000 0.000000 0.000000 0.043482 0.000000 0.013366
# 5 -0.000373 -0.009754 -0.008907 0.000000 0.047721 0.000000
# 6 0.000000 0.000000 0.000000 0.013366 0.000000 0.039586
#
#
# Mechanical properties :
#
#
# Convention : Reuss Voigt Hill
#
# Bulk Modulus (GPa) = 7.23452 43.51345 25.37398
# Shear Modulus (GPa) = 15.69137 32.27422 23.98279
#
# Velocity S-wave (km/s) = 2.58065 3.70107 3.19043
# Velocity P-wave (km/s) = 3.45690 6.06069 4.93366
#
# Compressibility (1/GPa) = 0.13822626
#
# Stress axis : x y z
#
# Youngs Moduli (GPa) = 185.02609 8.48968 59.49138
#
# Poissons Ratio (x) = 0.02688 0.18410
# Poissons Ratio (y) = 0.58591 -0.31961
# Poissons Ratio (z) = 0.57257 -0.04561
#
# Static dielectric constant tensor:
#      x y z
#    x 1.971790 0.000000 -0.068910 
#    y 0.000000 4.957850 0.000000 
#    z -0.068910 0.000000 1.978670 
# 
# From -- ./inp_files/67177.got.cif
#   From: 2010.05.17/outbox.cif.g08.bks.cpg/sg15_34_cif.got.tgz:67177.got - 2010.06.03 18:47:42.
