data_PCOD9276500
_publ_section_title
;
Structure prediction by ZEFSAII (Michael W. Deem and Ramdas Pophale) SiO2 
 PCOD9276500
Probable space group: C 2/C
;
_chemical_formula_sum "Si O2"
_cell_formula_units_Z 52
_cell_length_a 9.946848
_cell_length_b 26.196372
_cell_length_c 11.619754
_cell_angle_alpha 90.000000
_cell_angle_beta 60.137755
_cell_angle_gamma 90.000000
_cell_volume 2625.762083
_symmetry_space_group_name_H-M "C 2/C"
_symmetry_group_IT_number 15
_symmetry_cell_setting 'monoclinic'
loop_
_space_group_symop_operation_xyz
x,y,z
-x,y,1/2-z
-x,-y,-z
x,-y,1/2+z
1/2+x,1/2+y,z
1/2-x,1/2+y,1/2-z
1/2-x,1/2-y,-z
1/2+x,1/2-y,1/2+z
loop_
_atom_site_type_symbol
_atom_site_label
_atom_site_fract_x
_atom_site_fract_y
_atom_site_fract_z
Si Si1 0.133508 0.831423 0.596672
Si Si2 0.948640 0.681696 0.082838
Si Si3 0.277272 0.648938 0.875512
Si Si4 0.071179 0.056354 0.092271
Si Si5 0.517818 0.703699 0.904275
Si Si6 0.500000 0.900439 0.750000
Si Si7 0.696511 0.552764 0.486976
O O1 0.293700 0.810838 0.576381
O O2 0.161810 0.890636 0.553407
O O3 0.070186 0.803457 0.511855
O O4 0.000000 0.829508 0.750000
O O5 0.982797 0.736669 0.123308
O O6 0.927069 0.637399 0.186132
O O7 0.096870 0.662550 0.946662
O O8 0.348766 0.680453 0.952671
O O9 0.368186 0.670722 0.726672
O O10 0.312672 0.590562 0.897991
O O11 0.000000 0.050343 0.250000
O O12 0.173157 0.006359 0.026658
O O13 0.937836 0.062477 0.051288
O O14 0.637542 0.933738 0.638162
#
# Coordination Sequence:
#
# PCOD9276500 Si02
#       7
#     8   8   8   8   8   4   8
#     4  11  24  41  62  93 128 167 209 252 313 379
#     4  11  24  39  63  91 125 167 205 260 314 365
#     4  10  23  40  64  93 120 160 213 262 303 369
#     4  10  21  38  64  88 122 165 205 254 319 370
#     4  11  23  41  64  90 126 165 211 256 310 372
#     4  10  20  40  62  92 122 160 208 260 308 364
#     4  10  21  39  64  91 121 161 212 258 309 373
#
# _framework density 19.803774000000001
#
# number of rings (size 3 to 8) (size 9 to 14) (size 15 to 20)
#    0.000    1.538    1.538    3.692    6.462    0.615 
#    0.000    8.462    0.000    0.000    0.000    0.000 
#    0.000    0.000    0.000    0.000    0.000    0.000 
#
# Total GULP energy -145193.152779 kJ/mol
# GULP energy per Si atom -5584.352030 kJ/mol
# Density = 1.975870 g / cm^3
# Si number density = 19.803774 Si / 1000 Ang^3
#
#
#
# Elastic Constant Matrix: (Units=GPa)
#
#
# Indices 1 2 3 4 5 6 
#
# 1 77.2365 6.4893 12.8492 0.0000 -1.5349 0.0000
# 2 6.4893 115.7610 24.9844 0.0000 -8.8881 0.0000
# 3 12.8492 24.9844 68.5937 0.0000 -0.0622 0.0000
# 4 0.0000 0.0000 0.0000 29.6302 0.0000 6.4054
# 5 -1.5349 -8.8881 -0.0622 0.0000 29.1586 0.0000
# 6 0.0000 0.0000 0.0000 6.4054 0.0000 19.1345
#
#
#
# Elastic Compliance Matrix: (Units=1/GPa)
#
#
# Indices 1 2 3 4 5 6 
#
# 1 0.013381 -0.000173 -0.002443 0.000000 0.000646 0.000000
# 2 -0.000173 0.009621 -0.003469 0.000000 0.002916 0.000000
# 3 -0.002443 -0.003469 0.016299 0.000000 -0.001151 0.000000
# 4 0.000000 0.000000 0.000000 0.036382 0.000000 -0.012179
# 5 0.000646 0.002916 -0.001151 0.000000 0.035216 0.000000
# 6 0.000000 0.000000 0.000000 -0.012179 0.000000 0.056339
#
#
# Mechanical properties :
#
#
# Convention : Reuss Voigt Hill
#
# Bulk Modulus (GPa) = 36.85952 38.91522 37.88737
# Shear Modulus (GPa) = 26.53205 30.06920 28.30062
#
# Velocity S-wave (km/s) = 3.66423 3.90084 3.78438
# Velocity P-wave (km/s) = 6.04606 6.32311 6.18614
#
# Compressibility (1/GPa) = 0.02713004
#
# Stress axis : x y z
#
# Youngs Moduli (GPa) = 74.73252 103.94101 61.35433
#
# Poissons Ratio (x) = 0.01801 0.14988
# Poissons Ratio (y) = 0.01295 0.21285
# Poissons Ratio (z) = 0.18256 0.36059
#
# Static dielectric constant tensor:
#      x y z
#    x 1.696500 0.000000 0.020490 
#    y 0.000000 1.682540 0.000000 
#    z 0.020490 0.000000 1.703710 
# 
# From -- ./inp_files/81168.got.cif
#   From: 2010.05.17/outbox.cif.g08.bks.cpg/sg15_41_cif.got.tgz:81168.got - 2010.06.03 18:47:42.
