data_PCOD9276746
_publ_section_title
;
Structure prediction by ZEFSAII (Michael W. Deem and Ramdas Pophale) SiO2 
 PCOD9276746
Probable space group: C 2/C
;
_chemical_formula_sum "Si O2"
_cell_formula_units_Z 44
_cell_length_a 31.345271
_cell_length_b 7.013187
_cell_length_c 8.317182
_cell_angle_alpha 90.000000
_cell_angle_beta 89.402578
_cell_angle_gamma 90.000000
_cell_volume 1828.268783
_symmetry_space_group_name_H-M "C 2/C"
_symmetry_group_IT_number 15
_symmetry_cell_setting 'monoclinic'
loop_
_space_group_symop_operation_xyz
x,y,z
-x,y,1/2-z
-x,-y,-z
x,-y,1/2+z
1/2+x,1/2+y,z
1/2-x,1/2+y,1/2-z
1/2-x,1/2-y,-z
1/2+x,1/2-y,1/2+z
loop_
_atom_site_type_symbol
_atom_site_label
_atom_site_fract_x
_atom_site_fract_y
_atom_site_fract_z
Si Si1 0.845630 0.760258 0.665569
Si Si2 0.031821 0.095683 0.124252
Si Si3 0.269148 0.444816 0.163673
Si Si4 0.906846 0.892842 0.141193
Si Si5 0.250000 0.250000 0.500000
Si Si6 0.334570 0.845643 0.536996
O O1 0.844412 0.563744 0.573562
O O2 0.846731 0.723205 0.856214
O O3 0.799688 0.864612 0.631135
O O4 0.883392 0.902435 0.612007
O O5 0.000000 0.200231 0.250000
O O6 0.059255 0.938976 0.221542
O O7 0.066746 0.192609 0.010006
O O8 0.000000 0.000000 0.000000
O O9 0.263844 0.391315 0.346874
O O10 0.228476 0.553869 0.097293
O O11 0.291153 0.269359 0.076958
O O12 0.866793 0.757876 0.165764
#
# Coordination Sequence:
#
# PCOD9276746 Si02
#       6
#     8   8   8   8   4   8
#     4  11  25  42  68  99 131 173 230 283 337 399
#     4   9  18  34  64  96 129 180 219 265 335 402
#     4  11  28  47  72 100 136 177 229 282 345 428
#     4  10  20  40  64  95 132 173 228 275 332 397
#     4  12  28  50  72  98 140 182 222 286 358 420
#     4  11  25  42  68  99 131 174 229 284 337 400
#
# _framework density 24.066482000000001
#
# number of rings (size 3 to 8) (size 9 to 14) (size 15 to 20)
#    0.000    1.455    3.636    0.000    7.636    0.727 
#    0.000    0.000    0.000   21.818    0.000    0.000 
#    0.000    0.000    0.000    0.000    0.000    0.000 
#
# Total GULP energy -122511.213078 kJ/mol
# GULP energy per Si atom -5568.691504 kJ/mol
# Density = 2.401171 g / cm^3
# Si number density = 24.066482 Si / 1000 Ang^3
#
#
#
# Elastic Constant Matrix: (Units=GPa)
#
#
# Indices 1 2 3 4 5 6 
#
# 1 107.9287 26.2560 21.6227 0.0000 13.6142 0.0000
# 2 26.2560 169.5738 31.0459 0.0000 2.4591 0.0000
# 3 21.6227 31.0459 96.2774 0.0000 1.8358 0.0000
# 4 0.0000 0.0000 0.0000 36.9412 0.0000 -4.5737
# 5 13.6142 2.4591 1.8358 0.0000 47.8714 0.0000
# 6 0.0000 0.0000 0.0000 -4.5737 0.0000 8.2641
#
#
#
# Elastic Compliance Matrix: (Units=1/GPa)
#
#
# Indices 1 2 3 4 5 6 
#
# 1 0.010286 -0.001210 -0.001867 0.000000 -0.002791 0.000000
# 2 -0.001210 0.006412 -0.001798 0.000000 0.000084 0.000000
# 3 -0.001867 -0.001798 0.011382 0.000000 0.000187 0.000000
# 4 0.000000 0.000000 0.000000 0.029061 0.000000 0.016084
# 5 -0.002791 0.000084 0.000187 0.000000 0.021672 0.000000
# 6 0.000000 0.000000 0.000000 0.016084 0.000000 0.129906
#
#
# Mechanical properties :
#
#
# Convention : Reuss Voigt Hill
#
# Bulk Modulus (GPa) = 54.55153 59.06993 56.81073
# Shear Modulus (GPa) = 22.26388 38.27236 30.26812
#
# Velocity S-wave (km/s) = 3.04484 3.99215 3.55024
# Velocity P-wave (km/s) = 5.92264 6.77108 6.36102
#
# Compressibility (1/GPa) = 0.01833129
#
# Stress axis : x y z
#
# Youngs Moduli (GPa) = 97.22050 155.94710 87.85857
#
# Poissons Ratio (x) = 0.18876 0.16399
# Poissons Ratio (y) = 0.11768 0.15793
# Poissons Ratio (z) = 0.18147 0.28032
#
# Static dielectric constant tensor:
#      x y z
#    x 1.224710 0.000000 -0.660900 
#    y 0.000000 2.231760 0.000000 
#    z -0.660900 0.000000 1.400260 
# 
# From -- ./inp_files/68745.got.cif
#   From: 2010.05.17/outbox.cif.g08.bks.cpg/sg15_35_cif.got.tgz:68745.got - 2010.06.03 18:47:42.
