data_PCOD9276389
_publ_section_title
;
Structure prediction by ZEFSAII (Michael W. Deem and Ramdas Pophale) SiO2 
 PCOD9276389
Probable space group: C 2/C
;
_chemical_formula_sum "Si O2"
_cell_formula_units_Z 40
_cell_length_a 8.510620
_cell_length_b 27.272041
_cell_length_c 17.299692
_cell_angle_alpha 90.000000
_cell_angle_beta 30.393445
_cell_angle_gamma 90.000000
_cell_volume 2031.477461
_symmetry_space_group_name_H-M "C 2/C"
_symmetry_group_IT_number 15
_symmetry_cell_setting 'monoclinic'
loop_
_space_group_symop_operation_xyz
x,y,z
-x,y,1/2-z
-x,-y,-z
x,-y,1/2+z
1/2+x,1/2+y,z
1/2-x,1/2+y,1/2-z
1/2-x,1/2-y,-z
1/2+x,1/2-y,1/2+z
loop_
_atom_site_type_symbol
_atom_site_label
_atom_site_fract_x
_atom_site_fract_y
_atom_site_fract_z
Si Si1 0.764759 0.858958 0.576648
Si Si2 0.689073 0.251679 0.933239
Si Si3 0.184771 0.950190 0.431824
Si Si4 0.299887 0.951520 0.565732
Si Si5 0.125326 0.653521 0.414635
O O1 0.500000 0.871967 0.750000
O O2 0.926448 0.807348 0.531481
O O3 0.565247 0.849398 0.584383
O O4 0.001507 0.903480 0.475978
O O5 0.000000 0.247566 0.750000
O O6 0.750000 0.250000 0.000000
O O7 0.479348 0.204708 0.002493
O O8 0.500000 0.953804 0.250000
O O9 0.221740 0.947819 0.508558
O O10 0.000000 0.000000 0.500000
O O11 0.459940 0.898806 0.512243
O O12 0.000000 0.953581 0.750000
O O13 0.500000 0.000000 0.500000
O O14 0.500000 0.654846 0.250000
#
# Coordination Sequence:
#
# PCOD9276389 Si02
#       5
#     8   8   8   8   8
#     4  10  20  40  61  87 126 163 201 250 304 363
#     4   9  20  37  59  85 119 160 200 248 301 354
#     4  12  25  41  63  92 123 162 202 250 307 364
#     4  11  23  40  61  88 118 156 199 246 299 358
#     4  10  21  38  61  90 122 161 203 252 305 359
#
# _framework density 19.690104000000002
#
# number of rings (size 3 to 8) (size 9 to 14) (size 15 to 20)
#    0.000    1.600    0.000    5.400    0.000    4.800 
#    0.000   14.000    0.000    0.000    0.000    0.000 
#    0.000    0.000    0.000    0.000    0.000    0.000 
#
# Total GULP energy -111476.524367 kJ/mol
# GULP energy per Si atom -5573.826218 kJ/mol
# Density = 1.964529 g / cm^3
# Si number density = 19.690104 Si / 1000 Ang^3
#
#
#
# Elastic Constant Matrix: (Units=GPa)
#
#
# Indices 1 2 3 4 5 6 
#
# 1 88.7019 39.9922 40.5074 0.0000 4.3082 0.0000
# 2 39.9922 215.6133 81.6344 0.0000 -33.9453 0.0000
# 3 40.5074 81.6344 115.8561 0.0002 8.8325 -0.0001
# 4 0.0000 0.0000 0.0002 40.1931 0.0000 -10.2816
# 5 4.3082 -33.9453 8.8325 0.0000 27.4363 0.0000
# 6 0.0000 0.0000 -0.0001 -10.2816 0.0000 35.7311
#
#
#
# Elastic Compliance Matrix: (Units=1/GPa)
#
#
# Indices 1 2 3 4 5 6 
#
# 1 0.013759 -0.001868 -0.003233 0.000000 -0.003432 0.000000
# 2 -0.001868 0.010478 -0.007936 0.000000 0.015812 0.000000
# 3 -0.003233 -0.007936 0.016467 0.000000 -0.014612 0.000000
# 4 0.000000 0.000000 0.000000 0.026857 0.000000 0.007728
# 5 -0.003432 0.015812 -0.014612 0.000000 0.061254 0.000000
# 6 0.000000 0.000000 0.000000 0.007728 0.000000 0.030211
#
#
# Mechanical properties :
#
#
# Convention : Reuss Voigt Hill
#
# Bulk Modulus (GPa) = 68.34525 82.71549 75.53037
# Shear Modulus (GPa) = 26.31908 37.87458 32.09683
#
# Velocity S-wave (km/s) = 3.66001 4.39057 4.04183
# Velocity P-wave (km/s) = 7.25581 8.23424 7.76046
#
# Compressibility (1/GPa) = 0.01463160
#
# Stress axis : x y z
#
# Youngs Moduli (GPa) = 72.67993 95.43411 60.72726
#
# Poissons Ratio (x) = 0.17831 0.19630
# Poissons Ratio (y) = 0.13580 0.48190
# Poissons Ratio (z) = 0.23494 0.75732
#
# Static dielectric constant tensor:
#      x y z
#    x 1.697610 0.000000 -0.033250 
#    y 0.000000 1.759240 0.000000 
#    z -0.033250 0.000000 1.672340 
# 
# From -- ./inp_files/193413.got.cif
#   From: 2010.05.17/outbox.cif.g08.bks.cpg/sg15_97_cif.got.tgz:193413.got - 2010.06.03 18:47:42.
