data_PCOD9276727
_publ_section_title
;
Structure prediction by ZEFSAII (Michael W. Deem and Ramdas Pophale) SiO2 
 PCOD9276727
Probable space group: C 2/C
;
_chemical_formula_sum "Si O2"
_cell_formula_units_Z 56
_cell_length_a 9.016498
_cell_length_b 23.197856
_cell_length_c 17.649278
_cell_angle_alpha 90.000000
_cell_angle_beta 137.571322
_cell_angle_gamma 90.000000
_cell_volume 2490.607647
_symmetry_space_group_name_H-M "C 2/C"
_symmetry_group_IT_number 15
_symmetry_cell_setting 'monoclinic'
loop_
_space_group_symop_operation_xyz
x,y,z
-x,y,1/2-z
-x,-y,-z
x,-y,1/2+z
1/2+x,1/2+y,z
1/2-x,1/2+y,1/2-z
1/2-x,1/2-y,-z
1/2+x,1/2-y,1/2+z
loop_
_atom_site_type_symbol
_atom_site_label
_atom_site_fract_x
_atom_site_fract_y
_atom_site_fract_z
Si Si1 0.262711 0.114897 0.664531
Si Si2 0.086007 0.582748 0.083068
Si Si3 0.813090 0.485240 0.737023
Si Si4 0.082178 0.100250 0.430395
Si Si5 0.421369 0.743296 0.638341
Si Si6 0.684113 0.691171 0.256361
Si Si7 0.880233 0.879638 0.133876
O O1 0.500000 0.145435 0.750000
O O2 0.193959 0.105581 0.552743
O O3 0.050599 0.135122 0.631330
O O4 0.300496 0.052837 0.718364
O O5 0.133662 0.529907 0.156428
O O6 0.241109 0.586447 0.068435
O O7 0.151246 0.640049 0.154764
O O8 0.830134 0.585339 0.969093
O O9 0.589500 0.452204 0.633583
O O10 0.000000 0.462492 0.750000
O O11 0.951240 0.159643 0.362103
O O12 0.500000 0.775805 0.750000
O O13 0.250000 0.750000 0.500000
O O14 0.661577 0.753621 0.692584
O O15 0.316234 0.685192 0.634304
O O16 0.500000 0.700765 0.250000
O O17 0.000000 0.908011 0.250000
#
# Coordination Sequence:
#
# PCOD9276727 Si02
#       7
#     8   8   8   8   8   8   8
#     4  11  24  41  59  89 131 170 220 267 332 384
#     4  10  20  40  64  93 128 167 218 265 334 385
#     4  10  21  38  61  92 125 165 216 270 316 393
#     4  10  21  38  65  94 127 169 216 276 318 400
#     4  11  24  42  68 100 136 171 223 275 331 396
#     4   9  20  39  65  95 128 167 217 267 325 393
#     4  11  24  41  63  91 132 173 213 274 331 391
#
# _framework density 22.484473000000001
#
# number of rings (size 3 to 8) (size 9 to 14) (size 15 to 20)
#    0.000    1.714    1.429    3.429    2.000    5.143 
#    0.000    5.000    0.000    0.000    0.000    0.000 
#    0.000    0.000    0.000    0.000    0.000    0.000 
#
# Total GULP energy -155916.219408 kJ/mol
# GULP energy per Si atom -5568.436407 kJ/mol
# Density = 2.243330 g / cm^3
# Si number density = 22.484473 Si / 1000 Ang^3
#
#
#
# Elastic Constant Matrix: (Units=GPa)
#
#
# Indices 1 2 3 4 5 6 
#
# 1 92.8846 6.2716 46.4341 0.0000 0.5036 0.0000
# 2 6.2716 43.2370 10.4673 0.0000 3.8256 0.0000
# 3 46.4341 10.4673 157.9648 -0.0002 -8.7623 -0.0001
# 4 0.0000 0.0000 -0.0002 10.9776 0.0000 2.3677
# 5 0.5036 3.8256 -8.7623 0.0000 43.0056 0.0000
# 6 0.0000 0.0000 -0.0001 2.3677 0.0000 21.5674
#
#
#
# Elastic Compliance Matrix: (Units=1/GPa)
#
#
# Indices 1 2 3 4 5 6 
#
# 1 0.012688 -0.000867 -0.003718 0.000000 -0.000829 0.000000
# 2 -0.000867 0.023820 -0.001457 0.000000 -0.002406 0.000000
# 3 -0.003718 -0.001457 0.007616 0.000000 0.001725 0.000000
# 4 0.000000 0.000000 0.000000 0.093304 0.000000 -0.010243
# 5 -0.000829 -0.002406 0.001725 0.000000 0.023828 0.000000
# 6 0.000000 0.000000 0.000000 -0.010243 0.000000 0.047491
#
#
# Mechanical properties :
#
#
# Convention : Reuss Voigt Hill
#
# Bulk Modulus (GPa) = 31.21186 46.71470 38.96328
# Shear Modulus (GPa) = 21.59740 30.50435 26.05088
#
# Velocity S-wave (km/s) = 3.10263 3.68732 3.40754
# Velocity P-wave (km/s) = 5.17173 6.24099 5.73135
#
# Compressibility (1/GPa) = 0.03203911
#
# Stress axis : x y z
#
# Youngs Moduli (GPa) = 78.81576 41.98212 131.30758
#
# Poissons Ratio (x) = 0.03639 0.48822
# Poissons Ratio (y) = 0.06833 0.19131
# Poissons Ratio (z) = 0.29305 0.06117
#
# Static dielectric constant tensor:
#      x y z
#    x 2.222220 0.000000 -0.160910 
#    y 0.000000 2.030910 0.000000 
#    z -0.160910 0.000000 2.016090 
# 
# From -- ./inp_files/81438.got.cif
#   From: 2010.05.17/outbox.cif.g08.bks.cpg/sg15_41_cif.got.tgz:81438.got - 2010.06.03 18:47:42.
