data_PCOD9276826
_publ_section_title
;
Structure prediction by ZEFSAII (Michael W. Deem and Ramdas Pophale) SiO2 
 PCOD9276826
Probable space group: C 2/C
;
_chemical_formula_sum "Si O2"
_cell_formula_units_Z 44
_cell_length_a 7.241101
_cell_length_b 16.938010
_cell_length_c 25.767232
_cell_angle_alpha 90.000000
_cell_angle_beta 42.152329
_cell_angle_gamma 90.000000
_cell_volume 2120.921440
_symmetry_space_group_name_H-M "C 2/C"
_symmetry_group_IT_number 15
_symmetry_cell_setting 'monoclinic'
loop_
_space_group_symop_operation_xyz
x,y,z
-x,y,1/2-z
-x,-y,-z
x,-y,1/2+z
1/2+x,1/2+y,z
1/2-x,1/2+y,1/2-z
1/2-x,1/2-y,-z
1/2+x,1/2-y,1/2+z
loop_
_atom_site_type_symbol
_atom_site_label
_atom_site_fract_x
_atom_site_fract_y
_atom_site_fract_z
Si Si1 0.000000 0.505342 0.250000
Si Si2 0.297674 0.615971 0.619711
Si Si3 0.887265 0.587960 0.518729
Si Si4 0.525298 0.213048 0.419213
Si Si5 0.303420 0.092602 0.189261
Si Si6 0.727740 0.081510 0.840833
O O1 0.775275 0.444570 0.318948
O O2 0.887265 0.559006 0.227341
O O3 0.610377 0.590637 0.541150
O O4 0.298053 0.709590 0.630429
O O5 0.055855 0.603857 0.628638
O O6 0.789183 0.612972 0.597005
O O7 0.000000 0.500000 0.500000
O O8 0.102098 0.649559 0.448335
O O9 0.495676 0.158361 0.375080
O O10 0.250000 0.250000 0.500000
O O11 0.000000 0.129164 0.250000
O O12 0.279407 0.014260 0.158501
O O13 0.000000 0.103623 0.750000
#
# Coordination Sequence:
#
# PCOD9276826 Si02
#       6
#     4   8   8   8   8   8
#     4  10  22  40  68  94 116 164 226 264 306 386
#     4  10  22  40  63  94 128 165 209 271 322 371
#     4  11  21  39  64  93 131 176 214 259 316 387
#     4  10  23  41  63  93 134 172 205 267 334 380
#     4  10  20  40  65  92 123 168 216 263 313 382
#     4  10  21  40  69  93 121 168 228 263 313 391
#
# _framework density 20.745701
#
# number of rings (size 3 to 8) (size 9 to 14) (size 15 to 20)
#    0.000    1.818    1.818    3.273    1.273    1.455 
#    3.273    3.636    2.000    0.000    0.000    0.000 
#    0.000    0.000    0.000    0.000    0.000    0.000 
#
# Total GULP energy -122521.598124 kJ/mol
# GULP energy per Si atom -5569.163551 kJ/mol
# Density = 2.069848 g / cm^3
# Si number density = 20.745701 Si / 1000 Ang^3
#
#
#
# Elastic Constant Matrix: (Units=GPa)
#
#
# Indices 1 2 3 4 5 6 
#
# 1 89.8592 41.1674 47.1227 -0.0027 2.7228 -0.0009
# 2 41.1674 127.6248 49.1316 0.0019 1.7872 -0.0002
# 3 47.1227 49.1316 84.9189 -0.0053 13.4472 -0.0041
# 4 -0.0027 0.0019 -0.0053 45.6041 0.0059 1.9255
# 5 2.7228 1.7872 13.4472 0.0059 30.6092 0.0036
# 6 -0.0009 -0.0002 -0.0041 1.9255 0.0036 16.5571
#
#
#
# Elastic Compliance Matrix: (Units=1/GPa)
#
#
# Indices 1 2 3 4 5 6 
#
# 1 0.016334 -0.002153 -0.008177 0.000000 0.002265 -0.000002
# 2 -0.002153 0.010494 -0.005170 -0.000001 0.001850 -0.000002
# 3 -0.008177 -0.005170 0.020573 0.000003 -0.008009 0.000006
# 4 0.000000 -0.000001 0.000003 0.022036 -0.000005 -0.002563
# 5 0.002265 0.001850 -0.008009 -0.000005 0.035879 -0.000009
# 6 -0.000002 -0.000002 0.000006 -0.002563 -0.000009 0.060695
#
#
# Mechanical properties :
#
#
# Convention : Reuss Voigt Hill
#
# Bulk Modulus (GPa) = 60.96990 64.13850 62.55420
# Shear Modulus (GPa) = 24.69387 29.55282 27.12335
#
# Velocity S-wave (km/s) = 3.45383 3.77839 3.61975
# Velocity P-wave (km/s) = 6.73485 7.07238 6.90568
#
# Compressibility (1/GPa) = 0.01640154
#
# Stress axis : x y z
#
# Youngs Moduli (GPa) = 61.22071 95.29022 48.60675
#
# Poissons Ratio (x) = 0.20512 0.39748
# Poissons Ratio (y) = 0.13178 0.25130
# Poissons Ratio (z) = 0.50063 0.49267
#
# Static dielectric constant tensor:
#      x y z
#    x 1.769820 0.000000 -0.011150 
#    y 0.000000 1.776640 0.000010 
#    z -0.011150 0.000010 1.911480 
# 
# From -- ./inp_files/288590.got.cif
#   From: 2010.05.17/outbox.cif.g08.bks.cpg/sg15_145_cif.got.tgz:288590.got - 2010.06.03 18:47:42.
