data_PCOD9276801
_publ_section_title
;
Structure prediction by ZEFSAII (Michael W. Deem and Ramdas Pophale) SiO2 
 PCOD9276801
Probable space group: C 2/C
;
_chemical_formula_sum "Si O2"
_cell_formula_units_Z 32
_cell_length_a 10.219652
_cell_length_b 25.793070
_cell_length_c 5.149321
_cell_angle_alpha 90.000000
_cell_angle_beta 106.449659
_cell_angle_gamma 90.000000
_cell_volume 1301.783974
_symmetry_space_group_name_H-M "C 2/C"
_symmetry_group_IT_number 15
_symmetry_cell_setting 'monoclinic'
loop_
_space_group_symop_operation_xyz
x,y,z
-x,y,1/2-z
-x,-y,-z
x,-y,1/2+z
1/2+x,1/2+y,z
1/2-x,1/2+y,1/2-z
1/2-x,1/2-y,-z
1/2+x,1/2-y,1/2+z
loop_
_atom_site_type_symbol
_atom_site_label
_atom_site_fract_x
_atom_site_fract_y
_atom_site_fract_z
Si Si1 0.808883 0.535823 0.373696
Si Si2 0.000000 0.725185 0.250000
Si Si3 0.500000 0.536438 0.250000
Si Si4 0.500000 0.701930 0.250000
Si Si5 0.500000 0.884110 0.250000
Si Si6 0.783493 0.311555 0.984197
O O1 0.822366 0.490807 0.600611
O O2 0.655135 0.558725 0.321879
O O3 0.924956 0.578150 0.503507
O O4 0.874815 0.690729 0.278047
O O5 0.030491 0.762519 0.513327
O O6 0.500000 0.500000 0.500000
O O7 0.368322 0.668238 0.118393
O O8 0.623903 0.843560 0.263784
O O9 0.750000 0.250000 0.000000
#
# Coordination Sequence:
#
# PCOD9276801 Si02
#       6
#     8   4   4   4   4   8
#     4  10  22  43  67  99 133 166 214 275 332 402
#     4  10  20  40  65  89 120 170 223 283 336 382
#     4   8  16  35  65  89 120 160 197 253 326 385
#     4  10  21  39  64  88 124 170 216 278 335 385
#     4  12  25  40  68  96 132 182 222 272 343 394
#     4  10  22  41  63  93 129 173 226 278 328 395
#
# _framework density 24.581651000000001
#
# number of rings (size 3 to 8) (size 9 to 14) (size 15 to 20)
#    0.000    2.000    0.000    4.500    0.000    5.000 
#    0.000    0.000    0.000   18.000    0.000    0.000 
#    0.000    0.000    0.000    0.000    0.000    0.000 
#
# Total GULP energy -89161.901194 kJ/mol
# GULP energy per Si atom -5572.618825 kJ/mol
# Density = 2.452570 g / cm^3
# Si number density = 24.581651 Si / 1000 Ang^3
#
#
#
# Elastic Constant Matrix: (Units=GPa)
#
#
# Indices 1 2 3 4 5 6 
#
# 1 195.5895 31.1002 42.5948 0.0000 52.5110 0.0000
# 2 31.1002 120.2482 24.6333 0.0000 20.0491 0.0000
# 3 42.5948 24.6333 121.6760 0.0000 8.1841 0.0000
# 4 0.0000 0.0000 0.0000 12.9802 0.0000 32.3397
# 5 52.5110 20.0491 8.1841 0.0000 70.5281 0.0000
# 6 0.0000 0.0000 0.0000 32.3397 0.0000 3.2506
#
#
#
# Elastic Compliance Matrix: (Units=1/GPa)
#
#
# Indices 1 2 3 4 5 6 
#
# 1 0.006913 -0.000590 -0.001981 0.000000 -0.004749 0.000000
# 2 -0.000590 0.009106 -0.001504 0.000000 -0.001975 0.000000
# 3 -0.001981 -0.001504 0.009160 0.000000 0.000840 0.000000
# 4 0.000000 0.000000 0.000000 -0.003239 0.000000 0.032222
# 5 -0.004749 -0.001975 0.000840 0.000000 0.018179 0.000000
# 6 0.000000 0.000000 0.000000 0.032222 0.000000 -0.012933
#
#
# Mechanical properties :
#
#
# Convention : Reuss Voigt Hill
#
# Bulk Modulus (GPa) = 58.72523 70.46336 64.59430
# Shear Modulus (GPa) = 121.91047 39.96413 80.93730
#
# Velocity S-wave (km/s) = 7.04995 4.03646 5.74433
# Velocity P-wave (km/s) = 9.49793 7.10290 8.38636
#
# Compressibility (1/GPa) = 0.01702846
#
# Stress axis : x y z
#
# Youngs Moduli (GPa) = 144.65178 109.81605 109.16905
#
# Poissons Ratio (x) = 0.06482 0.21628
# Poissons Ratio (y) = 0.08538 0.16420
# Poissons Ratio (z) = 0.28657 0.16517
#
# Static dielectric constant tensor:
#      x y z
#    x 2.087980 0.000000 0.092470 
#    y 0.000000 2.023990 0.000000 
#    z 0.092470 0.000000 1.957530 
# 
# From -- ./inp_files/4190.got.cif
#   From: 2010.05.17/outbox.cif.g08.bks.cpg/sg15_3_cif.got.tgz:4190.got - 2010.06.03 18:47:42.
