data_PCOD9276543
_publ_section_title
;
Structure prediction by ZEFSAII (Michael W. Deem and Ramdas Pophale) SiO2 
 PCOD9276543
Probable space group: C 2/C
;
_chemical_formula_sum "Si O2"
_cell_formula_units_Z 40
_cell_length_a 10.421968
_cell_length_b 19.358122
_cell_length_c 17.359740
_cell_angle_alpha 90.000000
_cell_angle_beta 154.344412
_cell_angle_gamma 90.000000
_cell_volume 1516.367432
_symmetry_space_group_name_H-M "C 2/C"
_symmetry_group_IT_number 15
_symmetry_cell_setting 'monoclinic'
loop_
_space_group_symop_operation_xyz
x,y,z
-x,y,1/2-z
-x,-y,-z
x,-y,1/2+z
1/2+x,1/2+y,z
1/2-x,1/2+y,1/2-z
1/2-x,1/2-y,-z
1/2+x,1/2-y,1/2+z
loop_
_atom_site_type_symbol
_atom_site_label
_atom_site_fract_x
_atom_site_fract_y
_atom_site_fract_z
Si Si1 0.174079 0.148238 0.167746
Si Si2 0.565731 0.440399 0.098501
Si Si3 0.959427 0.479002 0.568948
Si Si4 0.744708 0.710125 0.836303
Si Si5 0.838402 0.740789 0.736163
O O1 0.332562 0.086904 0.298143
O O2 0.382153 0.213591 0.256439
O O3 0.989519 0.194195 0.129946
O O4 0.032728 0.122662 0.011373
O O5 0.898356 0.457814 0.305942
O O6 0.500000 0.500000 0.000000
O O7 0.349747 0.456833 0.055887
O O8 0.000000 0.500000 0.500000
O O9 0.500000 0.669951 0.750000
O O10 0.797502 0.683770 0.779895
O O11 0.038041 0.724375 0.041652
O O12 0.000000 0.713484 0.750000
#
# Coordination Sequence:
#
# PCOD9276543 Si02
#       5
#     8   8   8   8   8
#     4   9  22  37  63  82 127 158 203 234 307 359
#     4  10  20  40  63  85 119 159 196 243 302 359
#     4  11  22  40  62  90 119 154 201 254 298 355
#     4  10  20  40  63  88 122 161 203 246 304 361
#     4  10  22  39  63  89 124 158 202 256 302 353
#
# _framework density 26.378831999999999
#
# number of rings (size 3 to 8) (size 9 to 14) (size 15 to 20)
#    1.200    0.800    0.000    5.400    0.000    3.200 
#    3.600    4.000    0.000    0.000    0.000    0.000 
#    0.000    0.000    0.000    0.000    0.000    0.000 
#
# Total GULP energy -111358.802093 kJ/mol
# GULP energy per Si atom -5567.940105 kJ/mol
# Density = 2.631879 g / cm^3
# Si number density = 26.378832 Si / 1000 Ang^3
#
#
#
# Elastic Constant Matrix: (Units=GPa)
#
#
# Indices 1 2 3 4 5 6 
#
# 1 195.6321 9.6540 65.7109 -0.0237 -25.1579 -0.0189
# 2 9.6540 111.2942 -0.1953 0.0223 -14.9721 0.0164
# 3 65.7109 -0.1953 122.0648 0.0700 -34.5950 0.0400
# 4 -0.0237 0.0223 0.0700 40.3984 0.0347 -19.5515
# 5 -25.1579 -14.9721 -34.5950 0.0347 51.3004 0.0060
# 6 -0.0189 0.0164 0.0400 -19.5515 0.0060 33.7431
#
#
#
# Elastic Compliance Matrix: (Units=1/GPa)
#
#
# Indices 1 2 3 4 5 6 
#
# 1 0.006301 -0.000440 -0.003157 0.000017 0.000833 0.000017
# 2 -0.000440 0.009478 0.001205 -0.000019 0.003363 -0.000018
# 3 -0.003157 0.001205 0.011812 -0.000052 0.006770 -0.000048
# 4 0.000017 -0.000019 -0.000052 0.034400 -0.000058 0.019932
# 5 0.000833 0.003363 0.006770 -0.000058 0.025448 -0.000047
# 6 0.000017 -0.000018 -0.000048 0.019932 -0.000047 0.041185
#
#
# Mechanical properties :
#
#
# Convention : Reuss Voigt Hill
#
# Bulk Modulus (GPa) = 43.84413 64.37005 54.10709
# Shear Modulus (GPa) = 35.45858 48.67648 42.06753
#
# Velocity S-wave (km/s) = 3.67032 4.30034 3.99776
# Velocity P-wave (km/s) = 5.88376 7.00802 6.47036
#
# Compressibility (1/GPa) = 0.02280807
#
# Stress axis : x y z
#
# Youngs Moduli (GPa) = 158.71256 105.50843 84.65842
#
# Poissons Ratio (x) = 0.04643 0.26723
# Poissons Ratio (y) = 0.06984 -0.10203
# Poissons Ratio (z) = 0.50098 -0.12716
#
# Static dielectric constant tensor:
#      x y z
#    x 2.483750 -0.000050 0.000310 
#    y -0.000050 2.151420 -0.000020 
#    z 0.000310 -0.000020 2.129290 
# 
# From -- ./inp_files/137606.got.cif
#   From: 2010.05.17/outbox.cif.g08.bks.cpg/sg15_69_cif.got.tgz:137606.got - 2010.06.03 18:47:42.
