data_PCOD9276298
_publ_section_title
;
Structure prediction by ZEFSAII (Michael W. Deem and Ramdas Pophale) SiO2 
 PCOD9276298
Probable space group: C 2/C
;
_chemical_formula_sum "Si O2"
_cell_formula_units_Z 44
_cell_length_a 17.538504
_cell_length_b 18.436766
_cell_length_c 8.355341
_cell_angle_alpha 90.000000
_cell_angle_beta 128.598692
_cell_angle_gamma 90.000000
_cell_volume 2111.493469
_symmetry_space_group_name_H-M "C 2/C"
_symmetry_group_IT_number 15
_symmetry_cell_setting 'monoclinic'
loop_
_space_group_symop_operation_xyz
x,y,z
-x,y,1/2-z
-x,-y,-z
x,-y,1/2+z
1/2+x,1/2+y,z
1/2-x,1/2+y,1/2-z
1/2-x,1/2-y,-z
1/2+x,1/2-y,1/2+z
loop_
_atom_site_type_symbol
_atom_site_label
_atom_site_fract_x
_atom_site_fract_y
_atom_site_fract_z
Si Si1 0.000000 0.394791 0.750000
Si Si2 0.586111 0.213939 0.100506
Si Si3 0.720722 0.677695 0.686085
Si Si4 0.206487 0.544600 0.535340
Si Si5 0.257151 0.105035 0.272715
Si Si6 0.381418 0.715485 0.280774
O O1 0.045080 0.340683 0.678329
O O2 0.908698 0.444126 0.578764
O O3 0.666367 0.274500 0.250902
O O4 0.652812 0.161140 0.076216
O O5 0.492355 0.259410 0.923020
O O6 0.737032 0.597376 0.768719
O O7 0.656258 0.690030 0.442751
O O8 0.822106 0.715471 0.771699
O O9 0.227996 0.572988 0.385026
O O10 0.236077 0.461915 0.598297
O O11 0.156717 0.149392 0.158819
#
# Coordination Sequence:
#
# PCOD9276298 Si02
#       6
#     4   8   8   8   8   8
#     4  10  22  36  62  90 128 162 202 262 298 374
#     4  10  21  37  62  94 119 166 204 254 307 363
#     4  10  21  36  62  88 124 162 206 259 302 366
#     4  11  22  42  58  94 125 165 206 249 320 361
#     4  10  24  39  64  89 129 167 200 260 303 372
#     4  10  20  40  59  90 123 163 208 254 304 365
#
# _framework density 20.838332000000001
#
# number of rings (size 3 to 8) (size 9 to 14) (size 15 to 20)
#    0.000    1.818    1.818    1.636    2.545    5.091 
#   13.091    0.909    0.000    0.000    0.000    0.000 
#    0.000    0.000    0.000    0.000    0.000    0.000 
#
# Total GULP energy -122726.793479 kJ/mol
# GULP energy per Si atom -5578.490613 kJ/mol
# Density = 2.079090 g / cm^3
# Si number density = 20.838332 Si / 1000 Ang^3
#
#
#
# Elastic Constant Matrix: (Units=GPa)
#
#
# Indices 1 2 3 4 5 6 
#
# 1 86.6317 39.9382 29.1115 0.0000 9.5883 0.0000
# 2 39.9382 129.9091 34.4570 0.0000 11.8742 0.0000
# 3 29.1115 34.4570 58.9593 0.0000 11.2643 0.0000
# 4 0.0000 0.0000 0.0000 29.8092 0.0000 1.1244
# 5 9.5883 11.8742 11.2643 0.0000 31.2126 0.0000
# 6 0.0000 0.0000 0.0000 1.1244 0.0000 29.3790
#
#
#
# Elastic Compliance Matrix: (Units=1/GPa)
#
#
# Indices 1 2 3 4 5 6 
#
# 1 0.014887 -0.003036 -0.005288 0.000000 -0.001510 0.000000
# 2 -0.003036 0.009810 -0.003973 0.000000 -0.001365 0.000000
# 3 -0.005288 -0.003973 0.022871 0.000000 -0.005118 0.000000
# 4 0.000000 0.000000 0.000000 0.033595 0.000000 -0.001286
# 5 -0.001510 -0.001365 -0.005118 0.000000 0.034869 0.000000
# 6 0.000000 0.000000 0.000000 -0.001286 0.000000 0.034087
#
#
# Mechanical properties :
#
#
# Convention : Reuss Voigt Hill
#
# Bulk Modulus (GPa) = 43.52683 53.61263 48.56973
# Shear Modulus (GPa) = 27.41673 29.54639 28.48156
#
# Velocity S-wave (km/s) = 3.63118 3.76957 3.70102
# Velocity P-wave (km/s) = 6.20595 6.68804 6.45150
#
# Compressibility (1/GPa) = 0.02297433
#
# Stress axis : x y z
#
# Youngs Moduli (GPa) = 67.17380 101.93987 43.72281
#
# Poissons Ratio (x) = 0.30951 0.23119
# Poissons Ratio (y) = 0.20395 0.17371
# Poissons Ratio (z) = 0.35519 0.40501
#
# Static dielectric constant tensor:
#      x y z
#    x 1.791220 0.000000 -0.052230 
#    y 0.000000 1.732010 0.000000 
#    z -0.052230 0.000000 1.787180 
# 
# From -- ./inp_files/30691.got.cif
#   From: 2010.05.17/outbox.cif.g08.bks.cpg/sg15_16_cif.got.tgz:30691.got - 2010.06.03 18:47:42.
