data_PCOD9276372
_publ_section_title
;
Structure prediction by ZEFSAII (Michael W. Deem and Ramdas Pophale) SiO2 
 PCOD9276372
Probable space group: C 2/C
;
_chemical_formula_sum "Si O2"
_cell_formula_units_Z 52
_cell_length_a 19.955387
_cell_length_b 6.503149
_cell_length_c 27.203987
_cell_angle_alpha 90.000000
_cell_angle_beta 48.535848
_cell_angle_gamma 90.000000
_cell_volume 2645.530721
_symmetry_space_group_name_H-M "C 2/C"
_symmetry_group_IT_number 15
_symmetry_cell_setting 'monoclinic'
loop_
_space_group_symop_operation_xyz
x,y,z
-x,y,1/2-z
-x,-y,-z
x,-y,1/2+z
1/2+x,1/2+y,z
1/2-x,1/2+y,1/2-z
1/2-x,1/2-y,-z
1/2+x,1/2-y,1/2+z
loop_
_atom_site_type_symbol
_atom_site_label
_atom_site_fract_x
_atom_site_fract_y
_atom_site_fract_z
Si Si1 0.647957 0.302373 0.605793
Si Si2 0.604656 0.514979 0.947373
Si Si3 0.187303 0.246966 0.324695
Si Si4 0.500000 0.126235 0.750000
Si Si5 0.655488 0.048814 0.742349
Si Si6 0.275980 0.872890 0.623485
Si Si7 0.212790 0.943820 0.988082
O O1 0.560098 0.254513 0.681109
O O2 0.714846 0.435831 0.607518
O O3 0.645553 0.425140 0.555892
O O4 0.703577 0.092075 0.567458
O O5 0.633322 0.419834 0.881555
O O6 0.636862 0.750488 0.936063
O O7 0.500000 0.500000 0.000000
O O8 0.658392 0.397677 0.964607
O O9 0.138273 0.317305 0.299230
O O10 0.201721 0.444749 0.351409
O O11 0.285110 0.144643 0.269370
O O12 0.569908 0.002064 0.750199
O O13 0.716867 0.197936 0.679243
O O14 0.250000 0.750000 0.000000
#
# Coordination Sequence:
#
# PCOD9276372 Si02
#       7
#     8   8   8   4   8   8   8
#     4   9  20  38  62  83 119 158 197 241 312 358
#     4  10  23  37  57  91 121 147 206 249 288 354
#     4  11  20  38  64  82 119 165 196 240 306 370
#     4  10  22  40  58  94 124 146 200 274 300 344
#     4  10  21  37  60  87 117 154 200 241 304 369
#     4   9  19  39  60  83 116 160 190 240 300 362
#     4  10  20  40  61  83 116 165 200 237 297 371
#
# _framework density 19.655791000000001
#
# number of rings (size 3 to 8) (size 9 to 14) (size 15 to 20)
#    0.000    2.154    1.538    1.846    2.154    0.615 
#    2.769    6.923    0.000    0.000    0.000    0.000 
#    0.000    0.000    0.000    0.000    0.000    0.000 
#
# Total GULP energy -144919.021500 kJ/mol
# GULP energy per Si atom -5573.808519 kJ/mol
# Density = 1.961105 g / cm^3
# Si number density = 19.655791 Si / 1000 Ang^3
#
#
#
# Elastic Constant Matrix: (Units=GPa)
#
#
# Indices 1 2 3 4 5 6 
#
# 1 93.2471 15.5212 23.8671 0.0016 7.7757 -0.0013
# 2 15.5212 30.7906 10.4070 0.0152 -2.7356 0.0131
# 3 23.8671 10.4070 100.1436 0.0008 -0.0580 0.0011
# 4 0.0016 0.0152 0.0008 28.0738 0.0005 14.2801
# 5 7.7757 -2.7356 -0.0580 0.0005 35.5159 0.0002
# 6 -0.0013 0.0131 0.0011 14.2801 0.0002 23.3111
#
#
#
# Elastic Compliance Matrix: (Units=1/GPa)
#
#
# Indices 1 2 3 4 5 6 
#
# 1 0.012572 -0.005813 -0.002394 0.000001 -0.003204 0.000004
# 2 -0.005813 0.036587 -0.002414 -0.000013 0.004087 -0.000013
# 3 -0.002394 -0.002414 0.010807 0.000001 0.000356 0.000000
# 4 0.000001 -0.000013 0.000001 0.051744 -0.000002 -0.031698
# 5 -0.003204 0.004087 0.000356 -0.000002 0.029173 -0.000002
# 6 0.000004 -0.000013 0.000000 -0.031698 -0.000002 0.062316
#
#
# Mechanical properties :
#
#
# Convention : Reuss Voigt Hill
#
# Bulk Modulus (GPa) = 25.82414 35.97466 30.89940
# Shear Modulus (GPa) = 21.06605 29.00589 25.03597
#
# Velocity S-wave (km/s) = 3.27731 3.84564 3.57279
# Velocity P-wave (km/s) = 5.24287 6.16933 5.72487
#
# Compressibility (1/GPa) = 0.03872347
#
# Stress axis : x y z
#
# Youngs Moduli (GPa) = 79.54383 27.33226 92.52976
#
# Poissons Ratio (x) = 0.15888 0.22151
# Poissons Ratio (y) = 0.46237 0.22340
# Poissons Ratio (z) = 0.19043 0.06599
#
# Static dielectric constant tensor:
#      x y z
#    x 1.704970 0.000000 0.005040 
#    y 0.000000 1.690600 0.000000 
#    z 0.005040 0.000000 1.747660 
# 
# From -- ./inp_files/316975.got.cif
#   From: 2010.05.17/outbox.cif.g08.bks.cpg/sg15_159_cif.got.tgz:316975.got - 2010.06.03 18:47:42.
