data_PCOD9276748
_publ_section_title
;
Structure prediction by ZEFSAII (Michael W. Deem and Ramdas Pophale) SiO2 
 PCOD9276748
Probable space group: C 2/C
;
_chemical_formula_sum "Si O2"
_cell_formula_units_Z 64
_cell_length_a 26.550395
_cell_length_b 7.728989
_cell_length_c 14.101928
_cell_angle_alpha 90.000000
_cell_angle_beta 59.075689
_cell_angle_gamma 90.000000
_cell_volume 2482.458345
_symmetry_space_group_name_H-M "C 2/C"
_symmetry_group_IT_number 15
_symmetry_cell_setting 'monoclinic'
loop_
_space_group_symop_operation_xyz
x,y,z
-x,y,1/2-z
-x,-y,-z
x,-y,1/2+z
1/2+x,1/2+y,z
1/2-x,1/2+y,1/2-z
1/2-x,1/2-y,-z
1/2+x,1/2-y,1/2+z
loop_
_atom_site_type_symbol
_atom_site_label
_atom_site_fract_x
_atom_site_fract_y
_atom_site_fract_z
Si Si1 0.170666 0.685148 0.847248
Si Si2 0.542760 0.370061 0.791230
Si Si3 0.236693 0.953483 0.495390
Si Si4 0.925561 0.836566 0.096363
Si Si5 0.430937 0.003549 0.678713
Si Si6 0.699791 0.441783 0.237544
Si Si7 0.857250 0.561722 0.426170
Si Si8 0.625145 0.669657 0.044261
O O1 0.123182 0.581967 0.830295
O O2 0.236393 0.605838 0.782465
O O3 0.178313 0.872634 0.794914
O O4 0.149065 0.686775 0.978090
O O5 0.500000 0.431350 0.750000
O O6 0.550116 0.503271 0.868526
O O7 0.530790 0.172548 0.834267
O O8 0.603422 0.358663 0.672157
O O9 0.250000 0.750000 0.500000
O O10 0.212408 0.040593 0.613772
O O11 0.184234 0.939237 0.471872
O O12 0.297840 0.049285 0.420730
O O13 0.956237 0.658312 0.096641
O O14 0.855648 0.817558 0.189404
O O15 0.922948 0.872805 0.987537
O O16 0.409370 0.925209 0.800750
O O17 0.862222 0.374026 0.472453
#
# Coordination Sequence:
#
# PCOD9276748 Si02
#       8
#     8   8   8   8   8   8   8   8
#     4  11  20  37  57  94 134 178 217 259 317 382
#     4  11  26  50  72  93 127 171 218 278 343 388
#     4   9  17  34  55  87 133 183 213 253 316 373
#     4  12  24  41  70 100 129 170 222 271 327 393
#     4  11  23  44  65  95 135 167 221 274 321 390
#     4  11  22  35  57  94 136 178 219 260 312 388
#     4   9  20  35  61  92 134 184 214 254 323 385
#     4  10  20  40  64  95 135 167 212 280 322 378
#
# _framework density 25.780895000000001
#
# number of rings (size 3 to 8) (size 9 to 14) (size 15 to 20)
#    0.000    1.500    3.750    2.250    5.250    2.000 
#    0.000    2.500    0.000    0.000    0.000    0.000 
#    0.000    0.000    0.000    0.000    0.000    0.000 
#
# Total GULP energy -179225.713684 kJ/mol
# GULP energy per Si atom -5600.803553 kJ/mol
# Density = 2.572222 g / cm^3
# Si number density = 25.780895 Si / 1000 Ang^3
#
#
#
# Elastic Constant Matrix: (Units=GPa)
#
#
# Indices 1 2 3 4 5 6 
#
# 1 69.2286 13.1984 15.4295 0.0000 22.3798 0.0000
# 2 13.1984 114.0175 30.5093 0.0000 25.5580 -0.0002
# 3 15.4295 30.5093 122.9251 0.0000 16.0788 0.0000
# 4 0.0000 0.0000 0.0000 29.3312 0.0000 12.3705
# 5 22.3798 25.5580 16.0788 0.0000 37.5830 0.0000
# 6 0.0000 -0.0002 0.0000 12.3705 0.0000 28.3962
#
#
#
# Elastic Compliance Matrix: (Units=1/GPa)
#
#
# Indices 1 2 3 4 5 6 
#
# 1 0.018015 0.000581 -0.001007 0.000000 -0.010692 0.000000
# 2 0.000581 0.010733 -0.001840 0.000000 -0.006857 0.000000
# 3 -0.001007 -0.001840 0.008978 0.000000 -0.001990 0.000000
# 4 0.000000 0.000000 0.000000 0.041767 0.000000 -0.018196
# 5 -0.010692 -0.006857 -0.001990 0.000000 0.038489 0.000000
# 6 0.000000 0.000000 0.000000 -0.018196 0.000000 0.043143
#
#
# Mechanical properties :
#
#
# Convention : Reuss Voigt Hill
#
# Bulk Modulus (GPa) = 30.12570 47.16062 38.64316
# Shear Modulus (GPa) = 28.29301 35.53101 31.91201
#
# Velocity S-wave (km/s) = 3.31636 3.71643 3.52208
# Velocity P-wave (km/s) = 5.13566 6.06204 5.61798
#
# Compressibility (1/GPa) = 0.03319425
#
# Stress axis : x y z
#
# Youngs Moduli (GPa) = 55.50961 93.17223 111.37860
#
# Poissons Ratio (x) = -0.05410 0.11214
# Poissons Ratio (y) = -0.03223 0.20491
# Poissons Ratio (z) = 0.05589 0.17141
#
# Static dielectric constant tensor:
#      x y z
#    x 2.078980 0.000000 -0.039320 
#    y 0.000000 1.960170 0.000000 
#    z -0.039320 0.000000 2.019850 
# 
# From -- ./inp_files/176595.got.cif
#   From: 2010.05.17/outbox.cif.g08.bks.cpg/sg15_89_cif.got.tgz:176595.got - 2010.06.03 18:47:42.
