data_PCOD9276887
_publ_section_title
;
Structure prediction by ZEFSAII (Michael W. Deem and Ramdas Pophale) SiO2 
 PCOD9276887
Probable space group: C 2/C
;
_chemical_formula_sum "Si O2"
_cell_formula_units_Z 48
_cell_length_a 22.673480
_cell_length_b 21.138729
_cell_length_c 16.332753
_cell_angle_alpha 90.000000
_cell_angle_beta 161.789264
_cell_angle_gamma 90.000000
_cell_volume 2446.382834
_symmetry_space_group_name_H-M "C 2/C"
_symmetry_group_IT_number 15
_symmetry_cell_setting 'monoclinic'
loop_
_space_group_symop_operation_xyz
x,y,z
-x,y,1/2-z
-x,-y,-z
x,-y,1/2+z
1/2+x,1/2+y,z
1/2-x,1/2+y,1/2-z
1/2-x,1/2-y,-z
1/2+x,1/2-y,1/2+z
loop_
_atom_site_type_symbol
_atom_site_label
_atom_site_fract_x
_atom_site_fract_y
_atom_site_fract_z
Si Si1 0.673308 0.979044 0.919570
Si Si2 0.495823 0.564306 0.544328
Si Si3 0.206747 0.899683 0.565988
Si Si4 0.704482 0.616093 0.478903
Si Si5 0.167044 0.817104 0.761400
Si Si6 0.961002 0.315289 0.003739
O O1 0.500000 0.994315 0.750000
O O2 0.659324 0.940258 0.816833
O O3 0.805248 0.934034 0.148200
O O4 0.769173 0.045397 0.021371
O O5 0.500000 0.500000 0.500000
O O6 0.342198 0.563145 0.414642
O O7 0.454132 0.624194 0.433284
O O8 0.316799 0.838089 0.743069
O O9 0.000000 0.889254 0.250000
O O10 0.500000 0.621961 0.250000
O O11 0.719980 0.664591 0.423515
O O12 0.870984 0.634131 0.761147
O O13 0.052881 0.752208 0.607601
O O14 0.344682 0.812316 0.935130
#
# Coordination Sequence:
#
# PCOD9276887 Si02
#       6
#     8   8   8   8   8   8
#     4  11  23  39  62  95 127 163 211 266 319 371
#     4  10  20  40  66  87 122 166 210 258 315 369
#     4   9  22  44  64  92 126 166 212 264 317 373
#     4  12  24  39  63  92 131 169 210 259 315 382
#     4  11  23  41  63  92 129 168 210 258 313 379
#     4  11  24  42  64  93 126 171 209 257 319 381
#
# _framework density 19.620805000000001
#
# number of rings (size 3 to 8) (size 9 to 14) (size 15 to 20)
#    0.000    1.333    1.667    4.500    2.333    3.333 
#    0.000    8.333    0.000    0.000    0.000    0.000 
#    0.000    0.000    0.000    0.000    0.000    0.000 
#
# Total GULP energy -133984.559281 kJ/mol
# GULP energy per Si atom -5582.689970 kJ/mol
# Density = 1.957615 g / cm^3
# Si number density = 19.620805 Si / 1000 Ang^3
#
#
#
# Elastic Constant Matrix: (Units=GPa)
#
#
# Indices 1 2 3 4 5 6 
#
# 1 87.7589 28.7684 34.4027 0.0000 6.4329 0.0000
# 2 28.7684 76.1688 45.1889 0.0000 2.9140 0.0000
# 3 34.4027 45.1889 70.3262 0.0000 5.0642 0.0000
# 4 0.0000 0.0000 0.0000 22.5516 0.0000 2.6594
# 5 6.4329 2.9140 5.0642 0.0000 33.7430 0.0000
# 6 0.0000 0.0000 0.0000 2.6594 0.0000 24.6519
#
#
#
# Elastic Compliance Matrix: (Units=1/GPa)
#
#
# Indices 1 2 3 4 5 6 
#
# 1 0.014387 -0.002046 -0.005599 0.000000 -0.001726 0.000000
# 2 -0.002046 0.021509 -0.012853 0.000000 0.000462 0.000000
# 3 -0.005599 -0.012853 0.025334 0.000000 -0.001625 0.000000
# 4 0.000000 0.000000 0.000000 0.044914 0.000000 -0.004845
# 5 -0.001726 0.000462 -0.001625 0.000000 0.030169 0.000000
# 6 0.000000 0.000000 0.000000 -0.004845 0.000000 0.041088
#
#
# Mechanical properties :
#
#
# Convention : Reuss Voigt Hill
#
# Bulk Modulus (GPa) = 49.42182 50.10820 49.76501
# Shear Modulus (GPa) = 22.20812 24.58223 23.39517
#
# Velocity S-wave (km/s) = 3.36797 3.54342 3.45681
# Velocity P-wave (km/s) = 6.35354 6.50653 6.43049
#
# Compressibility (1/GPa) = 0.02023398
#
# Stress axis : x y z
#
# Youngs Moduli (GPa) = 69.50743 46.49110 39.47192
#
# Poissons Ratio (x) = 0.09513 0.22100
# Poissons Ratio (y) = 0.14222 0.50735
# Poissons Ratio (z) = 0.38916 0.59757
#
# Static dielectric constant tensor:
#      x y z
#    x 1.407710 0.000000 0.463570 
#    y 0.000000 1.650750 0.000000 
#    z 0.463570 0.000000 0.979820 
# 
# From -- ./inp_files/169720.got.cif
#   From: 2010.05.17/outbox.cif.g08.bks.cpg/sg15_85_cif.got.tgz:169720.got - 2010.06.03 18:47:42.
