data_PCOD9276403
_publ_section_title
;
Structure prediction by ZEFSAII (Michael W. Deem and Ramdas Pophale) SiO2 
 PCOD9276403
Probable space group: C 2/C
;
_chemical_formula_sum "Si O2"
_cell_formula_units_Z 44
_cell_length_a 11.705278
_cell_length_b 20.455346
_cell_length_c 12.630419
_cell_angle_alpha 90.000000
_cell_angle_beta 34.602013
_cell_angle_gamma 90.000000
_cell_volume 1717.343949
_symmetry_space_group_name_H-M "C 2/C"
_symmetry_group_IT_number 15
_symmetry_cell_setting 'monoclinic'
loop_
_space_group_symop_operation_xyz
x,y,z
-x,y,1/2-z
-x,-y,-z
x,-y,1/2+z
1/2+x,1/2+y,z
1/2-x,1/2+y,1/2-z
1/2-x,1/2-y,-z
1/2+x,1/2-y,1/2+z
loop_
_atom_site_type_symbol
_atom_site_label
_atom_site_fract_x
_atom_site_fract_y
_atom_site_fract_z
Si Si1 0.485767 0.057462 0.881744
Si Si2 0.441458 0.411583 0.099457
Si Si3 0.902508 0.696730 0.933807
Si Si4 0.284155 0.800978 0.120517
Si Si5 0.500000 0.809002 0.750000
Si Si6 0.116997 0.042960 0.261249
O O1 0.500000 0.035347 0.750000
O O2 0.713951 0.074423 0.732817
O O3 0.353658 0.124030 0.011383
O O4 0.334737 0.013514 0.063616
O O5 0.398191 0.346047 0.197053
O O6 0.504038 0.475693 0.115868
O O7 0.586928 0.411223 0.887008
O O8 0.000000 0.674502 0.750000
O O9 0.061267 0.719246 0.902016
O O10 0.750000 0.750000 0.000000
O O11 0.177982 0.736006 0.160512
O O12 0.400453 0.837309 0.934392
O O13 0.000000 0.069649 0.250000
#
# Coordination Sequence:
#
# PCOD9276403 Si02
#       6
#     8   8   8   8   4   8
#     4  10  20  40  61  89 134 170 208 274 337 398
#     4  10  23  42  64  96 128 171 228 273 334 409
#     4  10  21  38  61  94 129 166 218 268 335 401
#     4  10  22  44  66  96 133 177 229 280 341 415
#     4  10  22  44  68  90 136 180 222 282 338 406
#     4  11  22  40  66  94 129 175 217 277 342 397
#
# _framework density 25.62096
#
# number of rings (size 3 to 8) (size 9 to 14) (size 15 to 20)
#    0.000    1.818    1.818    1.636    1.273    0.727 
#   18.000    0.000    0.000    0.000    0.000    0.000 
#    0.000    0.000    0.000    0.000    0.000    0.000 
#
# Total GULP energy -122477.972533 kJ/mol
# GULP energy per Si atom -5567.180570 kJ/mol
# Density = 2.556265 g / cm^3
# Si number density = 25.620960 Si / 1000 Ang^3
#
#
#
# Elastic Constant Matrix: (Units=GPa)
#
#
# Indices 1 2 3 4 5 6 
#
# 1 115.8228 -8.6335 13.9043 0.0020 -6.1608 -0.0023
# 2 -8.6335 10.0013 -5.2235 -0.0005 3.9503 0.0020
# 3 13.9043 -5.2235 186.3221 0.0021 24.2049 -0.0064
# 4 0.0020 -0.0005 0.0021 15.6455 -0.0020 -13.0255
# 5 -6.1608 3.9503 24.2049 -0.0020 44.9521 0.0050
# 6 -0.0023 0.0020 -0.0064 -13.0255 0.0050 4.8029
#
#
#
# Elastic Compliance Matrix: (Units=1/GPa)
#
#
# Indices 1 2 3 4 5 6 
#
# 1 0.009305 0.007332 -0.000614 0.000001 0.000961 0.000002
# 2 0.007332 0.112817 0.004057 0.000018 -0.011094 0.000021
# 3 -0.000614 0.004057 0.006004 -0.000006 -0.003673 -0.000005
# 4 0.000001 0.000018 -0.000006 -0.050815 0.000015 -0.137809
# 5 0.000961 -0.011094 -0.003673 0.000015 0.025331 0.000014
# 6 0.000002 0.000021 -0.000005 -0.137809 0.000014 -0.165528
#
#
# Mechanical properties :
#
#
# Convention : Reuss Voigt Hill
#
# Bulk Modulus (GPa) = 6.68108 34.69344 20.68726
# Shear Modulus (GPa) = -144.73671 33.88671 -55.42500
#
# Velocity S-wave (km/s) = -7.52424 3.64072 -4.65614
# Velocity P-wave (km/s) = 8.53652 5.58960 4.56227
#
# Compressibility (1/GPa) = 0.14967639
#
# Stress axis : x y z
#
# Youngs Moduli (GPa) = 107.46621 8.86394 166.56149
#
# Poissons Ratio (x) = -0.06499 0.10223
# Poissons Ratio (y) = -0.78798 -0.67570
# Poissons Ratio (z) = 0.06596 -0.03596
#
# Static dielectric constant tensor:
#      x y z
#    x 2.083910 -0.000810 0.084590 
#    y -0.000810 7.899440 0.002390 
#    z 0.084590 0.002390 3.000090 
# 
# From -- ./inp_files/91115.got.cif
#   From: 2010.05.17/outbox.cif.g08.bks.cpg/sg15_46_cif.got.tgz:91115.got - 2010.06.03 18:47:42.
