data_PCOD9276039
_publ_section_title
;
Structure prediction by ZEFSAII (Michael W. Deem and Ramdas Pophale) SiO2 
 PCOD9276039
Probable space group: C 2/C
;
_chemical_formula_sum "Si O2"
_cell_formula_units_Z 56
_cell_length_a 26.163080
_cell_length_b 8.021606
_cell_length_c 17.400540
_cell_angle_alpha 90.000000
_cell_angle_beta 134.997042
_cell_angle_gamma 90.000000
_cell_volume 2582.381159
_symmetry_space_group_name_H-M "C 2/C"
_symmetry_group_IT_number 15
_symmetry_cell_setting 'monoclinic'
loop_
_space_group_symop_operation_xyz
x,y,z
-x,y,1/2-z
-x,-y,-z
x,-y,1/2+z
1/2+x,1/2+y,z
1/2-x,1/2+y,1/2-z
1/2-x,1/2-y,-z
1/2+x,1/2-y,1/2+z
loop_
_atom_site_type_symbol
_atom_site_label
_atom_site_fract_x
_atom_site_fract_y
_atom_site_fract_z
Si Si1 0.626704 0.191122 0.678153
Si Si2 0.312370 0.113927 0.072282
Si Si3 0.945469 0.631385 0.319075
Si Si4 0.055639 0.986170 0.688760
Si Si5 0.243185 0.819010 0.079178
Si Si6 0.385746 0.147755 0.013382
Si Si7 0.397247 0.519757 0.088149
O O1 0.576891 0.346755 0.650234
O O2 0.703322 0.243352 0.798417
O O3 0.634740 0.163207 0.596693
O O4 0.587642 0.021166 0.667332
O O5 0.393745 0.142826 0.189792
O O6 0.278648 0.998947 0.101345
O O7 0.250000 0.250000 0.000000
O O8 0.329582 0.042649 0.005477
O O9 0.029891 0.596331 0.392148
O O10 0.942193 0.825529 0.343018
O O11 0.102957 0.971985 0.818478
O O12 0.976151 0.951655 0.637714
O O13 0.250000 0.750000 0.000000
O O14 0.159770 0.850963 0.006799
O O15 0.378666 0.332942 0.041922
#
# Coordination Sequence:
#
# PCOD9276039 Si02
#       7
#     8   8   8   8   8   8   8
#     4  11  25  41  66 100 136 161 218 277 324 380
#     4  11  21  39  68  89 122 174 218 255 316 389
#     4  10  22  41  70  91 132 172 215 261 326 388
#     4  10  20  41  69  95 126 174 214 266 317 390
#     4  11  22  41  61  92 130 171 214 268 317 387
#     4  11  22  43  66  98 129 168 216 273 322 382
#     4  10  20  39  67  92 127 171 223 253 321 395
#
# _framework density 21.685413
#
# number of rings (size 3 to 8) (size 9 to 14) (size 15 to 20)
#    0.000    1.429    4.286    0.857    0.000    3.429 
#    5.143    2.857    0.000    0.000    0.000    0.000 
#    0.000    0.000    0.000    0.000    0.000    0.000 
#
# Total GULP energy -155983.262546 kJ/mol
# GULP energy per Si atom -5570.830805 kJ/mol
# Density = 2.163606 g / cm^3
# Si number density = 21.685413 Si / 1000 Ang^3
#
#
#
# Elastic Constant Matrix: (Units=GPa)
#
#
# Indices 1 2 3 4 5 6 
#
# 1 70.1928 13.7800 35.4327 0.0000 -11.8424 0.0000
# 2 13.7800 52.9078 -8.1176 0.0000 -1.6492 0.0000
# 3 35.4327 -8.1176 79.1706 0.0000 9.0783 0.0000
# 4 0.0000 0.0000 0.0000 16.1032 0.0000 0.0474
# 5 -11.8424 -1.6492 9.0783 0.0000 31.9856 0.0000
# 6 0.0000 0.0000 0.0000 0.0474 0.0000 20.0993
#
#
#
# Elastic Compliance Matrix: (Units=1/GPa)
#
#
# Indices 1 2 3 4 5 6 
#
# 1 0.024643 -0.008068 -0.013287 0.000000 0.012479 0.000000
# 2 -0.008068 0.021850 0.006269 0.000000 -0.003640 0.000000
# 3 -0.013287 0.006269 0.020412 0.000000 -0.010390 0.000000
# 4 0.000000 0.000000 0.000000 0.062100 0.000000 -0.000146
# 5 0.012479 -0.003640 -0.010390 0.000000 0.038645 0.000000
# 6 0.000000 0.000000 0.000000 -0.000146 0.000000 0.049753
#
#
# Mechanical properties :
#
#
# Convention : Reuss Voigt Hill
#
# Bulk Modulus (GPa) = 27.22419 31.60681 29.41550
# Shear Modulus (GPa) = 19.24404 24.38269 21.81337
#
# Velocity S-wave (km/s) = 2.98219 3.35682 3.17503
# Velocity P-wave (km/s) = 4.94362 5.44345 5.19954
#
# Compressibility (1/GPa) = 0.03673204
#
# Stress axis : x y z
#
# Youngs Moduli (GPa) = 40.57963 45.76562 48.99166
#
# Poissons Ratio (x) = 0.36924 0.65096
# Poissons Ratio (y) = 0.32740 -0.30711
# Poissons Ratio (z) = 0.53918 -0.28688
#
# Static dielectric constant tensor:
#      x y z
#    x 1.864110 0.000000 0.060720 
#    y 0.000000 1.787240 0.000000 
#    z 0.060720 0.000000 1.886660 
# 
# From -- ./inp_files/224451.got.cif
#   From: 2010.05.17/outbox.cif.g08.bks.cpg/sg15_113_cif.got.tgz:224451.got - 2010.06.03 18:47:42.
