data_PCOD9276200
_publ_section_title
;
Structure prediction by ZEFSAII (Michael W. Deem and Ramdas Pophale) SiO2 
 PCOD9276200
Probable space group: C 2/C
;
_chemical_formula_sum "Si O2"
_cell_formula_units_Z 48
_cell_length_a 19.739955
_cell_length_b 9.412528
_cell_length_c 21.398344
_cell_angle_alpha 90.000000
_cell_angle_beta 36.483748
_cell_angle_gamma 90.000000
_cell_volume 2364.033755
_symmetry_space_group_name_H-M "C 2/C"
_symmetry_group_IT_number 15
_symmetry_cell_setting 'monoclinic'
loop_
_space_group_symop_operation_xyz
x,y,z
-x,y,1/2-z
-x,-y,-z
x,-y,1/2+z
1/2+x,1/2+y,z
1/2-x,1/2+y,1/2-z
1/2-x,1/2-y,-z
1/2+x,1/2-y,1/2+z
loop_
_atom_site_type_symbol
_atom_site_label
_atom_site_fract_x
_atom_site_fract_y
_atom_site_fract_z
Si Si1 0.733327 0.578964 0.450006
Si Si2 0.412547 0.649198 0.514780
Si Si3 0.427388 0.751061 0.739307
Si Si4 0.868184 0.536259 0.082281
Si Si5 0.869510 0.010632 0.681823
Si Si6 0.626682 0.871811 0.540766
O O1 0.667533 0.451433 0.467381
O O2 0.814586 0.666197 0.343649
O O3 0.649727 0.704360 0.534070
O O4 0.807982 0.540530 0.454938
O O5 0.375185 0.811502 0.543360
O O6 0.394809 0.599004 0.599772
O O7 0.541527 0.620082 0.394313
O O8 0.500000 0.725439 0.750000
O O9 0.404659 0.611702 0.714280
O O10 0.492870 0.871111 0.650252
O O11 0.763272 0.532305 0.209552
O O12 0.837025 0.420593 0.053373
O O13 0.000000 0.500000 0.000000
#
# Coordination Sequence:
#
# PCOD9276200 Si02
#       6
#     8   8   8   8   8   8
#     4  10  21  40  68  95 129 166 220 267 323 397
#     4  11  27  42  65  98 132 177 218 275 335 398
#     4  10  20  39  70  99 128 171 219 269 325 397
#     4  12  28  42  66  97 135 175 220 280 336 391
#     4  11  25  43  65  93 134 174 221 271 331 398
#     4  10  21  40  66  99 125 168 218 269 324 397
#
# _framework density 20.304279000000001
#
# number of rings (size 3 to 8) (size 9 to 14) (size 15 to 20)
#    0.000    1.333    3.333    1.000    9.333    0.667 
#    0.000    0.000    0.000    0.000    0.000    0.000 
#    0.000    0.000    0.000    0.000    0.000    0.000 
#
# Total GULP energy -133747.432815 kJ/mol
# GULP energy per Si atom -5572.809701 kJ/mol
# Density = 2.025807 g / cm^3
# Si number density = 20.304279 Si / 1000 Ang^3
#
#
#
# Elastic Constant Matrix: (Units=GPa)
#
#
# Indices 1 2 3 4 5 6 
#
# 1 63.1757 32.1068 41.6718 0.0000 -11.7818 0.0000
# 2 32.1068 61.4871 21.2396 0.0000 -12.3831 -0.0001
# 3 41.6718 21.2396 166.6293 0.0000 -20.4278 0.0000
# 4 0.0000 0.0000 0.0000 22.9748 0.0000 3.6850
# 5 -11.7818 -12.3831 -20.4278 0.0000 27.9518 0.0000
# 6 0.0000 -0.0001 0.0000 3.6850 0.0000 27.9367
#
#
#
# Elastic Compliance Matrix: (Units=1/GPa)
#
#
# Indices 1 2 3 4 5 6 
#
# 1 0.024793 -0.010919 -0.004526 0.000000 0.002306 0.000000
# 2 -0.010919 0.022983 0.000533 0.000000 0.005969 0.000000
# 3 -0.004526 0.000533 0.007536 0.000000 0.003835 0.000000
# 4 0.000000 0.000000 0.000000 0.044467 0.000000 -0.005865
# 5 0.002306 0.005969 0.003835 0.000000 0.042195 0.000000
# 6 0.000000 0.000000 0.000000 -0.005865 0.000000 0.036569
#
#
# Mechanical properties :
#
#
# Convention : Reuss Voigt Hill
#
# Bulk Modulus (GPa) = 39.23385 53.48094 46.35740
# Shear Modulus (GPa) = 23.05612 28.85758 25.95685
#
# Velocity S-wave (km/s) = 3.37342 3.77405 3.57934
# Velocity P-wave (km/s) = 5.87692 6.73707 6.32164
#
# Compressibility (1/GPa) = 0.02548819
#
# Stress axis : x y z
#
# Youngs Moduli (GPa) = 40.33354 43.51044 132.70440
#
# Poissons Ratio (x) = 0.47507 0.60063
# Poissons Ratio (y) = 0.44038 -0.07070
# Poissons Ratio (z) = 0.18255 -0.02318
#
# Static dielectric constant tensor:
#      x y z
#    x 1.772910 0.000000 -0.048430 
#    y 0.000000 1.706170 0.000000 
#    z -0.048430 0.000000 1.882480 
# 
# From -- ./inp_files/251774.got.cif
#   From: 2010.05.17/outbox.cif.g08.bks.cpg/sg15_126_cif.got.tgz:251774.got - 2010.06.03 18:47:42.
