data_PCOD9276088
_publ_section_title
;
Structure prediction by ZEFSAII (Michael W. Deem and Ramdas Pophale) SiO2 
 PCOD9276088
Probable space group: C 2/C
;
_chemical_formula_sum "Si O2"
_cell_formula_units_Z 48
_cell_length_a 19.508999
_cell_length_b 8.814400
_cell_length_c 12.223970
_cell_angle_alpha 90.000000
_cell_angle_beta 83.854343
_cell_angle_gamma 90.000000
_cell_volume 2089.954856
_symmetry_space_group_name_H-M "C 2/C"
_symmetry_group_IT_number 15
_symmetry_cell_setting 'monoclinic'
loop_
_space_group_symop_operation_xyz
x,y,z
-x,y,1/2-z
-x,-y,-z
x,-y,1/2+z
1/2+x,1/2+y,z
1/2-x,1/2+y,1/2-z
1/2-x,1/2-y,-z
1/2+x,1/2-y,1/2+z
loop_
_atom_site_type_symbol
_atom_site_label
_atom_site_fract_x
_atom_site_fract_y
_atom_site_fract_z
Si Si1 0.574202 0.460178 0.433582
Si Si2 0.915716 0.570868 0.391501
Si Si3 0.710106 0.012161 0.742672
Si Si4 0.000000 0.824371 0.250000
Si Si5 0.382603 0.771738 0.112709
Si Si6 0.699768 0.725343 0.906006
Si Si7 0.000000 0.671136 0.750000
O O1 0.500000 0.500000 0.500000
O O2 0.552567 0.419023 0.313881
O O3 0.620204 0.610079 0.444752
O O4 0.621939 0.316020 0.458979
O O5 0.844212 0.538770 0.341389
O O6 0.904428 0.602752 0.520196
O O7 0.963895 0.432773 0.347698
O O8 0.954643 0.716550 0.335350
O O9 0.709143 0.873339 0.828126
O O10 0.681612 0.158278 0.813856
O O11 0.776486 0.079835 0.670674
O O12 0.440720 0.746133 0.194706
O O13 0.750000 0.750000 0.000000
#
# Coordination Sequence:
#
# PCOD9276088 Si02
#       7
#     8   8   8   4   8   8   4
#     4  12  26  43  73 107 145 191 246 313 374 447
#     4  10  20  39  67  99 139 191 235 299 365 435
#     4  11  25  47  72 103 148 192 251 306 371 452
#     4  11  21  44  66 100 148 184 238 298 366 440
#     4  11  22  40  66 105 139 190 241 298 372 438
#     4  12  28  50  76 108 150 201 254 313 382 458
#     4   9  21  34  62  98 146 182 238 298 356 442
#
# _framework density 22.967002999999998
#
# number of rings (size 3 to 8) (size 9 to 14) (size 15 to 20)
#    0.000    1.000    3.333    3.000    0.000    8.000 
#    0.000    3.333    0.000    0.000    0.000    0.000 
#    0.000    0.000    0.000    0.000    0.000    0.000 
#
# Total GULP energy -134042.987948 kJ/mol
# GULP energy per Si atom -5585.124498 kJ/mol
# Density = 2.291473 g / cm^3
# Si number density = 22.967003 Si / 1000 Ang^3
#
#
#
# Elastic Constant Matrix: (Units=GPa)
#
#
# Indices 1 2 3 4 5 6 
#
# 1 81.8371 26.3455 28.2496 0.0000 -10.4244 0.0000
# 2 26.3455 96.7734 4.6632 0.0000 -14.1222 0.0000
# 3 28.2496 4.6632 68.6413 0.0000 -13.0737 0.0000
# 4 0.0000 0.0000 0.0000 21.7633 0.0000 -21.1545
# 5 -10.4244 -14.1222 -13.0737 0.0000 42.9670 0.0000
# 6 0.0000 0.0000 0.0000 -21.1545 0.0000 -38.9640
#
#
#
# Elastic Compliance Matrix: (Units=1/GPa)
#
#
# Indices 1 2 3 4 5 6 
#
# 1 0.015637 -0.003866 -0.006042 0.000000 0.000685 0.000000
# 2 -0.003866 0.011810 0.001432 0.000000 0.003380 0.000000
# 3 -0.006042 0.001432 0.017800 0.000000 0.004421 0.000000
# 4 0.000000 0.000000 0.000000 0.030076 0.000000 -0.016329
# 5 0.000685 0.003380 0.004421 0.000000 0.025896 0.000000
# 6 0.000000 0.000000 0.000000 -0.016329 0.000000 -0.016799
#
#
# Mechanical properties :
#
#
# Convention : Reuss Voigt Hill
#
# Bulk Modulus (GPa) = 35.34184 40.64090 37.99137
# Shear Modulus (GPa) = 45.12493 17.68617 31.40555
#
# Velocity S-wave (km/s) = 4.43738 2.77802 3.70188
# Velocity P-wave (km/s) = 6.45564 5.29373 5.90334
#
# Compressibility (1/GPa) = 0.02829508
#
# Stress axis : x y z
#
# Youngs Moduli (GPa) = 63.95115 84.67374 56.17984
#
# Poissons Ratio (x) = 0.32734 0.33946
# Poissons Ratio (y) = 0.24723 -0.08047
# Poissons Ratio (z) = 0.38642 -0.12129
#
# Static dielectric constant tensor:
#      x y z
#    x 1.896370 0.000000 -0.008470 
#    y 0.000000 1.905340 0.000000 
#    z -0.008470 0.000000 1.907200 
# 
# From -- ./inp_files/116327.got.cif
#   From: 2010.05.17/outbox.cif.g08.bks.cpg/sg15_59_cif.got.tgz:116327.got - 2010.06.03 18:47:42.
