data_PCOD9276818
_publ_section_title
;
Structure prediction by ZEFSAII (Michael W. Deem and Ramdas Pophale) SiO2 
 PCOD9276818
Probable space group: C 2/C
;
_chemical_formula_sum "Si O2"
_cell_formula_units_Z 44
_cell_length_a 26.901174
_cell_length_b 12.488812
_cell_length_c 19.058360
_cell_angle_alpha 90.000000
_cell_angle_beta 19.587000
_cell_angle_gamma 90.000000
_cell_volume 2146.499982
_symmetry_space_group_name_H-M "C 2/C"
_symmetry_group_IT_number 15
_symmetry_cell_setting 'monoclinic'
loop_
_space_group_symop_operation_xyz
x,y,z
-x,y,1/2-z
-x,-y,-z
x,-y,1/2+z
1/2+x,1/2+y,z
1/2-x,1/2+y,1/2-z
1/2-x,1/2-y,-z
1/2+x,1/2-y,1/2+z
loop_
_atom_site_type_symbol
_atom_site_label
_atom_site_fract_x
_atom_site_fract_y
_atom_site_fract_z
Si Si1 0.528075 0.691965 0.100684
Si Si2 0.250288 0.946680 0.481391
Si Si3 0.911554 0.328862 0.612467
Si Si4 0.500000 0.130342 0.750000
Si Si5 0.167308 0.184906 0.550002
Si Si6 0.815723 0.564126 0.732790
O O1 0.374114 0.640130 0.331301
O O2 0.567635 0.787291 0.102481
O O3 0.535538 0.744693 0.014754
O O4 0.651229 0.599923 0.935341
O O5 0.377105 0.938497 0.372020
O O6 0.321751 0.924177 0.309960
O O7 0.175328 0.061639 0.566752
O O8 0.857842 0.444619 0.654545
O O9 0.056353 0.358380 0.466178
O O10 0.772370 0.296000 0.843397
O O11 0.250000 0.250000 0.500000
O O12 0.000000 0.210997 0.750000
#
# Coordination Sequence:
#
# PCOD9276818 Si02
#       6
#     8   8   8   4   8   8
#     4  12  21  39  68 100 135 171 228 281 345 401
#     4  11  22  42  66 100 135 180 220 283 342 407
#     4  10  23  40  64  97 129 173 218 280 338 404
#     4  12  22  34  68 102 138 168 230 284 338 400
#     4  11  27  50  72  92 134 187 231 273 346 416
#     4  10  20  40  65  91 132 174 213 267 347 411
#
# _framework density 20.498487000000001
#
# number of rings (size 3 to 8) (size 9 to 14) (size 15 to 20)
#    0.000    1.091    3.636    3.818    3.818    0.000 
#    3.273    0.909    0.000    0.000    0.000    0.000 
#    0.000    0.000    0.000    0.000    0.000    0.000 
#
# Total GULP energy -122734.620613 kJ/mol
# GULP energy per Si atom -5578.846391 kJ/mol
# Density = 2.045183 g / cm^3
# Si number density = 20.498487 Si / 1000 Ang^3
#
#
#
# Elastic Constant Matrix: (Units=GPa)
#
#
# Indices 1 2 3 4 5 6 
#
# 1 52.4134 39.7370 22.5876 0.0000 -11.6575 0.0000
# 2 39.7370 51.4198 35.7717 0.0000 4.8391 0.0000
# 3 22.5876 35.7717 124.7965 0.0000 -5.4906 0.0000
# 4 0.0000 0.0000 0.0000 31.4658 0.0000 -0.8205
# 5 -11.6575 4.8391 -5.4906 0.0000 38.9905 0.0000
# 6 0.0000 0.0000 0.0000 -0.8205 0.0000 25.7464
#
#
#
# Elastic Compliance Matrix: (Units=1/GPa)
#
#
# Indices 1 2 3 4 5 6 
#
# 1 0.067577 -0.059022 0.005935 0.000000 0.028365 0.000000
# 2 -0.059022 0.076484 -0.012512 0.000000 -0.028901 0.000000
# 3 0.005935 -0.012512 0.010738 0.000000 0.004839 0.000000
# 4 0.000000 0.000000 0.000000 0.031807 0.000000 0.001014
# 5 0.028365 -0.028901 0.004839 0.000000 0.038396 0.000000
# 6 0.000000 0.000000 0.000000 0.001014 0.000000 0.038873
#
#
# Mechanical properties :
#
#
# Convention : Reuss Voigt Hill
#
# Bulk Modulus (GPa) = 42.37064 47.20248 44.78656
# Shear Modulus (GPa) = 12.40875 27.94276 20.17576
#
# Velocity S-wave (km/s) = 2.46305 3.69611 3.14069
# Velocity P-wave (km/s) = 5.36692 6.42590 5.92014
#
# Compressibility (1/GPa) = 0.02360125
#
# Stress axis : x y z
#
# Youngs Moduli (GPa) = 14.79783 13.07465 93.12455
#
# Poissons Ratio (x) = 0.77169 -0.55267
# Poissons Ratio (y) = 0.87339 1.16520
# Poissons Ratio (z) = -0.08782 0.16359
#
# Static dielectric constant tensor:
#      x y z
#    x 1.772060 0.000000 -0.030540 
#    y 0.000000 1.774840 0.000000 
#    z -0.030540 0.000000 1.754300 
# 
# From -- ./inp_files/95732.got.cif
#   From: 2010.05.17/outbox.cif.g08.bks.cpg/sg15_48_cif.got.tgz:95732.got - 2010.06.03 18:47:42.
