data_PCOD9276463
_publ_section_title
;
Structure prediction by ZEFSAII (Michael W. Deem and Ramdas Pophale) SiO2 
 PCOD9276463
Probable space group: C 2/C
;
_chemical_formula_sum "Si O2"
_cell_formula_units_Z 40
_cell_length_a 13.836189
_cell_length_b 7.657793
_cell_length_c 18.260944
_cell_angle_alpha 90.000000
_cell_angle_beta 122.288733
_cell_angle_gamma 90.000000
_cell_volume 1635.643190
_symmetry_space_group_name_H-M "C 2/C"
_symmetry_group_IT_number 15
_symmetry_cell_setting 'monoclinic'
loop_
_space_group_symop_operation_xyz
x,y,z
-x,y,1/2-z
-x,-y,-z
x,-y,1/2+z
1/2+x,1/2+y,z
1/2-x,1/2+y,1/2-z
1/2-x,1/2-y,-z
1/2+x,1/2-y,1/2+z
loop_
_atom_site_type_symbol
_atom_site_label
_atom_site_fract_x
_atom_site_fract_y
_atom_site_fract_z
Si Si1 0.323537 0.052809 0.150285
Si Si2 0.460357 0.068533 0.840689
Si Si3 0.034694 0.961984 0.679184
Si Si4 0.677968 0.568430 0.969091
Si Si5 0.752102 0.051106 0.658414
O O1 0.431791 0.048109 0.137746
O O2 0.373803 0.940614 0.236433
O O3 0.290487 0.244880 0.166533
O O4 0.216809 0.982637 0.060598
O O5 0.497179 0.268873 0.859353
O O6 0.380225 0.025917 0.876568
O O7 0.000000 0.993683 0.750000
O O8 0.170087 0.980702 0.743326
O O9 0.957898 0.083747 0.596759
O O10 0.718977 0.476582 0.910401
O O11 0.750000 0.750000 0.000000
#
# Coordination Sequence:
#
# PCOD9276463 Si02
#       5
#     8   8   8   8   8
#     4  10  22  40  65  90 131 167 210 272 323 381
#     4  11  22  39  62  95 127 165 219 264 329 384
#     4  10  20  40  62  87 127 165 210 264 318 388
#     4   9  21  39  65  92 123 170 214 262 324 380
#     4  10  22  40  65  91 124 174 220 257 324 401
#
# _framework density 24.455210000000001
#
# number of rings (size 3 to 8) (size 9 to 14) (size 15 to 20)
#    0.000    2.000    2.000    1.200   14.000    1.600 
#    0.000    9.000    0.000    0.000    0.000    0.000 
#    0.000    0.000    0.000    0.000    0.000    0.000 
#
# Total GULP energy -111546.102132 kJ/mol
# GULP energy per Si atom -5577.305107 kJ/mol
# Density = 2.439955 g / cm^3
# Si number density = 24.455210 Si / 1000 Ang^3
#
#
#
# Elastic Constant Matrix: (Units=GPa)
#
#
# Indices 1 2 3 4 5 6 
#
# 1 84.8168 1.1015 -29.2245 0.0000 13.4258 0.0000
# 2 1.1015 61.7904 -4.6290 0.0000 0.8802 0.0000
# 3 -29.2245 -4.6290 86.8727 0.0000 8.4836 0.0000
# 4 0.0000 0.0000 0.0000 19.1398 0.0000 2.2442
# 5 13.4258 0.8802 8.4836 0.0000 15.6225 0.0000
# 6 0.0000 0.0000 0.0000 2.2442 0.0000 21.2935
#
#
#
# Elastic Compliance Matrix: (Units=1/GPa)
#
#
# Indices 1 2 3 4 5 6 
#
# 1 0.017541 0.000549 0.007820 0.000000 -0.019351 0.000000
# 2 0.000549 0.016298 0.001255 0.000000 -0.002072 0.000000
# 3 0.007820 0.001255 0.015705 0.000000 -0.015319 0.000000
# 4 0.000000 0.000000 0.000000 0.052901 0.000000 -0.005575
# 5 -0.019351 -0.002072 -0.015319 0.000000 0.089076 0.000000
# 6 0.000000 0.000000 0.000000 -0.005575 0.000000 0.047550
#
#
# Mechanical properties :
#
#
# Convention : Reuss Voigt Hill
#
# Bulk Modulus (GPa) = 14.53692 18.66399 16.60046
# Shear Modulus (GPa) = 20.59713 28.95995 24.77854
#
# Velocity S-wave (km/s) = 2.90528 3.44496 3.18657
# Velocity P-wave (km/s) = 4.14867 4.84481 4.51019
#
# Compressibility (1/GPa) = 0.06879037
#
# Stress axis : x y z
#
# Youngs Moduli (GPa) = 57.01080 61.35904 63.67570
#
# Poissons Ratio (x) = -0.03367 -0.49793
# Poissons Ratio (y) = -0.03129 -0.07993
# Poissons Ratio (z) = -0.44581 -0.07703
#
# Static dielectric constant tensor:
#      x y z
#    x 2.039040 0.000000 0.013380 
#    y 0.000000 1.950710 0.000000 
#    z 0.013380 0.000000 2.007180 
# 
# From -- ./inp_files/150684.got.cif
#   From: 2010.05.17/outbox.cif.g08.bks.cpg/sg15_76_cif.got.tgz:150684.got - 2010.06.03 18:47:42.
