data_PCOD9276532
_publ_section_title
;
Structure prediction by ZEFSAII (Michael W. Deem and Ramdas Pophale) SiO2 
 PCOD9276532
Probable space group: C 2/C
;
_chemical_formula_sum "Si O2"
_cell_formula_units_Z 32
_cell_length_a 7.326550
_cell_length_b 31.444650
_cell_length_c 5.677560
_cell_angle_alpha 90.000000
_cell_angle_beta 89.309209
_cell_angle_gamma 90.000000
_cell_volume 1307.905752
_symmetry_space_group_name_H-M "C 2/C"
_symmetry_group_IT_number 15
_symmetry_cell_setting 'monoclinic'
loop_
_space_group_symop_operation_xyz
x,y,z
-x,y,1/2-z
-x,-y,-z
x,-y,1/2+z
1/2+x,1/2+y,z
1/2-x,1/2+y,1/2-z
1/2-x,1/2-y,-z
1/2+x,1/2-y,1/2+z
loop_
_atom_site_type_symbol
_atom_site_label
_atom_site_fract_x
_atom_site_fract_y
_atom_site_fract_z
Si Si1 0.778766 0.305261 0.378775
Si Si2 0.500000 0.339067 0.750000
Si Si3 0.000000 0.740359 0.250000
Si Si4 0.696830 0.389262 0.123017
Si Si5 0.206803 0.515953 0.964652
O O1 0.614533 0.311354 0.569501
O O2 0.951145 0.288533 0.522982
O O3 0.679513 0.269983 0.220329
O O4 0.794620 0.351651 0.264524
O O5 0.353695 0.368781 0.624872
O O6 0.500000 0.396826 0.250000
O O7 0.792477 0.433968 0.088549
O O8 0.287629 0.505876 0.224897
O O9 0.000000 0.500000 0.000000
#
# Coordination Sequence:
#
# PCOD9276532 Si02
#       5
#     8   4   4   8   8
#     4  10  21  41  64 100 139 188 232 300 348 430
#     4  10  20  40  62  97 132 188 231 288 356 434
#     4  10  20  42  64  97 146 176 247 288 354 420
#     4  10  22  42  68  99 140 184 239 292 370 429
#     4  10  24  46  69 102 142 183 233 307 363 439
#
# _framework density 24.466591999999999
#
# number of rings (size 3 to 8) (size 9 to 14) (size 15 to 20)
#    0.000    2.000    3.750    0.000    7.000    2.000 
#    9.000    0.000    0.000    0.000    0.000    0.000 
#    0.000    0.000    0.000    0.000    0.000    0.000 
#
# Total GULP energy -89463.194576 kJ/mol
# GULP energy per Si atom -5591.449661 kJ/mol
# Density = 2.441090 g / cm^3
# Si number density = 24.466592 Si / 1000 Ang^3
#
#
#
# Elastic Constant Matrix: (Units=GPa)
#
#
# Indices 1 2 3 4 5 6 
#
# 1 124.9328 82.4685 45.2286 0.0000 23.9470 0.0000
# 2 82.4685 230.3566 89.4934 0.0000 9.5952 0.0000
# 3 45.2286 89.4934 167.4115 0.0000 17.7862 0.0000
# 4 0.0000 0.0000 0.0000 19.0897 0.0000 0.4001
# 5 23.9470 9.5952 17.7862 0.0000 28.1922 0.0000
# 6 0.0000 0.0000 0.0000 0.4001 0.0000 47.9448
#
#
#
# Elastic Compliance Matrix: (Units=1/GPa)
#
#
# Indices 1 2 3 4 5 6 
#
# 1 0.012468 -0.003978 -0.000279 0.000000 -0.009060 0.000000
# 2 -0.003978 0.006748 -0.002838 0.000000 0.002872 0.000000
# 3 -0.000279 -0.002838 0.007972 0.000000 -0.003826 0.000000
# 4 0.000000 0.000000 0.000000 0.052393 0.000000 -0.000437
# 5 -0.009060 0.002872 -0.003826 0.000000 0.044603 0.000000
# 6 0.000000 0.000000 0.000000 -0.000437 0.000000 0.020861
#
#
# Mechanical properties :
#
#
# Convention : Reuss Voigt Hill
#
# Bulk Modulus (GPa) = 76.93282 106.34243 91.63763
# Shear Modulus (GPa) = 30.56831 39.41270 34.99051
#
# Velocity S-wave (km/s) = 3.53851 4.01793 3.78581
# Velocity P-wave (km/s) = 6.94313 8.06745 7.52631
#
# Compressibility (1/GPa) = 0.01299835
#
# Stress axis : x y z
#
# Youngs Moduli (GPa) = 80.20716 148.19403 125.43351
#
# Poissons Ratio (x) = 0.58944 0.03506
# Poissons Ratio (y) = 0.31903 0.35596
# Poissons Ratio (z) = 0.02242 0.42055
#
# Static dielectric constant tensor:
#      x y z
#    x 1.933020 0.000000 -0.001180 
#    y 0.000000 1.881290 0.000000 
#    z -0.001180 0.000000 2.150500 
# 
# From -- ./inp_files/2414.got.cif
#   From: 2010.05.17/outbox.cif.g08.bks.cpg/sg15_2_cif.got.tgz:2414.got - 2010.06.03 18:47:42.
