data_PCOD9276145
_publ_section_title
;
Structure prediction by ZEFSAII (Michael W. Deem and Ramdas Pophale) SiO2 
 PCOD9276145
Probable space group: C 2/C
;
_chemical_formula_sum "Si O2"
_cell_formula_units_Z 52
_cell_length_a 7.489838
_cell_length_b 20.829341
_cell_length_c 14.936602
_cell_angle_alpha 90.000000
_cell_angle_beta 100.928562
_cell_angle_gamma 90.000000
_cell_volume 2287.974841
_symmetry_space_group_name_H-M "C 2/C"
_symmetry_group_IT_number 15
_symmetry_cell_setting 'monoclinic'
loop_
_space_group_symop_operation_xyz
x,y,z
-x,y,1/2-z
-x,-y,-z
x,-y,1/2+z
1/2+x,1/2+y,z
1/2-x,1/2+y,1/2-z
1/2-x,1/2-y,-z
1/2+x,1/2-y,1/2+z
loop_
_atom_site_type_symbol
_atom_site_label
_atom_site_fract_x
_atom_site_fract_y
_atom_site_fract_z
Si Si1 0.500000 0.498327 0.750000
Si Si2 0.204375 0.754534 0.731717
Si Si3 0.426430 0.070577 0.505439
Si Si4 0.114597 0.199400 0.591292
Si Si5 0.528192 0.200781 0.548857
Si Si6 0.822811 0.398929 0.792069
Si Si7 0.562319 0.441000 0.068926
O O1 0.670837 0.451230 0.756207
O O2 0.502043 0.540572 0.838934
O O3 0.339414 0.708735 0.800083
O O4 0.262887 0.827475 0.757273
O O5 0.000000 0.747429 0.750000
O O6 0.171252 0.735042 0.626682
O O7 0.569755 0.125624 0.543514
O O8 0.348343 0.095269 0.402174
O O9 0.277860 0.063196 0.569584
O O10 0.500000 0.000000 0.500000
O O11 0.319806 0.201337 0.568596
O O12 0.001895 0.259524 0.544049
O O13 0.016556 0.134160 0.550222
O O14 0.000000 0.414028 0.750000
O O15 0.500000 0.500000 0.000000
#
# Coordination Sequence:
#
# PCOD9276145 Si02
#       7
#     4   8   8   8   8   8   8
#     4  12  26  46  72 104 144 190 242 296 366 436
#     4  10  20  39  69 102 137 184 240 289 363 429
#     4  11  23  45  69 102 146 183 234 297 366 430
#     4   9  19  37  64  99 138 171 234 295 340 420
#     4   9  19  36  69  98 133 185 228 286 362 421
#     4  12  25  43  70 107 143 186 243 300 358 430
#     4  11  24  43  69  99 134 185 233 288 356 426
#
# _framework density 22.727520999999999
#
# number of rings (size 3 to 8) (size 9 to 14) (size 15 to 20)
#    0.000    1.538    3.846    0.923    4.308    1.231 
#    1.385    3.846    0.000    0.000    0.000    0.000 
#    0.000    0.000    0.000    0.000    0.000    0.000 
#
# Total GULP energy -145179.335411 kJ/mol
# GULP energy per Si atom -5583.820593 kJ/mol
# Density = 2.267579 g / cm^3
# Si number density = 22.727521 Si / 1000 Ang^3
#
#
#
# Elastic Constant Matrix: (Units=GPa)
#
#
# Indices 1 2 3 4 5 6 
#
# 1 75.4320 25.2552 31.5317 0.0000 -17.0388 0.0000
# 2 25.2552 171.3313 41.1038 0.0000 15.2834 0.0000
# 3 31.5317 41.1038 86.7154 0.0000 17.8305 0.0000
# 4 0.0000 0.0000 0.0000 31.0942 0.0000 6.4115
# 5 -17.0388 15.2834 17.8305 0.0000 32.0705 0.0000
# 6 0.0000 0.0000 0.0000 6.4115 0.0000 1.9031
#
#
#
# Elastic Compliance Matrix: (Units=1/GPa)
#
#
# Indices 1 2 3 4 5 6 
#
# 1 0.023370 -0.002484 -0.011423 0.000000 0.019951 0.000000
# 2 -0.002484 0.006922 -0.001612 0.000000 -0.003722 0.000000
# 3 -0.011423 -0.001612 0.019804 0.000000 -0.016311 0.000000
# 4 0.000000 0.000000 0.000000 0.105326 0.000000 -0.354838
# 5 0.019951 -0.003722 -0.016311 0.000000 0.052623 0.000000
# 6 0.000000 0.000000 0.000000 -0.354838 0.000000 1.720884
#
#
# Mechanical properties :
#
#
# Convention : Reuss Voigt Hill
#
# Bulk Modulus (GPa) = 52.47416 58.80667 55.64041
# Shear Modulus (GPa) = 2.54282 28.71945 15.63113
#
# Velocity S-wave (km/s) = 1.05889 3.55863 2.62537
# Velocity P-wave (km/s) = 4.96322 6.54339 5.80730
#
# Compressibility (1/GPa) = 0.01905700
#
# Stress axis : x y z
#
# Youngs Moduli (GPa) = 42.78964 144.47442 50.49581
#
# Poissons Ratio (x) = 0.35890 0.57680
# Poissons Ratio (y) = 0.10630 0.08141
# Poissons Ratio (z) = 0.48877 0.23294
#
# Static dielectric constant tensor:
#      x y z
#    x 2.013500 0.000000 -0.240530 
#    y 0.000000 1.856740 0.000000 
#    z -0.240530 0.000000 2.232400 
# 
# From -- ./inp_files/136142.got.cif
#   From: 2010.05.17/outbox.cif.g08.bks.cpg/sg15_69_cif.got.tgz:136142.got - 2010.06.03 18:47:42.
