data_PCOD9276289
_publ_section_title
;
Structure prediction by ZEFSAII (Michael W. Deem and Ramdas Pophale) SiO2 
 PCOD9276289
Probable space group: C 2/C
;
_chemical_formula_sum "Si O2"
_cell_formula_units_Z 36
_cell_length_a 22.010667
_cell_length_b 4.930673
_cell_length_c 18.624566
_cell_angle_alpha 90.000000
_cell_angle_beta 128.445069
_cell_angle_gamma 90.000000
_cell_volume 1583.072504
_symmetry_space_group_name_H-M "C 2/C"
_symmetry_group_IT_number 15
_symmetry_cell_setting 'monoclinic'
loop_
_space_group_symop_operation_xyz
x,y,z
-x,y,1/2-z
-x,-y,-z
x,-y,1/2+z
1/2+x,1/2+y,z
1/2-x,1/2+y,1/2-z
1/2-x,1/2-y,-z
1/2+x,1/2-y,1/2+z
loop_
_atom_site_type_symbol
_atom_site_label
_atom_site_fract_x
_atom_site_fract_y
_atom_site_fract_z
Si Si1 0.500000 0.328805 0.750000
Si Si2 0.477350 0.756699 0.076807
Si Si3 0.401433 0.755292 0.454602
Si Si4 0.831556 0.966153 0.122898
Si Si5 0.235469 0.958762 0.084260
O O1 0.513125 0.173537 0.833549
O O2 0.578652 0.495146 0.795829
O O3 0.556928 0.795254 0.091126
O O4 0.455200 0.446854 0.041918
O O5 0.409461 0.949945 0.996179
O O6 0.319050 0.605464 0.397274
O O7 0.775241 0.169704 0.125475
O O8 0.805553 0.662595 0.118303
O O9 0.813923 0.040402 0.026520
#
# Coordination Sequence:
#
# PCOD9276289 Si02
#       5
#     4   8   8   8   8
#     4  12  24  42  58 102 124 156 198 286 300 370
#     4  10  23  36  64  89 124 158 205 251 318 352
#     4  10  20  42  61  88 117 170 206 245 294 400
#     4  10  23  34  61  88 123 155 204 248 316 350
#     4  10  20  40  59  86 116 169 202 244 292 394
#
# _framework density 22.740587000000001
#
# number of rings (size 3 to 8) (size 9 to 14) (size 15 to 20)
#    0.000    1.778    2.222    1.333    6.222    3.556 
#    0.000    2.222    0.000    0.000    0.000    0.000 
#    0.000    0.000    0.000    0.000    0.000    0.000 
#
# Total GULP energy -100547.857028 kJ/mol
# GULP energy per Si atom -5585.992057 kJ/mol
# Density = 2.268883 g / cm^3
# Si number density = 22.740587 Si / 1000 Ang^3
#
#
#
# Elastic Constant Matrix: (Units=GPa)
#
#
# Indices 1 2 3 4 5 6 
#
# 1 120.5139 0.5127 31.9937 -0.0001 3.0263 -0.0009
# 2 0.5127 78.9307 -0.1553 -0.0005 -4.2651 -0.0018
# 3 31.9937 -0.1553 38.2132 0.0003 13.1999 -0.0005
# 4 -0.0001 -0.0005 0.0003 5.2032 0.0002 0.2166
# 5 3.0263 -4.2651 13.1999 0.0002 45.3559 -0.0003
# 6 -0.0009 -0.0018 -0.0005 0.2166 -0.0003 20.1623
#
#
#
# Elastic Compliance Matrix: (Units=1/GPa)
#
#
# Indices 1 2 3 4 5 6 
#
# 1 0.010852 0.000026 -0.009824 0.000001 0.002137 0.000000
# 2 0.000026 0.012740 -0.000426 0.000001 0.001320 0.000001
# 3 -0.009824 -0.000426 0.038000 -0.000002 -0.010444 0.000000
# 4 0.000001 0.000001 -0.000002 0.192274 0.000000 -0.002065
# 5 0.002137 0.001320 -0.010444 0.000000 0.025069 0.000000
# 6 0.000000 0.000001 0.000000 -0.002065 0.000000 0.049620
#
#
# Mechanical properties :
#
#
# Convention : Reuss Voigt Hill
#
# Bulk Modulus (GPa) = 24.30520 33.59554 28.95037
# Shear Modulus (GPa) = 13.78484 27.83140 20.80812
#
# Velocity S-wave (km/s) = 2.46474 3.50217 3.02821
# Velocity P-wave (km/s) = 4.33718 5.58203 4.99851
#
# Compressibility (1/GPa) = 0.04114347
#
# Stress axis : x y z
#
# Youngs Moduli (GPa) = 92.14825 78.49491 26.31583
#
# Poissons Ratio (x) = -0.00202 0.25853
# Poissons Ratio (y) = -0.00237 0.01120
# Poissons Ratio (z) = 0.90527 0.03342
#
# Static dielectric constant tensor:
#      x y z
#    x 1.904660 0.000000 0.003870 
#    y 0.000000 1.815170 0.000000 
#    z 0.003870 0.000000 1.829110 
# 
# From -- ./inp_files/250919.got.cif
#   From: 2010.05.17/outbox.cif.g08.bks.cpg/sg15_126_cif.got.tgz:250919.got - 2010.06.03 18:47:42.
