data_PCOD9276907
_publ_section_title
;
Structure prediction by ZEFSAII (Michael W. Deem and Ramdas Pophale) SiO2 
 PCOD9276907
Probable space group: C 2/C
;
_chemical_formula_sum "Si O2"
_cell_formula_units_Z 52
_cell_length_a 12.745952
_cell_length_b 17.047737
_cell_length_c 8.747979
_cell_angle_alpha 90.000000
_cell_angle_beta 82.239200
_cell_angle_gamma 90.000000
_cell_volume 1883.434320
_symmetry_space_group_name_H-M "C 2/C"
_symmetry_group_IT_number 15
_symmetry_cell_setting 'monoclinic'
loop_
_space_group_symop_operation_xyz
x,y,z
-x,y,1/2-z
-x,-y,-z
x,-y,1/2+z
1/2+x,1/2+y,z
1/2-x,1/2+y,1/2-z
1/2-x,1/2-y,-z
1/2+x,1/2-y,1/2+z
loop_
_atom_site_type_symbol
_atom_site_label
_atom_site_fract_x
_atom_site_fract_y
_atom_site_fract_z
Si Si1 0.434981 0.550300 0.134255
Si Si2 0.220517 0.677487 0.292263
Si Si3 0.663911 0.046921 0.509007
Si Si4 0.076507 0.223779 0.048678
Si Si5 0.854612 0.895569 0.174529
Si Si6 0.759983 0.376483 0.009186
Si Si7 0.000000 0.644081 0.750000
O O1 0.500000 0.597387 0.250000
O O2 0.387757 0.477546 0.243345
O O3 0.340728 0.596012 0.073733
O O4 0.500000 0.500000 0.000000
O O5 0.175748 0.589879 0.343704
O O6 0.148507 0.728803 0.415884
O O7 0.337941 0.699047 0.335730
O O8 0.196030 0.686436 0.117877
O O9 0.773572 0.075325 0.562748
O O10 0.578630 0.085533 0.642244
O O11 0.664594 0.953136 0.488855
O O12 0.054075 0.150679 0.937389
O O13 0.988749 0.286866 0.120169
O O14 0.784567 0.853305 0.317129
#
# Coordination Sequence:
#
# PCOD9276907 Si02
#       7
#     8   8   8   8   8   8   4
#     4  11  22  36  54  88 122 150 190 246 308 372
#     4   9  19  37  60  83 110 159 202 240 300 367
#     4   9  19  37  62  88 119 157 207 254 297 363
#     4   9  20  38  59  83 114 157 208 244 286 366
#     4  10  21  37  57  86 125 155 192 253 311 360
#     4  11  21  36  61  90 121 156 192 252 321 361
#     4  10  20  40  66  90 116 168 222 250 286 370
#
# _framework density 27.609141999999999
#
# number of rings (size 3 to 8) (size 9 to 14) (size 15 to 20)
#    0.000    2.154    1.538    2.769    4.308    1.846 
#    0.000    6.923    0.000    0.000    0.000    0.000 
#    0.000    0.000    0.000    0.000    0.000    0.000 
#
# Total GULP energy -144951.605299 kJ/mol
# GULP energy per Si atom -5575.061742 kJ/mol
# Density = 2.754630 g / cm^3
# Si number density = 27.609142 Si / 1000 Ang^3
#
#
#
# Elastic Constant Matrix: (Units=GPa)
#
#
# Indices 1 2 3 4 5 6 
#
# 1 36.4243 -0.0891 -5.0550 0.0000 -19.5489 0.0000
# 2 -0.0891 98.2131 8.5454 0.0000 -20.6269 0.0000
# 3 -5.0550 8.5454 159.9084 0.0000 -16.2922 0.0000
# 4 0.0000 0.0000 0.0000 52.0066 0.0000 -11.7826
# 5 -19.5489 -20.6269 -16.2922 0.0000 47.6994 0.0000
# 6 0.0000 0.0000 0.0000 -11.7826 0.0000 24.3718
#
#
#
# Elastic Compliance Matrix: (Units=1/GPa)
#
#
# Indices 1 2 3 4 5 6 
#
# 1 0.037418 0.003533 0.002810 0.000000 0.017823 0.000000
# 2 0.003533 0.011534 0.000156 0.000000 0.006489 0.000000
# 3 0.002810 0.000156 0.006691 0.000000 0.003505 0.000000
# 4 0.000000 0.000000 0.000000 0.021593 0.000000 0.010439
# 5 0.017823 0.006489 0.003505 0.000000 0.032272 0.000000
# 6 0.000000 0.000000 0.000000 0.010439 0.000000 0.046078
#
#
# Mechanical properties :
#
#
# Convention : Reuss Voigt Hill
#
# Bulk Modulus (GPa) = 14.56842 33.48317 24.02580
# Shear Modulus (GPa) = 30.21696 44.22519 37.22108
#
# Velocity S-wave (km/s) = 3.31184 4.00663 3.67569
# Velocity P-wave (km/s) = 4.46235 5.79293 5.17062
#
# Compressibility (1/GPa) = 0.06864162
#
# Stress axis : x y z
#
# Youngs Moduli (GPa) = 26.72495 86.69724 149.45189
#
# Poissons Ratio (x) = -0.30627 -0.41995
# Poissons Ratio (y) = -0.09441 -0.02338
# Poissons Ratio (z) = -0.07510 -0.01356
#
# Static dielectric constant tensor:
#      x y z
#    x 2.244730 0.000000 -0.072150 
#    y 0.000000 2.495990 0.000000 
#    z -0.072150 0.000000 2.186280 
# 
# From -- ./inp_files/48441.got.cif
#   From: 2010.05.17/outbox.cif.g08.bks.cpg/sg15_25_cif.got.tgz:48441.got - 2010.06.03 18:47:42.
