data_PCOD9276493
_publ_section_title
;
Structure prediction by ZEFSAII (Michael W. Deem and Ramdas Pophale) SiO2 
 PCOD9276493
Probable space group: C 2/C
;
_chemical_formula_sum "Si O2"
_cell_formula_units_Z 60
_cell_length_a 8.668493
_cell_length_b 11.761020
_cell_length_c 23.618519
_cell_angle_alpha 90.000000
_cell_angle_beta 80.012554
_cell_angle_gamma 90.000000
_cell_volume 2371.425470
_symmetry_space_group_name_H-M "C 2/C"
_symmetry_group_IT_number 15
_symmetry_cell_setting 'monoclinic'
loop_
_space_group_symop_operation_xyz
x,y,z
-x,y,1/2-z
-x,-y,-z
x,-y,1/2+z
1/2+x,1/2+y,z
1/2-x,1/2+y,1/2-z
1/2-x,1/2-y,-z
1/2+x,1/2-y,1/2+z
loop_
_atom_site_type_symbol
_atom_site_label
_atom_site_fract_x
_atom_site_fract_y
_atom_site_fract_z
Si Si1 0.338285 0.060663 0.239431
Si Si2 0.354515 0.437968 0.089159
Si Si3 0.146284 0.764867 0.170128
Si Si4 0.065844 0.442440 0.625507
Si Si5 0.281263 0.289854 0.934505
Si Si6 0.795632 0.967694 0.465615
Si Si7 0.500000 0.555793 0.750000
Si Si8 0.577229 0.838665 0.413229
O O1 0.500000 0.993827 0.250000
O O2 0.163270 0.011763 0.245798
O O3 0.336746 0.174777 0.278753
O O4 0.408318 0.079748 0.172313
O O5 0.303132 0.306371 0.096118
O O6 0.541266 0.443653 0.076385
O O7 0.235283 0.506142 0.137658
O O8 0.321709 0.497459 0.028956
O O9 0.306489 0.829186 0.146868
O O10 0.116252 0.688345 0.116122
O O11 0.020999 0.858510 0.195833
O O12 0.026082 0.547928 0.587830
O O13 0.232723 0.419609 0.937333
O O14 0.467678 0.271192 0.917444
O O15 0.250000 0.250000 0.000000
O O16 0.675739 0.865231 0.463117
#
# Coordination Sequence:
#
# PCOD9276493 Si02
#       8
#     8   8   8   8   8   8   4   8
#     4  10  23  45  68  95 135 167 218 280 330 396
#     4   9  20  38  64  90 132 169 211 266 321 378
#     4  11  23  43  66  93 133 166 214 281 322 397
#     4  10  20  40  62  91 125 166 208 266 322 382
#     4   9  20  38  58  87 126 162 206 259 309 374
#     4  10  21  40  61  94 128 172 214 262 318 386
#     4  12  22  44  72  96 130 174 216 272 344 392
#     4  11  23  38  66  93 125 170 217 260 323 386
#
# _framework density 25.301238000000001
#
# number of rings (size 3 to 8) (size 9 to 14) (size 15 to 20)
#    0.000    1.867    3.333    0.800    0.000    9.067 
#    1.200   12.000    2.933    0.000    0.000    0.000 
#    0.000    0.000    0.000    0.000    0.000    0.000 
#
# Total GULP energy -167060.875224 kJ/mol
# GULP energy per Si atom -5568.695841 kJ/mol
# Density = 2.524365 g / cm^3
# Si number density = 25.301238 Si / 1000 Ang^3
#
#
#
# Elastic Constant Matrix: (Units=GPa)
#
#
# Indices 1 2 3 4 5 6 
#
# 1 101.3803 33.2570 21.7844 0.0000 -31.6505 0.0000
# 2 33.2570 82.2665 3.6277 0.0000 -5.6950 0.0000
# 3 21.7844 3.6277 63.0133 0.0000 -15.2583 0.0000
# 4 0.0000 0.0000 0.0000 40.2948 0.0000 -3.1952
# 5 -31.6505 -5.6950 -15.2583 0.0000 51.9045 0.0000
# 6 0.0000 0.0000 0.0000 -3.1952 0.0000 38.1464
#
#
#
# Elastic Compliance Matrix: (Units=1/GPa)
#
#
# Indices 1 2 3 4 5 6 
#
# 1 0.014525 -0.005229 -0.002923 0.000000 0.007424 0.000000
# 2 -0.005229 0.014141 0.000643 0.000000 -0.001448 0.000000
# 3 -0.002923 0.000643 0.017688 0.000000 0.003488 0.000000
# 4 0.000000 0.000000 0.000000 0.024983 0.000000 0.002093
# 5 0.007424 -0.001448 0.003488 0.000000 0.024660 0.000000
# 6 0.000000 0.000000 0.000000 0.002093 0.000000 0.026390
#
#
# Mechanical properties :
#
#
# Convention : Reuss Voigt Hill
#
# Bulk Modulus (GPa) = 31.91206 40.44428 36.17817
# Shear Modulus (GPa) = 33.81822 38.60186 36.21004
#
# Velocity S-wave (km/s) = 3.65995 3.91025 3.78717
# Velocity P-wave (km/s) = 5.52273 6.03378 5.78390
#
# Compressibility (1/GPa) = 0.03133611
#
# Stress axis : x y z
#
# Youngs Moduli (GPa) = 68.84673 70.71676 56.53664
#
# Poissons Ratio (x) = 0.36978 0.16524
# Poissons Ratio (y) = 0.36000 -0.03635
# Poissons Ratio (z) = 0.20122 -0.04547
#
# Static dielectric constant tensor:
#      x y z
#    x 2.044910 0.000000 0.095650 
#    y 0.000000 1.982470 0.000000 
#    z 0.095650 0.000000 2.167590 
# 
# From -- ./inp_files/307475.got.cif
#   From: 2010.05.17/outbox.cif.g08.bks.cpg/sg15_154_cif.got.tgz:307475.got - 2010.06.03 18:47:42.
