data_PCOD9276832
_publ_section_title
;
Structure prediction by ZEFSAII (Michael W. Deem and Ramdas Pophale) SiO2 
 PCOD9276832
Probable space group: C 2/C
;
_chemical_formula_sum "Si O2"
_cell_formula_units_Z 64
_cell_length_a 11.175174
_cell_length_b 14.502983
_cell_length_c 29.880658
_cell_angle_alpha 90.000000
_cell_angle_beta 38.514940
_cell_angle_gamma 90.000000
_cell_volume 3015.738524
_symmetry_space_group_name_H-M "C 2/C"
_symmetry_group_IT_number 15
_symmetry_cell_setting 'monoclinic'
loop_
_space_group_symop_operation_xyz
x,y,z
-x,y,1/2-z
-x,-y,-z
x,-y,1/2+z
1/2+x,1/2+y,z
1/2-x,1/2+y,1/2-z
1/2-x,1/2-y,-z
1/2+x,1/2-y,1/2+z
loop_
_atom_site_type_symbol
_atom_site_label
_atom_site_fract_x
_atom_site_fract_y
_atom_site_fract_z
Si Si1 0.701813 0.032938 0.283669
Si Si2 0.977798 0.874695 0.971229
Si Si3 0.342765 0.006129 0.104929
Si Si4 0.651730 0.239863 0.268161
Si Si5 0.858878 0.900883 0.166708
Si Si6 0.282845 0.789261 0.133645
Si Si7 0.783088 0.463599 0.383900
Si Si8 0.724035 0.501591 0.042468
O O1 0.686668 0.132667 0.265857
O O2 0.746994 0.041351 0.322792
O O3 0.842338 0.968210 0.214401
O O4 0.495336 0.982605 0.339066
O O5 0.870328 0.920414 0.960524
O O6 0.058895 0.775304 0.935571
O O7 0.830097 0.885432 0.055283
O O8 0.158825 0.942896 0.927164
O O9 0.319113 0.895471 0.112647
O O10 0.256976 0.038094 0.083015
O O11 0.569805 0.027059 0.036994
O O12 0.691535 0.300671 0.300400
O O13 0.773824 0.273529 0.189734
O O14 0.427988 0.258907 0.321925
O O15 0.725801 0.937464 0.165671
O O16 0.076119 0.916097 0.086136
#
# Coordination Sequence:
#
# PCOD9276832 Si02
#       8
#     8   8   8   8   8   8   8   8
#     4  12  23  43  69  96 131 174 217 274 329 395
#     4  10  20  40  65  92 128 166 222 263 326 388
#     4  11  23  42  65  92 137 169 215 271 337 383
#     4  11  23  40  65  99 127 170 227 263 326 398
#     4  11  23  41  66  95 135 169 222 272 329 395
#     4  11  22  41  66  97 127 174 223 270 316 410
#     4  10  21  39  63  96 127 171 206 276 327 383
#     4  10  22  41  63  94 126 176 212 264 330 390
#
# _framework density 21.221999
#
# number of rings (size 3 to 8) (size 9 to 14) (size 15 to 20)
#    0.000    1.250    5.000    1.875    1.750    1.000 
#    4.500    1.250    2.750    0.000    0.000    0.000 
#    0.000    0.000    0.000    0.000    0.000    0.000 
#
# Total GULP energy -178970.232293 kJ/mol
# GULP energy per Si atom -5592.819759 kJ/mol
# Density = 2.117370 g / cm^3
# Si number density = 21.221999 Si / 1000 Ang^3
#
#
#
# Elastic Constant Matrix: (Units=GPa)
#
#
# Indices 1 2 3 4 5 6 
#
# 1 35.9545 -11.2325 11.0509 -0.0010 12.1414 -0.0002
# 2 -11.2325 44.2237 8.2334 0.0001 -3.5012 -0.0002
# 3 11.0509 8.2334 76.4843 -0.0041 8.5777 0.0004
# 4 -0.0010 0.0001 -0.0041 27.2177 0.0015 4.9846
# 5 12.1414 -3.5012 8.5777 0.0015 39.9088 0.0001
# 6 -0.0002 -0.0002 0.0004 4.9846 0.0001 15.0788
#
#
#
# Elastic Compliance Matrix: (Units=1/GPa)
#
#
# Indices 1 2 3 4 5 6 
#
# 1 0.035228 0.009198 -0.005091 0.000001 -0.008816 0.000000
# 2 0.009198 0.025747 -0.004140 -0.000001 0.000350 0.000001
# 3 -0.005091 -0.004140 0.014472 0.000002 -0.001925 -0.000001
# 4 0.000001 -0.000001 0.000002 0.039108 -0.000002 -0.012928
# 5 -0.008816 0.000350 -0.001925 -0.000002 0.028184 0.000001
# 6 0.000000 0.000001 -0.000001 -0.012928 0.000001 0.070592
#
#
# Mechanical properties :
#
#
# Convention : Reuss Voigt Hill
#
# Bulk Modulus (GPa) = 13.26614 19.19624 16.23119
# Shear Modulus (GPa) = 20.96216 26.34843 23.65530
#
# Velocity S-wave (km/s) = 3.14627 3.52740 3.34227
# Velocity P-wave (km/s) = 4.41173 5.06509 4.74966
#
# Compressibility (1/GPa) = 0.07537986
#
# Stress axis : x y z
#
# Youngs Moduli (GPa) = 28.38624 38.83961 69.10036
#
# Poissons Ratio (x) = -0.35723 0.35181
# Poissons Ratio (y) = -0.26109 0.28606
# Poissons Ratio (z) = 0.14452 0.16079
#
# Static dielectric constant tensor:
#      x y z
#    x 1.788210 0.000000 0.001190 
#    y 0.000000 1.706930 0.000000 
#    z 0.001190 0.000000 1.786380 
# 
# From -- ./inp_files/311177.got.cif
#   From: 2010.05.17/outbox.cif.g08.bks.cpg/sg15_156_cif.got.tgz:311177.got - 2010.06.03 18:47:42.
