data_PCOD9276886
_publ_section_title
;
Structure prediction by ZEFSAII (Michael W. Deem and Ramdas Pophale) SiO2 
 PCOD9276886
Probable space group: C 2/C
;
_chemical_formula_sum "Si O2"
_cell_formula_units_Z 60
_cell_length_a 25.156954
_cell_length_b 21.216988
_cell_length_c 12.616439
_cell_angle_alpha 90.000000
_cell_angle_beta 155.743377
_cell_angle_gamma 90.000000
_cell_volume 2766.525277
_symmetry_space_group_name_H-M "C 2/C"
_symmetry_group_IT_number 15
_symmetry_cell_setting 'monoclinic'
loop_
_space_group_symop_operation_xyz
x,y,z
-x,y,1/2-z
-x,-y,-z
x,-y,1/2+z
1/2+x,1/2+y,z
1/2-x,1/2+y,1/2-z
1/2-x,1/2-y,-z
1/2+x,1/2-y,1/2+z
loop_
_atom_site_type_symbol
_atom_site_label
_atom_site_fract_x
_atom_site_fract_y
_atom_site_fract_z
Si Si1 0.201592 0.484439 0.845227
Si Si2 0.827077 0.096296 0.159230
Si Si3 0.507666 0.076174 0.140105
Si Si4 0.264620 0.886260 0.779386
Si Si5 0.000000 0.817784 0.250000
Si Si6 0.630947 0.751344 0.551435
Si Si7 0.341306 0.808604 0.284044
Si Si8 0.486095 0.704032 0.959388
O O1 0.094612 0.535230 0.613496
O O2 0.217668 0.440754 0.772749
O O3 0.144657 0.441821 0.836861
O O4 0.324013 0.526703 0.103446
O O5 0.738595 0.092596 0.104390
O O6 0.960890 0.132940 0.427038
O O7 0.754997 0.144313 0.950024
O O8 0.500000 0.059585 0.250000
O O9 0.459534 0.147828 0.038745
O O10 0.122400 0.859020 0.502397
O O11 0.359036 0.827226 0.930699
O O12 0.959281 0.785120 0.286172
O O13 0.757951 0.725240 0.723481
O O14 0.620748 0.722482 0.650051
O O15 0.500000 0.732837 0.250000
O O16 0.398089 0.754500 0.311375
#
# Coordination Sequence:
#
# PCOD9276886 Si02
#       8
#     8   8   8   8   4   8   8   8
#     4  10  22  40  61  92 122 176 233 262 326 401
#     4  10  20  40  66  86 134 167 215 288 313 392
#     4  10  22  37  60  91 132 166 208 285 334 384
#     4  11  23  42  63  93 128 176 224 266 337 401
#     4  10  24  42  60  88 132 178 206 266 340 396
#     4  12  23  37  69 101 128 176 225 273 333 406
#     4  11  21  39  61  98 131 166 217 273 340 392
#     4  11  22  40  62  95 133 172 216 273 339 400
#
# _framework density 21.687856
#
# number of rings (size 3 to 8) (size 9 to 14) (size 15 to 20)
#    0.000    1.333    4.000    2.800    0.933    4.267 
#    0.000    5.333    0.000    0.000    0.000    0.000 
#    0.000    0.000    0.000    0.000    0.000    0.000 
#
# Total GULP energy -167485.155607 kJ/mol
# GULP energy per Si atom -5582.838520 kJ/mol
# Density = 2.163849 g / cm^3
# Si number density = 21.687856 Si / 1000 Ang^3
#
#
#
# Elastic Constant Matrix: (Units=GPa)
#
#
# Indices 1 2 3 4 5 6 
#
# 1 113.0749 58.1569 -5.8265 0.0000 -4.1057 0.0000
# 2 58.1569 121.0081 10.7622 0.0000 -1.6713 0.0000
# 3 -5.8265 10.7622 31.0218 0.0000 -3.7858 0.0000
# 4 0.0000 0.0000 0.0000 19.5335 0.0000 -26.2967
# 5 -4.1057 -1.6713 -3.7858 0.0000 28.3035 0.0000
# 6 0.0000 0.0000 0.0000 -26.2967 0.0000 12.0933
#
#
#
# Elastic Compliance Matrix: (Units=1/GPa)
#
#
# Indices 1 2 3 4 5 6 
#
# 1 0.012449 -0.006382 0.004805 0.000000 0.002072 0.000000
# 2 -0.006382 0.011799 -0.005408 0.000000 -0.000952 0.000000
# 3 0.004805 -0.005408 0.035642 0.000000 0.005145 0.000000
# 4 0.000000 0.000000 0.000000 -0.026562 0.000000 -0.057758
# 5 0.002072 -0.000952 0.005145 0.000000 0.036264 0.000000
# 6 0.000000 0.000000 0.000000 -0.057758 0.000000 -0.042903
#
#
# Mechanical properties :
#
#
# Convention : Reuss Voigt Hill
#
# Bulk Modulus (GPa) = 21.77712 43.47668 32.62690
# Shear Modulus (GPa) = 89.34249 25.45355 57.39802
#
# Velocity S-wave (km/s) = 6.42527 3.42955 5.15005
# Velocity P-wave (km/s) = 8.06898 5.98101 7.10215
#
# Compressibility (1/GPa) = 0.04591975
#
# Stress axis : x y z
#
# Youngs Moduli (GPa) = 80.32961 84.75460 28.05680
#
# Poissons Ratio (x) = 0.54087 -0.13481
# Poissons Ratio (y) = 0.51263 0.15173
# Poissons Ratio (z) = -0.38597 0.45836
#
# Static dielectric constant tensor:
#      x y z
#    x 1.787570 0.000000 -0.032640 
#    y 0.000000 1.816090 0.000000 
#    z -0.032640 0.000000 1.855080 
# 
# From -- ./inp_files/119933.got.cif
#   From: 2010.05.17/outbox.cif.g08.bks.cpg/sg15_60_cif.got.tgz:119933.got - 2010.06.03 18:47:42.
