data_PCOD9276122
_publ_section_title
;
Structure prediction by ZEFSAII (Michael W. Deem and Ramdas Pophale) SiO2 
 PCOD9276122
Probable space group: C 2/C
;
_chemical_formula_sum "Si O2"
_cell_formula_units_Z 56
_cell_length_a 16.234495
_cell_length_b 11.466456
_cell_length_c 14.045163
_cell_angle_alpha 90.000000
_cell_angle_beta 88.265991
_cell_angle_gamma 90.000000
_cell_volume 2613.339643
_symmetry_space_group_name_H-M "C 2/C"
_symmetry_group_IT_number 15
_symmetry_cell_setting 'monoclinic'
loop_
_space_group_symop_operation_xyz
x,y,z
-x,y,1/2-z
-x,-y,-z
x,-y,1/2+z
1/2+x,1/2+y,z
1/2-x,1/2+y,1/2-z
1/2-x,1/2-y,-z
1/2+x,1/2-y,1/2+z
loop_
_atom_site_type_symbol
_atom_site_label
_atom_site_fract_x
_atom_site_fract_y
_atom_site_fract_z
Si Si1 0.347865 0.076082 0.608711
Si Si2 0.206150 0.907470 0.832917
Si Si3 0.024799 0.493386 0.638500
Si Si4 0.356473 0.212104 0.418520
Si Si5 0.292025 0.384539 0.882175
Si Si6 0.318872 0.131718 0.829379
Si Si7 0.907280 0.954995 0.492219
O O1 0.327112 0.162016 0.522492
O O2 0.337327 0.134077 0.714017
O O3 0.441213 0.032369 0.591209
O O4 0.289881 0.962526 0.607299
O O5 0.280085 0.814591 0.850639
O O6 0.175513 0.904398 0.726478
O O7 0.254514 0.028407 0.845326
O O8 0.130855 0.908046 0.907889
O O9 0.067509 0.371401 0.611888
O O10 0.095369 0.591268 0.626701
O O11 0.000000 0.486382 0.750000
O O12 0.387348 0.344742 0.423656
O O13 0.284236 0.246050 0.881016
O O14 0.354735 0.436662 0.955380
O O15 0.000000 0.000000 0.500000
#
# Coordination Sequence:
#
# PCOD9276122 Si02
#       7
#     8   8   8   8   8   8   8
#     4  10  20  39  68  96 121 172 218 271 325 389
#     4  10  23  44  68  94 126 177 220 264 337 390
#     4   9  20  40  63  97 123 167 219 266 328 385
#     4  11  22  42  68  90 134 168 220 267 324 402
#     4  11  24  42  68  95 129 172 222 269 330 391
#     4   9  21  39  65  95 131 162 215 274 325 388
#     4  12  28  44  61  98 134 175 220 271 337 395
#
# _framework density 21.428519999999999
#
# number of rings (size 3 to 8) (size 9 to 14) (size 15 to 20)
#    0.000    1.714    1.429    2.571    6.000    2.286 
#    5.143    0.000    0.000    0.000    0.000    0.000 
#    0.000    0.000    0.000    0.000    0.000    0.000 
#
# Total GULP energy -156486.261666 kJ/mol
# GULP energy per Si atom -5588.795059 kJ/mol
# Density = 2.137975 g / cm^3
# Si number density = 21.428520 Si / 1000 Ang^3
#
#
#
# Elastic Constant Matrix: (Units=GPa)
#
#
# Indices 1 2 3 4 5 6 
#
# 1 52.8456 1.1142 -3.6910 0.0000 -7.3856 0.0000
# 2 1.1142 100.6863 -18.0718 0.0000 -8.6528 0.0000
# 3 -3.6910 -18.0718 38.9895 0.0000 -5.6379 0.0000
# 4 0.0000 0.0000 0.0000 22.9521 0.0000 0.1948
# 5 -7.3856 -8.6528 -5.6379 0.0000 21.2407 0.0000
# 6 0.0000 0.0000 0.0000 0.1948 0.0000 32.8350
#
#
#
# Elastic Compliance Matrix: (Units=1/GPa)
#
#
# Indices 1 2 3 4 5 6 
#
# 1 0.020350 0.001173 0.003705 0.000000 0.008537 0.000000
# 2 0.001173 0.011683 0.006524 0.000000 0.006899 0.000000
# 3 0.003705 0.006524 0.030774 0.000000 0.012114 0.000000
# 4 0.000000 0.000000 0.000000 0.043571 0.000000 -0.000258
# 5 0.008537 0.006899 0.012114 0.000000 0.056074 0.000000
# 6 0.000000 0.000000 0.000000 -0.000258 0.000000 0.030457
#
#
# Mechanical properties :
#
#
# Convention : Reuss Voigt Hill
#
# Bulk Modulus (GPa) = 11.68075 16.80269 14.24172
# Shear Modulus (GPa) = 25.17093 29.61689 27.39391
#
# Velocity S-wave (km/s) = 3.43103 3.72173 3.57933
# Velocity P-wave (km/s) = 4.59987 5.13095 4.87265
#
# Compressibility (1/GPa) = 0.08561092
#
# Stress axis : x y z
#
# Youngs Moduli (GPa) = 49.13944 85.59732 32.49486
#
# Poissons Ratio (x) = -0.10045 -0.12039
# Poissons Ratio (y) = -0.05766 -0.21198
# Poissons Ratio (z) = -0.18206 -0.55840
#
# Static dielectric constant tensor:
#      x y z
#    x 1.740990 0.000000 0.010530 
#    y 0.000000 1.795480 0.000000 
#    z 0.010530 0.000000 1.858540 
# 
# From -- ./inp_files/152590.got.cif
#   From: 2010.05.17/outbox.cif.g08.bks.cpg/sg15_77_cif.got.tgz:152590.got - 2010.06.03 18:47:42.
