data_PCOD9276792
_publ_section_title
;
Structure prediction by ZEFSAII (Michael W. Deem and Ramdas Pophale) SiO2 
 PCOD9276792
Probable space group: C 2/C
;
_chemical_formula_sum "Si O2"
_cell_formula_units_Z 44
_cell_length_a 16.561146
_cell_length_b 8.283577
_cell_length_c 18.252671
_cell_angle_alpha 90.000000
_cell_angle_beta 56.619460
_cell_angle_gamma 90.000000
_cell_volume 2090.929021
_symmetry_space_group_name_H-M "C 2/C"
_symmetry_group_IT_number 15
_symmetry_cell_setting 'monoclinic'
loop_
_space_group_symop_operation_xyz
x,y,z
-x,y,1/2-z
-x,-y,-z
x,-y,1/2+z
1/2+x,1/2+y,z
1/2-x,1/2+y,1/2-z
1/2-x,1/2-y,-z
1/2+x,1/2-y,1/2+z
loop_
_atom_site_type_symbol
_atom_site_label
_atom_site_fract_x
_atom_site_fract_y
_atom_site_fract_z
Si Si1 0.000000 0.673777 0.750000
Si Si2 0.047826 0.564024 0.357059
Si Si3 0.830349 0.914816 0.892931
Si Si4 0.085862 0.098903 0.766754
Si Si5 0.024199 0.912532 0.562605
Si Si6 0.386749 0.928240 0.515308
O O1 0.044182 0.561895 0.792055
O O2 0.090316 0.780615 0.673716
O O3 0.087401 0.733428 0.307865
O O4 0.106256 0.528535 0.402567
O O5 0.936191 0.567295 0.441693
O O6 0.879452 0.974984 0.943432
O O7 0.718809 0.873048 0.956945
O O8 0.828008 0.046522 0.828741
O O9 0.000000 0.110948 0.750000
O O10 0.060018 0.958584 0.837807
O O11 0.044503 0.726983 0.533625
O O12 0.000000 0.000000 0.500000
#
# Coordination Sequence:
#
# PCOD9276792 Si02
#       6
#     4   8   8   8   8   8
#     4  12  22  40  70  86 128 174 206 258 328 364
#     4  11  23  40  64  94 129 164 206 269 314 368
#     4  11  23  43  66  91 124 173 213 256 311 392
#     4  10  20  40  65  86 125 166 206 252 322 368
#     4  11  20  39  68  89 123 170 203 256 317 374
#     4  11  24  41  65  95 128 162 219 257 315 377
#
# _framework density 21.043278000000001
#
# number of rings (size 3 to 8) (size 9 to 14) (size 15 to 20)
#    0.000    1.091    7.273    0.545    0.000    1.455 
#    0.000    5.455    0.000    0.000    0.000    0.000 
#    0.000    0.000    0.000    0.000    0.000    0.000 
#
# Total GULP energy -122615.366028 kJ/mol
# GULP energy per Si atom -5573.425729 kJ/mol
# Density = 2.099538 g / cm^3
# Si number density = 21.043278 Si / 1000 Ang^3
#
#
#
# Elastic Constant Matrix: (Units=GPa)
#
#
# Indices 1 2 3 4 5 6 
#
# 1 112.1891 32.1558 54.8741 0.0000 15.1839 0.0000
# 2 32.1558 82.0482 30.1986 0.0000 2.4594 0.0001
# 3 54.8741 30.1986 65.3233 0.0000 29.1549 0.0000
# 4 0.0000 0.0000 0.0000 28.2198 0.0000 12.0858
# 5 15.1839 2.4594 29.1549 0.0000 40.3700 0.0000
# 6 0.0000 0.0001 0.0000 12.0858 0.0000 20.6003
#
#
#
# Elastic Compliance Matrix: (Units=1/GPa)
#
#
# Indices 1 2 3 4 5 6 
#
# 1 0.015928 -0.000761 -0.015311 0.000000 0.005113 0.000000
# 2 -0.000761 0.015747 -0.009356 0.000000 0.006084 0.000000
# 3 -0.015311 -0.009356 0.043783 0.000000 -0.025291 0.000000
# 4 0.000000 0.000000 0.000000 0.047328 0.000000 -0.027766
# 5 0.005113 0.006084 -0.025291 0.000000 0.040742 0.000000
# 6 0.000000 0.000000 0.000000 -0.027766 0.000000 0.064833
#
#
# Mechanical properties :
#
#
# Convention : Reuss Voigt Hill
#
# Bulk Modulus (GPa) = 40.64387 54.89085 47.76736
# Shear Modulus (GPa) = 17.39625 27.32681 22.36153
#
# Velocity S-wave (km/s) = 2.87834 3.60752 3.26336
# Velocity P-wave (km/s) = 5.51387 6.59497 6.07850
#
# Compressibility (1/GPa) = 0.02460396
#
# Stress axis : x y z
#
# Youngs Moduli (GPa) = 62.78126 63.50281 22.83982
#
# Poissons Ratio (x) = 0.04830 0.34969
# Poissons Ratio (y) = 0.04775 0.21370
# Poissons Ratio (z) = 0.96122 0.59415
#
# Static dielectric constant tensor:
#      x y z
#    x 1.751360 0.000000 0.007670 
#    y 0.000000 1.836020 0.000000 
#    z 0.007670 0.000000 1.829200 
# 
# From -- ./inp_files/202931.got.cif
#   From: 2010.05.17/outbox.cif.g08.bks.cpg/sg15_102_cif.got.tgz:202931.got - 2010.06.03 18:47:42.
