data_PCOD9276021
_publ_section_title
;
Structure prediction by ZEFSAII (Michael W. Deem and Ramdas Pophale) SiO2 
 PCOD9276021
Probable space group: C 2/C
;
_chemical_formula_sum "Si O2"
_cell_formula_units_Z 56
_cell_length_a 9.167795
_cell_length_b 23.368696
_cell_length_c 14.585273
_cell_angle_alpha 90.000000
_cell_angle_beta 67.754731
_cell_angle_gamma 90.000000
_cell_volume 2892.171441
_symmetry_space_group_name_H-M "C 2/C"
_symmetry_group_IT_number 15
_symmetry_cell_setting 'monoclinic'
loop_
_space_group_symop_operation_xyz
x,y,z
-x,y,1/2-z
-x,-y,-z
x,-y,1/2+z
1/2+x,1/2+y,z
1/2-x,1/2+y,1/2-z
1/2-x,1/2-y,-z
1/2+x,1/2-y,1/2+z
loop_
_atom_site_type_symbol
_atom_site_label
_atom_site_fract_x
_atom_site_fract_y
_atom_site_fract_z
Si Si1 0.212650 0.726442 0.908785
Si Si2 0.858372 0.560721 0.514855
Si Si3 0.823342 0.228602 0.274989
Si Si4 0.237407 0.649146 0.615678
Si Si5 0.460284 0.965841 0.355426
Si Si6 0.098611 0.338228 0.959584
Si Si7 0.558092 0.376999 0.140773
O O1 0.206780 0.769469 0.826188
O O2 0.345788 0.679901 0.853727
O O3 0.250000 0.750000 0.000000
O O4 0.041369 0.697847 0.959574
O O5 0.863715 0.506433 0.447264
O O6 0.688379 0.588949 0.552628
O O7 0.890798 0.548025 0.614964
O O8 0.004969 0.603439 0.456263
O O9 0.819107 0.293420 0.318438
O O10 0.684589 0.193397 0.356643
O O11 0.000000 0.206094 0.250000
O O12 0.128430 0.592726 0.651580
O O13 0.229120 0.657235 0.508262
O O14 0.408793 0.636661 0.614342
O O15 0.500000 0.995355 0.250000
O O16 0.500000 0.404623 0.250000
#
# Coordination Sequence:
#
# PCOD9276021 Si02
#       7
#     8   8   8   8   8   8   8
#     4  11  24  38  58  88 123 166 205 252 306 373
#     4   9  22  42  59  90 121 161 203 260 313 371
#     4  12  23  38  64  92 126 168 208 253 315 379
#     4  11  21  36  63  91 120 159 207 260 306 371
#     4  10  20  39  67  85 117 158 209 256 316 374
#     4  10  23  41  59  86 127 162 204 250 310 382
#     4  11  21  36  60  89 123 153 207 260 309 368
#
# _framework density 19.362614000000001
#
# number of rings (size 3 to 8) (size 9 to 14) (size 15 to 20)
#    0.000    1.429    2.857    2.571    4.000    0.571 
#    5.143    0.000    0.000    6.000    0.000    0.000 
#    0.000    0.000    0.000    0.000    0.000    0.000 
#
# Total GULP energy -156205.741288 kJ/mol
# GULP energy per Si atom -5578.776475 kJ/mol
# Density = 1.931854 g / cm^3
# Si number density = 19.362614 Si / 1000 Ang^3
#
#
#
# Elastic Constant Matrix: (Units=GPa)
#
#
# Indices 1 2 3 4 5 6 
#
# 1 75.8712 10.6132 31.2658 0.0000 -1.3335 0.0000
# 2 10.6132 43.9192 30.8824 0.0000 -3.0309 0.0000
# 3 31.2658 30.8824 104.3925 0.0000 8.5362 0.0000
# 4 0.0000 0.0000 0.0000 3.4481 0.0000 -10.2777
# 5 -1.3335 -3.0309 8.5362 0.0000 26.1068 0.0000
# 6 0.0000 0.0000 0.0000 -10.2777 0.0000 5.5413
#
#
#
# Elastic Compliance Matrix: (Units=1/GPa)
#
#
# Indices 1 2 3 4 5 6 
#
# 1 0.015174 -0.000232 -0.004662 0.000000 0.002272 0.000000
# 2 -0.000232 0.029794 -0.009274 0.000000 0.006480 0.000000
# 3 -0.004662 -0.009274 0.014206 0.000000 -0.005960 0.000000
# 4 0.000000 0.000000 0.000000 -0.064044 0.000000 -0.118784
# 5 0.002272 0.006480 -0.005960 0.000000 0.041121 0.000000
# 6 0.000000 0.000000 0.000000 -0.118784 0.000000 -0.039851
#
#
# Mechanical properties :
#
#
# Convention : Reuss Voigt Hill
#
# Bulk Modulus (GPa) = 32.42771 41.07843 36.75307
# Shear Modulus (GPa) = 142.79627 17.11400 79.95514
#
# Velocity S-wave (km/s) = 8.59701 2.97622 6.43298
# Velocity P-wave (km/s) = 10.73912 5.75082 8.61396
#
# Compressibility (1/GPa) = 0.03083782
#
# Stress axis : x y z
#
# Youngs Moduli (GPa) = 65.90359 33.56426 70.39100
#
# Poissons Ratio (x) = 0.00779 0.32815
# Poissons Ratio (y) = 0.01529 0.65282
# Poissons Ratio (z) = 0.30723 0.31128
#
# Static dielectric constant tensor:
#      x y z
#    x 1.690560 0.000000 0.015750 
#    y 0.000000 1.733040 0.000000 
#    z 0.015750 0.000000 1.695110 
# 
# From -- ./inp_files/81259.got.cif
#   From: 2010.05.17/outbox.cif.g08.bks.cpg/sg15_41_cif.got.tgz:81259.got - 2010.06.03 18:47:42.
