data_PCOD9276251
_publ_section_title
;
Structure prediction by ZEFSAII (Michael W. Deem and Ramdas Pophale) SiO2 
 PCOD9276251
Probable space group: C 2/C
;
_chemical_formula_sum "Si O2"
_cell_formula_units_Z 60
_cell_length_a 17.819580
_cell_length_b 27.126248
_cell_length_c 7.515105
_cell_angle_alpha 90.000000
_cell_angle_beta 46.502701
_cell_angle_gamma 90.000000
_cell_volume 2635.141126
_symmetry_space_group_name_H-M "C 2/C"
_symmetry_group_IT_number 15
_symmetry_cell_setting 'monoclinic'
loop_
_space_group_symop_operation_xyz
x,y,z
-x,y,1/2-z
-x,-y,-z
x,-y,1/2+z
1/2+x,1/2+y,z
1/2-x,1/2+y,1/2-z
1/2-x,1/2-y,-z
1/2+x,1/2-y,1/2+z
loop_
_atom_site_type_symbol
_atom_site_label
_atom_site_fract_x
_atom_site_fract_y
_atom_site_fract_z
Si Si1 0.879656 0.841785 0.308631
Si Si2 0.253402 0.361091 0.158403
Si Si3 0.225211 0.468225 0.313602
Si Si4 0.072370 0.611265 0.472214
Si Si5 0.500000 0.951832 0.750000
Si Si6 0.895533 0.196459 0.148220
Si Si7 0.213929 0.068663 0.399277
Si Si8 0.541725 0.803176 0.483397
O O1 0.799524 0.846179 0.277238
O O2 0.853829 0.804601 0.512179
O O3 0.878597 0.894376 0.412663
O O4 0.990672 0.827840 0.049490
O O5 0.250891 0.420863 0.149528
O O6 0.137075 0.341231 0.336847
O O7 0.323646 0.334144 0.897606
O O8 0.294123 0.516834 0.183841
O O9 0.247574 0.448797 0.471745
O O10 0.101705 0.480132 0.509789
O O11 0.040291 0.582593 0.344734
O O12 0.190227 0.600608 0.329700
O O13 0.000000 0.594276 0.750000
O O14 0.048485 0.668603 0.474697
O O15 0.915209 0.252888 0.169574
O O16 0.500000 0.792749 0.750000
#
# Coordination Sequence:
#
# PCOD9276251 Si02
#       8
#     8   8   8   8   4   8   8   8
#     4  10  23  46  66  95 124 173 218 281 323 376
#     4  11  24  43  70  94 136 170 218 271 325 400
#     4  10  22  38  64  95 131 174 210 267 325 391
#     4  11  24  38  62  96 136 177 212 263 318 405
#     4  10  20  40  56  90 142 172 204 264 324 380
#     4  11  25  45  71  91 128 172 227 277 328 378
#     4  10  24  40  64  96 131 173 219 263 329 391
#     4  12  22  46  63 101 137 170 211 273 330 393
#
# _framework density 22.769179999999999
#
# number of rings (size 3 to 8) (size 9 to 14) (size 15 to 20)
#    0.000    1.333    3.333    2.400    6.533    2.667 
#    2.400    0.667    2.933    0.000    0.000    0.000 
#    0.000    0.000    0.000    0.000    0.000    0.000 
#
# Total GULP energy -167696.403855 kJ/mol
# GULP energy per Si atom -5589.880128 kJ/mol
# Density = 2.271736 g / cm^3
# Si number density = 22.769180 Si / 1000 Ang^3
#
#
#
# Elastic Constant Matrix: (Units=GPa)
#
#
# Indices 1 2 3 4 5 6 
#
# 1 51.0497 19.3830 7.8822 0.0000 1.6859 0.0000
# 2 19.3830 123.3621 31.2285 0.0000 -3.7079 0.0000
# 3 7.8822 31.2285 85.4713 0.0000 11.2399 0.0000
# 4 0.0000 0.0000 0.0000 17.0859 0.0000 14.6422
# 5 1.6859 -3.7079 11.2399 0.0000 27.6984 0.0000
# 6 0.0000 0.0000 0.0000 14.6422 0.0000 -12.9741
#
#
#
# Elastic Compliance Matrix: (Units=1/GPa)
#
#
# Indices 1 2 3 4 5 6 
#
# 1 0.020936 -0.003189 -0.000573 0.000000 -0.001469 0.000000
# 2 -0.003189 0.009608 -0.003603 0.000000 0.002942 0.000000
# 3 -0.000573 -0.003603 0.013868 0.000000 -0.006075 0.000000
# 4 0.000000 0.000000 0.000000 0.029753 0.000000 0.033578
# 5 -0.001469 0.002942 -0.006075 0.000000 0.039052 0.000000
# 6 0.000000 0.000000 0.000000 0.033578 0.000000 -0.039182
#
#
# Mechanical properties :
#
#
# Convention : Reuss Voigt Hill
#
# Bulk Modulus (GPa) = 33.68918 41.87450 37.78184
# Shear Modulus (GPa) = 50.67991 19.78799 35.23395
#
# Velocity S-wave (km/s) = 4.72297 2.95120 3.93802
# Velocity P-wave (km/s) = 6.67608 5.48120 6.10793
#
# Compressibility (1/GPa) = 0.02968312
#
# Stress axis : x y z
#
# Youngs Moduli (GPa) = 47.76372 104.08161 72.10814
#
# Poissons Ratio (x) = 0.33190 0.04128
# Poissons Ratio (y) = 0.15231 0.25983
# Poissons Ratio (z) = 0.02735 0.37503
#
# Static dielectric constant tensor:
#      x y z
#    x 1.860310 0.000000 0.025250 
#    y 0.000000 1.974810 0.000000 
#    z 0.025250 0.000000 1.867940 
# 
# From -- ./inp_files/59109.got.cif
#   From: 2010.05.17/outbox.cif.g08.bks.cpg/sg15_30_cif.got.tgz:59109.got - 2010.06.03 18:47:42.
