data_PCOD9276740
_publ_section_title
;
Structure prediction by ZEFSAII (Michael W. Deem and Ramdas Pophale) SiO2 
 PCOD9276740
Probable space group: C 2/C
;
_chemical_formula_sum "Si O2"
_cell_formula_units_Z 56
_cell_length_a 16.985104
_cell_length_b 11.507492
_cell_length_c 16.951890
_cell_angle_alpha 90.000000
_cell_angle_beta 131.866778
_cell_angle_gamma 90.000000
_cell_volume 2467.445596
_symmetry_space_group_name_H-M "C 2/C"
_symmetry_group_IT_number 15
_symmetry_cell_setting 'monoclinic'
loop_
_space_group_symop_operation_xyz
x,y,z
-x,y,1/2-z
-x,-y,-z
x,-y,1/2+z
1/2+x,1/2+y,z
1/2-x,1/2+y,1/2-z
1/2-x,1/2-y,-z
1/2+x,1/2-y,1/2+z
loop_
_atom_site_type_symbol
_atom_site_label
_atom_site_fract_x
_atom_site_fract_y
_atom_site_fract_z
Si Si1 0.376141 0.319425 0.690740
Si Si2 0.792569 0.309702 0.398896
Si Si3 0.125492 0.016860 0.161456
Si Si4 0.657706 0.090432 0.736225
Si Si5 0.558768 0.373797 0.458548
Si Si6 0.111150 0.614302 0.293318
Si Si7 0.734653 0.504263 0.481397
O O1 0.500000 0.332269 0.750000
O O2 0.354838 0.400965 0.752094
O O3 0.357764 0.189345 0.708964
O O4 0.295569 0.368368 0.570713
O O5 0.842718 0.349534 0.349758
O O6 0.885673 0.249450 0.512167
O O7 0.699303 0.212089 0.331206
O O8 0.749342 0.419728 0.416406
O O9 0.226972 0.967389 0.185994
O O10 0.059286 0.903998 0.143771
O O11 0.066076 0.094369 0.056283
O O12 0.586628 0.977233 0.706187
O O13 0.630713 0.462206 0.458046
O O14 0.167861 0.530955 0.396881
O O15 0.000000 0.663081 0.250000
#
# Coordination Sequence:
#
# PCOD9276740 Si02
#       7
#     8   8   8   8   8   8   8
#     4  12  24  41  67  99 136 173 218 266 332 395
#     4  11  23  41  71  94 130 166 227 274 315 394
#     4  11  21  40  66  89 129 174 212 265 326 385
#     4  12  23  42  65  98 135 172 208 276 330 388
#     4  10  20  40  64  95 123 170 220 268 317 384
#     4  11  25  47  65  92 135 177 214 269 337 386
#     4  11  23  42  68  99 128 169 229 272 313 397
#
# _framework density 22.695533999999999
#
# number of rings (size 3 to 8) (size 9 to 14) (size 15 to 20)
#    0.000    0.857    7.143    2.143    0.000    3.429 
#    2.571    0.714    0.000    0.000    0.000    0.000 
#    0.000    0.000    0.000    0.000    0.000    0.000 
#
# Total GULP energy -156318.890959 kJ/mol
# GULP energy per Si atom -5582.817534 kJ/mol
# Density = 2.264388 g / cm^3
# Si number density = 22.695534 Si / 1000 Ang^3
#
#
#
# Elastic Constant Matrix: (Units=GPa)
#
#
# Indices 1 2 3 4 5 6 
#
# 1 74.4959 26.4267 0.4428 0.0000 -2.0771 0.0000
# 2 26.4267 107.9431 19.6720 0.0000 -7.2664 0.0000
# 3 0.4428 19.6720 36.6211 0.0000 -12.0678 0.0000
# 4 0.0000 0.0000 0.0000 24.9938 0.0000 -20.5281
# 5 -2.0771 -7.2664 -12.0678 0.0000 33.2920 0.0000
# 6 0.0000 0.0000 0.0000 -20.5281 0.0000 47.1911
#
#
#
# Elastic Compliance Matrix: (Units=1/GPa)
#
#
# Indices 1 2 3 4 5 6 
#
# 1 0.014849 -0.003986 0.002249 0.000000 0.000872 0.000000
# 2 -0.003986 0.011342 -0.006031 0.000000 0.000041 0.000000
# 3 0.002249 -0.006031 0.034219 0.000000 0.011228 0.000000
# 4 0.000000 0.000000 0.000000 0.062251 0.000000 0.027079
# 5 0.000872 0.000041 0.011228 0.000000 0.034170 0.000000
# 6 0.000000 0.000000 0.000000 0.027079 0.000000 0.032970
#
#
# Mechanical properties :
#
#
# Convention : Reuss Voigt Hill
#
# Bulk Modulus (GPa) = 22.28518 34.68257 28.48387
# Shear Modulus (GPa) = 22.69682 32.59663 27.64672
#
# Velocity S-wave (km/s) = 3.16580 3.79391 3.49400
# Velocity P-wave (km/s) = 4.81701 5.87422 5.37169
#
# Compressibility (1/GPa) = 0.04487288
#
# Stress axis : x y z
#
# Youngs Moduli (GPa) = 67.34614 88.16809 29.22350
#
# Poissons Ratio (x) = 0.35148 -0.06573
# Poissons Ratio (y) = 0.26847 0.17625
# Poissons Ratio (z) = -0.15147 0.53174
#
# Static dielectric constant tensor:
#      x y z
#    x 1.823820 0.000000 -0.042010 
#    y 0.000000 1.876030 0.000000 
#    z -0.042010 0.000000 1.876050 
# 
# From -- ./inp_files/210702.got.cif
#   From: 2010.05.17/outbox.cif.g08.bks.cpg/sg15_106_cif.got.tgz:210702.got - 2010.06.03 18:47:42.
