data_PCOD9276525
_publ_section_title
;
Structure prediction by ZEFSAII (Michael W. Deem and Ramdas Pophale) SiO2 
 PCOD9276525
Probable space group: C 2/C
;
_chemical_formula_sum "Si O2"
_cell_formula_units_Z 48
_cell_length_a 7.233757
_cell_length_b 11.853467
_cell_length_c 22.739817
_cell_angle_alpha 90.000000
_cell_angle_beta 75.435144
_cell_angle_gamma 90.000000
_cell_volume 1887.167436
_symmetry_space_group_name_H-M "C 2/C"
_symmetry_group_IT_number 15
_symmetry_cell_setting 'monoclinic'
loop_
_space_group_symop_operation_xyz
x,y,z
-x,y,1/2-z
-x,-y,-z
x,-y,1/2+z
1/2+x,1/2+y,z
1/2-x,1/2+y,1/2-z
1/2-x,1/2-y,-z
1/2+x,1/2-y,1/2+z
loop_
_atom_site_type_symbol
_atom_site_label
_atom_site_fract_x
_atom_site_fract_y
_atom_site_fract_z
Si Si1 0.118170 0.695451 0.180153
Si Si2 0.221191 0.066337 0.668882
Si Si3 0.146401 0.129456 0.497821
Si Si4 0.761764 0.043080 0.701046
Si Si5 0.847395 0.216700 0.606288
Si Si6 0.695238 0.578115 0.055034
O O1 0.258956 0.800702 0.158167
O O2 0.217433 0.576500 0.176933
O O3 0.000000 0.714624 0.250000
O O4 0.970006 0.704437 0.139420
O O5 0.310246 0.038079 0.725523
O O6 0.989488 0.058287 0.690478
O O7 0.252585 0.986806 0.610883
O O8 0.250000 0.250000 0.500000
O O9 0.990805 0.130538 0.563234
O O10 0.020596 0.109956 0.449752
O O11 0.264089 0.014474 0.500921
O O12 0.710421 0.145246 0.660726
O O13 0.774362 0.297287 0.560989
#
# Coordination Sequence:
#
# PCOD9276525 Si02
#       6
#     8   8   8   8   8   8
#     4  11  20  38  64  93 133 169 215 272 329 401
#     4  10  20  40  62  95 126 173 209 268 328 395
#     4  11  26  44  67  98 129 176 227 273 333 387
#     4  10  21  38  66  92 132 171 213 263 334 385
#     4  11  23  43  67  96 133 171 221 277 326 389
#     4  11  24  43  69  93 135 169 218 274 330 387
#
# _framework density 25.434947000000001
#
# number of rings (size 3 to 8) (size 9 to 14) (size 15 to 20)
#    0.000    1.333    6.667    1.500    2.333    2.000 
#    0.000    1.667    0.000    0.000    0.000    0.000 
#    0.000    0.000    0.000    0.000    0.000    0.000 
#
# Total GULP energy -133917.183401 kJ/mol
# GULP energy per Si atom -5579.882642 kJ/mol
# Density = 2.537706 g / cm^3
# Si number density = 25.434947 Si / 1000 Ang^3
#
#
#
# Elastic Constant Matrix: (Units=GPa)
#
#
# Indices 1 2 3 4 5 6 
#
# 1 49.3011 54.4780 34.9239 0.0000 20.2079 0.0000
# 2 54.4780 203.7559 53.3385 0.0000 45.0990 0.0000
# 3 34.9239 53.3385 137.2559 0.0000 30.7098 0.0000
# 4 0.0000 0.0000 0.0000 48.0934 0.0000 25.0504
# 5 20.2079 45.0990 30.7098 0.0000 30.6694 0.0000
# 6 0.0000 0.0000 0.0000 25.0504 0.0000 38.0597
#
#
#
# Elastic Compliance Matrix: (Units=1/GPa)
#
#
# Indices 1 2 3 4 5 6 
#
# 1 0.033470 -0.005782 -0.004172 0.000000 -0.009373 0.000000
# 2 -0.005782 0.008308 0.000159 0.000000 -0.008567 0.000000
# 3 -0.004172 0.000159 0.009952 0.000000 -0.007451 0.000000
# 4 0.000000 0.000000 0.000000 0.031640 0.000000 -0.020825
# 5 -0.009373 -0.008567 -0.007451 0.000000 0.058840 0.000000
# 6 0.000000 0.000000 0.000000 -0.020825 0.000000 0.039981
#
#
# Mechanical properties :
#
#
# Convention : Reuss Voigt Hill
#
# Bulk Modulus (GPa) = 31.11279 75.08819 53.10049
# Shear Modulus (GPa) = 23.52991 39.86934 31.69963
#
# Velocity S-wave (km/s) = 3.04485 3.96346 3.53413
# Velocity P-wave (km/s) = 4.96189 7.10853 6.12991
#
# Compressibility (1/GPa) = 0.03214113
#
# Stress axis : x y z
#
# Youngs Moduli (GPa) = 29.87734 120.36202 100.47869
#
# Poissons Ratio (x) = 0.69594 0.41921
# Poissons Ratio (y) = 0.17275 -0.01601
# Poissons Ratio (z) = 0.12465 -0.01918
#
# Static dielectric constant tensor:
#      x y z
#    x 2.060960 0.000000 -0.028120 
#    y 0.000000 2.003350 0.000000 
#    z -0.028120 0.000000 2.072410 
# 
# From -- ./inp_files/263195.got.cif
#   From: 2010.05.17/outbox.cif.g08.bks.cpg/sg15_132_cif.got.tgz:263195.got - 2010.06.03 18:47:42.
