data_PCOD9276847
_publ_section_title
;
Structure prediction by ZEFSAII (Michael W. Deem and Ramdas Pophale) SiO2 
 PCOD9276847
Probable space group: C 2/C
;
_chemical_formula_sum "Si O2"
_cell_formula_units_Z 36
_cell_length_a 22.460638
_cell_length_b 6.794042
_cell_length_c 9.990968
_cell_angle_alpha 90.000000
_cell_angle_beta 61.963568
_cell_angle_gamma 90.000000
_cell_volume 1345.692607
_symmetry_space_group_name_H-M "C 2/C"
_symmetry_group_IT_number 15
_symmetry_cell_setting 'monoclinic'
loop_
_space_group_symop_operation_xyz
x,y,z
-x,y,1/2-z
-x,-y,-z
x,-y,1/2+z
1/2+x,1/2+y,z
1/2-x,1/2+y,1/2-z
1/2-x,1/2-y,-z
1/2+x,1/2-y,1/2+z
loop_
_atom_site_type_symbol
_atom_site_label
_atom_site_fract_x
_atom_site_fract_y
_atom_site_fract_z
Si Si1 0.217718 0.024502 0.647578
Si Si2 0.500000 0.505915 0.250000
Si Si3 0.842964 0.605950 0.172127
Si Si4 0.462390 0.890193 0.158120
Si Si5 0.367623 0.510542 0.517264
O O1 0.200540 0.254741 0.683987
O O2 0.293199 0.985145 0.615096
O O3 0.189218 0.960205 0.535903
O O4 0.170473 0.927395 0.813616
O O5 0.433947 0.407719 0.385668
O O6 0.468536 0.654501 0.171515
O O7 0.886509 0.460985 0.214836
O O8 0.887960 0.769256 0.045294
O O9 0.500000 0.967887 0.250000
O O10 0.500000 0.000000 0.000000
#
# Coordination Sequence:
#
# PCOD9276847 Si02
#       5
#     8   4   8   8   8
#     4  10  24  41  67  96 133 170 216 270 326 392
#     4  10  22  40  72  90 136 168 214 274 318 386
#     4  10  22  42  66  98 128 170 221 263 327 383
#     4  10  20  40  65  95 122 172 219 260 316 383
#     4  10  23  44  63 100 131 175 214 267 336 374
#
# _framework density 26.752022
#
# number of rings (size 3 to 8) (size 9 to 14) (size 15 to 20)
#    2.000    0.000    2.222    0.667    3.111    3.556 
#    6.000    0.000    0.000    0.000    0.000    0.000 
#    0.000    0.000    0.000    0.000    0.000    0.000 
#
# Total GULP energy -100620.287318 kJ/mol
# GULP energy per Si atom -5590.015962 kJ/mol
# Density = 2.669113 g / cm^3
# Si number density = 26.752022 Si / 1000 Ang^3
#
#
#
# Elastic Constant Matrix: (Units=GPa)
#
#
# Indices 1 2 3 4 5 6 
#
# 1 153.4193 28.7820 20.0842 0.0000 19.6716 0.0000
# 2 28.7820 54.9462 -1.6152 0.0000 6.0252 0.0000
# 3 20.0842 -1.6152 106.1955 0.0000 17.3466 0.0000
# 4 0.0000 0.0000 0.0000 17.5792 0.0000 -2.7982
# 5 19.6716 6.0252 17.3466 0.0000 58.6753 0.0000
# 6 0.0000 0.0000 0.0000 -2.7982 0.0000 44.5480
#
#
#
# Elastic Compliance Matrix: (Units=1/GPa)
#
#
# Indices 1 2 3 4 5 6 
#
# 1 0.007627 -0.003832 -0.001205 0.000000 -0.001807 0.000000
# 2 -0.003832 0.020371 0.001226 0.000000 -0.001169 0.000000
# 3 -0.001205 0.001226 0.010106 0.000000 -0.002709 0.000000
# 4 0.000000 0.000000 0.000000 0.057460 0.000000 0.003609
# 5 -0.001807 -0.001169 -0.002709 0.000000 0.018570 0.000000
# 6 0.000000 0.000000 0.000000 0.003609 0.000000 0.022674
#
#
# Mechanical properties :
#
#
# Convention : Reuss Voigt Hill
#
# Bulk Modulus (GPa) = 32.80901 45.45143 39.13022
# Shear Modulus (GPa) = 32.34326 41.98117 37.16221
#
# Velocity S-wave (km/s) = 3.48084 3.96570 3.73116
# Velocity P-wave (km/s) = 5.33346 6.16408 5.76375
#
# Compressibility (1/GPa) = 0.03047943
#
# Stress axis : x y z
#
# Youngs Moduli (GPa) = 131.12123 49.08870 98.95321
#
# Poissons Ratio (x) = 0.18812 0.11929
# Poissons Ratio (y) = 0.50249 -0.12128
# Poissons Ratio (z) = 0.15807 -0.06016
#
# Static dielectric constant tensor:
#      x y z
#    x 2.032620 0.000000 -0.078530 
#    y 0.000000 2.142230 0.000000 
#    z -0.078530 0.000000 2.165750 
# 
# From -- ./inp_files/109300.got.cif
#   From: 2010.05.17/outbox.cif.g08.bks.cpg/sg15_55_cif.got.tgz:109300.got - 2010.06.03 18:47:42.
