data_PCOD9276681
_publ_section_title
;
Structure prediction by ZEFSAII (Michael W. Deem and Ramdas Pophale) SiO2 
 PCOD9276681
Probable space group: C 2/C
;
_chemical_formula_sum "Si O2"
_cell_formula_units_Z 64
_cell_length_a 30.952229
_cell_length_b 9.393930
_cell_length_c 20.225190
_cell_angle_alpha 90.000000
_cell_angle_beta 32.649866
_cell_angle_gamma 90.000000
_cell_volume 3172.680642
_symmetry_space_group_name_H-M "C 2/C"
_symmetry_group_IT_number 15
_symmetry_cell_setting 'monoclinic'
loop_
_space_group_symop_operation_xyz
x,y,z
-x,y,1/2-z
-x,-y,-z
x,-y,1/2+z
1/2+x,1/2+y,z
1/2-x,1/2+y,1/2-z
1/2-x,1/2-y,-z
1/2+x,1/2-y,1/2+z
loop_
_atom_site_type_symbol
_atom_site_label
_atom_site_fract_x
_atom_site_fract_y
_atom_site_fract_z
Si Si1 0.816153 0.177469 0.772195
Si Si2 0.315942 0.576348 0.363469
Si Si3 0.756871 0.699314 0.839335
Si Si4 0.236910 0.920877 0.946049
Si Si5 0.351530 0.855978 0.091983
Si Si6 0.435564 0.346865 0.384444
Si Si7 0.894199 0.686031 0.047092
Si Si8 0.513417 0.655501 0.306687
O O1 0.795415 0.291162 0.855898
O O2 0.732191 0.143288 0.842093
O O3 0.875714 0.247517 0.642664
O O4 0.844519 0.034744 0.770743
O O5 0.272774 0.703331 0.381739
O O6 0.258929 0.493920 0.488174
O O7 0.393019 0.631920 0.302775
O O8 0.751691 0.537751 0.870185
O O9 0.826171 0.709530 0.695084
O O10 0.675231 0.749152 0.910418
O O11 0.146074 0.870796 0.051081
O O12 0.383313 0.016060 0.060260
O O13 0.413058 0.756560 0.973342
O O14 0.500000 0.286510 0.250000
O O15 0.469311 0.500619 0.364490
O O16 0.976001 0.742279 0.909968
O O17 0.500000 0.713150 0.250000
#
# Coordination Sequence:
#
# PCOD9276681 Si02
#       8
#     8   8   8   8   8   8   8   8
#     4  10  23  37  63  96 122 161 209 264 307 362
#     4  12  23  39  62  98 124 162 213 257 311 368
#     4  11  22  38  64  97 123 161 210 262 310 364
#     4  11  20  40  64  89 130 156 206 262 310 362
#     4  10  22  39  64  91 125 163 209 255 313 368
#     4  10  20  40  64  90 121 169 203 245 311 379
#     4  11  21  41  64  90 127 167 207 255 310 378
#     4  11  23  42  64  90 126 171 206 251 314 376
#
# _framework density 20.172215999999999
#
# number of rings (size 3 to 8) (size 9 to 14) (size 15 to 20)
#    0.000    1.250    6.250    0.750    1.750    1.000 
#    0.000    1.875    0.000    0.000    0.000    0.000 
#    0.000    0.000    0.000    0.000    0.000    0.000 
#
# Total GULP energy -178862.200098 kJ/mol
# GULP energy per Si atom -5589.443753 kJ/mol
# Density = 2.012630 g / cm^3
# Si number density = 20.172216 Si / 1000 Ang^3
#
#
#
# Elastic Constant Matrix: (Units=GPa)
#
#
# Indices 1 2 3 4 5 6 
#
# 1 38.3987 -7.4620 5.6746 0.0001 12.1373 -0.0008
# 2 -7.4620 38.5144 7.7583 -0.0010 2.3929 0.0000
# 3 5.6746 7.7583 103.9965 0.0004 18.6985 -0.0016
# 4 0.0001 -0.0010 0.0004 37.4064 -0.0006 15.0048
# 5 12.1373 2.3929 18.6985 -0.0006 15.8536 0.0009
# 6 -0.0008 0.0000 -0.0016 15.0048 0.0009 -9.2182
#
#
#
# Elastic Compliance Matrix: (Units=1/GPa)
#
#
# Indices 1 2 3 4 5 6 
#
# 1 0.038223 0.008859 0.003497 0.000001 -0.034725 -0.000005
# 2 0.008859 0.028469 -0.000781 0.000001 -0.010158 0.000000
# 3 0.003497 -0.000781 0.012619 0.000001 -0.017443 -0.000003
# 4 0.000001 0.000001 0.000001 0.016173 -0.000003 0.026326
# 5 -0.034725 -0.010158 -0.017443 -0.000003 0.111768 0.000012
# 6 -0.000005 0.000000 -0.000003 0.026326 0.000012 -0.065629
#
#
# Mechanical properties :
#
#
# Convention : Reuss Voigt Hill
#
# Bulk Modulus (GPa) = 9.75981 21.42795 15.59388
# Shear Modulus (GPa) = 32.75933 20.47093 26.61513
#
# Velocity S-wave (km/s) = 4.03424 3.18906 3.63629
# Velocity P-wave (km/s) = 5.15256 4.91993 5.03759
#
# Compressibility (1/GPa) = 0.10246105
#
# Stress axis : x y z
#
# Youngs Moduli (GPa) = 26.16212 35.12588 79.24281
#
# Poissons Ratio (x) = -0.31116 -0.27711
# Poissons Ratio (y) = -0.23176 0.06187
# Poissons Ratio (z) = -0.09149 0.02743
#
# Static dielectric constant tensor:
#      x y z
#    x 1.701360 0.000000 0.018650 
#    y 0.000000 1.696180 0.000000 
#    z 0.018650 0.000000 1.719870 
# 
# From -- ./inp_files/224574.got.cif
#   From: 2010.05.17/outbox.cif.g08.bks.cpg/sg15_113_cif.got.tgz:224574.got - 2010.06.03 18:47:42.
