data_PCOD9276123
_publ_section_title
;
Structure prediction by ZEFSAII (Michael W. Deem and Ramdas Pophale) SiO2 
 PCOD9276123
Probable space group: C 2/C
;
_chemical_formula_sum "Si O2"
_cell_formula_units_Z 40
_cell_length_a 12.447653
_cell_length_b 19.328364
_cell_length_c 7.580620
_cell_angle_alpha 90.000000
_cell_angle_beta 121.120369
_cell_angle_gamma 90.000000
_cell_volume 1561.361160
_symmetry_space_group_name_H-M "C 2/C"
_symmetry_group_IT_number 15
_symmetry_cell_setting 'monoclinic'
loop_
_space_group_symop_operation_xyz
x,y,z
-x,y,1/2-z
-x,-y,-z
x,-y,1/2+z
1/2+x,1/2+y,z
1/2-x,1/2+y,1/2-z
1/2-x,1/2-y,-z
1/2+x,1/2-y,1/2+z
loop_
_atom_site_type_symbol
_atom_site_label
_atom_site_fract_x
_atom_site_fract_y
_atom_site_fract_z
Si Si1 0.131397 0.469857 0.264021
Si Si2 0.626621 0.401556 0.939727
Si Si3 0.747500 0.807404 0.728582
Si Si4 0.139128 0.827029 0.307902
Si Si5 0.521378 0.883902 0.578373
O O1 0.257708 0.454915 0.472069
O O2 0.106198 0.547055 0.179682
O O3 0.000000 0.453267 0.250000
O O4 0.112700 0.412696 0.096259
O O5 0.500000 0.430413 0.750000
O O6 0.662300 0.333511 0.851303
O O7 0.612292 0.383032 0.133052
O O8 0.725797 0.729762 0.779245
O O9 0.608976 0.832085 0.547868
O O10 0.794321 0.844421 0.949386
O O11 0.000000 0.801635 0.250000
O O12 0.500000 0.851336 0.750000
#
# Coordination Sequence:
#
# PCOD9276123 Si02
#       5
#     8   8   8   8   8
#     4  10  21  40  67  98 129 165 223 272 325 390
#     4  12  24  44  66  98 138 176 216 272 332 400
#     4  11  23  43  68  95 130 176 221 272 332 390
#     4  11  24  43  64  97 133 175 221 272 330 394
#     4  10  20  39  68  96 128 165 220 281 322 378
#
# _framework density 25.618673000000001
#
# number of rings (size 3 to 8) (size 9 to 14) (size 15 to 20)
#    0.000    1.200    4.000    2.400    0.000    1.600 
#    3.600    2.000    0.000    0.000    0.000    0.000 
#    0.000    0.000    0.000    0.000    0.000    0.000 
#
# Total GULP energy -111653.919085 kJ/mol
# GULP energy per Si atom -5582.695954 kJ/mol
# Density = 2.556036 g / cm^3
# Si number density = 25.618673 Si / 1000 Ang^3
#
#
#
# Elastic Constant Matrix: (Units=GPa)
#
#
# Indices 1 2 3 4 5 6 
#
# 1 86.9266 6.4814 40.6442 0.0000 6.5151 0.0000
# 2 6.4814 48.6115 25.3755 0.0000 11.5070 0.0000
# 3 40.6442 25.3755 165.5688 0.0000 24.5415 0.0000
# 4 0.0000 0.0000 0.0000 24.1331 0.0000 5.6743
# 5 6.5151 11.5070 24.5415 0.0000 53.8966 0.0000
# 6 0.0000 0.0000 0.0000 5.6743 0.0000 18.8038
#
#
#
# Elastic Compliance Matrix: (Units=1/GPa)
#
#
# Indices 1 2 3 4 5 6 
#
# 1 0.012997 -0.000053 -0.003165 0.000000 -0.000119 0.000000
# 2 -0.000053 0.022974 -0.002983 0.000000 -0.003540 0.000000
# 3 -0.003165 -0.002983 0.007638 0.000000 -0.002459 0.000000
# 4 0.000000 0.000000 0.000000 0.044601 0.000000 -0.013459
# 5 -0.000119 -0.003540 -0.002459 0.000000 0.020444 0.000000
# 6 0.000000 0.000000 0.000000 -0.013459 0.000000 0.057242
#
#
# Mechanical properties :
#
#
# Convention : Reuss Voigt Hill
#
# Bulk Modulus (GPa) = 32.04418 49.56766 40.80592
# Shear Modulus (GPa) = 26.49714 34.60708 30.55211
#
# Velocity S-wave (km/s) = 3.21953 3.67938 3.45711
# Velocity P-wave (km/s) = 5.13379 6.11888 5.64785
#
# Compressibility (1/GPa) = 0.03120692
#
# Stress axis : x y z
#
# Youngs Moduli (GPa) = 76.94371 43.52819 130.91880
#
# Poissons Ratio (x) = 0.00229 0.41432
# Poissons Ratio (y) = 0.00406 0.39057
# Poissons Ratio (z) = 0.24351 0.12986
#
# Static dielectric constant tensor:
#      x y z
#    x 2.140440 0.000000 -0.109150 
#    y 0.000000 2.036840 0.000000 
#    z -0.109150 0.000000 2.226010 
# 
# From -- ./inp_files/33888.got.cif
#   From: 2010.05.17/outbox.cif.g08.bks.cpg/sg15_17_cif.got.tgz:33888.got - 2010.06.03 18:47:42.
