data_PCOD9276568
_publ_section_title
;
Structure prediction by ZEFSAII (Michael W. Deem and Ramdas Pophale) SiO2 
 PCOD9276568
Probable space group: C 2/C
;
_chemical_formula_sum "Si O2"
_cell_formula_units_Z 40
_cell_length_a 11.365562
_cell_length_b 16.787524
_cell_length_c 10.219854
_cell_angle_alpha 90.000000
_cell_angle_beta 98.079739
_cell_angle_gamma 90.000000
_cell_volume 1930.588236
_symmetry_space_group_name_H-M "C 2/C"
_symmetry_group_IT_number 15
_symmetry_cell_setting 'monoclinic'
loop_
_space_group_symop_operation_xyz
x,y,z
-x,y,1/2-z
-x,-y,-z
x,-y,1/2+z
1/2+x,1/2+y,z
1/2-x,1/2+y,1/2-z
1/2-x,1/2-y,-z
1/2+x,1/2-y,1/2+z
loop_
_atom_site_type_symbol
_atom_site_label
_atom_site_fract_x
_atom_site_fract_y
_atom_site_fract_z
Si Si1 0.860686 0.921917 0.226266
Si Si2 0.514238 0.167338 0.098771
Si Si3 0.645237 0.311180 0.024463
Si Si4 0.235708 0.093204 0.313811
Si Si5 0.252888 0.157649 0.034079
O O1 0.834058 0.857667 0.336176
O O2 0.000000 0.940713 0.250000
O O3 0.785701 0.002438 0.228532
O O4 0.829804 0.887156 0.080021
O O5 0.500000 0.188475 0.250000
O O6 0.536905 0.250155 0.026979
O O7 0.631141 0.111793 0.111192
O O8 0.390039 0.129318 0.037425
O O9 0.750000 0.250000 0.000000
O O10 0.644230 0.376476 0.909950
O O11 0.220931 0.143744 0.179562
O O12 0.250000 0.250000 0.000000
#
# Coordination Sequence:
#
# PCOD9276568 Si02
#       5
#     8   8   8   8   8
#     4  12  25  41  61  88 125 161 196 247 306 362
#     4   9  19  39  64  87 120 159 200 252 300 355
#     4  10  20  40  63  89 121 153 200 252 293 351
#     4  10  23  40  61  92 123 156 200 250 301 354
#     4  11  22  40  65  88 117 164 205 240 303 365
#
# _framework density 20.719073000000002
#
# number of rings (size 3 to 8) (size 9 to 14) (size 15 to 20)
#    0.000    1.600    0.000    6.600    0.000    5.600 
#    0.000   16.000    0.000    0.000    0.000    0.000 
#    0.000    0.000    0.000    0.000    0.000    0.000 
#
# Total GULP energy -111706.845350 kJ/mol
# GULP energy per Si atom -5585.342267 kJ/mol
# Density = 2.067192 g / cm^3
# Si number density = 20.719073 Si / 1000 Ang^3
#
#
#
# Elastic Constant Matrix: (Units=GPa)
#
#
# Indices 1 2 3 4 5 6 
#
# 1 87.1819 13.3323 28.1202 0.0000 10.4708 0.0000
# 2 13.3323 60.8529 -3.7576 0.0000 12.4470 0.0000
# 3 28.1202 -3.7576 62.6216 0.0000 19.0617 0.0000
# 4 0.0000 0.0000 0.0000 20.1174 0.0000 2.6280
# 5 10.4708 12.4470 19.0617 0.0000 29.2047 0.0000
# 6 0.0000 0.0000 0.0000 2.6280 0.0000 16.9656
#
#
#
# Elastic Compliance Matrix: (Units=1/GPa)
#
#
# Indices 1 2 3 4 5 6 
#
# 1 0.014138 -0.003729 -0.006880 0.000000 0.001011 0.000000
# 2 -0.003729 0.019947 0.006305 0.000000 -0.011279 0.000000
# 3 -0.006880 0.006305 0.024340 0.000000 -0.016107 0.000000
# 4 0.000000 0.000000 0.000000 0.050735 0.000000 -0.007859
# 5 0.001011 -0.011279 -0.016107 0.000000 0.049198 0.000000
# 6 0.000000 0.000000 0.000000 -0.007859 0.000000 0.060160
#
#
# Mechanical properties :
#
#
# Convention : Reuss Voigt Hill
#
# Bulk Modulus (GPa) = 20.07426 31.78291 25.92858
# Shear Modulus (GPa) = 20.51428 24.78831 22.65130
#
# Velocity S-wave (km/s) = 3.15002 3.46265 3.31003
# Velocity P-wave (km/s) = 4.78957 5.59999 5.21056
#
# Compressibility (1/GPa) = 0.04981504
#
# Stress axis : x y z
#
# Youngs Moduli (GPa) = 70.72956 50.13404 41.08515
#
# Poissons Ratio (x) = 0.18696 0.28268
# Poissons Ratio (y) = 0.26377 -0.25904
# Poissons Ratio (z) = 0.48665 -0.31609
#
# Static dielectric constant tensor:
#      x y z
#    x 1.802610 0.000000 -0.040480 
#    y 0.000000 1.736790 0.000000 
#    z -0.040480 0.000000 1.809180 
# 
# From -- ./inp_files/29319.got.cif
#   From: 2010.05.17/outbox.cif.g08.bks.cpg/sg15_15_cif.got.tgz:29319.got - 2010.06.03 18:47:42.
