data_PCOD9276034
_publ_section_title
;
Structure prediction by ZEFSAII (Michael W. Deem and Ramdas Pophale) SiO2 
 PCOD9276034
Probable space group: C 2/C
;
_chemical_formula_sum "Si O2"
_cell_formula_units_Z 56
_cell_length_a 26.473453
_cell_length_b 7.483032
_cell_length_c 13.467926
_cell_angle_alpha 90.000000
_cell_angle_beta 59.175178
_cell_angle_gamma 90.000000
_cell_volume 2291.129247
_symmetry_space_group_name_H-M "C 2/C"
_symmetry_group_IT_number 15
_symmetry_cell_setting 'monoclinic'
loop_
_space_group_symop_operation_xyz
x,y,z
-x,y,1/2-z
-x,-y,-z
x,-y,1/2+z
1/2+x,1/2+y,z
1/2-x,1/2+y,1/2-z
1/2-x,1/2-y,-z
1/2+x,1/2-y,1/2+z
loop_
_atom_site_type_symbol
_atom_site_label
_atom_site_fract_x
_atom_site_fract_y
_atom_site_fract_z
Si Si1 0.886645 0.689072 0.249806
Si Si2 0.908099 0.799497 0.020545
Si Si3 0.496851 0.021002 0.641131
Si Si4 0.739281 0.921430 0.579725
Si Si5 0.420307 0.690949 0.938792
Si Si6 0.218057 0.630719 0.410284
Si Si7 0.809413 0.746688 0.663026
O O1 0.897382 0.826696 0.149390
O O2 0.821211 0.617361 0.304396
O O3 0.894325 0.764267 0.354413
O O4 0.928901 0.518680 0.191286
O O5 0.846468 0.722231 0.037661
O O6 0.960472 0.653081 0.960254
O O7 0.928174 0.980380 0.946073
O O8 0.500000 0.089812 0.750000
O O9 0.523807 0.820251 0.611835
O O10 0.750000 0.750000 0.500000
O O11 0.789905 0.910812 0.609963
O O12 0.732515 0.078817 0.508736
O O13 0.378528 0.751027 0.072342
O O14 0.211943 0.438773 0.362155
O O15 0.273398 0.724067 0.299898
#
# Coordination Sequence:
#
# PCOD9276034 Si02
#       7
#     8   8   8   8   8   8   8
#     4  11  22  44  70  98 137 183 221 288 343 393
#     4  12  24  43  72 100 131 182 235 270 343 414
#     4  10  23  46  70  96 138 179 223 283 341 399
#     4  10  20  39  67  91 136 180 213 277 349 387
#     4  11  24  42  68 100 139 177 222 288 340 396
#     4  11  21  39  66  99 131 179 227 275 338 403
#     4  11  21  38  66  94 139 177 220 282 341 401
#
# _framework density 24.442097
#
# number of rings (size 3 to 8) (size 9 to 14) (size 15 to 20)
#    0.000    1.143    5.714    2.143    2.000    2.286 
#    0.000    8.571    0.000    0.000    0.000    0.000 
#    0.000    0.000    0.000    0.000    0.000    0.000 
#
# Total GULP energy -156536.278191 kJ/mol
# GULP energy per Si atom -5590.581364 kJ/mol
# Density = 2.438647 g / cm^3
# Si number density = 24.442097 Si / 1000 Ang^3
#
#
#
# Elastic Constant Matrix: (Units=GPa)
#
#
# Indices 1 2 3 4 5 6 
#
# 1 45.6180 10.0588 19.8837 0.0000 0.2661 0.0000
# 2 10.0588 125.7280 28.0310 0.0000 2.7120 0.0000
# 3 19.8837 28.0310 121.3287 0.0000 -2.5711 0.0000
# 4 0.0000 0.0000 0.0000 44.1668 0.0000 6.0066
# 5 0.2661 2.7120 -2.5711 0.0000 51.0668 0.0000
# 6 0.0000 0.0000 0.0000 6.0066 0.0000 11.3172
#
#
#
# Elastic Compliance Matrix: (Units=1/GPa)
#
#
# Indices 1 2 3 4 5 6 
#
# 1 0.023751 -0.001082 -0.003648 0.000000 -0.000250 0.000000
# 2 -0.001082 0.008450 -0.001786 0.000000 -0.000533 0.000000
# 3 -0.003648 -0.001786 0.009265 0.000000 0.000580 0.000000
# 4 0.000000 0.000000 0.000000 0.024403 0.000000 -0.012952
# 5 -0.000250 -0.000533 0.000580 0.000000 0.019641 0.000000
# 6 0.000000 0.000000 0.000000 -0.012952 0.000000 0.095235
#
#
# Mechanical properties :
#
#
# Convention : Reuss Voigt Hill
#
# Bulk Modulus (GPa) = 35.16832 45.40242 40.28537
# Shear Modulus (GPa) = 24.59969 36.95690 30.77829
#
# Velocity S-wave (km/s) = 3.17590 3.89269 3.55242
# Velocity P-wave (km/s) = 5.27902 6.23056 5.77442
#
# Compressibility (1/GPa) = 0.02843468
#
# Stress axis : x y z
#
# Youngs Moduli (GPa) = 42.10330 118.34385 107.93447
#
# Poissons Ratio (x) = 0.12799 0.39373
# Poissons Ratio (y) = 0.04554 0.19280
# Poissons Ratio (z) = 0.15359 0.21140
#
# Static dielectric constant tensor:
#      x y z
#    x 2.008540 0.000000 0.058260 
#    y 0.000000 1.980940 0.000000 
#    z 0.058260 0.000000 1.933290 
# 
# From -- ./inp_files/180760.got.cif
#   From: 2010.05.17/outbox.cif.g08.bks.cpg/sg15_91_cif.got.tgz:180760.got - 2010.06.03 18:47:42.
