data_PCOD9276203
_publ_section_title
;
Structure prediction by ZEFSAII (Michael W. Deem and Ramdas Pophale) SiO2 
 PCOD9276203
Probable space group: C 2/C
;
_chemical_formula_sum "Si O2"
_cell_formula_units_Z 48
_cell_length_a 7.291852
_cell_length_b 17.623001
_cell_length_c 16.254849
_cell_angle_alpha 90.000000
_cell_angle_beta 58.253607
_cell_angle_gamma 90.000000
_cell_volume 1776.300429
_symmetry_space_group_name_H-M "C 2/C"
_symmetry_group_IT_number 15
_symmetry_cell_setting 'monoclinic'
loop_
_space_group_symop_operation_xyz
x,y,z
-x,y,1/2-z
-x,-y,-z
x,-y,1/2+z
1/2+x,1/2+y,z
1/2-x,1/2+y,1/2-z
1/2-x,1/2-y,-z
1/2+x,1/2-y,1/2+z
loop_
_atom_site_type_symbol
_atom_site_label
_atom_site_fract_x
_atom_site_fract_y
_atom_site_fract_z
Si Si1 0.978739 0.050184 0.347522
Si Si2 0.330884 0.771070 0.709366
Si Si3 0.938598 0.734683 0.889997
Si Si4 0.354623 0.923673 0.433513
Si Si5 0.646594 0.909088 0.610404
Si Si6 0.022143 0.118359 0.608341
O O1 0.185867 0.067853 0.356467
O O2 0.000000 0.080267 0.250000
O O3 0.775609 0.078396 0.449873
O O4 0.948130 0.959492 0.349961
O O5 0.185389 0.756220 0.663716
O O6 0.466850 0.847271 0.670667
O O7 0.475257 0.694772 0.668406
O O8 0.166735 0.775704 0.825356
O O9 0.010481 0.647327 0.887275
O O10 0.750000 0.750000 0.000000
O O11 0.179580 0.902263 0.404450
O O12 0.441681 0.007660 0.396353
O O13 0.781767 0.875691 0.502001
#
# Coordination Sequence:
#
# PCOD9276203 Si02
#       6
#     8   8   8   8   8   8
#     4   9  17  34  65 108 148 193 239 298 371 452
#     4  10  20  39  71 101 143 202 244 306 376 444
#     4  10  22  43  66  97 145 201 256 295 372 453
#     4   8  17  37  65  98 143 199 238 304 372 442
#     4   9  17  35  69 108 150 186 245 311 376 440
#     4   8  16  34  65 102 147 188 235 297 377 452
#
# _framework density 27.022455000000001
#
# number of rings (size 3 to 8) (size 9 to 14) (size 15 to 20)
#    0.000    3.000    0.000    2.500    0.000    0.000 
#    9.000    4.167    0.000   27.000    0.000    7.000 
#    0.000    0.000    0.000    0.000    0.000    0.000 
#
# Total GULP energy -134421.310858 kJ/mol
# GULP energy per Si atom -5600.887952 kJ/mol
# Density = 2.696095 g / cm^3
# Si number density = 27.022455 Si / 1000 Ang^3
#
#
#
# Elastic Constant Matrix: (Units=GPa)
#
#
# Indices 1 2 3 4 5 6 
#
# 1 105.9601 58.7690 63.2716 0.0000 -1.8812 0.0000
# 2 58.7690 250.3837 91.1834 0.0000 -47.6824 0.0000
# 3 63.2716 91.1834 185.0126 0.0000 -8.5417 0.0000
# 4 0.0000 0.0000 0.0000 39.4184 0.0000 -13.2246
# 5 -1.8812 -47.6824 -8.5417 0.0000 52.8055 0.0000
# 6 0.0000 0.0000 0.0000 -13.2246 0.0000 42.4826
#
#
#
# Elastic Compliance Matrix: (Units=1/GPa)
#
#
# Indices 1 2 3 4 5 6 
#
# 1 0.012575 -0.002112 -0.003352 0.000000 -0.002001 0.000000
# 2 -0.002112 0.006258 -0.002121 0.000000 0.005233 0.000000
# 3 -0.003352 -0.002121 0.007559 0.000000 -0.000812 0.000000
# 4 0.000000 0.000000 0.000000 0.028327 0.000000 0.008818
# 5 -0.002001 0.005233 -0.000812 0.000000 0.023460 0.000000
# 6 0.000000 0.000000 0.000000 0.008818 0.000000 0.026284
#
#
# Mechanical properties :
#
#
# Convention : Reuss Voigt Hill
#
# Bulk Modulus (GPa) = 89.10023 107.53381 98.31702
# Shear Modulus (GPa) = 40.52725 48.81681 44.67203
#
# Velocity S-wave (km/s) = 3.87688 4.25494 4.07030
# Velocity P-wave (km/s) = 7.28591 8.00125 7.65194
#
# Compressibility (1/GPa) = 0.01122332
#
# Stress axis : x y z
#
# Youngs Moduli (GPa) = 79.52366 159.78547 132.29231
#
# Poissons Ratio (x) = 0.33746 0.44344
# Poissons Ratio (y) = 0.16795 0.28054
# Poissons Ratio (z) = 0.26656 0.33884
#
# Static dielectric constant tensor:
#      x y z
#    x 2.143010 0.000000 0.067720 
#    y 0.000000 2.125710 0.000000 
#    z 0.067720 0.000000 1.961210 
# 
# From -- ./inp_files/199027.got.cif
#   From: 2010.05.17/outbox.cif.g08.bks.cpg/sg15_100_cif.got.tgz:199027.got - 2010.06.03 18:47:42.
