data_PCOD9276641
_publ_section_title
;
Structure prediction by ZEFSAII (Michael W. Deem and Ramdas Pophale) SiO2 
 PCOD9276641
Probable space group: C 2/C
;
_chemical_formula_sum "Si O2"
_cell_formula_units_Z 64
_cell_length_a 15.225580
_cell_length_b 10.362547
_cell_length_c 21.782169
_cell_angle_alpha 90.000000
_cell_angle_beta 54.524472
_cell_angle_gamma 90.000000
_cell_volume 2798.722038
_symmetry_space_group_name_H-M "C 2/C"
_symmetry_group_IT_number 15
_symmetry_cell_setting 'monoclinic'
loop_
_space_group_symop_operation_xyz
x,y,z
-x,y,1/2-z
-x,-y,-z
x,-y,1/2+z
1/2+x,1/2+y,z
1/2-x,1/2+y,1/2-z
1/2-x,1/2-y,-z
1/2+x,1/2-y,1/2+z
loop_
_atom_site_type_symbol
_atom_site_label
_atom_site_fract_x
_atom_site_fract_y
_atom_site_fract_z
Si Si1 0.341729 0.898793 0.948028
Si Si2 0.866681 0.094522 0.766491
Si Si3 0.907724 0.130010 0.328695
Si Si4 0.290184 0.463468 0.681429
Si Si5 0.430231 0.854784 0.680349
Si Si6 0.317977 0.261501 0.113090
Si Si7 0.796093 0.261279 0.089167
Si Si8 0.829926 0.134593 0.484632
O O1 0.458409 0.931619 0.871923
O O2 0.298401 0.792131 0.917524
O O3 0.358068 0.843724 0.011147
O O4 0.248444 0.008812 0.984529
O O5 0.934441 0.214183 0.711981
O O6 0.752074 0.152013 0.836304
O O7 0.903827 0.019513 0.811689
O O8 0.851703 0.982684 0.721219
O O9 0.790748 0.187689 0.360969
O O10 0.919772 0.132377 0.396351
O O11 0.000000 0.193329 0.250000
O O12 0.167737 0.421985 0.744902
O O13 0.284787 0.609589 0.661440
O O14 0.336448 0.365369 0.610897
O O15 0.389141 0.824534 0.628429
O O16 0.376815 0.320707 0.030187
O O17 0.750000 0.250000 0.500000
#
# Coordination Sequence:
#
# PCOD9276641 Si02
#       8
#     8   8   8   8   8   8   8   8
#     4  11  22  41  67  96 127 166 231 272 337 403
#     4  10  21  39  59  89 129 164 213 264 327 389
#     4  11  23  39  65  91 123 172 215 259 326 405
#     4  10  20  40  64  85 128 170 210 272 332 389
#     4  10  23  38  65  97 125 173 216 277 330 400
#     4  10  21  44  60  93 137 168 215 278 337 396
#     4  10  22  39  64  89 126 172 209 282 331 385
#     4  10  22  42  65  91 133 171 209 276 331 396
#
# _framework density 22.867581000000001
#
# number of rings (size 3 to 8) (size 9 to 14) (size 15 to 20)
#    0.000    1.750    3.750    0.000    1.750    3.500 
#    2.250    6.875    0.000    0.000    0.000    0.000 
#    0.000    0.000    0.000    0.000    0.000    0.000 
#
# Total GULP energy -178338.864883 kJ/mol
# GULP energy per Si atom -5573.089528 kJ/mol
# Density = 2.281553 g / cm^3
# Si number density = 22.867581 Si / 1000 Ang^3
#
#
#
# Elastic Constant Matrix: (Units=GPa)
#
#
# Indices 1 2 3 4 5 6 
#
# 1 24.9552 -7.3152 27.1834 0.0000 12.6271 0.0000
# 2 -7.3152 32.1788 -2.4307 0.0000 0.3394 0.0000
# 3 27.1834 -2.4307 117.3060 0.0000 10.9633 0.0000
# 4 0.0000 0.0000 0.0000 22.2955 0.0000 11.8930
# 5 12.6271 0.3394 10.9633 0.0000 34.0158 0.0000
# 6 0.0000 0.0000 0.0000 11.8930 0.0000 19.7988
#
#
#
# Elastic Compliance Matrix: (Units=1/GPa)
#
#
# Indices 1 2 3 4 5 6 
#
# 1 0.071028 0.015314 -0.014088 0.000000 -0.021979 0.000000
# 2 0.015314 0.034436 -0.002342 0.000000 -0.005273 0.000000
# 3 -0.014088 -0.002342 0.011599 0.000000 0.001515 0.000000
# 4 0.000000 0.000000 0.000000 0.066000 0.000000 -0.039646
# 5 -0.021979 -0.005273 0.001515 0.000000 0.037121 0.000000
# 6 0.000000 0.000000 0.000000 -0.039646 0.000000 0.074323
#
#
# Mechanical properties :
#
#
# Convention : Reuss Voigt Hill
#
# Bulk Modulus (GPa) = 8.70842 23.25725 15.98283
# Shear Modulus (GPa) = 14.92465 25.68887 20.30676
#
# Velocity S-wave (km/s) = 2.55748 3.35531 2.98319
# Velocity P-wave (km/s) = 3.54082 5.02029 4.34400
#
# Compressibility (1/GPa) = 0.11483146
#
# Stress axis : x y z
#
# Youngs Moduli (GPa) = 14.07904 29.03899 86.21266
#
# Poissons Ratio (x) = -0.44471 1.21455
# Poissons Ratio (y) = -0.21561 0.20195
# Poissons Ratio (z) = 0.19834 0.06802
#
# Static dielectric constant tensor:
#      x y z
#    x 2.264690 0.000000 0.050740 
#    y 0.000000 1.854170 0.000000 
#    z 0.050740 0.000000 1.977200 
# 
# From -- ./inp_files/277086.got.cif
#   From: 2010.05.17/outbox.cif.g08.bks.cpg/sg15_139_cif.got.tgz:277086.got - 2010.06.03 18:47:42.
