data_PCOD9276668
_publ_section_title
;
Structure prediction by ZEFSAII (Michael W. Deem and Ramdas Pophale) SiO2 
 PCOD9276668
Probable space group: C 2/C
;
_chemical_formula_sum "Si O2"
_cell_formula_units_Z 56
_cell_length_a 8.779086
_cell_length_b 15.905687
_cell_length_c 20.566054
_cell_angle_alpha 90.000000
_cell_angle_beta 91.722431
_cell_angle_gamma 90.000000
_cell_volume 2870.492624
_symmetry_space_group_name_H-M "C 2/C"
_symmetry_group_IT_number 15
_symmetry_cell_setting 'monoclinic'
loop_
_space_group_symop_operation_xyz
x,y,z
-x,y,1/2-z
-x,-y,-z
x,-y,1/2+z
1/2+x,1/2+y,z
1/2-x,1/2+y,1/2-z
1/2-x,1/2-y,-z
1/2+x,1/2-y,1/2+z
loop_
_atom_site_type_symbol
_atom_site_label
_atom_site_fract_x
_atom_site_fract_y
_atom_site_fract_z
Si Si1 0.735666 0.295592 0.333031
Si Si2 0.000000 0.684812 0.250000
Si Si3 0.811229 0.162055 0.024415
Si Si4 0.547916 0.453719 0.324545
Si Si5 0.220259 0.128672 0.326718
Si Si6 0.000000 0.740168 0.750000
Si Si7 0.171584 0.816467 0.547016
Si Si8 0.355354 0.505360 0.948247
O O1 0.602413 0.244378 0.296052
O O2 0.655408 0.380723 0.355646
O O3 0.803954 0.229815 0.384722
O O4 0.877070 0.314310 0.287459
O O5 0.120802 0.633446 0.209120
O O6 0.757740 0.143673 0.096678
O O7 0.993724 0.173649 0.029075
O O8 0.750000 0.250000 0.000000
O O9 0.767536 0.085554 0.975983
O O10 0.500000 0.428767 0.250000
O O11 0.640822 0.539320 0.317448
O O12 0.417157 0.474064 0.376367
O O13 0.104704 0.198956 0.296239
O O14 0.250000 0.750000 0.500000
O O15 0.225404 0.914101 0.550124
O O16 0.500000 0.500000 0.000000
#
# Coordination Sequence:
#
# PCOD9276668 Si02
#       8
#     8   4   8   8   8   4   8   8
#     4  11  22  41  63  96 128 172 215 271 328 395
#     4  10  26  38  64  96 132 166 222 272 328 400
#     4  11  24  42  68  97 130 171 224 274 326 397
#     4  12  23  39  68  98 129 173 223 269 335 404
#     4  11  22  42  65  93 129 176 211 277 333 389
#     4  10  20  40  64  88 132 168 220 256 338 392
#     4  11  23  41  68  93 128 174 218 270 325 394
#     4  10  21  42  64  98 126 177 219 265 324 410
#
# _framework density 19.508848
#
# number of rings (size 3 to 8) (size 9 to 14) (size 15 to 20)
#    0.000    1.143    5.714    1.714    6.000    0.571 
#    0.000    2.143    0.000    0.000    0.000    0.000 
#    0.000    0.000    0.000    0.000    0.000    0.000 
#
# Total GULP energy -156203.788933 kJ/mol
# GULP energy per Si atom -5578.706748 kJ/mol
# Density = 1.946444 g / cm^3
# Si number density = 19.508848 Si / 1000 Ang^3
#
#
#
# Elastic Constant Matrix: (Units=GPa)
#
#
# Indices 1 2 3 4 5 6 
#
# 1 61.4943 25.5660 32.6958 0.0000 -17.4381 0.0000
# 2 25.5660 134.3406 35.1102 0.0000 -16.3289 0.0000
# 3 32.6958 35.1102 89.6017 0.0000 -23.2396 0.0000
# 4 0.0000 0.0000 0.0000 22.4725 0.0000 -5.0631
# 5 -17.4381 -16.3289 -23.2396 0.0000 31.3214 0.0000
# 6 0.0000 0.0000 0.0000 -5.0631 0.0000 31.3567
#
#
#
# Elastic Compliance Matrix: (Units=1/GPa)
#
#
# Indices 1 2 3 4 5 6 
#
# 1 0.021971 -0.001890 -0.005399 0.000000 0.007242 0.000000
# 2 -0.001890 0.008600 -0.002217 0.000000 0.001786 0.000000
# 3 -0.005399 -0.002217 0.015999 0.000000 0.007709 0.000000
# 4 0.000000 0.000000 0.000000 0.046179 0.000000 0.007456
# 5 0.007242 0.001786 0.007709 0.000000 0.042610 0.000000
# 6 0.000000 0.000000 0.000000 0.007456 0.000000 0.033095
#
#
# Mechanical properties :
#
#
# Convention : Reuss Voigt Hill
#
# Bulk Modulus (GPa) = 36.28603 52.46451 44.37527
# Shear Modulus (GPa) = 25.42571 29.83440 27.63005
#
# Velocity S-wave (km/s) = 3.61403 3.91484 3.76744
# Velocity P-wave (km/s) = 6.00459 6.88372 6.45913
#
# Compressibility (1/GPa) = 0.02755881
#
# Stress axis : x y z
#
# Youngs Moduli (GPa) = 45.51380 116.27930 62.50544
#
# Poissons Ratio (x) = 0.21979 0.33744
# Poissons Ratio (y) = 0.08603 0.13857
# Poissons Ratio (z) = 0.24571 0.25777
#
# Static dielectric constant tensor:
#      x y z
#    x 1.669950 0.000000 -0.024610 
#    y 0.000000 1.696390 0.000000 
#    z -0.024610 0.000000 1.809480 
# 
# From -- ./inp_files/231616.got.cif
#   From: 2010.05.17/outbox.cif.g08.bks.cpg/sg15_116_cif.got.tgz:231616.got - 2010.06.03 18:47:42.
