data_PCOD9276767
_publ_section_title
;
Structure prediction by ZEFSAII (Michael W. Deem and Ramdas Pophale) SiO2 
 PCOD9276767
Probable space group: C 2/C
;
_chemical_formula_sum "Si O2"
_cell_formula_units_Z 52
_cell_length_a 11.449782
_cell_length_b 11.069395
_cell_length_c 18.807308
_cell_angle_alpha 90.000000
_cell_angle_beta 119.702373
_cell_angle_gamma 90.000000
_cell_volume 2070.489639
_symmetry_space_group_name_H-M "C 2/C"
_symmetry_group_IT_number 15
_symmetry_cell_setting 'monoclinic'
loop_
_space_group_symop_operation_xyz
x,y,z
-x,y,1/2-z
-x,-y,-z
x,-y,1/2+z
1/2+x,1/2+y,z
1/2-x,1/2+y,1/2-z
1/2-x,1/2-y,-z
1/2+x,1/2-y,1/2+z
loop_
_atom_site_type_symbol
_atom_site_label
_atom_site_fract_x
_atom_site_fract_y
_atom_site_fract_z
Si Si1 0.020271 0.057856 0.408717
Si Si2 0.750000 0.250000 0.000000
Si Si3 0.786603 0.772524 0.168246
Si Si4 0.110862 0.646218 0.055776
Si Si5 0.968181 0.582218 0.879283
Si Si6 0.000000 0.983943 0.250000
Si Si7 0.000000 0.570559 0.250000
Si Si8 0.873445 0.170260 0.491901
O O1 0.133430 0.147958 0.468831
O O2 0.902279 0.086920 0.428972
O O3 0.088256 0.927010 0.438440
O O4 0.980712 0.061999 0.314885
O O5 0.758913 0.274029 0.909822
O O6 0.874789 0.891979 0.205640
O O7 0.760076 0.736880 0.077016
O O8 0.873602 0.660882 0.224412
O O9 0.640641 0.810452 0.156514
O O10 0.099787 0.625847 0.964574
O O11 0.979527 0.721244 0.034055
O O12 0.102026 0.520138 0.092112
O O13 0.011180 0.515736 0.821472
#
# Coordination Sequence:
#
# PCOD9276767 Si02
#       8
#     8   4   8   8   8   4   4   8
#     4  10  22  40  65  92 132 171 232 278 354 417
#     4  10  20  40  64  98 122 182 234 274 354 438
#     4  10  24  43  63  97 137 174 232 279 364 415
#     4   9  20  40  66  92 129 168 237 281 344 415
#     4  10  22  45  63  95 136 177 224 299 338 436
#     4  11  24  40  63 102 128 171 224 297 352 418
#     4  11  26  42  69 102 134 187 236 281 376 426
#     4   9  21  42  63  88 127 182 218 278 341 433
#
# _framework density 25.114833000000001
#
# number of rings (size 3 to 8) (size 9 to 14) (size 15 to 20)
#    0.000    2.154    0.000    0.923    8.615    0.615 
#    2.769    5.385    0.000    0.000    0.000    0.000 
#    0.000    0.000    0.000    0.000    0.000    0.000 
#
# Total GULP energy -144829.335473 kJ/mol
# GULP energy per Si atom -5570.359057 kJ/mol
# Density = 2.505767 g / cm^3
# Si number density = 25.114833 Si / 1000 Ang^3
#
#
#
# Elastic Constant Matrix: (Units=GPa)
#
#
# Indices 1 2 3 4 5 6 
#
# 1 68.9346 12.4294 8.2694 0.0000 5.3200 0.0000
# 2 12.4294 127.2177 36.5929 0.0000 -4.4153 0.0000
# 3 8.2694 36.5929 68.0619 0.0000 -5.5770 0.0000
# 4 0.0000 0.0000 0.0000 25.6654 0.0000 14.0581
# 5 5.3200 -4.4153 -5.5770 0.0000 35.1985 0.0000
# 6 0.0000 0.0000 0.0000 14.0581 0.0000 6.5307
#
#
#
# Elastic Compliance Matrix: (Units=1/GPa)
#
#
# Indices 1 2 3 4 5 6 
#
# 1 0.015091 -0.001155 -0.001430 0.000000 -0.002652 0.000000
# 2 -0.001155 0.009392 -0.004861 0.000000 0.000582 0.000000
# 3 -0.001430 -0.004861 0.017677 0.000000 0.002407 0.000000
# 4 0.000000 0.000000 0.000000 -0.217553 0.000000 0.468311
# 5 -0.002652 0.000582 0.002407 0.000000 0.029266 0.000000
# 6 0.000000 0.000000 0.000000 0.468311 0.000000 -0.854977
#
#
# Mechanical properties :
#
#
# Convention : Reuss Voigt Hill
#
# Bulk Modulus (GPa) = 36.67393 42.08860 39.38127
# Shear Modulus (GPa) = -5.11706 27.27376 11.07835
#
# Velocity S-wave (km/s) = -1.42895 3.29897 2.10253
# Velocity P-wave (km/s) = 3.45133 5.59516 4.64852
#
# Compressibility (1/GPa) = 0.02726732
#
# Stress axis : x y z
#
# Youngs Moduli (GPa) = 66.26468 106.47405 56.57019
#
# Poissons Ratio (x) = 0.12300 0.08088
# Poissons Ratio (y) = 0.07655 0.27501
# Poissons Ratio (z) = 0.09474 0.51761
#
# Static dielectric constant tensor:
#      x y z
#    x 7.841280 0.000000 1.352280 
#    y 0.000000 2.917160 0.000000 
#    z 1.352280 0.000000 2.461510 
# 
# From -- ./inp_files/204211.got.cif
#   From: 2010.05.17/outbox.cif.g08.bks.cpg/sg15_103_cif.got.tgz:204211.got - 2010.06.03 18:47:42.
