data_PCOD9276078
_publ_section_title
;
Structure prediction by ZEFSAII (Michael W. Deem and Ramdas Pophale) SiO2 
 PCOD9276078
Probable space group: C 2/C
;
_chemical_formula_sum "Si O2"
_cell_formula_units_Z 32
_cell_length_a 12.854877
_cell_length_b 5.011095
_cell_length_c 22.860499
_cell_angle_alpha 90.000000
_cell_angle_beta 122.663387
_cell_angle_gamma 90.000000
_cell_volume 1239.721100
_symmetry_space_group_name_H-M "C 2/C"
_symmetry_group_IT_number 15
_symmetry_cell_setting 'monoclinic'
loop_
_space_group_symop_operation_xyz
x,y,z
-x,y,1/2-z
-x,-y,-z
x,-y,1/2+z
1/2+x,1/2+y,z
1/2-x,1/2+y,1/2-z
1/2-x,1/2-y,-z
1/2+x,1/2-y,1/2+z
loop_
_atom_site_type_symbol
_atom_site_label
_atom_site_fract_x
_atom_site_fract_y
_atom_site_fract_z
Si Si1 0.744629 0.298066 0.081884
Si Si2 0.104779 0.808671 0.155410
Si Si3 0.026998 0.680242 0.691998
Si Si4 0.102960 0.323484 0.997228
O O1 0.707364 0.235348 0.138371
O O2 0.890026 0.342609 0.123019
O O3 0.790108 0.453366 0.969888
O O4 0.661906 0.561851 0.044730
O O5 0.095811 0.599741 0.205402
O O6 0.974316 0.778143 0.081240
O O7 0.105789 0.104142 0.180633
O O8 0.000000 0.758169 0.750000
O O9 0.000000 0.500000 0.000000
#
# Coordination Sequence:
#
# PCOD9276078 Si02
#       4
#     8   8   8   8
#     4  11  23  41  66  94 127 161 200 260 318 368
#     4  11  23  42  65  90 127 162 200 264 314 359
#     4  12  27  42  61  92 124 169 222 247 292 376
#     4  10  20  39  67  98 124 155 203 255 322 384
#
# _framework density 25.812253999999999
#
# number of rings (size 3 to 8) (size 9 to 14) (size 15 to 20)
#    0.000    1.000    0.000    9.750    0.000    8.000 
#    0.000    0.000    0.000    0.000    0.000    0.000 
#    0.000    0.000    0.000    0.000    0.000    0.000 
#
# Total GULP energy -89622.002329 kJ/mol
# GULP energy per Si atom -5601.375146 kJ/mol
# Density = 2.575350 g / cm^3
# Si number density = 25.812254 Si / 1000 Ang^3
#
#
#
# Elastic Constant Matrix: (Units=GPa)
#
#
# Indices 1 2 3 4 5 6 
#
# 1 103.9590 4.8417 3.4505 0.0000 10.9078 0.0000
# 2 4.8417 111.0835 2.6536 0.0001 4.5790 0.0000
# 3 3.4505 2.6536 64.7308 0.0000 2.5454 0.0000
# 4 0.0000 0.0001 0.0000 24.2517 0.0000 -17.8928
# 5 10.9078 4.5790 2.5454 0.0000 45.2158 0.0000
# 6 0.0000 0.0000 0.0000 -17.8928 0.0000 32.3819
#
#
#
# Elastic Compliance Matrix: (Units=1/GPa)
#
#
# Indices 1 2 3 4 5 6 
#
# 1 0.009893 -0.000325 -0.000422 0.000000 -0.002330 0.000000
# 2 -0.000325 0.009058 -0.000322 0.000000 -0.000821 0.000000
# 3 -0.000422 -0.000322 0.015513 0.000000 -0.000739 0.000000
# 4 0.000000 0.000000 0.000000 0.069614 0.000000 0.038465
# 5 -0.002330 -0.000821 -0.000739 0.000000 0.022803 0.000000
# 6 0.000000 0.000000 0.000000 0.038465 0.000000 0.052136
#
#
# Mechanical properties :
#
#
# Convention : Reuss Voigt Hill
#
# Bulk Modulus (GPa) = 30.93515 33.51834 32.22674
# Shear Modulus (GPa) = 26.05113 38.29169 32.17141
#
# Velocity S-wave (km/s) = 3.18032 3.85576 3.53422
# Velocity P-wave (km/s) = 5.04942 5.73028 5.40059
#
# Compressibility (1/GPa) = 0.03232569
#
# Stress axis : x y z
#
# Youngs Moduli (GPa) = 101.08372 110.40055 64.46058
#
# Poissons Ratio (x) = 0.03589 0.02723
# Poissons Ratio (y) = 0.03286 0.02074
# Poissons Ratio (z) = 0.04270 0.03552
#
# Static dielectric constant tensor:
#      x y z
#    x 2.033170 0.000000 -0.016090 
#    y 0.000000 1.978860 0.000000 
#    z -0.016090 0.000000 2.114800 
# 
# From -- ./inp_files/267137.got.cif
#   From: 2010.05.17/outbox.cif.g08.bks.cpg/sg15_134_cif.got.tgz:267137.got - 2010.06.03 18:47:42.
