data_PCOD9276554
_publ_section_title
;
Structure prediction by ZEFSAII (Michael W. Deem and Ramdas Pophale) SiO2 
 PCOD9276554
Probable space group: C 2/C
;
_chemical_formula_sum "Si O2"
_cell_formula_units_Z 52
_cell_length_a 12.646229
_cell_length_b 20.901715
_cell_length_c 15.841041
_cell_angle_alpha 90.000000
_cell_angle_beta 38.662031
_cell_angle_gamma 90.000000
_cell_volume 2615.867872
_symmetry_space_group_name_H-M "C 2/C"
_symmetry_group_IT_number 15
_symmetry_cell_setting 'monoclinic'
loop_
_space_group_symop_operation_xyz
x,y,z
-x,y,1/2-z
-x,-y,-z
x,-y,1/2+z
1/2+x,1/2+y,z
1/2-x,1/2+y,1/2-z
1/2-x,1/2-y,-z
1/2+x,1/2-y,1/2+z
loop_
_atom_site_type_symbol
_atom_site_label
_atom_site_fract_x
_atom_site_fract_y
_atom_site_fract_z
Si Si1 0.162546 0.481587 0.009300
Si Si2 0.815079 0.609598 0.852387
Si Si3 0.538986 0.097353 0.428562
Si Si4 0.594883 0.720687 0.046055
Si Si5 0.793041 0.722977 0.194578
Si Si6 0.215106 0.140495 0.726851
Si Si7 0.500000 0.443460 0.250000
O O1 0.127894 0.427465 0.959474
O O2 0.340209 0.513841 0.875145
O O3 0.169106 0.452306 0.098523
O O4 0.014209 0.534397 0.090537
O O5 0.780399 0.609386 0.774265
O O6 0.000000 0.642524 0.750000
O O7 0.658483 0.649507 0.986746
O O8 0.649005 0.152206 0.315181
O O9 0.362320 0.128794 0.567417
O O10 0.407822 0.722457 0.200050
O O11 0.750000 0.750000 0.000000
O O12 0.599972 0.759501 0.955238
O O13 0.817838 0.784344 0.239010
O O14 0.054642 0.101990 0.793147
#
# Coordination Sequence:
#
# PCOD9276554 Si02
#       7
#     8   8   8   8   8   8   4
#     4  10  22  38  62  89 120 173 206 259 304 381
#     4  11  21  37  61  90 124 160 202 264 322 354
#     4  10  20  40  63  86 128 167 211 247 317 382
#     4  11  21  33  57  94 127 160 204 262 317 373
#     4  11  21  37  63  89 124 166 209 256 312 376
#     4  10  21  42  62  87 126 164 200 268 316 367
#     4  10  24  42  64  86 120 172 216 248 318 372
#
# _framework density 19.878679999999999
#
# number of rings (size 3 to 8) (size 9 to 14) (size 15 to 20)
#    0.000    1.538    3.077    3.231    2.154    0.615 
#    0.000    6.154    1.692    0.000    0.000    0.000 
#    0.000    0.000    0.000    0.000    0.000    0.000 
#
# Total GULP energy -145026.553127 kJ/mol
# GULP energy per Si atom -5577.944351 kJ/mol
# Density = 1.983344 g / cm^3
# Si number density = 19.878680 Si / 1000 Ang^3
#
#
#
# Elastic Constant Matrix: (Units=GPa)
#
#
# Indices 1 2 3 4 5 6 
#
# 1 59.0540 19.1269 6.8568 -0.0008 -3.8466 0.0018
# 2 19.1269 102.7229 30.4680 0.0002 -2.6348 0.0008
# 3 6.8568 30.4680 59.5846 0.0029 -12.3267 -0.0005
# 4 -0.0008 0.0002 0.0029 33.3648 -0.0005 -5.8871
# 5 -3.8466 -2.6348 -12.3267 -0.0005 23.0554 -0.0007
# 6 0.0018 0.0008 -0.0005 -5.8871 -0.0007 21.5611
#
#
#
# Elastic Compliance Matrix: (Units=1/GPa)
#
#
# Indices 1 2 3 4 5 6 
#
# 1 0.018183 -0.003375 0.000204 0.000000 0.002757 -0.000001
# 2 -0.003375 0.012189 -0.006378 0.000000 -0.002580 0.000000
# 3 0.000204 -0.006378 0.022349 -0.000002 0.011254 0.000001
# 4 0.000000 0.000000 -0.000002 0.031489 0.000000 0.008598
# 5 0.002757 -0.002580 0.011254 0.000000 0.049556 0.000002
# 6 -0.000001 0.000000 0.000001 0.008598 0.000002 0.048727
#
#
# Mechanical properties :
#
#
# Convention : Reuss Voigt Hill
#
# Bulk Modulus (GPa) = 29.74271 37.14052 33.44161
# Shear Modulus (GPa) = 23.49631 26.59024 25.04328
#
# Velocity S-wave (km/s) = 3.44173 3.66132 3.55322
# Velocity P-wave (km/s) = 5.54875 6.04962 5.80459
#
# Compressibility (1/GPa) = 0.03362169
#
# Stress axis : x y z
#
# Youngs Moduli (GPa) = 54.99699 82.04113 44.74470
#
# Poissons Ratio (x) = 0.27692 -0.00912
# Poissons Ratio (y) = 0.18564 0.28539
# Poissons Ratio (z) = -0.01121 0.52327
#
# Static dielectric constant tensor:
#      x y z
#    x 1.698780 0.000000 0.004180 
#    y 0.000000 1.766160 0.000000 
#    z 0.004180 0.000000 1.683210 
# 
# From -- ./inp_files/148124.got.cif
#   From: 2010.05.17/outbox.cif.g08.bks.cpg/sg15_75_cif.got.tgz:148124.got - 2010.06.03 18:47:42.
