data_PCOD9276001
_publ_section_title
;
Structure prediction by ZEFSAII (Michael W. Deem and Ramdas Pophale) SiO2 
 PCOD9276001
Probable space group: C 2/C
;
_chemical_formula_sum "Si O2"
_cell_formula_units_Z 52
_cell_length_a 23.203770
_cell_length_b 8.456013
_cell_length_c 13.591289
_cell_angle_alpha 90.000000
_cell_angle_beta 63.851105
_cell_angle_gamma 90.000000
_cell_volume 2393.826962
_symmetry_space_group_name_H-M "C 2/C"
_symmetry_group_IT_number 15
_symmetry_cell_setting 'monoclinic'
loop_
_space_group_symop_operation_xyz
x,y,z
-x,y,1/2-z
-x,-y,-z
x,-y,1/2+z
1/2+x,1/2+y,z
1/2-x,1/2+y,1/2-z
1/2-x,1/2-y,-z
1/2+x,1/2-y,1/2+z
loop_
_atom_site_type_symbol
_atom_site_label
_atom_site_fract_x
_atom_site_fract_y
_atom_site_fract_z
Si Si1 0.615552 0.468634 0.432090
Si Si2 0.000000 0.728931 0.250000
Si Si3 0.396322 0.499044 0.335227
Si Si4 0.462846 0.816291 0.562246
Si Si5 0.578354 0.757150 0.339734
Si Si6 0.285808 0.353378 0.289670
Si Si7 0.666749 0.020808 0.304936
O O1 0.612427 0.440131 0.548912
O O2 0.558575 0.368571 0.423163
O O3 0.606651 0.649551 0.407244
O O4 0.681732 0.407424 0.337418
O O5 0.060524 0.843340 0.190928
O O6 0.012131 0.646082 0.346199
O O7 0.429120 0.632501 0.242636
O O8 0.329712 0.441467 0.336772
O O9 0.515073 0.831775 0.437040
O O10 0.394955 0.901977 0.594591
O O11 0.630794 0.886634 0.268244
O O12 0.297352 0.163931 0.279350
O O13 0.215336 0.426607 0.338741
#
# Coordination Sequence:
#
# PCOD9276001 Si02
#       7
#     8   4   8   8   8   8   8
#     4  10  20  39  66  98 128 172 213 264 331 390
#     4  12  18  38  68  96 136 164 214 248 336 382
#     4  11  21  37  69  98 130 173 215 264 325 402
#     4  11  22  40  65  97 136 171 212 273 328 390
#     4  11  21  38  64 100 130 171 216 270 331 384
#     4  10  22  43  62  91 130 176 222 272 322 384
#     4  11  23  44  67  90 133 178 224 272 329 384
#
# _framework density 21.722539999999999
#
# number of rings (size 3 to 8) (size 9 to 14) (size 15 to 20)
#    0.000    1.231    6.154    3.692    0.000    0.000 
#    0.000   20.000    0.000    0.000    0.000    0.000 
#    0.000    0.000    0.000    0.000    0.000    0.000 
#
# Total GULP energy -145069.152229 kJ/mol
# GULP energy per Si atom -5579.582778 kJ/mol
# Density = 2.167310 g / cm^3
# Si number density = 21.722540 Si / 1000 Ang^3
#
#
#
# Elastic Constant Matrix: (Units=GPa)
#
#
# Indices 1 2 3 4 5 6 
#
# 1 118.5315 48.9208 48.2237 0.0000 -6.5446 0.0000
# 2 48.9208 104.3024 31.9472 0.0000 -5.4562 0.0000
# 3 48.2237 31.9472 99.8373 0.0000 25.1837 0.0000
# 4 0.0000 0.0000 0.0000 16.8447 0.0000 -16.1751
# 5 -6.5446 -5.4562 25.1837 0.0000 24.2180 0.0000
# 6 0.0000 0.0000 0.0000 -16.1751 0.0000 45.1559
#
#
#
# Elastic Compliance Matrix: (Units=1/GPa)
#
#
# Indices 1 2 3 4 5 6 
#
# 1 0.014047 -0.003239 -0.008841 0.000000 0.012260 0.000000
# 2 -0.003239 0.012672 -0.004053 0.000000 0.006194 0.000000
# 3 -0.008841 -0.004053 0.022254 0.000000 -0.026444 0.000000
# 4 0.000000 0.000000 0.000000 0.090492 0.000000 0.032415
# 5 0.012260 0.006194 -0.026444 0.000000 0.073498 0.000000
# 6 0.000000 0.000000 0.000000 0.032415 0.000000 0.033757
#
#
# Mechanical properties :
#
#
# Convention : Reuss Voigt Hill
#
# Bulk Modulus (GPa) = 59.85514 64.53939 62.19727
# Shear Modulus (GPa) = 17.57122 30.14902 23.86012
#
# Velocity S-wave (km/s) = 2.84719 3.72951 3.31781
# Velocity P-wave (km/s) = 6.19862 6.95133 6.58574
#
# Compressibility (1/GPa) = 0.01670700
#
# Stress axis : x y z
#
# Youngs Moduli (GPa) = 71.18736 78.91305 44.93571
#
# Poissons Ratio (x) = 0.25562 0.39729
# Poissons Ratio (y) = 0.23060 0.18211
# Poissons Ratio (z) = 0.62939 0.31982
#
# Static dielectric constant tensor:
#      x y z
#    x 1.814120 0.000000 -0.016400 
#    y 0.000000 1.901560 0.000000 
#    z -0.016400 0.000000 1.786130 
# 
# From -- ./inp_files/171753.got.cif
#   From: 2010.05.17/outbox.cif.g08.bks.cpg/sg15_86_cif.got.tgz:171753.got - 2010.06.03 18:47:42.
