data_PCOD9276439
_publ_section_title
;
Structure prediction by ZEFSAII (Michael W. Deem and Ramdas Pophale) SiO2 
 PCOD9276439
Probable space group: C 2/C
;
_chemical_formula_sum "Si O2"
_cell_formula_units_Z 48
_cell_length_a 10.381588
_cell_length_b 10.368576
_cell_length_c 23.423308
_cell_angle_alpha 90.000000
_cell_angle_beta 75.906357
_cell_angle_gamma 90.000000
_cell_volume 2445.443667
_symmetry_space_group_name_H-M "C 2/C"
_symmetry_group_IT_number 15
_symmetry_cell_setting 'monoclinic'
loop_
_space_group_symop_operation_xyz
x,y,z
-x,y,1/2-z
-x,-y,-z
x,-y,1/2+z
1/2+x,1/2+y,z
1/2-x,1/2+y,1/2-z
1/2-x,1/2-y,-z
1/2+x,1/2-y,1/2+z
loop_
_atom_site_type_symbol
_atom_site_label
_atom_site_fract_x
_atom_site_fract_y
_atom_site_fract_z
Si Si1 0.863214 0.034405 0.231198
Si Si2 0.624527 0.341204 0.501156
Si Si3 0.672628 0.265275 0.097053
Si Si4 0.037386 0.024845 0.902410
Si Si5 0.591550 0.124828 0.998655
Si Si6 0.342453 0.240306 0.270216
O O1 0.895787 0.033140 0.160389
O O2 0.748106 0.138951 0.254295
O O3 0.000000 0.064197 0.250000
O O4 0.823041 0.888546 0.252797
O O5 0.750000 0.250000 0.500000
O O6 0.573448 0.430669 0.558181
O O7 0.633183 0.431149 0.443910
O O8 0.502577 0.246469 0.502049
O O9 0.538267 0.348201 0.111172
O O10 0.787847 0.355645 0.058260
O O11 0.698122 0.230833 0.159127
O O12 0.651136 0.147097 0.055497
O O13 0.500000 0.000000 0.000000
O O14 0.500000 0.211631 0.250000
#
# Coordination Sequence:
#
# PCOD9276439 Si02
#       6
#     8   8   8   8   8   8
#     4  11  24  44  67  94 129 173 225 277 337 396
#     4  10  21  35  59  93 125 163 210 261 321 387
#     4  10  20  40  62  84 125 169 208 261 328 388
#     4  10  20  40  62  84 125 171 206 263 330 388
#     4  10  21  35  59  93 125 163 208 261 321 385
#     4  11  24  44  67  94 127 175 223 277 335 398
#
# _framework density 19.628340999999999
#
# number of rings (size 3 to 8) (size 9 to 14) (size 15 to 20)
#    0.000    1.667    3.333    2.000    0.000    7.333 
#    0.000    0.000    0.000    0.000    0.000    0.000 
#    0.000    0.000    0.000    0.000    0.000    0.000 
#
# Total GULP energy -133931.994031 kJ/mol
# GULP energy per Si atom -5580.499751 kJ/mol
# Density = 1.958367 g / cm^3
# Si number density = 19.628341 Si / 1000 Ang^3
#
#
#
# Elastic Constant Matrix: (Units=GPa)
#
#
# Indices 1 2 3 4 5 6 
#
# 1 108.0695 81.5240 31.6850 0.0000 1.4303 0.0000
# 2 81.5240 108.9839 32.7930 0.0000 7.4857 0.0000
# 3 31.6850 32.7930 116.7012 0.0000 10.1835 0.0000
# 4 0.0000 0.0000 0.0000 -0.9468 0.0000 -1.6981
# 5 1.4303 7.4857 10.1835 0.0000 15.0409 0.0000
# 6 0.0000 0.0000 0.0000 -1.6981 0.0000 63.7921
#
#
#
# Elastic Compliance Matrix: (Units=1/GPa)
#
#
# Indices 1 2 3 4 5 6 
#
# 1 0.022211 -0.016514 -0.002044 0.000000 0.007490 0.000000
# 2 -0.016514 0.022456 -0.001050 0.000000 -0.008895 0.000000
# 3 -0.002044 -0.001050 0.009944 0.000000 -0.006015 0.000000
# 4 0.000000 0.000000 0.000000 -1.008043 0.000000 -0.026834
# 5 0.007490 -0.008895 -0.006015 0.000000 0.074272 0.000000
# 6 0.000000 0.000000 0.000000 -0.026834 0.000000 0.014962
#
#
# Mechanical properties :
#
#
# Convention : Reuss Voigt Hill
#
# Bulk Modulus (GPa) = 64.95779 69.52875 67.24327
# Shear Modulus (GPa) = -6.09867 28.09409 10.99771
#
# Velocity S-wave (km/s) = -1.76460 3.78736 2.36963
# Velocity P-wave (km/s) = 5.38646 7.39087 6.46680
#
# Compressibility (1/GPa) = 0.01539461
#
# Stress axis : x y z
#
# Youngs Moduli (GPa) = 45.02231 44.53156 100.56565
#
# Poissons Ratio (x) = 0.73541 0.20551
# Poissons Ratio (y) = 0.74352 0.10562
# Poissons Ratio (z) = 0.09201 0.04677
#
# Static dielectric constant tensor:
#      x y z
#    x 1.710680 0.000000 0.012160 
#    y 0.000000 1.706150 0.000000 
#    z 0.012160 0.000000 1.690750 
# 
# From -- ./inp_files/268020.got.cif
#   From: 2010.05.17/outbox.cif.g08.bks.cpg/sg15_135_cif.got.tgz:268020.got - 2010.06.03 18:47:42.
