data_PCOD9276965
_publ_section_title
;
Structure prediction by ZEFSAII (Michael W. Deem and Ramdas Pophale) SiO2 
 PCOD9276965
Probable space group: C 2/C
;
_chemical_formula_sum "Si O2"
_cell_formula_units_Z 44
_cell_length_a 12.965302
_cell_length_b 12.597437
_cell_length_c 16.017171
_cell_angle_alpha 90.000000
_cell_angle_beta 57.886515
_cell_angle_gamma 90.000000
_cell_volume 2215.809546
_symmetry_space_group_name_H-M "C 2/C"
_symmetry_group_IT_number 15
_symmetry_cell_setting 'monoclinic'
loop_
_space_group_symop_operation_xyz
x,y,z
-x,y,1/2-z
-x,-y,-z
x,-y,1/2+z
1/2+x,1/2+y,z
1/2-x,1/2+y,1/2-z
1/2-x,1/2-y,-z
1/2+x,1/2-y,1/2+z
loop_
_atom_site_type_symbol
_atom_site_label
_atom_site_fract_x
_atom_site_fract_y
_atom_site_fract_z
Si Si1 0.249114 0.356728 0.705264
Si Si2 0.500000 0.060495 0.250000
Si Si3 0.650337 0.206261 0.976162
Si Si4 0.647233 0.978125 0.032542
Si Si5 0.626408 0.216030 0.417768
Si Si6 0.138625 0.037608 0.934834
O O1 0.323646 0.270637 0.619812
O O2 0.225561 0.324687 0.809468
O O3 0.308053 0.472205 0.666330
O O4 0.115602 0.368488 0.722524
O O5 0.544770 0.994616 0.149191
O O6 0.750000 0.250000 0.000000
O O7 0.509946 0.224419 0.061871
O O8 0.649720 0.078608 0.969094
O O9 0.776216 0.992458 0.023967
O O10 0.628030 0.867789 0.993047
O O11 0.653995 0.337015 0.426295
O O12 0.000000 0.000000 0.000000
#
# Coordination Sequence:
#
# PCOD9276965 Si02
#       6
#     8   4   8   8   8   8
#     4  11  23  39  67  96 130 175 219 270 332 389
#     4  10  20  40  66  96 130 166 228 266 326 394
#     4  12  21  41  68  95 129 173 223 277 325 394
#     4  11  24  41  67  98 130 173 226 276 334 398
#     4  12  25  41  67  97 136 169 225 274 337 403
#     4  11  23  46  64  91 135 175 216 278 334 395
#
# _framework density 19.857302000000001
#
# number of rings (size 3 to 8) (size 9 to 14) (size 15 to 20)
#    0.000    0.727    7.273    1.091    2.545    1.455 
#    0.000    0.909    0.000    0.000    0.000    0.000 
#    0.000    0.000    0.000    0.000    0.000    0.000 
#
# Total GULP energy -122705.436802 kJ/mol
# GULP energy per Si atom -5577.519855 kJ/mol
# Density = 1.981211 g / cm^3
# Si number density = 19.857302 Si / 1000 Ang^3
#
#
#
# Elastic Constant Matrix: (Units=GPa)
#
#
# Indices 1 2 3 4 5 6 
#
# 1 43.4102 -2.2552 9.5618 0.0000 -16.2788 0.0000
# 2 -2.2552 154.9107 59.0493 0.0000 7.8878 0.0000
# 3 9.5618 59.0493 112.6185 0.0000 1.9623 0.0000
# 4 0.0000 0.0000 0.0000 37.0694 0.0000 -3.7024
# 5 -16.2788 7.8878 1.9623 0.0000 28.7355 0.0000
# 6 0.0000 0.0000 0.0000 -3.7024 0.0000 15.5201
#
#
#
# Elastic Compliance Matrix: (Units=1/GPa)
#
#
# Indices 1 2 3 4 5 6 
#
# 1 0.030226 0.000825 -0.003297 0.000000 0.017122 0.000000
# 2 0.000825 0.008198 -0.004343 0.000000 -0.001486 0.000000
# 3 -0.003297 -0.004343 0.011462 0.000000 -0.001459 0.000000
# 4 0.000000 0.000000 0.000000 0.027635 0.000000 0.006592
# 5 0.017122 -0.001486 -0.001459 0.000000 0.045007 0.000000
# 6 0.000000 0.000000 0.000000 0.006592 0.000000 0.066005
#
#
# Mechanical properties :
#
#
# Convention : Reuss Voigt Hill
#
# Bulk Modulus (GPa) = 27.58145 49.29456 38.43801
# Shear Modulus (GPa) = 23.33732 32.57058 27.95395
#
# Velocity S-wave (km/s) = 3.43191 4.05437 3.75606
# Velocity P-wave (km/s) = 5.44280 6.84073 6.18141
#
# Compressibility (1/GPa) = 0.03625625
#
# Stress axis : x y z
#
# Youngs Moduli (GPa) = 33.08423 121.97427 87.24487
#
# Poissons Ratio (x) = -0.10064 0.28767
# Poissons Ratio (y) = -0.02730 0.37889
# Poissons Ratio (z) = 0.10909 0.52972
#
# Static dielectric constant tensor:
#      x y z
#    x 1.749630 0.000000 0.012360 
#    y 0.000000 1.742670 0.000000 
#    z 0.012360 0.000000 1.725420 
# 
# From -- ./inp_files/151332.got.cif
#   From: 2010.05.17/outbox.cif.g08.bks.cpg/sg15_76_cif.got.tgz:151332.got - 2010.06.03 18:47:42.
