data_PCOD9276901
_publ_section_title
;
Structure prediction by ZEFSAII (Michael W. Deem and Ramdas Pophale) SiO2 
 PCOD9276901
Probable space group: C 2/C
;
_chemical_formula_sum "Si O2"
_cell_formula_units_Z 48
_cell_length_a 18.282222
_cell_length_b 8.743900
_cell_length_c 14.958614
_cell_angle_alpha 90.000000
_cell_angle_beta 100.322527
_cell_angle_gamma 90.000000
_cell_volume 2352.549698
_symmetry_space_group_name_H-M "C 2/C"
_symmetry_group_IT_number 15
_symmetry_cell_setting 'monoclinic'
loop_
_space_group_symop_operation_xyz
x,y,z
-x,y,1/2-z
-x,-y,-z
x,-y,1/2+z
1/2+x,1/2+y,z
1/2-x,1/2+y,1/2-z
1/2-x,1/2-y,-z
1/2+x,1/2-y,1/2+z
loop_
_atom_site_type_symbol
_atom_site_label
_atom_site_fract_x
_atom_site_fract_y
_atom_site_fract_z
Si Si1 0.392884 0.643115 0.299633
Si Si2 0.437156 0.648290 0.107021
Si Si3 0.685375 0.863050 0.089260
Si Si4 0.434362 0.112872 0.451746
Si Si5 0.145544 0.166608 0.909580
Si Si6 0.926122 0.183749 0.780770
O O1 0.403201 0.683082 0.197460
O O2 0.473504 0.662145 0.364261
O O3 0.332623 0.747421 0.334134
O O4 0.378723 0.461181 0.303475
O O5 0.407569 0.477302 0.078860
O O6 0.415954 0.767453 0.025926
O O7 0.772016 0.893617 0.094752
O O8 0.637192 0.013841 0.089218
O O9 0.654034 0.779038 0.994002
O O10 0.451825 0.207435 0.365487
O O11 0.500000 0.000000 0.500000
O O12 0.116709 0.251443 0.813787
O O13 0.000000 0.115130 0.750000
#
# Coordination Sequence:
#
# PCOD9276901 Si02
#       6
#     8   8   8   8   8   8
#     4  10  20  40  66  89 119 166 218 252 304 376
#     4  10  21  41  64  90 122 167 212 257 303 385
#     4  11  24  40  62  95 127 166 200 271 325 371
#     4  12  25  37  61  97 130 159 204 268 327 373
#     4  10  23  44  64  87 127 167 219 252 315 390
#     4  11  22  39  64  92 118 168 216 255 309 384
#
# _framework density 20.403393999999999
#
# number of rings (size 3 to 8) (size 9 to 14) (size 15 to 20)
#    0.000    1.333    5.000    2.000    0.000    7.333 
#    0.000    3.333    0.000    0.000    0.000    0.000 
#    0.000    0.000    0.000    0.000    0.000    0.000 
#
# Total GULP energy -134017.102293 kJ/mol
# GULP energy per Si atom -5584.045929 kJ/mol
# Density = 2.035695 g / cm^3
# Si number density = 20.403394 Si / 1000 Ang^3
#
#
#
# Elastic Constant Matrix: (Units=GPa)
#
#
# Indices 1 2 3 4 5 6 
#
# 1 30.9841 12.4118 3.8892 0.0000 -4.7861 0.0000
# 2 12.4118 72.2128 36.1792 0.0000 -5.9289 0.0000
# 3 3.8892 36.1792 92.9412 0.0000 7.6576 0.0000
# 4 0.0000 0.0000 0.0000 -62.6345 0.0000 -17.2845
# 5 -4.7861 -5.9289 7.6576 0.0000 21.8264 0.0000
# 6 0.0000 0.0000 0.0000 -17.2845 0.0000 22.6545
#
#
#
# Elastic Compliance Matrix: (Units=1/GPa)
#
#
# Indices 1 2 3 4 5 6 
#
# 1 0.035483 -0.005710 0.000231 0.000000 0.006148 0.000000
# 2 -0.005710 0.019307 -0.007832 0.000000 0.006740 0.000000
# 3 0.000231 -0.007832 0.014385 0.000000 -0.007124 0.000000
# 4 0.000000 0.000000 0.000000 -0.013189 0.000000 -0.010063
# 5 0.006148 0.006740 -0.007124 0.000000 0.051495 0.000000
# 6 0.000000 0.000000 0.000000 -0.010063 0.000000 0.036464
#
#
# Mechanical properties :
#
#
# Convention : Reuss Voigt Hill
#
# Bulk Modulus (GPa) = 23.49960 33.45539 28.47749
# Shear Modulus (GPa) = 27.06366 5.94647 16.50507
#
# Velocity S-wave (km/s) = 3.64597 1.70903 2.84727
# Velocity P-wave (km/s) = 5.40986 4.50854 4.97964
#
# Compressibility (1/GPa) = 0.04255392
#
# Stress axis : x y z
#
# Youngs Moduli (GPa) = 28.18286 51.79594 69.51467
#
# Poissons Ratio (x) = 0.29574 -0.01607
# Poissons Ratio (y) = 0.16092 0.54443
# Poissons Ratio (z) = -0.00652 0.40566
#
# Static dielectric constant tensor:
#      x y z
#    x 1.737250 0.000000 0.015090 
#    y 0.000000 1.729170 0.000000 
#    z 0.015090 0.000000 1.743760 
# 
# From -- ./inp_files/159725.got.cif
#   From: 2010.05.17/outbox.cif.g08.bks.cpg/sg15_80_cif.got.tgz:159725.got - 2010.06.03 18:47:42.
