data_PCOD9276518
_publ_section_title
;
Structure prediction by ZEFSAII (Michael W. Deem and Ramdas Pophale) SiO2 
 PCOD9276518
Probable space group: C 2/C
;
_chemical_formula_sum "Si O2"
_cell_formula_units_Z 56
_cell_length_a 9.644865
_cell_length_b 11.245949
_cell_length_c 22.827466
_cell_angle_alpha 90.000000
_cell_angle_beta 96.929280
_cell_angle_gamma 90.000000
_cell_volume 2457.911038
_symmetry_space_group_name_H-M "C 2/C"
_symmetry_group_IT_number 15
_symmetry_cell_setting 'monoclinic'
loop_
_space_group_symop_operation_xyz
x,y,z
-x,y,1/2-z
-x,-y,-z
x,-y,1/2+z
1/2+x,1/2+y,z
1/2-x,1/2+y,1/2-z
1/2-x,1/2-y,-z
1/2+x,1/2-y,1/2+z
loop_
_atom_site_type_symbol
_atom_site_label
_atom_site_fract_x
_atom_site_fract_y
_atom_site_fract_z
Si Si1 0.183610 0.936254 0.684684
Si Si2 0.092698 0.326367 0.881530
Si Si3 0.062340 0.932797 0.383800
Si Si4 0.965951 0.230615 0.976536
Si Si5 0.611868 0.052878 0.202640
Si Si6 0.831578 0.189800 0.087682
Si Si7 0.984068 0.304897 0.318438
O O1 0.305653 0.922601 0.642103
O O2 0.245250 0.945866 0.753518
O O3 0.105907 0.811218 0.675247
O O4 0.070193 0.034748 0.663184
O O5 0.131954 0.190638 0.866596
O O6 0.075464 0.321657 0.951076
O O7 0.939265 0.347949 0.845220
O O8 0.003239 0.891564 0.444456
O O9 0.154657 0.051488 0.393369
O O10 0.814713 0.276622 0.948178
O O11 0.952803 0.213462 0.044784
O O12 0.500000 0.065836 0.250000
O O13 0.586216 0.928705 0.168702
O O14 0.870314 0.277216 0.142679
O O15 0.000000 0.313928 0.250000
#
# Coordination Sequence:
#
# PCOD9276518 Si02
#       7
#     8   8   8   8   8   8   8
#     4  10  21  39  58  87 121 156 203 245 301 360
#     4   9  21  37  59  87 114 161 196 242 306 347
#     4   9  21  38  65  86 121 158 195 247 308 346
#     4   9  21  37  68  84 123 158 197 256 298 359
#     4   9  20  35  57  80 119 158 192 247 301 354
#     4  10  20  40  62  94 114 160 208 239 307 360
#     4  10  23  37  60  86 121 158 199 252 295 366
#
# _framework density 22.783576
#
# number of rings (size 3 to 8) (size 9 to 14) (size 15 to 20)
#    0.857    1.714    0.000    0.429   10.000    1.143 
#    2.571    4.286    0.000    0.000    0.000    0.000 
#    0.000    0.000    0.000    0.000    0.000    0.000 
#
# Total GULP energy -156051.548246 kJ/mol
# GULP energy per Si atom -5573.269580 kJ/mol
# Density = 2.273172 g / cm^3
# Si number density = 22.783576 Si / 1000 Ang^3
#
#
#
# Elastic Constant Matrix: (Units=GPa)
#
#
# Indices 1 2 3 4 5 6 
#
# 1 34.0551 5.9263 -10.8627 0.0000 0.4349 0.0000
# 2 5.9263 83.0643 6.8604 0.0000 6.0459 0.0000
# 3 -10.8627 6.8604 45.4361 0.0000 -3.2336 0.0000
# 4 0.0000 0.0000 0.0000 52.0176 0.0000 5.0131
# 5 0.4349 6.0459 -3.2336 0.0000 29.0785 0.0000
# 6 0.0000 0.0000 0.0000 5.0131 0.0000 22.8348
#
#
#
# Elastic Compliance Matrix: (Units=1/GPa)
#
#
# Indices 1 2 3 4 5 6 
#
# 1 0.032543 -0.003088 0.008323 0.000000 0.001081 0.000000
# 2 -0.003088 0.012708 -0.002864 0.000000 -0.002915 0.000000
# 3 0.008323 -0.002864 0.024660 0.000000 0.003213 0.000000
# 4 0.000000 0.000000 0.000000 0.019640 0.000000 -0.004312
# 5 0.001081 -0.002915 0.003213 0.000000 0.035337 0.000000
# 6 0.000000 0.000000 0.000000 -0.004312 0.000000 0.044739
#
#
# Mechanical properties :
#
#
# Convention : Reuss Voigt Hill
#
# Bulk Modulus (GPa) = 13.39538 18.48928 15.94233
# Shear Modulus (GPa) = 26.34787 31.49496 28.92142
#
# Velocity S-wave (km/s) = 3.40434 3.72204 3.56673
# Velocity P-wave (km/s) = 4.62005 5.15793 4.89638
#
# Compressibility (1/GPa) = 0.07465259
#
# Stress axis : x y z
#
# Youngs Moduli (GPa) = 30.72891 78.69129 40.55144
#
# Poissons Ratio (x) = 0.24299 -0.33752
# Poissons Ratio (y) = 0.09489 0.11616
# Poissons Ratio (z) = -0.25577 0.22540
#
# Static dielectric constant tensor:
#      x y z
#    x 1.963940 0.000000 -0.047050 
#    y 0.000000 1.855400 0.000000 
#    z -0.047050 0.000000 1.885990 
# 
# From -- ./inp_files/268492.got.cif
#   From: 2010.05.17/outbox.cif.g08.bks.cpg/sg15_135_cif.got.tgz:268492.got - 2010.06.03 18:47:42.
