data_PCOD9276537
_publ_section_title
;
Structure prediction by ZEFSAII (Michael W. Deem and Ramdas Pophale) SiO2 
 PCOD9276537
Probable space group: C 2/C
;
_chemical_formula_sum "Si O2"
_cell_formula_units_Z 32
_cell_length_a 10.625667
_cell_length_b 19.213283
_cell_length_c 11.930422
_cell_angle_alpha 90.000000
_cell_angle_beta 33.000517
_cell_angle_gamma 90.000000
_cell_volume 1326.564545
_symmetry_space_group_name_H-M "C 2/C"
_symmetry_group_IT_number 15
_symmetry_cell_setting 'monoclinic'
loop_
_space_group_symop_operation_xyz
x,y,z
-x,y,1/2-z
-x,-y,-z
x,-y,1/2+z
1/2+x,1/2+y,z
1/2-x,1/2+y,1/2-z
1/2-x,1/2-y,-z
1/2+x,1/2-y,1/2+z
loop_
_atom_site_type_symbol
_atom_site_label
_atom_site_fract_x
_atom_site_fract_y
_atom_site_fract_z
Si Si1 0.243954 0.815459 0.920161
Si Si2 0.500000 0.142005 0.750000
Si Si3 0.695675 0.038948 0.420680
Si Si4 0.511023 0.334022 0.872327
Si Si5 0.500000 0.417197 0.250000
O O1 0.500000 0.846777 0.750000
O O2 0.180164 0.800097 0.838606
O O3 0.250000 0.750000 0.000000
O O4 0.041980 0.866728 0.114010
O O5 0.581383 0.094661 0.586760
O O6 0.743411 0.175077 0.606769
O O7 0.890016 0.085581 0.210183
O O8 0.500000 0.000000 0.500000
O O9 0.797515 0.972651 0.407247
O O10 0.500000 0.310265 0.750000
#
# Coordination Sequence:
#
# PCOD9276537 Si02
#       5
#     8   4   8   8   4
#     4  12  27  49  72  98 145 193 251 298 352 430
#     4  10  20  40  63 106 153 178 236 286 372 442
#     4  11  22  36  64 109 143 184 228 289 373 424
#     4  10  23  45  71 107 145 189 238 301 372 429
#     4  12  24  40  69 106 141 190 232 286 364 422
#
# _framework density 24.122458999999999
#
# number of rings (size 3 to 8) (size 9 to 14) (size 15 to 20)
#    0.000    1.000    5.000    3.000    5.250    4.000 
#    0.000    1.250    0.000    0.000    0.000    0.000 
#    0.000    0.000    0.000    0.000    0.000    0.000 
#
# Total GULP energy -89165.895290 kJ/mol
# GULP energy per Si atom -5572.868456 kJ/mol
# Density = 2.406756 g / cm^3
# Si number density = 24.122459 Si / 1000 Ang^3
#
#
#
# Elastic Constant Matrix: (Units=GPa)
#
#
# Indices 1 2 3 4 5 6 
#
# 1 196.0669 37.3691 36.7245 0.0007 -0.2051 -0.0013
# 2 37.3691 100.2255 21.8523 0.0006 6.1314 -0.0010
# 3 36.7245 21.8523 95.5636 -0.0009 -11.6014 -0.0002
# 4 0.0007 0.0006 -0.0009 -6.3442 0.0004 14.8570
# 5 -0.2051 6.1314 -11.6014 0.0004 36.9535 0.0006
# 6 -0.0013 -0.0010 -0.0002 14.8570 0.0006 32.3840
#
#
#
# Elastic Compliance Matrix: (Units=1/GPa)
#
#
# Indices 1 2 3 4 5 6 
#
# 1 0.005778 -0.001734 -0.001856 0.000001 -0.000263 0.000000
# 2 -0.001734 0.011266 -0.002223 0.000001 -0.002577 0.000000
# 3 -0.001856 -0.002223 0.012194 -0.000001 0.004187 0.000000
# 4 0.000001 0.000001 -0.000001 -0.075986 0.000000 0.034861
# 5 -0.000263 -0.002577 0.004187 0.000000 0.028802 0.000000
# 6 0.000000 0.000000 0.000000 0.034861 0.000000 0.014886
#
#
# Mechanical properties :
#
#
# Convention : Reuss Voigt Hill
#
# Bulk Modulus (GPa) = 56.77472 64.86086 60.81779
# Shear Modulus (GPa) = 346.36836 32.32599 189.34717
#
# Velocity S-wave (km/s) = 11.99580 3.66468 8.86930
# Velocity P-wave (km/s) = 14.67831 6.69724 11.40846
#
# Compressibility (1/GPa) = 0.01761347
#
# Stress axis : x y z
#
# Youngs Moduli (GPa) = 173.06792 88.76148 82.00731
#
# Poissons Ratio (x) = 0.15388 0.15220
# Poissons Ratio (y) = 0.30003 0.18229
# Poissons Ratio (z) = 0.32121 0.19730
#
# Static dielectric constant tensor:
#      x y z
#    x 1.784100 -0.000010 0.037950 
#    y -0.000010 1.826370 0.000000 
#    z 0.037950 0.000000 2.000420 
# 
# From -- ./inp_files/89291.got.cif
#   From: 2010.05.17/outbox.cif.g08.bks.cpg/sg15_45_cif.got.tgz:89291.got - 2010.06.03 18:47:42.
