data_PCOD9276346
_publ_section_title
;
Structure prediction by ZEFSAII (Michael W. Deem and Ramdas Pophale) SiO2 
 PCOD9276346
Probable space group: C 2/C
;
_chemical_formula_sum "Si O2"
_cell_formula_units_Z 32
_cell_length_a 8.363863
_cell_length_b 30.712545
_cell_length_c 7.307206
_cell_angle_alpha 90.000000
_cell_angle_beta 41.327528
_cell_angle_gamma 90.000000
_cell_volume 1239.528442
_symmetry_space_group_name_H-M "C 2/C"
_symmetry_group_IT_number 15
_symmetry_cell_setting 'monoclinic'
loop_
_space_group_symop_operation_xyz
x,y,z
-x,y,1/2-z
-x,-y,-z
x,-y,1/2+z
1/2+x,1/2+y,z
1/2-x,1/2+y,1/2-z
1/2-x,1/2-y,-z
1/2+x,1/2-y,1/2+z
loop_
_atom_site_type_symbol
_atom_site_label
_atom_site_fract_x
_atom_site_fract_y
_atom_site_fract_z
Si Si1 0.000000 0.919026 0.250000
Si Si2 0.705734 0.938100 0.839803
Si Si3 0.500000 0.999977 0.750000
Si Si4 0.767287 0.766175 0.194368
Si Si5 0.078264 0.644412 0.983585
O O1 0.206231 0.887601 0.149975
O O2 0.903975 0.943365 0.511856
O O3 0.492015 0.964945 0.921706
O O4 0.714614 0.965275 0.018478
O O5 0.629944 0.887447 0.921098
O O6 0.554738 0.740317 0.488283
O O7 0.680365 0.815961 0.280204
O O8 0.750000 0.750000 0.000000
O O9 0.000000 0.662281 0.250000
#
# Coordination Sequence:
#
# PCOD9276346 Si02
#       5
#     4   8   4   8   8
#     4  10  20  40  62  91 122 174 215 262 326 398
#     4  10  21  40  61  92 129 172 212 274 321 397
#     4  10  20  40  60  91 134 164 219 268 328 384
#     4  10  24  44  66  96 131 168 214 276 327 396
#     4  10  22  41  64  90 128 168 212 265 335 391
#
# _framework density 25.816269999999999
#
# number of rings (size 3 to 8) (size 9 to 14) (size 15 to 20)
#    0.000    2.000    3.750    0.000    7.000    4.000 
#    4.500    0.000    0.000    0.000    0.000    0.000 
#    0.000    0.000    0.000    0.000    0.000    0.000 
#
# Total GULP energy -89154.716980 kJ/mol
# GULP energy per Si atom -5572.169811 kJ/mol
# Density = 2.575751 g / cm^3
# Si number density = 25.816270 Si / 1000 Ang^3
#
#
#
# Elastic Constant Matrix: (Units=GPa)
#
#
# Indices 1 2 3 4 5 6 
#
# 1 53.0035 29.8496 30.3558 0.0000 0.8530 0.0000
# 2 29.8496 167.3046 83.9822 0.0000 21.2624 0.0000
# 3 30.3558 83.9822 215.4503 0.0000 1.2074 0.0000
# 4 0.0000 0.0000 0.0000 56.3404 0.0000 30.7991
# 5 0.8530 21.2624 1.2074 0.0000 36.8160 0.0000
# 6 0.0000 0.0000 0.0000 30.7991 0.0000 3.6173
#
#
#
# Elastic Compliance Matrix: (Units=1/GPa)
#
#
# Indices 1 2 3 4 5 6 
#
# 1 0.021653 -0.003108 -0.001847 0.000000 0.001354 0.000000
# 2 -0.003108 0.008588 -0.002883 0.000000 -0.004793 0.000000
# 3 -0.001847 -0.002883 0.006017 0.000000 0.001510 0.000000
# 4 0.000000 0.000000 0.000000 -0.004857 0.000000 0.041353
# 5 0.001354 -0.004793 0.001510 0.000000 0.029849 0.000000
# 6 0.000000 0.000000 0.000000 0.041353 0.000000 -0.075647
#
#
# Mechanical properties :
#
#
# Convention : Reuss Voigt Hill
#
# Bulk Modulus (GPa) = 48.58568 80.45928 64.52248
# Shear Modulus (GPa) = 614.24473 38.79279 326.51876
#
# Velocity S-wave (km/s) = 15.44169 3.88061 11.25844
# Velocity P-wave (km/s) = 18.35180 7.16328 13.93020
#
# Compressibility (1/GPa) = 0.02058220
#
# Stress axis : x y z
#
# Youngs Moduli (GPa) = 46.18295 116.44294 166.19931
#
# Poissons Ratio (x) = 0.36193 0.30693
# Poissons Ratio (y) = 0.14355 0.47911
# Poissons Ratio (z) = 0.08529 0.33568
#
# Static dielectric constant tensor:
#      x y z
#    x 2.187550 0.000000 0.072570 
#    y 0.000000 1.979490 0.000000 
#    z 0.072570 0.000000 2.150020 
# 
# From -- ./inp_files/2580.got.cif
#   From: 2010.05.17/outbox.cif.g08.bks.cpg/sg15_2_cif.got.tgz:2580.got - 2010.06.03 18:47:42.
