data_PCOD9276833
_publ_section_title
;
Structure prediction by ZEFSAII (Michael W. Deem and Ramdas Pophale) SiO2 
 PCOD9276833
Probable space group: C 2/C
;
_chemical_formula_sum "Si O2"
_cell_formula_units_Z 60
_cell_length_a 25.030317
_cell_length_b 14.521217
_cell_length_c 13.828351
_cell_angle_alpha 90.000000
_cell_angle_beta 34.188521
_cell_angle_gamma 90.000000
_cell_volume 2824.310524
_symmetry_space_group_name_H-M "C 2/C"
_symmetry_group_IT_number 15
_symmetry_cell_setting 'monoclinic'
loop_
_space_group_symop_operation_xyz
x,y,z
-x,y,1/2-z
-x,-y,-z
x,-y,1/2+z
1/2+x,1/2+y,z
1/2-x,1/2+y,1/2-z
1/2-x,1/2-y,-z
1/2+x,1/2-y,1/2+z
loop_
_atom_site_type_symbol
_atom_site_label
_atom_site_fract_x
_atom_site_fract_y
_atom_site_fract_z
Si Si1 0.022515 0.210044 0.867613
Si Si2 0.500000 0.862101 0.750000
Si Si3 0.254475 0.092627 0.239449
Si Si4 0.144029 0.236652 0.873456
Si Si5 0.212006 0.406320 0.415050
Si Si6 0.336746 0.732989 0.259403
Si Si7 0.658466 0.436929 0.086775
Si Si8 0.344202 0.651719 0.445923
O O1 0.077762 0.214826 0.884492
O O2 0.062007 0.116864 0.760419
O O3 0.042862 0.293884 0.766596
O O4 0.915455 0.229590 0.059407
O O5 0.597352 0.914871 0.580318
O O6 0.346585 0.153622 0.128685
O O7 0.225585 0.147079 0.184805
O O8 0.193083 0.098313 0.429930
O O9 0.254311 0.987359 0.207135
O O10 0.245318 0.189684 0.690354
O O11 0.112329 0.186663 0.018987
O O12 0.262339 0.419722 0.445971
O O13 0.376870 0.710260 0.304553
O O14 0.267947 0.820461 0.373222
O O15 0.642521 0.545476 0.097942
#
# Coordination Sequence:
#
# PCOD9276833 Si02
#       8
#     8   4   8   8   8   8   8   8
#     4  11  24  41  65  99 130 171 224 281 334 390
#     4  12  24  44  64  96 132 172 218 290 326 390
#     4  11  21  40  66  92 127 180 220 263 336 410
#     4  10  22  42  64  94 134 173 217 269 332 403
#     4  11  23  42  66  97 129 170 225 271 332 405
#     4  10  22  40  64  93 131 177 219 269 335 407
#     4  11  22  40  67  99 128 175 223 276 338 399
#     4  10  20  40  65  92 132 180 214 267 342 402
#
# _framework density 21.244122999999998
#
# number of rings (size 3 to 8) (size 9 to 14) (size 15 to 20)
#    0.000    1.333    2.667    4.000    0.000    3.200 
#    2.400    2.667    0.000    0.000    0.000    0.000 
#    0.000    0.000    0.000    0.000    0.000    0.000 
#
# Total GULP energy -167176.781960 kJ/mol
# GULP energy per Si atom -5572.559399 kJ/mol
# Density = 2.119577 g / cm^3
# Si number density = 21.244123 Si / 1000 Ang^3
#
#
#
# Elastic Constant Matrix: (Units=GPa)
#
#
# Indices 1 2 3 4 5 6 
#
# 1 102.7161 6.8082 9.2405 0.0000 30.8734 0.0000
# 2 6.8082 63.2492 11.7582 0.0000 9.6450 0.0000
# 3 9.2405 11.7582 65.8002 0.0000 10.8525 0.0000
# 4 0.0000 0.0000 0.0000 22.0690 0.0000 11.8921
# 5 30.8734 9.6450 10.8525 0.0000 37.2933 0.0000
# 6 0.0000 0.0000 0.0000 11.8921 0.0000 22.6591
#
#
#
# Elastic Compliance Matrix: (Units=1/GPa)
#
#
# Indices 1 2 3 4 5 6 
#
# 1 0.012965 0.000264 -0.000091 0.000000 -0.010775 0.000000
# 2 0.000264 0.016819 -0.002405 0.000000 -0.003869 0.000000
# 3 -0.000091 -0.002405 0.016308 0.000000 -0.004049 0.000000
# 4 0.000000 0.000000 0.000000 0.063180 0.000000 -0.033159
# 5 -0.010775 -0.003869 -0.004049 0.000000 0.037913 0.000000
# 6 0.000000 0.000000 0.000000 -0.033159 0.000000 0.061535
#
#
# Mechanical properties :
#
#
# Convention : Reuss Voigt Hill
#
# Bulk Modulus (GPa) = 24.02129 31.93103 27.97616
# Shear Modulus (GPa) = 22.02074 30.00152 26.01113
#
# Velocity S-wave (km/s) = 3.22305 3.76204 3.50293
# Velocity P-wave (km/s) = 5.01822 5.82527 5.43674
#
# Compressibility (1/GPa) = 0.04162974
#
# Stress axis : x y z
#
# Youngs Moduli (GPa) = 77.13165 59.45651 61.32079
#
# Poissons Ratio (x) = -0.01572 0.00557
# Poissons Ratio (y) = -0.02040 0.14745
# Poissons Ratio (z) = 0.00701 0.14296
#
# Static dielectric constant tensor:
#      x y z
#    x 1.793500 0.000000 -0.046250 
#    y 0.000000 1.771340 0.000000 
#    z -0.046250 0.000000 1.833040 
# 
# From -- ./inp_files/178535.got.cif
#   From: 2010.05.17/outbox.cif.g08.bks.cpg/sg15_90_cif.got.tgz:178535.got - 2010.06.03 18:47:42.
