data_PCOD9276187
_publ_section_title
;
Structure prediction by ZEFSAII (Michael W. Deem and Ramdas Pophale) SiO2 
 PCOD9276187
Probable space group: C 2/C
;
_chemical_formula_sum "Si O2"
_cell_formula_units_Z 56
_cell_length_a 11.023310
_cell_length_b 16.187969
_cell_length_c 17.925440
_cell_angle_alpha 90.000000
_cell_angle_beta 127.176170
_cell_angle_gamma 90.000000
_cell_volume 2548.668478
_symmetry_space_group_name_H-M "C 2/C"
_symmetry_group_IT_number 15
_symmetry_cell_setting 'monoclinic'
loop_
_space_group_symop_operation_xyz
x,y,z
-x,y,1/2-z
-x,-y,-z
x,-y,1/2+z
1/2+x,1/2+y,z
1/2-x,1/2+y,1/2-z
1/2-x,1/2-y,-z
1/2+x,1/2-y,1/2+z
loop_
_atom_site_type_symbol
_atom_site_label
_atom_site_fract_x
_atom_site_fract_y
_atom_site_fract_z
Si Si1 0.029541 0.101561 0.174162
Si Si2 0.963122 0.848015 0.413234
Si Si3 0.687513 0.511261 0.005111
Si Si4 0.734481 0.358645 0.414758
Si Si5 0.063258 0.603298 0.853520
Si Si6 0.996561 0.256288 0.059631
Si Si7 0.761292 0.049531 0.730852
O O1 0.000000 0.119117 0.250000
O O2 0.049566 0.184713 0.135157
O O3 0.893428 0.050305 0.083580
O O4 0.171625 0.039141 0.224969
O O5 0.055679 0.925798 0.484685
O O6 0.092534 0.814953 0.403532
O O7 0.912629 0.785979 0.458439
O O8 0.830231 0.883768 0.313691
O O9 0.792690 0.576434 0.998473
O O10 0.792317 0.457185 0.097285
O O11 0.857918 0.299187 0.425139
O O12 0.681179 0.417995 0.327813
O O13 0.090432 0.676408 0.922971
O O14 0.919828 0.553109 0.833869
O O15 0.000000 0.632620 0.750000
#
# Coordination Sequence:
#
# PCOD9276187 Si02
#       7
#     8   8   8   8   8   8   8
#     4  11  21  42  67  98 124 169 221 269 307 402
#     4   9  20  40  69  93 119 170 222 261 307 394
#     4   9  22  41  72  82 127 172 218 259 318 375
#     4   9  19  42  65  94 124 165 212 272 306 379
#     4  11  26  44  60  97 138 169 211 278 320 384
#     4  11  24  37  65  95 134 158 213 263 345 358
#     4  10  20  39  70  90 127 176 221 255 324 379
#
# _framework density 21.972256999999999
#
# number of rings (size 3 to 8) (size 9 to 14) (size 15 to 20)
#    0.857    1.143    1.429    1.286    4.000    4.000 
#    5.143    0.000    6.286    0.000    0.000    0.000 
#    0.000    0.000    0.000    0.000    0.000    0.000 
#
# Total GULP energy -156268.484384 kJ/mol
# GULP energy per Si atom -5581.017299 kJ/mol
# Density = 2.192225 g / cm^3
# Si number density = 21.972257 Si / 1000 Ang^3
#
#
#
# Elastic Constant Matrix: (Units=GPa)
#
#
# Indices 1 2 3 4 5 6 
#
# 1 78.5752 17.9182 16.9649 0.0000 -10.1354 0.0000
# 2 17.9182 76.2902 15.8644 0.0000 -2.1557 0.0000
# 3 16.9649 15.8644 70.5158 0.0000 -12.5237 0.0000
# 4 0.0000 0.0000 0.0000 34.8881 0.0000 -20.5241
# 5 -10.1354 -2.1557 -12.5237 0.0000 31.4319 0.0000
# 6 0.0000 0.0000 0.0000 -20.5241 0.0000 29.7540
#
#
#
# Elastic Compliance Matrix: (Units=1/GPa)
#
#
# Indices 1 2 3 4 5 6 
#
# 1 0.014294 -0.002804 -0.002178 0.000000 0.003549 0.000000
# 2 -0.002804 0.014304 -0.002722 0.000000 -0.001008 0.000000
# 3 -0.002178 -0.002722 0.016314 0.000000 0.005611 0.000000
# 4 0.000000 0.000000 0.000000 0.048238 0.000000 0.033274
# 5 0.003549 -0.001008 0.005611 0.000000 0.035126 0.000000
# 6 0.000000 0.000000 0.000000 0.033274 0.000000 0.056561
#
#
# Mechanical properties :
#
#
# Convention : Reuss Voigt Hill
#
# Bulk Modulus (GPa) = 33.89392 36.31957 35.10675
# Shear Modulus (GPa) = 23.80045 30.85705 27.32875
#
# Velocity S-wave (km/s) = 3.29478 3.75155 3.53056
# Velocity P-wave (km/s) = 5.47114 5.94400 5.71246
#
# Compressibility (1/GPa) = 0.02950382
#
# Stress axis : x y z
#
# Youngs Moduli (GPa) = 69.95894 69.91004 61.29630
#
# Poissons Ratio (x) = 0.19603 0.13349
# Poissons Ratio (y) = 0.19617 0.16688
# Poissons Ratio (z) = 0.15235 0.19033
#
# Static dielectric constant tensor:
#      x y z
#    x 1.854790 0.000000 -0.043280 
#    y 0.000000 1.806830 0.000000 
#    z -0.043280 0.000000 1.792590 
# 
# From -- ./inp_files/199298.got.cif
#   From: 2010.05.17/outbox.cif.g08.bks.cpg/sg15_100_cif.got.tgz:199298.got - 2010.06.03 18:47:42.
