data_PCOD9276222
_publ_section_title
;
Structure prediction by ZEFSAII (Michael W. Deem and Ramdas Pophale) SiO2 
 PCOD9276222
Probable space group: C 2/C
;
_chemical_formula_sum "Si O2"
_cell_formula_units_Z 40
_cell_length_a 18.234939
_cell_length_b 7.409567
_cell_length_c 28.350761
_cell_angle_alpha 90.000000
_cell_angle_beta 154.621261
_cell_angle_gamma 90.000000
_cell_volume 1641.776102
_symmetry_space_group_name_H-M "C 2/C"
_symmetry_group_IT_number 15
_symmetry_cell_setting 'monoclinic'
loop_
_space_group_symop_operation_xyz
x,y,z
-x,y,1/2-z
-x,-y,-z
x,-y,1/2+z
1/2+x,1/2+y,z
1/2-x,1/2+y,1/2-z
1/2-x,1/2-y,-z
1/2+x,1/2-y,1/2+z
loop_
_atom_site_type_symbol
_atom_site_label
_atom_site_fract_x
_atom_site_fract_y
_atom_site_fract_z
Si Si1 0.310469 0.008912 0.019736
Si Si2 0.949333 0.886258 0.767794
Si Si3 0.882514 0.876207 0.010676
Si Si4 0.156077 0.641934 0.597912
Si Si5 0.911812 0.216568 0.343063
O O1 0.394726 0.187301 0.046446
O O2 0.284111 0.036072 0.060435
O O3 0.119586 0.970396 0.889771
O O4 0.078260 0.659111 0.931433
O O5 0.845180 0.795177 0.750611
O O6 0.000000 0.779379 0.750000
O O7 0.825382 0.043747 0.678451
O O8 0.871670 0.816914 0.950479
O O9 0.968095 0.980802 0.893504
O O10 0.181977 0.693020 0.667583
O O11 0.000000 0.500000 0.500000
#
# Coordination Sequence:
#
# PCOD9276222 Si02
#       5
#     8   8   8   8   8
#     4  10  21  43  73  97 128 174 228 276 330 397
#     4  11  22  41  67  95 134 176 218 273 324 401
#     4  10  20  39  73  92 129 174 219 266 345 385
#     4  12  24  43  68  99 139 177 217 283 338 392
#     4  11  24  44  73  98 133 174 227 280 337 394
#
# _framework density 24.363859999999999
#
# number of rings (size 3 to 8) (size 9 to 14) (size 15 to 20)
#    0.000    1.200    4.000    3.000    0.000    3.200 
#    0.000    4.000   26.400    0.000    0.000    0.000 
#    0.000    0.000    0.000    0.000    0.000    0.000 
#
# Total GULP energy -111722.045210 kJ/mol
# GULP energy per Si atom -5586.102261 kJ/mol
# Density = 2.430841 g / cm^3
# Si number density = 24.363860 Si / 1000 Ang^3
#
#
#
# Elastic Constant Matrix: (Units=GPa)
#
#
# Indices 1 2 3 4 5 6 
#
# 1 136.6109 22.8844 29.3382 0.0005 -55.0751 0.0001
# 2 22.8844 93.7867 23.2934 0.0005 -0.9731 0.0002
# 3 29.3382 23.2934 53.7768 0.0019 -10.4621 0.0004
# 4 0.0005 0.0005 0.0019 21.2302 0.0004 -12.2238
# 5 -55.0751 -0.9731 -10.4621 0.0004 52.5552 0.0000
# 6 0.0001 0.0002 0.0004 -12.2238 0.0000 44.3436
#
#
#
# Elastic Compliance Matrix: (Units=1/GPa)
#
#
# Indices 1 2 3 4 5 6 
#
# 1 0.014259 -0.002333 -0.004026 0.000000 0.014098 0.000000
# 2 -0.002333 0.012365 -0.004696 0.000000 -0.003151 0.000000
# 3 -0.004026 -0.004696 0.022874 -0.000002 0.000248 -0.000001
# 4 0.000000 0.000000 -0.000002 0.055989 -0.000001 0.015434
# 5 0.014098 -0.003151 0.000248 -0.000001 0.033793 0.000000
# 6 0.000000 0.000000 -0.000001 0.015434 0.000000 0.026806
#
#
# Mechanical properties :
#
#
# Convention : Reuss Voigt Hill
#
# Bulk Modulus (GPa) = 36.51182 48.35624 42.43403
# Shear Modulus (GPa) = 25.33871 37.53636 31.43753
#
# Velocity S-wave (km/s) = 3.22842 3.92938 3.59602
# Velocity P-wave (km/s) = 5.37732 6.36218 5.89037
#
# Compressibility (1/GPa) = 0.02738839
#
# Stress axis : x y z
#
# Youngs Moduli (GPa) = 70.12983 80.87025 43.71765
#
# Poissons Ratio (x) = 0.18868 0.17600
# Poissons Ratio (y) = 0.16362 0.20531
# Poissons Ratio (z) = 0.28233 0.37979
#
# Static dielectric constant tensor:
#      x y z
#    x 1.995220 0.000000 -0.072320 
#    y 0.000000 1.950400 0.000000 
#    z -0.072320 0.000000 1.942900 
# 
# From -- ./inp_files/276417.got.cif
#   From: 2010.05.17/outbox.cif.g08.bks.cpg/sg15_139_cif.got.tgz:276417.got - 2010.06.03 18:47:42.
