data_PCOD9276876
_publ_section_title
;
Structure prediction by ZEFSAII (Michael W. Deem and Ramdas Pophale) SiO2 
 PCOD9276876
Probable space group: C 2/C
;
_chemical_formula_sum "Si O2"
_cell_formula_units_Z 44
_cell_length_a 7.230422
_cell_length_b 15.159481
_cell_length_c 16.949490
_cell_angle_alpha 90.000000
_cell_angle_beta 96.568599
_cell_angle_gamma 90.000000
_cell_volume 1845.628704
_symmetry_space_group_name_H-M "C 2/C"
_symmetry_group_IT_number 15
_symmetry_cell_setting 'monoclinic'
loop_
_space_group_symop_operation_xyz
x,y,z
-x,y,1/2-z
-x,-y,-z
x,-y,1/2+z
1/2+x,1/2+y,z
1/2-x,1/2+y,1/2-z
1/2-x,1/2-y,-z
1/2+x,1/2-y,1/2+z
loop_
_atom_site_type_symbol
_atom_site_label
_atom_site_fract_x
_atom_site_fract_y
_atom_site_fract_z
Si Si1 0.279990 0.152476 0.234166
Si Si2 0.607727 0.579619 0.075108
Si Si3 0.266128 0.400952 0.455573
Si Si4 0.206886 0.651821 0.774665
Si Si5 0.500000 0.000000 0.000000
Si Si6 0.294169 0.486503 0.158559
O O1 0.500000 0.154980 0.250000
O O2 0.204767 0.141666 0.141731
O O3 0.208981 0.243836 0.264983
O O4 0.219629 0.066988 0.280394
O O5 0.759120 0.512195 0.043759
O O6 0.474713 0.510903 0.115342
O O7 0.460392 0.620915 0.007345
O O8 0.258228 0.368726 0.367024
O O9 0.084480 0.391485 0.499444
O O10 0.315534 0.602470 0.709897
O O11 0.000000 0.615783 0.750000
O O12 0.383127 0.015373 0.907183
#
# Coordination Sequence:
#
# PCOD9276876 Si02
#       6
#     8   8   8   8   4   8
#     4  12  26  42  65  95 133 178 226 272 332 393
#     4  10  22  42  68  94 132 173 220 275 335 393
#     4  10  21  39  69  98 132 172 223 269 334 393
#     4  12  24  42  68 102 132 174 224 272 326 405
#     4  10  20  40  66 102 124 184 206 274 334 398
#     4  11  22  42  71  93 136 169 222 272 337 394
#
# _framework density 23.840114
#
# number of rings (size 3 to 8) (size 9 to 14) (size 15 to 20)
#    0.000    1.091    3.636    3.273    2.545    0.000 
#    3.273    3.636    0.000    0.000    0.000    0.000 
#    0.000    0.000    0.000    0.000    0.000    0.000 
#
# Total GULP energy -122655.266077 kJ/mol
# GULP energy per Si atom -5575.239367 kJ/mol
# Density = 2.378585 g / cm^3
# Si number density = 23.840114 Si / 1000 Ang^3
#
#
#
# Elastic Constant Matrix: (Units=GPa)
#
#
# Indices 1 2 3 4 5 6 
#
# 1 107.8639 -6.6212 48.4137 0.0000 35.2146 0.0000
# 2 -6.6212 57.2741 38.2543 0.0000 18.2125 0.0000
# 3 48.4137 38.2543 205.1409 0.0000 56.2149 0.0000
# 4 0.0000 0.0000 0.0000 26.5943 0.0000 -2.4373
# 5 35.2146 18.2125 56.2149 0.0000 48.4982 0.0000
# 6 0.0000 0.0000 0.0000 -2.4373 0.0000 11.3973
#
#
#
# Elastic Compliance Matrix: (Units=1/GPa)
#
#
# Indices 1 2 3 4 5 6 
#
# 1 0.013708 0.005892 -0.001465 0.000000 -0.010467 0.000000
# 2 0.005892 0.023221 -0.003164 0.000000 -0.009331 0.000000
# 3 -0.001465 -0.003164 0.007611 0.000000 -0.006570 0.000000
# 4 0.000000 0.000000 0.000000 0.038354 0.000000 0.008202
# 5 -0.010467 -0.009331 -0.006570 0.000000 0.039339 0.000000
# 6 0.000000 0.000000 0.000000 0.008202 0.000000 0.089494
#
#
# Mechanical properties :
#
#
# Convention : Reuss Voigt Hill
#
# Bulk Modulus (GPa) = 21.24714 58.93029 40.08871
# Shear Modulus (GPa) = 22.23323 36.64678 29.44000
#
# Velocity S-wave (km/s) = 3.05716 3.92495 3.51792
# Velocity P-wave (km/s) = 4.62529 6.73149 5.77522
#
# Compressibility (1/GPa) = 0.04706517
#
# Stress axis : x y z
#
# Youngs Moduli (GPa) = 72.95248 43.06379 131.39238
#
# Poissons Ratio (x) = -0.25373 0.19254
# Poissons Ratio (y) = -0.42982 0.41569
# Poissons Ratio (z) = 0.10691 0.13624
#
# Static dielectric constant tensor:
#      x y z
#    x 2.590220 0.000000 -0.118460 
#    y 0.000000 1.939630 0.000000 
#    z -0.118460 0.000000 1.913920 
# 
# From -- ./inp_files/188988.got.cif
#   From: 2010.05.17/outbox.cif.g08.bks.cpg/sg15_95_cif.got.tgz:188988.got - 2010.06.03 18:47:42.
