data_PCOD9276471
_publ_section_title
;
Structure prediction by ZEFSAII (Michael W. Deem and Ramdas Pophale) SiO2 
 PCOD9276471
Probable space group: C 2/C
;
_chemical_formula_sum "Si O2"
_cell_formula_units_Z 44
_cell_length_a 30.399095
_cell_length_b 13.785903
_cell_length_c 14.704158
_cell_angle_alpha 90.000000
_cell_angle_beta 19.298866
_cell_angle_gamma 90.000000
_cell_volume 2036.581826
_symmetry_space_group_name_H-M "C 2/C"
_symmetry_group_IT_number 15
_symmetry_cell_setting 'monoclinic'
loop_
_space_group_symop_operation_xyz
x,y,z
-x,y,1/2-z
-x,-y,-z
x,-y,1/2+z
1/2+x,1/2+y,z
1/2-x,1/2+y,1/2-z
1/2-x,1/2-y,-z
1/2+x,1/2-y,1/2+z
loop_
_atom_site_type_symbol
_atom_site_label
_atom_site_fract_x
_atom_site_fract_y
_atom_site_fract_z
Si Si1 0.686304 0.088442 0.436937
Si Si2 0.000000 0.146506 0.250000
Si Si3 0.720567 0.298233 0.925643
Si Si4 0.703331 0.122173 0.842311
Si Si5 0.581348 0.710603 0.446860
Si Si6 0.994196 0.708112 0.930621
O O1 0.716764 0.150690 0.286413
O O2 0.819128 0.120139 0.233502
O O3 0.569000 0.122944 0.732032
O O4 0.651326 0.982299 0.470308
O O5 0.012121 0.210594 0.135484
O O6 0.856724 0.098023 0.516540
O O7 0.706627 0.185709 0.927162
O O8 0.842297 0.313781 0.757406
O O9 0.568439 0.326989 0.239316
O O10 0.630338 0.196867 0.914331
O O11 0.575833 0.751949 0.356119
#
# Coordination Sequence:
#
# PCOD9276471 Si02
#       6
#     8   4   8   8   8   8
#     4  11  21  39  68  90 125 173 215 254 325 379
#     4  10  20  40  62  88 128 170 214 268 320 370
#     4  10  22  41  60  93 131 172 204 265 319 377
#     4  10  22  38  63  91 129 166 218 257 321 379
#     4  11  23  40  67  96 127 165 220 262 312 378
#     4  11  20  42  68  90 128 170 215 263 316 375
#
# _framework density 21.604828000000001
#
# number of rings (size 3 to 8) (size 9 to 14) (size 15 to 20)
#    0.000    1.455    5.455    3.273    2.545    2.909 
#    0.000   10.909    0.000    0.000    0.000    0.000 
#    0.000    0.000    0.000    0.000    0.000    0.000 
#
# Total GULP energy -122481.017253 kJ/mol
# GULP energy per Si atom -5567.318966 kJ/mol
# Density = 2.155565 g / cm^3
# Si number density = 21.604828 Si / 1000 Ang^3
#
#
#
# Elastic Constant Matrix: (Units=GPa)
#
#
# Indices 1 2 3 4 5 6 
#
# 1 107.0368 22.4783 20.5106 0.0000 -7.7595 0.0000
# 2 22.4783 75.9404 20.8417 0.0000 -2.6763 0.0000
# 3 20.5106 20.8417 162.7368 0.0000 -26.1164 0.0000
# 4 0.0000 0.0000 0.0000 -2.8217 0.0000 -4.4337
# 5 -7.7595 -2.6763 -26.1164 0.0000 34.6774 0.0000
# 6 0.0000 0.0000 0.0000 -4.4337 0.0000 -3.7212
#
#
#
# Elastic Compliance Matrix: (Units=1/GPa)
#
#
# Indices 1 2 3 4 5 6 
#
# 1 0.010166 -0.002769 -0.000678 0.000000 0.001551 0.000000
# 2 -0.002769 0.014405 -0.001612 0.000000 -0.000722 0.000000
# 3 -0.000678 -0.001612 0.007271 0.000000 0.005200 0.000000
# 4 0.000000 0.000000 0.000000 0.406357 0.000000 -0.484162
# 5 0.001551 -0.000722 0.005200 0.000000 0.033045 0.000000
# 6 0.000000 0.000000 0.000000 -0.484162 0.000000 0.308130
#
#
# Mechanical properties :
#
#
# Convention : Reuss Voigt Hill
#
# Bulk Modulus (GPa) = 46.02787 52.59726 49.31256
# Shear Modulus (GPa) = 6.27563 24.41913 15.34738
#
# Velocity S-wave (km/s) = 1.70618 3.36559 2.66816
# Velocity P-wave (km/s) = 5.02315 6.28497 5.68915
#
# Compressibility (1/GPa) = 0.02172597
#
# Stress axis : x y z
#
# Youngs Moduli (GPa) = 98.36424 69.42230 137.52777
#
# Poissons Ratio (x) = 0.19220 0.09323
# Poissons Ratio (y) = 0.27232 0.22165
# Poissons Ratio (z) = 0.06668 0.11189
#
# Static dielectric constant tensor:
#      x y z
#    x 1.833920 0.000000 -0.077490 
#    y 0.000000 1.771250 0.000000 
#    z -0.077490 0.000000 1.968910 
# 
# From -- ./inp_files/182240.got.cif
#   From: 2010.05.17/outbox.cif.g08.bks.cpg/sg15_92_cif.got.tgz:182240.got - 2010.06.03 18:47:42.
