data_PCOD9276914
_publ_section_title
;
Structure prediction by ZEFSAII (Michael W. Deem and Ramdas Pophale) SiO2 
 PCOD9276914
Probable space group: C 2/C
;
_chemical_formula_sum "Si O2"
_cell_formula_units_Z 36
_cell_length_a 10.709051
_cell_length_b 11.763416
_cell_length_c 14.604802
_cell_angle_alpha 90.000000
_cell_angle_beta 77.761784
_cell_angle_gamma 90.000000
_cell_volume 1798.029375
_symmetry_space_group_name_H-M "C 2/C"
_symmetry_group_IT_number 15
_symmetry_cell_setting 'monoclinic'
loop_
_space_group_symop_operation_xyz
x,y,z
-x,y,1/2-z
-x,-y,-z
x,-y,1/2+z
1/2+x,1/2+y,z
1/2-x,1/2+y,1/2-z
1/2-x,1/2-y,-z
1/2+x,1/2-y,1/2+z
loop_
_atom_site_type_symbol
_atom_site_label
_atom_site_fract_x
_atom_site_fract_y
_atom_site_fract_z
Si Si1 0.207532 0.630569 0.465454
Si Si2 0.042014 0.728878 0.055897
Si Si3 0.794379 0.088165 0.064073
Si Si4 0.500000 0.660926 0.750000
Si Si5 0.856255 0.059455 0.265738
O O1 0.250000 0.750000 0.500000
O O2 0.266131 0.530378 0.518058
O O3 0.234959 0.888809 0.644362
O O4 0.054639 0.645137 0.481150
O O5 0.171014 0.664054 0.061546
O O6 0.980824 0.768694 0.161243
O O7 0.083403 0.841845 0.993306
O O8 0.809308 0.071673 0.169878
O O9 0.618469 0.574295 0.716855
O O10 0.000000 0.110128 0.250000
#
# Coordination Sequence:
#
# PCOD9276914 Si02
#       5
#     8   8   8   4   8
#     4  12  24  41  68  99 130 176 226 272 338 406
#     4  11  23  40  68  92 138 173 221 277 344 392
#     4  11  23  43  63  98 134 174 219 284 330 407
#     4  10  20  40  66  90 126 176 216 274 332 394
#     4  10  22  39  67  92 129 166 225 272 335 399
#
# _framework density 20.021920000000001
#
# number of rings (size 3 to 8) (size 9 to 14) (size 15 to 20)
#    0.667    0.444    2.222    4.667    0.000    2.667 
#    0.000    0.000    2.444    0.000    0.000    0.000 
#    0.000    0.000    0.000    0.000    0.000    0.000 
#
# Total GULP energy -100514.924682 kJ/mol
# GULP energy per Si atom -5584.162482 kJ/mol
# Density = 1.997635 g / cm^3
# Si number density = 20.021920 Si / 1000 Ang^3
#
#
#
# Elastic Constant Matrix: (Units=GPa)
#
#
# Indices 1 2 3 4 5 6 
#
# 1 100.9454 31.6469 38.1274 0.0000 12.5937 0.0000
# 2 31.6469 115.0533 61.2716 0.0000 1.4804 0.0000
# 3 38.1274 61.2716 155.9978 0.0000 15.5946 0.0000
# 4 0.0000 0.0000 0.0000 12.9535 0.0000 -4.9249
# 5 12.5937 1.4804 15.5946 0.0000 29.4005 0.0000
# 6 0.0000 0.0000 0.0000 -4.9249 0.0000 30.5815
#
#
#
# Elastic Compliance Matrix: (Units=1/GPa)
#
#
# Indices 1 2 3 4 5 6 
#
# 1 0.011736 -0.002359 -0.001532 0.000000 -0.004095 0.000000
# 2 -0.002359 0.011559 -0.004231 0.000000 0.002673 0.000000
# 3 -0.001532 -0.004231 0.008828 0.000000 -0.003813 0.000000
# 4 0.000000 0.000000 0.000000 0.082234 0.000000 0.013243
# 5 -0.004095 0.002673 -0.003813 0.000000 0.037655 0.000000
# 6 0.000000 0.000000 0.000000 0.013243 0.000000 0.034832
#
#
# Mechanical properties :
#
#
# Convention : Reuss Voigt Hill
#
# Bulk Modulus (GPa) = 62.97976 70.45427 66.71702
# Shear Modulus (GPa) = 23.99442 30.65046 27.32244
#
# Velocity S-wave (km/s) = 3.46556 3.91685 3.69809
# Velocity P-wave (km/s) = 6.89472 7.46462 7.18532
#
# Compressibility (1/GPa) = 0.01587812
#
# Stress axis : x y z
#
# Youngs Moduli (GPa) = 85.21027 86.51078 113.27973
#
# Poissons Ratio (x) = 0.20411 0.17357
# Poissons Ratio (y) = 0.20104 0.47925
# Poissons Ratio (z) = 0.13056 0.36600
#
# Static dielectric constant tensor:
#      x y z
#    x 1.735600 0.000000 -0.005230 
#    y 0.000000 1.714990 0.000000 
#    z -0.005230 0.000000 1.671450 
# 
# From -- ./inp_files/84435.got.cif
#   From: 2010.05.17/outbox.cif.g08.bks.cpg/sg15_43_cif.got.tgz:84435.got - 2010.06.03 18:47:42.
