data_PCOD9276611
_publ_section_title
;
Structure prediction by ZEFSAII (Michael W. Deem and Ramdas Pophale) SiO2 
 PCOD9276611
Probable space group: C 2/C
;
_chemical_formula_sum "Si O2"
_cell_formula_units_Z 40
_cell_length_a 13.464238
_cell_length_b 7.108060
_cell_length_c 19.004049
_cell_angle_alpha 90.000000
_cell_angle_beta 98.331560
_cell_angle_gamma 90.000000
_cell_volume 1799.580000
_symmetry_space_group_name_H-M "C 2/C"
_symmetry_group_IT_number 15
_symmetry_cell_setting 'monoclinic'
loop_
_space_group_symop_operation_xyz
x,y,z
-x,y,1/2-z
-x,-y,-z
x,-y,1/2+z
1/2+x,1/2+y,z
1/2-x,1/2+y,1/2-z
1/2-x,1/2-y,-z
1/2+x,1/2-y,1/2+z
loop_
_atom_site_type_symbol
_atom_site_label
_atom_site_fract_x
_atom_site_fract_y
_atom_site_fract_z
Si Si1 0.747544 0.309996 0.146685
Si Si2 0.448191 0.283143 0.310988
Si Si3 0.180554 0.409951 0.081326
Si Si4 0.633136 0.867918 0.919949
Si Si5 0.102021 0.634846 0.721977
O O1 0.639398 0.393554 0.158400
O O2 0.820157 0.443973 0.109558
O O3 0.807497 0.277184 0.225120
O O4 0.718257 0.120159 0.103122
O O5 0.500000 0.381925 0.250000
O O6 0.532039 0.204853 0.372902
O O7 0.396850 0.094823 0.272501
O O8 0.280464 0.286292 0.083730
O O9 0.114962 0.337755 0.140292
O O10 0.122195 0.399081 0.001998
O O11 0.000000 0.690935 0.750000
#
# Coordination Sequence:
#
# PCOD9276611 Si02
#       5
#     8   8   8   8   8
#     4  11  22  41  68  93 127 179 220 265 339 400
#     4  10  20  40  67  95 132 177 217 276 337 385
#     4  10  25  41  66  99 128 174 219 276 333 398
#     4  11  22  47  64  93 141 165 219 284 330 395
#     4  10  20  40  63  95 129 167 221 269 323 395
#
# _framework density 22.227408
#
# number of rings (size 3 to 8) (size 9 to 14) (size 15 to 20)
#    0.000    1.600    4.000    1.800    2.800    3.200 
#    7.200    2.000    0.000    0.000    0.000    0.000 
#    0.000    0.000    0.000    0.000    0.000    0.000 
#
# Total GULP energy -111781.783645 kJ/mol
# GULP energy per Si atom -5589.089182 kJ/mol
# Density = 2.217682 g / cm^3
# Si number density = 22.227408 Si / 1000 Ang^3
#
#
#
# Elastic Constant Matrix: (Units=GPa)
#
#
# Indices 1 2 3 4 5 6 
#
# 1 154.0788 17.1943 87.4021 0.0000 -2.9019 0.0000
# 2 17.1943 62.2664 18.7579 0.0000 -2.2230 0.0000
# 3 87.4021 18.7579 190.2319 0.0000 -14.2222 0.0000
# 4 0.0000 0.0000 0.0000 45.8862 0.0000 -19.1039
# 5 -2.9019 -2.2230 -14.2222 0.0000 42.8425 0.0000
# 6 0.0000 0.0000 0.0000 -19.1039 0.0000 21.1422
#
#
#
# Elastic Compliance Matrix: (Units=1/GPa)
#
#
# Indices 1 2 3 4 5 6 
#
# 1 0.008899 -0.001274 -0.004023 0.000000 -0.000799 0.000000
# 2 -0.001274 0.016739 -0.001032 0.000000 0.000440 0.000000
# 3 -0.004023 -0.001032 0.007365 0.000000 0.002119 0.000000
# 4 0.000000 0.000000 0.000000 0.034936 0.000000 0.031567
# 5 -0.000799 0.000440 0.002119 0.000000 0.024013 0.000000
# 6 0.000000 0.000000 0.000000 0.031567 0.000000 0.075823
#
#
# Mechanical properties :
#
#
# Convention : Reuss Voigt Hill
#
# Bulk Modulus (GPa) = 49.15302 72.58731 60.87016
# Shear Modulus (GPa) = 26.70726 40.85569 33.78148
#
# Velocity S-wave (km/s) = 3.47009 4.29193 3.90271
# Velocity P-wave (km/s) = 6.18200 7.56891 6.91034
#
# Compressibility (1/GPa) = 0.02034463
#
# Stress axis : x y z
#
# Youngs Moduli (GPa) = 112.36807 59.74243 135.77249
#
# Poissons Ratio (x) = 0.07612 0.54620
# Poissons Ratio (y) = 0.14317 0.14015
# Poissons Ratio (z) = 0.45204 0.06167
#
# Static dielectric constant tensor:
#      x y z
#    x 1.872770 0.000000 -0.029520 
#    y 0.000000 1.860630 0.000000 
#    z -0.029520 0.000000 1.828950 
# 
# From -- ./inp_files/195225.got.cif
#   From: 2010.05.17/outbox.cif.g08.bks.cpg/sg15_98_cif.got.tgz:195225.got - 2010.06.03 18:47:42.
