data_PCOD9276550
_publ_section_title
;
Structure prediction by ZEFSAII (Michael W. Deem and Ramdas Pophale) SiO2 
 PCOD9276550
Probable space group: C 2/C
;
_chemical_formula_sum "Si O2"
_cell_formula_units_Z 52
_cell_length_a 15.932031
_cell_length_b 27.571365
_cell_length_c 7.301463
_cell_angle_alpha 90.000000
_cell_angle_beta 136.345525
_cell_angle_gamma 90.000000
_cell_volume 2214.022598
_symmetry_space_group_name_H-M "C 2/C"
_symmetry_group_IT_number 15
_symmetry_cell_setting 'monoclinic'
loop_
_space_group_symop_operation_xyz
x,y,z
-x,y,1/2-z
-x,-y,-z
x,-y,1/2+z
1/2+x,1/2+y,z
1/2-x,1/2+y,1/2-z
1/2-x,1/2-y,-z
1/2+x,1/2-y,1/2+z
loop_
_atom_site_type_symbol
_atom_site_label
_atom_site_fract_x
_atom_site_fract_y
_atom_site_fract_z
Si Si1 0.230538 0.891196 0.732258
Si Si2 0.399340 0.266535 0.429115
Si Si3 0.354617 0.492732 0.728572
Si Si4 0.716791 0.836985 0.300317
Si Si5 0.551025 0.159852 0.038571
Si Si6 0.873041 0.076015 0.937770
Si Si7 0.500000 0.669821 0.750000
O O1 0.204389 0.945192 0.767481
O O2 0.109109 0.866138 0.470622
O O3 0.258227 0.855679 0.953796
O O4 0.350168 0.882606 0.797639
O O5 0.276575 0.286835 0.329652
O O6 0.383881 0.211655 0.335253
O O7 0.453929 0.297998 0.348386
O O8 0.500000 0.267046 0.750000
O O9 0.335133 0.472411 0.491074
O O10 0.500000 0.500000 0.000000
O O11 0.333358 0.550650 0.685240
O O12 0.573257 0.840901 0.041876
O O13 0.796622 0.876221 0.320723
O O14 0.500000 0.158877 0.750000
O O15 0.000000 0.087602 0.250000
#
# Coordination Sequence:
#
# PCOD9276550 Si02
#       7
#     8   8   8   8   8   8   4
#     4  10  22  39  59  93 125 159 208 255 318 367
#     4  11  23  40  65  92 124 164 214 258 313 368
#     4   9  19  32  54  84 120 151 198 254 304 366
#     4  10  20  40  63  86 122 165 210 252 311 376
#     4   9  22  40  64  85 122 169 208 256 308 373
#     4   9  18  31  56  85 116 150 197 253 303 362
#     4  12  26  36  66  96 128 156 206 270 310 370
#
# _framework density 23.486661000000002
#
# number of rings (size 3 to 8) (size 9 to 14) (size 15 to 20)
#    0.000    2.154    1.538    0.462    9.692    2.462 
#    0.000    0.769    0.000    0.000    0.000    0.000 
#    0.000    0.000    0.000    0.000    0.000    0.000 
#
# Total GULP energy -144737.897775 kJ/mol
# GULP energy per Si atom -5566.842222 kJ/mol
# Density = 2.343320 g / cm^3
# Si number density = 23.486661 Si / 1000 Ang^3
#
#
#
# Elastic Constant Matrix: (Units=GPa)
#
#
# Indices 1 2 3 4 5 6 
#
# 1 90.5026 48.8722 33.2346 0.0000 33.8496 0.0000
# 2 48.8722 127.9605 30.6796 0.0000 37.0311 0.0000
# 3 33.2346 30.6796 84.5032 0.0000 19.0591 0.0000
# 4 0.0000 0.0000 0.0000 20.2848 0.0000 10.0183
# 5 33.8496 37.0311 19.0591 0.0000 37.6905 0.0000
# 6 0.0000 0.0000 0.0000 10.0183 0.0000 45.3192
#
#
#
# Elastic Compliance Matrix: (Units=1/GPa)
#
#
# Indices 1 2 3 4 5 6 
#
# 1 0.018270 -0.002657 -0.003509 0.000000 -0.012023 0.000000
# 2 -0.002657 0.011539 -0.001270 0.000000 -0.008308 0.000000
# 3 -0.003509 -0.001270 0.014316 0.000000 -0.002840 0.000000
# 4 0.000000 0.000000 0.000000 0.055340 0.000000 -0.012233
# 5 -0.012023 -0.008308 -0.002840 0.000000 0.046928 0.000000
# 6 0.000000 0.000000 0.000000 -0.012233 0.000000 0.024770
#
#
# Mechanical properties :
#
#
# Convention : Reuss Voigt Hill
#
# Bulk Modulus (GPa) = 34.18692 58.72656 46.45674
# Shear Modulus (GPa) = 25.53822 33.33756 29.43789
#
# Velocity S-wave (km/s) = 3.30108 3.77161 3.54416
# Velocity P-wave (km/s) = 5.39601 6.63515 6.04740
#
# Compressibility (1/GPa) = 0.02925095
#
# Stress axis : x y z
#
# Youngs Moduli (GPa) = 54.73582 86.66540 69.85402
#
# Poissons Ratio (x) = 0.23028 0.24511
# Poissons Ratio (y) = 0.14544 0.08874
# Poissons Ratio (z) = 0.19207 0.11009
#
# Static dielectric constant tensor:
#      x y z
#    x 3.683180 0.000000 -0.069290 
#    y 0.000000 1.601690 0.000000 
#    z -0.069290 0.000000 2.013660 
# 
# From -- ./inp_files/52218.got.cif
#   From: 2010.05.17/outbox.cif.g08.bks.cpg/sg15_27_cif.got.tgz:52218.got - 2010.06.03 18:47:42.
