data_PCOD9276710
_publ_section_title
;
Structure prediction by ZEFSAII (Michael W. Deem and Ramdas Pophale) SiO2 
 PCOD9276710
Probable space group: C 2/C
;
_chemical_formula_sum "Si O2"
_cell_formula_units_Z 60
_cell_length_a 24.739668
_cell_length_b 19.661419
_cell_length_c 14.716283
_cell_angle_alpha 90.000000
_cell_angle_beta 157.836136
_cell_angle_gamma 90.000000
_cell_volume 2700.498257
_symmetry_space_group_name_H-M "C 2/C"
_symmetry_group_IT_number 15
_symmetry_cell_setting 'monoclinic'
loop_
_space_group_symop_operation_xyz
x,y,z
-x,y,1/2-z
-x,-y,-z
x,-y,1/2+z
1/2+x,1/2+y,z
1/2-x,1/2+y,1/2-z
1/2-x,1/2-y,-z
1/2+x,1/2-y,1/2+z
loop_
_atom_site_type_symbol
_atom_site_label
_atom_site_fract_x
_atom_site_fract_y
_atom_site_fract_z
Si Si1 0.022258 0.921981 0.059905
Si Si2 0.460673 0.883869 0.893065
Si Si3 0.300507 0.676309 0.799581
Si Si4 0.500000 0.155630 0.250000
Si Si5 0.220639 0.145354 0.394504
Si Si6 0.149127 0.077335 0.951390
Si Si7 0.465723 0.222641 0.848722
Si Si8 0.757088 0.931715 0.388401
O O1 0.108465 0.873503 0.124671
O O2 0.119452 0.925355 0.298861
O O3 0.864110 0.887028 0.821989
O O4 0.000000 0.000000 0.000000
O O5 0.454617 0.882201 0.773620
O O6 0.308143 0.893230 0.703960
O O7 0.515951 0.813896 0.025233
O O8 0.585189 0.937172 0.112689
O O9 0.146647 0.690724 0.513372
O O10 0.291106 0.631224 0.875590
O O11 0.384656 0.745652 0.949551
O O12 0.384428 0.170522 0.655234
O O13 0.133179 0.211806 0.288999
O O14 0.204868 0.089882 0.450383
O O15 0.000000 0.111252 0.750000
O O16 0.163721 0.001032 0.014432
#
# Coordination Sequence:
#
# PCOD9276710 Si02
#       8
#     8   8   8   4   8   8   8   8
#     4  11  20  36  62  92 132 171 215 273 331 389
#     4  10  22  43  64  95 133 176 221 276 338 394
#     4  10  21  38  64  96 126 173 230 277 327 399
#     4  10  20  40  64  92 126 174 236 264 328 408
#     4   9  19  38  63  95 126 165 218 280 323 389
#     4  12  24  40  61  97 138 174 217 272 341 400
#     4   9  20  38  62  90 130 166 217 273 328 383
#     4  10  21  39  70  94 123 175 228 276 328 398
#
# _framework density 22.218122999999999
#
# number of rings (size 3 to 8) (size 9 to 14) (size 15 to 20)
#    0.000    1.867    2.667    1.200    1.867    0.533 
#    1.200    8.000    0.000    2.400    0.000    0.000 
#    0.000    0.000    0.000    0.000    0.000    0.000 
#
# Total GULP energy -167130.384446 kJ/mol
# GULP energy per Si atom -5571.012815 kJ/mol
# Density = 2.216755 g / cm^3
# Si number density = 22.218123 Si / 1000 Ang^3
#
#
#
# Elastic Constant Matrix: (Units=GPa)
#
#
# Indices 1 2 3 4 5 6 
#
# 1 48.4745 7.0504 12.9334 0.0000 17.5786 0.0000
# 2 7.0504 40.1359 30.6894 0.0000 6.5115 0.0000
# 3 12.9334 30.6894 136.8267 0.0000 15.3546 0.0000
# 4 0.0000 0.0000 0.0000 10.8772 0.0000 -69.9614
# 5 17.5786 6.5115 15.3546 0.0000 33.1792 0.0000
# 6 0.0000 0.0000 0.0000 -69.9614 0.0000 -471.5817
#
#
#
# Elastic Compliance Matrix: (Units=1/GPa)
#
#
# Indices 1 2 3 4 5 6 
#
# 1 0.025785 -0.002016 -0.000524 0.000000 -0.013023 0.000000
# 2 -0.002016 0.030504 -0.006433 0.000000 -0.001941 0.000000
# 3 -0.000524 -0.006433 0.009101 0.000000 -0.002672 0.000000
# 4 0.000000 0.000000 0.000000 0.047045 0.000000 -0.006979
# 5 -0.013023 -0.001941 -0.002672 0.000000 0.038656 0.000000
# 6 0.000000 0.000000 0.000000 -0.006979 0.000000 -0.001085
#
#
# Mechanical properties :
#
#
# Convention : Reuss Voigt Hill
#
# Bulk Modulus (GPa) = 21.07796 36.30925 28.69361
# Shear Modulus (GPa) = 27.20845 -73.85413 -23.32284
#
# Velocity S-wave (km/s) = 3.50323 -5.77171 -3.24346
# Velocity P-wave (km/s) = 5.08635 5.29521 1.04121
#
# Compressibility (1/GPa) = 0.04744292
#
# Stress axis : x y z
#
# Youngs Moduli (GPa) = 38.78225 32.78295 109.88061
#
# Poissons Ratio (x) = 0.06610 0.05754
# Poissons Ratio (y) = 0.07820 0.70690
# Poissons Ratio (z) = 0.02031 0.21091
#
# Static dielectric constant tensor:
#      x y z
#    x 1.888540 0.000000 0.067000 
#    y 0.000000 1.803130 0.000000 
#    z 0.067000 0.000000 1.869050 
# 
# From -- ./inp_files/179124.got.cif
#   From: 2010.05.17/outbox.cif.g08.bks.cpg/sg15_90_cif.got.tgz:179124.got - 2010.06.03 18:47:42.
