data_PCOD9276671
_publ_section_title
;
Structure prediction by ZEFSAII (Michael W. Deem and Ramdas Pophale) SiO2 
 PCOD9276671
Probable space group: C 2/C
;
_chemical_formula_sum "Si O2"
_cell_formula_units_Z 48
_cell_length_a 7.779162
_cell_length_b 23.953466
_cell_length_c 11.520171
_cell_angle_alpha 90.000000
_cell_angle_beta 85.289700
_cell_angle_gamma 90.000000
_cell_volume 2139.394396
_symmetry_space_group_name_H-M "C 2/C"
_symmetry_group_IT_number 15
_symmetry_cell_setting 'monoclinic'
loop_
_space_group_symop_operation_xyz
x,y,z
-x,y,1/2-z
-x,-y,-z
x,-y,1/2+z
1/2+x,1/2+y,z
1/2-x,1/2+y,1/2-z
1/2-x,1/2-y,-z
1/2+x,1/2-y,1/2+z
loop_
_atom_site_type_symbol
_atom_site_label
_atom_site_fract_x
_atom_site_fract_y
_atom_site_fract_z
Si Si1 0.202591 0.966991 0.720791
Si Si2 0.799088 0.985499 0.033607
Si Si3 0.838657 0.735176 0.847453
Si Si4 0.891960 0.205548 0.027129
Si Si5 0.700618 0.155240 0.255310
Si Si6 0.599873 0.628006 0.858625
O O1 0.273848 0.993215 0.594823
O O2 0.219847 0.900838 0.697709
O O3 0.000000 0.979739 0.750000
O O4 0.273999 0.982107 0.847239
O O5 0.809503 0.921454 0.076029
O O6 0.000000 0.000000 0.000000
O O7 0.717316 0.787217 0.823262
O O8 0.740430 0.677223 0.837614
O O9 0.000000 0.733414 0.750000
O O10 0.938647 0.757557 0.954875
O O11 0.813246 0.170089 0.136587
O O12 0.750000 0.250000 0.000000
O O13 0.946125 0.159540 0.932806
O O14 0.500000 0.143780 0.250000
O O15 0.500000 0.606629 0.750000
#
# Coordination Sequence:
#
# PCOD9276671 Si02
#       6
#     8   8   8   8   8   8
#     4  10  20  40  64  89 119 163 215 269 319 379
#     4  10  21  38  63  91 120 163 218 264 314 380
#     4  10  21  39  59  88 126 164 204 258 320 383
#     4  11  22  36  59  90 125 166 211 258 317 388
#     4  11  22  39  62  90 125 165 209 261 324 389
#     4  12  22  36  60  90 125 165 211 264 314 377
#
# _framework density 22.436256
#
# number of rings (size 3 to 8) (size 9 to 14) (size 15 to 20)
#    0.000    1.333    0.000   10.000    0.000    1.333 
#    0.000    1.667    0.000    0.000    0.000    0.000 
#    0.000    0.000    0.000    0.000    0.000    0.000 
#
# Total GULP energy -133803.416338 kJ/mol
# GULP energy per Si atom -5575.142347 kJ/mol
# Density = 2.238519 g / cm^3
# Si number density = 22.436256 Si / 1000 Ang^3
#
#
#
# Elastic Constant Matrix: (Units=GPa)
#
#
# Indices 1 2 3 4 5 6 
#
# 1 39.1005 -4.0239 9.9091 0.0000 3.1131 0.0000
# 2 -4.0239 104.8482 22.9312 0.0000 -7.2592 0.0000
# 3 9.9091 22.9312 139.5154 0.0000 -9.8102 0.0000
# 4 0.0000 0.0000 0.0000 37.6479 0.0000 1.2692
# 5 3.1131 -7.2592 -9.8102 0.0000 22.9495 0.0000
# 6 0.0000 0.0000 0.0000 1.2692 0.0000 21.4227
#
#
#
# Elastic Compliance Matrix: (Units=1/GPa)
#
#
# Indices 1 2 3 4 5 6 
#
# 1 0.026649 0.001253 -0.002397 0.000000 -0.004243 0.000000
# 2 0.001253 0.010094 -0.001583 0.000000 0.002346 0.000000
# 3 -0.002397 -0.001583 0.007821 0.000000 0.003168 0.000000
# 4 0.000000 0.000000 0.000000 0.026615 0.000000 -0.001577
# 5 -0.004243 0.002346 0.003168 0.000000 0.046246 0.000000
# 6 0.000000 0.000000 0.000000 -0.001577 0.000000 0.046773
#
#
# Mechanical properties :
#
#
# Convention : Reuss Voigt Hill
#
# Bulk Modulus (GPa) = 25.56855 37.89966 31.73411
# Shear Modulus (GPa) = 27.36886 33.38053 30.37469
#
# Velocity S-wave (km/s) = 3.49642 3.86138 3.68342
# Velocity P-wave (km/s) = 5.26505 6.06705 5.68023
#
# Compressibility (1/GPa) = 0.03911055
#
# Stress axis : x y z
#
# Youngs Moduli (GPa) = 37.52423 99.06491 127.86293
#
# Poissons Ratio (x) = -0.12415 0.30651
# Poissons Ratio (y) = -0.04703 0.20243
# Poissons Ratio (z) = 0.08995 0.15684
#
# Static dielectric constant tensor:
#      x y z
#    x 2.521490 0.000000 0.061140 
#    y 0.000000 1.742620 0.000000 
#    z 0.061140 0.000000 2.011860 
# 
# From -- ./inp_files/79260.got.cif
#   From: 2010.05.17/outbox.cif.g08.bks.cpg/sg15_40_cif.got.tgz:79260.got - 2010.06.03 18:47:42.
