data_PCOD9276340
_publ_section_title
;
Structure prediction by ZEFSAII (Michael W. Deem and Ramdas Pophale) SiO2 
 PCOD9276340
Probable space group: C 2/C
;
_chemical_formula_sum "Si O2"
_cell_formula_units_Z 60
_cell_length_a 29.334967
_cell_length_b 14.404993
_cell_length_c 21.012604
_cell_angle_alpha 90.000000
_cell_angle_beta 161.904830
_cell_angle_gamma 90.000000
_cell_volume 2757.876475
_symmetry_space_group_name_H-M "C 2/C"
_symmetry_group_IT_number 15
_symmetry_cell_setting 'monoclinic'
loop_
_space_group_symop_operation_xyz
x,y,z
-x,y,1/2-z
-x,-y,-z
x,-y,1/2+z
1/2+x,1/2+y,z
1/2-x,1/2+y,1/2-z
1/2-x,1/2-y,-z
1/2+x,1/2-y,1/2+z
loop_
_atom_site_type_symbol
_atom_site_label
_atom_site_fract_x
_atom_site_fract_y
_atom_site_fract_z
Si Si1 0.500000 0.288864 0.750000
Si Si2 0.763506 0.706993 0.916982
Si Si3 0.738683 0.897129 0.952088
Si Si4 0.597337 0.107149 0.511952
Si Si5 0.871127 0.030901 0.378689
Si Si6 0.565670 0.266287 0.568924
Si Si7 0.281838 0.697770 0.108960
Si Si8 0.562789 0.545525 0.241470
O O1 0.368775 0.221484 0.556749
O O2 0.490141 0.361134 0.795141
O O3 0.789841 0.809890 0.978280
O O4 0.878826 0.671485 0.018634
O O5 0.603582 0.712425 0.672096
O O6 0.757004 0.638763 0.969007
O O7 0.572100 0.924657 0.713847
O O8 0.851148 0.980884 0.095855
O O9 0.614199 0.175174 0.595042
O O10 0.722539 0.028731 0.674849
O O11 0.850107 0.140718 0.342111
O O12 0.000000 0.000000 0.500000
O O13 0.940620 0.007375 0.539707
O O14 0.592361 0.259368 0.679720
O O15 0.315346 0.589856 0.144301
O O16 0.250000 0.750000 0.000000
#
# Coordination Sequence:
#
# PCOD9276340 Si02
#       8
#     4   8   8   8   8   8   8   8
#     4  10  24  40  62  88 122 174 210 258 334 368
#     4  10  20  40  60  90 133 166 203 258 321 384
#     4  10  22  38  61  97 130 166 209 258 320 382
#     4  11  23  38  64  98 134 168 213 269 320 381
#     4  12  21  39  67  94 123 171 217 261 316 385
#     4  11  22  39  64  93 126 169 216 260 325 382
#     4  10  22  40  61  87 122 164 215 269 309 370
#     4  11  21  41  64  91 129 163 218 265 310 394
#
# _framework density 21.755868
#
# number of rings (size 3 to 8) (size 9 to 14) (size 15 to 20)
#    0.000    1.333    4.000    1.200    0.000    3.200 
#    0.000    2.667    0.000    8.800    0.000    0.000 
#    0.000    0.000    0.000    0.000    0.000    0.000 
#
# Total GULP energy -167547.291714 kJ/mol
# GULP energy per Si atom -5584.909724 kJ/mol
# Density = 2.170635 g / cm^3
# Si number density = 21.755868 Si / 1000 Ang^3
#
#
#
# Elastic Constant Matrix: (Units=GPa)
#
#
# Indices 1 2 3 4 5 6 
#
# 1 38.3737 8.8726 20.3597 -0.0001 -18.9555 -0.0001
# 2 8.8726 37.4619 36.5687 -0.0001 -1.5812 -0.0001
# 3 20.3597 36.5687 109.1290 -0.0001 -15.4062 -0.0002
# 4 -0.0001 -0.0001 -0.0001 34.9048 -0.0001 2.6491
# 5 -18.9555 -1.5812 -15.4062 -0.0001 37.0080 -0.0001
# 6 -0.0001 -0.0001 -0.0002 2.6491 -0.0001 22.1735
#
#
#
# Elastic Compliance Matrix: (Units=1/GPa)
#
#
# Indices 1 2 3 4 5 6 
#
# 1 0.037595 -0.005605 -0.002604 0.000000 0.017933 0.000000
# 2 -0.005605 0.041094 -0.013686 0.000000 -0.006813 0.000000
# 3 -0.002604 -0.013686 0.014837 0.000000 0.004258 0.000000
# 4 0.000000 0.000000 0.000000 0.028912 0.000000 -0.003454
# 5 0.017933 -0.006813 0.004258 0.000000 0.037688 0.000000
# 6 0.000000 0.000000 0.000000 -0.003454 0.000000 0.045512
#
#
# Mechanical properties :
#
#
# Convention : Reuss Voigt Hill
#
# Bulk Modulus (GPa) = 20.10683 35.17405 27.64044
# Shear Modulus (GPa) = 18.79651 26.76149 22.77900
#
# Velocity S-wave (km/s) = 2.94253 3.51106 3.23929
# Velocity P-wave (km/s) = 4.56144 5.71309 5.16944
#
# Compressibility (1/GPa) = 0.04973435
#
# Stress axis : x y z
#
# Youngs Moduli (GPa) = 26.59898 24.33449 67.40061
#
# Poissons Ratio (x) = 0.13640 0.17551
# Poissons Ratio (y) = 0.14910 0.92247
# Poissons Ratio (z) = 0.06926 0.33305
#
# Static dielectric constant tensor:
#      x y z
#    x 2.187730 0.000000 -0.057720 
#    y 0.000000 1.772760 0.000000 
#    z -0.057720 0.000000 1.848900 
# 
# From -- ./inp_files/259401.got.cif
#   From: 2010.05.17/outbox.cif.g08.bks.cpg/sg15_130_cif.got.tgz:259401.got - 2010.06.03 18:47:42.
