data_PCOD9276680
_publ_section_title
;
Structure prediction by ZEFSAII (Michael W. Deem and Ramdas Pophale) SiO2 
 PCOD9276680
Probable space group: C 2/C
;
_chemical_formula_sum "Si O2"
_cell_formula_units_Z 64
_cell_length_a 17.660620
_cell_length_b 14.711065
_cell_length_c 13.783094
_cell_angle_alpha 90.000000
_cell_angle_beta 120.850417
_cell_angle_gamma 90.000000
_cell_volume 3074.267322
_symmetry_space_group_name_H-M "C 2/C"
_symmetry_group_IT_number 15
_symmetry_cell_setting 'monoclinic'
loop_
_space_group_symop_operation_xyz
x,y,z
-x,y,1/2-z
-x,-y,-z
x,-y,1/2+z
1/2+x,1/2+y,z
1/2-x,1/2+y,1/2-z
1/2-x,1/2-y,-z
1/2+x,1/2-y,1/2+z
loop_
_atom_site_type_symbol
_atom_site_label
_atom_site_fract_x
_atom_site_fract_y
_atom_site_fract_z
Si Si1 0.707591 0.738519 0.366243
Si Si2 0.583039 0.411382 0.867995
Si Si3 0.653114 0.598061 0.993460
Si Si4 0.380134 0.851851 0.927002
Si Si5 0.399686 0.298308 0.220605
Si Si6 0.899182 0.405366 0.161386
Si Si7 0.027241 0.174890 0.536061
Si Si8 0.159122 0.408513 0.791856
O O1 0.750000 0.750000 0.500000
O O2 0.637052 0.658275 0.335626
O O3 0.789817 0.707780 0.355917
O O4 0.660682 0.834441 0.316614
O O5 0.500000 0.443157 0.750000
O O6 0.637011 0.497349 0.941239
O O7 0.554019 0.361309 0.948194
O O8 0.662031 0.658417 0.901862
O O9 0.567220 0.635172 0.994782
O O10 0.737412 0.597653 0.117594
O O11 0.462650 0.784306 0.964598
O O12 0.369608 0.926869 0.837922
O O13 0.382406 0.888000 0.036879
O O14 0.500000 0.308924 0.250000
O O15 0.405040 0.345990 0.330155
O O16 0.379627 0.191467 0.213395
O O17 0.878678 0.509250 0.170880
O O18 0.000000 0.383457 0.250000
#
# Coordination Sequence:
#
# PCOD9276680 Si02
#       8
#     8   8   8   8   8   8   8   8
#     4  10  20  40  64  89 131 160 205 263 321 369
#     4  12  23  37  62  96 128 168 207 258 319 380
#     4  11  23  39  62  93 128 165 209 254 322 380
#     4  10  23  42  64  95 127 165 214 269 316 378
#     4   9  20  43  65  87 125 163 208 263 312 374
#     4  11  23  42  66  89 126 169 213 260 320 375
#     4  10  21  39  62  91 126 161 206 255 316 377
#     4  11  24  41  64  92 124 167 216 260 317 371
#
# _framework density 20.817969000000002
#
# number of rings (size 3 to 8) (size 9 to 14) (size 15 to 20)
#    0.000    1.500    2.500    4.125    1.750    0.500 
#    2.250    1.250    0.000    0.000    0.000    0.000 
#    0.000    0.000    0.000    0.000    0.000    0.000 
#
# Total GULP energy -178586.301237 kJ/mol
# GULP energy per Si atom -5580.821914 kJ/mol
# Density = 2.077059 g / cm^3
# Si number density = 20.817969 Si / 1000 Ang^3
#
#
#
# Elastic Constant Matrix: (Units=GPa)
#
#
# Indices 1 2 3 4 5 6 
#
# 1 25.4901 -1.1740 16.2548 0.0000 -6.1302 0.0000
# 2 -1.1740 62.8978 33.7582 0.0000 -8.1338 0.0000
# 3 16.2548 33.7582 99.3290 0.0000 -5.1590 0.0000
# 4 0.0000 0.0000 0.0000 32.6752 0.0000 4.6286
# 5 -6.1302 -8.1338 -5.1590 0.0000 24.1055 0.0000
# 6 0.0000 0.0000 0.0000 4.6286 0.0000 17.4285
#
#
#
# Elastic Compliance Matrix: (Units=1/GPa)
#
#
# Indices 1 2 3 4 5 6 
#
# 1 0.049179 0.008025 -0.010098 0.000000 0.013053 0.000000
# 2 0.008025 0.021424 -0.008204 0.000000 0.007514 0.000000
# 3 -0.010098 -0.008204 0.014391 0.000000 -0.002256 0.000000
# 4 0.000000 0.000000 0.000000 0.031801 0.000000 -0.008446
# 5 0.013053 0.007514 -0.002256 0.000000 0.046857 0.000000
# 6 0.000000 0.000000 0.000000 -0.008446 0.000000 0.059620
#
#
# Mechanical properties :
#
#
# Convention : Reuss Voigt Hill
#
# Bulk Modulus (GPa) = 15.51803 31.71054 23.61429
# Shear Modulus (GPa) = 18.84633 24.10037 21.47335
#
# Velocity S-wave (km/s) = 3.01207 3.40615 3.21515
# Velocity P-wave (km/s) = 4.42347 5.54387 5.01506
#
# Compressibility (1/GPa) = 0.06444116
#
# Stress axis : x y z
#
# Youngs Moduli (GPa) = 20.33394 46.67755 69.48758
#
# Poissons Ratio (x) = -0.37461 0.70165
# Poissons Ratio (y) = -0.16319 0.57009
# Poissons Ratio (z) = 0.20532 0.38295
#
# Static dielectric constant tensor:
#      x y z
#    x 0.836440 0.000000 -0.571450 
#    y 0.000000 1.757500 0.000000 
#    z -0.571450 0.000000 1.418180 
# 
# From -- ./inp_files/162561.got.cif
#   From: 2010.05.17/outbox.cif.g08.bks.cpg/sg15_82_cif.got.tgz:162561.got - 2010.06.03 18:47:42.
