data_PCOD9276191
_publ_section_title
;
Structure prediction by ZEFSAII (Michael W. Deem and Ramdas Pophale) SiO2 
 PCOD9276191
Probable space group: C 2/C
;
_chemical_formula_sum "Si O2"
_cell_formula_units_Z 56
_cell_length_a 16.843560
_cell_length_b 21.622997
_cell_length_c 9.236839
_cell_angle_alpha 90.000000
_cell_angle_beta 124.334372
_cell_angle_gamma 90.000000
_cell_volume 2777.966702
_symmetry_space_group_name_H-M "C 2/C"
_symmetry_group_IT_number 15
_symmetry_cell_setting 'monoclinic'
loop_
_space_group_symop_operation_xyz
x,y,z
-x,y,1/2-z
-x,-y,-z
x,-y,1/2+z
1/2+x,1/2+y,z
1/2-x,1/2+y,1/2-z
1/2-x,1/2-y,-z
1/2+x,1/2-y,1/2+z
loop_
_atom_site_type_symbol
_atom_site_label
_atom_site_fract_x
_atom_site_fract_y
_atom_site_fract_z
Si Si1 0.000000 0.444368 0.750000
Si Si2 0.389278 0.577156 0.616407
Si Si3 0.970880 0.624664 0.926670
Si Si4 0.844610 0.209699 0.589026
Si Si5 0.134468 0.441554 0.405753
Si Si6 0.998075 0.233521 0.507167
Si Si7 0.500000 0.360762 0.750000
Si Si8 0.848927 0.047340 0.239329
O O1 0.974542 0.400686 0.591346
O O2 0.090295 0.491155 0.820961
O O3 0.500000 0.598336 0.750000
O O4 0.325468 0.636740 0.586641
O O5 0.369385 0.555981 0.431049
O O6 0.375566 0.520984 0.712092
O O7 0.059332 0.590011 0.938683
O O8 0.875529 0.600391 0.747664
O O9 0.984450 0.697663 0.931971
O O10 0.750000 0.250000 0.500000
O O11 0.916976 0.232192 0.788171
O O12 0.900869 0.216514 0.494482
O O13 0.237988 0.443589 0.583167
O O14 0.021151 0.183970 0.407118
O O15 0.586152 0.404774 0.785107
#
# Coordination Sequence:
#
# PCOD9276191 Si02
#       8
#     4   8   8   8   8   8   4   8
#     4  10  20  39  70  93 136 174 222 280 356 404
#     4  12  25  49  68 101 137 179 231 288 342 402
#     4  10  22  42  66  95 137 177 220 274 360 410
#     4  11  25  45  70 102 134 178 231 283 338 414
#     4  10  23  42  61 101 134 173 219 291 338 423
#     4  11  24  44  69  94 138 182 227 283 343 420
#     4  12  24  47  64  99 132 188 224 288 348 396
#     4  12  28  40  76  98 135 180 235 287 347 400
#
# _framework density 20.158626999999999
#
# number of rings (size 3 to 8) (size 9 to 14) (size 15 to 20)
#    0.000    1.143    3.571    3.857    8.000    2.286 
#    0.000    2.143    0.000    0.000    0.000    0.000 
#    0.000    0.000    0.000    0.000    0.000    0.000 
#
# Total GULP energy -156552.672572 kJ/mol
# GULP energy per Si atom -5591.166878 kJ/mol
# Density = 2.011275 g / cm^3
# Si number density = 20.158627 Si / 1000 Ang^3
#
#
#
# Elastic Constant Matrix: (Units=GPa)
#
#
# Indices 1 2 3 4 5 6 
#
# 1 35.6138 17.2443 30.0166 0.0000 9.7714 0.0000
# 2 17.2443 135.0749 23.9875 0.0000 5.9873 0.0000
# 3 30.0166 23.9875 112.8077 0.0000 2.4081 0.0000
# 4 0.0000 0.0000 0.0000 74.7574 0.0000 5.5581
# 5 9.7714 5.9873 2.4081 0.0000 29.4280 0.0000
# 6 0.0000 0.0000 0.0000 5.5581 0.0000 45.1490
#
#
#
# Elastic Compliance Matrix: (Units=1/GPa)
#
#
# Indices 1 2 3 4 5 6 
#
# 1 0.041428 -0.002943 -0.010134 0.000000 -0.012328 0.000000
# 2 -0.002943 0.007964 -0.000898 0.000000 -0.000570 0.000000
# 3 -0.010134 -0.000898 0.011697 0.000000 0.002591 0.000000
# 4 0.000000 0.000000 0.000000 0.013500 0.000000 -0.001662
# 5 -0.012328 -0.000570 0.002591 0.000000 0.037979 0.000000
# 6 0.000000 0.000000 0.000000 -0.001662 0.000000 0.022354
#
#
# Mechanical properties :
#
#
# Convention : Reuss Voigt Hill
#
# Bulk Modulus (GPa) = 30.17702 47.33260 38.75481
# Shear Modulus (GPa) = 28.74924 44.01674 36.38299
#
# Velocity S-wave (km/s) = 3.78054 4.67788 4.25294
# Velocity P-wave (km/s) = 5.83600 7.26002 6.58660
#
# Compressibility (1/GPa) = 0.03313780
#
# Stress axis : x y z
#
# Youngs Moduli (GPa) = 24.13830 125.56906 85.49209
#
# Poissons Ratio (x) = 0.36951 0.86642
# Poissons Ratio (y) = 0.07103 0.07679
# Poissons Ratio (z) = 0.24463 0.11279
#
# Static dielectric constant tensor:
#      x y z
#    x 1.714960 0.000000 -0.004820 
#    y 0.000000 1.715900 0.000000 
#    z -0.004820 0.000000 1.682130 
# 
# From -- ./inp_files/51610.got.cif
#   From: 2010.05.17/outbox.cif.g08.bks.cpg/sg15_26_cif.got.tgz:51610.got - 2010.06.03 18:47:42.
