data_PCOD9277743
_publ_section_title
;
Structure prediction by ZEFSAII (Michael W. Deem and Ramdas Pophale) SiO2 
 PCOD9277743
Probable space group: C 2/C
;
_chemical_formula_sum "Si O2"
_cell_formula_units_Z 48
_cell_length_a 13.521212
_cell_length_b 14.364915
_cell_length_c 11.793264
_cell_angle_alpha 90.000000
_cell_angle_beta 53.312025
_cell_angle_gamma 90.000000
_cell_volume 1836.849132
_symmetry_space_group_name_H-M "C 2/C"
_symmetry_group_IT_number 15
_symmetry_cell_setting 'monoclinic'
loop_
_space_group_symop_operation_xyz
x,y,z
-x,y,1/2-z
-x,-y,-z
x,-y,1/2+z
1/2+x,1/2+y,z
1/2-x,1/2+y,1/2-z
1/2-x,1/2-y,-z
1/2+x,1/2-y,1/2+z
loop_
_atom_site_type_symbol
_atom_site_label
_atom_site_fract_x
_atom_site_fract_y
_atom_site_fract_z
Si Si1 0.290043 0.288261 0.850021
Si Si2 0.551857 0.177352 0.362353
Si Si3 0.635423 0.981948 0.679609
Si Si4 0.615037 0.554250 0.075495
Si Si5 0.942406 0.119635 0.638698
Si Si6 0.170019 0.379679 0.345860
O O1 0.164009 0.316160 0.874465
O O2 0.376365 0.376570 0.821838
O O3 0.348733 0.207341 0.730200
O O4 0.250000 0.250000 0.000000
O O5 0.497913 0.280290 0.384491
O O6 0.439931 0.118248 0.490207
O O7 0.616575 0.127492 0.211792
O O8 0.500000 0.022641 0.750000
O O9 0.745252 0.014482 0.525841
O O10 0.670673 0.024700 0.776649
O O11 0.524259 0.466306 0.122189
O O12 0.588894 0.608389 0.974335
O O13 0.810343 0.128544 0.791233
#
# Coordination Sequence:
#
# PCOD9277743 Si02
#       6
#     8   8   8   8   8   8
#     4  11  20  41  67 104 135 179 239 296 353 408
#     4  11  23  39  68 101 136 182 230 288 360 418
#     4  11  23  40  68  92 134 183 229 283 350 425
#     4  10  20  41  68  93 133 180 230 294 342 415
#     4   9  21  39  65  93 134 182 224 281 359 411
#     4  10  22  39  66  99 140 172 236 297 347 422
#
# _framework density 26.131703999999999
#
# number of rings (size 3 to 8) (size 9 to 14) (size 15 to 20)
#    0.000    1.667    5.000    1.500    4.667    0.000 
#    0.000    0.833   18.333    0.000    0.000    0.000 
#    0.000    0.000    0.000    0.000    0.000    0.000 
#
# Total GULP energy -134338.018119 kJ/mol
# GULP energy per Si atom -5597.417422 kJ/mol
# Density = 2.607223 g / cm^3
# Si number density = 26.131704 Si / 1000 Ang^3
#
#
#
# Elastic Constant Matrix: (Units=GPa)
#
#
# Indices 1 2 3 4 5 6 
#
# 1 108.5901 24.6262 17.9123 0.0000 -1.6780 0.0000
# 2 24.6262 156.9210 17.8154 0.0000 -5.8200 0.0000
# 3 17.9123 17.8154 86.2529 0.0000 3.1007 0.0000
# 4 0.0000 0.0000 0.0000 32.1796 0.0000 0.1214
# 5 -1.6780 -5.8200 3.1007 0.0000 44.3501 0.0000
# 6 0.0000 0.0000 0.0000 0.1214 0.0000 51.5508
#
#
#
# Elastic Compliance Matrix: (Units=1/GPa)
#
#
# Indices 1 2 3 4 5 6 
#
# 1 0.009807 -0.001326 -0.001774 0.000000 0.000321 0.000000
# 2 -0.001326 0.006745 -0.001151 0.000000 0.000915 0.000000
# 3 -0.001774 -0.001151 0.012239 0.000000 -0.001074 0.000000
# 4 0.000000 0.000000 0.000000 0.031076 0.000000 -0.000073
# 5 0.000321 0.000915 -0.001074 0.000000 0.022755 0.000000
# 6 0.000000 0.000000 0.000000 -0.000073 0.000000 0.019399
#
#
# Mechanical properties :
#
#
# Convention : Reuss Voigt Hill
#
# Bulk Modulus (GPa) = 49.28724 52.49688 50.89206
# Shear Modulus (GPa) = 42.63092 45.04344 43.83718
#
# Velocity S-wave (km/s) = 4.04342 4.15626 4.10023
# Velocity P-wave (km/s) = 6.37974 6.57006 6.47560
#
# Compressibility (1/GPa) = 0.02028923
#
# Stress axis : x y z
#
# Youngs Moduli (GPa) = 101.96542 148.25160 81.70863
#
# Poissons Ratio (x) = 0.19654 0.14498
# Poissons Ratio (y) = 0.13518 0.09403
# Poissons Ratio (z) = 0.18093 0.17061
#
# Static dielectric constant tensor:
#      x y z
#    x 2.117780 0.000000 0.008130 
#    y 0.000000 2.114500 0.000000 
#    z 0.008130 0.000000 2.119920 
# 
# From -- ./inp_files/155072.got.cif
#   From: 2010.05.17/outbox.cif.g08.bks.cpg/sg15_78_cif.got.tgz:155072.got - 2010.06.03 18:47:42.
