data_PCOD9277977
_publ_section_title
;
Structure prediction by ZEFSAII (Michael W. Deem and Ramdas Pophale) SiO2 
 PCOD9277977
Probable space group: C 2/C
;
_chemical_formula_sum "Si O2"
_cell_formula_units_Z 56
_cell_length_a 12.220251
_cell_length_b 29.369773
_cell_length_c 8.807682
_cell_angle_alpha 90.000000
_cell_angle_beta 51.283015
_cell_angle_gamma 90.000000
_cell_volume 2466.455871
_symmetry_space_group_name_H-M "C 2/C"
_symmetry_group_IT_number 15
_symmetry_cell_setting 'monoclinic'
loop_
_space_group_symop_operation_xyz
x,y,z
-x,y,1/2-z
-x,-y,-z
x,-y,1/2+z
1/2+x,1/2+y,z
1/2-x,1/2+y,1/2-z
1/2-x,1/2-y,-z
1/2+x,1/2-y,1/2+z
loop_
_atom_site_type_symbol
_atom_site_label
_atom_site_fract_x
_atom_site_fract_y
_atom_site_fract_z
Si Si1 0.253903 0.867621 0.228824
Si Si2 0.500000 0.479513 0.250000
Si Si3 0.661956 0.184674 0.335371
Si Si4 0.544318 0.649296 0.363399
Si Si5 0.856606 0.052495 0.183278
Si Si6 0.000000 0.643472 0.750000
Si Si7 0.855835 0.593722 0.333153
Si Si8 0.146629 0.223944 0.700291
O O1 0.382803 0.878203 0.233132
O O2 0.246703 0.814903 0.182698
O O3 0.095985 0.867497 0.431770
O O4 0.267210 0.897374 0.063537
O O5 0.381695 0.513240 0.282746
O O6 0.448871 0.454606 0.448008
O O7 0.831326 0.179005 0.173307
O O8 0.603530 0.171159 0.550013
O O9 0.614681 0.143746 0.264759
O O10 0.608435 0.235060 0.347118
O O11 0.500000 0.674435 0.250000
O O12 0.615026 0.601009 0.264048
O O13 0.708347 0.061259 0.237299
O O14 0.000000 0.571951 0.250000
O O15 0.250000 0.250000 0.500000
O O16 0.000000 0.207372 0.750000
#
# Coordination Sequence:
#
# PCOD9277977 Si02
#       8
#     8   4   8   8   8   4   8   8
#     4  12  25  40  65  91 126 172 229 276 331 388
#     4  10  20  42  64 105 132 166 204 266 324 401
#     4  11  23  42  63  89 131 167 224 281 333 384
#     4  11  22  41  62  98 128 167 219 275 314 391
#     4  10  22  38  70  96 134 166 209 263 325 385
#     4  12  24  40  58  89 126 170 206 282 342 389
#     4  11  22  42  68  95 127 176 220 266 318 400
#     4  12  24  42  63  88 120 176 222 285 334 385
#
# _framework density 22.704643000000001
#
# number of rings (size 3 to 8) (size 9 to 14) (size 15 to 20)
#    0.000    0.857    5.000    3.000    2.000    0.571 
#    2.571    0.714    0.000    0.000    0.000    0.000 
#    0.000    0.000    0.000    0.000    0.000    0.000 
#
# Total GULP energy -155934.085030 kJ/mol
# GULP energy per Si atom -5569.074465 kJ/mol
# Density = 2.265297 g / cm^3
# Si number density = 22.704643 Si / 1000 Ang^3
#
#
#
# Elastic Constant Matrix: (Units=GPa)
#
#
# Indices 1 2 3 4 5 6 
#
# 1 157.9848 20.9074 6.6339 0.0000 -0.9445 0.0000
# 2 20.9074 36.6512 -15.2143 0.0000 6.7191 0.0000
# 3 6.6339 -15.2143 98.5901 0.0000 1.2518 0.0000
# 4 0.0000 0.0000 0.0000 9.9523 0.0000 0.6467
# 5 -0.9445 6.7191 1.2518 0.0000 36.3744 0.0000
# 6 0.0000 0.0000 0.0000 0.6467 0.0000 36.6013
#
#
#
# Elastic Compliance Matrix: (Units=1/GPa)
#
#
# Indices 1 2 3 4 5 6 
#
# 1 0.007009 -0.004701 -0.001211 0.000000 0.001092 0.000000
# 2 -0.004701 0.033466 0.005563 0.000000 -0.006495 0.000000
# 3 -0.001211 0.005563 0.011101 0.000000 -0.001441 0.000000
# 4 0.000000 0.000000 0.000000 0.100595 0.000000 -0.001778
# 5 0.001092 -0.006495 -0.001441 0.000000 0.028770 0.000000
# 6 0.000000 0.000000 0.000000 -0.001778 0.000000 0.027353
#
#
# Mechanical properties :
#
#
# Convention : Reuss Voigt Hill
#
# Bulk Modulus (GPa) = 19.65459 35.32002 27.48731
# Shear Modulus (GPa) = 22.12858 35.31221 28.72040
#
# Velocity S-wave (km/s) = 3.12529 3.94799 3.56048
# Velocity P-wave (km/s) = 4.65818 6.03094 5.38846
#
# Compressibility (1/GPa) = 0.05087870
#
# Stress axis : x y z
#
# Youngs Moduli (GPa) = 142.66842 29.88091 90.07954
#
# Poissons Ratio (x) = 0.14048 0.10909
# Poissons Ratio (y) = 0.67072 -0.50114
# Poissons Ratio (z) = 0.17277 -0.16624
#
# Static dielectric constant tensor:
#      x y z
#    x 1.770830 0.000000 -0.015590 
#    y 0.000000 2.162610 0.000000 
#    z -0.015590 0.000000 1.910920 
# 
# From -- ./inp_files/35630.got.cif
#   From: 2010.05.17/outbox.cif.g08.bks.cpg/sg15_18_cif.got.tgz:35630.got - 2010.06.03 18:47:42.
