data_PCOD9277791
_publ_section_title
;
Structure prediction by ZEFSAII (Michael W. Deem and Ramdas Pophale) SiO2 
 PCOD9277791
Probable space group: C 2/C
;
_chemical_formula_sum "Si O2"
_cell_formula_units_Z 48
_cell_length_a 25.865719
_cell_length_b 5.389114
_cell_length_c 26.443523
_cell_angle_alpha 90.000000
_cell_angle_beta 144.574282
_cell_angle_gamma 90.000000
_cell_volume 2136.607898
_symmetry_space_group_name_H-M "C 2/C"
_symmetry_group_IT_number 15
_symmetry_cell_setting 'monoclinic'
loop_
_space_group_symop_operation_xyz
x,y,z
-x,y,1/2-z
-x,-y,-z
x,-y,1/2+z
1/2+x,1/2+y,z
1/2-x,1/2+y,1/2-z
1/2-x,1/2-y,-z
1/2+x,1/2-y,1/2+z
loop_
_atom_site_type_symbol
_atom_site_label
_atom_site_fract_x
_atom_site_fract_y
_atom_site_fract_z
Si Si1 0.091762 0.104938 0.507344
Si Si2 0.991606 0.247484 0.333598
Si Si3 0.667666 0.936328 0.436756
Si Si4 0.055154 0.299527 0.576793
Si Si5 0.611891 0.234163 0.233811
Si Si6 0.260815 0.287893 0.924847
O O1 0.033567 0.276546 0.423653
O O2 0.120734 0.206589 0.584586
O O3 0.173538 0.005325 0.540063
O O4 0.022806 0.888898 0.467972
O O5 0.074887 0.290739 0.362680
O O6 0.924030 0.474170 0.271865
O O7 0.950006 0.971557 0.300783
O O8 0.750000 0.750000 0.500000
O O9 0.679104 0.090892 0.497576
O O10 0.686384 0.125133 0.405958
O O11 0.109598 0.323113 0.672090
O O12 0.000000 0.500000 0.500000
O O13 0.707864 0.298782 0.333431
#
# Coordination Sequence:
#
# PCOD9277791 Si02
#       6
#     8   8   8   8   8   8
#     4  10  21  41  68  95 138 182 230 277 342 422
#     4  11  23  45  70  99 138 188 229 282 347 428
#     4  11  24  45  71  94 133 189 236 278 363 428
#     4  10  20  41  69  98 131 189 229 269 349 426
#     4  11  26  45  69 106 144 176 236 297 347 407
#     4  11  26  45  66 107 139 179 236 304 346 416
#
# _framework density 22.465517999999999
#
# number of rings (size 3 to 8) (size 9 to 14) (size 15 to 20)
#    0.000    1.333    3.333    2.000    4.667    0.667 
#    3.000    0.000    0.000    0.000    0.000    0.000 
#    0.000    0.000    0.000    0.000    0.000    0.000 
#
# Total GULP energy -133896.147042 kJ/mol
# GULP energy per Si atom -5579.006127 kJ/mol
# Density = 2.241439 g / cm^3
# Si number density = 22.465518 Si / 1000 Ang^3
#
#
#
# Elastic Constant Matrix: (Units=GPa)
#
#
# Indices 1 2 3 4 5 6 
#
# 1 63.6221 23.6703 23.2802 0.0222 -6.3923 0.0131
# 2 23.6703 80.9476 11.2469 0.0292 -5.2007 0.0560
# 3 23.2802 11.2469 87.0746 0.0051 -26.6822 0.0039
# 4 0.0222 0.0292 0.0051 16.4523 0.0053 4.7191
# 5 -6.3923 -5.2007 -26.6822 0.0053 23.2688 0.0063
# 6 0.0131 0.0560 0.0039 4.7191 0.0063 41.8186
#
#
#
# Elastic Compliance Matrix: (Units=1/GPa)
#
#
# Indices 1 2 3 4 5 6 
#
# 1 0.019256 -0.005039 -0.004967 -0.000016 -0.001532 0.000003
# 2 -0.005039 0.013930 0.000120 -0.000014 0.001867 -0.000016
# 3 -0.004967 0.000120 0.019097 -0.000005 0.020561 -0.000003
# 4 -0.000016 -0.000014 -0.000005 0.062815 -0.000026 -0.007088
# 5 -0.001532 0.001867 0.020561 -0.000026 0.066550 -0.000011
# 6 0.000003 -0.000016 -0.000003 -0.007088 -0.000011 0.024713
#
#
# Mechanical properties :
#
#
# Convention : Reuss Voigt Hill
#
# Bulk Modulus (GPa) = 30.75774 38.67101 34.71438
# Shear Modulus (GPa) = 21.09965 27.87105 24.48535
#
# Velocity S-wave (km/s) = 3.06796 3.52606 3.30496
# Velocity P-wave (km/s) = 5.12549 5.81621 5.48174
#
# Compressibility (1/GPa) = 0.03251214
#
# Stress axis : x y z
#
# Youngs Moduli (GPa) = 51.93157 71.78509 52.36332
#
# Poissons Ratio (x) = 0.36173 0.26008
# Poissons Ratio (y) = 0.26169 -0.00628
# Poissons Ratio (z) = 0.25793 -0.00861
#
# Static dielectric constant tensor:
#      x y z
#    x 1.870080 -0.000020 -0.045440 
#    y -0.000020 1.913300 0.000020 
#    z -0.045440 0.000020 1.829060 
# 
# From -- ./inp_files/175706.got.cif
#   From: 2010.05.17/outbox.cif.g08.bks.cpg/sg15_88_cif.got.tgz:175706.got - 2010.06.03 18:47:42.
