data_PCOD9277874
_publ_section_title
;
Structure prediction by ZEFSAII (Michael W. Deem and Ramdas Pophale) SiO2 
 PCOD9277874
Probable space group: C 2/C
;
_chemical_formula_sum "Si O2"
_cell_formula_units_Z 56
_cell_length_a 18.129361
_cell_length_b 27.750650
_cell_length_c 9.163431
_cell_angle_alpha 90.000000
_cell_angle_beta 146.906026
_cell_angle_gamma 90.000000
_cell_volume 2517.198311
_symmetry_space_group_name_H-M "C 2/C"
_symmetry_group_IT_number 15
_symmetry_cell_setting 'monoclinic'
loop_
_space_group_symop_operation_xyz
x,y,z
-x,y,1/2-z
-x,-y,-z
x,-y,1/2+z
1/2+x,1/2+y,z
1/2-x,1/2+y,1/2-z
1/2-x,1/2-y,-z
1/2+x,1/2-y,1/2+z
loop_
_atom_site_type_symbol
_atom_site_label
_atom_site_fract_x
_atom_site_fract_y
_atom_site_fract_z
Si Si1 0.348954 0.857027 0.351206
Si Si2 0.000000 0.919217 0.250000
Si Si3 0.616045 0.246792 0.681104
Si Si4 0.706626 0.341001 0.687340
Si Si5 0.159168 0.062921 0.493707
Si Si6 0.000000 0.696136 0.750000
Si Si7 0.367065 0.113962 0.214754
Si Si8 0.209423 0.974270 0.399606
O O1 0.359520 0.800047 0.375994
O O2 0.481351 0.875571 0.486229
O O3 0.358196 0.875939 0.529930
O O4 0.217920 0.883364 0.072127
O O5 0.103888 0.886432 0.517535
O O6 0.078100 0.951932 0.262394
O O7 0.617202 0.295429 0.589327
O O8 0.502023 0.231112 0.609801
O O9 0.750000 0.250000 0.000000
O O10 0.762480 0.349554 0.616239
O O11 0.856020 0.333117 0.011843
O O12 0.208035 0.036826 0.725313
O O13 0.000000 0.065299 0.250000
O O14 0.209510 0.029512 0.445349
O O15 0.326831 0.058385 0.166595
#
# Coordination Sequence:
#
# PCOD9277874 Si02
#       8
#     8   4   8   8   8   4   8   8
#     4  10  21  41  64  92 122 164 210 262 322 371
#     4  10  22  40  66  95 126 161 214 270 312 392
#     4  10  22  40  58  90 128 165 211 265 308 384
#     4  10  21  41  63  89 124 170 210 261 322 369
#     4  11  23  40  62  92 125 169 207 259 326 384
#     4  10  20  42  60  85 128 169 212 264 314 370
#     4   9  20  41  66  88 123 157 211 270 308 381
#     4  10  22  42  62  92 128 160 210 266 316 388
#
# _framework density 22.246955
#
# number of rings (size 3 to 8) (size 9 to 14) (size 15 to 20)
#    0.000    2.000    2.143    0.429    0.000    4.571 
#   25.714    0.000    0.000    0.000    0.000    0.000 
#    0.000    0.000    0.000    0.000    0.000    0.000 
#
# Total GULP energy -155990.490176 kJ/mol
# GULP energy per Si atom -5571.088935 kJ/mol
# Density = 2.219632 g / cm^3
# Si number density = 22.246955 Si / 1000 Ang^3
#
#
#
# Elastic Constant Matrix: (Units=GPa)
#
#
# Indices 1 2 3 4 5 6 
#
# 1 57.7185 17.0560 -0.5668 0.0000 -6.4671 0.0000
# 2 17.0560 72.4925 9.6268 0.0000 -5.8411 0.0000
# 3 -0.5668 9.6268 52.2529 0.0000 7.5250 0.0000
# 4 0.0000 0.0000 0.0000 21.9136 0.0000 -9.4149
# 5 -6.4671 -5.8411 7.5250 0.0000 14.1669 0.0000
# 6 0.0000 0.0000 0.0000 -9.4149 0.0000 4.5598
#
#
#
# Elastic Compliance Matrix: (Units=1/GPa)
#
#
# Indices 1 2 3 4 5 6 
#
# 1 0.019301 -0.003943 -0.000107 0.000000 0.007242 0.000000
# 2 -0.003943 0.015792 -0.003931 0.000000 0.006799 0.000000
# 3 -0.000107 -0.003931 0.021766 0.000000 -0.013231 0.000000
# 4 0.000000 0.000000 0.000000 0.404209 0.000000 0.834600
# 5 0.007242 0.006799 -0.013231 0.000000 0.083725 0.000000
# 6 0.000000 0.000000 0.000000 0.834600 0.000000 1.942569
#
#
# Mechanical properties :
#
#
# Convention : Reuss Voigt Hill
#
# Bulk Modulus (GPa) = 24.45234 26.07734 25.26484
# Shear Modulus (GPa) = 1.98652 18.55123 10.26888
#
# Velocity S-wave (km/s) = 0.94598 2.89083 2.15079
# Velocity P-wave (km/s) = 3.49405 4.78432 4.18916
#
# Compressibility (1/GPa) = 0.04089588
#
# Stress axis : x y z
#
# Youngs Moduli (GPa) = 51.81045 63.32197 45.94257
#
# Poissons Ratio (x) = 0.24971 0.00492
# Poissons Ratio (y) = 0.20431 0.18062
# Poissons Ratio (z) = 0.00555 0.24895
#
# Static dielectric constant tensor:
#      x y z
#    x 1.862700 0.000000 -0.000420 
#    y 0.000000 2.060650 0.000000 
#    z -0.000420 0.000000 1.914560 
# 
# From -- ./inp_files/52394.got.cif
#   From: 2010.05.17/outbox.cif.g08.bks.cpg/sg15_27_cif.got.tgz:52394.got - 2010.06.03 18:47:42.
