data_PCOD9277374
_publ_section_title
;
Structure prediction by ZEFSAII (Michael W. Deem and Ramdas Pophale) SiO2 
 PCOD9277374
Probable space group: C 2/C
;
_chemical_formula_sum "Si O2"
_cell_formula_units_Z 48
_cell_length_a 30.318106
_cell_length_b 8.089888
_cell_length_c 18.509519
_cell_angle_alpha 90.000000
_cell_angle_beta 28.255134
_cell_angle_gamma 90.000000
_cell_volume 2149.149743
_symmetry_space_group_name_H-M "C 2/C"
_symmetry_group_IT_number 15
_symmetry_cell_setting 'monoclinic'
loop_
_space_group_symop_operation_xyz
x,y,z
-x,y,1/2-z
-x,-y,-z
x,-y,1/2+z
1/2+x,1/2+y,z
1/2-x,1/2+y,1/2-z
1/2-x,1/2-y,-z
1/2+x,1/2-y,1/2+z
loop_
_atom_site_type_symbol
_atom_site_label
_atom_site_fract_x
_atom_site_fract_y
_atom_site_fract_z
Si Si1 0.091924 0.309609 0.522897
Si Si2 0.086620 0.903071 0.904851
Si Si3 0.216258 0.898522 0.327459
Si Si4 0.904489 0.644870 0.908299
Si Si5 0.792620 0.137248 0.038200
Si Si6 0.768361 0.998283 0.918599
O O1 0.047089 0.242158 0.514038
O O2 0.197643 0.337414 0.342743
O O3 0.059624 0.484488 0.599138
O O4 0.108350 0.188599 0.567848
O O5 0.145833 0.008340 0.876747
O O6 0.158771 0.889707 0.733508
O O7 0.000000 0.000000 0.000000
O O8 0.160438 0.753741 0.446868
O O9 0.254087 0.022934 0.333891
O O10 0.000000 0.735947 0.750000
O O11 0.834120 0.580374 0.947304
O O12 0.740962 0.310587 0.096027
O O13 0.798090 0.026748 0.958274
#
# Coordination Sequence:
#
# PCOD9277374 Si02
#       6
#     8   8   8   8   8   8
#     4  10  20  42  65  88 126 180 210 262 328 396
#     4  11  23  39  66  94 126 168 226 268 314 395
#     4  11  20  42  65  89 129 175 215 262 333 387
#     4  11  23  39  64  95 131 169 221 267 327 392
#     4   9  20  35  68  86 120 172 206 265 331 376
#     4  10  20  41  60  94 128 165 216 272 324 385
#
# _framework density 22.334416000000001
#
# number of rings (size 3 to 8) (size 9 to 14) (size 15 to 20)
#    0.000    1.667    5.000    1.000    0.000    6.000 
#    3.000    6.667    0.000    0.000    0.000    0.000 
#    0.000    0.000    0.000    0.000    0.000    0.000 
#
# Total GULP energy -133870.178292 kJ/mol
# GULP energy per Si atom -5577.924095 kJ/mol
# Density = 2.228358 g / cm^3
# Si number density = 22.334416 Si / 1000 Ang^3
#
#
#
# Elastic Constant Matrix: (Units=GPa)
#
#
# Indices 1 2 3 4 5 6 
#
# 1 88.5411 2.0533 23.4485 -0.0010 22.8192 0.0013
# 2 2.0533 36.4177 -2.7758 -0.0005 9.7965 -0.0004
# 3 23.4485 -2.7758 73.5895 0.0011 -4.6469 -0.0011
# 4 -0.0010 -0.0005 0.0011 23.2799 -0.0002 6.0709
# 5 22.8192 9.7965 -4.6469 -0.0002 32.6654 0.0001
# 6 0.0013 -0.0004 -0.0011 6.0709 0.0001 22.5008
#
#
#
# Elastic Compliance Matrix: (Units=1/GPa)
#
#
# Indices 1 2 3 4 5 6 
#
# 1 0.016056 0.002056 -0.005838 0.000001 -0.012664 -0.000001
# 2 0.002056 0.030156 -0.000181 0.000000 -0.010506 0.000000
# 3 -0.005838 -0.000181 0.015846 -0.000001 0.006387 0.000001
# 4 0.000001 0.000000 -0.000001 0.046207 -0.000001 -0.012467
# 5 -0.012664 -0.010506 0.006387 -0.000001 0.043520 0.000001
# 6 -0.000001 0.000000 0.000001 -0.012467 0.000001 0.047806
#
#
# Mechanical properties :
#
#
# Convention : Reuss Voigt Hill
#
# Bulk Modulus (GPa) = 18.47357 27.11115 22.79236
# Shear Modulus (GPa) = 22.16701 27.41072 24.78887
#
# Velocity S-wave (km/s) = 3.15382 3.50707 3.33512
# Velocity P-wave (km/s) = 4.64235 5.34457 5.00579
#
# Compressibility (1/GPa) = 0.05413138
#
# Stress axis : x y z
#
# Youngs Moduli (GPa) = 62.28020 33.16137 63.10862
#
# Poissons Ratio (x) = -0.06819 0.36845
# Poissons Ratio (y) = -0.12807 0.01143
# Poissons Ratio (z) = 0.36361 0.00601
#
# Static dielectric constant tensor:
#      x y z
#    x 5.552180 -0.000010 1.629950 
#    y -0.000010 1.923690 0.000000 
#    z 1.629950 0.000000 2.504400 
# 
# From -- ./inp_files/209270.got.cif
#   From: 2010.05.17/outbox.cif.g08.bks.cpg/sg15_105_cif.got.tgz:209270.got - 2010.06.03 18:47:42.
