data_PCOD9277911
_publ_section_title
;
Structure prediction by ZEFSAII (Michael W. Deem and Ramdas Pophale) SiO2 
 PCOD9277911
Probable space group: C 2/C
;
_chemical_formula_sum "Si O2"
_cell_formula_units_Z 36
_cell_length_a 23.862546
_cell_length_b 7.856387
_cell_length_c 14.056945
_cell_angle_alpha 90.000000
_cell_angle_beta 30.309000
_cell_angle_gamma 90.000000
_cell_volume 1329.940659
_symmetry_space_group_name_H-M "C 2/C"
_symmetry_group_IT_number 15
_symmetry_cell_setting 'monoclinic'
loop_
_space_group_symop_operation_xyz
x,y,z
-x,y,1/2-z
-x,-y,-z
x,-y,1/2+z
1/2+x,1/2+y,z
1/2-x,1/2+y,1/2-z
1/2-x,1/2-y,-z
1/2+x,1/2-y,1/2+z
loop_
_atom_site_type_symbol
_atom_site_label
_atom_site_fract_x
_atom_site_fract_y
_atom_site_fract_z
Si Si1 0.106126 0.046701 0.729789
Si Si2 0.616684 0.664319 0.494066
Si Si3 0.000000 0.525232 0.250000
Si Si4 0.651037 0.844626 0.804944
Si Si5 0.101353 0.666581 0.755307
O O1 0.119426 0.092700 0.598432
O O2 0.160712 0.192582 0.713349
O O3 0.971063 0.058741 0.938694
O O4 0.146156 0.856759 0.690454
O O5 0.559128 0.848800 0.588094
O O6 0.744226 0.669157 0.278531
O O7 0.906379 0.414126 0.337726
O O8 0.652526 0.026972 0.749877
O O9 0.529928 0.823944 0.026574
#
# Coordination Sequence:
#
# PCOD9277911 Si02
#       5
#     8   8   4   8   8
#     4  10  21  42  60  90 125 159 202 248 297 362
#     4  10  21  40  65  85 126 163 197 249 303 352
#     4  10  20  42  62  86 122 164 200 246 304 358
#     4  11  23  41  61  93 123 157 203 253 300 351
#     4  11  23  40  64  87 124 157 203 252 296 364
#
# _framework density 27.068877000000001
#
# number of rings (size 3 to 8) (size 9 to 14) (size 15 to 20)
#    0.000    1.778    4.444    2.667    0.000    2.667 
#    4.000    0.000    0.000    0.000    0.000    0.000 
#    0.000    0.000    0.000    0.000    0.000    0.000 
#
# Total GULP energy -100961.466089 kJ/mol
# GULP energy per Si atom -5608.970338 kJ/mol
# Density = 2.700727 g / cm^3
# Si number density = 27.068877 Si / 1000 Ang^3
#
#
#
# Elastic Constant Matrix: (Units=GPa)
#
#
# Indices 1 2 3 4 5 6 
#
# 1 87.9513 59.6133 24.4135 0.0000 -16.1289 0.0000
# 2 59.6133 233.3806 24.2306 -0.0003 -6.2834 0.0001
# 3 24.4135 24.2306 92.4023 -0.0002 -37.5497 0.0000
# 4 0.0000 -0.0003 -0.0002 17.4253 0.0000 1.9554
# 5 -16.1289 -6.2834 -37.5497 0.0000 48.3939 0.0000
# 6 0.0000 0.0001 0.0000 1.9554 0.0000 37.3880
#
#
#
# Elastic Compliance Matrix: (Units=1/GPa)
#
#
# Indices 1 2 3 4 5 6 
#
# 1 0.014808 -0.003520 -0.001708 0.000000 0.003153 0.000000
# 2 -0.003520 0.005249 -0.000944 0.000000 -0.001224 0.000000
# 3 -0.001708 -0.000944 0.016416 0.000000 0.012046 0.000000
# 4 0.000000 0.000000 0.000000 0.057726 0.000000 -0.003019
# 5 0.003153 -0.001224 0.012046 0.000000 0.030902 0.000000
# 6 0.000000 0.000000 0.000000 -0.003019 0.000000 0.026904
#
#
# Mechanical properties :
#
#
# Convention : Reuss Voigt Hill
#
# Bulk Modulus (GPa) = 41.44371 70.02765 55.73568
# Shear Modulus (GPa) = 29.00335 41.00656 35.00496
#
# Velocity S-wave (km/s) = 3.27687 3.89639 3.59998
# Velocity P-wave (km/s) = 5.44618 6.79476 6.15750
#
# Compressibility (1/GPa) = 0.02412911
#
# Stress axis : x y z
#
# Youngs Moduli (GPa) = 67.52951 190.50931 60.91603
#
# Poissons Ratio (x) = 0.67065 0.10405
# Poissons Ratio (y) = 0.23773 0.05749
# Poissons Ratio (z) = 0.11535 0.17980
#
# Static dielectric constant tensor:
#      x y z
#    x 2.056780 0.000000 0.095270 
#    y 0.000000 2.054630 0.000000 
#    z 0.095270 0.000000 2.237750 
# 
# From -- ./inp_files/208783.got.cif
#   From: 2010.05.17/outbox.cif.g08.bks.cpg/sg15_105_cif.got.tgz:208783.got - 2010.06.03 18:47:42.
