data_PCOD9277821
_publ_section_title
;
Structure prediction by ZEFSAII (Michael W. Deem and Ramdas Pophale) SiO2 
 PCOD9277821
Probable space group: C 2/C
;
_chemical_formula_sum "Si O2"
_cell_formula_units_Z 60
_cell_length_a 19.111485
_cell_length_b 18.021491
_cell_length_c 8.859850
_cell_angle_alpha 90.000000
_cell_angle_beta 53.500971
_cell_angle_gamma 90.000000
_cell_volume 2452.989511
_symmetry_space_group_name_H-M "C 2/C"
_symmetry_group_IT_number 15
_symmetry_cell_setting 'monoclinic'
loop_
_space_group_symop_operation_xyz
x,y,z
-x,y,1/2-z
-x,-y,-z
x,-y,1/2+z
1/2+x,1/2+y,z
1/2-x,1/2+y,1/2-z
1/2-x,1/2-y,-z
1/2+x,1/2-y,1/2+z
loop_
_atom_site_type_symbol
_atom_site_label
_atom_site_fract_x
_atom_site_fract_y
_atom_site_fract_z
Si Si1 0.500000 0.314851 0.250000
Si Si2 0.801566 0.321898 0.989110
Si Si3 0.436599 0.829394 0.577535
Si Si4 0.601676 0.519824 0.861169
Si Si5 0.666298 0.582582 0.500905
Si Si6 0.444222 0.680064 0.474558
Si Si7 0.101588 0.465904 0.070567
Si Si8 0.131633 0.609164 0.834218
O O1 0.406915 0.354653 0.392874
O O2 0.510099 0.298089 0.421240
O O3 0.898800 0.318506 0.795241
O O4 0.750000 0.250000 0.000000
O O5 0.751404 0.387838 0.969615
O O6 0.804915 0.332981 0.163966
O O7 0.402862 0.762161 0.513057
O O8 0.395120 0.904301 0.563247
O O9 0.538843 0.849226 0.436742
O O10 0.623333 0.519935 0.658755
O O11 0.500000 0.500000 0.000000
O O12 0.666101 0.458202 0.843990
O O13 0.607072 0.603982 0.920960
O O14 0.500000 0.667469 0.250000
O O15 0.150574 0.432385 0.153350
O O16 0.000000 0.473650 0.250000
O O17 0.126251 0.543943 0.966294
#
# Coordination Sequence:
#
# PCOD9277821 Si02
#       8
#     4   8   8   8   8   8   8   8
#     4  10  22  40  66  92 130 182 224 274 342 396
#     4  12  27  44  63  98 138 177 228 280 345 412
#     4  11  24  44  67  99 133 179 226 281 343 412
#     4  11  20  39  65  95 127 174 226 280 333 407
#     4  11  23  40  63  96 130 174 228 279 336 402
#     4  11  22  37  68 103 131 173 234 281 334 410
#     4  10  20  41  71 104 127 165 232 274 333 411
#     4  11  23  42  73  98 133 178 218 282 338 411
#
# _framework density 24.459949000000002
#
# number of rings (size 3 to 8) (size 9 to 14) (size 15 to 20)
#    0.000    1.067    2.667    7.200    3.733    2.133 
#    0.000    0.667    0.000    0.000    0.000    0.000 
#    0.000    0.000    0.000    0.000    0.000    0.000 
#
# Total GULP energy -167200.766006 kJ/mol
# GULP energy per Si atom -5573.358867 kJ/mol
# Density = 2.440428 g / cm^3
# Si number density = 24.459949 Si / 1000 Ang^3
#
#
#
# Elastic Constant Matrix: (Units=GPa)
#
#
# Indices 1 2 3 4 5 6 
#
# 1 81.9575 8.7846 -1.6543 0.0000 7.1951 0.0000
# 2 8.7846 82.9012 -12.4969 0.0000 2.4070 0.0000
# 3 -1.6543 -12.4969 64.1759 0.0000 12.1359 0.0000
# 4 0.0000 0.0000 0.0000 30.4336 0.0000 -1.5439
# 5 7.1951 2.4070 12.1359 0.0000 31.0110 0.0000
# 6 0.0000 0.0000 0.0000 -1.5439 0.0000 31.6819
#
#
#
# Elastic Compliance Matrix: (Units=1/GPa)
#
#
# Indices 1 2 3 4 5 6 
#
# 1 0.012611 -0.001142 0.000690 0.000000 -0.003107 0.000000
# 2 -0.001142 0.012654 0.002776 0.000000 -0.001804 0.000000
# 3 0.000690 0.002776 0.017507 0.000000 -0.007227 0.000000
# 4 0.000000 0.000000 0.000000 0.032940 0.000000 0.001605
# 5 -0.003107 -0.001804 -0.007227 0.000000 0.035936 0.000000
# 6 0.000000 0.000000 0.000000 0.001605 0.000000 0.031642
#
#
# Mechanical properties :
#
#
# Convention : Reuss Voigt Hill
#
# Bulk Modulus (GPa) = 21.08805 24.25572 22.67189
# Shear Modulus (GPa) = 32.37331 34.25205 33.31268
#
# Velocity S-wave (km/s) = 3.64197 3.74616 3.69443
# Velocity P-wave (km/s) = 5.13083 5.35254 5.24286
#
# Compressibility (1/GPa) = 0.04742022
#
# Stress axis : x y z
#
# Youngs Moduli (GPa) = 79.29849 79.02419 57.11964
#
# Poissons Ratio (x) = 0.09025 -0.03943
# Poissons Ratio (y) = 0.09056 -0.15855
# Poissons Ratio (z) = -0.05474 -0.21935
#
# Static dielectric constant tensor:
#      x y z
#    x 2.014230 0.000000 -0.002520 
#    y 0.000000 2.149250 0.000000 
#    z -0.002520 0.000000 1.942570 
# 
# From -- ./inp_files/57011.got.cif
#   From: 2010.05.17/outbox.cif.g08.bks.cpg/sg15_29_cif.got.tgz:57011.got - 2010.06.03 18:47:42.
