data_PCOD9277487
_publ_section_title
;
Structure prediction by ZEFSAII (Michael W. Deem and Ramdas Pophale) SiO2 
 PCOD9277487
Probable space group: C 2/C
;
_chemical_formula_sum "Si O2"
_cell_formula_units_Z 32
_cell_length_a 7.966568
_cell_length_b 13.309325
_cell_length_c 13.319401
_cell_angle_alpha 90.000000
_cell_angle_beta 77.139599
_cell_angle_gamma 90.000000
_cell_volume 1376.825367
_symmetry_space_group_name_H-M "C 2/C"
_symmetry_group_IT_number 15
_symmetry_cell_setting 'monoclinic'
loop_
_space_group_symop_operation_xyz
x,y,z
-x,y,1/2-z
-x,-y,-z
x,-y,1/2+z
1/2+x,1/2+y,z
1/2-x,1/2+y,1/2-z
1/2-x,1/2-y,-z
1/2+x,1/2-y,1/2+z
loop_
_atom_site_type_symbol
_atom_site_label
_atom_site_fract_x
_atom_site_fract_y
_atom_site_fract_z
Si Si1 0.743261 0.632027 0.473772
Si Si2 0.875378 0.856769 0.099171
Si Si3 0.295569 0.982926 0.763570
Si Si4 0.871084 0.621516 0.056709
O O1 0.750000 0.750000 0.500000
O O2 0.562891 0.601467 0.546381
O O3 0.739819 0.597053 0.357555
O O4 0.928628 0.593486 0.486775
O O5 0.878999 0.736119 0.099134
O O6 0.804189 0.913623 0.205324
O O7 0.738489 0.881927 0.029602
O O8 0.500000 0.999133 0.750000
O O9 0.276378 0.939491 0.655988
#
# Coordination Sequence:
#
# PCOD9277487 Si02
#       4
#     8   8   8   8
#     4   9  19  38  63  87 127 160 201 254 305 363
#     4  10  20  41  64  88 122 166 206 250 309 367
#     4  10  21  39  61  94 127 156 210 256 304 372
#     4   9  21  41  62  89 124 164 202 256 307 362
#
# _framework density 23.241872000000001
#
# number of rings (size 3 to 8) (size 9 to 14) (size 15 to 20)
#    0.000    2.500    0.000    0.750    0.000    5.000 
#   18.000    5.000    5.500    0.000    0.000    0.000 
#    0.000    0.000    0.000    0.000    0.000    0.000 
#
# Total GULP energy -89479.794918 kJ/mol
# GULP energy per Si atom -5592.487182 kJ/mol
# Density = 2.318897 g / cm^3
# Si number density = 23.241872 Si / 1000 Ang^3
#
#
#
# Elastic Constant Matrix: (Units=GPa)
#
#
# Indices 1 2 3 4 5 6 
#
# 1 82.4572 34.2116 39.9743 0.0000 -17.4916 0.0000
# 2 34.2116 99.1114 43.1340 0.0000 -8.8198 0.0000
# 3 39.9743 43.1340 92.7471 0.0000 -26.6143 0.0000
# 4 0.0000 0.0000 0.0000 47.5362 0.0000 -12.5214
# 5 -17.4916 -8.8198 -26.6143 0.0000 35.2649 0.0000
# 6 0.0000 0.0000 0.0000 -12.5214 0.0000 31.2675
#
#
#
# Elastic Compliance Matrix: (Units=1/GPa)
#
#
# Indices 1 2 3 4 5 6 
#
# 1 0.016530 -0.003449 -0.004360 0.000000 0.004046 0.000000
# 2 -0.003449 0.013443 -0.005478 0.000000 -0.002483 0.000000
# 3 -0.004360 -0.005478 0.018119 0.000000 0.010142 0.000000
# 4 0.000000 0.000000 0.000000 0.023517 0.000000 0.009418
# 5 0.004046 -0.002483 0.010142 0.000000 0.037397 0.000000
# 6 0.000000 0.000000 0.000000 0.009418 0.000000 0.035753
#
#
# Mechanical properties :
#
#
# Convention : Reuss Voigt Hill
#
# Bulk Modulus (GPa) = 46.46876 56.55062 51.50969
# Shear Modulus (GPa) = 28.01028 33.28012 30.64520
#
# Velocity S-wave (km/s) = 3.47531 3.78816 3.63510
# Velocity P-wave (km/s) = 6.01171 6.59679 6.31104
#
# Compressibility (1/GPa) = 0.02151984
#
# Stress axis : x y z
#
# Youngs Moduli (GPa) = 60.49554 74.38691 55.19064
#
# Poissons Ratio (x) = 0.25652 0.24061
# Poissons Ratio (y) = 0.20862 0.30234
# Poissons Ratio (z) = 0.26374 0.40750
#
# Static dielectric constant tensor:
#      x y z
#    x 1.845940 0.000000 0.008730 
#    y 0.000000 1.941020 0.000000 
#    z 0.008730 0.000000 1.820410 
# 
# From -- ./inp_files/75332.got.cif
#   From: 2010.05.17/outbox.cif.g08.bks.cpg/sg15_38_cif.got.tgz:75332.got - 2010.06.03 18:47:42.
