data_PCOD9277053
_publ_section_title
;
Structure prediction by ZEFSAII (Michael W. Deem and Ramdas Pophale) SiO2 
 PCOD9277053
Probable space group: C 2/C
;
_chemical_formula_sum "Si O2"
_cell_formula_units_Z 52
_cell_length_a 7.525322
_cell_length_b 15.379275
_cell_length_c 19.397130
_cell_angle_alpha 90.000000
_cell_angle_beta 90.908171
_cell_angle_gamma 90.000000
_cell_volume 2244.625375
_symmetry_space_group_name_H-M "C 2/C"
_symmetry_group_IT_number 15
_symmetry_cell_setting 'monoclinic'
loop_
_space_group_symop_operation_xyz
x,y,z
-x,y,1/2-z
-x,-y,-z
x,-y,1/2+z
1/2+x,1/2+y,z
1/2-x,1/2+y,1/2-z
1/2-x,1/2-y,-z
1/2+x,1/2-y,1/2+z
loop_
_atom_site_type_symbol
_atom_site_label
_atom_site_fract_x
_atom_site_fract_y
_atom_site_fract_z
Si Si1 0.008186 0.688334 0.385252
Si Si2 0.500000 0.736646 0.250000
Si Si3 0.926987 0.782321 0.894017
Si Si4 0.660459 0.986934 0.864656
Si Si5 0.390731 0.418957 0.978218
Si Si6 0.172044 0.842693 0.204466
Si Si7 0.985432 0.384552 0.465226
O O1 0.211516 0.722770 0.395847
O O2 0.035709 0.595887 0.342246
O O3 0.949141 0.652840 0.460573
O O4 0.896475 0.767244 0.350599
O O5 0.502276 0.685525 0.178806
O O6 0.323699 0.794932 0.249638
O O7 0.993417 0.831146 0.963469
O O8 0.002576 0.686345 0.905379
O O9 0.737750 0.066503 0.820501
O O10 0.573629 0.031421 0.932169
O O11 0.826824 0.938800 0.900090
O O12 0.500000 0.500000 0.000000
O O13 0.223865 0.401467 0.024990
O O14 0.000000 0.862438 0.250000
#
# Coordination Sequence:
#
# PCOD9277053 Si02
#       7
#     8   4   8   8   8   8   8
#     4  10  22  43  68 100 138 177 232 296 356 421
#     4  12  24  44  66 102 134 188 246 274 350 438
#     4  10  21  40  64  93 136 180 223 288 346 422
#     4  10  23  43  64 103 131 178 233 286 359 422
#     4  10  22  37  64 101 133 169 227 290 357 425
#     4  12  26  46  73  97 144 193 239 293 357 433
#     4  10  20  40  67  95 138 169 224 298 349 422
#
# _framework density 23.166449
#
# number of rings (size 3 to 8) (size 9 to 14) (size 15 to 20)
#    0.000    1.846    3.077    3.692    4.308    3.077 
#    6.923    0.000    0.000    0.000    0.000    0.000 
#    0.000    0.000    0.000    0.000    0.000    0.000 
#
# Total GULP energy -144759.360500 kJ/mol
# GULP energy per Si atom -5567.667712 kJ/mol
# Density = 2.311372 g / cm^3
# Si number density = 23.166449 Si / 1000 Ang^3
#
#
#
# Elastic Constant Matrix: (Units=GPa)
#
#
# Indices 1 2 3 4 5 6 
#
# 1 65.6707 22.2688 18.8212 0.0000 -16.8576 0.0000
# 2 22.2688 112.1993 25.9239 0.0000 -8.3699 0.0000
# 3 18.8212 25.9239 72.7119 0.0000 -28.1775 0.0000
# 4 0.0000 0.0000 0.0000 25.8361 0.0000 -6.7435
# 5 -16.8576 -8.3699 -28.1775 0.0000 38.0908 0.0000
# 6 0.0000 0.0000 0.0000 -6.7435 0.0000 29.3621
#
#
#
# Elastic Compliance Matrix: (Units=1/GPa)
#
#
# Indices 1 2 3 4 5 6 
#
# 1 0.018216 -0.002860 -0.001142 0.000000 0.006588 0.000000
# 2 -0.002860 0.010172 -0.003519 0.000000 -0.001634 0.000000
# 3 -0.001142 -0.003519 0.020759 0.000000 0.014077 0.000000
# 4 0.000000 0.000000 0.000000 0.041174 0.000000 0.009456
# 5 0.006588 -0.001634 0.014077 0.000000 0.039223 0.000000
# 6 0.000000 0.000000 0.000000 0.009456 0.000000 0.036229
#
#
# Mechanical properties :
#
#
# Convention : Reuss Voigt Hill
#
# Bulk Modulus (GPa) = 29.32335 42.73439 36.02887
# Shear Modulus (GPa) = 26.01681 30.89567 28.45624
#
# Velocity S-wave (km/s) = 3.35481 3.65586 3.50857
# Velocity P-wave (km/s) = 5.26227 6.02554 5.65680
#
# Compressibility (1/GPa) = 0.03410252
#
# Stress axis : x y z
#
# Youngs Moduli (GPa) = 54.89716 98.31274 48.17278
#
# Poissons Ratio (x) = 0.28117 0.05503
# Poissons Ratio (y) = 0.15701 0.16954
# Poissons Ratio (z) = 0.06271 0.34601
#
# Static dielectric constant tensor:
#      x y z
#    x 1.875150 0.000000 0.001780 
#    y 0.000000 2.131310 0.000000 
#    z 0.001780 0.000000 1.980720 
# 
# From -- ./inp_files/231212.got.cif
#   From: 2010.05.17/outbox.cif.g08.bks.cpg/sg15_116_cif.got.tgz:231212.got - 2010.06.03 18:47:42.
