data_PCOD9277184
_publ_section_title
;
Structure prediction by ZEFSAII (Michael W. Deem and Ramdas Pophale) SiO2 
 PCOD9277184
Probable space group: C 2/C
;
_chemical_formula_sum "Si O2"
_cell_formula_units_Z 40
_cell_length_a 8.436921
_cell_length_b 19.044313
_cell_length_c 11.252855
_cell_angle_alpha 90.000000
_cell_angle_beta 82.554873
_cell_angle_gamma 90.000000
_cell_volume 1792.813599
_symmetry_space_group_name_H-M "C 2/C"
_symmetry_group_IT_number 15
_symmetry_cell_setting 'monoclinic'
loop_
_space_group_symop_operation_xyz
x,y,z
-x,y,1/2-z
-x,-y,-z
x,-y,1/2+z
1/2+x,1/2+y,z
1/2-x,1/2+y,1/2-z
1/2-x,1/2-y,-z
1/2+x,1/2-y,1/2+z
loop_
_atom_site_type_symbol
_atom_site_label
_atom_site_fract_x
_atom_site_fract_y
_atom_site_fract_z
Si Si1 0.657928 0.249590 0.683423
Si Si2 0.823736 0.408587 0.233835
Si Si3 0.488135 0.761358 0.562025
Si Si4 0.718945 0.634698 0.498359
Si Si5 0.909698 0.984854 0.633154
O O1 0.500000 0.288054 0.750000
O O2 0.675696 0.175140 0.747341
O O3 0.598284 0.232905 0.556874
O O4 0.839863 0.276996 0.664434
O O5 0.772371 0.415473 0.101963
O O6 0.704016 0.448962 0.330800
O O7 0.000000 0.434046 0.250000
O O8 0.570581 0.683957 0.556425
O O9 0.634382 0.814802 0.548892
O O10 0.677873 0.587483 0.389876
O O11 0.000000 0.976579 0.750000
O O12 0.000000 0.000000 0.500000
#
# Coordination Sequence:
#
# PCOD9277184 Si02
#       5
#     8   8   8   8   8
#     4  10  20  40  69 101 137 192 239 286 366 439
#     4  11  23  46  74 100 142 197 237 294 373 437
#     4  10  22  41  68 104 144 188 238 303 359 439
#     4  11  23  46  70 104 147 189 244 298 375 426
#     4  12  26  47  75 108 141 193 250 299 359 434
#
# _framework density 22.311298000000001
#
# number of rings (size 3 to 8) (size 9 to 14) (size 15 to 20)
#    0.000    1.200    6.000    1.200    0.000    1.600 
#    0.000    2.000    0.000    0.000    0.000    0.000 
#    0.000    0.000    0.000    0.000    0.000    0.000 
#
# Total GULP energy -111637.626059 kJ/mol
# GULP energy per Si atom -5581.881303 kJ/mol
# Density = 2.226052 g / cm^3
# Si number density = 22.311298 Si / 1000 Ang^3
#
#
#
# Elastic Constant Matrix: (Units=GPa)
#
#
# Indices 1 2 3 4 5 6 
#
# 1 140.0252 32.9589 66.9287 0.0000 -17.6696 0.0000
# 2 32.9589 42.1763 23.1140 0.0000 -5.2280 0.0000
# 3 66.9287 23.1140 124.6359 0.0000 -2.0029 0.0000
# 4 0.0000 0.0000 0.0000 24.7414 0.0000 9.7709
# 5 -17.6696 -5.2280 -2.0029 0.0000 55.0189 0.0000
# 6 0.0000 0.0000 0.0000 9.7709 0.0000 -14.4993
#
#
#
# Elastic Compliance Matrix: (Units=1/GPa)
#
#
# Indices 1 2 3 4 5 6 
#
# 1 0.011191 -0.005700 -0.004906 0.000000 0.002874 0.000000
# 2 -0.005700 0.029598 -0.002414 0.000000 0.000894 0.000000
# 3 -0.004906 -0.002414 0.011083 0.000000 -0.001402 0.000000
# 4 0.000000 0.000000 0.000000 0.031922 0.000000 0.021512
# 5 0.002874 0.000894 -0.001402 0.000000 0.019132 0.000000
# 6 0.000000 0.000000 0.000000 0.021512 0.000000 -0.054472
#
#
# Mechanical properties :
#
#
# Convention : Reuss Voigt Hill
#
# Bulk Modulus (GPa) = 38.71185 61.42671 50.06928
# Shear Modulus (GPa) = 60.16442 25.30793 42.73618
#
# Velocity S-wave (km/s) = 5.19850 3.37161 4.38133
# Velocity P-wave (km/s) = 7.30897 6.53823 6.93431
#
# Compressibility (1/GPa) = 0.02583189
#
# Stress axis : x y z
#
# Youngs Moduli (GPa) = 89.35783 33.78603 90.22796
#
# Poissons Ratio (x) = 0.19259 0.44267
# Poissons Ratio (y) = 0.50936 0.21778
# Poissons Ratio (z) = 0.43840 0.08155
#
# Static dielectric constant tensor:
#      x y z
#    x 1.867550 0.000000 -0.033860 
#    y 0.000000 1.840760 0.000000 
#    z -0.033860 0.000000 1.838940 
# 
# From -- ./inp_files/76718.got.cif
#   From: 2010.05.17/outbox.cif.g08.bks.cpg/sg15_39_cif.got.tgz:76718.got - 2010.06.03 18:47:42.
