data_PCOD9277290
_publ_section_title
;
Structure prediction by ZEFSAII (Michael W. Deem and Ramdas Pophale) SiO2 
 PCOD9277290
Probable space group: C 2/C
;
_chemical_formula_sum "Si O2"
_cell_formula_units_Z 48
_cell_length_a 20.265697
_cell_length_b 11.867128
_cell_length_c 14.497254
_cell_angle_alpha 90.000000
_cell_angle_beta 138.856792
_cell_angle_gamma 90.000000
_cell_volume 2293.936614
_symmetry_space_group_name_H-M "C 2/C"
_symmetry_group_IT_number 15
_symmetry_cell_setting 'monoclinic'
loop_
_space_group_symop_operation_xyz
x,y,z
-x,y,1/2-z
-x,-y,-z
x,-y,1/2+z
1/2+x,1/2+y,z
1/2-x,1/2+y,1/2-z
1/2-x,1/2-y,-z
1/2+x,1/2-y,1/2+z
loop_
_atom_site_type_symbol
_atom_site_label
_atom_site_fract_x
_atom_site_fract_y
_atom_site_fract_z
Si Si1 0.925052 0.907111 0.376817
Si Si2 0.260998 0.042356 0.384060
Si Si3 0.786363 0.477741 0.698142
Si Si4 0.884015 0.377351 0.640378
Si Si5 0.880723 0.188708 0.494257
Si Si6 0.748260 0.286190 0.186530
O O1 0.854077 0.834056 0.372059
O O2 0.001896 0.827706 0.401910
O O3 0.847285 0.981302 0.235016
O O4 0.000000 0.000000 0.500000
O O5 0.304776 0.024471 0.326648
O O6 0.260557 0.177274 0.387503
O O7 0.323635 0.974865 0.524089
O O8 0.854843 0.391230 0.715546
O O9 0.674854 0.431222 0.560544
O O10 0.793301 0.607705 0.679727
O O11 0.861193 0.260268 0.565335
O O12 0.000000 0.398670 0.750000
O O13 0.823849 0.249867 0.349035
#
# Coordination Sequence:
#
# PCOD9277290 Si02
#       6
#     8   8   8   8   8   8
#     4  11  19  39  71 101 127 181 233 263 345 405
#     4  10  23  44  67  98 137 177 228 283 332 407
#     4  10  22  42  66  94 136 174 230 271 339 402
#     4  12  27  41  62 100 139 180 221 281 346 402
#     4  11  22  40  66 100 134 177 221 285 331 400
#     4  10  20  40  71  96 130 178 220 286 332 398
#
# _framework density 20.924728000000002
#
# number of rings (size 3 to 8) (size 9 to 14) (size 15 to 20)
#    0.000    1.333    8.333    0.500    4.667    4.000 
#    0.000    0.000    0.000    0.000    0.000    0.000 
#    0.000    0.000    0.000    0.000    0.000    0.000 
#
# Total GULP energy -133935.571809 kJ/mol
# GULP energy per Si atom -5580.648825 kJ/mol
# Density = 2.087710 g / cm^3
# Si number density = 20.924728 Si / 1000 Ang^3
#
#
#
# Elastic Constant Matrix: (Units=GPa)
#
#
# Indices 1 2 3 4 5 6 
#
# 1 75.4103 3.1882 0.4987 0.0000 12.8557 0.0000
# 2 3.1882 132.1273 22.5317 0.0000 0.4397 0.0000
# 3 0.4987 22.5317 71.5025 0.0000 15.2542 0.0000
# 4 0.0000 0.0000 0.0000 31.8703 0.0000 5.2890
# 5 12.8557 0.4397 15.2542 0.0000 30.3748 0.0000
# 6 0.0000 0.0000 0.0000 5.2890 0.0000 30.4688
#
#
#
# Elastic Compliance Matrix: (Units=1/GPa)
#
#
# Indices 1 2 3 4 5 6 
#
# 1 0.014450 -0.000591 0.001555 0.000000 -0.006888 0.000000
# 2 -0.000591 0.008068 -0.002875 0.000000 0.001577 0.000000
# 3 0.001555 -0.002875 0.016813 0.000000 -0.009060 0.000000
# 4 0.000000 0.000000 0.000000 0.032308 0.000000 -0.005608
# 5 -0.006888 0.001577 -0.009060 0.000000 0.040364 0.000000
# 6 0.000000 0.000000 0.000000 -0.005608 0.000000 0.033794
#
#
# Mechanical properties :
#
#
# Convention : Reuss Voigt Hill
#
# Bulk Modulus (GPa) = 28.16140 36.83083 32.49611
# Shear Modulus (GPa) = 30.96842 35.39755 33.18299
#
# Velocity S-wave (km/s) = 3.85124 4.11744 3.98656
# Velocity P-wave (km/s) = 5.76747 6.34383 6.06251
#
# Compressibility (1/GPa) = 0.03550960
#
# Stress axis : x y z
#
# Youngs Moduli (GPa) = 69.20553 123.95156 59.47644
#
# Poissons Ratio (x) = 0.07324 -0.09248
# Poissons Ratio (y) = 0.04089 0.17097
# Poissons Ratio (z) = -0.10761 0.35631
#
# Static dielectric constant tensor:
#      x y z
#    x 1.806410 0.000000 -0.004860 
#    y 0.000000 1.823600 0.000000 
#    z -0.004860 0.000000 1.734140 
# 
# From -- ./inp_files/167924.got.cif
#   From: 2010.05.17/outbox.cif.g08.bks.cpg/sg15_84_cif.got.tgz:167924.got - 2010.06.03 18:47:42.
