data_PCOD9277271
_publ_section_title
;
Structure prediction by ZEFSAII (Michael W. Deem and Ramdas Pophale) SiO2 
 PCOD9277271
Probable space group: C 2/C
;
_chemical_formula_sum "Si O2"
_cell_formula_units_Z 60
_cell_length_a 11.633616
_cell_length_b 20.516314
_cell_length_c 23.812150
_cell_angle_alpha 90.000000
_cell_angle_beta 147.707814
_cell_angle_gamma 90.000000
_cell_volume 3036.314051
_symmetry_space_group_name_H-M "C 2/C"
_symmetry_group_IT_number 15
_symmetry_cell_setting 'monoclinic'
loop_
_space_group_symop_operation_xyz
x,y,z
-x,y,1/2-z
-x,-y,-z
x,-y,1/2+z
1/2+x,1/2+y,z
1/2-x,1/2+y,1/2-z
1/2-x,1/2-y,-z
1/2+x,1/2-y,1/2+z
loop_
_atom_site_type_symbol
_atom_site_label
_atom_site_fract_x
_atom_site_fract_y
_atom_site_fract_z
Si Si1 0.702481 0.111064 0.868892
Si Si2 0.439384 0.762648 0.121189
Si Si3 0.405598 0.291592 0.272915
Si Si4 0.429015 0.371094 0.779232
Si Si5 0.960581 0.335538 0.618317
Si Si6 0.026020 0.956301 0.589981
Si Si7 0.500000 0.914306 0.750000
Si Si8 0.483937 0.392135 0.099385
O O1 0.500000 0.081679 0.750000
O O2 0.606486 0.171949 0.863236
O O3 0.872034 0.135102 0.892321
O O4 0.843112 0.066789 0.969917
O O5 0.660099 0.768537 0.177296
O O6 0.459420 0.699367 0.168524
O O7 0.250000 0.750000 0.000000
O O8 0.500000 0.287375 0.250000
O O9 0.532166 0.241299 0.365892
O O10 0.419580 0.364122 0.303496
O O11 0.500000 0.402560 0.750000
O O12 0.481771 0.411553 0.857429
O O13 0.175088 0.357003 0.674766
O O14 0.970089 0.369639 0.683135
O O15 0.753678 0.363988 0.503133
O O16 0.268087 0.949366 0.664095
O O17 0.989457 0.030589 0.593125
#
# Coordination Sequence:
#
# PCOD9277271 Si02
#       8
#     8   8   8   8   8   8   4   8
#     4  12  24  42  67 100 134 174 230 287 332 393
#     4  11  23  41  68 100 133 169 227 285 336 391
#     4  11  25  43  64  95 136 178 217 276 339 401
#     4  10  23  43  68  97 131 179 226 272 337 409
#     4  10  22  41  65  95 129 172 222 275 330 398
#     4  11  25  43  68  99 140 181 220 281 344 403
#     4  10  20  40  70  98 128 172 220 274 340 402
#     4  12  26  42  65 102 133 176 225 272 340 398
#
# _framework density 19.760802000000002
#
# number of rings (size 3 to 8) (size 9 to 14) (size 15 to 20)
#    0.000    1.067    4.667    1.200    4.667    2.667 
#    0.000    0.667    0.000    0.000    0.000    0.000 
#    0.000    0.000    0.000    0.000    0.000    0.000 
#
# Total GULP energy -167597.884350 kJ/mol
# GULP energy per Si atom -5586.596145 kJ/mol
# Density = 1.971583 g / cm^3
# Si number density = 19.760802 Si / 1000 Ang^3
#
#
#
# Elastic Constant Matrix: (Units=GPa)
#
#
# Indices 1 2 3 4 5 6 
#
# 1 108.3065 38.9082 31.5156 0.0002 -7.9981 0.0001
# 2 38.9082 108.2487 45.0896 0.0000 8.5724 0.0000
# 3 31.5156 45.0896 127.6376 0.0008 5.9420 0.0001
# 4 0.0002 0.0000 0.0008 21.0227 0.0003 -2.8949
# 5 -7.9981 8.5724 5.9420 0.0003 20.6524 0.0001
# 6 0.0001 0.0000 0.0001 -2.8949 0.0001 16.2785
#
#
#
# Elastic Compliance Matrix: (Units=1/GPa)
#
#
# Indices 1 2 3 4 5 6 
#
# 1 0.011678 -0.003982 -0.001788 0.000000 0.006690 0.000000
# 2 -0.003982 0.012437 -0.003140 0.000000 -0.005801 0.000000
# 3 -0.001788 -0.003140 0.009484 0.000000 -0.002118 0.000000
# 4 0.000000 0.000000 0.000000 0.048762 -0.000001 0.008672
# 5 0.006690 -0.005801 -0.002118 -0.000001 0.054029 -0.000001
# 6 0.000000 0.000000 0.000000 0.008672 -0.000001 0.062973
#
#
# Mechanical properties :
#
#
# Convention : Reuss Voigt Hill
#
# Bulk Modulus (GPa) = 63.38075 63.91329 63.64702
# Shear Modulus (GPa) = 22.47771 26.83601 24.65686
#
# Velocity S-wave (km/s) = 3.37633 3.68916 3.53621
# Velocity P-wave (km/s) = 6.88063 7.11057 6.99655
#
# Compressibility (1/GPa) = 0.01577766
#
# Stress axis : x y z
#
# Youngs Moduli (GPa) = 85.63053 80.40671 105.44032
#
# Poissons Ratio (x) = 0.32022 0.18853
# Poissons Ratio (y) = 0.34102 0.33109
# Poissons Ratio (z) = 0.15311 0.25248
#
# Static dielectric constant tensor:
#      x y z
#    x 1.681120 0.000000 -0.004100 
#    y 0.000000 1.710290 0.000000 
#    z -0.004100 0.000000 1.708300 
# 
# From -- ./inp_files/271033.got.cif
#   From: 2010.05.17/outbox.cif.g08.bks.cpg/sg15_136_cif.got.tgz:271033.got - 2010.06.03 18:47:42.
