data_PCOD9277471
_publ_section_title
;
Structure prediction by ZEFSAII (Michael W. Deem and Ramdas Pophale) SiO2 
 PCOD9277471
Probable space group: C 2/C
;
_chemical_formula_sum "Si O2"
_cell_formula_units_Z 48
_cell_length_a 29.939548
_cell_length_b 13.400068
_cell_length_c 11.015272
_cell_angle_alpha 90.000000
_cell_angle_beta 27.659809
_cell_angle_gamma 90.000000
_cell_volume 2051.502818
_symmetry_space_group_name_H-M "C 2/C"
_symmetry_group_IT_number 15
_symmetry_cell_setting 'monoclinic'
loop_
_space_group_symop_operation_xyz
x,y,z
-x,y,1/2-z
-x,-y,-z
x,-y,1/2+z
1/2+x,1/2+y,z
1/2-x,1/2+y,1/2-z
1/2-x,1/2-y,-z
1/2+x,1/2-y,1/2+z
loop_
_atom_site_type_symbol
_atom_site_label
_atom_site_fract_x
_atom_site_fract_y
_atom_site_fract_z
Si Si1 0.424176 0.529329 0.078899
Si Si2 0.891481 0.635400 0.555801
Si Si3 0.318491 0.746854 0.000860
Si Si4 0.855253 0.126680 0.566485
Si Si5 0.751374 0.979742 0.644102
Si Si6 0.540133 0.731481 0.415250
O O1 0.421549 0.435757 0.996869
O O2 0.315158 0.529170 0.385057
O O3 0.500000 0.500000 0.000000
O O4 0.452256 0.644803 0.997895
O O5 0.832797 0.706495 0.602809
O O6 0.853298 0.522483 0.631228
O O7 0.897947 0.678136 0.676871
O O8 0.000000 0.639032 0.250000
O O9 0.226752 0.807863 0.171173
O O10 0.281691 0.633627 0.087715
O O11 0.425253 0.754380 0.682788
O O12 0.089499 0.189867 0.172267
O O13 0.794188 0.037026 0.655366
#
# Coordination Sequence:
#
# PCOD9277471 Si02
#       6
#     8   8   8   8   8   8
#     4  11  22  40  62  93 128 165 215 275 331 381
#     4   9  20  39  67  91 134 176 218 267 325 401
#     4  10  20  41  63  97 133 176 218 273 330 385
#     4  10  24  38  65  99 134 169 222 275 329 394
#     4  10  21  38  64  95 129 170 223 268 329 383
#     4  10  21  41  66  98 128 174 223 265 333 394
#
# _framework density 23.397482
#
# number of rings (size 3 to 8) (size 9 to 14) (size 15 to 20)
#    0.000    2.000    1.667    1.000    0.000   10.667 
#    0.000    3.333    7.333    6.000    0.000    0.000 
#    0.000    0.000    0.000    0.000    0.000    0.000 
#
# Total GULP energy -133740.111982 kJ/mol
# GULP energy per Si atom -5572.504666 kJ/mol
# Density = 2.334423 g / cm^3
# Si number density = 23.397482 Si / 1000 Ang^3
#
#
#
# Elastic Constant Matrix: (Units=GPa)
#
#
# Indices 1 2 3 4 5 6 
#
# 1 99.0347 25.1250 42.6829 0.0000 -17.1274 0.0000
# 2 25.1250 68.0248 44.9755 0.0000 -19.0980 0.0000
# 3 42.6829 44.9755 93.3237 0.0000 -13.6324 0.0000
# 4 0.0000 0.0000 0.0000 -23.8745 0.0000 31.6326
# 5 -17.1274 -19.0980 -13.6324 0.0000 28.4262 0.0000
# 6 0.0000 0.0000 0.0000 31.6326 0.0000 5.7139
#
#
#
# Elastic Compliance Matrix: (Units=1/GPa)
#
#
# Indices 1 2 3 4 5 6 
#
# 1 0.013331 0.000200 -0.005377 0.000000 0.005588 0.000000
# 2 0.000200 0.024748 -0.010293 0.000000 0.011811 0.000000
# 3 -0.005377 -0.010293 0.017906 0.000000 -0.001568 0.000000
# 4 0.000000 0.000000 0.000000 -0.005025 0.000000 0.027820
# 5 0.005588 0.011811 -0.001568 0.000000 0.045729 0.000000
# 6 0.000000 0.000000 0.000000 0.027820 0.000000 0.020997
#
#
# Mechanical properties :
#
#
# Convention : Reuss Voigt Hill
#
# Bulk Modulus (GPa) = 39.92838 53.99444 46.96141
# Shear Modulus (GPa) = 31.85246 11.89310 21.87278
#
# Velocity S-wave (km/s) = 3.69367 2.25701 3.06082
# Velocity P-wave (km/s) = 5.94081 5.46985 5.71019
#
# Compressibility (1/GPa) = 0.02504484
#
# Stress axis : x y z
#
# Youngs Moduli (GPa) = 75.01579 40.40737 55.84644
#
# Poissons Ratio (x) = -0.00810 0.30030
# Poissons Ratio (y) = -0.01503 0.57483
# Poissons Ratio (z) = 0.40338 0.41592
#
# Static dielectric constant tensor:
#      x y z
#    x 2.667880 0.000000 -0.049060 
#    y 0.000000 1.975580 0.000000 
#    z -0.049060 0.000000 1.947190 
# 
# From -- ./inp_files/123456.got.cif
#   From: 2010.05.17/outbox.cif.g08.bks.cpg/sg15_62_cif.got.tgz:123456.got - 2010.06.03 18:47:42.
