data_PCOD9277738
_publ_section_title
;
Structure prediction by ZEFSAII (Michael W. Deem and Ramdas Pophale) SiO2 
 PCOD9277738
Probable space group: C 2/C
;
_chemical_formula_sum "Si O2"
_cell_formula_units_Z 56
_cell_length_a 18.336631
_cell_length_b 16.054696
_cell_length_c 9.924284
_cell_angle_alpha 90.000000
_cell_angle_beta 77.183320
_cell_angle_gamma 90.000000
_cell_volume 2848.808191
_symmetry_space_group_name_H-M "C 2/C"
_symmetry_group_IT_number 15
_symmetry_cell_setting 'monoclinic'
loop_
_space_group_symop_operation_xyz
x,y,z
-x,y,1/2-z
-x,-y,-z
x,-y,1/2+z
1/2+x,1/2+y,z
1/2-x,1/2+y,1/2-z
1/2-x,1/2-y,-z
1/2+x,1/2-y,1/2+z
loop_
_atom_site_type_symbol
_atom_site_label
_atom_site_fract_x
_atom_site_fract_y
_atom_site_fract_z
Si Si1 0.596373 0.902781 0.968450
Si Si2 0.053446 0.003094 0.347531
Si Si3 0.426100 0.904957 0.992274
Si Si4 0.149232 0.154645 0.385741
Si Si5 0.412690 0.195000 0.762639
Si Si6 0.824110 0.668635 0.303518
Si Si7 0.584951 0.323226 0.211331
O O1 0.656128 0.892592 0.826753
O O2 0.587780 0.997244 0.022489
O O3 0.513954 0.884057 0.940404
O O4 0.614513 0.841283 0.084153
O O5 0.121791 0.065308 0.343775
O O6 0.000000 0.035447 0.250000
O O7 0.080677 0.911633 0.289942
O O8 0.000000 0.000000 0.500000
O O9 0.408163 0.877659 0.152206
O O10 0.373711 0.856216 0.911613
O O11 0.125618 0.225157 0.288100
O O12 0.237336 0.163993 0.371900
O O13 0.107818 0.165568 0.545998
O O14 0.500000 0.214670 0.750000
O O15 0.855316 0.759712 0.250783
O O16 0.500000 0.289641 0.250000
#
# Coordination Sequence:
#
# PCOD9277738 Si02
#       7
#     8   8   8   8   8   8   8
#     4  10  22  40  64 101 128 180 225 266 322 397
#     4  11  23  46  74 100 127 176 239 285 329 397
#     4  10  20  41  68  92 134 178 225 261 319 413
#     4  12  25  44  65 104 134 174 222 284 351 397
#     4  10  22  39  65  91 131 174 222 275 324 386
#     4  12  25  40  68 100 140 174 218 277 347 409
#     4  11  23  43  72  97 130 179 233 274 335 409
#
# _framework density 19.657343000000001
#
# number of rings (size 3 to 8) (size 9 to 14) (size 15 to 20)
#    0.000    1.143    4.286    3.000    2.000    5.143 
#    2.571    0.000    0.000    0.000    0.000    0.000 
#    0.000    0.000    0.000    0.000    0.000    0.000 
#
# Total GULP energy -156437.945436 kJ/mol
# GULP energy per Si atom -5587.069480 kJ/mol
# Density = 1.961260 g / cm^3
# Si number density = 19.657343 Si / 1000 Ang^3
#
#
#
# Elastic Constant Matrix: (Units=GPa)
#
#
# Indices 1 2 3 4 5 6 
#
# 1 100.7085 49.7687 55.8086 0.0000 -14.7999 0.0000
# 2 49.7687 105.3720 23.7703 0.0000 1.3154 0.0000
# 3 55.8086 23.7703 109.7566 0.0000 -4.7766 0.0000
# 4 0.0000 0.0000 0.0000 32.6723 0.0000 7.4718
# 5 -14.7999 1.3154 -4.7766 0.0000 23.2761 0.0000
# 6 0.0000 0.0000 0.0000 7.4718 0.0000 15.3810
#
#
#
# Elastic Compliance Matrix: (Units=1/GPa)
#
#
# Indices 1 2 3 4 5 6 
#
# 1 0.019790 -0.007708 -0.007898 0.000000 0.011398 0.000000
# 2 -0.007708 0.013004 0.000866 0.000000 -0.005458 0.000000
# 3 -0.007898 0.000866 0.012833 0.000000 -0.002437 0.000000
# 4 0.000000 0.000000 0.000000 0.034432 0.000000 -0.016726
# 5 0.011398 -0.005458 -0.002437 0.000000 0.050018 0.000000
# 6 0.000000 0.000000 0.000000 -0.016726 0.000000 0.073141
#
#
# Mechanical properties :
#
#
# Convention : Reuss Voigt Hill
#
# Bulk Modulus (GPa) = 61.92970 63.83695 62.88332
# Shear Modulus (GPa) = 21.00125 26.69853 23.84989
#
# Velocity S-wave (km/s) = 3.27213 3.68937 3.48700
# Velocity P-wave (km/s) = 6.77118 7.11997 6.94776
#
# Compressibility (1/GPa) = 0.01614734
#
# Stress axis : x y z
#
# Youngs Moduli (GPa) = 50.52944 76.90129 77.92247
#
# Poissons Ratio (x) = 0.59276 0.61540
# Poissons Ratio (y) = 0.38948 -0.06745
# Poissons Ratio (z) = 0.39906 -0.06656
#
# Static dielectric constant tensor:
#      x y z
#    x 1.662890 0.000000 -0.003910 
#    y 0.000000 1.731000 0.000000 
#    z -0.003910 0.000000 1.704980 
# 
# From -- ./inp_files/49003.got.cif
#   From: 2010.05.17/outbox.cif.g08.bks.cpg/sg15_25_cif.got.tgz:49003.got - 2010.06.03 18:47:42.
