data_PCOD9277118
_publ_section_title
;
Structure prediction by ZEFSAII (Michael W. Deem and Ramdas Pophale) SiO2 
 PCOD9277118
Probable space group: C 2/C
;
_chemical_formula_sum "Si O2"
_cell_formula_units_Z 40
_cell_length_a 17.743607
_cell_length_b 8.827202
_cell_length_c 17.126594
_cell_angle_alpha 90.000000
_cell_angle_beta 139.063036
_cell_angle_gamma 90.000000
_cell_volume 1757.634755
_symmetry_space_group_name_H-M "C 2/C"
_symmetry_group_IT_number 15
_symmetry_cell_setting 'monoclinic'
loop_
_space_group_symop_operation_xyz
x,y,z
-x,y,1/2-z
-x,-y,-z
x,-y,1/2+z
1/2+x,1/2+y,z
1/2-x,1/2+y,1/2-z
1/2-x,1/2-y,-z
1/2+x,1/2-y,1/2+z
loop_
_atom_site_type_symbol
_atom_site_label
_atom_site_fract_x
_atom_site_fract_y
_atom_site_fract_z
Si Si1 0.435256 0.481394 0.622348
Si Si2 0.137732 0.234166 0.218902
Si Si3 0.621085 0.768335 0.022077
Si Si4 0.983928 0.486829 0.824855
Si Si5 0.275804 0.933582 0.945606
O O1 0.500000 0.546340 0.750000
O O2 0.530457 0.374893 0.657314
O O3 0.388771 0.609712 0.528669
O O4 0.323499 0.399888 0.570601
O O5 0.139104 0.250869 0.127501
O O6 0.120949 0.401238 0.242988
O O7 0.246650 0.154140 0.343764
O O8 0.718517 0.883779 0.065869
O O9 0.504014 0.858848 0.905729
O O10 0.000000 0.425619 0.750000
O O11 0.096271 0.592735 0.924730
#
# Coordination Sequence:
#
# PCOD9277118 Si02
#       5
#     8   8   8   8   8
#     4  10  20  40  68  91 130 168 214 257 322 385
#     4  11  22  42  62  94 134 165 209 268 323 375
#     4  10  22  42  61  97 125 167 213 266 317 371
#     4  10  22  41  67  91 129 168 214 261 313 385
#     4   9  23  41  63  94 124 169 218 250 320 387
#
# _framework density 22.757856
#
# number of rings (size 3 to 8) (size 9 to 14) (size 15 to 20)
#    1.200    0.800    0.000    4.200    0.000    3.200 
#   14.400    0.000    0.000    0.000    0.000    0.000 
#    0.000    0.000    0.000    0.000    0.000    0.000 
#
# Total GULP energy -111622.439976 kJ/mol
# GULP energy per Si atom -5581.121999 kJ/mol
# Density = 2.270606 g / cm^3
# Si number density = 22.757856 Si / 1000 Ang^3
#
#
#
# Elastic Constant Matrix: (Units=GPa)
#
#
# Indices 1 2 3 4 5 6 
#
# 1 39.3937 -2.9049 0.2508 0.0000 -7.5190 0.0000
# 2 -2.9049 51.1003 -3.6570 0.0000 -3.6946 0.0000
# 3 0.2508 -3.6570 62.2702 0.0000 -2.1071 0.0000
# 4 0.0000 0.0000 0.0000 25.7889 0.0000 -13.5281
# 5 -7.5190 -3.6946 -2.1071 0.0000 26.6226 0.0000
# 6 0.0000 0.0000 0.0000 -13.5281 0.0000 16.4905
#
#
#
# Elastic Compliance Matrix: (Units=1/GPa)
#
#
# Indices 1 2 3 4 5 6 
#
# 1 0.027060 0.002134 0.000286 0.000000 0.007961 0.000000
# 2 0.002134 0.020035 0.001286 0.000000 0.003485 0.000000
# 3 0.000286 0.001286 0.016186 0.000000 0.001540 0.000000
# 4 0.000000 0.000000 0.000000 0.068069 0.000000 0.055841
# 5 0.007961 0.003485 0.001540 0.000000 0.040416 0.000000
# 6 0.000000 0.000000 0.000000 0.055841 0.000000 0.106450
#
#
# Mechanical properties :
#
#
# Convention : Reuss Voigt Hill
#
# Bulk Modulus (GPa) = 14.14586 15.57134 14.85860
# Shear Modulus (GPa) = 16.98558 24.38543 20.68551
#
# Velocity S-wave (km/s) = 2.73493 3.27695 3.01813
# Velocity P-wave (km/s) = 4.02522 4.60162 4.32304
#
# Compressibility (1/GPa) = 0.07069205
#
# Stress axis : x y z
#
# Youngs Moduli (GPa) = 36.95510 49.91344 61.78357
#
# Poissons Ratio (x) = -0.10653 -0.01765
# Poissons Ratio (y) = -0.07888 -0.07945
# Poissons Ratio (z) = -0.01056 -0.06418
#
# Static dielectric constant tensor:
#      x y z
#    x 1.843300 0.000000 0.040340 
#    y 0.000000 1.866250 0.000000 
#    z 0.040340 0.000000 1.866130 
# 
# From -- ./inp_files/214124.got.cif
#   From: 2010.05.17/outbox.cif.g08.bks.cpg/sg15_108_cif.got.tgz:214124.got - 2010.06.03 18:47:42.
