data_PCOD9277197
_publ_section_title
;
Structure prediction by ZEFSAII (Michael W. Deem and Ramdas Pophale) SiO2 
 PCOD9277197
Probable space group: C 2/C
;
_chemical_formula_sum "Si O2"
_cell_formula_units_Z 48
_cell_length_a 8.370052
_cell_length_b 26.103944
_cell_length_c 12.018750
_cell_angle_alpha 90.000000
_cell_angle_beta 60.754251
_cell_angle_gamma 90.000000
_cell_volume 2291.263720
_symmetry_space_group_name_H-M "C 2/C"
_symmetry_group_IT_number 15
_symmetry_cell_setting 'monoclinic'
loop_
_space_group_symop_operation_xyz
x,y,z
-x,y,1/2-z
-x,-y,-z
x,-y,1/2+z
1/2+x,1/2+y,z
1/2-x,1/2+y,1/2-z
1/2-x,1/2-y,-z
1/2+x,1/2-y,1/2+z
loop_
_atom_site_type_symbol
_atom_site_label
_atom_site_fract_x
_atom_site_fract_y
_atom_site_fract_z
Si Si1 0.791515 0.100116 0.277018
Si Si2 0.318726 0.595752 0.749001
Si Si3 0.049243 0.448416 0.047518
Si Si4 0.792969 0.317198 0.369923
Si Si5 0.188060 0.997708 0.869746
Si Si6 0.280489 0.294435 0.843937
O O1 0.684015 0.079593 0.419162
O O2 0.727667 0.158644 0.281332
O O3 0.000000 0.100720 0.250000
O O4 0.768486 0.059615 0.184846
O O5 0.500000 0.614684 0.750000
O O6 0.300636 0.631734 0.646481
O O7 0.348022 0.535317 0.719861
O O8 0.118078 0.590807 0.873416
O O9 0.153884 0.471903 0.118202
O O10 0.000000 0.500000 0.000000
O O11 0.770680 0.310976 0.511222
O O12 0.709810 0.263437 0.351967
O O13 0.000000 0.319881 0.250000
O O14 0.000000 0.000000 0.000000
O O15 0.500000 0.289887 0.750000
#
# Coordination Sequence:
#
# PCOD9277197 Si02
#       6
#     8   8   8   8   8   8
#     4  11  21  38  63  95 128 160 200 263 315 386
#     4  12  25  41  62  92 124 170 218 261 308 377
#     4  12  24  41  61  90 127 165 213 257 312 380
#     4  10  20  40  69  93 120 165 216 262 315 385
#     4  12  23  38  62  92 126 166 204 254 323 382
#     4   9  20  37  64 100 123 158 209 262 322 380
#
# _framework density 20.949138999999999
#
# number of rings (size 3 to 8) (size 9 to 14) (size 15 to 20)
#    0.000    1.000    3.333    5.000    2.333    0.000 
#    0.000    0.000    3.667   10.000    0.000    0.000 
#    0.000    0.000    0.000    0.000    0.000    0.000 
#
# Total GULP energy -133703.615633 kJ/mol
# GULP energy per Si atom -5570.983985 kJ/mol
# Density = 2.090146 g / cm^3
# Si number density = 20.949139 Si / 1000 Ang^3
#
#
#
# Elastic Constant Matrix: (Units=GPa)
#
#
# Indices 1 2 3 4 5 6 
#
# 1 77.0094 12.2981 23.5218 0.0000 -2.8384 0.0000
# 2 12.2981 158.4100 7.9518 0.0000 7.0831 0.0000
# 3 23.5218 7.9518 101.9492 0.0000 -31.5362 0.0000
# 4 0.0000 0.0000 0.0000 36.1614 0.0000 0.6715
# 5 -2.8384 7.0831 -31.5362 0.0000 29.1631 0.0000
# 6 0.0000 0.0000 0.0000 0.6715 0.0000 -6.7448
#
#
#
# Elastic Compliance Matrix: (Units=1/GPa)
#
#
# Indices 1 2 3 4 5 6 
#
# 1 0.014261 -0.000771 -0.004122 0.000000 -0.002882 0.000000
# 2 -0.000771 0.006574 -0.001280 0.000000 -0.003056 0.000000
# 3 -0.004122 -0.001280 0.016276 0.000000 0.017510 0.000000
# 4 0.000000 0.000000 0.000000 0.027603 0.000000 0.002748
# 5 -0.002882 -0.003056 0.017510 0.000000 0.053687 0.000000
# 6 0.000000 0.000000 0.000000 0.002748 0.000000 -0.147989
#
#
# Mechanical properties :
#
#
# Convention : Reuss Voigt Hill
#
# Bulk Modulus (GPa) = 40.37974 47.21244 43.79609
# Shear Modulus (GPa) = -556.27875 31.28909 -262.49483
#
# Velocity S-wave (km/s) = -16.31301 3.86887 -11.20594
# Velocity P-wave (km/s) = 18.31671 6.52251 12.10287
#
# Compressibility (1/GPa) = 0.02476490
#
# Stress axis : x y z
#
# Youngs Moduli (GPa) = 70.11981 152.12572 61.44006
#
# Poissons Ratio (x) = 0.11736 0.25323
# Poissons Ratio (y) = 0.05409 0.07864
# Poissons Ratio (z) = 0.28900 0.19472
#
# Static dielectric constant tensor:
#      x y z
#    x 2.092890 0.000000 0.078160 
#    y 0.000000 1.847940 0.000000 
#    z 0.078160 0.000000 1.815810 
# 
# From -- ./inp_files/80537.got.cif
#   From: 2010.05.17/outbox.cif.g08.bks.cpg/sg15_41_cif.got.tgz:80537.got - 2010.06.03 18:47:42.
