data_PCOD9277367
_publ_section_title
;
Structure prediction by ZEFSAII (Michael W. Deem and Ramdas Pophale) SiO2 
 PCOD9277367
Probable space group: C 2/C
;
_chemical_formula_sum "Si O2"
_cell_formula_units_Z 56
_cell_length_a 6.996036
_cell_length_b 23.275699
_cell_length_c 17.933471
_cell_angle_alpha 90.000000
_cell_angle_beta 68.535180
_cell_angle_gamma 90.000000
_cell_volume 2717.702853
_symmetry_space_group_name_H-M "C 2/C"
_symmetry_group_IT_number 15
_symmetry_cell_setting 'monoclinic'
loop_
_space_group_symop_operation_xyz
x,y,z
-x,y,1/2-z
-x,-y,-z
x,-y,1/2+z
1/2+x,1/2+y,z
1/2-x,1/2+y,1/2-z
1/2-x,1/2-y,-z
1/2+x,1/2-y,1/2+z
loop_
_atom_site_type_symbol
_atom_site_label
_atom_site_fract_x
_atom_site_fract_y
_atom_site_fract_z
Si Si1 0.000000 0.541909 0.750000
Si Si2 0.183222 0.266171 0.924127
Si Si3 0.527153 0.357574 0.430572
Si Si4 0.217410 0.034593 0.386079
Si Si5 0.774745 0.133833 0.749012
Si Si6 0.288753 0.557427 0.480043
Si Si7 0.500000 0.238019 0.750000
Si Si8 0.418264 0.882441 0.960766
O O1 0.834244 0.499897 0.807681
O O2 0.884342 0.583825 0.707371
O O3 0.368285 0.268487 0.835362
O O4 0.045309 0.323211 0.939456
O O5 0.046414 0.210701 0.923151
O O6 0.250000 0.250000 0.000000
O O7 0.671750 0.379969 0.344448
O O8 0.627307 0.385786 0.489226
O O9 0.289280 0.375047 0.460996
O O10 0.331481 0.092963 0.394952
O O11 0.979622 0.042937 0.399408
O O12 0.223647 0.994116 0.458992
O O13 0.658458 0.194488 0.768855
O O14 0.000000 0.135723 0.750000
O O15 0.076452 0.571912 0.472100
#
# Coordination Sequence:
#
# PCOD9277367 Si02
#       8
#     4   8   8   8   8   8   4   8
#     4  11  22  40  60  88 126 158 204 251 316 374
#     4  11  22  42  67  89 125 171 206 264 320 377
#     4  10  21  38  63  96 120 148 217 261 313 374
#     4  10  23  39  58  88 123 160 204 257 300 376
#     4  10  22  36  64  94 122 158 196 266 323 367
#     4  10  20  41  60  87 122 155 201 260 303 366
#     4   9  24  44  56  96 134 152 208 271 312 368
#     4  11  23  38  65  89 119 167 209 249 311 386
#
# _framework density 20.605637000000002
#
# number of rings (size 3 to 8) (size 9 to 14) (size 15 to 20)
#    0.000    1.714    2.857    0.857    4.000    1.143 
#    2.571    0.000    1.571    0.000    0.000    0.000 
#    0.000    0.000    0.000    0.000    0.000    0.000 
#
# Total GULP energy -156097.626216 kJ/mol
# GULP energy per Si atom -5574.915222 kJ/mol
# Density = 2.055874 g / cm^3
# Si number density = 20.605637 Si / 1000 Ang^3
#
#
#
# Elastic Constant Matrix: (Units=GPa)
#
#
# Indices 1 2 3 4 5 6 
#
# 1 105.6823 9.3051 11.3235 0.0000 -31.9502 0.0000
# 2 9.3051 74.5373 9.1481 0.0000 -12.9501 0.0000
# 3 11.3235 9.1481 69.2976 0.0000 -25.9821 0.0000
# 4 0.0000 0.0000 0.0000 22.6188 0.0000 -9.2160
# 5 -31.9502 -12.9501 -25.9821 0.0000 27.8020 0.0000
# 6 0.0000 0.0000 0.0000 -9.2160 0.0000 6.9921
#
#
#
# Elastic Compliance Matrix: (Units=1/GPa)
#
#
# Indices 1 2 3 4 5 6 
#
# 1 0.016486 0.001640 0.006896 0.000000 0.026154 0.000000
# 2 0.001640 0.014802 0.001646 0.000000 0.010318 0.000000
# 3 0.006896 0.001646 0.025162 0.000000 0.032206 0.000000
# 4 0.000000 0.000000 0.000000 0.095497 0.000000 0.125871
# 5 0.026154 0.010318 0.032206 0.000000 0.100929 0.000000
# 6 0.000000 0.000000 0.000000 0.125871 0.000000 0.308924
#
#
# Mechanical properties :
#
#
# Convention : Reuss Voigt Hill
#
# Bulk Modulus (GPa) = 13.01864 34.34119 23.67992
# Shear Modulus (GPa) = 8.81772 26.13194 17.47483
#
# Velocity S-wave (km/s) = 2.07088 3.56503 2.91531
# Velocity P-wave (km/s) = 3.47128 5.80069 4.78006
#
# Compressibility (1/GPa) = 0.07681293
#
# Stress axis : x y z
#
# Youngs Moduli (GPa) = 60.65746 67.55877 39.74319
#
# Poissons Ratio (x) = -0.11077 -0.27406
# Poissons Ratio (y) = -0.09945 -0.06544
# Poissons Ratio (z) = -0.41827 -0.11124
#
# Static dielectric constant tensor:
#      x y z
#    x 1.750380 0.000000 0.008650 
#    y 0.000000 1.774480 0.000000 
#    z 0.008650 0.000000 1.769330 
# 
# From -- ./inp_files/228428.got.cif
#   From: 2010.05.17/outbox.cif.g08.bks.cpg/sg15_115_cif.got.tgz:228428.got - 2010.06.03 18:47:42.
