data_PCOD9277023
_publ_section_title
;
Structure prediction by ZEFSAII (Michael W. Deem and Ramdas Pophale) SiO2 
 PCOD9277023
Probable space group: C 2/C
;
_chemical_formula_sum "Si O2"
_cell_formula_units_Z 56
_cell_length_a 14.454380
_cell_length_b 11.169640
_cell_length_c 19.197028
_cell_angle_alpha 90.000000
_cell_angle_beta 114.300845
_cell_angle_gamma 90.000000
_cell_volume 2824.752072
_symmetry_space_group_name_H-M "C 2/C"
_symmetry_group_IT_number 15
_symmetry_cell_setting 'monoclinic'
loop_
_space_group_symop_operation_xyz
x,y,z
-x,y,1/2-z
-x,-y,-z
x,-y,1/2+z
1/2+x,1/2+y,z
1/2-x,1/2+y,1/2-z
1/2-x,1/2-y,-z
1/2+x,1/2-y,1/2+z
loop_
_atom_site_type_symbol
_atom_site_label
_atom_site_fract_x
_atom_site_fract_y
_atom_site_fract_z
Si Si1 0.933919 0.538405 0.566372
Si Si2 0.445569 0.767779 0.615108
Si Si3 0.815804 0.721902 0.314684
Si Si4 0.106191 0.065485 0.012918
Si Si5 0.152221 0.484168 0.103583
Si Si6 0.750555 0.243120 0.357149
Si Si7 0.251290 0.845635 0.062784
O O1 0.934865 0.395380 0.573722
O O2 0.884941 0.558475 0.475332
O O3 0.865222 0.602778 0.601474
O O4 0.050314 0.575845 0.602681
O O5 0.565441 0.755305 0.666625
O O6 0.414729 0.658502 0.555663
O O7 0.363873 0.780503 0.651485
O O8 0.804494 0.581471 0.330198
O O9 0.750748 0.749873 0.226549
O O10 0.785580 0.795117 0.374555
O O11 0.168602 0.145826 0.089039
O O12 0.181292 0.956829 0.018627
O O13 0.000000 0.000000 0.000000
O O14 0.223238 0.375010 0.106223
O O15 0.250000 0.750000 0.000000
#
# Coordination Sequence:
#
# PCOD9277023 Si02
#       7
#     8   8   8   8   8   8   8
#     4  10  20  40  67  92 118 168 223 267 301 386
#     4  11  22  44  67  94 121 176 226 268 318 395
#     4  11  26  42  62  97 138 171 211 275 338 391
#     4  12  25  41  69 100 132 168 226 277 324 388
#     4  10  22  39  66  93 126 163 221 265 318 384
#     4  12  25  42  67  96 133 174 216 272 336 389
#     4  12  24  41  66  96 130 171 219 269 329 389
#
# _framework density 19.824748
#
# number of rings (size 3 to 8) (size 9 to 14) (size 15 to 20)
#    0.000    0.857    5.714    1.714    4.000    0.000 
#    0.000    0.714    0.000    0.000    0.000    0.000 
#    0.000    0.000    0.000    0.000    0.000    0.000 
#
# Total GULP energy -156263.924676 kJ/mol
# GULP energy per Si atom -5580.854453 kJ/mol
# Density = 1.977963 g / cm^3
# Si number density = 19.824748 Si / 1000 Ang^3
#
#
#
# Elastic Constant Matrix: (Units=GPa)
#
#
# Indices 1 2 3 4 5 6 
#
# 1 112.1451 26.5743 12.6754 0.0000 -1.8227 0.0000
# 2 26.5743 85.9867 29.8760 0.0000 3.3311 0.0000
# 3 12.6754 29.8760 85.1586 0.0000 -5.1680 0.0000
# 4 0.0000 0.0000 0.0000 13.0892 0.0000 -6.6022
# 5 -1.8227 3.3311 -5.1680 0.0000 18.2729 0.0000
# 6 0.0000 0.0000 0.0000 -6.6022 0.0000 41.4854
#
#
#
# Elastic Compliance Matrix: (Units=1/GPa)
#
#
# Indices 1 2 3 4 5 6 
#
# 1 0.009671 -0.002930 -0.000326 0.000000 0.001407 0.000000
# 2 -0.002930 0.014395 -0.004875 0.000000 -0.004295 0.000000
# 3 -0.000326 -0.004875 0.013790 0.000000 0.004756 0.000000
# 4 0.000000 0.000000 0.000000 0.083067 0.000000 0.013220
# 5 0.001407 -0.004295 0.004756 0.000000 0.056994 0.000000
# 6 0.000000 0.000000 0.000000 0.013220 0.000000 0.026209
#
#
# Mechanical properties :
#
#
# Convention : Reuss Voigt Hill
#
# Bulk Modulus (GPa) = 46.30795 46.83798 46.57297
# Shear Modulus (GPa) = 21.96964 28.84716 25.40840
#
# Velocity S-wave (km/s) = 3.33256 3.81873 3.58390
# Velocity P-wave (km/s) = 6.18202 6.56665 6.37723
#
# Compressibility (1/GPa) = 0.02159456
#
# Stress axis : x y z
#
# Youngs Moduli (GPa) = 103.40133 69.46676 72.51518
#
# Poissons Ratio (x) = 0.20354 0.02365
# Poissons Ratio (y) = 0.30297 0.35350
# Poissons Ratio (z) = 0.03373 0.33864
#
# Static dielectric constant tensor:
#      x y z
#    x 1.785320 0.000000 0.010720 
#    y 0.000000 1.683830 0.000000 
#    z 0.010720 0.000000 1.729560 
# 
# From -- ./inp_files/204528.got.cif
#   From: 2010.05.17/outbox.cif.g08.bks.cpg/sg15_103_cif.got.tgz:204528.got - 2010.06.03 18:47:42.
