data_PCOD9277996
_publ_section_title
;
Structure prediction by ZEFSAII (Michael W. Deem and Ramdas Pophale) SiO2 
 PCOD9277996
Probable space group: C 2/C
;
_chemical_formula_sum "Si O2"
_cell_formula_units_Z 48
_cell_length_a 27.258128
_cell_length_b 8.852760
_cell_length_c 19.999791
_cell_angle_alpha 90.000000
_cell_angle_beta 24.086078
_cell_angle_gamma 90.000000
_cell_volume 1969.590621
_symmetry_space_group_name_H-M "C 2/C"
_symmetry_group_IT_number 15
_symmetry_cell_setting 'monoclinic'
loop_
_space_group_symop_operation_xyz
x,y,z
-x,y,1/2-z
-x,-y,-z
x,-y,1/2+z
1/2+x,1/2+y,z
1/2-x,1/2+y,1/2-z
1/2-x,1/2-y,-z
1/2+x,1/2-y,1/2+z
loop_
_atom_site_type_symbol
_atom_site_label
_atom_site_fract_x
_atom_site_fract_y
_atom_site_fract_z
Si Si1 0.718271 0.596614 0.579140
Si Si2 0.935775 0.047548 0.933963
Si Si3 0.086311 0.405095 0.239106
Si Si4 0.500000 0.500000 0.000000
Si Si5 0.653210 0.882912 0.447296
Si Si6 0.500000 0.349357 0.750000
Si Si7 0.586504 0.853931 0.388417
O O1 0.750000 0.750000 0.500000
O O2 0.578130 0.573216 0.745570
O O3 0.810503 0.482351 0.431702
O O4 0.741954 0.579782 0.630444
O O5 0.874467 0.208611 0.003195
O O6 0.933303 0.977873 0.010488
O O7 0.902466 0.944926 0.912687
O O8 0.052957 0.255800 0.241172
O O9 0.129757 0.362884 0.258900
O O10 0.966338 0.513924 0.391044
O O11 0.526545 0.310821 0.973215
O O12 0.675215 0.883807 0.340427
O O13 0.500000 0.000000 0.500000
#
# Coordination Sequence:
#
# PCOD9277996 Si02
#       7
#     8   8   8   4   8   4   8
#     4  12  23  39  68 102 130 169 234 273 331 411
#     4  11  24  40  68  95 130 178 217 277 333 404
#     4  11  21  41  66  93 131 176 213 282 336 396
#     4  10  20  42  64  90 132 170 222 272 332 396
#     4  10  21  43  67  90 128 179 220 272 332 392
#     4  12  22  38  64  96 132 170 212 266 356 384
#     4   9  20  39  68  90 126 183 223 264 341 400
#
# _framework density 24.370546999999998
#
# number of rings (size 3 to 8) (size 9 to 14) (size 15 to 20)
#    0.000    1.333    5.000    1.000    0.000    0.667 
#    0.000    5.000    3.667    0.000    0.000    0.000 
#    0.000    0.000    0.000    0.000    0.000    0.000 
#
# Total GULP energy -133696.124186 kJ/mol
# GULP energy per Si atom -5570.671841 kJ/mol
# Density = 2.431508 g / cm^3
# Si number density = 24.370547 Si / 1000 Ang^3
#
#
#
# Elastic Constant Matrix: (Units=GPa)
#
#
# Indices 1 2 3 4 5 6 
#
# 1 176.3822 24.7145 20.3291 0.0000 42.7746 0.0001
# 2 24.7145 97.6449 3.6765 0.0000 12.2753 0.0001
# 3 20.3291 3.6765 31.1043 -0.0002 -9.3331 0.0001
# 4 0.0000 0.0000 -0.0002 13.1101 0.0001 16.5224
# 5 42.7746 12.2753 -9.3331 0.0001 35.9599 -0.0001
# 6 0.0001 0.0001 0.0001 16.5224 -0.0001 41.6441
#
#
#
# Elastic Compliance Matrix: (Units=1/GPa)
#
#
# Indices 1 2 3 4 5 6 
#
# 1 0.010991 -0.000310 -0.011970 0.000000 -0.016074 0.000000
# 2 -0.000310 0.010901 -0.002268 0.000000 -0.003940 0.000000
# 3 -0.011970 -0.002268 0.048525 0.000001 0.027607 -0.000001
# 4 0.000000 0.000000 0.000001 0.152559 0.000000 -0.060528
# 5 -0.016074 -0.003940 0.027607 0.000000 0.055440 0.000000
# 6 0.000000 0.000000 -0.000001 -0.060528 0.000000 0.048028
#
#
# Mechanical properties :
#
#
# Convention : Reuss Voigt Hill
#
# Bulk Modulus (GPa) = 24.20149 44.73016 34.46583
# Shear Modulus (GPa) = 13.53865 35.23692 24.38779
#
# Velocity S-wave (km/s) = 2.35953 3.80660 3.16683
# Velocity P-wave (km/s) = 4.16838 6.14120 5.24832
#
# Compressibility (1/GPa) = 0.04131976
#
# Stress axis : x y z
#
# Youngs Moduli (GPa) = 90.98485 91.73887 20.60792
#
# Poissons Ratio (x) = 0.02847 0.24668
# Poissons Ratio (y) = 0.02824 0.04674
# Poissons Ratio (z) = 1.08909 0.20806
#
# Static dielectric constant tensor:
#      x y z
#    x 1.963440 0.000000 0.046640 
#    y 0.000000 3.844290 0.000000 
#    z 0.046640 0.000000 1.933280 
# 
# From -- ./inp_files/257147.got.cif
#   From: 2010.05.17/outbox.cif.g08.bks.cpg/sg15_129_cif.got.tgz:257147.got - 2010.06.03 18:47:42.
