data_PCOD9277678
_publ_section_title
;
Structure prediction by ZEFSAII (Michael W. Deem and Ramdas Pophale) SiO2 
 PCOD9277678
Probable space group: C 2/C
;
_chemical_formula_sum "Si O2"
_cell_formula_units_Z 40
_cell_length_a 13.997085
_cell_length_b 8.663619
_cell_length_c 23.691925
_cell_angle_alpha 90.000000
_cell_angle_beta 31.529544
_cell_angle_gamma 90.000000
_cell_volume 1502.407078
_symmetry_space_group_name_H-M "C 2/C"
_symmetry_group_IT_number 15
_symmetry_cell_setting 'monoclinic'
loop_
_space_group_symop_operation_xyz
x,y,z
-x,y,1/2-z
-x,-y,-z
x,-y,1/2+z
1/2+x,1/2+y,z
1/2-x,1/2+y,1/2-z
1/2-x,1/2-y,-z
1/2+x,1/2-y,1/2+z
loop_
_atom_site_type_symbol
_atom_site_label
_atom_site_fract_x
_atom_site_fract_y
_atom_site_fract_z
Si Si1 0.348440 0.222535 0.390473
Si Si2 0.534748 0.823551 0.054992
Si Si3 0.751206 0.576636 0.328710
Si Si4 0.270217 0.480767 0.851575
Si Si5 0.442645 0.203502 0.717804
O O1 0.250000 0.250000 0.500000
O O2 0.250454 0.102200 0.396975
O O3 0.560453 0.165369 0.286816
O O4 0.329182 0.380284 0.363119
O O5 0.423975 0.666257 0.105046
O O6 0.574713 0.841150 0.100511
O O7 0.390678 0.953483 0.106411
O O8 0.697075 0.847886 0.930328
O O9 0.763197 0.402982 0.299513
O O10 0.404005 0.384394 0.743959
O O11 0.500000 0.145070 0.750000
#
# Coordination Sequence:
#
# PCOD9277678 Si02
#       5
#     8   8   8   8   8
#     4  10  20  41  67  92 126 175 216 263 323 397
#     4  10  23  45  65  92 134 173 217 271 327 400
#     4  10  22  41  62  94 128 170 214 262 339 388
#     4  10  24  41  69  97 128 177 228 264 330 396
#     4  12  24  40  65  99 132 169 216 283 328 387
#
# _framework density 26.623944000000002
#
# number of rings (size 3 to 8) (size 9 to 14) (size 15 to 20)
#    0.000    1.600    2.000    2.400    5.600    4.800 
#    0.000    0.000    0.000    0.000    0.000    0.000 
#    0.000    0.000    0.000    0.000    0.000    0.000 
#
# Total GULP energy -111878.265046 kJ/mol
# GULP energy per Si atom -5593.913252 kJ/mol
# Density = 2.656335 g / cm^3
# Si number density = 26.623944 Si / 1000 Ang^3
#
#
#
# Elastic Constant Matrix: (Units=GPa)
#
#
# Indices 1 2 3 4 5 6 
#
# 1 88.9374 16.6445 52.9400 0.0000 35.8097 0.0000
# 2 16.6445 98.7355 16.7245 0.0000 8.8937 0.0000
# 3 52.9400 16.7245 137.6925 -0.0001 39.1131 0.0000
# 4 0.0000 0.0000 -0.0001 44.6304 0.0000 -8.9861
# 5 35.8097 8.8937 39.1131 0.0000 50.5185 0.0000
# 6 0.0000 0.0000 0.0000 -8.9861 0.0000 29.8839
#
#
#
# Elastic Compliance Matrix: (Units=1/GPa)
#
#
# Indices 1 2 3 4 5 6 
#
# 1 0.017555 -0.001464 -0.003987 0.000000 -0.009099 0.000000
# 2 -0.001464 0.010510 -0.000619 0.000000 -0.000333 0.000000
# 3 -0.003987 -0.000619 0.010303 0.000000 -0.005042 0.000000
# 4 0.000000 0.000000 0.000000 0.023850 0.000000 0.007172
# 5 -0.009099 -0.000333 -0.005042 0.000000 0.030207 0.000000
# 6 0.000000 0.000000 0.000000 0.007172 0.000000 0.035619
#
#
# Mechanical properties :
#
#
# Convention : Reuss Voigt Hill
#
# Bulk Modulus (GPa) = 38.12889 55.33149 46.73019
# Shear Modulus (GPa) = 33.57367 40.94364 37.25866
#
# Velocity S-wave (km/s) = 3.55495 3.92580 3.74497
# Velocity P-wave (km/s) = 5.58593 6.43249 6.02410
#
# Compressibility (1/GPa) = 0.02622683
#
# Stress axis : x y z
#
# Youngs Moduli (GPa) = 56.96470 95.14958 97.06120
#
# Poissons Ratio (x) = 0.13934 0.38697
# Poissons Ratio (y) = 0.08342 0.06007
# Poissons Ratio (z) = 0.22711 0.05889
#
# Static dielectric constant tensor:
#      x y z
#    x 2.154420 0.000000 -0.079730 
#    y 0.000000 2.110170 0.000000 
#    z -0.079730 0.000000 2.118140 
# 
# From -- ./inp_files/298276.got.cif
#   From: 2010.05.17/outbox.cif.g08.bks.cpg/sg15_150_cif.got.tgz:298276.got - 2010.06.03 18:47:42.
