data_PCOD9277970
_publ_section_title
;
Structure prediction by ZEFSAII (Michael W. Deem and Ramdas Pophale) SiO2 
 PCOD9277970
Probable space group: C 2/C
;
_chemical_formula_sum "Si O2"
_cell_formula_units_Z 44
_cell_length_a 7.888030
_cell_length_b 21.907779
_cell_length_c 12.630270
_cell_angle_alpha 90.000000
_cell_angle_beta 106.577365
_cell_angle_gamma 90.000000
_cell_volume 2091.906978
_symmetry_space_group_name_H-M "C 2/C"
_symmetry_group_IT_number 15
_symmetry_cell_setting 'monoclinic'
loop_
_space_group_symop_operation_xyz
x,y,z
-x,y,1/2-z
-x,-y,-z
x,-y,1/2+z
1/2+x,1/2+y,z
1/2-x,1/2+y,1/2-z
1/2-x,1/2-y,-z
1/2+x,1/2-y,1/2+z
loop_
_atom_site_type_symbol
_atom_site_label
_atom_site_fract_x
_atom_site_fract_y
_atom_site_fract_z
Si Si1 0.195940 0.849344 0.008696
Si Si2 0.757080 0.744641 0.330731
Si Si3 0.669870 0.400667 0.580305
Si Si4 0.708011 0.985933 0.532124
Si Si5 0.500000 0.458058 0.750000
Si Si6 0.329208 0.220697 0.118066
O O1 0.203652 0.809097 0.902340
O O2 0.277326 0.915798 0.002924
O O3 0.993543 0.865188 0.002866
O O4 0.281892 0.807830 0.115658
O O5 0.706488 0.737884 0.198292
O O6 0.968114 0.740692 0.350784
O O7 0.713729 0.464423 0.534440
O O8 0.599883 0.416504 0.683408
O O9 0.827786 0.352827 0.611826
O O10 0.840707 0.991608 0.657646
O O11 0.500000 0.000000 0.500000
O O12 0.250000 0.250000 0.000000
#
# Coordination Sequence:
#
# PCOD9277970 Si02
#       6
#     8   8   8   8   4   8
#     4  10  20  42  63  96 127 171 223 274 337 396
#     4  10  22  38  66  88 132 168 218 275 330 406
#     4  11  22  41  67  94 130 173 225 271 339 405
#     4  11  24  43  69  98 137 173 225 281 333 411
#     4  10  22  42  68  98 130 180 214 278 338 396
#     4  11  21  39  59  93 124 171 214 268 331 401
#
# _framework density 21.033441
#
# number of rings (size 3 to 8) (size 9 to 14) (size 15 to 20)
#    0.000    1.455    1.818    5.455    0.000    2.182 
#    6.545    0.000    8.000    0.000    0.000    0.000 
#    0.000    0.000    0.000    0.000    0.000    0.000 
#
# Total GULP energy -122687.621952 kJ/mol
# GULP energy per Si atom -5576.710089 kJ/mol
# Density = 2.098557 g / cm^3
# Si number density = 21.033441 Si / 1000 Ang^3
#
#
#
# Elastic Constant Matrix: (Units=GPa)
#
#
# Indices 1 2 3 4 5 6 
#
# 1 80.8090 42.0069 25.3189 0.0000 4.1536 0.0000
# 2 42.0069 158.4928 76.1707 0.0000 -18.4387 0.0000
# 3 25.3189 76.1707 115.1282 0.0000 -7.0753 0.0000
# 4 0.0000 0.0000 0.0000 6.5455 0.0000 13.4537
# 5 4.1536 -18.4387 -7.0753 0.0000 22.5855 0.0000
# 6 0.0000 0.0000 0.0000 13.4537 0.0000 21.1246
#
#
#
# Elastic Compliance Matrix: (Units=1/GPa)
#
#
# Indices 1 2 3 4 5 6 
#
# 1 0.015282 -0.004421 -0.000846 0.000000 -0.006685 0.000000
# 2 -0.004421 0.011324 -0.006018 0.000000 0.008173 0.000000
# 3 -0.000846 -0.006018 0.012808 0.000000 -0.000745 0.000000
# 4 0.000000 0.000000 0.000000 -0.494341 0.000000 0.314834
# 5 -0.006685 0.008173 -0.000745 0.000000 0.051945 0.000000
# 6 0.000000 0.000000 0.000000 0.314834 0.000000 -0.153172
#
#
# Mechanical properties :
#
#
# Convention : Reuss Voigt Hill
#
# Bulk Modulus (GPa) = 59.37148 71.26923 65.32035
# Shear Modulus (GPa) = -9.47024 24.11334 7.32155
#
# Velocity S-wave (km/s) = -2.12420 3.38957 1.86774
# Velocity P-wave (km/s) = 4.71934 7.01970 5.98115
#
# Compressibility (1/GPa) = 0.01684310
#
# Stress axis : x y z
#
# Youngs Moduli (GPa) = 65.43653 88.30730 78.07811
#
# Poissons Ratio (x) = 0.39043 0.06609
# Poissons Ratio (y) = 0.28931 0.46984
# Poissons Ratio (z) = 0.05539 0.53140
#
# Static dielectric constant tensor:
#      x y z
#    x 1.795810 0.000000 0.094990 
#    y 0.000000 1.743790 0.000000 
#    z 0.094990 0.000000 1.989740 
# 
# From -- ./inp_files/78136.got.cif
#   From: 2010.05.17/outbox.cif.g08.bks.cpg/sg15_40_cif.got.tgz:78136.got - 2010.06.03 18:47:42.
