data_PCOD9277834
_publ_section_title
;
Structure prediction by ZEFSAII (Michael W. Deem and Ramdas Pophale) SiO2 
 PCOD9277834
Probable space group: C 2/C
;
_chemical_formula_sum "Si O2"
_cell_formula_units_Z 56
_cell_length_a 23.268608
_cell_length_b 9.807007
_cell_length_c 14.620846
_cell_angle_alpha 90.000000
_cell_angle_beta 130.839011
_cell_angle_gamma 90.000000
_cell_volume 2524.160804
_symmetry_space_group_name_H-M "C 2/C"
_symmetry_group_IT_number 15
_symmetry_cell_setting 'monoclinic'
loop_
_space_group_symop_operation_xyz
x,y,z
-x,y,1/2-z
-x,-y,-z
x,-y,1/2+z
1/2+x,1/2+y,z
1/2-x,1/2+y,1/2-z
1/2-x,1/2-y,-z
1/2+x,1/2-y,1/2+z
loop_
_atom_site_type_symbol
_atom_site_label
_atom_site_fract_x
_atom_site_fract_y
_atom_site_fract_z
Si Si1 0.914228 0.514922 0.370240
Si Si2 0.051882 0.768325 0.219953
Si Si3 0.376957 0.709357 0.276030
Si Si4 0.515509 0.534087 0.376925
Si Si5 0.669249 0.355847 0.982786
Si Si6 0.286372 0.608038 0.563100
Si Si7 0.772701 0.407124 0.850747
O O1 0.920572 0.637433 0.304932
O O2 0.891315 0.367640 0.307317
O O3 0.845032 0.558300 0.364632
O O4 0.000000 0.500000 0.500000
O O5 0.125153 0.857481 0.326390
O O6 0.000000 0.721253 0.250000
O O7 0.998648 0.877189 0.112342
O O8 0.454531 0.626053 0.364249
O O9 0.354114 0.683354 0.145533
O O10 0.310069 0.645816 0.269574
O O11 0.500000 0.539073 0.250000
O O12 0.598624 0.595842 0.470524
O O13 0.719790 0.491183 0.020868
O O14 0.703877 0.222736 0.063332
O O15 0.250000 0.750000 0.500000
O O16 0.247518 0.540356 0.610748
#
# Coordination Sequence:
#
# PCOD9277834 Si02
#       7
#     8   8   8   8   8   8   8
#     4  12  30  44  61 100 142 183 222 278 347 402
#     4  11  23  45  70  96 130 176 231 278 332 399
#     4  10  21  42  67  91 129 177 222 270 330 402
#     4   9  16  38  66  91 117 164 222 268 316 389
#     4  10  20  41  71  98 127 173 225 274 336 405
#     4  11  23  39  71 105 127 164 225 288 333 397
#     4  11  25  43  65 101 139 172 225 280 348 412
#
# _framework density 22.185592
#
# number of rings (size 3 to 8) (size 9 to 14) (size 15 to 20)
#    0.000    1.429    5.714    2.571    8.000    1.714 
#    0.000    5.714    0.000    0.000    0.000    0.000 
#    0.000    0.000    0.000    0.000    0.000    0.000 
#
# Total GULP energy -156416.198698 kJ/mol
# GULP energy per Si atom -5586.292811 kJ/mol
# Density = 2.213510 g / cm^3
# Si number density = 22.185592 Si / 1000 Ang^3
#
#
#
# Elastic Constant Matrix: (Units=GPa)
#
#
# Indices 1 2 3 4 5 6 
#
# 1 211.4702 92.2407 42.9917 0.0000 35.3572 0.0000
# 2 92.2407 197.8855 34.2354 0.0000 7.0390 0.0000
# 3 42.9917 34.2354 32.2614 0.0000 10.8041 0.0000
# 4 0.0000 0.0000 0.0000 -40.4825 0.0000 14.1817
# 5 35.3572 7.0390 10.8041 0.0000 25.2944 0.0000
# 6 0.0000 0.0000 0.0000 14.1817 0.0000 40.4914
#
#
#
# Elastic Compliance Matrix: (Units=1/GPa)
#
#
# Indices 1 2 3 4 5 6 
#
# 1 0.008490 -0.002690 -0.005526 0.000000 -0.008758 0.000000
# 2 -0.002690 0.007077 -0.005280 0.000000 0.004046 0.000000
# 3 -0.005526 -0.005280 0.047710 0.000000 -0.011185 0.000000
# 4 0.000000 0.000000 0.000000 -0.022002 0.000000 0.007706
# 5 -0.008758 0.004046 -0.011185 0.000000 0.055429 0.000000
# 6 0.000000 0.000000 0.000000 0.007706 0.000000 0.021998
#
#
# Mechanical properties :
#
#
# Convention : Reuss Voigt Hill
#
# Bulk Modulus (GPa) = 27.56022 86.72809 57.14415
# Shear Modulus (GPa) = 31.68807 23.20395 27.44601
#
# Velocity S-wave (km/s) = 3.78341 3.23755 3.52107
# Velocity P-wave (km/s) = 5.61561 7.29058 6.50722
#
# Compressibility (1/GPa) = 0.03628419
#
# Stress axis : x y z
#
# Youngs Moduli (GPa) = 117.78681 141.30582 20.95990
#
# Poissons Ratio (x) = 0.38009 0.11583
# Poissons Ratio (y) = 0.31682 0.11068
# Poissons Ratio (z) = 0.65091 0.74615
#
# Static dielectric constant tensor:
#      x y z
#    x 1.852740 0.000000 0.026020 
#    y 0.000000 1.784990 0.000000 
#    z 0.026020 0.000000 1.941620 
# 
# From -- ./inp_files/218656.got.cif
#   From: 2010.05.17/outbox.cif.g08.bks.cpg/sg15_110_cif.got.tgz:218656.got - 2010.06.03 18:47:42.
