data_PCOD9277545
_publ_section_title
;
Structure prediction by ZEFSAII (Michael W. Deem and Ramdas Pophale) SiO2 
 PCOD9277545
Probable space group: C 2/C
;
_chemical_formula_sum "Si O2"
_cell_formula_units_Z 48
_cell_length_a 22.107328
_cell_length_b 6.524924
_cell_length_c 16.332333
_cell_angle_alpha 90.000000
_cell_angle_beta 111.878081
_cell_angle_gamma 90.000000
_cell_volume 2186.240970
_symmetry_space_group_name_H-M "C 2/C"
_symmetry_group_IT_number 15
_symmetry_cell_setting 'monoclinic'
loop_
_space_group_symop_operation_xyz
x,y,z
-x,y,1/2-z
-x,-y,-z
x,-y,1/2+z
1/2+x,1/2+y,z
1/2-x,1/2+y,1/2-z
1/2-x,1/2-y,-z
1/2+x,1/2-y,1/2+z
loop_
_atom_site_type_symbol
_atom_site_label
_atom_site_fract_x
_atom_site_fract_y
_atom_site_fract_z
Si Si1 0.281896 0.817875 0.099797
Si Si2 0.658792 0.396174 0.151281
Si Si3 0.040324 0.187022 0.480782
Si Si4 0.090593 0.947162 0.828795
Si Si5 0.365025 0.845581 0.703423
Si Si6 0.579448 0.779196 0.164941
O O1 0.225167 0.856872 0.136735
O O2 0.336216 0.646377 0.146364
O O3 0.319805 0.033970 0.117407
O O4 0.250000 0.750000 0.000000
O O5 0.667790 0.299463 0.245292
O O6 0.633283 0.632909 0.147418
O O7 0.600205 0.279538 0.072856
O O8 0.980703 0.334252 0.424376
O O9 0.071514 0.127753 0.408986
O O10 0.000000 0.000000 0.500000
O O11 0.088653 0.192367 0.822334
O O12 0.055927 0.865738 0.728712
O O13 0.396003 0.022293 0.775129
#
# Coordination Sequence:
#
# PCOD9277545 Si02
#       6
#     8   8   8   8   8   8
#     4  11  23  41  63  93 132 170 213 266 325 395
#     4  10  22  40  64  94 129 170 216 266 329 386
#     4  10  20  41  65  88 129 168 215 271 321 387
#     4  10  21  42  63  94 129 169 218 267 327 382
#     4  10  24  40  67  97 126 172 215 266 326 384
#     4   9  21  41  64  93 126 173 215 265 323 390
#
# _framework density 21.955494999999999
#
# number of rings (size 3 to 8) (size 9 to 14) (size 15 to 20)
#    0.000    2.000    1.667    0.500    7.000    1.333 
#    6.000   20.000    0.000    0.000    0.000    0.000 
#    0.000    0.000    0.000    0.000    0.000    0.000 
#
# Total GULP energy -133726.396968 kJ/mol
# GULP energy per Si atom -5571.933207 kJ/mol
# Density = 2.190552 g / cm^3
# Si number density = 21.955495 Si / 1000 Ang^3
#
#
#
# Elastic Constant Matrix: (Units=GPa)
#
#
# Indices 1 2 3 4 5 6 
#
# 1 74.7427 17.3395 3.4504 0.0000 -6.7791 0.0000
# 2 17.3395 84.6334 15.8474 0.0000 4.0009 0.0000
# 3 3.4504 15.8474 94.7222 0.0000 5.3651 0.0000
# 4 0.0000 0.0000 0.0000 35.3471 0.0000 2.4605
# 5 -6.7791 4.0009 5.3651 0.0000 34.3256 0.0000
# 6 0.0000 0.0000 0.0000 2.4605 0.0000 -0.9503
#
#
#
# Elastic Compliance Matrix: (Units=1/GPa)
#
#
# Indices 1 2 3 4 5 6 
#
# 1 0.014392 -0.003065 -0.000194 0.000000 0.003230 0.000000
# 2 -0.003065 0.012893 -0.001943 0.000000 -0.001804 0.000000
# 3 -0.000194 -0.001943 0.010976 0.000000 -0.001527 0.000000
# 4 0.000000 0.000000 0.000000 0.023970 0.000000 0.062066
# 5 0.003230 -0.001804 -0.001527 0.000000 0.030220 0.000000
# 6 0.000000 0.000000 0.000000 0.062066 0.000000 -0.891631
#
#
# Mechanical properties :
#
#
# Convention : Reuss Voigt Hill
#
# Bulk Modulus (GPa) = 35.89919 36.37477 36.13698
# Shear Modulus (GPa) = -6.41445 28.24189 10.91372
#
# Velocity S-wave (km/s) = -1.71111 3.59043 2.23196
# Velocity P-wave (km/s) = 3.53306 5.81306 4.81010
#
# Compressibility (1/GPa) = 0.02785578
#
# Stress axis : x y z
#
# Youngs Moduli (GPa) = 69.48208 77.56295 91.10877
#
# Poissons Ratio (x) = 0.23772 0.01772
# Poissons Ratio (y) = 0.21296 0.17704
# Poissons Ratio (z) = 0.01351 0.15072
#
# Static dielectric constant tensor:
#      x y z
#    x 1.877310 0.000000 0.054340 
#    y 0.000000 1.914700 0.000000 
#    z 0.054340 0.000000 1.847590 
# 
# From -- ./inp_files/217813.got.cif
#   From: 2010.05.17/outbox.cif.g08.bks.cpg/sg15_109_cif.got.tgz:217813.got - 2010.06.03 18:47:42.
