data_PCOD9277663
_publ_section_title
;
Structure prediction by ZEFSAII (Michael W. Deem and Ramdas Pophale) SiO2 
 PCOD9277663
Probable space group: C 2/C
;
_chemical_formula_sum "Si O2"
_cell_formula_units_Z 40
_cell_length_a 9.699806
_cell_length_b 31.916044
_cell_length_c 5.522526
_cell_angle_alpha 90.000000
_cell_angle_beta 78.533178
_cell_angle_gamma 90.000000
_cell_volume 1675.535635
_symmetry_space_group_name_H-M "C 2/C"
_symmetry_group_IT_number 15
_symmetry_cell_setting 'monoclinic'
loop_
_space_group_symop_operation_xyz
x,y,z
-x,y,1/2-z
-x,-y,-z
x,-y,1/2+z
1/2+x,1/2+y,z
1/2-x,1/2+y,1/2-z
1/2-x,1/2-y,-z
1/2+x,1/2-y,1/2+z
loop_
_atom_site_type_symbol
_atom_site_label
_atom_site_fract_x
_atom_site_fract_y
_atom_site_fract_z
Si Si1 0.000000 0.026970 0.750000
Si Si2 0.000585 0.857632 0.501442
Si Si3 0.318326 0.831600 0.425431
Si Si4 0.723779 0.201598 0.060011
Si Si5 0.500000 0.092599 0.750000
Si Si6 0.813006 0.473659 0.086544
O O1 0.157231 0.045309 0.675543
O O2 0.000000 0.000000 0.500000
O O3 0.148503 0.833629 0.465635
O O4 0.000000 0.881351 0.250000
O O5 0.869386 0.825496 0.531900
O O6 0.000000 0.883528 0.750000
O O7 0.348074 0.805250 0.655191
O O8 0.384835 0.877573 0.416521
O O9 0.359571 0.814910 0.145892
O O10 0.750000 0.250000 0.000000
O O11 0.575796 0.063174 0.916806
O O12 0.828577 0.504037 0.319237
#
# Coordination Sequence:
#
# PCOD9277663 Si02
#       6
#     4   8   8   8   4   8
#     4   8  16  36  64  96 130 161 226 277 310 386
#     4   8  16  35  59  80 112 151 208 261 313 386
#     4  10  23  40  57  93 130 165 209 271 341 398
#     4  10  20  41  67  88 117 167 226 280 330 401
#     4  12  26  44  64 102 148 177 218 285 342 414
#     4  10  22  42  71 100 134 184 230 270 331 406
#
# _framework density 23.872964
#
# number of rings (size 3 to 8) (size 9 to 14) (size 15 to 20)
#    0.000    2.400    0.000    1.200    0.000    4.000 
#   21.600    0.000   22.000    0.000    0.000    0.000 
#    0.000    0.000    0.000    0.000    0.000    0.000 
#
# Total GULP energy -111567.155478 kJ/mol
# GULP energy per Si atom -5578.357774 kJ/mol
# Density = 2.381863 g / cm^3
# Si number density = 23.872964 Si / 1000 Ang^3
#
#
#
# Elastic Constant Matrix: (Units=GPa)
#
#
# Indices 1 2 3 4 5 6 
#
# 1 112.9573 38.8846 39.7119 0.0000 3.8531 0.0000
# 2 38.8846 95.3998 39.8943 0.0000 18.2789 0.0000
# 3 39.7119 39.8943 224.5484 0.0000 37.2596 0.0000
# 4 0.0000 0.0000 0.0000 -264.7731 0.0000 10.9513
# 5 3.8531 18.2789 37.2596 0.0000 39.1548 0.0000
# 6 0.0000 0.0000 0.0000 10.9513 0.0000 27.1783
#
#
#
# Elastic Compliance Matrix: (Units=1/GPa)
#
#
# Indices 1 2 3 4 5 6 
#
# 1 0.010761 -0.004192 -0.001552 0.000000 0.002375 0.000000
# 2 -0.004192 0.013511 -0.000809 0.000000 -0.005125 0.000000
# 3 -0.001552 -0.000809 0.005681 0.000000 -0.004875 0.000000
# 4 0.000000 0.000000 0.000000 -0.003715 0.000000 0.001497
# 5 0.002375 -0.005125 -0.004875 0.000000 0.032338 0.000000
# 6 0.000000 0.000000 0.000000 0.001497 0.000000 0.036191
#
#
# Mechanical properties :
#
#
# Convention : Reuss Voigt Hill
#
# Bulk Modulus (GPa) = 59.36016 74.43192 66.89604
# Shear Modulus (GPa) = 44.05762 -18.72702 12.66530
#
# Velocity S-wave (km/s) = 4.30059 -2.80383 2.30582
# Velocity P-wave (km/s) = 7.04124 4.55676 5.93056
#
# Compressibility (1/GPa) = 0.01684632
#
# Stress axis : x y z
#
# Youngs Moduli (GPa) = 92.93069 74.01372 176.03877
#
# Poissons Ratio (x) = 0.31026 0.27329
# Poissons Ratio (y) = 0.38956 0.14235
# Poissons Ratio (z) = 0.14427 0.05985
#
# Static dielectric constant tensor:
#      x y z
#    x 1.978770 0.000000 -0.019290 
#    y 0.000000 1.938640 0.000000 
#    z -0.019290 0.000000 1.965490 
# 
# From -- ./inp_files/5530.got.cif
#   From: 2010.05.17/outbox.cif.g08.bks.cpg/sg15_3_cif.got.tgz:5530.got - 2010.06.03 18:47:42.
