data_PCOD9277538
_publ_section_title
;
Structure prediction by ZEFSAII (Michael W. Deem and Ramdas Pophale) SiO2 
 PCOD9277538
Probable space group: C 2/C
;
_chemical_formula_sum "Si O2"
_cell_formula_units_Z 40
_cell_length_a 16.337647
_cell_length_b 9.429356
_cell_length_c 26.642053
_cell_angle_alpha 90.000000
_cell_angle_beta 153.639908
_cell_angle_gamma 90.000000
_cell_volume 1822.355656
_symmetry_space_group_name_H-M "C 2/C"
_symmetry_group_IT_number 15
_symmetry_cell_setting 'monoclinic'
loop_
_space_group_symop_operation_xyz
x,y,z
-x,y,1/2-z
-x,-y,-z
x,-y,1/2+z
1/2+x,1/2+y,z
1/2-x,1/2+y,1/2-z
1/2-x,1/2-y,-z
1/2+x,1/2-y,1/2+z
loop_
_atom_site_type_symbol
_atom_site_label
_atom_site_fract_x
_atom_site_fract_y
_atom_site_fract_z
Si Si1 0.445311 0.582487 0.099308
Si Si2 0.434113 0.674118 0.658676
Si Si3 0.642505 0.566025 0.617879
Si Si4 0.476896 0.087578 0.638695
Si Si5 0.997192 0.322976 0.592154
O O1 0.459528 0.490886 0.157827
O O2 0.586496 0.518230 0.137444
O O3 0.478365 0.747293 0.125722
O O4 0.235708 0.556539 0.964052
O O5 0.500000 0.707692 0.750000
O O6 0.530467 0.758779 0.666204
O O7 0.217289 0.705603 0.536695
O O8 0.500000 0.500000 0.500000
O O9 0.862760 0.555057 0.733063
O O10 0.604577 0.731975 0.610015
O O11 0.518121 0.990418 0.612207
#
# Coordination Sequence:
#
# PCOD9277538 Si02
#       5
#     8   8   8   8   8
#     4   9  21  42  61  90 119 161 206 248 316 361
#     4   9  18  36  62  85 118 154 199 255 300 365
#     4  11  23  38  59  92 125 162 204 250 309 370
#     4  10  20  41  65  81 125 161 198 267 298 359
#     4   9  20  37  57  89 116 158 207 240 305 363
#
# _framework density 21.949612999999999
#
# number of rings (size 3 to 8) (size 9 to 14) (size 15 to 20)
#    0.000    2.400    0.000    2.400    2.800    0.800 
#   10.800    1.000    0.000    0.000    0.000    0.000 
#    0.000    0.000    0.000    0.000    0.000    0.000 
#
# Total GULP energy -111573.408828 kJ/mol
# GULP energy per Si atom -5578.670441 kJ/mol
# Density = 2.189965 g / cm^3
# Si number density = 21.949613 Si / 1000 Ang^3
#
#
#
# Elastic Constant Matrix: (Units=GPa)
#
#
# Indices 1 2 3 4 5 6 
#
# 1 45.8779 6.0758 37.0726 0.0000 -14.3863 0.0000
# 2 6.0758 124.0628 15.5006 0.0003 -1.5430 0.0000
# 3 37.0726 15.5006 147.3404 0.0023 -4.6171 -0.0003
# 4 0.0000 0.0003 0.0023 19.6370 -0.0003 6.3601
# 5 -14.3863 -1.5430 -4.6171 -0.0003 36.5750 0.0000
# 6 0.0000 0.0000 -0.0003 6.3601 0.0000 6.9149
#
#
#
# Elastic Compliance Matrix: (Units=1/GPa)
#
#
# Indices 1 2 3 4 5 6 
#
# 1 0.031523 -0.000461 -0.007525 0.000002 0.011430 -0.000002
# 2 -0.000461 0.008177 -0.000742 0.000000 0.000070 0.000000
# 3 -0.007525 -0.000742 0.008699 -0.000002 -0.001893 0.000002
# 4 0.000002 0.000000 -0.000002 0.072531 0.000001 -0.066712
# 5 0.011430 0.000070 -0.001893 0.000001 0.031601 -0.000001
# 6 -0.000002 0.000000 0.000002 -0.066712 -0.000001 0.205975
#
#
# Mechanical properties :
#
#
# Convention : Reuss Voigt Hill
#
# Bulk Modulus (GPa) = 32.31839 48.28657 40.30248
# Shear Modulus (GPa) = 12.94410 29.86750 21.40580
#
# Velocity S-wave (km/s) = 2.43105 3.69281 3.12625
# Velocity P-wave (km/s) = 4.75772 6.34264 5.60646
#
# Compressibility (1/GPa) = 0.03094214
#
# Stress axis : x y z
#
# Youngs Moduli (GPa) = 31.72308 122.30028 114.95490
#
# Poissons Ratio (x) = 0.05644 0.86501
# Poissons Ratio (y) = 0.01464 0.08529
# Poissons Ratio (z) = 0.23871 0.09074
#
# Static dielectric constant tensor:
#      x y z
#    x 1.773820 0.000000 0.021710 
#    y 0.000000 1.856350 0.000000 
#    z 0.021710 0.000000 1.839770 
# 
# From -- ./inp_files/104741.got.cif
#   From: 2010.05.17/outbox.cif.g08.bks.cpg/sg15_53_cif.got.tgz:104741.got - 2010.06.03 18:47:42.
