data_PCOD9277485
_publ_section_title
;
Structure prediction by ZEFSAII (Michael W. Deem and Ramdas Pophale) SiO2 
 PCOD9277485
Probable space group: C 2/C
;
_chemical_formula_sum "Si O2"
_cell_formula_units_Z 48
_cell_length_a 22.248792
_cell_length_b 18.160791
_cell_length_c 9.923577
_cell_angle_alpha 90.000000
_cell_angle_beta 139.944405
_cell_angle_gamma 90.000000
_cell_volume 2580.350196
_symmetry_space_group_name_H-M "C 2/C"
_symmetry_group_IT_number 15
_symmetry_cell_setting 'monoclinic'
loop_
_space_group_symop_operation_xyz
x,y,z
-x,y,1/2-z
-x,-y,-z
x,-y,1/2+z
1/2+x,1/2+y,z
1/2-x,1/2+y,1/2-z
1/2-x,1/2-y,-z
1/2+x,1/2-y,1/2+z
loop_
_atom_site_type_symbol
_atom_site_label
_atom_site_fract_x
_atom_site_fract_y
_atom_site_fract_z
Si Si1 0.882646 0.058907 0.671983
Si Si2 0.220735 0.321341 0.869823
Si Si3 0.048430 0.403193 0.699482
Si Si4 0.745794 0.816502 0.599692
Si Si5 0.421591 0.069510 0.728534
Si Si6 0.411475 0.422850 0.911961
O O1 0.795436 0.113696 0.528612
O O2 0.893871 0.045187 0.531543
O O3 0.879319 0.982903 0.747741
O O4 0.978106 0.093961 0.896290
O O5 0.122392 0.351130 0.754626
O O6 0.220796 0.299705 0.712353
O O7 0.250000 0.250000 0.000000
O O8 0.095931 0.481943 0.819324
O O9 0.000000 0.372062 0.750000
O O10 0.968361 0.420490 0.454000
O O11 0.750000 0.750000 0.500000
O O12 0.669499 0.879671 0.433794
O O13 0.848361 0.852076 0.781869
O O14 0.500000 0.089212 0.750000
#
# Coordination Sequence:
#
# PCOD9277485 Si02
#       6
#     8   8   8   8   8   8
#     4   9  19  38  62  84 115 148 196 246 289 342
#     4  11  24  40  55  89 124 158 200 244 296 360
#     4  10  22  39  66  92 115 155 203 255 306 355
#     4  11  24  39  58  86 125 163 197 240 299 358
#     4  10  20  41  64  88 119 155 203 255 301 352
#     4   9  19  38  61  87 112 151 195 243 291 343
#
# _framework density 18.602125999999998
#
# number of rings (size 3 to 8) (size 9 to 14) (size 15 to 20)
#    0.000    2.000    1.667    1.000    2.333    2.667 
#    3.000    0.000    0.000    0.000    0.000    0.000 
#    0.000    0.000    0.000    0.000    0.000    0.000 
#
# Total GULP energy -133827.065072 kJ/mol
# GULP energy per Si atom -5576.127711 kJ/mol
# Density = 1.855979 g / cm^3
# Si number density = 18.602126 Si / 1000 Ang^3
#
#
#
# Elastic Constant Matrix: (Units=GPa)
#
#
# Indices 1 2 3 4 5 6 
#
# 1 105.5008 38.1734 38.1352 0.0000 -12.2799 0.0000
# 2 38.1734 50.0230 32.3722 0.0000 -11.5778 0.0000
# 3 38.1352 32.3722 72.7358 0.0000 -23.1155 0.0000
# 4 0.0000 0.0000 0.0000 25.5029 0.0000 -12.7185
# 5 -12.2799 -11.5778 -23.1155 0.0000 25.4061 0.0000
# 6 0.0000 0.0000 0.0000 -12.7185 0.0000 21.6128
#
#
#
# Elastic Compliance Matrix: (Units=1/GPa)
#
#
# Indices 1 2 3 4 5 6 
#
# 1 0.013724 -0.008186 -0.003699 0.000000 -0.000463 0.000000
# 2 -0.008186 0.033034 -0.009683 0.000000 0.002287 0.000000
# 3 -0.003699 -0.009683 0.025360 0.000000 0.016873 0.000000
# 4 0.000000 0.000000 0.000000 0.055499 0.000000 0.032659
# 5 -0.000463 0.002287 0.016873 0.000000 0.055530 0.000000
# 6 0.000000 0.000000 0.000000 0.032659 0.000000 0.065488
#
#
# Mechanical properties :
#
#
# Convention : Reuss Voigt Hill
#
# Bulk Modulus (GPa) = 34.50677 49.51346 42.01012
# Shear Modulus (GPa) = 16.58751 22.47626 19.53189
#
# Velocity S-wave (km/s) = 2.98937 3.47978 3.24386
# Velocity P-wave (km/s) = 5.52316 6.54370 6.05497
#
# Compressibility (1/GPa) = 0.02897982
#
# Stress axis : x y z
#
# Youngs Moduli (GPa) = 72.86593 30.27218 39.43258
#
# Poissons Ratio (x) = 0.24781 0.14586
# Poissons Ratio (y) = 0.59649 0.38184
# Poissons Ratio (z) = 0.26954 0.29314
#
# Static dielectric constant tensor:
#      x y z
#    x 1.594730 0.000000 0.015860 
#    y 0.000000 1.618110 0.000000 
#    z 0.015860 0.000000 1.629140 
# 
# From -- ./inp_files/57960.got.cif
#   From: 2010.05.17/outbox.cif.g08.bks.cpg/sg15_29_cif.got.tgz:57960.got - 2010.06.03 18:47:42.
