data_PCOD9277652
_publ_section_title
;
Structure prediction by ZEFSAII (Michael W. Deem and Ramdas Pophale) SiO2 
 PCOD9277652
Probable space group: C 2/C
;
_chemical_formula_sum "Si O2"
_cell_formula_units_Z 60
_cell_length_a 10.338383
_cell_length_b 17.519737
_cell_length_c 13.582564
_cell_angle_alpha 90.000000
_cell_angle_beta 107.213861
_cell_angle_gamma 90.000000
_cell_volume 2349.954013
_symmetry_space_group_name_H-M "C 2/C"
_symmetry_group_IT_number 15
_symmetry_cell_setting 'monoclinic'
loop_
_space_group_symop_operation_xyz
x,y,z
-x,y,1/2-z
-x,-y,-z
x,-y,1/2+z
1/2+x,1/2+y,z
1/2-x,1/2+y,1/2-z
1/2-x,1/2-y,-z
1/2+x,1/2-y,1/2+z
loop_
_atom_site_type_symbol
_atom_site_label
_atom_site_fract_x
_atom_site_fract_y
_atom_site_fract_z
Si Si1 0.845725 0.857853 0.445669
Si Si2 0.826706 0.919498 0.646138
Si Si3 0.222964 0.890764 0.659473
Si Si4 0.500000 0.018503 0.250000
Si Si5 0.073461 0.688167 0.073073
Si Si6 0.391855 0.414280 0.086206
Si Si7 0.531657 0.874242 0.360550
Si Si8 0.174681 0.245764 0.878250
O O1 0.887421 0.871514 0.568652
O O2 0.849624 0.767649 0.427741
O O3 0.693373 0.885810 0.399552
O O4 0.948189 0.902808 0.398034
O O5 0.867668 0.916551 0.769446
O O6 0.674886 0.881333 0.616387
O O7 0.841948 0.006233 0.615852
O O8 0.167165 0.904633 0.537664
O O9 0.245361 0.799598 0.677110
O O10 0.366762 0.934283 0.695682
O O11 0.468583 0.958109 0.331207
O O12 0.966767 0.711375 0.131762
O O13 0.996178 0.666477 0.953991
O O14 0.347767 0.343109 0.144676
O O15 0.500000 0.832478 0.250000
O O16 0.250000 0.250000 0.000000
#
# Coordination Sequence:
#
# PCOD9277652 Si02
#       8
#     8   8   8   4   8   8   8   8
#     4  10  21  44  65  99 148 197 240 305 375 438
#     4  11  22  38  70 100 136 189 235 302 359 429
#     4  11  22  41  65 103 136 182 244 288 359 446
#     4  10  22  36  60  98 138 168 234 308 354 428
#     4  10  20  41  66  97 144 196 244 306 374 432
#     4  10  23  44  69  99 144 189 233 305 371 440
#     4   9  20  38  64 100 138 180 241 299 366 439
#     4   9  21  42  64  93 140 182 236 293 363 431
#
# _framework density 25.532415
#
# number of rings (size 3 to 8) (size 9 to 14) (size 15 to 20)
#    0.400    1.600    0.000    4.400    0.000    2.667 
#   14.400    9.333    0.000    4.800    0.000    0.000 
#    0.000    0.000    0.000    0.000    0.000    0.000 
#
# Total GULP energy -167862.973029 kJ/mol
# GULP energy per Si atom -5595.432434 kJ/mol
# Density = 2.547430 g / cm^3
# Si number density = 25.532415 Si / 1000 Ang^3
#
#
#
# Elastic Constant Matrix: (Units=GPa)
#
#
# Indices 1 2 3 4 5 6 
#
# 1 77.1466 47.4030 18.9172 0.0000 3.6988 0.0000
# 2 47.4030 175.4970 52.2273 0.0000 -26.4245 0.0000
# 3 18.9172 52.2273 126.1838 0.0000 0.1031 0.0000
# 4 0.0000 0.0000 0.0000 37.3754 0.0000 -0.6784
# 5 3.6988 -26.4245 0.1031 0.0000 38.1244 0.0000
# 6 0.0000 0.0000 0.0000 -0.6784 0.0000 32.7169
#
#
#
# Elastic Compliance Matrix: (Units=1/GPa)
#
#
# Indices 1 2 3 4 5 6 
#
# 1 0.016432 -0.005109 -0.000345 0.000000 -0.005134 0.000000
# 2 -0.005109 0.008968 -0.002951 0.000000 0.006720 0.000000
# 3 -0.000345 -0.002951 0.009200 0.000000 -0.002037 0.000000
# 4 0.000000 0.000000 0.000000 0.026766 0.000000 0.000555
# 5 -0.005134 0.006720 -0.002037 0.000000 0.031391 0.000000
# 6 0.000000 0.000000 0.000000 0.000555 0.000000 0.030577
#
#
# Mechanical properties :
#
#
# Convention : Reuss Voigt Hill
#
# Bulk Modulus (GPa) = 56.21122 68.43582 62.32352
# Shear Modulus (GPa) = 34.22919 38.99532 36.61226
#
# Velocity S-wave (km/s) = 3.66542 3.91229 3.79086
# Velocity P-wave (km/s) = 6.32275 6.87530 6.60480
#
# Compressibility (1/GPa) = 0.01779004
#
# Stress axis : x y z
#
# Youngs Moduli (GPa) = 60.85593 111.50505 108.69675
#
# Poissons Ratio (x) = 0.56968 0.03747
# Poissons Ratio (y) = 0.31091 0.32082
# Poissons Ratio (z) = 0.02098 0.32911
#
# Static dielectric constant tensor:
#      x y z
#    x 2.085380 0.000000 0.026020 
#    y 0.000000 1.971160 0.000000 
#    z 0.026020 0.000000 2.066600 
# 
# From -- ./inp_files/145697.got.cif
#   From: 2010.05.17/outbox.cif.g08.bks.cpg/sg15_73_cif.got.tgz:145697.got - 2010.06.03 18:47:42.
