data_PCOD9277024
_publ_section_title
;
Structure prediction by ZEFSAII (Michael W. Deem and Ramdas Pophale) SiO2 
 PCOD9277024
Probable space group: C 2/C
;
_chemical_formula_sum "Si O2"
_cell_formula_units_Z 64
_cell_length_a 18.845840
_cell_length_b 14.386162
_cell_length_c 18.049726
_cell_angle_alpha 90.000000
_cell_angle_beta 139.981700
_cell_angle_gamma 90.000000
_cell_volume 3146.761391
_symmetry_space_group_name_H-M "C 2/C"
_symmetry_group_IT_number 15
_symmetry_cell_setting 'monoclinic'
loop_
_space_group_symop_operation_xyz
x,y,z
-x,y,1/2-z
-x,-y,-z
x,-y,1/2+z
1/2+x,1/2+y,z
1/2-x,1/2+y,1/2-z
1/2-x,1/2-y,-z
1/2+x,1/2-y,1/2+z
loop_
_atom_site_type_symbol
_atom_site_label
_atom_site_fract_x
_atom_site_fract_y
_atom_site_fract_z
Si Si1 0.559811 0.601660 0.917926
Si Si2 0.335328 0.597057 0.662957
Si Si3 0.692063 0.220272 0.772196
Si Si4 0.009570 0.397270 0.347949
Si Si5 0.729167 0.271389 0.633545
Si Si6 0.235676 0.110564 0.413585
Si Si7 0.599037 0.073032 0.273457
Si Si8 0.302993 0.433690 0.457201
O O1 0.431469 0.614404 0.799908
O O2 0.614873 0.605925 0.879811
O O3 0.620764 0.675748 0.017865
O O4 0.593069 0.499552 0.974470
O O5 0.244897 0.676015 0.601415
O O6 0.293507 0.492316 0.637973
O O7 0.570748 0.176540 0.679762
O O8 0.722254 0.248364 0.713971
O O9 0.696439 0.309216 0.828536
O O10 0.770734 0.139792 0.869107
O O11 0.133620 0.382910 0.471094
O O12 0.000000 0.389697 0.250000
O O13 0.964163 0.500717 0.330811
O O14 0.834399 0.338742 0.702603
O O15 0.183236 0.118150 0.453677
O O16 0.500000 0.101051 0.250000
O O17 0.698323 0.005702 0.383847
#
# Coordination Sequence:
#
# PCOD9277024 Si02
#       8
#     8   8   8   8   8   8   8   8
#     4   9  21  42  64  90 123 166 213 267 318 371
#     4  10  23  40  63  96 122 162 222 260 317 382
#     4  11  24  38  59  98 130 167 207 258 333 392
#     4  10  20  40  67  92 119 166 219 265 321 368
#     4  11  24  39  61  93 135 169 203 261 330 391
#     4  11  21  39  64  95 122 163 222 272 307 376
#     4   9  17  35  65  91 114 169 220 260 316 366
#     4   9  18  38  64  89 124 162 219 273 309 364
#
# _framework density 20.338370000000001
#
# number of rings (size 3 to 8) (size 9 to 14) (size 15 to 20)
#    0.000    2.000    3.750    0.750    1.750    6.000 
#    2.250    2.500    0.000    0.000    0.000    0.000 
#    0.000    0.000    0.000    0.000    0.000    0.000 
#
# Total GULP energy -178681.321729 kJ/mol
# GULP energy per Si atom -5583.791304 kJ/mol
# Density = 2.029208 g / cm^3
# Si number density = 20.338370 Si / 1000 Ang^3
#
#
#
# Elastic Constant Matrix: (Units=GPa)
#
#
# Indices 1 2 3 4 5 6 
#
# 1 56.5982 44.1393 27.3115 0.0000 -8.0412 0.0000
# 2 44.1393 110.9555 51.3097 0.0000 -12.0950 0.0000
# 3 27.3115 51.3097 74.4070 0.0000 -4.6844 0.0000
# 4 0.0000 0.0000 0.0000 36.5834 0.0000 -31.6920
# 5 -8.0412 -12.0950 -4.6844 0.0000 17.7545 0.0000
# 6 0.0000 0.0000 0.0000 -31.6920 0.0000 108.0708
#
#
#
# Elastic Compliance Matrix: (Units=1/GPa)
#
#
# Indices 1 2 3 4 5 6 
#
# 1 0.026727 -0.008309 -0.003737 0.000000 0.005459 0.000000
# 2 -0.008309 0.016654 -0.008091 0.000000 0.005447 0.000000
# 3 -0.003737 -0.008091 0.020274 0.000000 -0.001855 0.000000
# 4 0.000000 0.000000 0.000000 0.036644 0.000000 0.010746
# 5 0.005459 0.005447 -0.001855 0.000000 0.062017 0.000000
# 6 0.000000 0.000000 0.000000 0.010746 0.000000 0.012404
#
#
# Mechanical properties :
#
#
# Convention : Reuss Voigt Hill
#
# Bulk Modulus (GPa) = 42.77107 54.16466 48.46786
# Shear Modulus (GPa) = 22.44285 40.42841 31.43563
#
# Velocity S-wave (km/s) = 3.32546 4.46330 3.93572
# Velocity P-wave (km/s) = 5.98501 7.29733 6.67350
#
# Compressibility (1/GPa) = 0.02338029
#
# Stress axis : x y z
#
# Youngs Moduli (GPa) = 37.41482 60.04733 49.32468
#
# Poissons Ratio (x) = 0.49896 0.18431
# Poissons Ratio (y) = 0.31090 0.39909
# Poissons Ratio (z) = 0.13981 0.48585
#
# Static dielectric constant tensor:
#      x y z
#    x 1.725380 0.000000 0.019150 
#    y 0.000000 1.734460 0.000000 
#    z 0.019150 0.000000 1.730650 
# 
# From -- ./inp_files/211425.got.cif
#   From: 2010.05.17/outbox.cif.g08.bks.cpg/sg15_106_cif.got.tgz:211425.got - 2010.06.03 18:47:42.
