data_PCOD9277449
_publ_section_title
;
Structure prediction by ZEFSAII (Michael W. Deem and Ramdas Pophale) SiO2 
 PCOD9277449
Probable space group: C 2/C
;
_chemical_formula_sum "Si O2"
_cell_formula_units_Z 60
_cell_length_a 26.662145
_cell_length_b 11.603771
_cell_length_c 7.743095
_cell_angle_alpha 90.000000
_cell_angle_beta 98.411815
_cell_angle_gamma 90.000000
_cell_volume 2369.798676
_symmetry_space_group_name_H-M "C 2/C"
_symmetry_group_IT_number 15
_symmetry_cell_setting 'monoclinic'
loop_
_space_group_symop_operation_xyz
x,y,z
-x,y,1/2-z
-x,-y,-z
x,-y,1/2+z
1/2+x,1/2+y,z
1/2-x,1/2+y,1/2-z
1/2-x,1/2-y,-z
1/2+x,1/2-y,1/2+z
loop_
_atom_site_type_symbol
_atom_site_label
_atom_site_fract_x
_atom_site_fract_y
_atom_site_fract_z
Si Si1 0.673046 0.735039 0.546708
Si Si2 0.230031 0.860430 0.781444
Si Si3 0.957895 0.635046 0.878365
Si Si4 0.087658 0.865363 0.160847
Si Si5 0.648416 0.071350 0.788424
Si Si6 0.558922 0.616078 0.253980
Si Si7 0.500000 0.800435 0.750000
Si Si8 0.220930 0.412668 0.026788
O O1 0.728346 0.765829 0.643365
O O2 0.680996 0.659902 0.376299
O O3 0.644346 0.680443 0.693513
O O4 0.646825 0.849993 0.459382
O O5 0.235648 0.860974 0.576972
O O6 0.250949 0.981237 0.865929
O O7 0.907880 0.559931 0.815982
O O8 0.938661 0.769376 0.859677
O O9 0.000000 0.626179 0.750000
O O10 0.984468 0.624212 0.076836
O O11 0.046948 0.784596 0.232119
O O12 0.083812 0.999299 0.201391
O O13 0.077083 0.851756 0.952333
O O14 0.685324 0.132922 0.665362
O O15 0.677700 0.958295 0.869554
O O16 0.500000 0.585145 0.250000
#
# Coordination Sequence:
#
# PCOD9277449 Si02
#       8
#     8   8   8   8   8   8   4   8
#     4  10  21  37  60  88 125 151 201 257 298 358
#     4   9  20  39  59  87 117 158 196 253 305 357
#     4  11  22  40  61  88 127 162 206 258 300 370
#     4  12  22  35  56  86 120 167 204 244 296 367
#     4  10  20  41  63  90 115 157 204 249 310 369
#     4  11  20  37  53  81 124 165 199 244 294 357
#     4  12  22  36  62  88 122 170 208 248 306 360
#     4   9  20  39  66  83 114 158 201 246 313 373
#
# _framework density 25.318607
#
# number of rings (size 3 to 8) (size 9 to 14) (size 15 to 20)
#    0.000    1.600    4.667    1.200    1.867    1.600 
#    2.400    0.667    0.000    0.000    0.000    0.000 
#    0.000    0.000    0.000    0.000    0.000    0.000 
#
# Total GULP energy -167712.309148 kJ/mol
# GULP energy per Si atom -5590.410305 kJ/mol
# Density = 2.526098 g / cm^3
# Si number density = 25.318607 Si / 1000 Ang^3
#
#
#
# Elastic Constant Matrix: (Units=GPa)
#
#
# Indices 1 2 3 4 5 6 
#
# 1 77.0703 10.7519 19.0940 0.0000 -24.5129 0.0000
# 2 10.7519 45.1698 16.1076 0.0000 -17.8978 0.0000
# 3 19.0940 16.1076 125.5102 0.0000 -2.4223 0.0000
# 4 0.0000 0.0000 0.0000 39.7036 0.0000 -9.8267
# 5 -24.5129 -17.8978 -2.4223 0.0000 49.5197 0.0000
# 6 0.0000 0.0000 0.0000 -9.8267 0.0000 32.4392
#
#
#
# Elastic Compliance Matrix: (Units=1/GPa)
#
#
# Indices 1 2 3 4 5 6 
#
# 1 0.016031 0.000123 -0.002303 0.000000 0.007867 0.000000
# 2 0.000123 0.027137 -0.003314 0.000000 0.009707 0.000000
# 3 -0.002303 -0.003314 0.008706 0.000000 -0.001912 0.000000
# 4 0.000000 0.000000 0.000000 0.027228 0.000000 0.008248
# 5 0.007867 0.009707 -0.001912 0.000000 0.027503 0.000000
# 6 0.000000 0.000000 0.000000 0.008248 0.000000 0.033325
#
#
# Mechanical properties :
#
#
# Convention : Reuss Voigt Hill
#
# Bulk Modulus (GPa) = 24.45822 37.73970 31.09896
# Shear Modulus (GPa) = 30.38623 37.78561 34.08592
#
# Velocity S-wave (km/s) = 3.46808 3.86736 3.67315
# Velocity P-wave (km/s) = 5.07129 5.90595 5.50446
#
# Compressibility (1/GPa) = 0.04088604
#
# Stress axis : x y z
#
# Youngs Moduli (GPa) = 62.38007 36.84939 114.86057
#
# Poissons Ratio (x) = -0.00451 0.26449
# Poissons Ratio (y) = -0.00764 0.38065
# Poissons Ratio (z) = 0.14364 0.12212
#
# Static dielectric constant tensor:
#      x y z
#    x 1.031430 0.000000 0.095260 
#    y 0.000000 2.058310 0.000000 
#    z 0.095260 0.000000 1.982910 
# 
# From -- ./inp_files/65949.got.cif
#   From: 2010.05.17/outbox.cif.g08.bks.cpg/sg15_33_cif.got.tgz:65949.got - 2010.06.03 18:47:42.
