data_PCOD9277964
_publ_section_title
;
Structure prediction by ZEFSAII (Michael W. Deem and Ramdas Pophale) SiO2 
 PCOD9277964
Probable space group: C 2/C
;
_chemical_formula_sum "Si O2"
_cell_formula_units_Z 48
_cell_length_a 22.869117
_cell_length_b 8.085293
_cell_length_c 26.283520
_cell_angle_alpha 90.000000
_cell_angle_beta 150.187696
_cell_angle_gamma 90.000000
_cell_volume 2416.156862
_symmetry_space_group_name_H-M "C 2/C"
_symmetry_group_IT_number 15
_symmetry_cell_setting 'monoclinic'
loop_
_space_group_symop_operation_xyz
x,y,z
-x,y,1/2-z
-x,-y,-z
x,-y,1/2+z
1/2+x,1/2+y,z
1/2-x,1/2+y,1/2-z
1/2-x,1/2-y,-z
1/2+x,1/2-y,1/2+z
loop_
_atom_site_type_symbol
_atom_site_label
_atom_site_fract_x
_atom_site_fract_y
_atom_site_fract_z
Si Si1 0.884059 0.485673 0.444836
Si Si2 0.194195 0.218229 0.306021
Si Si3 0.227638 0.778290 0.247285
Si Si4 0.439859 0.389966 0.258924
Si Si5 0.540117 0.318640 0.440377
Si Si6 0.220007 0.422831 0.836514
O O1 0.826854 0.656667 0.418277
O O2 0.793519 0.397719 0.337016
O O3 0.915851 0.366865 0.515098
O O4 0.000000 0.500000 0.500000
O O5 0.200415 0.241968 0.249367
O O6 0.166247 0.398104 0.307005
O O7 0.117632 0.066351 0.269155
O O8 0.215419 0.612357 0.272383
O O9 0.092344 0.836586 0.136878
O O10 0.500000 0.399810 0.250000
O O11 0.528142 0.351716 0.371830
O O12 0.348422 0.234284 0.191043
O O13 0.643537 0.424113 0.543964
#
# Coordination Sequence:
#
# PCOD9277964 Si02
#       6
#     8   8   8   8   8   8
#     4  11  21  37  63 101 137 168 202 258 331 395
#     4  12  22  40  65  95 131 168 219 260 319 391
#     4  10  21  38  63  97 141 168 200 261 332 389
#     4  11  26  48  66  87 130 175 221 272 318 376
#     4  10  20  42  63  93 130 172 204 265 328 375
#     4  10  24  40  64 100 128 166 218 263 326 387
#
# _framework density 19.866258999999999
#
# number of rings (size 3 to 8) (size 9 to 14) (size 15 to 20)
#    0.000    1.333    6.667    1.000    2.333    3.333 
#    0.000    0.833    0.000    0.000    0.000    0.000 
#    0.000    0.000    0.000    0.000    0.000    0.000 
#
# Total GULP energy -133797.053401 kJ/mol
# GULP energy per Si atom -5574.877225 kJ/mol
# Density = 1.982104 g / cm^3
# Si number density = 19.866259 Si / 1000 Ang^3
#
#
#
# Elastic Constant Matrix: (Units=GPa)
#
#
# Indices 1 2 3 4 5 6 
#
# 1 137.7875 53.6546 36.7502 0.0000 -5.8611 0.0000
# 2 53.6546 157.3926 40.9810 0.0001 4.3261 -0.0004
# 3 36.7502 40.9810 98.3975 0.0001 4.5832 0.0000
# 4 0.0000 0.0001 0.0001 12.1039 0.0001 2.0342
# 5 -5.8611 4.3261 4.5832 0.0001 13.7817 0.0000
# 6 0.0000 -0.0004 0.0000 2.0342 0.0000 21.4785
#
#
#
# Elastic Compliance Matrix: (Units=1/GPa)
#
#
# Indices 1 2 3 4 5 6 
#
# 1 0.009211 -0.002614 -0.002613 0.000000 0.005606 0.000000
# 2 -0.002614 0.007890 -0.002176 0.000000 -0.002864 0.000000
# 3 -0.002613 -0.002176 0.012255 0.000000 -0.004503 0.000000
# 4 0.000000 0.000000 0.000000 0.083954 0.000000 -0.007951
# 5 0.005606 -0.002864 -0.004503 0.000000 0.077341 0.000000
# 6 0.000000 0.000000 0.000000 -0.007951 0.000000 0.047311
#
#
# Mechanical properties :
#
#
# Convention : Reuss Voigt Hill
#
# Bulk Modulus (GPa) = 68.72890 72.92767 70.82828
# Shear Modulus (GPa) = 19.40863 26.95228 23.18045
#
# Velocity S-wave (km/s) = 3.12903 3.68732 3.41959
# Velocity P-wave (km/s) = 6.90835 7.41063 7.16390
#
# Compressibility (1/GPa) = 0.01454992
#
# Stress axis : x y z
#
# Youngs Moduli (GPa) = 108.57000 126.74319 81.60033
#
# Poissons Ratio (x) = 0.33127 0.21319
# Poissons Ratio (y) = 0.28377 0.17760
# Poissons Ratio (z) = 0.28365 0.27585
#
# Static dielectric constant tensor:
#      x y z
#    x 1.687900 0.000000 0.023310 
#    y 0.000000 1.796070 0.000000 
#    z 0.023310 0.000000 1.730940 
# 
# From -- ./inp_files/301914.got.cif
#   From: 2010.05.17/outbox.cif.g08.bks.cpg/sg15_151_cif.got.tgz:301914.got - 2010.06.03 18:47:42.
