data_PCOD9277073
_publ_section_title
;
Structure prediction by ZEFSAII (Michael W. Deem and Ramdas Pophale) SiO2 
 PCOD9277073
Probable space group: C 2/C
;
_chemical_formula_sum "Si O2"
_cell_formula_units_Z 32
_cell_length_a 4.858990
_cell_length_b 13.913780
_cell_length_c 17.499785
_cell_angle_alpha 90.000000
_cell_angle_beta 108.773260
_cell_angle_gamma 90.000000
_cell_volume 1120.164738
_symmetry_space_group_name_H-M "C 2/C"
_symmetry_group_IT_number 15
_symmetry_cell_setting 'monoclinic'
loop_
_space_group_symop_operation_xyz
x,y,z
-x,y,1/2-z
-x,-y,-z
x,-y,1/2+z
1/2+x,1/2+y,z
1/2-x,1/2+y,1/2-z
1/2-x,1/2-y,-z
1/2+x,1/2-y,1/2+z
loop_
_atom_site_type_symbol
_atom_site_label
_atom_site_fract_x
_atom_site_fract_y
_atom_site_fract_z
Si Si1 0.000000 0.390534 0.750000
Si Si2 0.500000 0.500000 0.000000
Si Si3 0.467059 0.772851 0.331448
Si Si4 0.829034 0.153470 0.549517
Si Si5 0.153295 0.403266 0.602001
O O1 0.746010 0.318674 0.701066
O O2 0.890575 0.440987 0.816594
O O3 0.627123 0.397953 0.057702
O O4 0.394097 0.543778 0.075464
O O5 0.500000 0.817118 0.250000
O O6 0.294521 0.835237 0.378034
O O7 0.754487 0.710559 0.382446
O O8 0.750000 0.250000 0.500000
O O9 0.651978 0.080517 0.472583
#
# Coordination Sequence:
#
# PCOD9277073 Si02
#       5
#     4   4   8   8   8
#     4  10  20  40  68 100 130 172 222 274 340 402
#     4  12  26  38  66 100 130 180 224 278 342 402
#     4  10  22  39  70  96 127 173 220 279 342 404
#     4  12  23  43  69  97 131 177 228 279 336 411
#     4  11  22  42  67  96 133 171 227 277 339 401
#
# _framework density 28.567228
#
# number of rings (size 3 to 8) (size 9 to 14) (size 15 to 20)
#    0.000    1.000    5.000    1.500    0.000    0.000 
#    2.250    0.000   13.750    0.000    0.000    0.000 
#    0.000    0.000    0.000    0.000    0.000    0.000 
#
# Total GULP energy -89232.725784 kJ/mol
# GULP energy per Si atom -5577.045362 kJ/mol
# Density = 2.850221 g / cm^3
# Si number density = 28.567228 Si / 1000 Ang^3
#
#
#
# Elastic Constant Matrix: (Units=GPa)
#
#
# Indices 1 2 3 4 5 6 
#
# 1 107.7727 -2.6791 67.5000 0.0000 -17.4432 0.0000
# 2 -2.6791 145.7055 72.7615 0.0000 -48.1302 0.0000
# 3 67.5000 72.7615 266.0542 0.0000 -90.3261 0.0000
# 4 0.0000 0.0000 0.0000 50.1935 0.0000 -31.9051
# 5 -17.4432 -48.1302 -90.3261 0.0000 83.7672 0.0000
# 6 0.0000 0.0000 0.0000 -31.9051 0.0000 39.8467
#
#
#
# Elastic Compliance Matrix: (Units=1/GPa)
#
#
# Indices 1 2 3 4 5 6 
#
# 1 0.011488 0.001863 -0.003547 0.000000 -0.000362 0.000000
# 2 0.001863 0.008962 -0.001646 0.000000 0.003762 0.000000
# 3 -0.003547 -0.001646 0.007157 0.000000 0.006033 0.000000
# 4 0.000000 0.000000 0.000000 0.040573 0.000000 0.032486
# 5 -0.000362 0.003762 0.006033 0.000000 0.020529 0.000000
# 6 0.000000 0.000000 0.000000 0.032486 0.000000 0.051108
#
#
# Mechanical properties :
#
#
# Convention : Reuss Voigt Hill
#
# Bulk Modulus (GPa) = 47.74167 88.29968 68.02068
# Shear Modulus (GPa) = 32.58172 60.22481 46.40327
#
# Velocity S-wave (km/s) = 3.38083 4.59647 4.03470
# Velocity P-wave (km/s) = 5.65583 7.69068 6.75037
#
# Compressibility (1/GPa) = 0.02094606
#
# Stress axis : x y z
#
# Youngs Moduli (GPa) = 87.04693 111.57850 139.72435
#
# Poissons Ratio (x) = -0.20786 0.49561
# Poissons Ratio (y) = -0.16216 0.23005
# Poissons Ratio (z) = 0.30876 0.18371
#
# Static dielectric constant tensor:
#      x y z
#    x 3.098470 0.000000 0.375950 
#    y 0.000000 2.875510 0.000000 
#    z 0.375950 0.000000 2.517920 
# 
# From -- ./inp_files/128350.got.cif
#   From: 2010.05.17/outbox.cif.g08.bks.cpg/sg15_65_cif.got.tgz:128350.got - 2010.06.03 18:47:42.
