data_PCOD9277200
_publ_section_title
;
Structure prediction by ZEFSAII (Michael W. Deem and Ramdas Pophale) SiO2 
 PCOD9277200
Probable space group: C 2/C
;
_chemical_formula_sum "Si O2"
_cell_formula_units_Z 56
_cell_length_a 18.009782
_cell_length_b 6.968615
_cell_length_c 17.335620
_cell_angle_alpha 90.000000
_cell_angle_beta 76.987121
_cell_angle_gamma 90.000000
_cell_volume 2119.803913
_symmetry_space_group_name_H-M "C 2/C"
_symmetry_group_IT_number 15
_symmetry_cell_setting 'monoclinic'
loop_
_space_group_symop_operation_xyz
x,y,z
-x,y,1/2-z
-x,-y,-z
x,-y,1/2+z
1/2+x,1/2+y,z
1/2-x,1/2+y,1/2-z
1/2-x,1/2-y,-z
1/2+x,1/2-y,1/2+z
loop_
_atom_site_type_symbol
_atom_site_label
_atom_site_fract_x
_atom_site_fract_y
_atom_site_fract_z
Si Si1 0.272187 0.963698 0.464954
Si Si2 0.948335 0.427008 0.186982
Si Si3 0.471300 0.350971 0.167181
Si Si4 0.301490 0.947021 0.784765
Si Si5 0.381820 0.498817 0.939187
Si Si6 0.059389 0.628334 0.532009
Si Si7 0.657668 0.499986 0.222210
O O1 0.250000 0.750000 0.500000
O O2 0.199856 0.082084 0.516079
O O3 0.361716 0.986662 0.467680
O O4 0.269788 0.983172 0.373701
O O5 0.939427 0.642350 0.154375
O O6 0.863701 0.401005 0.238678
O O7 0.000000 0.439099 0.250000
O O8 0.003492 0.317105 0.116532
O O9 0.500000 0.346694 0.250000
O O10 0.543213 0.378211 0.095144
O O11 0.404944 0.507479 0.194260
O O12 0.334314 0.733228 0.792510
O O13 0.238101 0.932161 0.734333
O O14 0.407434 0.338509 0.995540
O O15 0.365174 0.419225 0.855933
O O16 0.000000 0.500000 0.500000
#
# Coordination Sequence:
#
# PCOD9277200 Si02
#       7
#     8   8   8   8   8   8   8
#     4  10  24  44  67  99 151 186 235 300 372 433
#     4  10  20  40  69  93 133 181 240 297 347 427
#     4   8  18  40  62  92 130 174 220 288 355 408
#     4  11  24  42  69 106 141 191 243 305 370 432
#     4  10  23  44  68  95 145 188 226 303 365 425
#     4  11  25  42  67 103 138 189 242 292 359 438
#     4  10  24  41  70 103 140 181 251 302 361 441
#
# _framework density 26.417535999999998
#
# number of rings (size 3 to 8) (size 9 to 14) (size 15 to 20)
#    0.000    2.000    1.429    0.857    6.000    6.857 
#    0.000    1.429    0.000    0.000    0.000    0.000 
#    0.000    0.000    0.000    0.000    0.000    0.000 
#
# Total GULP energy -156298.717549 kJ/mol
# GULP energy per Si atom -5582.097055 kJ/mol
# Density = 2.635741 g / cm^3
# Si number density = 26.417536 Si / 1000 Ang^3
#
#
#
# Elastic Constant Matrix: (Units=GPa)
#
#
# Indices 1 2 3 4 5 6 
#
# 1 170.6625 16.5060 55.8613 0.0000 -21.9895 0.0000
# 2 16.5060 49.0992 26.2836 0.0000 -7.2484 0.0000
# 3 55.8613 26.2836 107.5790 0.0000 -41.5795 0.0000
# 4 0.0000 0.0000 0.0000 43.2338 0.0000 -13.5432
# 5 -21.9895 -7.2484 -41.5795 0.0000 61.1554 0.0000
# 6 0.0000 0.0000 0.0000 -13.5432 0.0000 48.5674
#
#
#
# Elastic Compliance Matrix: (Units=1/GPa)
#
#
# Indices 1 2 3 4 5 6 
#
# 1 0.007069 -0.000480 -0.003517 0.000000 0.000094 0.000000
# 2 -0.000480 0.023568 -0.006099 0.000000 -0.001526 0.000000
# 3 -0.003517 -0.006099 0.016065 0.000000 0.008935 0.000000
# 4 0.000000 0.000000 0.000000 0.025344 0.000000 0.007067
# 5 0.000094 -0.001526 0.008935 0.000000 0.022280 0.000000
# 6 0.000000 0.000000 0.000000 0.007067 0.000000 0.022561
#
#
# Mechanical properties :
#
#
# Convention : Reuss Voigt Hill
#
# Bulk Modulus (GPa) = 37.72032 58.29362 48.00697
# Shear Modulus (GPa) = 34.26650 45.83731 40.05191
#
# Velocity S-wave (km/s) = 3.60545 4.16998 3.89795
# Velocity P-wave (km/s) = 5.62511 6.73047 6.20246
#
# Compressibility (1/GPa) = 0.02651091
#
# Stress axis : x y z
#
# Youngs Moduli (GPa) = 141.45674 42.43106 62.24539
#
# Poissons Ratio (x) = 0.02036 0.21894
# Poissons Ratio (y) = 0.06787 0.37961
# Poissons Ratio (z) = 0.49756 0.25877
#
# Static dielectric constant tensor:
#      x y z
#    x 2.137160 0.000000 -0.104310 
#    y 0.000000 2.248970 0.000000 
#    z -0.104310 0.000000 2.107420 
# 
# From -- ./inp_files/209507.got.cif
#   From: 2010.05.17/outbox.cif.g08.bks.cpg/sg15_105_cif.got.tgz:209507.got - 2010.06.03 18:47:42.
