data_PCOD9277119
_publ_section_title
;
Structure prediction by ZEFSAII (Michael W. Deem and Ramdas Pophale) SiO2 
 PCOD9277119
Probable space group: C 2/C
;
_chemical_formula_sum "Si O2"
_cell_formula_units_Z 44
_cell_length_a 17.139748
_cell_length_b 8.832951
_cell_length_c 17.579081
_cell_angle_alpha 90.000000
_cell_angle_beta 51.850518
_cell_angle_gamma 90.000000
_cell_volume 2092.911878
_symmetry_space_group_name_H-M "C 2/C"
_symmetry_group_IT_number 15
_symmetry_cell_setting 'monoclinic'
loop_
_space_group_symop_operation_xyz
x,y,z
-x,y,1/2-z
-x,-y,-z
x,-y,1/2+z
1/2+x,1/2+y,z
1/2-x,1/2+y,1/2-z
1/2-x,1/2-y,-z
1/2+x,1/2-y,1/2+z
loop_
_atom_site_type_symbol
_atom_site_label
_atom_site_fract_x
_atom_site_fract_y
_atom_site_fract_z
Si Si1 0.442505 0.903693 0.919139
Si Si2 0.334077 0.364979 0.791218
Si Si3 0.500000 0.868550 0.250000
Si Si4 0.995280 0.907148 0.579580
Si Si5 0.404618 0.618048 0.856709
Si Si6 0.391689 0.855344 0.566553
O O1 0.378958 0.766993 0.920980
O O2 0.548103 0.849496 0.890663
O O3 0.465193 0.024231 0.839666
O O4 0.394784 0.982240 0.022333
O O5 0.408665 0.241133 0.782485
O O6 0.384559 0.393015 0.678982
O O7 0.338491 0.520030 0.838443
O O8 0.221883 0.309551 0.855086
O O9 0.048285 0.751262 0.527344
O O10 0.000000 0.000000 0.500000
O O11 0.056804 0.994557 0.606457
O O12 0.500000 0.668401 0.750000
#
# Coordination Sequence:
#
# PCOD9277119 Si02
#       6
#     8   8   4   8   8   8
#     4  11  23  42  65  99 134 167 216 285 328 387
#     4  11  24  45  68  95 129 181 221 265 333 402
#     4  12  22  42  68  94 134 172 218 270 326 394
#     4  11  21  42  67  94 131 173 218 269 322 395
#     4  10  20  40  68  91 130 172 216 265 328 392
#     4  11  25  43  68  96 134 172 220 275 335 390
#
# _framework density 21.023340000000001
#
# number of rings (size 3 to 8) (size 9 to 14) (size 15 to 20)
#    0.000    1.091    7.273    0.000    0.000    5.091 
#    0.000    0.000    0.000    0.000    0.000    0.000 
#    0.000    0.000    0.000    0.000    0.000    0.000 
#
# Total GULP energy -122792.525126 kJ/mol
# GULP energy per Si atom -5581.478415 kJ/mol
# Density = 2.097549 g / cm^3
# Si number density = 21.023340 Si / 1000 Ang^3
#
#
#
# Elastic Constant Matrix: (Units=GPa)
#
#
# Indices 1 2 3 4 5 6 
#
# 1 72.2966 14.2944 41.9138 0.0000 -12.1253 0.0000
# 2 14.2944 80.1454 7.8659 0.0000 5.8606 0.0000
# 3 41.9138 7.8659 66.8712 0.0000 12.8721 0.0000
# 4 0.0000 0.0000 0.0000 38.8346 0.0000 22.7466
# 5 -12.1253 5.8606 12.8721 0.0000 35.9842 0.0000
# 6 0.0000 0.0000 0.0000 22.7466 0.0000 17.3754
#
#
#
# Elastic Compliance Matrix: (Units=1/GPa)
#
#
# Indices 1 2 3 4 5 6 
#
# 1 0.031221 -0.004757 -0.022750 0.000000 0.019433 0.000000
# 2 -0.004757 0.013438 0.002288 0.000000 -0.004610 0.000000
# 3 -0.022750 0.002288 0.032746 0.000000 -0.019752 0.000000
# 4 0.000000 0.000000 0.000000 0.110418 0.000000 -0.144551
# 5 0.019433 -0.004610 -0.019752 0.000000 0.042155 0.000000
# 6 0.000000 0.000000 0.000000 -0.144551 0.000000 0.246788
#
#
# Mechanical properties :
#
#
# Convention : Reuss Voigt Hill
#
# Bulk Modulus (GPa) = 37.08023 38.60681 37.84352
# Shear Modulus (GPa) = 9.32502 28.78812 19.05657
#
# Velocity S-wave (km/s) = 2.10836 3.70447 3.01399
# Velocity P-wave (km/s) = 4.85828 6.05815 5.49108
#
# Compressibility (1/GPa) = 0.02696855
#
# Stress axis : x y z
#
# Youngs Moduli (GPa) = 32.03012 74.41451 30.53784
#
# Poissons Ratio (x) = 0.35396 0.69473
# Poissons Ratio (y) = 0.15236 -0.06987
# Poissons Ratio (z) = 0.72868 -0.17026
#
# Static dielectric constant tensor:
#      x y z
#    x 1.751640 0.000000 0.014130 
#    y 0.000000 1.836680 0.000000 
#    z 0.014130 0.000000 1.769110 
# 
# From -- ./inp_files/159229.got.cif
#   From: 2010.05.17/outbox.cif.g08.bks.cpg/sg15_80_cif.got.tgz:159229.got - 2010.06.03 18:47:42.
