data_PCOD9277439
_publ_section_title
;
Structure prediction by ZEFSAII (Michael W. Deem and Ramdas Pophale) SiO2 
 PCOD9277439
Probable space group: C 2/C
;
_chemical_formula_sum "Si O2"
_cell_formula_units_Z 56
_cell_length_a 17.592184
_cell_length_b 23.743936
_cell_length_c 7.475193
_cell_angle_alpha 90.000000
_cell_angle_beta 116.846221
_cell_angle_gamma 90.000000
_cell_volume 2785.914044
_symmetry_space_group_name_H-M "C 2/C"
_symmetry_group_IT_number 15
_symmetry_cell_setting 'monoclinic'
loop_
_space_group_symop_operation_xyz
x,y,z
-x,y,1/2-z
-x,-y,-z
x,-y,1/2+z
1/2+x,1/2+y,z
1/2-x,1/2+y,1/2-z
1/2-x,1/2-y,-z
1/2+x,1/2-y,1/2+z
loop_
_atom_site_type_symbol
_atom_site_label
_atom_site_fract_x
_atom_site_fract_y
_atom_site_fract_z
Si Si1 0.154157 0.766486 0.738618
Si Si2 0.003361 0.706863 0.966930
Si Si3 0.311021 0.176996 0.213243
Si Si4 0.899334 0.876470 0.661509
Si Si5 0.211922 0.071928 0.153921
Si Si6 0.654078 0.149716 0.655722
Si Si7 0.214464 0.058695 0.736994
O O1 0.229684 0.788371 0.694728
O O2 0.135661 0.812324 0.871016
O O3 0.175578 0.701626 0.813346
O O4 0.062215 0.756344 0.541628
O O5 0.000000 0.711802 0.750000
O O6 0.948398 0.651098 0.958349
O O7 0.098537 0.702896 0.135513
O O8 0.292127 0.113899 0.268261
O O9 0.313220 0.170690 0.002047
O O10 0.865209 0.902573 0.811801
O O11 0.858498 0.914450 0.463616
O O12 0.000000 0.875729 0.750000
O O13 0.224912 0.007780 0.225456
O O14 0.195886 0.071506 0.924592
O O15 0.700785 0.091715 0.737498
#
# Coordination Sequence:
#
# PCOD9277439 Si02
#       7
#     8   8   8   8   8   8   8
#     4   9  22  37  61  92 127 165 212 255 330 385
#     4  10  22  34  57  94 124 164 213 253 321 390
#     4  10  20  41  63  87 132 170 209 274 319 395
#     4  11  24  41  64  95 134 172 219 272 325 390
#     4  10  23  41  67  95 121 177 222 266 338 383
#     4   9  22  38  62  92 124 165 216 260 331 380
#     4  11  22  43  66  92 129 170 223 277 323 394
#
# _framework density 20.101122
#
# number of rings (size 3 to 8) (size 9 to 14) (size 15 to 20)
#    0.857    1.143    1.429    1.286    4.000    4.571 
#    0.000    3.571    0.000    0.000    0.000    0.000 
#    0.000    0.000    0.000    0.000    0.000    0.000 
#
# Total GULP energy -156017.185143 kJ/mol
# GULP energy per Si atom -5572.042327 kJ/mol
# Density = 2.005537 g / cm^3
# Si number density = 20.101122 Si / 1000 Ang^3
#
#
#
# Elastic Constant Matrix: (Units=GPa)
#
#
# Indices 1 2 3 4 5 6 
#
# 1 144.7551 52.5841 41.1771 0.0000 21.2843 0.0000
# 2 52.5841 118.8432 30.0048 0.0000 12.4954 0.0000
# 3 41.1771 30.0048 60.6314 0.0000 7.9105 0.0000
# 4 0.0000 0.0000 0.0000 16.9070 0.0000 3.7271
# 5 21.2843 12.4954 7.9105 0.0000 37.6644 0.0000
# 6 0.0000 0.0000 0.0000 3.7271 0.0000 1.2828
#
#
#
# Elastic Compliance Matrix: (Units=1/GPa)
#
#
# Indices 1 2 3 4 5 6 
#
# 1 0.009811 -0.002740 -0.004835 0.000000 -0.003620 0.000000
# 2 -0.002740 0.010570 -0.003203 0.000000 -0.001286 0.000000
# 3 -0.004835 -0.003203 0.021454 0.000000 -0.000711 0.000000
# 4 0.000000 0.000000 0.000000 0.164532 0.000000 -0.478048
# 5 -0.003620 -0.001286 -0.000711 0.000000 0.029172 0.000000
# 6 0.000000 0.000000 0.000000 -0.478048 0.000000 2.168537
#
#
# Mechanical properties :
#
#
# Convention : Reuss Voigt Hill
#
# Bulk Modulus (GPa) = 49.30647 63.52908 56.41777
# Shear Modulus (GPa) = 2.05559 24.53508 13.29533
#
# Velocity S-wave (km/s) = 1.01235 3.49747 2.57460
# Velocity P-wave (km/s) = 5.09401 6.92698 6.07997
#
# Compressibility (1/GPa) = 0.02028131
#
# Stress axis : x y z
#
# Youngs Moduli (GPa) = 101.92550 94.60301 46.61056
#
# Poissons Ratio (x) = 0.25919 0.22536
# Poissons Ratio (y) = 0.27925 0.14927
# Poissons Ratio (z) = 0.49281 0.30297
#
# Static dielectric constant tensor:
#      x y z
#    x 1.739920 0.000000 -0.012280 
#    y 0.000000 1.739470 0.000000 
#    z -0.012280 0.000000 1.755460 
# 
# From -- ./inp_files/51309.got.cif
#   From: 2010.05.17/outbox.cif.g08.bks.cpg/sg15_26_cif.got.tgz:51309.got - 2010.06.03 18:47:42.
