data_PCOD9277697
_publ_section_title
;
Structure prediction by ZEFSAII (Michael W. Deem and Ramdas Pophale) SiO2 
 PCOD9277697
Probable space group: C 2/C
;
_chemical_formula_sum "Si O2"
_cell_formula_units_Z 52
_cell_length_a 14.185777
_cell_length_b 12.304134
_cell_length_c 14.308521
_cell_angle_alpha 90.000000
_cell_angle_beta 57.726146
_cell_angle_gamma 90.000000
_cell_volume 2111.618257
_symmetry_space_group_name_H-M "C 2/C"
_symmetry_group_IT_number 15
_symmetry_cell_setting 'monoclinic'
loop_
_space_group_symop_operation_xyz
x,y,z
-x,y,1/2-z
-x,-y,-z
x,-y,1/2+z
1/2+x,1/2+y,z
1/2-x,1/2+y,1/2-z
1/2-x,1/2-y,-z
1/2+x,1/2-y,1/2+z
loop_
_atom_site_type_symbol
_atom_site_label
_atom_site_fract_x
_atom_site_fract_y
_atom_site_fract_z
Si Si1 0.863116 0.755806 0.382472
Si Si2 0.689220 0.351519 0.480980
Si Si3 0.821047 0.025058 0.869537
Si Si4 0.449722 0.338854 0.686937
Si Si5 0.782499 0.254792 0.718425
Si Si6 0.108526 0.485356 0.878062
Si Si7 0.000000 0.561612 0.250000
O O1 0.750000 0.750000 0.500000
O O2 0.844281 0.760687 0.281526
O O3 0.932423 0.645820 0.353675
O O4 0.896803 0.881336 0.377024
O O5 0.750000 0.250000 0.500000
O O6 0.727240 0.456857 0.517257
O O7 0.555528 0.352689 0.565782
O O8 0.710823 0.339246 0.360990
O O9 0.894312 0.945114 0.765425
O O10 0.711539 0.054651 0.866151
O O11 0.500000 0.275124 0.750000
O O12 0.346183 0.281674 0.694559
O O13 0.841898 0.362131 0.642659
O O14 0.074634 0.502091 0.786557
O O15 0.000000 0.500000 0.000000
#
# Coordination Sequence:
#
# PCOD9277697 Si02
#       7
#     8   8   8   8   8   8   4
#     4  11  25  46  67  93 137 184 229 281 337 415
#     4  11  19  39  68 100 134 170 220 288 345 407
#     4  10  22  41  66  97 140 176 232 284 340 411
#     4   9  18  35  68  94 134 167 218 274 347 395
#     4  10  22  42  64  99 134 177 226 280 346 412
#     4  10  20  41  67  96 135 175 231 281 340 407
#     4  10  24  42  74  96 136 188 228 278 354 414
#
# _framework density 24.625662999999999
#
# number of rings (size 3 to 8) (size 9 to 14) (size 15 to 20)
#    0.000    1.846    4.615    0.923    3.231    3.692 
#   11.077    0.769    5.077    0.000    0.000    0.000 
#    0.000    0.000    0.000    0.000    0.000    0.000 
#
# Total GULP energy -145110.138444 kJ/mol
# GULP energy per Si atom -5581.159171 kJ/mol
# Density = 2.456961 g / cm^3
# Si number density = 24.625663 Si / 1000 Ang^3
#
#
#
# Elastic Constant Matrix: (Units=GPa)
#
#
# Indices 1 2 3 4 5 6 
#
# 1 109.1765 3.3582 19.7184 0.0000 -4.9914 0.0000
# 2 3.3582 64.2085 15.0073 0.0000 -2.0840 0.0000
# 3 19.7184 15.0073 99.3693 0.0000 -10.2353 0.0000
# 4 0.0000 0.0000 0.0000 31.8727 0.0000 -2.4552
# 5 -4.9914 -2.0840 -10.2353 0.0000 49.4709 0.0000
# 6 0.0000 0.0000 0.0000 -2.4552 0.0000 27.6858
#
#
#
# Elastic Compliance Matrix: (Units=1/GPa)
#
#
# Indices 1 2 3 4 5 6 
#
# 1 0.009516 -0.000053 -0.001820 0.000000 0.000581 0.000000
# 2 -0.000053 0.016146 -0.002410 0.000000 0.000176 0.000000
# 3 -0.001820 -0.002410 0.010994 0.000000 0.001989 0.000000
# 4 0.000000 0.000000 0.000000 0.031591 0.000000 0.002802
# 5 0.000581 0.000176 0.001989 0.000000 0.020692 0.000000
# 6 0.000000 0.000000 0.000000 0.002802 0.000000 0.036368
#
#
# Mechanical properties :
#
#
# Convention : Reuss Voigt Hill
#
# Bulk Modulus (GPa) = 35.60123 38.76912 37.18518
# Shear Modulus (GPa) = 34.90734 37.45058 36.17896
#
# Velocity S-wave (km/s) = 3.76908 3.90397 3.83712
# Velocity P-wave (km/s) = 5.78184 6.00823 5.89612
#
# Compressibility (1/GPa) = 0.02808892
#
# Stress axis : x y z
#
# Youngs Moduli (GPa) = 105.08073 61.93491 90.96244
#
# Poissons Ratio (x) = 0.00331 0.16559
# Poissons Ratio (y) = 0.00561 0.21919
# Poissons Ratio (z) = 0.19130 0.14925
#
# Static dielectric constant tensor:
#      x y z
#    x 1.980160 0.000000 -0.003240 
#    y 0.000000 2.189120 0.000000 
#    z -0.003240 0.000000 2.001740 
# 
# From -- ./inp_files/153875.got.cif
#   From: 2010.05.17/outbox.cif.g08.bks.cpg/sg15_77_cif.got.tgz:153875.got - 2010.06.03 18:47:42.
