data_PCOD9277287
_publ_section_title
;
Structure prediction by ZEFSAII (Michael W. Deem and Ramdas Pophale) SiO2 
 PCOD9277287
Probable space group: C 2/C
;
_chemical_formula_sum "Si O2"
_cell_formula_units_Z 40
_cell_length_a 10.313976
_cell_length_b 21.792102
_cell_length_c 8.912330
_cell_angle_alpha 90.000000
_cell_angle_beta 112.631398
_cell_angle_gamma 90.000000
_cell_volume 1848.919306
_symmetry_space_group_name_H-M "C 2/C"
_symmetry_group_IT_number 15
_symmetry_cell_setting 'monoclinic'
loop_
_space_group_symop_operation_xyz
x,y,z
-x,y,1/2-z
-x,-y,-z
x,-y,1/2+z
1/2+x,1/2+y,z
1/2-x,1/2+y,1/2-z
1/2-x,1/2-y,-z
1/2+x,1/2-y,1/2+z
loop_
_atom_site_type_symbol
_atom_site_label
_atom_site_fract_x
_atom_site_fract_y
_atom_site_fract_z
Si Si1 0.831568 0.831764 0.664740
Si Si2 0.000000 0.827874 0.250000
Si Si3 0.232979 0.921739 0.241875
Si Si4 0.000000 0.654541 0.750000
Si Si5 0.157255 0.967074 0.883588
Si Si6 0.598066 0.753094 0.554488
O O1 0.793198 0.902243 0.663740
O O2 0.719443 0.789485 0.700055
O O3 0.820657 0.802316 0.493877
O O4 0.000000 0.827852 0.750000
O O5 0.869803 0.871863 0.228478
O O6 0.015132 0.781913 0.396665
O O7 0.373912 0.889475 0.247110
O O8 0.249678 0.976108 0.370515
O O9 0.160965 0.953235 0.062735
O O10 0.966547 0.699518 0.594142
O O11 0.000000 0.977888 0.750000
#
# Coordination Sequence:
#
# PCOD9277287 Si02
#       6
#     8   4   8   4   8   8
#     4  10  20  40  71  94 130 187 219 273 341 407
#     4  12  26  44  68 108 134 174 238 284 334 414
#     4  12  26  46  70 104 140 178 232 279 342 405
#     4  12  26  50  68  96 142 186 222 288 346 410
#     4  11  23  44  72 101 136 184 227 282 330 412
#     4  11  22  44  68  96 139 178 226 280 348 398
#
# _framework density 21.634259
#
# number of rings (size 3 to 8) (size 9 to 14) (size 15 to 20)
#    0.000    0.800    6.000    1.800    0.000    1.600 
#    3.600    0.000    0.000    0.000    0.000    0.000 
#    0.000    0.000    0.000    0.000    0.000    0.000 
#
# Total GULP energy -111493.545359 kJ/mol
# GULP energy per Si atom -5574.677268 kJ/mol
# Density = 2.158502 g / cm^3
# Si number density = 21.634259 Si / 1000 Ang^3
#
#
#
# Elastic Constant Matrix: (Units=GPa)
#
#
# Indices 1 2 3 4 5 6 
#
# 1 133.8345 89.6445 47.7049 0.0000 -15.8180 0.0000
# 2 89.6445 178.4771 50.2334 0.0000 -12.6744 0.0000
# 3 47.7049 50.2334 65.7232 0.0000 -4.8846 0.0000
# 4 0.0000 0.0000 0.0000 31.5489 0.0000 -16.2220
# 5 -15.8180 -12.6744 -4.8846 0.0000 22.9946 0.0000
# 6 0.0000 0.0000 0.0000 -16.2220 0.0000 48.4236
#
#
#
# Elastic Compliance Matrix: (Units=1/GPa)
#
#
# Indices 1 2 3 4 5 6 
#
# 1 0.013255 -0.004692 -0.005639 0.000000 0.005334 0.000000
# 2 -0.004692 0.008984 -0.003386 0.000000 0.001005 0.000000
# 3 -0.005639 -0.003386 0.021814 0.000000 -0.001112 0.000000
# 4 0.000000 0.000000 0.000000 0.038293 0.000000 0.012828
# 5 0.005334 0.001005 -0.001112 0.000000 0.047476 0.000000
# 6 0.000000 0.000000 0.000000 0.012828 0.000000 0.024949
#
#
# Mechanical properties :
#
#
# Convention : Reuss Voigt Hill
#
# Bulk Modulus (GPa) = 60.17169 83.68893 71.93031
# Shear Modulus (GPa) = 26.63216 33.29021 29.96119
#
# Velocity S-wave (km/s) = 3.51239 3.92698 3.72546
# Velocity P-wave (km/s) = 6.65753 7.70253 7.19902
#
# Compressibility (1/GPa) = 0.01661911
#
# Stress axis : x y z
#
# Youngs Moduli (GPa) = 75.44430 111.30874 45.84269
#
# Poissons Ratio (x) = 0.52223 0.25848
# Poissons Ratio (y) = 0.35397 0.15524
# Poissons Ratio (z) = 0.42539 0.37694
#
# Static dielectric constant tensor:
#      x y z
#    x 1.882160 0.000000 0.025560 
#    y 0.000000 1.820750 0.000000 
#    z 0.025560 0.000000 1.895000 
# 
# From -- ./inp_files/23790.got.cif
#   From: 2010.05.17/outbox.cif.g08.bks.cpg/sg15_12_cif.got.tgz:23790.got - 2010.06.03 18:47:42.
