data_PCOD9277386
_publ_section_title
;
Structure prediction by ZEFSAII (Michael W. Deem and Ramdas Pophale) SiO2 
 PCOD9277386
Probable space group: C 2/C
;
_chemical_formula_sum "Si O2"
_cell_formula_units_Z 60
_cell_length_a 11.016783
_cell_length_b 8.588290
_cell_length_c 25.169241
_cell_angle_alpha 90.000000
_cell_angle_beta 68.614166
_cell_angle_gamma 90.000000
_cell_volume 2217.427338
_symmetry_space_group_name_H-M "C 2/C"
_symmetry_group_IT_number 15
_symmetry_cell_setting 'monoclinic'
loop_
_space_group_symop_operation_xyz
x,y,z
-x,y,1/2-z
-x,-y,-z
x,-y,1/2+z
1/2+x,1/2+y,z
1/2-x,1/2+y,1/2-z
1/2-x,1/2-y,-z
1/2+x,1/2-y,1/2+z
loop_
_atom_site_type_symbol
_atom_site_label
_atom_site_fract_x
_atom_site_fract_y
_atom_site_fract_z
Si Si1 0.372023 0.877661 0.237693
Si Si2 0.798947 0.385875 0.446696
Si Si3 0.487649 0.288587 0.033351
Si Si4 0.585381 0.659933 0.685390
Si Si5 0.480560 0.077583 0.131531
Si Si6 0.687583 0.606149 0.315974
Si Si7 0.000000 0.500000 0.000000
Si Si8 0.084854 0.046706 0.092096
O O1 0.500000 0.920735 0.250000
O O2 0.366148 0.696466 0.227172
O O3 0.385494 0.966754 0.179055
O O4 0.251179 0.944806 0.288746
O O5 0.645229 0.376758 0.459192
O O6 0.856574 0.454878 0.492197
O O7 0.880114 0.490409 0.392116
O O8 0.848185 0.209003 0.431915
O O9 0.453228 0.126848 0.074038
O O10 0.579985 0.403605 0.050804
O O11 0.551073 0.184905 0.977567
O O12 0.500000 0.617487 0.750000
O O13 0.493761 0.763518 0.661265
O O14 0.698957 0.777815 0.683642
O O15 0.632639 0.519411 0.641099
O O16 0.568147 0.583433 0.373902
#
# Coordination Sequence:
#
# PCOD9277386 Si02
#       8
#     8   8   8   8   8   8   4   8
#     4  12  25  39  59  91 130 181 230 270 305 373
#     4  11  23  45  68  97 130 161 214 271 334 402
#     4  10  24  43  71  95 131 165 204 273 337 399
#     4  11  21  41  57  85 132 174 219 264 305 360
#     4  10  20  41  61  90 129 171 216 263 316 378
#     4  12  24  38  60  85 128 176 218 263 316 352
#     4  10  24  48  74 100 124 164 210 266 350 424
#     4  11  26  40  63 102 128 169 224 263 315 389
#
# _framework density 27.058385999999999
#
# number of rings (size 3 to 8) (size 9 to 14) (size 15 to 20)
#    0.000    1.067    4.000    2.000    3.733    2.133 
#    0.000    1.333    0.000    0.000    0.000    0.000 
#    0.000    0.000    0.000    0.000    0.000    0.000 
#
# Total GULP energy -167648.689949 kJ/mol
# GULP energy per Si atom -5588.289665 kJ/mol
# Density = 2.699680 g / cm^3
# Si number density = 27.058386 Si / 1000 Ang^3
#
#
#
# Elastic Constant Matrix: (Units=GPa)
#
#
# Indices 1 2 3 4 5 6 
#
# 1 78.1393 45.6800 26.4865 0.0000 6.8546 0.0000
# 2 45.6800 130.3319 44.5833 0.0000 12.5782 0.0000
# 3 26.4865 44.5833 79.6426 0.0000 14.6492 0.0000
# 4 0.0000 0.0000 0.0000 38.3607 0.0000 5.2202
# 5 6.8546 12.5782 14.6492 0.0000 27.6111 0.0000
# 6 0.0000 0.0000 0.0000 5.2202 0.0000 48.0615
#
#
#
# Elastic Compliance Matrix: (Units=1/GPa)
#
#
# Indices 1 2 3 4 5 6 
#
# 1 0.016590 -0.004838 -0.002723 0.000000 -0.000470 0.000000
# 2 -0.004838 0.010971 -0.004249 0.000000 -0.001542 0.000000
# 3 -0.002723 -0.004249 0.017021 0.000000 -0.006419 0.000000
# 4 0.000000 0.000000 0.000000 0.026459 0.000000 -0.002874
# 5 -0.000470 -0.001542 -0.006419 0.000000 0.040442 0.000000
# 6 0.000000 0.000000 0.000000 -0.002874 0.000000 0.021119
#
#
# Mechanical properties :
#
#
# Convention : Reuss Voigt Hill
#
# Bulk Modulus (GPa) = 47.70320 57.95705 52.83013
# Shear Modulus (GPa) = 30.63584 34.23092 32.43338
#
# Velocity S-wave (km/s) = 3.36849 3.56065 3.46590
# Velocity P-wave (km/s) = 5.72686 6.19436 5.96519
#
# Compressibility (1/GPa) = 0.02096295
#
# Stress axis : x y z
#
# Youngs Moduli (GPa) = 60.27723 91.15299 58.75255
#
# Poissons Ratio (x) = 0.44099 0.15996
# Poissons Ratio (y) = 0.29162 0.24962
# Poissons Ratio (z) = 0.16411 0.38727
#
# Static dielectric constant tensor:
#      x y z
#    x 2.006000 0.000000 0.755980 
#    y 0.000000 3.892410 0.000000 
#    z 0.755980 0.000000 -2.288010 
# 
# From -- ./inp_files/309962.got.cif
#   From: 2010.05.17/outbox.cif.g08.bks.cpg/sg15_155_cif.got.tgz:309962.got - 2010.06.03 18:47:42.
