data_PCOD9277687
_publ_section_title
;
Structure prediction by ZEFSAII (Michael W. Deem and Ramdas Pophale) SiO2 
 PCOD9277687
Probable space group: C 2/C
;
_chemical_formula_sum "Si O2"
_cell_formula_units_Z 48
_cell_length_a 24.084866
_cell_length_b 16.701502
_cell_length_c 8.798114
_cell_angle_alpha 90.000000
_cell_angle_beta 34.823027
_cell_angle_gamma 90.000000
_cell_volume 2020.963972
_symmetry_space_group_name_H-M "C 2/C"
_symmetry_group_IT_number 15
_symmetry_cell_setting 'monoclinic'
loop_
_space_group_symop_operation_xyz
x,y,z
-x,y,1/2-z
-x,-y,-z
x,-y,1/2+z
1/2+x,1/2+y,z
1/2-x,1/2+y,1/2-z
1/2-x,1/2-y,-z
1/2+x,1/2-y,1/2+z
loop_
_atom_site_type_symbol
_atom_site_label
_atom_site_fract_x
_atom_site_fract_y
_atom_site_fract_z
Si Si1 0.595448 0.972053 0.142727
Si Si2 0.070872 0.966882 0.472549
Si Si3 0.804052 0.075146 0.080672
Si Si4 0.561674 0.203454 0.761806
Si Si5 0.574673 0.145115 0.215295
Si Si6 0.249338 0.753583 0.188227
O O1 0.500000 0.971030 0.250000
O O2 0.590639 0.055619 0.245467
O O3 0.597238 0.886699 0.225996
O O4 0.699112 0.968311 0.823251
O O5 0.124789 0.032470 0.457496
O O6 0.153106 0.925709 0.186556
O O7 0.000000 0.000000 0.500000
O O8 0.000000 0.920489 0.750000
O O9 0.523216 0.216837 0.425936
O O10 0.649126 0.258975 0.509459
O O11 0.500000 0.192381 0.750000
O O12 0.500000 0.133734 0.250000
O O13 0.790005 0.167907 0.149929
O O14 0.678508 0.176185 0.930734
O O15 0.250000 0.750000 0.000000
#
# Coordination Sequence:
#
# PCOD9277687 Si02
#       6
#     8   8   8   8   8   8
#     4   9  21  38  66  97 130 166 217 277 329 394
#     4   9  20  41  63  94 128 169 231 275 323 390
#     4  10  22  39  69  96 129 176 221 281 337 398
#     4  10  20  41  67  93 127 173 219 268 329 398
#     4  11  24  41  63  97 133 168 218 273 337 402
#     4  11  24  42  65  94 136 175 222 271 339 409
#
# _framework density 23.751042999999999
#
# number of rings (size 3 to 8) (size 9 to 14) (size 15 to 20)
#    0.000    2.000    1.667    0.500    2.333    8.000 
#    3.000    1.667    0.000    0.000    0.000    0.000 
#    0.000    0.000    0.000    0.000    0.000    0.000 
#
# Total GULP energy -133689.597077 kJ/mol
# GULP energy per Si atom -5570.399878 kJ/mol
# Density = 2.369698 g / cm^3
# Si number density = 23.751043 Si / 1000 Ang^3
#
#
#
# Elastic Constant Matrix: (Units=GPa)
#
#
# Indices 1 2 3 4 5 6 
#
# 1 86.5762 22.3685 26.4472 0.0000 -12.2890 0.0000
# 2 22.3685 60.6143 21.5902 0.0000 -21.6724 0.0000
# 3 26.4472 21.5902 173.4535 0.0000 -8.4884 0.0000
# 4 0.0000 0.0000 0.0000 17.2873 0.0000 30.9779
# 5 -12.2890 -21.6724 -8.4884 0.0000 36.8655 0.0000
# 6 0.0000 0.0000 0.0000 30.9779 0.0000 -77.6204
#
#
#
# Elastic Compliance Matrix: (Units=1/GPa)
#
#
# Indices 1 2 3 4 5 6 
#
# 1 0.013218 -0.003673 -0.001465 0.000000 0.001909 0.000000
# 2 -0.003673 0.022635 -0.001685 0.000000 0.011694 0.000000
# 3 -0.001465 -0.001685 0.006196 0.000000 -0.000052 0.000000
# 4 0.000000 0.000000 0.000000 0.033726 0.000000 0.013460
# 5 0.001909 0.011694 -0.000052 0.000000 0.034625 0.000000
# 6 0.000000 0.000000 0.000000 0.013460 0.000000 -0.007511
#
#
# Mechanical properties :
#
#
# Convention : Reuss Voigt Hill
#
# Bulk Modulus (GPa) = 35.20867 51.27286 43.24077
# Shear Modulus (GPa) = 39.68197 11.98902 25.83549
#
# Velocity S-wave (km/s) = 4.09191 2.24917 3.30170
# Velocity P-wave (km/s) = 6.09764 5.32724 5.72541
#
# Compressibility (1/GPa) = 0.02840209
#
# Stress axis : x y z
#
# Youngs Moduli (GPa) = 75.65391 44.18008 161.40105
#
# Poissons Ratio (x) = 0.16229 0.23641
# Poissons Ratio (y) = 0.27791 0.27196
# Poissons Ratio (z) = 0.11081 0.07444
#
# Static dielectric constant tensor:
#      x y z
#    x 1.931330 0.000000 0.071530 
#    y 0.000000 1.917410 0.000000 
#    z 0.071530 0.000000 2.062070 
# 
# From -- ./inp_files/57695.got.cif
#   From: 2010.05.17/outbox.cif.g08.bks.cpg/sg15_29_cif.got.tgz:57695.got - 2010.06.03 18:47:42.
