data_PCOD9277733
_publ_section_title
;
Structure prediction by ZEFSAII (Michael W. Deem and Ramdas Pophale) SiO2 
 PCOD9277733
Probable space group: C 2/C
;
_chemical_formula_sum "Si O2"
_cell_formula_units_Z 44
_cell_length_a 13.550624
_cell_length_b 8.167246
_cell_length_c 17.663201
_cell_angle_alpha 90.000000
_cell_angle_beta 115.240988
_cell_angle_gamma 90.000000
_cell_volume 1768.168246
_symmetry_space_group_name_H-M "C 2/C"
_symmetry_group_IT_number 15
_symmetry_cell_setting 'monoclinic'
loop_
_space_group_symop_operation_xyz
x,y,z
-x,y,1/2-z
-x,-y,-z
x,-y,1/2+z
1/2+x,1/2+y,z
1/2-x,1/2+y,1/2-z
1/2-x,1/2-y,-z
1/2+x,1/2-y,1/2+z
loop_
_atom_site_type_symbol
_atom_site_label
_atom_site_fract_x
_atom_site_fract_y
_atom_site_fract_z
Si Si1 0.565762 0.732151 0.532236
Si Si2 0.000000 0.199682 0.750000
Si Si3 0.129685 0.321888 0.186985
Si Si4 0.700008 0.090213 0.323544
Si Si5 0.479726 0.480599 0.868147
Si Si6 0.587404 0.986790 0.943409
O O1 0.596669 0.602922 0.607200
O O2 0.544622 0.618270 0.452647
O O3 0.633597 0.885884 0.521547
O O4 0.458238 0.823057 0.531606
O O5 0.096900 0.312129 0.755169
O O6 0.954625 0.093228 0.666814
O O7 0.205474 0.227591 0.150347
O O8 0.196300 0.432632 0.266739
O O9 0.079697 0.153349 0.203697
O O10 0.024965 0.424519 0.123206
O O11 0.666183 0.041805 0.398087
#
# Coordination Sequence:
#
# PCOD9277733 Si02
#       6
#     8   4   8   8   8   8
#     4   9  19  39  66  92 134 178 230 266 338 414
#     4  12  22  38  70  94 132 176 228 268 356 392
#     4  11  24  40  64  98 139 164 233 280 335 402
#     4  12  23  42  64 101 135 178 221 289 339 404
#     4  10  21  37  64  98 127 175 224 278 329 408
#     4  10  20  41  68  90 134 186 219 278 341 404
#
# _framework density 24.884509999999999
#
# number of rings (size 3 to 8) (size 9 to 14) (size 15 to 20)
#    0.000    1.455    3.636    1.091    5.091    0.000 
#    0.000    9.091    0.000    0.000    0.000    0.000 
#    0.000    0.000    0.000    0.000    0.000    0.000 
#
# Total GULP energy -122550.268475 kJ/mol
# GULP energy per Si atom -5570.466749 kJ/mol
# Density = 2.482787 g / cm^3
# Si number density = 24.884510 Si / 1000 Ang^3
#
#
#
# Elastic Constant Matrix: (Units=GPa)
#
#
# Indices 1 2 3 4 5 6 
#
# 1 79.0149 32.5508 22.4167 0.0000 -21.6483 0.0000
# 2 32.5508 153.0316 63.1683 0.0000 -20.5209 0.0000
# 3 22.4167 63.1683 72.4262 0.0000 -27.9318 0.0000
# 4 0.0000 0.0000 0.0000 40.4425 0.0000 -12.6281
# 5 -21.6483 -20.5209 -27.9318 0.0000 45.7735 0.0000
# 6 0.0000 0.0000 0.0000 -12.6281 0.0000 36.3986
#
#
#
# Elastic Compliance Matrix: (Units=1/GPa)
#
#
# Indices 1 2 3 4 5 6 
#
# 1 0.015358 -0.002272 -0.000475 0.000000 0.005955 0.000000
# 2 -0.002272 0.010591 -0.009308 0.000000 -0.002006 0.000000
# 3 -0.000475 -0.009308 0.026647 0.000000 0.011863 0.000000
# 4 0.000000 0.000000 0.000000 0.027731 0.000000 0.009621
# 5 0.005955 -0.002006 0.011863 0.000000 0.031003 0.000000
# 6 0.000000 0.000000 0.000000 0.009621 0.000000 0.030811
#
#
# Mechanical properties :
#
#
# Convention : Reuss Voigt Hill
#
# Bulk Modulus (GPa) = 35.10449 60.08272 47.59361
# Shear Modulus (GPa) = 28.45013 36.94538 32.69775
#
# Velocity S-wave (km/s) = 3.38492 3.85733 3.62882
# Velocity P-wave (km/s) = 5.42351 6.63594 6.06012
#
# Compressibility (1/GPa) = 0.02848638
#
# Stress axis : x y z
#
# Youngs Moduli (GPa) = 65.11178 94.42146 37.52742
#
# Poissons Ratio (x) = 0.21453 0.01784
# Poissons Ratio (y) = 0.14794 0.34929
# Poissons Ratio (z) = 0.03095 0.87883
#
# Static dielectric constant tensor:
#      x y z
#    x 2.105020 0.000000 0.050600 
#    y 0.000000 1.997490 0.000000 
#    z 0.050600 0.000000 1.992790 
# 
# From -- ./inp_files/242077.got.cif
#   From: 2010.05.17/outbox.cif.g08.bks.cpg/sg15_122_cif.got.tgz:242077.got - 2010.06.03 18:47:42.
