data_PCOD9277458
_publ_section_title
;
Structure prediction by ZEFSAII (Michael W. Deem and Ramdas Pophale) SiO2 
 PCOD9277458
Probable space group: C 2/C
;
_chemical_formula_sum "Si O2"
_cell_formula_units_Z 56
_cell_length_a 15.765416
_cell_length_b 9.418365
_cell_length_c 21.604930
_cell_angle_alpha 90.000000
_cell_angle_beta 59.315811
_cell_angle_gamma 90.000000
_cell_volume 2758.854490
_symmetry_space_group_name_H-M "C 2/C"
_symmetry_group_IT_number 15
_symmetry_cell_setting 'monoclinic'
loop_
_space_group_symop_operation_xyz
x,y,z
-x,y,1/2-z
-x,-y,-z
x,-y,1/2+z
1/2+x,1/2+y,z
1/2-x,1/2+y,1/2-z
1/2-x,1/2-y,-z
1/2+x,1/2-y,1/2+z
loop_
_atom_site_type_symbol
_atom_site_label
_atom_site_fract_x
_atom_site_fract_y
_atom_site_fract_z
Si Si1 0.652133 0.886040 0.461324
Si Si2 0.998266 0.003346 0.075907
Si Si3 0.288541 0.130296 0.385248
Si Si4 0.663955 0.025379 0.816121
Si Si5 0.686762 0.338668 0.795776
Si Si6 0.278735 0.589127 0.498607
Si Si7 0.511124 0.184978 0.117409
O O1 0.708476 0.735936 0.445843
O O2 0.642181 0.926446 0.394201
O O3 0.552335 0.873634 0.536631
O O4 0.720384 0.998883 0.469733
O O5 0.984514 0.847721 0.111805
O O6 0.912149 0.101947 0.135448
O O7 0.000000 0.000000 0.000000
O O8 0.105614 0.063249 0.052390
O O9 0.268420 0.152185 0.320539
O O10 0.396740 0.171688 0.369479
O O11 0.258642 0.975590 0.421853
O O12 0.672122 0.177235 0.778796
O O13 0.767592 0.942768 0.772278
O O14 0.577846 0.916553 0.829555
O O15 0.250000 0.750000 0.500000
#
# Coordination Sequence:
#
# PCOD9277458 Si02
#       7
#     8   8   8   8   8   8   8
#     4  10  20  41  63  92 125 161 206 248 310 381
#     4  12  22  39  65  98 125 163 201 264 316 370
#     4  10  20  43  62  89 124 167 202 252 304 381
#     4  11  25  41  63  90 120 171 208 262 304 378
#     4  11  25  43  63  87 129 162 215 253 320 372
#     4  11  22  34  61  98 128 154 200 259 315 356
#     4  11  21  39  69  91 123 163 216 249 312 372
#
# _framework density 20.298279000000001
#
# number of rings (size 3 to 8) (size 9 to 14) (size 15 to 20)
#    0.000    1.143    4.286    3.000    6.000    1.714 
#    0.000    0.714    3.143    0.000    0.000    0.000 
#    0.000    0.000    0.000    0.000    0.000    0.000 
#
# Total GULP energy -156390.824201 kJ/mol
# GULP energy per Si atom -5585.386579 kJ/mol
# Density = 2.025208 g / cm^3
# Si number density = 20.298279 Si / 1000 Ang^3
#
#
#
# Elastic Constant Matrix: (Units=GPa)
#
#
# Indices 1 2 3 4 5 6 
#
# 1 40.5779 47.1075 8.2791 0.0000 -18.1565 0.0000
# 2 47.1075 172.8202 35.1762 0.0000 -26.9861 0.0000
# 3 8.2791 35.1762 47.5547 0.0000 -26.4903 0.0000
# 4 0.0000 0.0000 0.0000 24.2369 0.0000 -12.7525
# 5 -18.1565 -26.9861 -26.4903 0.0000 32.7014 0.0000
# 6 0.0000 0.0000 0.0000 -12.7525 0.0000 31.1767
#
#
#
# Elastic Compliance Matrix: (Units=1/GPa)
#
#
# Indices 1 2 3 4 5 6 
#
# 1 0.049520 -0.012196 0.018423 0.000000 0.032354 0.000000
# 2 -0.012196 0.009960 -0.008087 0.000000 -0.005103 0.000000
# 3 0.018423 -0.008087 0.046985 0.000000 0.041616 0.000000
# 4 0.000000 0.000000 0.000000 0.052575 0.000000 0.021505
# 5 0.032354 -0.005103 0.041616 0.000000 0.078044 0.000000
# 6 0.000000 0.000000 0.000000 0.021505 0.000000 0.040872
#
#
# Mechanical properties :
#
#
# Convention : Reuss Voigt Hill
#
# Bulk Modulus (GPa) = 9.73278 49.11984 29.42631
# Shear Modulus (GPa) = 15.82658 28.98234 22.40446
#
# Velocity S-wave (km/s) = 2.79534 3.78275 3.32589
# Velocity P-wave (km/s) = 3.90178 6.58259 5.41084
#
# Compressibility (1/GPa) = 0.10274555
#
# Stress axis : x y z
#
# Youngs Moduli (GPa) = 20.19372 100.40250 21.28330
#
# Poissons Ratio (x) = 1.22451 -0.39210
# Poissons Ratio (y) = 0.24628 0.17211
# Poissons Ratio (z) = -0.37202 0.81193
#
# Static dielectric constant tensor:
#      x y z
#    x 1.719700 0.000000 0.024740 
#    y 0.000000 1.720880 0.000000 
#    z 0.024740 0.000000 1.741450 
# 
# From -- ./inp_files/242820.got.cif
#   From: 2010.05.17/outbox.cif.g08.bks.cpg/sg15_122_cif.got.tgz:242820.got - 2010.06.03 18:47:42.
