data_PCOD9277550
_publ_section_title
;
Structure prediction by ZEFSAII (Michael W. Deem and Ramdas Pophale) SiO2 
 PCOD9277550
Probable space group: C 2/C
;
_chemical_formula_sum "Si O2"
_cell_formula_units_Z 64
_cell_length_a 26.094404
_cell_length_b 19.341312
_cell_length_c 15.083426
_cell_angle_alpha 90.000000
_cell_angle_beta 156.688134
_cell_angle_gamma 90.000000
_cell_volume 3012.579702
_symmetry_space_group_name_H-M "C 2/C"
_symmetry_group_IT_number 15
_symmetry_cell_setting 'monoclinic'
loop_
_space_group_symop_operation_xyz
x,y,z
-x,y,1/2-z
-x,-y,-z
x,-y,1/2+z
1/2+x,1/2+y,z
1/2-x,1/2+y,1/2-z
1/2-x,1/2-y,-z
1/2+x,1/2-y,1/2+z
loop_
_atom_site_type_symbol
_atom_site_label
_atom_site_fract_x
_atom_site_fract_y
_atom_site_fract_z
Si Si1 0.465381 0.320047 0.459016
Si Si2 0.979857 0.272292 0.616493
Si Si3 0.125306 0.969001 0.154826
Si Si4 0.827823 0.776581 0.410477
Si Si5 0.697948 0.432080 0.087306
Si Si6 0.766955 0.316994 0.965519
Si Si7 0.695355 0.036309 0.922321
Si Si8 0.988983 0.429179 0.626913
O O1 0.457781 0.278640 0.355738
O O2 0.375524 0.387714 0.321776
O O3 0.419024 0.275144 0.469666
O O4 0.617532 0.339684 0.709808
O O5 0.824621 0.275290 0.356183
O O6 0.000000 0.251924 0.750000
O O7 0.032736 0.349752 0.684977
O O8 0.120222 0.971326 0.040469
O O9 0.241734 0.009066 0.386625
O O10 0.000000 0.000000 0.000000
O O11 0.847605 0.851875 0.488229
O O12 0.840033 0.712524 0.496001
O O13 0.705932 0.465173 0.003522
O O14 0.843427 0.432328 0.358856
O O15 0.750000 0.250000 0.000000
O O16 0.837141 0.382643 0.119420
O O17 0.576267 0.985634 0.717280
O O18 0.000000 0.442154 0.750000
#
# Coordination Sequence:
#
# PCOD9277550 Si02
#       8
#     8   8   8   8   8   8   8   8
#     4  10  22  42  64  87 126 165 206 253 311 371
#     4   9  20  39  63  90 122 160 207 253 300 367
#     4  11  23  43  61  89 129 169 209 253 311 378
#     4   9  20  40  63  88 120 162 202 253 310 363
#     4  10  21  41  66  87 124 167 206 253 319 373
#     4  11  22  42  63  91 123 156 210 260 306 368
#     4  12  23  41  65  94 127 165 207 259 312 373
#     4  10  20  41  65  90 126 163 202 260 321 365
#
# _framework density 21.244250000000001
#
# number of rings (size 3 to 8) (size 9 to 14) (size 15 to 20)
#    0.000    1.750    3.750    0.375    1.750    1.500 
#    6.750    0.000    0.000    0.000    0.000    0.000 
#    0.000    0.000    0.000    0.000    0.000    0.000 
#
# Total GULP energy -178752.501135 kJ/mol
# GULP energy per Si atom -5586.015660 kJ/mol
# Density = 2.119590 g / cm^3
# Si number density = 21.244250 Si / 1000 Ang^3
#
#
#
# Elastic Constant Matrix: (Units=GPa)
#
#
# Indices 1 2 3 4 5 6 
#
# 1 138.1951 63.6859 -2.9485 0.0000 0.1061 0.0000
# 2 63.6859 78.2240 15.6226 0.0000 -0.2726 0.0000
# 3 -2.9485 15.6226 35.4357 0.0000 1.7554 0.0000
# 4 0.0000 0.0000 0.0000 23.5289 0.0000 2.5291
# 5 0.1061 -0.2726 1.7554 0.0000 22.9170 0.0000
# 6 0.0000 0.0000 0.0000 2.5291 0.0000 31.4920
#
#
#
# Elastic Compliance Matrix: (Units=1/GPa)
#
#
# Indices 1 2 3 4 5 6 
#
# 1 0.012709 -0.011587 0.006199 0.000000 -0.000672 0.000000
# 2 -0.011587 0.024592 -0.011868 0.000000 0.001255 0.000000
# 3 0.006199 -0.011868 0.034106 0.000000 -0.002782 0.000000
# 4 0.000000 0.000000 0.000000 0.042871 0.000000 -0.003443
# 5 -0.000672 0.001255 -0.002782 0.000000 0.043867 0.000000
# 6 0.000000 0.000000 0.000000 -0.003443 0.000000 0.032031
#
#
# Mechanical properties :
#
#
# Convention : Reuss Voigt Hill
#
# Bulk Modulus (GPa) = 27.10430 44.95273 36.02851
# Shear Modulus (GPa) = 21.09820 27.28721 24.19270
#
# Velocity S-wave (km/s) = 3.15481 3.58781 3.37825
# Velocity P-wave (km/s) = 5.10456 6.19428 5.67563
#
# Compressibility (1/GPa) = 0.03689452
#
# Stress axis : x y z
#
# Youngs Moduli (GPa) = 78.68536 40.66314 29.32013
#
# Poissons Ratio (x) = 0.47118 -0.18176
# Poissons Ratio (y) = 0.91175 0.34798
# Poissons Ratio (z) = -0.48779 0.48261
#
# Static dielectric constant tensor:
#      x y z
#    x 1.782650 0.000000 -0.010260 
#    y 0.000000 1.775240 0.000000 
#    z -0.010260 0.000000 1.813690 
# 
# From -- ./inp_files/155213.got.cif
#   From: 2010.05.17/outbox.cif.g08.bks.cpg/sg15_78_cif.got.tgz:155213.got - 2010.06.03 18:47:42.
