data_PCOD9277128
_publ_section_title
;
Structure prediction by ZEFSAII (Michael W. Deem and Ramdas Pophale) SiO2 
 PCOD9277128
Probable space group: C 2/C
;
_chemical_formula_sum "Si O2"
_cell_formula_units_Z 40
_cell_length_a 13.146466
_cell_length_b 10.446242
_cell_length_c 18.318903
_cell_angle_alpha 90.000000
_cell_angle_beta 138.743696
_cell_angle_gamma 90.000000
_cell_volume 1658.961483
_symmetry_space_group_name_H-M "C 2/C"
_symmetry_group_IT_number 15
_symmetry_cell_setting 'monoclinic'
loop_
_space_group_symop_operation_xyz
x,y,z
-x,y,1/2-z
-x,-y,-z
x,-y,1/2+z
1/2+x,1/2+y,z
1/2-x,1/2+y,1/2-z
1/2-x,1/2-y,-z
1/2+x,1/2-y,1/2+z
loop_
_atom_site_type_symbol
_atom_site_label
_atom_site_fract_x
_atom_site_fract_y
_atom_site_fract_z
Si Si1 0.770031 0.286854 0.392365
Si Si2 0.152495 0.050155 0.293443
Si Si3 0.468841 0.558198 0.063031
Si Si4 0.169567 0.423197 0.933016
Si Si5 0.573025 0.160944 0.964174
O O1 0.656477 0.399290 0.309086
O O2 0.857909 0.326085 0.515255
O O3 0.679476 0.155794 0.362489
O O4 0.904625 0.305960 0.405664
O O5 0.309566 0.104527 0.411987
O O6 0.000000 0.107721 0.250000
O O7 0.125093 0.069341 0.193216
O O8 0.378043 0.692451 0.021400
O O9 0.500000 0.500000 0.000000
O O10 0.348943 0.464574 0.037437
O O11 0.074410 0.553056 0.900864
#
# Coordination Sequence:
#
# PCOD9277128 Si02
#       5
#     8   8   8   8   8
#     4  10  21  42  70  99 137 185 237 294 362 429
#     4  11  23  42  71  98 137 196 235 290 365 435
#     4  12  24  43  68 103 144 185 235 300 362 429
#     4  10  20  40  68  93 136 184 225 296 358 414
#     4  11  23  43  72 101 146 185 242 297 360 437
#
# _framework density 24.111470000000001
#
# number of rings (size 3 to 8) (size 9 to 14) (size 15 to 20)
#    0.000    1.200    6.000    3.000    0.000    1.600 
#    0.000    2.000    4.400    0.000    0.000    0.000 
#    0.000    0.000    0.000    0.000    0.000    0.000 
#
# Total GULP energy -111402.464298 kJ/mol
# GULP energy per Si atom -5570.123215 kJ/mol
# Density = 2.405659 g / cm^3
# Si number density = 24.111470 Si / 1000 Ang^3
#
#
#
# Elastic Constant Matrix: (Units=GPa)
#
#
# Indices 1 2 3 4 5 6 
#
# 1 134.5361 56.9613 25.3269 0.0000 -0.5928 0.0000
# 2 56.9613 183.3362 42.6470 0.0000 -11.1784 0.0000
# 3 25.3269 42.6470 80.7659 0.0000 -5.5957 0.0000
# 4 0.0000 0.0000 0.0000 24.7126 0.0000 0.8289
# 5 -0.5928 -11.1784 -5.5957 0.0000 29.2821 0.0000
# 6 0.0000 0.0000 0.0000 0.8289 0.0000 45.9541
#
#
#
# Elastic Compliance Matrix: (Units=1/GPa)
#
#
# Indices 1 2 3 4 5 6 
#
# 1 0.008743 -0.002423 -0.001534 0.000000 -0.001041 0.000000
# 2 -0.002423 0.006982 -0.002782 0.000000 0.002084 0.000000
# 3 -0.001534 -0.002782 0.014447 0.000000 0.001668 0.000000
# 4 0.000000 0.000000 0.000000 0.040490 0.000000 -0.000730
# 5 -0.001041 0.002084 0.001668 0.000000 0.035244 0.000000
# 6 0.000000 0.000000 0.000000 -0.000730 0.000000 0.021774
#
#
# Mechanical properties :
#
#
# Convention : Reuss Voigt Hill
#
# Bulk Modulus (GPa) = 59.90672 72.05652 65.98162
# Shear Modulus (GPa) = 34.07783 38.23664 36.15724
#
# Velocity S-wave (km/s) = 3.76353 3.98657 3.87665
# Velocity P-wave (km/s) = 6.61704 7.15122 6.88931
#
# Compressibility (1/GPa) = 0.01669262
#
# Stress axis : x y z
#
# Youngs Moduli (GPa) = 114.37612 143.23456 69.21715
#
# Poissons Ratio (x) = 0.34705 0.10621
# Poissons Ratio (y) = 0.27713 0.19258
# Poissons Ratio (z) = 0.17550 0.39852
#
# Static dielectric constant tensor:
#      x y z
#    x 2.138480 0.000000 -0.041310 
#    y 0.000000 2.607010 0.000000 
#    z -0.041310 0.000000 1.908850 
# 
# From -- ./inp_files/243504.got.cif
#   From: 2010.05.17/outbox.cif.g08.bks.cpg/sg15_122_cif.got.tgz:243504.got - 2010.06.03 18:47:42.
