data_PCOD9277422
_publ_section_title
;
Structure prediction by ZEFSAII (Michael W. Deem and Ramdas Pophale) SiO2 
 PCOD9277422
Probable space group: C 2/C
;
_chemical_formula_sum "Si O2"
_cell_formula_units_Z 48
_cell_length_a 25.248082
_cell_length_b 18.569340
_cell_length_c 8.161721
_cell_angle_alpha 90.000000
_cell_angle_beta 146.931941
_cell_angle_gamma 90.000000
_cell_volume 2087.895320
_symmetry_space_group_name_H-M "C 2/C"
_symmetry_group_IT_number 15
_symmetry_cell_setting 'monoclinic'
loop_
_space_group_symop_operation_xyz
x,y,z
-x,y,1/2-z
-x,-y,-z
x,-y,1/2+z
1/2+x,1/2+y,z
1/2-x,1/2+y,1/2-z
1/2-x,1/2-y,-z
1/2+x,1/2-y,1/2+z
loop_
_atom_site_type_symbol
_atom_site_label
_atom_site_fract_x
_atom_site_fract_y
_atom_site_fract_z
Si Si1 0.184770 0.787804 0.471942
Si Si2 0.500000 0.006344 0.750000
Si Si3 0.982785 0.157103 0.382269
Si Si4 0.763485 0.830123 0.362537
Si Si5 0.859451 0.444613 0.638953
Si Si6 0.000000 0.941061 0.250000
Si Si7 0.786839 0.925134 0.748387
O O1 0.250000 0.750000 0.500000
O O2 0.202498 0.742581 0.684860
O O3 0.207248 0.870792 0.581085
O O4 0.071371 0.787278 0.130736
O O5 0.415579 0.055426 0.455192
O O6 0.447815 0.953644 0.741849
O O7 0.988647 0.105189 0.553741
O O8 0.000000 0.120348 0.250000
O O9 0.874482 0.187448 0.105128
O O10 0.766078 0.875571 0.535709
O O11 0.711914 0.881422 0.095463
O O12 0.796890 0.516904 0.462492
O O13 0.110548 0.968174 0.510135
#
# Coordination Sequence:
#
# PCOD9277422 Si02
#       7
#     8   4   8   8   8   4   8
#     4  11  23  40  65  99 134 177 226 277 336 397
#     4  10  24  44  65 100 135 170 230 280 328 416
#     4  10  20  41  62  93 139 167 230 275 328 408
#     4  11  23  44  67  97 131 182 219 280 345 405
#     4  11  23  45  69  97 135 175 227 279 340 404
#     4   8  20  38  65  96 133 176 218 274 344 396
#     4  10  22  44  67  97 137 175 223 283 337 410
#
# _framework density 22.989657999999999
#
# number of rings (size 3 to 8) (size 9 to 14) (size 15 to 20)
#    0.000    1.667    3.333    0.500    2.333    0.000 
#    9.000    7.500    0.000    0.000    0.000    0.000 
#    0.000    0.000    0.000    0.000    0.000    0.000 
#
# Total GULP energy -133939.777772 kJ/mol
# GULP energy per Si atom -5580.824074 kJ/mol
# Density = 2.293733 g / cm^3
# Si number density = 22.989658 Si / 1000 Ang^3
#
#
#
# Elastic Constant Matrix: (Units=GPa)
#
#
# Indices 1 2 3 4 5 6 
#
# 1 82.8866 8.7231 19.4725 0.0000 9.4665 0.0000
# 2 8.7231 73.3377 38.6434 0.0000 15.1982 0.0000
# 3 19.4725 38.6434 157.2479 0.0000 15.3460 0.0000
# 4 0.0000 0.0000 0.0000 24.8536 0.0000 4.5894
# 5 9.4665 15.1982 15.3460 0.0000 41.4087 0.0000
# 6 0.0000 0.0000 0.0000 4.5894 0.0000 16.2880
#
#
#
# Elastic Compliance Matrix: (Units=1/GPa)
#
#
# Indices 1 2 3 4 5 6 
#
# 1 0.012660 -0.000370 -0.001253 0.000000 -0.002294 0.000000
# 2 -0.000370 0.016521 -0.003559 0.000000 -0.004660 0.000000
# 3 -0.001253 -0.003559 0.007505 0.000000 -0.001189 0.000000
# 4 0.000000 0.000000 0.000000 0.042444 0.000000 -0.011959
# 5 -0.002294 -0.004660 -0.001189 0.000000 0.026825 0.000000
# 6 0.000000 0.000000 0.000000 -0.011959 0.000000 0.064764
#
#
# Mechanical properties :
#
#
# Convention : Reuss Voigt Hill
#
# Bulk Modulus (GPa) = 37.99239 49.68336 43.83788
# Shear Modulus (GPa) = 26.33548 32.95229 29.64388
#
# Velocity S-wave (km/s) = 3.38825 3.79007 3.59478
# Velocity P-wave (km/s) = 5.64524 6.38834 6.02825
#
# Compressibility (1/GPa) = 0.02632106
#
# Stress axis : x y z
#
# Youngs Moduli (GPa) = 78.98914 60.52975 133.24033
#
# Poissons Ratio (x) = 0.02241 0.16693
# Poissons Ratio (y) = 0.02925 0.47425
# Poissons Ratio (z) = 0.09896 0.21545
#
# Static dielectric constant tensor:
#      x y z
#    x 1.905030 0.000000 -0.045820 
#    y 0.000000 1.856760 0.000000 
#    z -0.045820 0.000000 1.862700 
# 
# From -- ./inp_files/67560.got.cif
#   From: 2010.05.17/outbox.cif.g08.bks.cpg/sg15_34_cif.got.tgz:67560.got - 2010.06.03 18:47:42.
