data_PCOD9277861
_publ_section_title
;
Structure prediction by ZEFSAII (Michael W. Deem and Ramdas Pophale) SiO2 
 PCOD9277861
Probable space group: C 2/C
;
_chemical_formula_sum "Si O2"
_cell_formula_units_Z 48
_cell_length_a 27.372751
_cell_length_b 14.391367
_cell_length_c 11.181701
_cell_angle_alpha 90.000000
_cell_angle_beta 149.216704
_cell_angle_gamma 90.000000
_cell_volume 2254.354557
_symmetry_space_group_name_H-M "C 2/C"
_symmetry_group_IT_number 15
_symmetry_cell_setting 'monoclinic'
loop_
_space_group_symop_operation_xyz
x,y,z
-x,y,1/2-z
-x,-y,-z
x,-y,1/2+z
1/2+x,1/2+y,z
1/2-x,1/2+y,1/2-z
1/2-x,1/2-y,-z
1/2+x,1/2-y,1/2+z
loop_
_atom_site_type_symbol
_atom_site_label
_atom_site_fract_x
_atom_site_fract_y
_atom_site_fract_z
Si Si1 0.463472 0.619018 0.541307
Si Si2 0.111938 0.801163 0.974246
Si Si3 0.996093 0.582985 0.891801
Si Si4 0.139623 0.740534 0.795991
Si Si5 0.138771 0.941756 0.243509
Si Si6 0.299556 0.168469 0.181162
O O1 0.500000 0.599331 0.750000
O O2 0.424896 0.723608 0.448576
O O3 0.380506 0.546025 0.335707
O O4 0.551196 0.597607 0.637416
O O5 0.136730 0.882451 0.116909
O O6 0.184891 0.717506 0.158738
O O7 0.122712 0.821081 0.859385
O O8 0.000000 0.776133 0.750000
O O9 0.906050 0.647384 0.742690
O O10 0.000000 0.563069 0.750000
O O11 0.000000 0.500000 0.000000
O O12 0.092111 0.642026 0.121596
O O13 0.250000 0.750000 0.000000
O O14 0.233125 0.919739 0.518423
O O15 0.250000 0.250000 0.000000
#
# Coordination Sequence:
#
# PCOD9277861 Si02
#       6
#     8   8   8   8   8   8
#     4  11  25  41  64 103 146 172 231 306 355 422
#     4  11  18  43  72  93 135 188 232 282 351 433
#     4  12  27  53  76 108 151 199 251 313 373 450
#     4  12  26  45  71 104 141 191 238 298 369 438
#     4  10  23  40  68 101 132 184 234 286 361 424
#     4  10  20  41  75  99 132 193 246 283 363 443
#
# _framework density 21.292124999999999
#
# number of rings (size 3 to 8) (size 9 to 14) (size 15 to 20)
#    0.000    1.000    5.000    1.500    7.000    0.667 
#    6.000    0.000    0.000    0.000    0.000    0.000 
#    0.000    0.000    0.000    0.000    0.000    0.000 
#
# Total GULP energy -133602.161690 kJ/mol
# GULP energy per Si atom -5566.756737 kJ/mol
# Density = 2.124366 g / cm^3
# Si number density = 21.292125 Si / 1000 Ang^3
#
#
#
# Elastic Constant Matrix: (Units=GPa)
#
#
# Indices 1 2 3 4 5 6 
#
# 1 89.5144 48.7822 36.4552 0.0000 5.1318 0.0000
# 2 48.7822 83.9542 41.7397 0.0000 -18.9455 0.0000
# 3 36.4552 41.7397 125.2643 0.0000 -3.0556 0.0000
# 4 0.0000 0.0000 0.0000 37.0900 0.0000 -0.8123
# 5 5.1318 -18.9455 -3.0556 0.0000 33.0927 0.0000
# 6 0.0000 0.0000 0.0000 -0.8123 0.0000 26.5498
#
#
#
# Elastic Compliance Matrix: (Units=1/GPa)
#
#
# Indices 1 2 3 4 5 6 
#
# 1 0.019453 -0.012871 -0.001630 0.000000 -0.010536 0.000000
# 2 -0.012871 0.025096 -0.004227 0.000000 0.015973 0.000000
# 3 -0.001630 -0.004227 0.009835 0.000000 -0.001259 0.000000
# 4 0.000000 0.000000 0.000000 0.026980 0.000000 0.000825
# 5 -0.010536 0.015973 -0.001259 0.000000 0.040880 0.000000
# 6 0.000000 0.000000 0.000000 0.000825 0.000000 0.037690
#
#
# Mechanical properties :
#
#
# Convention : Reuss Voigt Hill
#
# Bulk Modulus (GPa) = 59.06815 61.40969 60.23892
# Shear Modulus (GPa) = 24.62666 30.79689 27.71177
#
# Velocity S-wave (km/s) = 3.40458 3.80728 3.61155
# Velocity P-wave (km/s) = 6.57700 6.94488 6.76344
#
# Compressibility (1/GPa) = 0.01692960
#
# Stress axis : x y z
#
# Youngs Moduli (GPa) = 51.40563 39.84714 101.67592
#
# Poissons Ratio (x) = 0.51286 0.16570
# Poissons Ratio (y) = 0.66162 0.42978
# Poissons Ratio (z) = 0.08378 0.16843
#
# Static dielectric constant tensor:
#      x y z
#    x 1.795090 0.000000 -0.022800 
#    y 0.000000 1.840270 0.000000 
#    z -0.022800 0.000000 1.850870 
# 
# From -- ./inp_files/123576.got.cif
#   From: 2010.05.17/outbox.cif.g08.bks.cpg/sg15_62_cif.got.tgz:123576.got - 2010.06.03 18:47:42.
