data_PCOD9277059
_publ_section_title
;
Structure prediction by ZEFSAII (Michael W. Deem and Ramdas Pophale) SiO2 
 PCOD9277059
Probable space group: C 2/C
;
_chemical_formula_sum "Si O2"
_cell_formula_units_Z 56
_cell_length_a 27.113598
_cell_length_b 14.320192
_cell_length_c 8.199939
_cell_angle_alpha 90.000000
_cell_angle_beta 139.230666
_cell_angle_gamma 90.000000
_cell_volume 2079.074276
_symmetry_space_group_name_H-M "C 2/C"
_symmetry_group_IT_number 15
_symmetry_cell_setting 'monoclinic'
loop_
_space_group_symop_operation_xyz
x,y,z
-x,y,1/2-z
-x,-y,-z
x,-y,1/2+z
1/2+x,1/2+y,z
1/2-x,1/2+y,1/2-z
1/2-x,1/2-y,-z
1/2+x,1/2-y,1/2+z
loop_
_atom_site_type_symbol
_atom_site_label
_atom_site_fract_x
_atom_site_fract_y
_atom_site_fract_z
Si Si1 0.336829 0.697713 0.075023
Si Si2 0.495012 0.603991 0.542019
Si Si3 0.000000 0.356706 0.750000
Si Si4 0.880829 0.415323 0.197709
Si Si5 0.089970 0.735959 0.206051
Si Si6 0.781751 0.064808 0.212852
Si Si7 0.686029 0.372920 0.333241
Si Si8 0.500000 0.904426 0.250000
O O1 0.421919 0.656791 0.293997
O O2 0.351629 0.808726 0.103809
O O3 0.299557 0.655382 0.145300
O O4 0.296522 0.656480 0.815227
O O5 0.500000 0.610465 0.750000
O O6 0.500000 0.500000 0.500000
O O7 0.564432 0.655536 0.624374
O O8 0.062113 0.293496 0.812829
O O9 0.947117 0.412226 0.495591
O O10 0.929819 0.449920 0.168422
O O11 0.804273 0.470648 0.037253
O O12 0.171199 0.760724 0.349889
O O13 0.044323 0.665119 0.982102
O O14 0.786239 0.091513 0.414859
O O15 0.836017 0.981999 0.285416
#
# Coordination Sequence:
#
# PCOD9277059 Si02
#       8
#     8   8   4   8   8   8   8   4
#     4  12  24  44  66 103 141 191 231 279 352 421
#     4  12  24  31  54  92 137 181 222 270 329 399
#     4  10  20  42  73 103 132 178 230 300 352 410
#     4  11  23  45  71 104 138 176 235 294 356 412
#     4  11  19  38  60  95 134 177 225 281 332 406
#     4  12  27  45  66 100 146 191 231 286 343 429
#     4  12  25  43  69  95 140 191 236 279 349 415
#     4  10  20  40  67  97 130 168 226 286 344 396
#
# _framework density 26.935064000000001
#
# number of rings (size 3 to 8) (size 9 to 14) (size 15 to 20)
#    0.000    0.571    6.429    3.000    5.000    0.571 
#    5.143    0.000    0.000    2.571    0.000    0.000 
#    0.000    0.000    0.000    0.000    0.000    0.000 
#
# Total GULP energy -156045.822651 kJ/mol
# GULP energy per Si atom -5573.065095 kJ/mol
# Density = 2.687376 g / cm^3
# Si number density = 26.935064 Si / 1000 Ang^3
#
#
#
# Elastic Constant Matrix: (Units=GPa)
#
#
# Indices 1 2 3 4 5 6 
#
# 1 135.5563 29.8824 35.7918 0.0000 -8.3574 0.0000
# 2 29.8824 89.2576 16.3321 0.0000 -20.9966 0.0000
# 3 35.7918 16.3321 95.2618 0.0000 -9.2781 0.0000
# 4 0.0000 0.0000 0.0000 -1.5434 0.0000 58.6052
# 5 -8.3574 -20.9966 -9.2781 0.0000 78.5918 0.0000
# 6 0.0000 0.0000 0.0000 58.6052 0.0000 -113.5229
#
#
#
# Elastic Compliance Matrix: (Units=1/GPa)
#
#
# Indices 1 2 3 4 5 6 
#
# 1 0.008652 -0.002388 -0.002846 0.000000 -0.000054 0.000000
# 2 -0.002388 0.012913 -0.001017 0.000000 0.003076 0.000000
# 3 -0.002846 -0.001017 0.011821 0.000000 0.000821 0.000000
# 4 0.000000 0.000000 0.000000 0.034830 0.000000 0.017981
# 5 -0.000054 0.003076 0.000821 0.000000 0.013637 0.000000
# 6 0.000000 0.000000 0.000000 0.017981 0.000000 0.000474
#
#
# Mechanical properties :
#
#
# Convention : Reuss Voigt Hill
#
# Bulk Modulus (GPa) = 47.88759 53.78756 50.83758
# Shear Modulus (GPa) = 49.12074 8.57639 28.84857
#
# Velocity S-wave (km/s) = 4.27508 1.78634 3.27623
# Velocity P-wave (km/s) = 6.49507 4.92619 5.76426
#
# Compressibility (1/GPa) = 0.02088224
#
# Stress axis : x y z
#
# Youngs Moduli (GPa) = 115.58373 77.44301 84.59405
#
# Poissons Ratio (x) = 0.18496 0.24079
# Poissons Ratio (y) = 0.27606 0.08602
# Poissons Ratio (z) = 0.32900 0.07875
#
# Static dielectric constant tensor:
#      x y z
#    x 1.398310 0.000000 -0.518910 
#    y 0.000000 2.253350 0.000000 
#    z -0.518910 0.000000 1.698270 
# 
# From -- ./inp_files/67234.got.cif
#   From: 2010.05.17/outbox.cif.g08.bks.cpg/sg15_34_cif.got.tgz:67234.got - 2010.06.03 18:47:42.
