data_PCOD9277898
_publ_section_title
;
Structure prediction by ZEFSAII (Michael W. Deem and Ramdas Pophale) SiO2 
 PCOD9277898
Probable space group: C 2/C
;
_chemical_formula_sum "Si O2"
_cell_formula_units_Z 60
_cell_length_a 24.163665
_cell_length_b 7.291627
_cell_length_c 32.365031
_cell_angle_alpha 90.000000
_cell_angle_beta 27.535779
_cell_angle_gamma 90.000000
_cell_volume 2636.267353
_symmetry_space_group_name_H-M "C 2/C"
_symmetry_group_IT_number 15
_symmetry_cell_setting 'monoclinic'
loop_
_space_group_symop_operation_xyz
x,y,z
-x,y,1/2-z
-x,-y,-z
x,-y,1/2+z
1/2+x,1/2+y,z
1/2-x,1/2+y,1/2-z
1/2-x,1/2-y,-z
1/2+x,1/2-y,1/2+z
loop_
_atom_site_type_symbol
_atom_site_label
_atom_site_fract_x
_atom_site_fract_y
_atom_site_fract_z
Si Si1 0.784332 0.075497 0.949294
Si Si2 0.455216 0.807049 0.511372
Si Si3 0.708829 0.528391 0.143438
Si Si4 0.612343 0.136708 0.834564
Si Si5 0.471343 0.619464 0.673927
Si Si6 0.393431 0.705949 0.639516
Si Si7 0.541867 0.953684 0.135841
Si Si8 0.000000 0.289086 0.250000
O O1 0.916082 0.021670 0.878138
O O2 0.778271 0.110395 0.904045
O O3 0.750000 0.250000 0.000000
O O4 0.675803 0.937347 0.029492
O O5 0.328568 0.861051 0.574637
O O6 0.550536 0.754146 0.413100
O O7 0.437234 0.681019 0.563570
O O8 0.500000 0.000000 0.500000
O O9 0.651262 0.434112 0.221787
O O10 0.610590 0.667685 0.191432
O O11 0.752251 0.169275 0.736886
O O12 0.591836 0.922356 0.859485
O O13 0.545784 0.164733 0.835045
O O14 0.459581 0.597797 0.632539
O O15 0.496942 0.835782 0.663266
O O16 0.539943 0.905289 0.184607
#
# Coordination Sequence:
#
# PCOD9277898 Si02
#       8
#     8   8   8   8   8   8   8   4
#     4  10  21  38  64  90 121 160 215 263 305 366
#     4  10  21  38  65  90 119 161 204 253 311 374
#     4  12  22  42  64  93 122 167 216 250 312 387
#     4  10  20  42  61  90 124 161 206 254 310 370
#     4  10  21  39  63  92 123 163 213 260 299 373
#     4  10  21  38  64  93 122 162 205 256 313 370
#     4  10  23  40  60  89 132 161 205 261 316 368
#     4  12  26  38  60  92 128 172 196 256 330 372
#
# _framework density 22.759452
#
# number of rings (size 3 to 8) (size 9 to 14) (size 15 to 20)
#    0.000    1.600    2.667    2.400    5.600    0.533 
#    0.000    0.667    0.000    0.000    0.000    0.000 
#    0.000    0.000    0.000    0.000    0.000    0.000 
#
# Total GULP energy -167715.416540 kJ/mol
# GULP energy per Si atom -5590.513885 kJ/mol
# Density = 2.270765 g / cm^3
# Si number density = 22.759452 Si / 1000 Ang^3
#
#
#
# Elastic Constant Matrix: (Units=GPa)
#
#
# Indices 1 2 3 4 5 6 
#
# 1 123.1188 13.9500 15.2225 -0.0429 21.5203 0.2676
# 2 13.9500 39.3168 -0.8558 -0.0281 12.2895 0.0628
# 3 15.2225 -0.8558 58.6031 -0.0474 26.7928 0.0385
# 4 -0.0429 -0.0281 -0.0474 23.5993 -0.0201 4.0022
# 5 21.5203 12.2895 26.7928 -0.0201 48.8347 0.0029
# 6 0.2676 0.0628 0.0385 4.0022 0.0029 32.5654
#
#
#
# Elastic Compliance Matrix: (Units=1/GPa)
#
#
# Indices 1 2 3 4 5 6 
#
# 1 0.009010 -0.002355 -0.001109 0.000021 -0.002770 -0.000071
# 2 -0.002355 0.029262 0.005248 0.000041 -0.009205 -0.000048
# 3 -0.001109 0.005248 0.023772 0.000046 -0.013874 -0.000033
# 4 0.000021 0.000041 0.000046 0.043276 -0.000027 -0.005319
# 5 -0.002770 -0.009205 -0.013874 -0.000027 0.031626 0.000057
# 6 -0.000071 -0.000048 -0.000033 -0.005319 0.000057 0.031362
#
#
# Mechanical properties :
#
#
# Convention : Reuss Voigt Hill
#
# Bulk Modulus (GPa) = 15.24121 30.85246 23.04684
# Shear Modulus (GPa) = 26.79368 33.84802 30.32085
#
# Velocity S-wave (km/s) = 3.43484 3.86062 3.65393
# Velocity P-wave (km/s) = 4.73730 5.78427 5.28677
#
# Compressibility (1/GPa) = 0.06561157
#
# Stress axis : x y z
#
# Youngs Moduli (GPa) = 110.98223 34.17443 42.06668
#
# Poissons Ratio (x) = 0.08049 0.04663
# Poissons Ratio (y) = 0.26139 -0.22075
# Poissons Ratio (z) = 0.12303 -0.17933
#
# Static dielectric constant tensor:
#      x y z
#    x 1.857220 -0.000110 0.029710 
#    y -0.000110 1.899790 -0.000010 
#    z 0.029710 -0.000010 1.872700 
# 
# From -- ./inp_files/303110.got.cif
#   From: 2010.05.17/outbox.cif.g08.bks.cpg/sg15_152_cif.got.tgz:303110.got - 2010.06.03 18:47:42.
