data_PCOD9277978
_publ_section_title
;
Structure prediction by ZEFSAII (Michael W. Deem and Ramdas Pophale) SiO2 
 PCOD9277978
Probable space group: C 2/C
;
_chemical_formula_sum "Si O2"
_cell_formula_units_Z 48
_cell_length_a 12.359194
_cell_length_b 14.234784
_cell_length_c 29.351147
_cell_angle_alpha 90.000000
_cell_angle_beta 25.671540
_cell_angle_gamma 90.000000
_cell_volume 2237.000250
_symmetry_space_group_name_H-M "C 2/C"
_symmetry_group_IT_number 15
_symmetry_cell_setting 'monoclinic'
loop_
_space_group_symop_operation_xyz
x,y,z
-x,y,1/2-z
-x,-y,-z
x,-y,1/2+z
1/2+x,1/2+y,z
1/2-x,1/2+y,1/2-z
1/2-x,1/2-y,-z
1/2+x,1/2-y,1/2+z
loop_
_atom_site_type_symbol
_atom_site_label
_atom_site_fract_x
_atom_site_fract_y
_atom_site_fract_z
Si Si1 0.760925 0.496746 0.769528
Si Si2 0.240999 0.395026 0.985357
Si Si3 0.000000 0.500000 0.000000
Si Si4 0.813831 0.799981 0.048731
Si Si5 0.525752 0.630591 0.685940
Si Si6 0.000000 0.633524 0.750000
Si Si7 0.603323 0.162308 0.159069
O O1 0.524543 0.430417 0.870773
O O2 0.672574 0.561499 0.761628
O O3 0.820786 0.565311 0.788942
O O4 0.995036 0.427223 0.673847
O O5 0.203607 0.300559 0.969399
O O6 0.209263 0.370890 0.050114
O O7 0.061592 0.468991 0.029595
O O8 0.793169 0.414761 0.074210
O O9 0.653607 0.805939 0.155281
O O10 0.098758 0.828131 0.951259
O O11 0.500000 0.633880 0.750000
O O12 0.503579 0.738087 0.677982
O O13 0.500000 0.152235 0.250000
#
# Coordination Sequence:
#
# PCOD9277978 Si02
#       7
#     8   8   4   8   8   4   8
#     4  11  24  43  67 105 135 180 233 294 351 421
#     4  10  22  43  73  98 134 189 234 285 350 425
#     4  10  20  42  64 106 130 168 240 280 350 400
#     4  11  24  44  72 100 140 190 231 292 351 429
#     4  10  24  42  70  98 136 182 232 290 340 428
#     4  12  28  44  64 110 146 178 236 300 360 412
#     4  11  21  45  71  99 131 186 240 281 348 430
#
# _framework density 21.457305999999999
#
# number of rings (size 3 to 8) (size 9 to 14) (size 15 to 20)
#    0.000    1.333    4.167    0.000    4.667    2.667 
#    9.000    0.833    0.000    0.000    0.000    0.000 
#    0.000    0.000    0.000    0.000    0.000    0.000 
#
# Total GULP energy -133601.143126 kJ/mol
# GULP energy per Si atom -5566.714297 kJ/mol
# Density = 2.140847 g / cm^3
# Si number density = 21.457306 Si / 1000 Ang^3
#
#
#
# Elastic Constant Matrix: (Units=GPa)
#
#
# Indices 1 2 3 4 5 6 
#
# 1 112.5453 42.6492 33.0090 0.0040 2.8979 -0.0003
# 2 42.6492 93.0754 14.8880 0.0094 5.6412 -0.0209
# 3 33.0090 14.8880 86.6738 -0.0050 5.0103 -0.0007
# 4 0.0040 0.0094 -0.0050 16.1255 0.0057 -2.1177
# 5 2.8979 5.6412 5.0103 0.0057 34.9181 -0.0076
# 6 -0.0003 -0.0209 -0.0007 -2.1177 -0.0076 47.6005
#
#
#
# Elastic Compliance Matrix: (Units=1/GPa)
#
#
# Indices 1 2 3 4 5 6 
#
# 1 0.011787 -0.004833 -0.003678 -0.000002 0.000330 -0.000002
# 2 -0.004833 0.013110 -0.000315 -0.000005 -0.001672 0.000005
# 3 -0.003678 -0.000315 0.013080 0.000006 -0.001521 0.000000
# 4 -0.000002 -0.000005 0.000006 0.062378 -0.000009 0.002775
# 5 0.000330 -0.001672 -0.001521 -0.000009 0.029099 0.000003
# 6 -0.000002 0.000005 0.000000 0.002775 0.000003 0.021132
#
#
# Mechanical properties :
#
#
# Convention : Reuss Voigt Hill
#
# Bulk Modulus (GPa) = 49.19721 52.59853 50.89787
# Shear Modulus (GPa) = 28.56937 33.17870 30.87404
#
# Velocity S-wave (km/s) = 3.65287 3.93652 3.79734
# Velocity P-wave (km/s) = 6.38506 6.72517 6.55732
#
# Compressibility (1/GPa) = 0.02032635
#
# Stress axis : x y z
#
# Youngs Moduli (GPa) = 84.84005 76.27702 76.45142
#
# Poissons Ratio (x) = 0.36863 0.28118
# Poissons Ratio (y) = 0.41001 0.02407
# Poissons Ratio (z) = 0.31203 0.02401
#
# Static dielectric constant tensor:
#      x y z
#    x 1.752020 -0.000010 -0.024520 
#    y -0.000010 1.786110 0.000010 
#    z -0.024520 0.000010 1.809090 
# 
# From -- ./inp_files/311161.got.cif
#   From: 2010.05.17/outbox.cif.g08.bks.cpg/sg15_156_cif.got.tgz:311161.got - 2010.06.03 18:47:42.
