data_PCOD9277606
_publ_section_title
;
Structure prediction by ZEFSAII (Michael W. Deem and Ramdas Pophale) SiO2 
 PCOD9277606
Probable space group: C 2/C
;
_chemical_formula_sum "Si O2"
_cell_formula_units_Z 52
_cell_length_a 10.822880
_cell_length_b 27.821079
_cell_length_c 8.761704
_cell_angle_alpha 90.000000
_cell_angle_beta 91.108349
_cell_angle_gamma 90.000000
_cell_volume 2637.692275
_symmetry_space_group_name_H-M "C 2/C"
_symmetry_group_IT_number 15
_symmetry_cell_setting 'monoclinic'
loop_
_space_group_symop_operation_xyz
x,y,z
-x,y,1/2-z
-x,-y,-z
x,-y,1/2+z
1/2+x,1/2+y,z
1/2-x,1/2+y,1/2-z
1/2-x,1/2-y,-z
1/2+x,1/2-y,1/2+z
loop_
_atom_site_type_symbol
_atom_site_label
_atom_site_fract_x
_atom_site_fract_y
_atom_site_fract_z
Si Si1 0.128944 0.814173 0.919580
Si Si2 0.867718 0.436451 0.180961
Si Si3 0.269328 0.831198 0.209196
Si Si4 0.134267 0.535612 0.171479
Si Si5 0.140490 0.900255 0.702249
Si Si6 0.069339 0.872567 0.391298
Si Si7 0.500000 0.229455 0.750000
O O1 0.158588 0.845836 0.769560
O O2 0.057844 0.765920 0.874692
O O3 0.239898 0.808854 0.042517
O O4 0.035854 0.848180 0.010015
O O5 0.788571 0.388208 0.183946
O O6 0.828059 0.481252 0.284066
O O7 0.000000 0.421688 0.250000
O O8 0.880003 0.455747 0.009016
O O9 0.152482 0.830922 0.318312
O O10 0.385878 0.805192 0.287362
O O11 0.246621 0.569127 0.229385
O O12 0.000000 0.544261 0.250000
O O13 0.145162 0.901771 0.518565
O O14 0.000000 0.915397 0.750000
O O15 0.000000 0.898846 0.250000
#
# Coordination Sequence:
#
# PCOD9277606 Si02
#       7
#     8   8   8   8   8   8   4
#     4  10  20  43  59  88 126 167 202 261 327 371
#     4  11  23  42  61  96 130 168 209 266 320 376
#     4  11  23  37  65  91 126 162 216 261 313 379
#     4  11  24  40  68  92 129 169 215 262 321 378
#     4  10  20  41  66  90 129 168 205 265 324 380
#     4   9  20  37  64  88 122 168 203 257 321 377
#     4  12  22  38  66  88 124 170 212 260 322 378
#
# _framework density 19.714203000000001
#
# number of rings (size 3 to 8) (size 9 to 14) (size 15 to 20)
#    0.000    1.538    4.615    2.308    4.308    0.615 
#    0.000    3.077    0.000    0.000    0.000    0.000 
#    0.000    0.000    0.000    0.000    0.000    0.000 
#
# Total GULP energy -144863.855759 kJ/mol
# GULP energy per Si atom -5571.686760 kJ/mol
# Density = 1.966933 g / cm^3
# Si number density = 19.714203 Si / 1000 Ang^3
#
#
#
# Elastic Constant Matrix: (Units=GPa)
#
#
# Indices 1 2 3 4 5 6 
#
# 1 74.0960 32.0484 28.3239 0.0000 27.7034 0.0000
# 2 32.0484 78.6594 33.6352 0.0000 9.6694 0.0000
# 3 28.3239 33.6352 124.4165 0.0000 21.6480 0.0000
# 4 0.0000 0.0000 0.0000 24.6465 0.0000 -1.8761
# 5 27.7034 9.6694 21.6480 0.0000 29.9623 0.0000
# 6 0.0000 0.0000 0.0000 -1.8761 0.0000 95.0392
#
#
#
# Elastic Compliance Matrix: (Units=1/GPa)
#
#
# Indices 1 2 3 4 5 6 
#
# 1 0.024148 -0.007374 -0.000038 0.000000 -0.019920 0.000000
# 2 -0.007374 0.016742 -0.003539 0.000000 0.003971 0.000000
# 3 -0.000038 -0.003539 0.010063 0.000000 -0.006094 0.000000
# 4 0.000000 0.000000 0.000000 0.040635 0.000000 0.000802
# 5 -0.019920 0.003971 -0.006094 0.000000 0.054915 0.000000
# 6 0.000000 0.000000 0.000000 0.000802 0.000000 0.010538
#
#
# Mechanical properties :
#
#
# Convention : Reuss Voigt Hill
#
# Bulk Modulus (GPa) = 34.41996 51.68742 43.05369
# Shear Modulus (GPa) = 26.50771 42.14056 34.32413
#
# Velocity S-wave (km/s) = 3.67086 4.62841 4.17716
# Velocity P-wave (km/s) = 5.95519 7.40528 6.71947
#
# Compressibility (1/GPa) = 0.02905291
#
# Stress axis : x y z
#
# Youngs Moduli (GPa) = 41.41197 59.72936 99.37371
#
# Poissons Ratio (x) = 0.44042 0.00376
# Poissons Ratio (y) = 0.30536 0.35163
# Poissons Ratio (z) = 0.00157 0.21135
#
# Static dielectric constant tensor:
#      x y z
#    x 1.743920 0.000000 0.034870 
#    y 0.000000 1.696210 0.000000 
#    z 0.034870 0.000000 1.750950 
# 
# From -- ./inp_files/33682.got.cif
#   From: 2010.05.17/outbox.cif.g08.bks.cpg/sg15_17_cif.got.tgz:33682.got - 2010.06.03 18:47:42.
