data_PCOD9277957
_publ_section_title
;
Structure prediction by ZEFSAII (Michael W. Deem and Ramdas Pophale) SiO2 
 PCOD9277957
Probable space group: C 2/C
;
_chemical_formula_sum "Si O2"
_cell_formula_units_Z 56
_cell_length_a 5.996935
_cell_length_b 25.322195
_cell_length_c 17.029780
_cell_angle_alpha 90.000000
_cell_angle_beta 68.571952
_cell_angle_gamma 90.000000
_cell_volume 2407.310267
_symmetry_space_group_name_H-M "C 2/C"
_symmetry_group_IT_number 15
_symmetry_cell_setting 'monoclinic'
loop_
_space_group_symop_operation_xyz
x,y,z
-x,y,1/2-z
-x,-y,-z
x,-y,1/2+z
1/2+x,1/2+y,z
1/2-x,1/2+y,1/2-z
1/2-x,1/2-y,-z
1/2+x,1/2-y,1/2+z
loop_
_atom_site_type_symbol
_atom_site_label
_atom_site_fract_x
_atom_site_fract_y
_atom_site_fract_z
Si Si1 0.494243 0.948149 0.553539
Si Si2 0.000000 0.291635 0.250000
Si Si3 0.702098 0.651714 0.455369
Si Si4 0.899274 0.704213 0.177254
Si Si5 0.271929 0.634677 0.620792
Si Si6 0.000000 0.089903 0.750000
Si Si7 0.519994 0.964076 0.339508
Si Si8 0.441400 0.610417 0.340483
O O1 0.661844 0.897628 0.520706
O O2 0.226478 0.927819 0.589596
O O3 0.500000 0.000000 0.500000
O O4 0.545004 0.976476 0.630070
O O5 0.236535 0.255563 0.213428
O O6 0.040923 0.328950 0.169164
O O7 0.462760 0.660178 0.536962
O O8 0.633438 0.631301 0.377093
O O9 0.881736 0.700381 0.413542
O O10 0.718136 0.659999 0.168139
O O11 0.000000 0.690917 0.250000
O O12 0.391548 0.623585 0.691196
O O13 0.165821 0.579268 0.603029
O O14 0.793756 0.054145 0.817684
O O15 0.500000 0.958081 0.250000
O O16 0.500000 0.583513 0.250000
#
# Coordination Sequence:
#
# PCOD9277957 Si02
#       8
#     8   4   8   8   8   4   8   8
#     4  11  25  39  63 103 137 180 225 284 342 405
#     4  12  24  44  73 100 138 177 232 286 360 426
#     4  11  25  44  72  99 143 179 233 295 348 410
#     4  11  23  46  71 100 132 177 230 290 350 414
#     4  11  24  44  67 101 134 179 224 287 342 417
#     4  10  20  42  63  90 136 181 218 270 342 414
#     4  10  22  38  60  94 132 175 227 269 329 407
#     4  11  23  43  70  98 134 183 230 286 342 413
#
# _framework density 23.262474999999998
#
# number of rings (size 3 to 8) (size 9 to 14) (size 15 to 20)
#    0.000    1.143    4.286    1.714    4.000    5.143 
#    0.000    2.857    0.000    0.000    0.000    0.000 
#    0.000    0.000    0.000    0.000    0.000    0.000 
#
# Total GULP energy -156206.930897 kJ/mol
# GULP energy per Si atom -5578.818961 kJ/mol
# Density = 2.320953 g / cm^3
# Si number density = 23.262475 Si / 1000 Ang^3
#
#
#
# Elastic Constant Matrix: (Units=GPa)
#
#
# Indices 1 2 3 4 5 6 
#
# 1 50.3104 10.2227 13.2225 0.0000 -11.6772 0.0000
# 2 10.2227 74.1446 17.4957 0.0000 -19.5627 0.0000
# 3 13.2225 17.4957 111.0776 0.0000 -30.0130 0.0000
# 4 0.0000 0.0000 0.0000 22.0231 0.0000 -13.2986
# 5 -11.6772 -19.5627 -30.0130 0.0000 49.8803 0.0000
# 6 0.0000 0.0000 0.0000 -13.2986 0.0000 30.9471
#
#
#
# Elastic Compliance Matrix: (Units=1/GPa)
#
#
# Indices 1 2 3 4 5 6 
#
# 1 0.021393 -0.001702 -0.001320 0.000000 0.003546 0.000000
# 2 -0.001702 0.015259 -0.000826 0.000000 0.005089 0.000000
# 3 -0.001320 -0.000826 0.010889 0.000000 0.005919 0.000000
# 4 0.000000 0.000000 0.000000 0.061318 0.000000 0.026350
# 5 0.003546 0.005089 0.005919 0.000000 0.026436 0.000000
# 6 0.000000 0.000000 0.000000 0.026350 0.000000 0.043636
#
#
# Mechanical properties :
#
#
# Convention : Reuss Voigt Hill
#
# Bulk Modulus (GPa) = 25.09749 35.26825 30.18287
# Shear Modulus (GPa) = 25.01130 33.54289 29.27709
#
# Velocity S-wave (km/s) = 3.28255 3.80140 3.55146
# Velocity P-wave (km/s) = 5.01788 5.87038 5.46079
#
# Compressibility (1/GPa) = 0.03984461
#
# Stress axis : x y z
#
# Youngs Moduli (GPa) = 46.74523 65.53296 91.83340
#
# Poissons Ratio (x) = 0.11156 0.12124
# Poissons Ratio (y) = 0.07958 0.07583
# Poissons Ratio (z) = 0.06172 0.05411
#
# Static dielectric constant tensor:
#      x y z
#    x 1.925790 0.000000 0.032980 
#    y 0.000000 1.929170 0.000000 
#    z 0.032980 0.000000 2.115800 
# 
# From -- ./inp_files/186157.got.cif
#   From: 2010.05.17/outbox.cif.g08.bks.cpg/sg15_94_cif.got.tgz:186157.got - 2010.06.03 18:47:42.
