data_PCOD9277581
_publ_section_title
;
Structure prediction by ZEFSAII (Michael W. Deem and Ramdas Pophale) SiO2 
 PCOD9277581
Probable space group: C 2/C
;
_chemical_formula_sum "Si O2"
_cell_formula_units_Z 60
_cell_length_a 11.800448
_cell_length_b 29.616965
_cell_length_c 7.924171
_cell_angle_alpha 90.000000
_cell_angle_beta 90.512574
_cell_angle_gamma 90.000000
_cell_volume 2769.335081
_symmetry_space_group_name_H-M "C 2/C"
_symmetry_group_IT_number 15
_symmetry_cell_setting 'monoclinic'
loop_
_space_group_symop_operation_xyz
x,y,z
-x,y,1/2-z
-x,-y,-z
x,-y,1/2+z
1/2+x,1/2+y,z
1/2-x,1/2+y,1/2-z
1/2-x,1/2-y,-z
1/2+x,1/2-y,1/2+z
loop_
_atom_site_type_symbol
_atom_site_label
_atom_site_fract_x
_atom_site_fract_y
_atom_site_fract_z
Si Si1 0.668096 0.369459 0.117024
Si Si2 0.027163 0.350926 0.952693
Si Si3 0.756736 0.299817 0.581287
Si Si4 0.421962 0.632087 0.497288
Si Si5 0.744070 0.961525 0.321040
Si Si6 0.386001 0.468735 0.995095
Si Si7 0.500000 0.923585 0.250000
Si Si8 0.321280 0.794343 0.966795
O O1 0.629232 0.367560 0.311926
O O2 0.555164 0.361115 0.010768
O O3 0.722112 0.417570 0.071061
O O4 0.758840 0.332348 0.073591
O O5 0.154994 0.335627 0.997335
O O6 0.000000 0.361753 0.750000
O O7 0.952635 0.306258 0.996049
O O8 0.000590 0.391875 0.081656
O O9 0.750000 0.250000 0.500000
O O10 0.638169 0.325822 0.589588
O O11 0.806937 0.297380 0.767260
O O12 0.403805 0.581635 0.424114
O O13 0.843773 0.961701 0.183714
O O14 0.616161 0.953084 0.257407
O O15 0.775608 0.007242 0.415122
O O16 0.500000 0.500000 0.000000
O O17 0.250000 0.750000 0.000000
#
# Coordination Sequence:
#
# PCOD9277581 Si02
#       8
#     8   8   8   8   8   8   4   8
#     4  10  20  41  65  95 132 176 230 274 349 425
#     4  10  24  45  69  99 138 192 236 293 367 430
#     4  11  25  43  64 102 136 175 234 290 360 431
#     4  10  22  40  67  94 135 179 219 288 350 419
#     4  11  24  42  69 104 133 190 235 286 372 425
#     4  11  22  43  68 101 141 179 233 293 361 434
#     4  12  24  48  78  96 146 190 246 304 360 440
#     4  11  24  41  66  96 134 180 235 290 352 433
#
# _framework density 21.665849999999999
#
# number of rings (size 3 to 8) (size 9 to 14) (size 15 to 20)
#    0.000    1.333    2.667    2.800    3.733    2.133 
#    4.800    0.000    0.000    0.000    0.000    0.000 
#    0.000    0.000    0.000    0.000    0.000    0.000 
#
# Total GULP energy -167197.216132 kJ/mol
# GULP energy per Si atom -5573.240538 kJ/mol
# Density = 2.161654 g / cm^3
# Si number density = 21.665850 Si / 1000 Ang^3
#
#
#
# Elastic Constant Matrix: (Units=GPa)
#
#
# Indices 1 2 3 4 5 6 
#
# 1 133.1307 21.5357 10.7728 0.0000 15.9619 0.0000
# 2 21.5357 63.6052 14.8932 0.0000 3.8575 0.0000
# 3 10.7728 14.8932 38.9483 0.0000 -1.0627 0.0000
# 4 0.0000 0.0000 0.0000 18.5491 0.0000 -5.7319
# 5 15.9619 3.8575 -1.0627 0.0000 31.7294 0.0000
# 6 0.0000 0.0000 0.0000 -5.7319 0.0000 20.7697
#
#
#
# Elastic Compliance Matrix: (Units=1/GPa)
#
#
# Indices 1 2 3 4 5 6 
#
# 1 0.008491 -0.002255 -0.001597 0.000000 -0.004051 0.000000
# 2 -0.002255 0.018040 -0.006309 0.000000 -0.001270 0.000000
# 3 -0.001597 -0.006309 0.028598 0.000000 0.002528 0.000000
# 4 0.000000 0.000000 0.000000 0.058937 0.000000 0.016265
# 5 -0.004051 -0.001270 0.002528 0.000000 0.033793 0.000000
# 6 0.000000 0.000000 0.000000 0.016265 0.000000 0.052636
#
#
# Mechanical properties :
#
#
# Convention : Reuss Voigt Hill
#
# Bulk Modulus (GPa) = 28.72985 36.67640 32.70312
# Shear Modulus (GPa) = 21.51279 26.77514 24.14396
#
# Velocity S-wave (km/s) = 3.15451 3.51924 3.34185
# Velocity P-wave (km/s) = 5.15336 5.78605 5.47884
#
# Compressibility (1/GPa) = 0.03480701
#
# Stress axis : x y z
#
# Youngs Moduli (GPa) = 117.76968 55.43265 34.96730
#
# Poissons Ratio (x) = 0.12502 0.05583
# Poissons Ratio (y) = 0.26562 0.22061
# Poissons Ratio (z) = 0.18804 0.34972
#
# Static dielectric constant tensor:
#      x y z
#    x 1.885760 0.000000 -0.111620 
#    y 0.000000 1.931610 0.000000 
#    z -0.111620 0.000000 1.944880 
# 
# From -- ./inp_files/34280.got.cif
#   From: 2010.05.17/outbox.cif.g08.bks.cpg/sg15_18_cif.got.tgz:34280.got - 2010.06.03 18:47:42.
