data_PCOD9277263
_publ_section_title
;
Structure prediction by ZEFSAII (Michael W. Deem and Ramdas Pophale) SiO2 
 PCOD9277263
Probable space group: C 2/C
;
_chemical_formula_sum "Si O2"
_cell_formula_units_Z 44
_cell_length_a 4.876608
_cell_length_b 26.079393
_cell_length_c 13.487529
_cell_angle_alpha 90.000000
_cell_angle_beta 80.363466
_cell_angle_gamma 90.000000
_cell_volume 1691.125966
_symmetry_space_group_name_H-M "C 2/C"
_symmetry_group_IT_number 15
_symmetry_cell_setting 'monoclinic'
loop_
_space_group_symop_operation_xyz
x,y,z
-x,y,1/2-z
-x,-y,-z
x,-y,1/2+z
1/2+x,1/2+y,z
1/2-x,1/2+y,1/2-z
1/2-x,1/2-y,-z
1/2+x,1/2-y,1/2+z
loop_
_atom_site_type_symbol
_atom_site_label
_atom_site_fract_x
_atom_site_fract_y
_atom_site_fract_z
Si Si1 0.290069 0.798583 0.176904
Si Si2 0.909380 0.451081 0.607415
Si Si3 0.500000 0.127865 0.250000
Si Si4 0.929158 0.812561 0.636852
Si Si5 0.124677 0.883367 0.029346
Si Si6 0.910371 0.019165 0.640448
O O1 0.500000 0.816051 0.250000
O O2 0.423854 0.747635 0.118678
O O3 0.232154 0.841139 0.099416
O O4 0.000000 0.784537 0.250000
O O5 0.813495 0.412725 0.701078
O O6 0.117915 0.417644 0.527266
O O7 0.433063 0.576285 0.597913
O O8 0.111550 0.494877 0.638631
O O9 0.383996 0.165607 0.339857
O O10 0.039729 0.851325 0.546846
O O11 0.000000 0.818417 0.750000
O O12 0.141698 0.020285 0.081261
O O13 0.000000 0.020677 0.750000
#
# Coordination Sequence:
#
# PCOD9277263 Si02
#       6
#     8   8   4   8   8   8
#     4  11  25  50  73 106 147 188 236 297 362 427
#     4  11  25  42  69  99 141 181 242 289 344 422
#     4  10  20  40  70  96 130 188 230 288 344 414
#     4  10  23  46  73 104 140 186 242 294 353 424
#     4  11  26  44  74 109 141 189 239 295 361 422
#     4  12  24  46  66 103 144 189 233 293 350 424
#
# _framework density 26.018167999999999
#
# number of rings (size 3 to 8) (size 9 to 14) (size 15 to 20)
#    0.000    1.091    2.727    2.182    5.091    4.364 
#    6.545    2.727    0.000    0.000    0.000    0.000 
#    0.000    0.000    0.000    0.000    0.000    0.000 
#
# Total GULP energy -123092.368618 kJ/mol
# GULP energy per Si atom -5595.107664 kJ/mol
# Density = 2.595895 g / cm^3
# Si number density = 26.018168 Si / 1000 Ang^3
#
#
#
# Elastic Constant Matrix: (Units=GPa)
#
#
# Indices 1 2 3 4 5 6 
#
# 1 106.5635 25.5247 23.9922 0.0000 22.9036 0.0000
# 2 25.5247 196.1983 78.9975 0.0000 20.5574 0.0000
# 3 23.9922 78.9975 100.3100 0.0000 26.3204 0.0000
# 4 0.0000 0.0000 0.0000 49.8815 0.0000 8.6307
# 5 22.9036 20.5574 26.3204 0.0000 44.9103 0.0000
# 6 0.0000 0.0000 0.0000 8.6307 0.0000 21.9621
#
#
#
# Elastic Compliance Matrix: (Units=1/GPa)
#
#
# Indices 1 2 3 4 5 6 
#
# 1 0.010726 -0.000537 -0.000912 0.000000 -0.004690 0.000000
# 2 -0.000537 0.007490 -0.005841 0.000000 0.000268 0.000000
# 3 -0.000912 -0.005841 0.016501 0.000000 -0.006532 0.000000
# 4 0.000000 0.000000 0.000000 0.021510 0.000000 -0.008453
# 5 -0.004690 0.000268 -0.006532 0.000000 0.028364 0.000000
# 6 0.000000 0.000000 0.000000 -0.008453 0.000000 0.048855
#
#
# Mechanical properties :
#
#
# Convention : Reuss Voigt Hill
#
# Bulk Modulus (GPa) = 49.65793 73.34453 61.50123
# Shear Modulus (GPa) = 32.31255 41.65461 36.98358
#
# Velocity S-wave (km/s) = 3.52792 4.00557 3.77431
# Velocity P-wave (km/s) = 5.97681 7.04583 6.53322
#
# Compressibility (1/GPa) = 0.02013777
#
# Stress axis : x y z
#
# Youngs Moduli (GPa) = 93.23151 133.50393 60.60189
#
# Poissons Ratio (x) = 0.07166 0.05528
# Poissons Ratio (y) = 0.05004 0.35397
# Poissons Ratio (z) = 0.08504 0.77979
#
# Static dielectric constant tensor:
#      x y z
#    x 2.134750 0.000000 -0.059090 
#    y 0.000000 1.976830 0.000000 
#    z -0.059090 0.000000 2.182040 
# 
# From -- ./inp_files/185100.got.cif
#   From: 2010.05.17/outbox.cif.g08.bks.cpg/sg15_93_cif.got.tgz:185100.got - 2010.06.03 18:47:42.
