data_PCOD9277602
_publ_section_title
;
Structure prediction by ZEFSAII (Michael W. Deem and Ramdas Pophale) SiO2 
 PCOD9277602
Probable space group: C 2/C
;
_chemical_formula_sum "Si O2"
_cell_formula_units_Z 48
_cell_length_a 16.866629
_cell_length_b 11.263654
_cell_length_c 10.685035
_cell_angle_alpha 90.000000
_cell_angle_beta 104.474018
_cell_angle_gamma 90.000000
_cell_volume 1965.513443
_symmetry_space_group_name_H-M "C 2/C"
_symmetry_group_IT_number 15
_symmetry_cell_setting 'monoclinic'
loop_
_space_group_symop_operation_xyz
x,y,z
-x,y,1/2-z
-x,-y,-z
x,-y,1/2+z
1/2+x,1/2+y,z
1/2-x,1/2+y,1/2-z
1/2-x,1/2-y,-z
1/2+x,1/2-y,1/2+z
loop_
_atom_site_type_symbol
_atom_site_label
_atom_site_fract_x
_atom_site_fract_y
_atom_site_fract_z
Si Si1 0.690771 0.811446 0.202176
Si Si2 0.706955 0.414681 0.034567
Si Si3 0.134575 0.492881 0.993680
Si Si4 0.091134 0.130551 0.056183
Si Si5 0.363804 0.773938 0.675092
Si Si6 0.923957 0.744329 0.482493
O O1 0.731245 0.879922 0.330604
O O2 0.637499 0.693200 0.189843
O O3 0.769058 0.762769 0.154804
O O4 0.630341 0.900915 0.106041
O O5 0.769785 0.465653 0.958553
O O6 0.637768 0.506387 0.055592
O O7 0.657043 0.297013 0.984949
O O8 0.126373 0.408967 0.868941
O O9 0.075347 0.605786 0.978345
O O10 0.104849 0.193523 0.926342
O O11 0.997030 0.165215 0.042470
O O12 0.407527 0.755398 0.825602
#
# Coordination Sequence:
#
# PCOD9277602 Si02
#       6
#     8   8   8   8   8   8
#     4  10  21  37  68  89 116 176 227 254 307 398
#     4  11  22  40  67  90 131 173 218 259 321 398
#     4  11  20  40  64  92 128 165 219 265 313 382
#     4  11  21  43  64  93 130 167 215 270 323 381
#     4  10  20  41  66  89 124 174 213 257 325 398
#     4  11  25  37  63 103 131 164 212 273 332 373
#
# _framework density 24.421099000000002
#
# number of rings (size 3 to 8) (size 9 to 14) (size 15 to 20)
#    0.000    1.333    3.333    3.500    2.333    2.667 
#    0.000    4.167    0.000    0.000    0.000    0.000 
#    0.000    0.000    0.000    0.000    0.000    0.000 
#
# Total GULP energy -134005.573884 kJ/mol
# GULP energy per Si atom -5583.565579 kJ/mol
# Density = 2.436552 g / cm^3
# Si number density = 24.421099 Si / 1000 Ang^3
#
#
#
# Elastic Constant Matrix: (Units=GPa)
#
#
# Indices 1 2 3 4 5 6 
#
# 1 88.7867 15.6130 15.6815 0.0000 24.6676 0.0000
# 2 15.6130 119.3350 29.2391 0.0000 8.6807 0.0000
# 3 15.6815 29.2391 76.4964 0.0000 2.8139 0.0000
# 4 0.0000 0.0000 0.0000 21.4845 0.0000 0.9940
# 5 24.6676 8.6807 2.8139 0.0000 19.9596 0.0000
# 6 0.0000 0.0000 0.0000 0.9940 0.0000 41.8685
#
#
#
# Elastic Compliance Matrix: (Units=1/GPa)
#
#
# Indices 1 2 3 4 5 6 
#
# 1 0.017749 -0.000066 -0.002822 0.000000 -0.021509 0.000000
# 2 -0.000066 0.009502 -0.003487 0.000000 -0.003559 0.000000
# 3 -0.002822 -0.003487 0.014877 0.000000 0.002907 0.000000
# 4 0.000000 0.000000 0.000000 0.046596 0.000000 -0.001106
# 5 -0.021509 -0.003559 0.002907 0.000000 0.077821 0.000000
# 6 0.000000 0.000000 0.000000 -0.001106 0.000000 0.023911
#
#
# Mechanical properties :
#
#
# Convention : Reuss Voigt Hill
#
# Bulk Modulus (GPa) = 34.04060 45.07614 39.55837
# Shear Modulus (GPa) = 23.47427 31.60147 27.53787
#
# Velocity S-wave (km/s) = 3.10373 3.60116 3.36166
# Velocity P-wave (km/s) = 5.17817 5.98239 5.59475
#
# Compressibility (1/GPa) = 0.02937669
#
# Stress axis : x y z
#
# Youngs Moduli (GPa) = 56.34202 105.24342 67.21762
#
# Poissons Ratio (x) = 0.00696 0.18969
# Poissons Ratio (y) = 0.00372 0.23441
# Poissons Ratio (z) = 0.15900 0.36702
#
# Static dielectric constant tensor:
#      x y z
#    x 1.986340 0.000000 -0.039740 
#    y 0.000000 2.035450 0.000000 
#    z -0.039740 0.000000 1.964490 
# 
# From -- ./inp_files/103845.got.cif
#   From: 2010.05.17/outbox.cif.g08.bks.cpg/sg15_52_cif.got.tgz:103845.got - 2010.06.03 18:47:42.
