data_PCOD9277266
_publ_section_title
;
Structure prediction by ZEFSAII (Michael W. Deem and Ramdas Pophale) SiO2 
 PCOD9277266
Probable space group: C 2/C
;
_chemical_formula_sum "Si O2"
_cell_formula_units_Z 64
_cell_length_a 17.825135
_cell_length_b 26.031010
_cell_length_c 9.547543
_cell_angle_alpha 90.000000
_cell_angle_beta 142.988059
_cell_angle_gamma 90.000000
_cell_volume 2666.849951
_symmetry_space_group_name_H-M "C 2/C"
_symmetry_group_IT_number 15
_symmetry_cell_setting 'monoclinic'
loop_
_space_group_symop_operation_xyz
x,y,z
-x,y,1/2-z
-x,-y,-z
x,-y,1/2+z
1/2+x,1/2+y,z
1/2-x,1/2+y,1/2-z
1/2-x,1/2-y,-z
1/2+x,1/2-y,1/2+z
loop_
_atom_site_type_symbol
_atom_site_label
_atom_site_fract_x
_atom_site_fract_y
_atom_site_fract_z
Si Si1 0.414671 0.110179 0.487260
Si Si2 0.727121 0.988964 0.787103
Si Si3 0.203049 0.851571 0.860007
Si Si4 0.420490 0.077703 0.996457
Si Si5 0.257531 0.160346 0.763058
Si Si6 0.620503 0.528430 0.244716
Si Si7 0.487557 0.725447 0.069804
Si Si8 0.609430 0.232795 0.330345
O O1 0.311709 0.146633 0.406341
O O2 0.509426 0.117931 0.499980
O O3 0.328129 0.067347 0.282623
O O4 0.500000 0.094432 0.750000
O O5 0.618399 0.029328 0.653142
O O6 0.765318 0.989513 0.682095
O O7 0.845613 0.005577 0.053988
O O8 0.133760 0.908356 0.764292
O O9 0.107647 0.805112 0.694947
O O10 0.257608 0.838351 0.094595
O O11 0.500000 0.065075 0.250000
O O12 0.287571 0.101745 0.842437
O O13 0.124116 0.183668 0.602702
O O14 0.359816 0.189254 0.010249
O O15 0.500000 0.500000 0.000000
O O16 0.500000 0.741128 0.250000
O O17 0.450044 0.771322 0.912284
O O18 0.500000 0.264572 0.250000
O O19 0.750000 0.250000 0.500000
#
# Coordination Sequence:
#
# PCOD9277266 Si02
#       8
#     8   8   8   8   8   8   8   8
#     4  11  21  40  61  90 140 181 239 288 332 405
#     4  11  22  38  56  92 130 183 241 284 338 395
#     4  10  21  42  64  98 133 187 231 280 348 411
#     4  12  22  36  62  93 131 184 230 282 350 395
#     4  10  20  40  70  96 134 172 227 284 339 423
#     4  11  23  37  61  90 136 185 236 289 332 401
#     4   9  21  42  73  98 134 178 222 282 354 436
#     4  10  22  46  72 105 140 174 223 289 361 433
#
# _framework density 23.998349999999999
#
# number of rings (size 3 to 8) (size 9 to 14) (size 15 to 20)
#    0.000    1.500    2.500    3.000    1.750    1.000 
#    6.750    6.875    0.000    0.000    0.000    0.000 
#    0.000    0.000    0.000    0.000    0.000    0.000 
#
# Total GULP energy -178286.630799 kJ/mol
# GULP energy per Si atom -5571.457212 kJ/mol
# Density = 2.394373 g / cm^3
# Si number density = 23.998350 Si / 1000 Ang^3
#
#
#
# Elastic Constant Matrix: (Units=GPa)
#
#
# Indices 1 2 3 4 5 6 
#
# 1 109.9852 31.6304 30.5518 0.0000 3.9811 0.0000
# 2 31.6304 61.7701 36.7236 0.0000 -7.4553 0.0000
# 3 30.5518 36.7236 167.5392 0.0000 -16.6564 0.0000
# 4 0.0000 0.0000 0.0000 28.9048 0.0000 -3.4058
# 5 3.9811 -7.4553 -16.6564 0.0000 36.3843 0.0000
# 6 0.0000 0.0000 0.0000 -3.4058 0.0000 27.5313
#
#
#
# Elastic Compliance Matrix: (Units=1/GPa)
#
#
# Indices 1 2 3 4 5 6 
#
# 1 0.011037 -0.005322 -0.001126 0.000000 -0.002814 0.000000
# 2 -0.005322 0.021327 -0.003365 0.000000 0.003412 0.000000
# 3 -0.001126 -0.003365 0.007182 0.000000 0.002722 0.000000
# 4 0.000000 0.000000 0.000000 0.035108 0.000000 0.004343
# 5 -0.002814 0.003412 0.002722 0.000000 0.029737 0.000000
# 6 0.000000 0.000000 0.000000 0.004343 0.000000 0.036860
#
#
# Mechanical properties :
#
#
# Convention : Reuss Voigt Hill
#
# Bulk Modulus (GPa) = 50.19990 59.67844 54.93917
# Shear Modulus (GPa) = 29.84771 34.58998 32.21885
#
# Velocity S-wave (km/s) = 3.53050 3.80063 3.66805
# Velocity P-wave (km/s) = 6.13047 6.64691 6.39391
#
# Compressibility (1/GPa) = 0.01992036
#
# Stress axis : x y z
#
# Youngs Moduli (GPa) = 90.60206 46.88970 139.23267
#
# Poissons Ratio (x) = 0.24955 0.15676
# Poissons Ratio (y) = 0.48219 0.46851
# Poissons Ratio (z) = 0.10201 0.15778
#
# Static dielectric constant tensor:
#      x y z
#    x 1.985460 0.000000 0.073400 
#    y 0.000000 1.961040 0.000000 
#    z 0.073400 0.000000 1.923640 
# 
# From -- ./inp_files/52862.got.cif
#   From: 2010.05.17/outbox.cif.g08.bks.cpg/sg15_27_cif.got.tgz:52862.got - 2010.06.03 18:47:42.
