data_PCOD9277239
_publ_section_title
;
Structure prediction by ZEFSAII (Michael W. Deem and Ramdas Pophale) SiO2 
 PCOD9277239
Probable space group: C 2/C
;
_chemical_formula_sum "Si O2"
_cell_formula_units_Z 44
_cell_length_a 9.155157
_cell_length_b 27.141157
_cell_length_c 9.193121
_cell_angle_alpha 90.000000
_cell_angle_beta 120.696781
_cell_angle_gamma 90.000000
_cell_volume 1964.244109
_symmetry_space_group_name_H-M "C 2/C"
_symmetry_group_IT_number 15
_symmetry_cell_setting 'monoclinic'
loop_
_space_group_symop_operation_xyz
x,y,z
-x,y,1/2-z
-x,-y,-z
x,-y,1/2+z
1/2+x,1/2+y,z
1/2-x,1/2+y,1/2-z
1/2-x,1/2-y,-z
1/2+x,1/2-y,1/2+z
loop_
_atom_site_type_symbol
_atom_site_label
_atom_site_fract_x
_atom_site_fract_y
_atom_site_fract_z
Si Si1 0.376764 0.109276 0.964750
Si Si2 0.500000 0.730357 0.750000
Si Si3 0.637528 0.571871 0.602670
Si Si4 0.735466 0.536149 0.101880
Si Si5 0.218732 0.812128 0.602827
Si Si6 0.240188 0.888125 0.861749
O O1 0.233824 0.103741 0.770497
O O2 0.367143 0.059308 0.055845
O O3 0.328872 0.151953 0.054186
O O4 0.561938 0.118463 0.995255
O O5 0.334731 0.764522 0.692585
O O6 0.446093 0.700513 0.578127
O O7 0.451383 0.552589 0.552031
O O8 0.743032 0.521894 0.625138
O O9 0.632013 0.601131 0.448861
O O10 0.741166 0.563837 0.258580
O O11 0.190064 0.842136 0.735615
#
# Coordination Sequence:
#
# PCOD9277239 Si02
#       6
#     8   4   8   8   8   8
#     4  11  22  37  60  91 124 157 213 249 298 370
#     4  10  20  40  70  90 118 154 210 250 310 396
#     4  11  23  37  59  87 129 169 203 252 303 347
#     4  10  22  39  57  86 122 175 217 240 285 368
#     4  10  21  39  65  96 115 156 203 254 309 382
#     4  11  22  38  58  93 127 156 203 263 302 358
#
# _framework density 22.400475
#
# number of rings (size 3 to 8) (size 9 to 14) (size 15 to 20)
#    0.000    1.455    1.818    4.364    5.091    7.273 
#    0.000    0.000    0.000    6.545    0.000    0.000 
#    0.000    0.000    0.000    0.000    0.000    0.000 
#
# Total GULP energy -123110.135562 kJ/mol
# GULP energy per Si atom -5595.915253 kJ/mol
# Density = 2.234949 g / cm^3
# Si number density = 22.400475 Si / 1000 Ang^3
#
#
#
# Elastic Constant Matrix: (Units=GPa)
#
#
# Indices 1 2 3 4 5 6 
#
# 1 58.0236 12.5794 8.8383 0.0000 4.5880 0.0000
# 2 12.5794 61.5585 24.6249 0.0000 2.1659 0.0000
# 3 8.8383 24.6249 121.9973 0.0000 3.2252 0.0000
# 4 0.0000 0.0000 0.0000 31.1572 0.0000 12.3218
# 5 4.5880 2.1659 3.2252 0.0000 37.3909 0.0000
# 6 0.0000 0.0000 0.0000 12.3218 0.0000 13.7709
#
#
#
# Elastic Compliance Matrix: (Units=1/GPa)
#
#
# Indices 1 2 3 4 5 6 
#
# 1 0.018221 -0.003423 -0.000577 0.000000 -0.001988 0.000000
# 2 -0.003423 0.018334 -0.003444 0.000000 -0.000345 0.000000
# 3 -0.000577 -0.003444 0.008947 0.000000 -0.000502 0.000000
# 4 0.000000 0.000000 0.000000 0.049672 0.000000 -0.044445
# 5 -0.001988 -0.000345 -0.000502 0.000000 0.027052 0.000000
# 6 0.000000 0.000000 0.000000 -0.044445 0.000000 0.112385
#
#
# Mechanical properties :
#
#
# Convention : Reuss Voigt Hill
#
# Bulk Modulus (GPa) = 32.66252 37.07382 34.86817
# Shear Modulus (GPa) = 19.25274 29.49959 24.37617
#
# Velocity S-wave (km/s) = 2.93487 3.63287 3.30236
# Velocity P-wave (km/s) = 5.10856 5.84666 5.49003
#
# Compressibility (1/GPa) = 0.03061613
#
# Stress axis : x y z
#
# Youngs Moduli (GPa) = 54.88036 54.54403 111.76924
#
# Poissons Ratio (x) = 0.18670 0.06445
# Poissons Ratio (y) = 0.18785 0.38488
# Poissons Ratio (z) = 0.03165 0.18782
#
# Static dielectric constant tensor:
#      x y z
#    x 1.835150 0.000000 0.065120 
#    y 0.000000 1.816660 0.000000 
#    z 0.065120 0.000000 1.866140 
# 
# From -- ./inp_files/26257.got.cif
#   From: 2010.05.17/outbox.cif.g08.bks.cpg/sg15_14_cif.got.tgz:26257.got - 2010.06.03 18:47:42.
