data_PCOD9277182
_publ_section_title
;
Structure prediction by ZEFSAII (Michael W. Deem and Ramdas Pophale) SiO2 
 PCOD9277182
Probable space group: C 2/C
;
_chemical_formula_sum "Si O2"
_cell_formula_units_Z 32
_cell_length_a 8.049792
_cell_length_b 18.357892
_cell_length_c 8.928250
_cell_angle_alpha 90.000000
_cell_angle_beta 69.526371
_cell_angle_gamma 90.000000
_cell_volume 1236.050232
_symmetry_space_group_name_H-M "C 2/C"
_symmetry_group_IT_number 15
_symmetry_cell_setting 'monoclinic'
loop_
_space_group_symop_operation_xyz
x,y,z
-x,y,1/2-z
-x,-y,-z
x,-y,1/2+z
1/2+x,1/2+y,z
1/2-x,1/2+y,1/2-z
1/2-x,1/2-y,-z
1/2+x,1/2-y,1/2+z
loop_
_atom_site_type_symbol
_atom_site_label
_atom_site_fract_x
_atom_site_fract_y
_atom_site_fract_z
Si Si1 0.441950 0.827492 0.547367
Si Si2 0.621576 0.687933 0.355509
Si Si3 0.730239 0.571405 0.546452
Si Si4 0.296929 0.926679 0.360126
O O1 0.563283 0.761806 0.453814
O O2 0.318271 0.807384 0.724260
O O3 0.569440 0.896186 0.537357
O O4 0.318787 0.851952 0.445334
O O5 0.500000 0.674515 0.250000
O O6 0.615696 0.622583 0.475178
O O7 0.724250 0.489290 0.490435
O O8 0.302379 0.577346 0.766434
O O9 0.500000 0.946767 0.250000
#
# Coordination Sequence:
#
# PCOD9277182 Si02
#       4
#     8   8   8   8
#     4  11  24  44  70 102 137 179 229 284 342 409
#     4  12  25  43  67 102 141 180 224 283 345 408
#     4  11  22  41  70 100 134 181 234 282 337 408
#     4  10  20  40  69 100 132 180 232 279 336 415
#
# _framework density 25.888915000000001
#
# number of rings (size 3 to 8) (size 9 to 14) (size 15 to 20)
#    0.000    1.000    0.000   10.500    0.000    0.000 
#    0.000   11.250    0.000    9.000    0.000    0.000 
#    0.000    0.000    0.000    0.000    0.000    0.000 
#
# Total GULP energy -89847.582062 kJ/mol
# GULP energy per Si atom -5615.473879 kJ/mol
# Density = 2.582999 g / cm^3
# Si number density = 25.888915 Si / 1000 Ang^3
#
#
#
# Elastic Constant Matrix: (Units=GPa)
#
#
# Indices 1 2 3 4 5 6 
#
# 1 117.1256 23.5774 39.2179 0.0000 17.5805 0.0000
# 2 23.5774 127.0608 73.1974 0.0000 8.8997 0.0000
# 3 39.2179 73.1974 181.9072 0.0000 10.0593 0.0000
# 4 0.0000 0.0000 0.0000 26.1426 0.0000 13.7145
# 5 17.5805 8.8997 10.0593 0.0000 42.7292 0.0000
# 6 0.0000 0.0000 0.0000 13.7145 0.0000 44.2991
#
#
#
# Elastic Compliance Matrix: (Units=1/GPa)
#
#
# Indices 1 2 3 4 5 6 
#
# 1 0.009740 -0.000605 -0.001664 0.000000 -0.003490 0.000000
# 2 -0.000605 0.010342 -0.003977 0.000000 -0.000969 0.000000
# 3 -0.001664 -0.003977 0.007470 0.000000 -0.000246 0.000000
# 4 0.000000 0.000000 0.000000 0.045669 0.000000 -0.014139
# 5 -0.003490 -0.000969 -0.000246 0.000000 0.025099 0.000000
# 6 0.000000 0.000000 0.000000 -0.014139 0.000000 0.026951
#
#
# Mechanical properties :
#
#
# Convention : Reuss Voigt Hill
#
# Bulk Modulus (GPa) = 66.39786 77.56436 71.98111
# Shear Modulus (GPa) = 35.01832 41.97423 38.49628
#
# Velocity S-wave (km/s) = 3.68181 4.03093 3.86032
# Velocity P-wave (km/s) = 6.61644 7.18958 6.90895
#
# Compressibility (1/GPa) = 0.01506073
#
# Stress axis : x y z
#
# Youngs Moduli (GPa) = 102.66449 96.69666 133.86786
#
# Poissons Ratio (x) = 0.05846 0.22272
# Poissons Ratio (y) = 0.06207 0.53245
# Poissons Ratio (z) = 0.17080 0.38460
#
# Static dielectric constant tensor:
#      x y z
#    x 2.164330 0.000000 -0.049710 
#    y 0.000000 1.923970 0.000000 
#    z -0.049710 0.000000 1.995450 
# 
# From -- ./inp_files/77553.got.cif
#   From: 2010.05.17/outbox.cif.g08.bks.cpg/sg15_39_cif.got.tgz:77553.got - 2010.06.03 18:47:42.
