data_PCOD9277241
_publ_section_title
;
Structure prediction by ZEFSAII (Michael W. Deem and Ramdas Pophale) SiO2 
 PCOD9277241
Probable space group: C 2/C
;
_chemical_formula_sum "Si O2"
_cell_formula_units_Z 44
_cell_length_a 23.529963
_cell_length_b 19.308823
_cell_length_c 7.933592
_cell_angle_alpha 90.000000
_cell_angle_beta 152.147359
_cell_angle_gamma 90.000000
_cell_volume 1684.026655
_symmetry_space_group_name_H-M "C 2/C"
_symmetry_group_IT_number 15
_symmetry_cell_setting 'monoclinic'
loop_
_space_group_symop_operation_xyz
x,y,z
-x,y,1/2-z
-x,-y,-z
x,-y,1/2+z
1/2+x,1/2+y,z
1/2-x,1/2+y,1/2-z
1/2-x,1/2-y,-z
1/2+x,1/2-y,1/2+z
loop_
_atom_site_type_symbol
_atom_site_label
_atom_site_fract_x
_atom_site_fract_y
_atom_site_fract_z
Si Si1 0.473764 0.079049 0.982381
Si Si2 0.293056 0.644546 0.188349
Si Si3 0.000000 0.327941 0.250000
Si Si4 0.651428 0.392603 0.162133
Si Si5 0.218550 0.238108 0.684203
Si Si6 0.634672 0.480416 0.805686
O O1 0.336088 0.108020 0.615058
O O2 0.541076 0.123567 0.014066
O O3 0.500000 0.088707 0.250000
O O4 0.500000 0.000000 0.000000
O O5 0.317030 0.702450 0.395285
O O6 0.293839 0.691516 0.019143
O O7 0.371623 0.576703 0.358415
O O8 0.902875 0.278808 0.086021
O O9 0.500000 0.384884 0.750000
O O10 0.718403 0.319830 0.328323
O O11 0.692329 0.438710 0.109091
O O12 0.689486 0.444994 0.408402
O O13 0.500000 0.500000 0.500000
#
# Coordination Sequence:
#
# PCOD9277241 Si02
#       6
#     8   8   4   8   8   8
#     4  11  23  41  65  95 126 168 216 268 321 380
#     4   9  20  36  62  90 124 163 211 257 318 381
#     4  10  20  40  70  90 128 170 208 266 326 382
#     4   9  16  30  55  81 116 155 202 239 299 368
#     4   9  17  35  62  85 118 170 203 247 319 385
#     4   9  18  32  56  87 114 152 195 252 300 365
#
# _framework density 26.127853000000002
#
# number of rings (size 3 to 8) (size 9 to 14) (size 15 to 20)
#    0.000    2.545    1.818    0.000    0.000    2.909 
#    0.000    0.909   20.000    0.000    0.000    0.000 
#    0.000    0.000    0.000    0.000    0.000    0.000 
#
# Total GULP energy -122752.793322 kJ/mol
# GULP energy per Si atom -5579.672424 kJ/mol
# Density = 2.606839 g / cm^3
# Si number density = 26.127853 Si / 1000 Ang^3
#
#
#
# Elastic Constant Matrix: (Units=GPa)
#
#
# Indices 1 2 3 4 5 6 
#
# 1 147.8065 85.9513 37.3508 0.0000 -2.6115 0.0000
# 2 85.9513 246.1375 38.7849 0.0000 11.2859 0.0000
# 3 37.3508 38.7849 62.6054 0.0000 -4.1191 0.0000
# 4 0.0000 0.0000 0.0000 21.9527 0.0000 8.2183
# 5 -2.6115 11.2859 -4.1191 0.0000 42.6701 0.0000
# 6 0.0000 0.0000 0.0000 8.2183 0.0000 77.6898
#
#
#
# Elastic Compliance Matrix: (Units=1/GPa)
#
#
# Indices 1 2 3 4 5 6 
#
# 1 0.009314 -0.002691 -0.003830 0.000000 0.000912 0.000000
# 2 -0.002691 0.005373 -0.001839 0.000000 -0.001763 0.000000
# 3 -0.003830 -0.001839 0.019538 0.000000 0.002138 0.000000
# 4 0.000000 0.000000 0.000000 0.047431 0.000000 -0.005017
# 5 0.000912 -0.001763 0.002138 0.000000 0.024164 0.000000
# 6 0.000000 0.000000 0.000000 -0.005017 0.000000 0.013402
#
#
# Mechanical properties :
#
#
# Convention : Reuss Voigt Hill
#
# Bulk Modulus (GPa) = 57.12553 86.74706 71.93630
# Shear Modulus (GPa) = 35.26625 48.09334 41.67980
#
# Velocity S-wave (km/s) = 3.67789 4.29498 3.99836
# Velocity P-wave (km/s) = 6.32037 7.60716 6.99343
#
# Compressibility (1/GPa) = 0.01750531
#
# Stress axis : x y z
#
# Youngs Moduli (GPa) = 107.36142 186.11179 51.18180
#
# Poissons Ratio (x) = 0.50081 0.19602
# Poissons Ratio (y) = 0.28890 0.09414
# Poissons Ratio (z) = 0.41119 0.34232
#
# Static dielectric constant tensor:
#      x y z
#    x 2.200120 0.000000 -0.099270 
#    y 0.000000 2.073410 0.000000 
#    z -0.099270 0.000000 2.112050 
# 
# From -- ./inp_files/62824.got.cif
#   From: 2010.05.17/outbox.cif.g08.bks.cpg/sg15_32_cif.got.tgz:62824.got - 2010.06.03 18:47:42.
