data_PCOD9277050
_publ_section_title
;
Structure prediction by ZEFSAII (Michael W. Deem and Ramdas Pophale) SiO2 
 PCOD9277050
Probable space group: C 2/C
;
_chemical_formula_sum "Si O2"
_cell_formula_units_Z 56
_cell_length_a 24.705327
_cell_length_b 8.701303
_cell_length_c 14.188174
_cell_angle_alpha 90.000000
_cell_angle_beta 60.483381
_cell_angle_gamma 90.000000
_cell_volume 2654.158694
_symmetry_space_group_name_H-M "C 2/C"
_symmetry_group_IT_number 15
_symmetry_cell_setting 'monoclinic'
loop_
_space_group_symop_operation_xyz
x,y,z
-x,y,1/2-z
-x,-y,-z
x,-y,1/2+z
1/2+x,1/2+y,z
1/2-x,1/2+y,1/2-z
1/2-x,1/2-y,-z
1/2+x,1/2-y,1/2+z
loop_
_atom_site_type_symbol
_atom_site_label
_atom_site_fract_x
_atom_site_fract_y
_atom_site_fract_z
Si Si1 0.500000 0.799685 0.750000
Si Si2 0.409597 0.951241 0.409710
Si Si3 0.871080 0.352026 0.099496
Si Si4 0.198792 0.857010 0.993621
Si Si5 0.053769 0.923535 0.892163
Si Si6 0.380015 0.662532 0.760941
Si Si7 0.500000 0.699591 0.250000
Si Si8 0.814796 0.510328 0.322803
O O1 0.450068 0.712735 0.728981
O O2 0.543133 0.908284 0.649990
O O3 0.448756 0.803044 0.347760
O O4 0.352929 0.966813 0.384671
O O5 0.388474 0.987584 0.533469
O O6 0.835546 0.248850 0.052940
O O7 0.927246 0.242444 0.083772
O O8 0.831928 0.394508 0.225096
O O9 0.241610 0.983458 0.907222
O O10 0.250000 0.750000 0.000000
O O11 0.151985 0.906102 0.116783
O O12 0.031719 0.895158 0.804807
O O13 0.112213 0.039846 0.829412
O O14 0.000000 0.000000 0.000000
O O15 0.341361 0.818788 0.773425
#
# Coordination Sequence:
#
# PCOD9277050 Si02
#       8
#     4   8   8   8   8   8   4   8
#     4   9  15  34  66  88 118 182 208 256 334 402
#     4  10  20  40  67  95 131 176 222 279 326 394
#     4  12  23  42  70 101 129 176 238 268 333 406
#     4  10  21  42  68  91 127 175 216 281 330 381
#     4  12  28  41  65 105 140 177 216 276 341 410
#     4  10  21  41  64  92 136 176 216 270 351 384
#     4  11  25  44  64 100 150 164 222 282 336 396
#     4  10  22  43  69  96 129 179 234 275 326 402
#
# _framework density 21.098963999999999
#
# number of rings (size 3 to 8) (size 9 to 14) (size 15 to 20)
#    0.000    1.429    5.714    1.286    4.000    2.857 
#    0.000    2.143    0.000    0.000    0.000    0.000 
#    0.000    0.000    0.000    0.000    0.000    0.000 
#
# Total GULP energy -156281.915538 kJ/mol
# GULP energy per Si atom -5581.496983 kJ/mol
# Density = 2.105094 g / cm^3
# Si number density = 21.098964 Si / 1000 Ang^3
#
#
#
# Elastic Constant Matrix: (Units=GPa)
#
#
# Indices 1 2 3 4 5 6 
#
# 1 57.6581 -0.5829 27.4820 0.0000 -2.5574 0.0000
# 2 -0.5829 52.9962 28.6019 0.0000 -4.2033 0.0000
# 3 27.4820 28.6019 114.0825 0.0000 -5.0535 0.0000
# 4 0.0000 0.0000 0.0000 22.1162 0.0000 -2.9013
# 5 -2.5574 -4.2033 -5.0535 0.0000 27.8678 0.0000
# 6 0.0000 0.0000 0.0000 -2.9013 0.0000 20.0489
#
#
#
# Elastic Compliance Matrix: (Units=1/GPa)
#
#
# Indices 1 2 3 4 5 6 
#
# 1 0.020121 0.003367 -0.005632 0.000000 0.001333 0.000000
# 2 0.003367 0.022535 -0.006348 0.000000 0.002557 0.000000
# 3 -0.005632 -0.006348 0.011743 0.000000 0.000655 0.000000
# 4 0.000000 0.000000 0.000000 0.046091 0.000000 0.006670
# 5 0.001333 0.002557 0.000655 0.000000 0.036511 0.000000
# 6 0.000000 0.000000 0.000000 0.006670 0.000000 0.050843
#
#
# Mechanical properties :
#
#
# Convention : Reuss Voigt Hill
#
# Bulk Modulus (GPa) = 26.90131 37.30431 32.10281
# Shear Modulus (GPa) = 22.99270 25.28897 24.14083
#
# Velocity S-wave (km/s) = 3.30473 3.46582 3.38623
# Velocity P-wave (km/s) = 5.22870 5.80817 5.52604
#
# Compressibility (1/GPa) = 0.03717292
#
# Stress axis : x y z
#
# Youngs Moduli (GPa) = 49.69869 44.37574 85.15878
#
# Poissons Ratio (x) = -0.14940 0.47963
# Poissons Ratio (y) = -0.16732 0.54055
# Poissons Ratio (z) = 0.27991 0.28168
#
# Static dielectric constant tensor:
#      x y z
#    x 1.520470 0.000000 0.085220 
#    y 0.000000 1.796120 0.000000 
#    z 0.085220 0.000000 1.782170 
# 
# From -- ./inp_files/176542.got.cif
#   From: 2010.05.17/outbox.cif.g08.bks.cpg/sg15_89_cif.got.tgz:176542.got - 2010.06.03 18:47:42.
