data_PCOD9277250
_publ_section_title
;
Structure prediction by ZEFSAII (Michael W. Deem and Ramdas Pophale) SiO2 
 PCOD9277250
Probable space group: C 2/C
;
_chemical_formula_sum "Si O2"
_cell_formula_units_Z 44
_cell_length_a 16.500125
_cell_length_b 8.153674
_cell_length_c 17.115847
_cell_angle_alpha 90.000000
_cell_angle_beta 51.444630
_cell_angle_gamma 90.000000
_cell_volume 1800.732363
_symmetry_space_group_name_H-M "C 2/C"
_symmetry_group_IT_number 15
_symmetry_cell_setting 'monoclinic'
loop_
_space_group_symop_operation_xyz
x,y,z
-x,y,1/2-z
-x,-y,-z
x,-y,1/2+z
1/2+x,1/2+y,z
1/2-x,1/2+y,1/2-z
1/2-x,1/2-y,-z
1/2+x,1/2-y,1/2+z
loop_
_atom_site_type_symbol
_atom_site_label
_atom_site_fract_x
_atom_site_fract_y
_atom_site_fract_z
Si Si1 0.304355 0.999206 0.437485
Si Si2 0.365446 0.258105 0.522725
Si Si3 0.000000 0.924252 0.250000
Si Si4 0.765862 0.523341 0.713232
Si Si5 0.333280 0.671275 0.358337
Si Si6 0.410394 0.735463 0.652073
O O1 0.356955 0.862588 0.351710
O O2 0.266791 0.885605 0.532487
O O3 0.365003 0.144888 0.444000
O O4 0.208981 0.089693 0.452195
O O5 0.311202 0.156269 0.624531
O O6 0.487334 0.286800 0.461749
O O7 0.059475 0.818644 0.278202
O O8 0.078076 0.051458 0.162159
O O9 0.691587 0.393390 0.712669
O O10 0.684070 0.617253 0.816705
O O11 0.862703 0.417056 0.683297
#
# Coordination Sequence:
#
# PCOD9277250 Si02
#       6
#     8   8   4   8   8   8
#     4   9  18  35  65  99 125 160 223 267 320 389
#     4  10  20  41  68  95 130 177 217 273 324 394
#     4  10  20  40  70  92 130 170 228 268 330 384
#     4  10  24  42  64  93 138 167 224 272 334 387
#     4   9  18  38  61  93 128 164 208 276 315 392
#     4  11  23  45  64  96 131 177 216 280 324 401
#
# _framework density 24.434502999999999
#
# number of rings (size 3 to 8) (size 9 to 14) (size 15 to 20)
#    0.000    2.182    1.818    0.545    2.545    1.455 
#    9.818    3.636    0.000    0.000    0.000    0.000 
#    0.000    0.000    0.000    0.000    0.000    0.000 
#
# Total GULP energy -122847.781121 kJ/mol
# GULP energy per Si atom -5583.990051 kJ/mol
# Density = 2.437889 g / cm^3
# Si number density = 24.434503 Si / 1000 Ang^3
#
#
#
# Elastic Constant Matrix: (Units=GPa)
#
#
# Indices 1 2 3 4 5 6 
#
# 1 68.7658 42.1623 19.7597 0.0000 -14.6703 0.0000
# 2 42.1623 121.2083 29.6571 0.0000 4.2096 0.0000
# 3 19.7597 29.6571 64.9779 0.0000 -24.6811 0.0000
# 4 0.0000 0.0000 0.0000 33.1744 0.0000 3.8126
# 5 -14.6703 4.2096 -24.6811 0.0000 29.6673 0.0000
# 6 0.0000 0.0000 0.0000 3.8126 0.0000 39.6648
#
#
#
# Elastic Compliance Matrix: (Units=1/GPa)
#
#
# Indices 1 2 3 4 5 6 
#
# 1 0.022381 -0.009013 0.002920 0.000000 0.014775 0.000000
# 2 -0.009013 0.014060 -0.008958 0.000000 -0.013904 0.000000
# 3 0.002920 -0.008958 0.028686 0.000000 0.026580 0.000000
# 4 0.000000 0.000000 0.000000 0.030480 0.000000 -0.002930
# 5 0.014775 -0.013904 0.026580 0.000000 0.065099 0.000000
# 6 0.000000 0.000000 0.000000 -0.002930 0.000000 0.025493
#
#
# Mechanical properties :
#
#
# Convention : Reuss Voigt Hill
#
# Bulk Modulus (GPa) = 28.55014 48.67893 38.61453
# Shear Modulus (GPa) = 21.93200 31.39282 26.66241
#
# Velocity S-wave (km/s) = 2.99922 3.58826 3.30688
# Velocity P-wave (km/s) = 4.86862 6.09368 5.51527
#
# Compressibility (1/GPa) = 0.03502610
#
# Stress axis : x y z
#
# Youngs Moduli (GPa) = 44.68005 71.12342 34.85962
#
# Poissons Ratio (x) = 0.64103 -0.10178
# Poissons Ratio (y) = 0.40270 0.31226
# Poissons Ratio (z) = -0.13045 0.63711
#
# Static dielectric constant tensor:
#      x y z
#    x 1.980060 0.000000 0.046290 
#    y 0.000000 2.009610 0.000000 
#    z 0.046290 0.000000 2.029110 
# 
# From -- ./inp_files/246799.got.cif
#   From: 2010.05.17/outbox.cif.g08.bks.cpg/sg15_124_cif.got.tgz:246799.got - 2010.06.03 18:47:42.
