data_PCOD9277915
_publ_section_title
;
Structure prediction by ZEFSAII (Michael W. Deem and Ramdas Pophale) SiO2 
 PCOD9277915
Probable space group: C 2/C
;
_chemical_formula_sum "Si O2"
_cell_formula_units_Z 48
_cell_length_a 12.407015
_cell_length_b 9.688092
_cell_length_c 17.013031
_cell_angle_alpha 90.000000
_cell_angle_beta 119.216720
_cell_angle_gamma 90.000000
_cell_volume 1784.809538
_symmetry_space_group_name_H-M "C 2/C"
_symmetry_group_IT_number 15
_symmetry_cell_setting 'monoclinic'
loop_
_space_group_symop_operation_xyz
x,y,z
-x,y,1/2-z
-x,-y,-z
x,-y,1/2+z
1/2+x,1/2+y,z
1/2-x,1/2+y,1/2-z
1/2-x,1/2-y,-z
1/2+x,1/2-y,1/2+z
loop_
_atom_site_type_symbol
_atom_site_label
_atom_site_fract_x
_atom_site_fract_y
_atom_site_fract_z
Si Si1 0.820434 0.960291 0.156514
Si Si2 0.615864 0.743268 0.610626
Si Si3 0.393292 0.747971 0.144803
Si Si4 0.956881 0.355322 0.427771
Si Si5 0.121246 0.954579 0.643184
Si Si6 0.368521 0.838915 0.705907
O O1 0.672394 0.935827 0.113102
O O2 0.861111 0.010611 0.258024
O O3 0.868228 0.804597 0.156887
O O4 0.876113 0.080076 0.120553
O O5 0.750973 0.734363 0.620229
O O6 0.518693 0.843881 0.534738
O O7 0.559978 0.590260 0.586732
O O8 0.643707 0.786956 0.708965
O O9 0.500000 0.759215 0.250000
O O10 0.430208 0.865372 0.093970
O O11 0.924463 0.199226 0.387411
O O12 0.257178 0.940160 0.652516
O O13 0.500000 0.908916 0.750000
#
# Coordination Sequence:
#
# PCOD9277915 Si02
#       6
#     8   8   8   8   8   8
#     4  10  21  40  65  91 124 172 229 259 317 414
#     4  11  24  41  61  97 131 161 216 287 328 386
#     4  12  21  42  69  92 127 182 219 259 338 406
#     4  11  24  41  64  97 133 166 219 283 334 383
#     4  10  20  42  62  87 123 172 218 266 324 404
#     4  10  21  39  62  90 120 169 224 263 325 403
#
# _framework density 26.893626999999999
#
# number of rings (size 3 to 8) (size 9 to 14) (size 15 to 20)
#    0.000    1.333    3.333    3.500    2.333    2.667 
#    3.000    1.667    0.000    0.000    0.000    0.000 
#    0.000    0.000    0.000    0.000    0.000    0.000 
#
# Total GULP energy -134060.388274 kJ/mol
# GULP energy per Si atom -5585.849511 kJ/mol
# Density = 2.683242 g / cm^3
# Si number density = 26.893627 Si / 1000 Ang^3
#
#
#
# Elastic Constant Matrix: (Units=GPa)
#
#
# Indices 1 2 3 4 5 6 
#
# 1 103.7358 -8.0219 -6.1282 0.0000 13.9643 0.0000
# 2 -8.0219 84.7580 19.6861 0.0000 4.4103 0.0000
# 3 -6.1282 19.6861 63.1647 0.0000 13.2640 0.0000
# 4 0.0000 0.0000 0.0000 41.9925 0.0000 9.6487
# 5 13.9643 4.4103 13.2640 0.0000 16.4982 0.0000
# 6 0.0000 0.0000 0.0000 9.6487 0.0000 47.4412
#
#
#
# Elastic Compliance Matrix: (Units=1/GPa)
#
#
# Indices 1 2 3 4 5 6 
#
# 1 0.011675 0.000953 0.003566 0.000000 -0.013004 0.000000
# 2 0.000953 0.012798 -0.003619 0.000000 -0.001318 0.000000
# 3 0.003566 -0.003619 0.021339 0.000000 -0.019207 0.000000
# 4 0.000000 0.000000 0.000000 0.024981 0.000000 -0.005081
# 5 -0.013004 -0.001318 -0.019207 0.000000 0.087413 0.000000
# 6 0.000000 0.000000 0.000000 -0.005081 0.000000 0.022112
#
#
# Mechanical properties :
#
#
# Convention : Reuss Voigt Hill
#
# Bulk Modulus (GPa) = 21.00321 29.19228 25.09774
# Shear Modulus (GPa) = 25.72177 37.59454 31.65816
#
# Velocity S-wave (km/s) = 3.09597 3.74290 3.43470
# Velocity P-wave (km/s) = 4.53946 5.43667 5.00820
#
# Compressibility (1/GPa) = 0.04761178
#
# Stress axis : x y z
#
# Youngs Moduli (GPa) = 85.65510 78.13878 46.86284
#
# Poissons Ratio (x) = -0.07449 -0.16712
# Poissons Ratio (y) = -0.08165 0.16961
# Poissons Ratio (z) = -0.30546 0.28281
#
# Static dielectric constant tensor:
#      x y z
#    x 2.405910 0.000000 -0.049940 
#    y 0.000000 2.207190 0.000000 
#    z -0.049940 0.000000 2.091360 
# 
# From -- ./inp_files/236843.got.cif
#   From: 2010.05.17/outbox.cif.g08.bks.cpg/sg15_119_cif.got.tgz:236843.got - 2010.06.03 18:47:42.
