data_PCOD9277041
_publ_section_title
;
Structure prediction by ZEFSAII (Michael W. Deem and Ramdas Pophale) SiO2 
 PCOD9277041
Probable space group: C 2/C
;
_chemical_formula_sum "Si O2"
_cell_formula_units_Z 52
_cell_length_a 16.984934
_cell_length_b 6.110963
_cell_length_c 27.195684
_cell_angle_alpha 90.000000
_cell_angle_beta 118.834342
_cell_angle_gamma 90.000000
_cell_volume 2472.785351
_symmetry_space_group_name_H-M "C 2/C"
_symmetry_group_IT_number 15
_symmetry_cell_setting 'monoclinic'
loop_
_space_group_symop_operation_xyz
x,y,z
-x,y,1/2-z
-x,-y,-z
x,-y,1/2+z
1/2+x,1/2+y,z
1/2-x,1/2+y,1/2-z
1/2-x,1/2-y,-z
1/2+x,1/2-y,1/2+z
loop_
_atom_site_type_symbol
_atom_site_label
_atom_site_fract_x
_atom_site_fract_y
_atom_site_fract_z
Si Si1 0.369336 0.088809 0.755283
Si Si2 0.705394 0.314078 0.682540
Si Si3 0.500000 0.236688 0.250000
Si Si4 0.898400 0.916201 0.423961
Si Si5 0.278597 0.880991 0.960194
Si Si6 0.666849 0.526694 0.333405
Si Si7 0.060948 0.316468 0.992837
O O1 0.371743 0.231687 0.804686
O O2 0.350963 0.250121 0.703167
O O3 0.284980 0.926555 0.736871
O O4 0.452512 0.930271 0.772958
O O5 0.665522 0.506397 0.638049
O O6 0.751357 0.118492 0.665268
O O7 0.576977 0.383642 0.298067
O O8 0.842086 0.766880 0.444381
O O9 0.990611 0.799701 0.434844
O O10 0.921474 0.135472 0.460554
O O11 0.195893 0.938773 0.898844
O O12 0.250000 0.750000 0.000000
O O13 0.343975 0.083493 0.994641
O O14 0.000000 0.500000 0.000000
#
# Coordination Sequence:
#
# PCOD9277041 Si02
#       7
#     8   8   4   8   8   8   8
#     4  11  22  42  68 104 132 171 227 271 343 402
#     4  11  21  38  74  99 124 182 223 278 332 403
#     4  10  26  44  68  96 144 176 212 284 340 400
#     4  10  20  40  67  94 128 166 221 280 326 382
#     4  11  23  41  71  94 131 182 224 273 336 398
#     4  11  22  44  67  98 140 175 224 280 333 405
#     4   9  20  40  62  92 128 165 216 274 319 382
#
# _framework density 21.028915999999999
#
# number of rings (size 3 to 8) (size 9 to 14) (size 15 to 20)
#    0.000    1.538    4.615    0.462    0.000    0.615 
#    0.000   12.308    0.000    0.000    0.000    0.000 
#    0.000    0.000    0.000    0.000    0.000    0.000 
#
# Total GULP energy -145078.018032 kJ/mol
# GULP energy per Si atom -5579.923770 kJ/mol
# Density = 2.098105 g / cm^3
# Si number density = 21.028916 Si / 1000 Ang^3
#
#
#
# Elastic Constant Matrix: (Units=GPa)
#
#
# Indices 1 2 3 4 5 6 
#
# 1 100.1450 46.6115 62.3629 0.0000 13.1604 0.0000
# 2 46.6115 89.5326 28.8433 0.0000 7.2593 0.0000
# 3 62.3629 28.8433 85.0496 0.0000 -0.9099 0.0000
# 4 0.0000 0.0000 0.0000 33.4231 0.0000 8.4036
# 5 13.1604 7.2593 -0.9099 0.0000 23.4523 0.0000
# 6 0.0000 0.0000 0.0000 8.4036 0.0000 39.7151
#
#
#
# Elastic Compliance Matrix: (Units=1/GPa)
#
#
# Indices 1 2 3 4 5 6 
#
# 1 0.024656 -0.006697 -0.015941 0.000000 -0.012382 0.000000
# 2 -0.006697 0.014754 -0.000102 0.000000 -0.000813 0.000000
# 3 -0.015941 -0.000102 0.023587 0.000000 0.009892 0.000000
# 4 0.000000 0.000000 0.000000 0.031601 0.000000 -0.006687
# 5 -0.012382 -0.000813 0.009892 0.000000 0.050223 0.000000
# 6 0.000000 0.000000 0.000000 -0.006687 0.000000 0.026594
#
#
# Mechanical properties :
#
#
# Convention : Reuss Voigt Hill
#
# Bulk Modulus (GPa) = 57.08249 61.15140 59.11694
# Shear Modulus (GPa) = 22.44834 28.44540 25.44687
#
# Velocity S-wave (km/s) = 3.27080 3.68187 3.48241
# Velocity P-wave (km/s) = 6.43956 6.87151 6.65904
#
# Compressibility (1/GPa) = 0.01751851
#
# Stress axis : x y z
#
# Youngs Moduli (GPa) = 40.55753 67.77653 42.39685
#
# Poissons Ratio (x) = 0.45391 0.67583
# Poissons Ratio (y) = 0.27162 0.00431
# Poissons Ratio (z) = 0.64651 0.00690
#
# Static dielectric constant tensor:
#      x y z
#    x 1.809700 0.000000 0.027380 
#    y 0.000000 1.797910 0.000000 
#    z 0.027380 0.000000 1.773860 
# 
# From -- ./inp_files/297845.got.cif
#   From: 2010.05.17/outbox.cif.g08.bks.cpg/sg15_149_cif.got.tgz:297845.got - 2010.06.03 18:47:42.
