data_PCOD9277434
_publ_section_title
;
Structure prediction by ZEFSAII (Michael W. Deem and Ramdas Pophale) SiO2 
 PCOD9277434
Probable space group: C 2/C
;
_chemical_formula_sum "Si O2"
_cell_formula_units_Z 48
_cell_length_a 14.287635
_cell_length_b 29.362478
_cell_length_c 5.477032
_cell_angle_alpha 90.000000
_cell_angle_beta 74.722897
_cell_angle_gamma 90.000000
_cell_volume 2216.531245
_symmetry_space_group_name_H-M "C 2/C"
_symmetry_group_IT_number 15
_symmetry_cell_setting 'monoclinic'
loop_
_space_group_symop_operation_xyz
x,y,z
-x,y,1/2-z
-x,-y,-z
x,-y,1/2+z
1/2+x,1/2+y,z
1/2-x,1/2+y,1/2-z
1/2-x,1/2-y,-z
1/2+x,1/2-y,1/2+z
loop_
_atom_site_type_symbol
_atom_site_label
_atom_site_fract_x
_atom_site_fract_y
_atom_site_fract_z
Si Si1 0.604149 0.657128 0.265739
Si Si2 0.884374 0.527452 0.315166
Si Si3 0.595488 0.251412 0.056284
Si Si4 0.385229 0.526152 0.782742
Si Si5 0.753706 0.199219 0.730501
Si Si6 0.235196 0.104680 0.504743
O O1 0.500000 0.640308 0.250000
O O2 0.573617 0.698331 0.467957
O O3 0.661208 0.615340 0.339472
O O4 0.684311 0.680783 0.037636
O O5 0.861152 0.498256 0.576391
O O6 0.827074 0.574863 0.368226
O O7 0.000000 0.535066 0.250000
O O8 0.500000 0.231993 0.250000
O O9 0.676472 0.261791 0.205178
O O10 0.647039 0.221672 0.810092
O O11 0.500000 0.533369 0.750000
O O12 0.358871 0.495582 0.565100
O O13 0.328845 0.573094 0.775405
O O14 0.742057 0.154356 0.905862
#
# Coordination Sequence:
#
# PCOD9277434 Si02
#       6
#     8   8   8   8   8   8
#     4  11  23  38  64  94 131 178 218 270 338 409
#     4  10  23  45  73  97 130 180 228 277 341 406
#     4  10  20  41  63  86 124 170 220 274 330 406
#     4  10  23  39  59  88 127 172 213 257 320 393
#     4  10  23  38  61  92 125 169 219 272 338 399
#     4  11  25  37  64  94 130 164 218 278 334 394
#
# _framework density 21.655456999999998
#
# number of rings (size 3 to 8) (size 9 to 14) (size 15 to 20)
#    0.000    1.667    1.667    1.500    7.000    1.333 
#    0.000    0.000    0.000    0.000    0.000    0.000 
#    0.000    0.000    0.000    0.000    0.000    0.000 
#
# Total GULP energy -133867.917174 kJ/mol
# GULP energy per Si atom -5577.829882 kJ/mol
# Density = 2.160617 g / cm^3
# Si number density = 21.655457 Si / 1000 Ang^3
#
#
#
# Elastic Constant Matrix: (Units=GPa)
#
#
# Indices 1 2 3 4 5 6 
#
# 1 90.8938 45.0163 42.2558 0.0000 -22.9370 0.0000
# 2 45.0163 86.9945 30.7640 0.0000 -12.2992 0.0000
# 3 42.2558 30.7640 105.5819 0.0000 -18.4046 0.0000
# 4 0.0000 0.0000 0.0000 16.6769 0.0000 -3.1292
# 5 -22.9370 -12.2992 -18.4046 0.0000 32.1725 0.0000
# 6 0.0000 0.0000 0.0000 -3.1292 0.0000 33.3254
#
#
#
# Elastic Compliance Matrix: (Units=1/GPa)
#
#
# Indices 1 2 3 4 5 6 
#
# 1 0.018309 -0.006947 -0.003878 0.000000 0.008179 0.000000
# 2 -0.006947 0.015730 -0.001797 0.000000 0.000033 0.000000
# 3 -0.003878 -0.001797 0.012158 0.000000 0.003503 0.000000
# 4 0.000000 0.000000 0.000000 0.061039 0.000000 0.005731
# 5 0.008179 0.000033 0.003503 0.000000 0.038930 0.000000
# 6 0.000000 0.000000 0.000000 0.005731 0.000000 0.030545
#
#
# Mechanical properties :
#
#
# Convention : Reuss Voigt Hill
#
# Bulk Modulus (GPa) = 47.72597 57.72695 52.72646
# Shear Modulus (GPa) = 23.93049 27.46389 25.69719
#
# Velocity S-wave (km/s) = 3.32784 3.56507 3.44850
# Velocity P-wave (km/s) = 6.07064 6.60766 6.34483
#
# Compressibility (1/GPa) = 0.02095295
#
# Stress axis : x y z
#
# Youngs Moduli (GPa) = 54.61800 63.57366 82.25265
#
# Poissons Ratio (x) = 0.44162 0.31896
# Poissons Ratio (y) = 0.37940 0.14785
# Poissons Ratio (z) = 0.21180 0.11427
#
# Static dielectric constant tensor:
#      x y z
#    x 1.838560 0.000000 0.011140 
#    y 0.000000 1.765330 0.000000 
#    z 0.011140 0.000000 1.902200 
# 
# From -- ./inp_files/8643.got.cif
#   From: 2010.05.17/outbox.cif.g08.bks.cpg/sg15_5_cif.got.tgz:8643.got - 2010.06.03 18:47:42.
