data_PCOD9277040
_publ_section_title
;
Structure prediction by ZEFSAII (Michael W. Deem and Ramdas Pophale) SiO2 
 PCOD9277040
Probable space group: C 2/C
;
_chemical_formula_sum "Si O2"
_cell_formula_units_Z 48
_cell_length_a 14.311944
_cell_length_b 11.129955
_cell_length_c 15.082453
_cell_angle_alpha 90.000000
_cell_angle_beta 70.420830
_cell_angle_gamma 90.000000
_cell_volume 2263.589112
_symmetry_space_group_name_H-M "C 2/C"
_symmetry_group_IT_number 15
_symmetry_cell_setting 'monoclinic'
loop_
_space_group_symop_operation_xyz
x,y,z
-x,y,1/2-z
-x,-y,-z
x,-y,1/2+z
1/2+x,1/2+y,z
1/2-x,1/2+y,1/2-z
1/2-x,1/2-y,-z
1/2+x,1/2-y,1/2+z
loop_
_atom_site_type_symbol
_atom_site_label
_atom_site_fract_x
_atom_site_fract_y
_atom_site_fract_z
Si Si1 0.000000 0.319566 0.750000
Si Si2 0.107218 0.611530 0.874535
Si Si3 0.684517 0.361103 0.195916
Si Si4 0.581252 0.449423 0.602273
Si Si5 0.117598 0.090237 0.895886
Si Si6 0.500000 0.237900 0.750000
Si Si7 0.550442 0.134765 0.419418
O O1 0.900810 0.239239 0.775771
O O2 0.008855 0.386179 0.653802
O O3 0.207210 0.682438 0.866703
O O4 0.131370 0.470096 0.883148
O O5 0.068886 0.656504 0.791493
O O6 0.018965 0.627001 0.972996
O O7 0.639664 0.462131 0.147485
O O8 0.696504 0.414575 0.291736
O O9 0.475392 0.510594 0.609527
O O10 0.638862 0.440906 0.490594
O O11 0.558503 0.327012 0.663263
O O12 0.088089 0.230067 0.909563
#
# Coordination Sequence:
#
# PCOD9277040 Si02
#       7
#     4   8   8   8   8   4   8
#     4  10  20  42  68  82 130 162 210 264 312 366
#     4  11  26  40  65  91 131 167 217 250 324 387
#     4  11  21  42  62 101 120 167 212 262 314 384
#     4  11  20  39  69  92 129 158 216 269 318 357
#     4  10  20  40  67  94 125 170 204 269 319 365
#     4  12  22  44  62  94 122 168 212 272 308 376
#     4  10  21  45  60  88 129 176 202 257 314 383
#
# _framework density 21.205262000000001
#
# number of rings (size 3 to 8) (size 9 to 14) (size 15 to 20)
#    0.000    1.333    6.667    0.500    0.000    3.333 
#    9.000    1.667    0.000    0.000    0.000    0.000 
#    0.000    0.000    0.000    0.000    0.000    0.000 
#
# Total GULP energy -133728.799547 kJ/mol
# GULP energy per Si atom -5572.033314 kJ/mol
# Density = 2.115700 g / cm^3
# Si number density = 21.205262 Si / 1000 Ang^3
#
#
#
# Elastic Constant Matrix: (Units=GPa)
#
#
# Indices 1 2 3 4 5 6 
#
# 1 32.2341 -33.0387 10.0439 0.0000 -24.5702 0.0000
# 2 -33.0387 14.0137 13.3161 0.0000 -21.9669 0.0000
# 3 10.0439 13.3161 121.0677 0.0000 21.1704 0.0000
# 4 0.0000 0.0000 0.0000 6.2636 0.0000 15.4508
# 5 -24.5702 -21.9669 21.1704 0.0000 0.4778 0.0000
# 6 0.0000 0.0000 0.0000 15.4508 0.0000 6.8961
#
#
#
# Elastic Compliance Matrix: (Units=1/GPa)
#
#
# Indices 1 2 3 4 5 6 
#
# 1 0.009218 -0.007739 0.003051 0.000000 -0.016952 0.000000
# 2 -0.007739 0.011609 0.003612 0.000000 -0.024287 0.000000
# 3 0.003051 0.003612 0.007241 0.000000 0.002105 0.000000
# 4 0.000000 0.000000 0.000000 -0.035268 0.000000 0.079019
# 5 -0.016952 -0.024287 0.002105 0.000000 0.011279 0.000000
# 6 0.000000 0.000000 0.000000 0.079019 0.000000 -0.032034
#
#
# Mechanical properties :
#
#
# Convention : Reuss Voigt Hill
#
# Bulk Modulus (GPa) = 38.58565 16.43977 27.51271
# Shear Modulus (GPa) = -291.32793 14.52711 -138.40041
#
# Velocity S-wave (km/s) = -11.73384 2.62023 -8.08756
# Velocity P-wave (km/s) = 12.85852 4.11383 8.61446
#
# Compressibility (1/GPa) = 0.02591637
#
# Stress axis : x y z
#
# Youngs Moduli (GPa) = 108.48006 86.13779 138.09701
#
# Poissons Ratio (x) = 0.66664 -0.42131
# Poissons Ratio (y) = 0.83955 -0.49883
# Poissons Ratio (z) = -0.33095 -0.31114
#
# Static dielectric constant tensor:
#      x y z
#    x 1.775080 0.000000 -0.004200 
#    y 0.000000 1.820200 0.000000 
#    z -0.004200 0.000000 1.823350 
# 
# From -- ./inp_files/151973.got.cif
#   From: 2010.05.17/outbox.cif.g08.bks.cpg/sg15_76_cif.got.tgz:151973.got - 2010.06.03 18:47:42.
