data_PCOD9277825
_publ_section_title
;
Structure prediction by ZEFSAII (Michael W. Deem and Ramdas Pophale) SiO2 
 PCOD9277825
Probable space group: C 2/C
;
_chemical_formula_sum "Si O2"
_cell_formula_units_Z 48
_cell_length_a 5.682906
_cell_length_b 26.186432
_cell_length_c 14.445207
_cell_angle_alpha 90.000000
_cell_angle_beta 66.212202
_cell_angle_gamma 90.000000
_cell_volume 1967.040500
_symmetry_space_group_name_H-M "C 2/C"
_symmetry_group_IT_number 15
_symmetry_cell_setting 'monoclinic'
loop_
_space_group_symop_operation_xyz
x,y,z
-x,y,1/2-z
-x,-y,-z
x,-y,1/2+z
1/2+x,1/2+y,z
1/2-x,1/2+y,1/2-z
1/2-x,1/2-y,-z
1/2+x,1/2-y,1/2+z
loop_
_atom_site_type_symbol
_atom_site_label
_atom_site_fract_x
_atom_site_fract_y
_atom_site_fract_z
Si Si1 0.000000 0.759978 0.750000
Si Si2 0.166375 0.460885 0.916215
Si Si3 0.500000 0.074206 0.250000
Si Si4 0.500000 0.528097 0.750000
Si Si5 0.471756 0.226910 0.070555
Si Si6 0.717706 0.140630 0.532512
Si Si7 0.000000 0.409427 0.250000
Si Si8 0.704786 0.660973 0.366074
O O1 0.735226 0.738202 0.839128
O O2 0.918825 0.795644 0.677104
O O3 0.424519 0.491009 0.847341
O O4 0.027230 0.454616 0.840222
O O5 0.177541 0.407006 0.967674
O O6 0.000000 0.500000 0.000000
O O7 0.254187 0.110916 0.299627
O O8 0.750831 0.560021 0.746376
O O9 0.533012 0.182868 0.135635
O O10 0.750000 0.250000 0.000000
O O11 0.382497 0.193946 0.995802
O O12 0.601150 0.124361 0.648150
O O13 0.024525 0.147835 0.481466
#
# Coordination Sequence:
#
# PCOD9277825 Si02
#       8
#     4   8   4   4   8   8   4   8
#     4  10  20  41  71 112 143 188 253 320 403 469
#     4  12  25  43  72 110 150 203 263 326 389 461
#     4  12  21  42  74 109 141 202 258 324 390 465
#     4  12  28  49  72 113 155 211 269 326 386 487
#     4  11  24  46  75 110 151 195 259 334 402 484
#     4  11  26  46  73 107 149 209 258 329 395 479
#     4  12  29  50  77 106 169 213 266 318 415 489
#     4  11  21  43  76 101 142 190 255 320 380 467
#
# _framework density 24.402142999999999
#
# number of rings (size 3 to 8) (size 9 to 14) (size 15 to 20)
#    0.000    0.667    5.000    2.500    4.667    4.000 
#    0.000    5.000    0.000    0.000    0.000    0.000 
#    0.000    0.000    0.000    0.000    0.000    0.000 
#
# Total GULP energy -134040.084634 kJ/mol
# GULP energy per Si atom -5585.003526 kJ/mol
# Density = 2.434660 g / cm^3
# Si number density = 24.402143 Si / 1000 Ang^3
#
#
#
# Elastic Constant Matrix: (Units=GPa)
#
#
# Indices 1 2 3 4 5 6 
#
# 1 80.4413 33.0599 46.3265 0.0000 -6.0407 0.0000
# 2 33.0599 101.0224 60.4919 0.0000 -12.6293 0.0000
# 3 46.3265 60.4919 219.3944 0.0000 -24.4097 0.0000
# 4 0.0000 0.0000 0.0000 -92.5404 0.0000 57.2340
# 5 -6.0407 -12.6293 -24.4097 0.0000 58.7790 0.0000
# 6 0.0000 0.0000 0.0000 57.2340 0.0000 16.9781
#
#
#
# Elastic Compliance Matrix: (Units=1/GPa)
#
#
# Indices 1 2 3 4 5 6 
#
# 1 0.015203 -0.003667 -0.002215 0.000000 -0.000145 0.000000
# 2 -0.003667 0.012829 -0.002619 0.000000 0.001292 0.000000
# 3 -0.002215 -0.002619 0.005934 0.000000 0.001674 0.000000
# 4 0.000000 0.000000 0.000000 -0.003503 0.000000 0.011808
# 5 -0.000145 0.001292 0.001674 0.000000 0.017971 0.000000
# 6 0.000000 0.000000 0.000000 0.011808 0.000000 0.019093
#
#
# Mechanical properties :
#
#
# Convention : Reuss Voigt Hill
#
# Bulk Modulus (GPa) = 58.95094 75.62387 67.28741
# Shear Modulus (GPa) = 55.44212 14.04199 34.74205
#
# Velocity S-wave (km/s) = 4.77174 2.40144 3.77733
# Velocity P-wave (km/s) = 7.38714 6.22472 6.83070
#
# Compressibility (1/GPa) = 0.01696326
#
# Stress axis : x y z
#
# Youngs Moduli (GPa) = 65.77464 77.95062 168.51508
#
# Poissons Ratio (x) = 0.28584 0.37333
# Poissons Ratio (y) = 0.24119 0.44136
# Poissons Ratio (z) = 0.14572 0.20416
#
# Static dielectric constant tensor:
#      x y z
#    x 2.028780 0.000000 -0.059310 
#    y 0.000000 2.015450 0.000000 
#    z -0.059310 0.000000 1.984830 
# 
# From -- ./inp_files/130653.got.cif
#   From: 2010.05.17/outbox.cif.g08.bks.cpg/sg15_66_cif.got.tgz:130653.got - 2010.06.03 18:47:42.
