data_PCOD9277002
_publ_section_title
;
Structure prediction by ZEFSAII (Michael W. Deem and Ramdas Pophale) SiO2 
 PCOD9277002
Probable space group: C 2/C
;
_chemical_formula_sum "Si O2"
_cell_formula_units_Z 40
_cell_length_a 15.987611
_cell_length_b 8.531808
_cell_length_c 16.542515
_cell_angle_alpha 90.000000
_cell_angle_beta 61.717106
_cell_angle_gamma 90.000000
_cell_volume 1987.074563
_symmetry_space_group_name_H-M "C 2/C"
_symmetry_group_IT_number 15
_symmetry_cell_setting 'monoclinic'
loop_
_space_group_symop_operation_xyz
x,y,z
-x,y,1/2-z
-x,-y,-z
x,-y,1/2+z
1/2+x,1/2+y,z
1/2-x,1/2+y,1/2-z
1/2-x,1/2-y,-z
1/2+x,1/2-y,1/2+z
loop_
_atom_site_type_symbol
_atom_site_label
_atom_site_fract_x
_atom_site_fract_y
_atom_site_fract_z
Si Si1 0.623029 0.931917 0.265725
Si Si2 0.578621 0.956728 0.612576
Si Si3 0.106788 0.880399 0.183274
Si Si4 0.767546 0.380728 0.559208
Si Si5 0.229964 0.717300 0.262468
O O1 0.661082 0.774305 0.288097
O O2 0.532463 0.009305 0.350192
O O3 0.601653 0.933144 0.180296
O O4 0.712883 0.046387 0.233887
O O5 0.595315 0.778257 0.634343
O O6 0.647354 0.007407 0.509768
O O7 0.160365 0.822906 0.240062
O O8 0.000000 0.936431 0.250000
O O9 0.174337 0.011418 0.114012
O O10 0.750000 0.250000 0.500000
O O11 0.792788 0.298694 0.632388
#
# Coordination Sequence:
#
# PCOD9277002 Si02
#       5
#     8   8   8   8   8
#     4  10  20  40  67  87 131 171 213 252 330 384
#     4  10  21  42  65  92 127 173 210 262 320 379
#     4  11  23  45  67  88 128 179 213 254 327 387
#     4  12  25  39  65 100 132 158 222 275 311 372
#     4  11  21  41  63  93 123 172 213 259 317 384
#
# _framework density 20.130094
#
# number of rings (size 3 to 8) (size 9 to 14) (size 15 to 20)
#    0.000    1.200    8.000    0.600    0.000    2.400 
#    0.000    1.000    0.000    0.000    0.000    0.000 
#    0.000    0.000    0.000    0.000    0.000    0.000 
#
# Total GULP energy -111564.583685 kJ/mol
# GULP energy per Si atom -5578.229184 kJ/mol
# Density = 2.008428 g / cm^3
# Si number density = 20.130094 Si / 1000 Ang^3
#
#
#
# Elastic Constant Matrix: (Units=GPa)
#
#
# Indices 1 2 3 4 5 6 
#
# 1 94.9604 60.2387 46.5865 0.0000 -8.9591 0.0000
# 2 60.2387 80.2181 57.3314 0.0000 -20.4711 0.0001
# 3 46.5865 57.3314 109.5940 0.0000 -17.7460 0.0000
# 4 0.0000 0.0000 0.0000 40.8352 0.0000 3.9884
# 5 -8.9591 -20.4711 -17.7460 0.0000 33.7427 0.0000
# 6 0.0000 0.0001 0.0000 3.9884 0.0000 28.0720
#
#
#
# Elastic Compliance Matrix: (Units=1/GPa)
#
#
# Indices 1 2 3 4 5 6 
#
# 1 0.020825 -0.015946 -0.001292 0.000000 -0.004824 0.000000
# 2 -0.015946 0.033868 -0.009070 0.000000 0.011543 0.000000
# 3 -0.001292 -0.009070 0.014726 0.000000 0.001899 0.000000
# 4 0.000000 0.000000 0.000000 0.024833 0.000000 -0.003528
# 5 -0.004824 0.011543 0.001899 0.000000 0.036357 0.000000
# 6 0.000000 0.000000 0.000000 -0.003528 0.000000 0.036124
#
#
# Mechanical properties :
#
#
# Convention : Reuss Voigt Hill
#
# Bulk Modulus (GPa) = 59.50988 68.12063 63.81526
# Shear Modulus (GPa) = 22.22720 28.57105 25.39913
#
# Velocity S-wave (km/s) = 3.32652 3.77147 3.55596
# Velocity P-wave (km/s) = 6.66192 7.27180 6.97353
#
# Compressibility (1/GPa) = 0.01680393
#
# Stress axis : x y z
#
# Youngs Moduli (GPa) = 48.02007 29.52599 67.90787
#
# Poissons Ratio (x) = 0.47082 0.08771
# Poissons Ratio (y) = 0.76573 0.61592
# Poissons Ratio (z) = 0.06202 0.26780
#
# Static dielectric constant tensor:
#      x y z
#    x 1.744380 0.000000 -0.009020 
#    y 0.000000 1.800260 0.000000 
#    z -0.009020 0.000000 1.698800 
# 
# From -- ./inp_files/202478.got.cif
#   From: 2010.05.17/outbox.cif.g08.bks.cpg/sg15_102_cif.got.tgz:202478.got - 2010.06.03 18:47:42.
