data_PCOD9277228
_publ_section_title
;
Structure prediction by ZEFSAII (Michael W. Deem and Ramdas Pophale) SiO2 
 PCOD9277228
Probable space group: C 2/C
;
_chemical_formula_sum "Si O2"
_cell_formula_units_Z 44
_cell_length_a 11.334526
_cell_length_b 8.222045
_cell_length_c 24.606200
_cell_angle_alpha 90.000000
_cell_angle_beta 49.599821
_cell_angle_gamma 90.000000
_cell_volume 1746.298021
_symmetry_space_group_name_H-M "C 2/C"
_symmetry_group_IT_number 15
_symmetry_cell_setting 'monoclinic'
loop_
_space_group_symop_operation_xyz
x,y,z
-x,y,1/2-z
-x,-y,-z
x,-y,1/2+z
1/2+x,1/2+y,z
1/2-x,1/2+y,1/2-z
1/2-x,1/2-y,-z
1/2+x,1/2-y,1/2+z
loop_
_atom_site_type_symbol
_atom_site_label
_atom_site_fract_x
_atom_site_fract_y
_atom_site_fract_z
Si Si1 0.500000 0.000000 0.500000
Si Si2 0.338296 0.924894 0.943420
Si Si3 0.562138 0.847248 0.786566
Si Si4 0.012628 0.019427 0.561459
Si Si5 0.325569 0.707464 0.402767
Si Si6 0.207576 0.679151 0.702721
O O1 0.473108 0.064943 0.447112
O O2 0.333298 0.894980 0.544831
O O3 0.309260 0.110221 0.930255
O O4 0.412248 0.836950 0.869809
O O5 0.169929 0.876102 0.016291
O O6 0.500000 0.765884 0.750000
O O7 0.711834 0.777198 0.772376
O O8 0.607510 0.033137 0.758444
O O9 0.854260 0.093712 0.629444
O O10 0.050752 0.874947 0.592859
O O11 0.000000 0.000000 0.500000
O O12 0.364196 0.719356 0.326743
#
# Coordination Sequence:
#
# PCOD9277228 Si02
#       6
#     4   8   8   8   8   8
#     4  10  20  40  70 106 136 176 242 294 356 430
#     4  11  23  45  75 101 145 187 240 301 371 433
#     4  12  27  50  70 105 148 199 248 304 363 452
#     4  11  23  43  73 112 140 187 243 308 366 441
#     4  11  23  44  72 104 143 193 233 299 372 436
#     4  12  28  47  72 104 148 196 252 299 379 438
#
# _framework density 25.196155999999998
#
# number of rings (size 3 to 8) (size 9 to 14) (size 15 to 20)
#    0.000    0.727    5.455    2.182    2.545    2.182 
#    0.000    0.000    0.000    0.000    0.000    0.000 
#    0.000    0.000    0.000    0.000    0.000    0.000 
#
# Total GULP energy -122510.914968 kJ/mol
# GULP energy per Si atom -5568.677953 kJ/mol
# Density = 2.513881 g / cm^3
# Si number density = 25.196156 Si / 1000 Ang^3
#
#
#
# Elastic Constant Matrix: (Units=GPa)
#
#
# Indices 1 2 3 4 5 6 
#
# 1 194.6793 38.3694 25.3670 0.0000 53.6730 0.0000
# 2 38.3694 39.7777 9.3268 0.0000 6.7035 0.0000
# 3 25.3670 9.3268 149.1880 0.0000 18.1530 0.0000
# 4 0.0000 0.0000 0.0000 42.4053 0.0000 -1.4304
# 5 53.6730 6.7035 18.1530 0.0000 53.9171 0.0000
# 6 0.0000 0.0000 0.0000 -1.4304 0.0000 26.7752
#
#
#
# Elastic Compliance Matrix: (Units=1/GPa)
#
#
# Indices 1 2 3 4 5 6 
#
# 1 0.008663 -0.007033 -0.000094 0.000000 -0.007717 0.000000
# 2 -0.007033 0.031621 -0.001204 0.000000 0.003476 0.000000
# 3 -0.000094 -0.001204 0.007054 0.000000 -0.002131 0.000000
# 4 0.000000 0.000000 0.000000 0.023625 0.000000 0.001262
# 5 -0.007717 0.003476 -0.002131 0.000000 0.026515 0.000000
# 6 0.000000 0.000000 0.000000 0.001262 0.000000 0.037415
#
#
# Mechanical properties :
#
#
# Convention : Reuss Voigt Hill
#
# Bulk Modulus (GPa) = 32.60077 58.86350 45.73213
# Shear Modulus (GPa) = 30.90625 45.32500 38.11562
#
# Velocity S-wave (km/s) = 3.50612 4.24593 3.89364
# Velocity P-wave (km/s) = 5.41825 6.88840 6.19707
#
# Compressibility (1/GPa) = 0.03067412
#
# Stress axis : x y z
#
# Youngs Moduli (GPa) = 115.43545 31.62488 141.77216
#
# Poissons Ratio (x) = 0.22243 0.01336
# Poissons Ratio (y) = 0.81191 0.17067
# Poissons Ratio (z) = 0.01088 0.03807
#
# Static dielectric constant tensor:
#      x y z
#    x 2.062680 0.000000 0.002970 
#    y 0.000000 2.175650 0.000000 
#    z 0.002970 0.000000 2.055340 
# 
# From -- ./inp_files/291438.got.cif
#   From: 2010.05.17/outbox.cif.g08.bks.cpg/sg15_146_cif.got.tgz:291438.got - 2010.06.03 18:47:42.
