data_PCOD9277592
_publ_section_title
;
Structure prediction by ZEFSAII (Michael W. Deem and Ramdas Pophale) SiO2 
 PCOD9277592
Probable space group: C 2/C
;
_chemical_formula_sum "Si O2"
_cell_formula_units_Z 48
_cell_length_a 18.976102
_cell_length_b 28.355652
_cell_length_c 10.433783
_cell_angle_alpha 90.000000
_cell_angle_beta 23.255210
_cell_angle_gamma 90.000000
_cell_volume 2216.642879
_symmetry_space_group_name_H-M "C 2/C"
_symmetry_group_IT_number 15
_symmetry_cell_setting 'monoclinic'
loop_
_space_group_symop_operation_xyz
x,y,z
-x,y,1/2-z
-x,-y,-z
x,-y,1/2+z
1/2+x,1/2+y,z
1/2-x,1/2+y,1/2-z
1/2-x,1/2-y,-z
1/2+x,1/2-y,1/2+z
loop_
_atom_site_type_symbol
_atom_site_label
_atom_site_fract_x
_atom_site_fract_y
_atom_site_fract_z
Si Si1 0.716068 0.404008 0.637058
Si Si2 0.711913 0.605181 0.626675
Si Si3 0.711657 0.247592 0.411367
Si Si4 0.290246 0.654117 0.119335
Si Si5 0.719092 0.351997 0.376536
Si Si6 0.621424 0.994799 0.673063
O O1 0.789490 0.383992 0.648394
O O2 0.781981 0.372980 0.406594
O O3 0.759827 0.458323 0.541428
O O4 0.503317 0.395472 0.001080
O O5 0.777465 0.643317 0.411285
O O6 0.778049 0.616930 0.658490
O O7 0.768077 0.552947 0.494635
O O8 0.750000 0.250000 0.500000
O O9 0.778352 0.203936 0.214010
O O10 0.776412 0.298468 0.255604
O O11 0.500000 0.245337 0.750000
O O12 0.500000 0.645231 0.750000
O O13 0.500000 0.351714 0.750000
O O14 0.500000 0.990840 0.750000
O O15 0.500000 0.000000 0.000000
#
# Coordination Sequence:
#
# PCOD9277592 Si02
#       6
#     8   8   8   8   8   8
#     4  10  20  41  66  84 119 173 214 252 313 394
#     4  10  22  41  62  90 121 171 214 260 311 391
#     4  11  23  43  68  97 132 174 217 263 330 392
#     4  10  22  40  65  94 127 162 219 267 315 381
#     4   9  19  38  64  87 122 163 215 257 308 380
#     4  12  25  40  60  93 131 159 206 274 326 379
#
# _framework density 21.654368000000002
#
# number of rings (size 3 to 8) (size 9 to 14) (size 15 to 20)
#    0.000    1.667    1.667    2.500    2.333    2.667 
#    3.000    6.667    0.000    0.000    0.000    0.000 
#    0.000    0.000    0.000    0.000    0.000    0.000 
#
# Total GULP energy -134017.352506 kJ/mol
# GULP energy per Si atom -5584.056354 kJ/mol
# Density = 2.160508 g / cm^3
# Si number density = 21.654368 Si / 1000 Ang^3
#
#
#
# Elastic Constant Matrix: (Units=GPa)
#
#
# Indices 1 2 3 4 5 6 
#
# 1 94.4830 12.3066 44.0926 -0.0009 37.1761 -0.0043
# 2 12.3066 137.0366 41.7720 -0.0005 41.1943 -0.0017
# 3 44.0926 41.7720 85.1949 0.0065 37.2698 -0.0020
# 4 -0.0009 -0.0005 0.0065 30.7001 0.0000 8.2047
# 5 37.1761 41.1943 37.2698 0.0000 38.2474 0.0026
# 6 -0.0043 -0.0017 -0.0020 8.2047 0.0026 27.5922
#
#
#
# Elastic Compliance Matrix: (Units=1/GPa)
#
#
# Indices 1 2 3 4 5 6 
#
# 1 0.020568 0.006218 -0.003518 0.000000 -0.023261 0.000006
# 2 0.006218 0.012677 -0.001424 0.000000 -0.018310 0.000003
# 3 -0.003518 -0.001424 0.021073 -0.000006 -0.015582 0.000004
# 4 0.000000 0.000000 -0.000006 0.035385 0.000007 -0.010522
# 5 -0.023261 -0.018310 -0.015582 0.000007 0.083659 -0.000016
# 6 0.000006 0.000003 0.000004 -0.010522 -0.000016 0.039371
#
#
# Mechanical properties :
#
#
# Convention : Reuss Voigt Hill
#
# Bulk Modulus (GPa) = 17.58388 57.00632 37.29510
# Shear Modulus (GPa) = 21.82096 33.87750 27.84923
#
# Velocity S-wave (km/s) = 3.17786 3.95962 3.59009
# Velocity P-wave (km/s) = 4.64790 6.87659 5.86901
#
# Compressibility (1/GPa) = 0.05687026
#
# Stress axis : x y z
#
# Youngs Moduli (GPa) = 48.61897 78.88281 47.45437
#
# Poissons Ratio (x) = -0.49046 0.16694
# Poissons Ratio (y) = -0.30229 0.06756
# Poissons Ratio (z) = 0.17103 0.11230
#
# Static dielectric constant tensor:
#      x y z
#    x 1.823410 0.000000 -0.008090 
#    y 0.000000 1.788580 0.000000 
#    z -0.008090 0.000000 1.757350 
# 
# From -- ./inp_files/52718.got.cif
#   From: 2010.05.17/outbox.cif.g08.bks.cpg/sg15_27_cif.got.tgz:52718.got - 2010.06.03 18:47:42.
