data_PCOD9277376
_publ_section_title
;
Structure prediction by ZEFSAII (Michael W. Deem and Ramdas Pophale) SiO2 
 PCOD9277376
Probable space group: C 2/C
;
_chemical_formula_sum "Si O2"
_cell_formula_units_Z 60
_cell_length_a 27.644365
_cell_length_b 9.614379
_cell_length_c 8.501562
_cell_angle_alpha 90.000000
_cell_angle_beta 86.718913
_cell_angle_gamma 90.000000
_cell_volume 2255.870098
_symmetry_space_group_name_H-M "C 2/C"
_symmetry_group_IT_number 15
_symmetry_cell_setting 'monoclinic'
loop_
_space_group_symop_operation_xyz
x,y,z
-x,y,1/2-z
-x,-y,-z
x,-y,1/2+z
1/2+x,1/2+y,z
1/2-x,1/2+y,1/2-z
1/2-x,1/2-y,-z
1/2+x,1/2-y,1/2+z
loop_
_atom_site_type_symbol
_atom_site_label
_atom_site_fract_x
_atom_site_fract_y
_atom_site_fract_z
Si Si1 0.153329 0.801417 0.157065
Si Si2 0.678332 0.091185 0.894477
Si Si3 0.917298 0.179166 0.340335
Si Si4 0.194083 0.098243 0.190956
Si Si5 0.057479 0.901049 0.004340
Si Si6 0.245478 0.439096 0.101940
Si Si7 0.093724 0.391487 0.897481
Si Si8 0.500000 0.205622 0.250000
O O1 0.178701 0.701700 0.031099
O O2 0.109389 0.861671 0.064825
O O3 0.129498 0.717916 0.304110
O O4 0.186607 0.928488 0.195523
O O5 0.707337 0.967405 0.969410
O O6 0.710424 0.133226 0.737972
O O7 0.623486 0.035464 0.883942
O O8 0.861218 0.152525 0.295062
O O9 0.917005 0.327219 0.428533
O O10 0.939466 0.066571 0.461284
O O11 0.945962 0.145659 0.174988
O O12 0.232779 0.083553 0.327211
O O13 0.213548 0.132406 0.012858
O O14 0.021423 0.809184 0.114784
O O15 0.043508 0.386545 0.811956
#
# Coordination Sequence:
#
# PCOD9277376 Si02
#       8
#     8   8   8   8   8   8   8   4
#     4  10  21  41  66  84 132 178 215 272 330 389
#     4  11  23  43  59  92 129 180 220 274 335 380
#     4  11  22  40  69  99 139 174 205 277 334 405
#     4  10  20  41  60  98 128 171 225 260 329 395
#     4  10  22  39  68 100 129 172 212 266 342 388
#     4  10  22  37  62  91 131 171 223 271 316 391
#     4  11  24  43  66  94 129 171 225 273 342 396
#     4  10  24  46  68 100 132 168 222 282 328 416
#
# _framework density 26.597276000000001
#
# number of rings (size 3 to 8) (size 9 to 14) (size 15 to 20)
#    0.000    1.600    1.333    4.800    1.867    4.800 
#    4.800    4.667    0.000    0.000    0.000    0.000 
#    0.000    0.000    0.000    0.000    0.000    0.000 
#
# Total GULP energy -167816.465683 kJ/mol
# GULP energy per Si atom -5593.882189 kJ/mol
# Density = 2.653674 g / cm^3
# Si number density = 26.597276 Si / 1000 Ang^3
#
#
#
# Elastic Constant Matrix: (Units=GPa)
#
#
# Indices 1 2 3 4 5 6 
#
# 1 144.5340 30.5474 51.4383 0.0000 10.5844 0.0000
# 2 30.5474 50.5606 12.3789 0.0000 0.2011 0.0000
# 3 51.4383 12.3789 169.0319 0.0000 -16.7803 0.0000
# 4 0.0000 0.0000 0.0000 22.2833 0.0000 -13.5569
# 5 10.5844 0.2011 -16.7803 0.0000 42.0829 0.0000
# 6 0.0000 0.0000 0.0000 -13.5569 0.0000 30.4256
#
#
#
# Elastic Compliance Matrix: (Units=1/GPa)
#
#
# Indices 1 2 3 4 5 6 
#
# 1 0.009181 -0.004854 -0.002775 0.000000 -0.003392 0.000000
# 2 -0.004854 0.022726 -0.000080 0.000000 0.001080 0.000000
# 3 -0.002775 -0.000080 0.007117 0.000000 0.003536 0.000000
# 4 0.000000 0.000000 0.000000 0.061566 0.000000 0.027433
# 5 -0.003392 0.001080 0.003536 0.000000 0.026021 0.000000
# 6 0.000000 0.000000 0.000000 0.027433 0.000000 0.045090
#
#
# Mechanical properties :
#
#
# Convention : Reuss Voigt Hill
#
# Bulk Modulus (GPa) = 42.36141 61.42843 51.89492
# Shear Modulus (GPa) = 25.64255 36.94249 31.29252
#
# Velocity S-wave (km/s) = 3.10837 3.73092 3.43378
# Velocity P-wave (km/s) = 5.37068 6.45798 5.93926
#
# Compressibility (1/GPa) = 0.02360639
#
# Stress axis : x y z
#
# Youngs Moduli (GPa) = 108.92405 44.00232 140.49944
#
# Poissons Ratio (x) = 0.21358 0.38990
# Poissons Ratio (y) = 0.52870 0.01124
# Poissons Ratio (z) = 0.30228 0.00352
#
# Static dielectric constant tensor:
#      x y z
#    x 2.109620 0.000000 0.014810 
#    y 0.000000 2.284970 0.000000 
#    z 0.014810 0.000000 2.104670 
# 
# From -- ./inp_files/69349.got.cif
#   From: 2010.05.17/outbox.cif.g08.bks.cpg/sg15_35_cif.got.tgz:69349.got - 2010.06.03 18:47:42.
