data_PCOD9277298
_publ_section_title
;
Structure prediction by ZEFSAII (Michael W. Deem and Ramdas Pophale) SiO2 
 PCOD9277298
Probable space group: C 2/C
;
_chemical_formula_sum "Si O2"
_cell_formula_units_Z 60
_cell_length_a 27.910067
_cell_length_b 18.804440
_cell_length_c 12.522172
_cell_angle_alpha 90.000000
_cell_angle_beta 155.660171
_cell_angle_gamma 90.000000
_cell_volume 2708.656629
_symmetry_space_group_name_H-M "C 2/C"
_symmetry_group_IT_number 15
_symmetry_cell_setting 'monoclinic'
loop_
_space_group_symop_operation_xyz
x,y,z
-x,y,1/2-z
-x,-y,-z
x,-y,1/2+z
1/2+x,1/2+y,z
1/2-x,1/2+y,1/2-z
1/2-x,1/2-y,-z
1/2+x,1/2-y,1/2+z
loop_
_atom_site_type_symbol
_atom_site_label
_atom_site_fract_x
_atom_site_fract_y
_atom_site_fract_z
Si Si1 0.815537 0.338465 0.932475
Si Si2 0.704294 0.421226 0.019431
Si Si3 0.000000 0.217369 0.250000
Si Si4 0.883524 0.072622 0.589369
Si Si5 0.010934 0.851871 0.998014
Si Si6 0.309758 0.788785 0.326991
Si Si7 0.546365 0.795821 0.683336
Si Si8 0.942804 0.576192 0.872796
O O1 0.725912 0.383953 0.680343
O O2 0.731383 0.281396 0.820060
O O3 0.892045 0.391047 0.159497
O O4 0.895131 0.276154 0.042165
O O5 0.725903 0.355029 0.141772
O O6 0.827770 0.430944 0.212828
O O7 0.654370 0.490687 0.975378
O O8 0.610951 0.393497 0.744424
O O9 0.974631 0.165539 0.098113
O O10 0.000000 0.081415 0.750000
O O11 0.908016 0.102477 0.758477
O O12 0.017034 0.772728 0.055773
O O13 0.432557 0.807470 0.524168
O O14 0.342992 0.779270 0.518492
O O15 0.543585 0.867700 0.610537
O O16 0.000000 0.500000 0.000000
#
# Coordination Sequence:
#
# PCOD9277298 Si02
#       8
#     8   8   4   8   8   8   8   8
#     4  12  25  46  71 104 142 194 246 303 371 431
#     4  11  25  44  71 106 143 198 240 306 370 443
#     4  12  28  46  76 106 146 202 238 322 358 448
#     4  12  28  47  75 108 149 195 248 310 371 447
#     4  12  24  48  72 106 144 189 253 303 374 435
#     4  10  20  41  72 104 132 184 240 303 361 429
#     4  10  20  40  72 102 136 177 247 299 355 438
#     4  11  25  44  68 103 151 197 242 300 371 445
#
# _framework density 22.151202000000001
#
# number of rings (size 3 to 8) (size 9 to 14) (size 15 to 20)
#    0.000    0.800    4.000    2.800    4.667    2.667 
#    2.400    0.000    0.000    0.000    0.000    0.000 
#    0.000    0.000    0.000    0.000    0.000    0.000 
#
# Total GULP energy -167211.104040 kJ/mol
# GULP energy per Si atom -5573.703468 kJ/mol
# Density = 2.210078 g / cm^3
# Si number density = 22.151202 Si / 1000 Ang^3
#
#
#
# Elastic Constant Matrix: (Units=GPa)
#
#
# Indices 1 2 3 4 5 6 
#
# 1 54.7506 22.9612 34.8435 0.0000 -16.5598 0.0000
# 2 22.9612 182.1395 62.1165 0.0000 -17.6517 0.0000
# 3 34.8435 62.1165 97.5458 0.0000 -24.1414 0.0000
# 4 0.0000 0.0000 0.0000 27.3484 0.0000 16.9729
# 5 -16.5598 -17.6517 -24.1414 0.0000 27.5947 0.0000
# 6 0.0000 0.0000 0.0000 16.9729 0.0000 5.6875
#
#
#
# Elastic Compliance Matrix: (Units=1/GPa)
#
#
# Indices 1 2 3 4 5 6 
#
# 1 0.025386 0.000011 -0.006769 0.000000 0.009320 0.000000
# 2 0.000011 0.007025 -0.004293 0.000000 0.000745 0.000000
# 3 -0.006769 -0.004293 0.017509 0.000000 0.008510 0.000000
# 4 0.000000 0.000000 0.000000 -0.042913 0.000000 0.128064
# 5 0.009320 0.000745 0.008510 0.000000 0.049753 0.000000
# 6 0.000000 0.000000 0.000000 0.128064 0.000000 -0.206348
#
#
# Mechanical properties :
#
#
# Convention : Reuss Voigt Hill
#
# Bulk Modulus (GPa) = 35.94570 63.80872 49.87721
# Shear Modulus (GPa) = -42.29672 26.42712 -7.93480
#
# Velocity S-wave (km/s) = -4.37447 3.45778 -1.89470
# Velocity P-wave (km/s) = 3.04171 6.69404 4.21652
#
# Compressibility (1/GPa) = 0.02781974
#
# Stress axis : x y z
#
# Youngs Moduli (GPa) = 39.39107 142.34392 57.11194
#
# Poissons Ratio (x) = -0.00161 0.38657
# Poissons Ratio (y) = -0.00045 0.24520
# Poissons Ratio (z) = 0.26662 0.61114
#
# Static dielectric constant tensor:
#      x y z
#    x 1.920090 0.000000 0.062370 
#    y 0.000000 1.787330 0.000000 
#    z 0.062370 0.000000 1.902240 
# 
# From -- ./inp_files/124012.got.cif
#   From: 2010.05.17/outbox.cif.g08.bks.cpg/sg15_63_cif.got.tgz:124012.got - 2010.06.03 18:47:42.
