data_PCOD9277920
_publ_section_title
;
Structure prediction by ZEFSAII (Michael W. Deem and Ramdas Pophale) SiO2 
 PCOD9277920
Probable space group: C 2/C
;
_chemical_formula_sum "Si O2"
_cell_formula_units_Z 40
_cell_length_a 12.229436
_cell_length_b 7.650734
_cell_length_c 20.031433
_cell_angle_alpha 90.000000
_cell_angle_beta 105.966576
_cell_angle_gamma 90.000000
_cell_volume 1801.921030
_symmetry_space_group_name_H-M "C 2/C"
_symmetry_group_IT_number 15
_symmetry_cell_setting 'monoclinic'
loop_
_space_group_symop_operation_xyz
x,y,z
-x,y,1/2-z
-x,-y,-z
x,-y,1/2+z
1/2+x,1/2+y,z
1/2-x,1/2+y,1/2-z
1/2-x,1/2-y,-z
1/2+x,1/2-y,1/2+z
loop_
_atom_site_type_symbol
_atom_site_label
_atom_site_fract_x
_atom_site_fract_y
_atom_site_fract_z
Si Si1 0.501146 0.600798 0.597121
Si Si2 0.621418 0.304864 0.987926
Si Si3 0.967536 0.472646 0.578923
Si Si4 0.656990 0.825184 0.693871
Si Si5 0.621899 0.888043 0.297794
O O1 0.428045 0.428038 0.578691
O O2 0.594936 0.595811 0.552923
O O3 0.569947 0.658911 0.674545
O O4 0.426078 0.772140 0.566616
O O5 0.551955 0.123959 0.977624
O O6 0.750000 0.250000 0.000000
O O7 0.897941 0.552392 0.630191
O O8 0.097490 0.448233 0.627468
O O9 0.652339 0.938006 0.759813
O O10 0.779840 0.752977 0.696630
O O11 0.500000 0.824786 0.250000
#
# Coordination Sequence:
#
# PCOD9277920 Si02
#       5
#     8   8   8   8   8
#     4   9  22  41  60  93 128 160 208 259 308 368
#     4  11  21  39  67  93 123 168 210 251 315 373
#     4   9  21  41  62  91 127 162 207 254 313 372
#     4   9  21  39  62  88 125 166 198 265 309 360
#     4  10  20  42  62  90 125 159 215 256 308 376
#
# _framework density 22.198533000000001
#
# number of rings (size 3 to 8) (size 9 to 14) (size 15 to 20)
#    1.200    1.200    0.000    1.800    0.000    4.000 
#    7.200    1.000    0.000    0.000    0.000    0.000 
#    0.000    0.000    0.000    0.000    0.000    0.000 
#
# Total GULP energy -111406.497563 kJ/mol
# GULP energy per Si atom -5570.324878 kJ/mol
# Density = 2.214801 g / cm^3
# Si number density = 22.198533 Si / 1000 Ang^3
#
#
#
# Elastic Constant Matrix: (Units=GPa)
#
#
# Indices 1 2 3 4 5 6 
#
# 1 119.7585 64.3890 14.7552 0.0000 32.5717 0.0000
# 2 64.3890 119.2352 9.6665 0.0000 26.0256 0.0000
# 3 14.7552 9.6665 17.6099 0.0000 7.3007 0.0000
# 4 0.0000 0.0000 0.0000 32.4310 0.0000 3.6173
# 5 32.5717 26.0256 7.3007 0.0000 21.5574 0.0000
# 6 0.0000 0.0000 0.0000 3.6173 0.0000 42.9186
#
#
#
# Elastic Compliance Matrix: (Units=1/GPa)
#
#
# Indices 1 2 3 4 5 6 
#
# 1 0.015977 -0.004525 -0.003676 0.000000 -0.017433 0.000000
# 2 -0.004525 0.012675 0.000399 0.000000 -0.008601 0.000000
# 3 -0.003676 0.000399 0.066944 0.000000 -0.017599 0.000000
# 4 0.000000 0.000000 0.000000 0.031127 0.000000 -0.002624
# 5 -0.017433 -0.008601 -0.017599 0.000000 0.089072 0.000000
# 6 0.000000 0.000000 0.000000 -0.002624 0.000000 0.023521
#
#
# Mechanical properties :
#
#
# Convention : Reuss Voigt Hill
#
# Bulk Modulus (GPa) = 12.50108 48.24721 30.37415
# Shear Modulus (GPa) = 17.75672 30.56758 24.16215
#
# Velocity S-wave (km/s) = 2.83133 3.71483 3.30276
# Velocity P-wave (km/s) = 4.04132 6.33889 5.31572
#
# Compressibility (1/GPa) = 0.07999306
#
# Stress axis : x y z
#
# Youngs Moduli (GPa) = 62.58906 78.89382 14.93796
#
# Poissons Ratio (x) = 0.35698 0.05491
# Poissons Ratio (y) = 0.28321 -0.00597
# Poissons Ratio (z) = 0.23008 -0.03151
#
# Static dielectric constant tensor:
#      x y z
#    x 1.831970 0.000000 -0.058920 
#    y 0.000000 1.854170 0.000000 
#    z -0.058920 0.000000 1.942600 
# 
# From -- ./inp_files/267414.got.cif
#   From: 2010.05.17/outbox.cif.g08.bks.cpg/sg15_134_cif.got.tgz:267414.got - 2010.06.03 18:47:42.
