data_PCOD9277065
_publ_section_title
;
Structure prediction by ZEFSAII (Michael W. Deem and Ramdas Pophale) SiO2 
 PCOD9277065
Probable space group: C 2/C
;
_chemical_formula_sum "Si O2"
_cell_formula_units_Z 56
_cell_length_a 5.905679
_cell_length_b 29.454011
_cell_length_c 19.049903
_cell_angle_alpha 90.000000
_cell_angle_beta 122.580235
_cell_angle_gamma 90.000000
_cell_volume 2792.210758
_symmetry_space_group_name_H-M "C 2/C"
_symmetry_group_IT_number 15
_symmetry_cell_setting 'monoclinic'
loop_
_space_group_symop_operation_xyz
x,y,z
-x,y,1/2-z
-x,-y,-z
x,-y,1/2+z
1/2+x,1/2+y,z
1/2-x,1/2+y,1/2-z
1/2-x,1/2-y,-z
1/2+x,1/2-y,1/2+z
loop_
_atom_site_type_symbol
_atom_site_label
_atom_site_fract_x
_atom_site_fract_y
_atom_site_fract_z
Si Si1 0.518084 0.919895 0.885786
Si Si2 0.500000 0.369483 0.750000
Si Si3 0.870333 0.846393 0.876052
Si Si4 0.317778 0.989303 0.040086
Si Si5 0.000000 0.258721 0.250000
Si Si6 0.588912 0.240099 0.399864
Si Si7 0.585391 0.112001 0.979797
Si Si8 0.753559 0.677851 0.828699
O O1 0.713001 0.892671 0.867202
O O2 0.223590 0.901925 0.820096
O O3 0.547953 0.973856 0.885486
O O4 0.570909 0.902592 0.974763
O O5 0.378157 0.340924 0.793689
O O6 0.726867 0.804421 0.889483
O O7 0.167475 0.856229 0.954541
O O8 0.330392 0.934900 0.043619
O O9 0.500000 0.000000 0.000000
O O10 0.000000 0.000000 0.000000
O O11 0.736062 0.235076 0.167804
O O12 0.900465 0.292038 0.295029
O O13 0.750000 0.250000 0.500000
O O14 0.651354 0.284938 0.366393
O O15 0.422377 0.141380 0.898040
O O16 0.500000 0.654652 0.750000
#
# Coordination Sequence:
#
# PCOD9277065 Si02
#       8
#     8   4   8   8   4   8   8   8
#     4  10  21  38  63  92 128 172 216 275 328 403
#     4  10  24  39  56  92 138 170 214 268 339 398
#     4  11  22  38  63  93 130 172 218 269 337 411
#     4  10  20  40  67  98 129 170 225 281 340 402
#     4  10  24  43  62  88 136 166 210 278 323 388
#     4  11  24  41  66  96 125 173 223 270 335 405
#     4  10  21  39  66  92 124 169 220 274 330 402
#     4  10  23  43  62  89 130 165 214 272 327 389
#
# _framework density 20.055792
#
# number of rings (size 3 to 8) (size 9 to 14) (size 15 to 20)
#    0.000    1.714    1.429    2.143    0.000   10.286 
#    1.286    0.000    3.143    0.000    0.000    0.000 
#    0.000    0.000    0.000    0.000    0.000    0.000 
#
# Total GULP energy -156007.659392 kJ/mol
# GULP energy per Si atom -5571.702121 kJ/mol
# Density = 2.001014 g / cm^3
# Si number density = 20.055792 Si / 1000 Ang^3
#
#
#
# Elastic Constant Matrix: (Units=GPa)
#
#
# Indices 1 2 3 4 5 6 
#
# 1 95.7696 34.6055 54.2616 0.0000 2.6180 0.0000
# 2 34.6055 112.8434 57.4927 0.0000 6.2452 0.0000
# 3 54.2616 57.4927 144.2116 0.0000 6.0929 0.0000
# 4 0.0000 0.0000 0.0000 -3.6960 0.0000 12.2347
# 5 2.6180 6.2452 6.0929 0.0000 26.7325 0.0000
# 6 0.0000 0.0000 0.0000 12.2347 0.0000 32.6391
#
#
#
# Elastic Compliance Matrix: (Units=1/GPa)
#
#
# Indices 1 2 3 4 5 6 
#
# 1 0.013609 -0.001968 -0.004341 0.000000 0.000116 0.000000
# 2 -0.001968 0.011474 -0.003765 0.000000 -0.001630 0.000000
# 3 -0.004341 -0.003765 0.010111 0.000000 -0.001000 0.000000
# 4 0.000000 0.000000 0.000000 -0.120742 0.000000 0.045260
# 5 0.000116 -0.001630 -0.001000 0.000000 0.038005 0.000000
# 6 0.000000 0.000000 0.000000 0.045260 0.000000 0.013673
#
#
# Mechanical properties :
#
#
# Convention : Reuss Voigt Hill
#
# Bulk Modulus (GPa) = 66.46384 71.72714 69.09549
# Shear Modulus (GPa) = -574.19574 24.89943 -274.64815
#
# Velocity S-wave (km/s) = -16.93873 3.52733 -11.71492
# Velocity P-wave (km/s) = 18.69090 7.24091 12.18439
#
# Compressibility (1/GPa) = 0.01504578
#
# Stress axis : x y z
#
# Youngs Moduli (GPa) = 73.47934 87.15528 98.90494
#
# Poissons Ratio (x) = 0.17155 0.42933
# Poissons Ratio (y) = 0.14463 0.37236
# Poissons Ratio (z) = 0.31897 0.32812
#
# Static dielectric constant tensor:
#      x y z
#    x 1.775510 0.000000 0.019670 
#    y 0.000000 1.747830 0.000000 
#    z 0.019670 0.000000 1.740840 
# 
# From -- ./inp_files/186676.got.cif
#   From: 2010.05.17/outbox.cif.g08.bks.cpg/sg15_94_cif.got.tgz:186676.got - 2010.06.03 18:47:42.
