data_PCOD9277631
_publ_section_title
;
Structure prediction by ZEFSAII (Michael W. Deem and Ramdas Pophale) SiO2 
 PCOD9277631
Probable space group: C 2/C
;
_chemical_formula_sum "Si O2"
_cell_formula_units_Z 44
_cell_length_a 27.504398
_cell_length_b 14.652796
_cell_length_c 15.861673
_cell_angle_alpha 90.000000
_cell_angle_beta 163.283543
_cell_angle_gamma 90.000000
_cell_volume 1838.714537
_symmetry_space_group_name_H-M "C 2/C"
_symmetry_group_IT_number 15
_symmetry_cell_setting 'monoclinic'
loop_
_space_group_symop_operation_xyz
x,y,z
-x,y,1/2-z
-x,-y,-z
x,-y,1/2+z
1/2+x,1/2+y,z
1/2-x,1/2+y,1/2-z
1/2-x,1/2-y,-z
1/2+x,1/2-y,1/2+z
loop_
_atom_site_type_symbol
_atom_site_label
_atom_site_fract_x
_atom_site_fract_y
_atom_site_fract_z
Si Si1 0.370833 0.977155 0.456714
Si Si2 0.292040 0.579035 0.181760
Si Si3 0.500000 0.779857 0.250000
Si Si4 0.741074 0.794717 0.198195
Si Si5 0.324019 0.609057 0.664688
Si Si6 0.683384 0.398020 0.539597
O O1 0.500000 0.989543 0.750000
O O2 0.361223 0.871242 0.419953
O O3 0.349191 0.043291 0.341566
O O4 0.204509 0.014065 0.229511
O O5 0.478037 0.618402 0.484364
O O6 0.269306 0.498783 0.075267
O O7 0.147594 0.655305 0.954826
O O8 0.581915 0.719250 0.459658
O O9 0.740561 0.835735 0.102813
O O10 0.673409 0.692756 0.080300
O O11 0.294898 0.635307 0.520239
O O12 0.500000 0.444410 0.250000
#
# Coordination Sequence:
#
# PCOD9277631 Si02
#       6
#     8   8   4   8   8   8
#     4  11  22  41  67  95 132 181 227 279 335 411
#     4  10  20  41  66  94 136 177 226 274 341 397
#     4  12  22  44  68  98 134 192 224 282 338 422
#     4  11  25  39  67 100 138 172 236 277 343 401
#     4  10  23  40  66 103 138 178 221 293 333 405
#     4  12  22  43  71  99 137 182 230 277 347 406
#
# _framework density 23.929760000000002
#
# number of rings (size 3 to 8) (size 9 to 14) (size 15 to 20)
#    0.000    1.091    4.545    1.091    1.273    0.727 
#    0.000   11.818    0.000    0.000    0.000    0.000 
#    0.000    0.000    0.000    0.000    0.000    0.000 
#
# Total GULP energy -122512.868915 kJ/mol
# GULP energy per Si atom -5568.766769 kJ/mol
# Density = 2.387530 g / cm^3
# Si number density = 23.929760 Si / 1000 Ang^3
#
#
#
# Elastic Constant Matrix: (Units=GPa)
#
#
# Indices 1 2 3 4 5 6 
#
# 1 54.8754 20.5021 28.2349 0.0000 -23.4645 0.0000
# 2 20.5021 127.2675 56.2889 0.0000 -28.4961 0.0000
# 3 28.2349 56.2889 129.0766 0.0000 -26.9400 0.0000
# 4 0.0000 0.0000 0.0000 35.2244 0.0000 -3.9706
# 5 -23.4645 -28.4961 -26.9400 0.0000 43.9042 0.0000
# 6 0.0000 0.0000 0.0000 -3.9706 0.0000 34.0824
#
#
#
# Elastic Compliance Matrix: (Units=1/GPa)
#
#
# Indices 1 2 3 4 5 6 
#
# 1 0.024612 -0.000129 -0.002981 0.000000 0.011240 0.000000
# 2 -0.000129 0.010484 -0.003599 0.000000 0.004527 0.000000
# 3 -0.002981 -0.003599 0.010493 0.000000 0.002509 0.000000
# 4 0.000000 0.000000 0.000000 0.028767 0.000000 0.003351
# 5 0.011240 0.004527 0.002509 0.000000 0.033262 0.000000
# 6 0.000000 0.000000 0.000000 0.003351 0.000000 0.029731
#
#
# Mechanical properties :
#
#
# Convention : Reuss Voigt Hill
#
# Bulk Modulus (GPa) = 31.08569 57.91904 44.50237
# Shear Modulus (GPa) = 30.96168 36.38844 33.67506
#
# Velocity S-wave (km/s) = 3.60092 3.90376 3.75540
# Velocity P-wave (km/s) = 5.50522 6.67649 6.11894
#
# Compressibility (1/GPa) = 0.03216914
#
# Stress axis : x y z
#
# Youngs Moduli (GPa) = 40.63112 95.38731 95.30613
#
# Poissons Ratio (x) = 0.01235 0.28413
# Poissons Ratio (y) = 0.00526 0.34297
# Poissons Ratio (z) = 0.12113 0.34326
#
# Static dielectric constant tensor:
#      x y z
#    x 2.033310 0.000000 -0.007570 
#    y 0.000000 2.019020 0.000000 
#    z -0.007570 0.000000 2.060840 
# 
# From -- ./inp_files/225230.got.cif
#   From: 2010.05.17/outbox.cif.g08.bks.cpg/sg15_113_cif.got.tgz:225230.got - 2010.06.03 18:47:42.
