data_PCOD9277734
_publ_section_title
;
Structure prediction by ZEFSAII (Michael W. Deem and Ramdas Pophale) SiO2 
 PCOD9277734
Probable space group: C 2/C
;
_chemical_formula_sum "Si O2"
_cell_formula_units_Z 56
_cell_length_a 8.491532
_cell_length_b 16.701639
_cell_length_c 28.223473
_cell_angle_alpha 90.000000
_cell_angle_beta 36.638693
_cell_angle_gamma 90.000000
_cell_volume 2388.692920
_symmetry_space_group_name_H-M "C 2/C"
_symmetry_group_IT_number 15
_symmetry_cell_setting 'monoclinic'
loop_
_space_group_symop_operation_xyz
x,y,z
-x,y,1/2-z
-x,-y,-z
x,-y,1/2+z
1/2+x,1/2+y,z
1/2-x,1/2+y,1/2-z
1/2-x,1/2-y,-z
1/2+x,1/2-y,1/2+z
loop_
_atom_site_type_symbol
_atom_site_label
_atom_site_fract_x
_atom_site_fract_y
_atom_site_fract_z
Si Si1 0.396716 0.409587 0.908555
Si Si2 0.570837 0.880216 0.178765
Si Si3 0.208556 0.309750 0.552871
Si Si4 0.380470 0.537109 0.981420
Si Si5 0.443129 0.830624 0.814003
Si Si6 0.238474 0.263387 0.059656
Si Si7 0.665531 0.523397 0.257925
O O1 0.260847 0.463860 0.980648
O O2 0.670323 0.376942 0.866909
O O3 0.256558 0.328825 0.924858
O O4 0.464776 0.469189 0.849892
O O5 0.500000 0.854367 0.250000
O O6 0.866970 0.920664 0.106191
O O7 0.555479 0.810403 0.142040
O O8 0.362005 0.948712 0.215097
O O9 0.250000 0.250000 0.500000
O O10 0.153149 0.398795 0.548738
O O11 0.068989 0.280554 0.634403
O O12 0.507287 0.317937 0.497560
O O13 0.500000 0.500000 0.000000
O O14 0.500000 0.788467 0.750000
O O15 0.655600 0.897862 0.775874
O O16 0.250000 0.250000 0.000000
O O17 0.500000 0.524592 0.250000
#
# Coordination Sequence:
#
# PCOD9277734 Si02
#       7
#     8   8   8   8   8   8   8
#     4  11  20  41  65  97 129 181 231 267 333 417
#     4  11  21  44  69  96 131 183 230 277 339 416
#     4  11  24  42  65 101 139 170 226 285 344 401
#     4  11  19  40  74  89 124 185 230 261 332 422
#     4  10  20  41  68  91 126 183 226 269 334 419
#     4  11  24  43  67  99 138 179 226 283 343 413
#     4  11  23  39  66 101 134 166 234 290 331 392
#
# _framework density 23.443784000000001
#
# number of rings (size 3 to 8) (size 9 to 14) (size 15 to 20)
#    0.000    1.143    5.714    1.286    2.000    0.571 
#   10.286    2.857    0.000    0.000    0.000    0.000 
#    0.000    0.000    0.000    0.000    0.000    0.000 
#
# Total GULP energy -155931.815281 kJ/mol
# GULP energy per Si atom -5568.993403 kJ/mol
# Density = 2.339043 g / cm^3
# Si number density = 23.443784 Si / 1000 Ang^3
#
#
#
# Elastic Constant Matrix: (Units=GPa)
#
#
# Indices 1 2 3 4 5 6 
#
# 1 69.4309 15.9028 29.8784 -0.0070 21.1566 0.0137
# 2 15.9028 89.2654 45.9891 -0.0022 27.0725 -0.0014
# 3 29.8784 45.9891 153.8683 0.0039 58.8421 0.0029
# 4 -0.0070 -0.0022 0.0039 45.6059 0.0026 13.5263
# 5 21.1566 27.0725 58.8421 0.0026 44.5819 -0.0142
# 6 0.0137 -0.0014 0.0029 13.5263 -0.0142 25.9249
#
#
#
# Elastic Compliance Matrix: (Units=1/GPa)
#
#
# Indices 1 2 3 4 5 6 
#
# 1 0.016883 -0.000660 -0.000344 0.000008 -0.007157 -0.000017
# 2 -0.000660 0.014023 -0.001871 0.000002 -0.005733 -0.000003
# 3 -0.000344 -0.001871 0.013383 0.000003 -0.016365 -0.000012
# 4 0.000008 0.000002 0.000003 0.025941 -0.000015 -0.013535
# 5 -0.007157 -0.005733 -0.016365 -0.000015 0.050908 0.000041
# 6 -0.000017 -0.000003 -0.000012 -0.013535 0.000041 0.045635
#
#
# Mechanical properties :
#
#
# Convention : Reuss Voigt Hill
#
# Bulk Modulus (GPa) = 25.94739 55.12279 40.53509
# Shear Modulus (GPa) = 26.97338 37.94217 32.45777
#
# Velocity S-wave (km/s) = 3.39566 4.02734 3.72492
# Velocity P-wave (km/s) = 5.14451 6.72233 5.98564
#
# Compressibility (1/GPa) = 0.03853953
#
# Stress axis : x y z
#
# Youngs Moduli (GPa) = 59.23162 71.31358 74.72082
#
# Poissons Ratio (x) = 0.04706 0.02572
# Poissons Ratio (y) = 0.03908 0.13977
# Poissons Ratio (z) = 0.02039 0.13339
#
# Static dielectric constant tensor:
#      x y z
#    x 2.076290 0.008710 0.114200 
#    y 0.008710 2.289010 0.003670 
#    z 0.114200 0.003670 2.136230 
# 
# From -- ./inp_files/265470.got.cif
#   From: 2010.05.17/outbox.cif.g08.bks.cpg/sg15_133_cif.got.tgz:265470.got - 2010.06.03 18:47:42.
