data_PCOD9277528
_publ_section_title
;
Structure prediction by ZEFSAII (Michael W. Deem and Ramdas Pophale) SiO2 
 PCOD9277528
Probable space group: C 2/C
;
_chemical_formula_sum "Si O2"
_cell_formula_units_Z 48
_cell_length_a 24.123907
_cell_length_b 5.488555
_cell_length_c 16.630497
_cell_angle_alpha 90.000000
_cell_angle_beta 75.854055
_cell_angle_gamma 90.000000
_cell_volume 2135.195759
_symmetry_space_group_name_H-M "C 2/C"
_symmetry_group_IT_number 15
_symmetry_cell_setting 'monoclinic'
loop_
_space_group_symop_operation_xyz
x,y,z
-x,y,1/2-z
-x,-y,-z
x,-y,1/2+z
1/2+x,1/2+y,z
1/2-x,1/2+y,1/2-z
1/2-x,1/2-y,-z
1/2+x,1/2-y,1/2+z
loop_
_atom_site_type_symbol
_atom_site_label
_atom_site_fract_x
_atom_site_fract_y
_atom_site_fract_z
Si Si1 0.654913 0.279648 0.645505
Si Si2 0.060892 0.840424 0.234356
Si Si3 0.117766 0.478914 0.315708
Si Si4 0.537722 0.708895 0.446743
Si Si5 0.070746 0.503876 0.080143
Si Si6 0.762064 0.406529 0.695051
O O1 0.612962 0.497946 0.685588
O O2 0.646189 0.083528 0.720167
O O3 0.626510 0.159895 0.577193
O O4 0.719786 0.365106 0.634409
O O5 0.075787 0.705399 0.312649
O O6 0.054501 0.630980 0.169360
O O7 0.000000 0.976618 0.250000
O O8 0.083523 0.242736 0.358518
O O9 0.171526 0.556257 0.350022
O O10 0.500000 0.500000 0.500000
O O11 0.485163 0.864697 0.430124
O O12 0.576609 0.803400 0.506895
O O13 0.757414 0.158778 0.752088
#
# Coordination Sequence:
#
# PCOD9277528 Si02
#       6
#     8   8   8   8   8   8
#     4  10  22  35  64  92 124 161 216 274 327 383
#     4  11  20  35  62  88 122 153 208 267 321 383
#     4  10  22  38  61  94 121 168 216 260 327 396
#     4  11  23  40  59  86 134 172 211 262 326 400
#     4  10  23  38  55  88 127 165 208 261 333 386
#     4  10  20  41  64  97 130 168 217 284 334 386
#
# _framework density 22.480373
#
# number of rings (size 3 to 8) (size 9 to 14) (size 15 to 20)
#    0.000    1.667    3.333    1.000    4.667    0.000 
#    0.000    0.833    0.000    4.000    0.000    0.000 
#    0.000    0.000    0.000    0.000    0.000    0.000 
#
# Total GULP energy -133633.531337 kJ/mol
# GULP energy per Si atom -5568.063806 kJ/mol
# Density = 2.242921 g / cm^3
# Si number density = 22.480373 Si / 1000 Ang^3
#
#
#
# Elastic Constant Matrix: (Units=GPa)
#
#
# Indices 1 2 3 4 5 6 
#
# 1 185.0753 39.0087 25.9971 0.0000 32.8113 0.0000
# 2 39.0087 90.7573 17.7134 0.0000 14.8467 0.0000
# 3 25.9971 17.7134 45.6965 0.0000 15.0666 0.0000
# 4 0.0000 0.0000 0.0000 6.8805 0.0000 12.1549
# 5 32.8113 14.8467 15.0666 0.0000 19.8308 0.0000
# 6 0.0000 0.0000 0.0000 12.1549 0.0000 22.3381
#
#
#
# Elastic Compliance Matrix: (Units=1/GPa)
#
#
# Indices 1 2 3 4 5 6 
#
# 1 0.007802 -0.001417 0.000023 0.000000 -0.011866 0.000000
# 2 -0.001417 0.013007 -0.002399 0.000000 -0.005571 0.000000
# 3 0.000023 -0.002399 0.029647 0.000000 -0.020766 0.000000
# 4 0.000000 0.000000 0.000000 3.750059 0.000000 -2.040533
# 5 -0.011866 -0.005571 -0.020766 0.000000 0.090008 0.000000
# 6 0.000000 0.000000 0.000000 -2.040533 0.000000 1.155088
#
#
# Mechanical properties :
#
#
# Convention : Reuss Voigt Hill
#
# Bulk Modulus (GPa) = 23.32619 54.10749 38.71684
# Shear Modulus (GPa) = 0.98668 25.73055 13.35862
#
# Velocity S-wave (km/s) = 0.66322 3.38683 2.44034
# Velocity P-wave (km/s) = 3.31440 6.27815 5.01998
#
# Compressibility (1/GPa) = 0.04287027
#
# Stress axis : x y z
#
# Youngs Moduli (GPa) = 128.16696 76.88204 33.72984
#
# Poissons Ratio (x) = 0.10893 -0.00077
# Poissons Ratio (y) = 0.18159 0.08092
# Poissons Ratio (z) = -0.00291 0.18444
#
# Static dielectric constant tensor:
#      x y z
#    x 1.902160 0.000000 -0.096590 
#    y 0.000000 1.944210 0.000000 
#    z -0.096590 0.000000 2.219020 
# 
# From -- ./inp_files/217468.got.cif
#   From: 2010.05.17/outbox.cif.g08.bks.cpg/sg15_109_cif.got.tgz:217468.got - 2010.06.03 18:47:42.
