data_PCOD9277076
_publ_section_title
;
Structure prediction by ZEFSAII (Michael W. Deem and Ramdas Pophale) SiO2 
 PCOD9277076
Probable space group: C 2/C
;
_chemical_formula_sum "Si O2"
_cell_formula_units_Z 56
_cell_length_a 7.980243
_cell_length_b 25.155113
_cell_length_c 11.557326
_cell_angle_alpha 90.000000
_cell_angle_beta 77.143342
_cell_angle_gamma 90.000000
_cell_volume 2261.898411
_symmetry_space_group_name_H-M "C 2/C"
_symmetry_group_IT_number 15
_symmetry_cell_setting 'monoclinic'
loop_
_space_group_symop_operation_xyz
x,y,z
-x,y,1/2-z
-x,-y,-z
x,-y,1/2+z
1/2+x,1/2+y,z
1/2-x,1/2+y,1/2-z
1/2-x,1/2-y,-z
1/2+x,1/2-y,1/2+z
loop_
_atom_site_type_symbol
_atom_site_label
_atom_site_fract_x
_atom_site_fract_y
_atom_site_fract_z
Si Si1 0.859171 0.441095 0.127386
Si Si2 0.490057 0.306941 0.463703
Si Si3 0.241985 0.549895 0.461690
Si Si4 0.227994 0.331942 0.899202
Si Si5 0.302196 0.773926 0.838425
Si Si6 0.425560 0.829374 0.133883
Si Si7 0.384217 0.582463 0.658147
O O1 0.761716 0.492592 0.095198
O O2 0.802654 0.438297 0.269540
O O3 0.810620 0.379438 0.109801
O O4 0.049498 0.444991 0.045532
O O5 0.614609 0.303075 0.557490
O O6 0.458627 0.258002 0.379161
O O7 0.301019 0.309107 0.551260
O O8 0.576496 0.355879 0.380317
O O9 0.261925 0.604386 0.385376
O O10 0.391874 0.554388 0.533653
O O11 0.189807 0.310181 0.777158
O O12 0.074646 0.325062 0.015977
O O13 0.178194 0.724179 0.832165
O O14 0.500000 0.842048 0.250000
O O15 0.500000 0.569328 0.750000
#
# Coordination Sequence:
#
# PCOD9277076 Si02
#       7
#     8   8   8   8   8   8   8
#     4  10  20  40  68 100 133 171 224 285 350 418
#     4  10  23  42  66  97 134 179 230 285 344 417
#     4   9  21  42  70 100 133 175 232 289 349 427
#     4  10  22  44  70  98 135 184 233 285 352 420
#     4  11  24  43  67  98 141 185 228 288 356 421
#     4  11  22  38  67 103 135 176 231 285 346 421
#     4  11  22  39  67  99 134 178 226 287 357 421
#
# _framework density 24.757963
#
# number of rings (size 3 to 8) (size 9 to 14) (size 15 to 20)
#    0.000    1.714    0.000    5.143    0.000    5.143 
#    0.000   12.143    0.000   12.857    0.000    6.000 
#    0.000    0.000    0.000    0.000    0.000    0.000 
#
# Total GULP energy -156017.431222 kJ/mol
# GULP energy per Si atom -5572.051115 kJ/mol
# Density = 2.470161 g / cm^3
# Si number density = 24.757963 Si / 1000 Ang^3
#
#
#
# Elastic Constant Matrix: (Units=GPa)
#
#
# Indices 1 2 3 4 5 6 
#
# 1 63.0683 62.0620 33.9651 0.0000 15.6691 0.0000
# 2 62.0620 202.3631 95.7792 0.0000 26.6384 0.0000
# 3 33.9651 95.7792 159.7497 0.0000 24.3877 0.0000
# 4 0.0000 0.0000 0.0000 23.1039 0.0000 -9.7198
# 5 15.6691 26.6384 24.3877 0.0000 47.7268 0.0000
# 6 0.0000 0.0000 0.0000 -9.7198 0.0000 30.7763
#
#
#
# Elastic Compliance Matrix: (Units=1/GPa)
#
#
# Indices 1 2 3 4 5 6 
#
# 1 0.023418 -0.006420 -0.000546 0.000000 -0.003826 0.000000
# 2 -0.006420 0.008819 -0.003789 0.000000 -0.000879 0.000000
# 3 -0.000546 -0.003789 0.008999 0.000000 -0.002305 0.000000
# 4 0.000000 0.000000 0.000000 0.049915 0.000000 0.015764
# 5 -0.003826 -0.000879 -0.002305 0.000000 0.023877 0.000000
# 6 0.000000 0.000000 0.000000 0.015764 0.000000 0.037471
#
#
# Mechanical properties :
#
#
# Convention : Reuss Voigt Hill
#
# Bulk Modulus (GPa) = 50.68996 89.86597 70.27797
# Shear Modulus (GPa) = 27.68802 35.87973 31.78388
#
# Velocity S-wave (km/s) = 3.34780 3.81099 3.58688
# Velocity P-wave (km/s) = 5.95503 7.46602 6.75292
#
# Compressibility (1/GPa) = 0.01972777
#
# Stress axis : x y z
#
# Youngs Moduli (GPa) = 42.70250 113.38679 111.12183
#
# Poissons Ratio (x) = 0.72794 0.06064
# Poissons Ratio (y) = 0.27415 0.42099
# Poissons Ratio (z) = 0.02330 0.42957
#
# Static dielectric constant tensor:
#      x y z
#    x 2.136560 0.000000 -0.086080 
#    y 0.000000 1.951440 0.000000 
#    z -0.086080 0.000000 2.024210 
# 
# From -- ./inp_files/81281.got.cif
#   From: 2010.05.17/outbox.cif.g08.bks.cpg/sg15_41_cif.got.tgz:81281.got - 2010.06.03 18:47:42.
