data_PCOD9277347
_publ_section_title
;
Structure prediction by ZEFSAII (Michael W. Deem and Ramdas Pophale) SiO2 
 PCOD9277347
Probable space group: C 2/C
;
_chemical_formula_sum "Si O2"
_cell_formula_units_Z 52
_cell_length_a 7.465289
_cell_length_b 11.334360
_cell_length_c 30.133025
_cell_angle_alpha 90.000000
_cell_angle_beta 94.666239
_cell_angle_gamma 90.000000
_cell_volume 2541.233065
_symmetry_space_group_name_H-M "C 2/C"
_symmetry_group_IT_number 15
_symmetry_cell_setting 'monoclinic'
loop_
_space_group_symop_operation_xyz
x,y,z
-x,y,1/2-z
-x,-y,-z
x,-y,1/2+z
1/2+x,1/2+y,z
1/2-x,1/2+y,1/2-z
1/2-x,1/2-y,-z
1/2+x,1/2-y,1/2+z
loop_
_atom_site_type_symbol
_atom_site_label
_atom_site_fract_x
_atom_site_fract_y
_atom_site_fract_z
Si Si1 0.597713 0.657701 0.955292
Si Si2 0.102316 0.590148 0.470970
Si Si3 0.892684 0.404098 0.174945
Si Si4 0.000000 0.220287 0.250000
Si Si5 0.164315 0.989982 0.599949
Si Si6 0.183469 0.732105 0.626233
Si Si7 0.360103 0.840071 0.711140
O O1 0.505319 0.783717 0.963555
O O2 0.467142 0.557845 0.935239
O O3 0.734015 0.685400 0.917640
O O4 0.710687 0.619704 0.000293
O O5 0.154676 0.538481 0.424310
O O6 0.000000 0.500000 0.500000
O O7 0.714487 0.427498 0.142449
O O8 0.929188 0.531788 0.197160
O O9 0.897526 0.305422 0.213049
O O10 0.044993 0.358947 0.144356
O O11 0.159366 0.150663 0.228390
O O12 0.098094 0.861632 0.614824
O O13 0.332448 0.760060 0.666971
O O14 0.500000 0.792209 0.750000
#
# Coordination Sequence:
#
# PCOD9277347 Si02
#       7
#     8   8   8   4   8   8   8
#     4  10  21  37  58  86 115 155 194 241 292 349
#     4  10  21  37  57  84 122 153 194 243 292 347
#     4  10  20  41  58  82 118 151 191 249 298 350
#     4  10  22  40  58  86 118 150 198 250 294 366
#     4  10  21  36  58  86 115 153 200 239 295 354
#     4   9  21  39  56  83 117 148 195 245 287 357
#     4  10  21  40  60  84 117 153 195 247 303 358
#
# _framework density 20.462506999999999
#
# number of rings (size 3 to 8) (size 9 to 14) (size 15 to 20)
#    0.000    2.154    0.769    1.385    2.154    1.846 
#    9.692    0.000    0.000    0.000    0.000    0.000 
#    0.000    0.000    0.000    0.000    0.000    0.000 
#
# Total GULP energy -145054.675768 kJ/mol
# GULP energy per Si atom -5579.025991 kJ/mol
# Density = 2.041593 g / cm^3
# Si number density = 20.462507 Si / 1000 Ang^3
#
#
#
# Elastic Constant Matrix: (Units=GPa)
#
#
# Indices 1 2 3 4 5 6 
#
# 1 32.1639 39.1461 8.6522 0.0000 -5.7001 0.0000
# 2 39.1461 107.5488 32.2338 0.0000 -5.0007 0.0000
# 3 8.6522 32.2338 90.8541 0.0000 2.2925 0.0000
# 4 0.0000 0.0000 0.0000 24.3170 0.0000 -3.1008
# 5 -5.7001 -5.0007 2.2925 0.0000 40.5194 0.0000
# 6 0.0000 0.0000 0.0000 -3.1008 0.0000 22.6586
#
#
#
# Elastic Compliance Matrix: (Units=1/GPa)
#
#
# Indices 1 2 3 4 5 6 
#
# 1 0.057305 -0.021187 0.001925 0.000000 0.005338 0.000000
# 2 -0.021187 0.018329 -0.004473 0.000000 -0.000465 0.000000
# 3 0.001925 -0.004473 0.012435 0.000000 -0.000985 0.000000
# 4 0.000000 0.000000 0.000000 0.041854 0.000000 0.005728
# 5 0.005338 -0.000465 -0.000985 0.000000 0.025429 0.000000
# 6 0.000000 0.000000 0.000000 0.005728 0.000000 0.044917
#
#
# Mechanical properties :
#
#
# Convention : Reuss Voigt Hill
#
# Bulk Modulus (GPa) = 24.63153 43.40346 34.01749
# Shear Modulus (GPa) = 19.13708 27.53465 23.33586
#
# Velocity S-wave (km/s) = 3.06147 3.67224 3.38068
# Velocity P-wave (km/s) = 4.95583 6.26400 5.64792
#
# Compressibility (1/GPa) = 0.04059838
#
# Stress axis : x y z
#
# Youngs Moduli (GPa) = 17.45044 54.55854 80.41615
#
# Poissons Ratio (x) = 1.15593 -0.15479
# Poissons Ratio (y) = 0.36972 0.35974
# Poissons Ratio (z) = -0.03359 0.24406
#
# Static dielectric constant tensor:
#      x y z
#    x 1.708000 0.000000 0.016710 
#    y 0.000000 1.736120 0.000000 
#    z 0.016710 0.000000 1.758170 
# 
# From -- ./inp_files/287689.got.cif
#   From: 2010.05.17/outbox.cif.g08.bks.cpg/sg15_144_cif.got.tgz:287689.got - 2010.06.03 18:47:42.
