data_PCOD9277929
_publ_section_title
;
Structure prediction by ZEFSAII (Michael W. Deem and Ramdas Pophale) SiO2 
 PCOD9277929
Probable space group: C 2/C
;
_chemical_formula_sum "Si O2"
_cell_formula_units_Z 40
_cell_length_a 13.130409
_cell_length_b 11.797486
_cell_length_c 15.011626
_cell_angle_alpha 90.000000
_cell_angle_beta 44.127513
_cell_angle_gamma 90.000000
_cell_volume 1619.069089
_symmetry_space_group_name_H-M "C 2/C"
_symmetry_group_IT_number 15
_symmetry_cell_setting 'monoclinic'
loop_
_space_group_symop_operation_xyz
x,y,z
-x,y,1/2-z
-x,-y,-z
x,-y,1/2+z
1/2+x,1/2+y,z
1/2-x,1/2+y,1/2-z
1/2-x,1/2-y,-z
1/2+x,1/2-y,1/2+z
loop_
_atom_site_type_symbol
_atom_site_label
_atom_site_fract_x
_atom_site_fract_y
_atom_site_fract_z
Si Si1 0.849234 0.480538 0.345290
Si Si2 0.001187 0.311982 0.480978
Si Si3 0.276424 0.006254 0.182586
Si Si4 0.915702 0.281864 0.885157
Si Si5 0.524591 0.571345 0.076646
O O1 0.810003 0.519698 0.268542
O O2 0.899665 0.584998 0.374681
O O3 0.698501 0.437549 0.481932
O O4 0.000000 0.406958 0.250000
O O5 0.150062 0.385011 0.382917
O O6 0.997334 0.256160 0.580892
O O7 0.868474 0.401624 0.567751
O O8 0.003884 0.205815 0.414718
O O9 0.103500 0.022445 0.280143
O O10 0.000000 0.229014 0.750000
O O11 0.750000 0.250000 0.000000
O O12 0.500000 0.500000 0.000000
#
# Coordination Sequence:
#
# PCOD9277929 Si02
#       5
#     8   8   8   8   8
#     4  10  20  42  62  92 136 168 213 279 334 386
#     4  11  23  40  69  93 131 177 221 271 331 402
#     4  10  22  41  65  92 128 176 225 262 329 407
#     4  11  22  37  63  97 132 167 213 281 340 380
#     4  10  23  38  66  97 128 172 221 272 325 403
#
# _framework density 24.705556999999999
#
# number of rings (size 3 to 8) (size 9 to 14) (size 15 to 20)
#    0.000    1.600    4.000    2.400    5.600    1.600 
#    0.000    1.000    0.000    0.000    0.000    0.000 
#    0.000    0.000    0.000    0.000    0.000    0.000 
#
# Total GULP energy -111672.850407 kJ/mol
# GULP energy per Si atom -5583.642520 kJ/mol
# Density = 2.464933 g / cm^3
# Si number density = 24.705557 Si / 1000 Ang^3
#
#
#
# Elastic Constant Matrix: (Units=GPa)
#
#
# Indices 1 2 3 4 5 6 
#
# 1 70.7350 10.1369 35.4173 0.0000 -26.1939 0.0000
# 2 10.1369 108.6173 52.9705 0.0000 -26.0859 0.0000
# 3 35.4173 52.9705 196.0072 0.0000 -67.5574 0.0000
# 4 0.0000 0.0000 0.0000 22.9889 0.0000 0.3975
# 5 -26.1939 -26.0859 -67.5574 0.0000 53.5275 0.0000
# 6 0.0000 0.0000 0.0000 0.3975 0.0000 13.4004
#
#
#
# Elastic Compliance Matrix: (Units=1/GPa)
#
#
# Indices 1 2 3 4 5 6 
#
# 1 0.017311 0.000573 -0.000472 0.000000 0.008155 0.000000
# 2 0.000573 0.010856 -0.001977 0.000000 0.003075 0.000000
# 3 -0.000472 -0.001977 0.009398 0.000000 0.010666 0.000000
# 4 0.000000 0.000000 0.000000 0.043522 0.000000 -0.001291
# 5 0.008155 0.003075 0.010666 0.000000 0.037633 0.000000
# 6 0.000000 0.000000 0.000000 -0.001291 0.000000 0.074663
#
#
# Mechanical properties :
#
#
# Convention : Reuss Voigt Hill
#
# Bulk Modulus (GPa) = 29.57511 63.60099 46.58805
# Shear Modulus (GPa) = 23.99147 36.43899 30.21523
#
# Velocity S-wave (km/s) = 3.11962 3.84465 3.50096
# Velocity P-wave (km/s) = 4.99731 6.74596 5.93637
#
# Compressibility (1/GPa) = 0.03381221
#
# Stress axis : x y z
#
# Youngs Moduli (GPa) = 57.76550 92.11432 106.40583
#
# Poissons Ratio (x) = -0.05280 0.05026
# Poissons Ratio (y) = -0.03311 0.21041
# Poissons Ratio (z) = 0.02728 0.18215
#
# Static dielectric constant tensor:
#      x y z
#    x 1.996910 0.000000 -0.023730 
#    y 0.000000 1.969310 0.000000 
#    z -0.023730 0.000000 1.819710 
# 
# From -- ./inp_files/203784.got.cif
#   From: 2010.05.17/outbox.cif.g08.bks.cpg/sg15_102_cif.got.tgz:203784.got - 2010.06.03 18:47:42.
