data_PCOD9277568
_publ_section_title
;
Structure prediction by ZEFSAII (Michael W. Deem and Ramdas Pophale) SiO2 
 PCOD9277568
Probable space group: C 2/C
;
_chemical_formula_sum "Si O2"
_cell_formula_units_Z 56
_cell_length_a 11.906333
_cell_length_b 17.510330
_cell_length_c 16.102412
_cell_angle_alpha 90.000000
_cell_angle_beta 125.854905
_cell_angle_gamma 90.000000
_cell_volume 2720.933088
_symmetry_space_group_name_H-M "C 2/C"
_symmetry_group_IT_number 15
_symmetry_cell_setting 'monoclinic'
loop_
_space_group_symop_operation_xyz
x,y,z
-x,y,1/2-z
-x,-y,-z
x,-y,1/2+z
1/2+x,1/2+y,z
1/2-x,1/2+y,1/2-z
1/2-x,1/2-y,-z
1/2+x,1/2-y,1/2+z
loop_
_atom_site_type_symbol
_atom_site_label
_atom_site_fract_x
_atom_site_fract_y
_atom_site_fract_z
Si Si1 0.672743 0.564036 0.590471
Si Si2 0.164225 0.931520 0.807689
Si Si3 0.150756 0.104701 0.777793
Si Si4 0.864694 0.310596 0.141085
Si Si5 0.866863 0.695429 0.449911
Si Si6 0.118243 0.103581 0.101270
Si Si7 0.829665 0.269067 0.449338
O O1 0.644536 0.588199 0.675227
O O2 0.816545 0.602281 0.628209
O O3 0.548649 0.596705 0.479709
O O4 0.669408 0.472969 0.576538
O O5 0.274891 0.880665 0.903626
O O6 0.178856 0.908598 0.718306
O O7 0.000000 0.917069 0.750000
O O8 0.189804 0.021339 0.831326
O O9 0.252584 0.170295 0.855652
O O10 0.000000 0.123336 0.750000
O O11 0.737036 0.262309 0.122110
O O12 0.000000 0.293254 0.250000
O O13 0.892956 0.290079 0.058477
O O14 0.014050 0.699346 0.468633
O O15 0.157890 0.186232 0.087146
O O16 0.750000 0.250000 0.500000
#
# Coordination Sequence:
#
# PCOD9277568 Si02
#       7
#     8   8   8   8   8   8   8
#     4  10  20  41  65  93 127 171 222 273 320 388
#     4  10  22  41  67  97 131 175 220 273 327 389
#     4  10  23  41  65  95 132 179 222 265 326 394
#     4  11  23  39  66  97 128 161 208 279 332 381
#     4  11  25  40  63  99 128 167 216 266 334 382
#     4  10  22  39  65  93 128 175 224 260 323 397
#     4  12  26  43  63  97 132 179 221 269 330 398
#
# _framework density 20.581177
#
# number of rings (size 3 to 8) (size 9 to 14) (size 15 to 20)
#    0.000    1.429    1.429    3.000    6.000    4.000 
#    0.000    3.571    0.000    0.000    0.000    0.000 
#    0.000    0.000    0.000    0.000    0.000    0.000 
#
# Total GULP energy -156363.202635 kJ/mol
# GULP energy per Si atom -5584.400094 kJ/mol
# Density = 2.053433 g / cm^3
# Si number density = 20.581177 Si / 1000 Ang^3
#
#
#
# Elastic Constant Matrix: (Units=GPa)
#
#
# Indices 1 2 3 4 5 6 
#
# 1 84.7436 41.1518 22.3382 0.0000 17.1363 0.0000
# 2 41.1518 143.7014 41.3578 0.0000 23.7204 0.0000
# 3 22.3382 41.3578 98.8494 0.0000 26.9659 0.0000
# 4 0.0000 0.0000 0.0000 19.7617 0.0000 13.6183
# 5 17.1363 23.7204 26.9659 0.0000 21.8024 0.0000
# 6 0.0000 0.0000 0.0000 13.6183 0.0000 20.3001
#
#
#
# Elastic Compliance Matrix: (Units=1/GPa)
#
#
# Indices 1 2 3 4 5 6 
#
# 1 0.014935 -0.002879 0.000268 0.000000 -0.008938 0.000000
# 2 -0.002879 0.009199 -0.001638 0.000000 -0.005720 0.000000
# 3 0.000268 -0.001638 0.015564 0.000000 -0.017678 0.000000
# 4 0.000000 0.000000 0.000000 0.094110 0.000000 -0.063134
# 5 -0.008938 -0.005720 -0.017678 0.000000 0.080979 0.000000
# 6 0.000000 0.000000 0.000000 -0.063134 0.000000 0.091614
#
#
# Mechanical properties :
#
#
# Convention : Reuss Voigt Hill
#
# Bulk Modulus (GPa) = 32.05160 59.66555 45.85857
# Shear Modulus (GPa) = 15.37046 27.20261 21.28654
#
# Velocity S-wave (km/s) = 2.73577 3.63949 3.21950
# Velocity P-wave (km/s) = 5.05829 6.83480 6.01252
#
# Compressibility (1/GPa) = 0.03119969
#
# Stress axis : x y z
#
# Youngs Moduli (GPa) = 66.95693 108.71066 64.25177
#
# Poissons Ratio (x) = 0.31294 -0.01719
# Poissons Ratio (y) = 0.19274 0.10523
# Poissons Ratio (z) = -0.01791 0.17805
#
# Static dielectric constant tensor:
#      x y z
#    x 1.758510 0.000000 -0.025300 
#    y 0.000000 1.783260 0.000000 
#    z -0.025300 0.000000 1.730440 
# 
# From -- ./inp_files/146141.got.cif
#   From: 2010.05.17/outbox.cif.g08.bks.cpg/sg15_74_cif.got.tgz:146141.got - 2010.06.03 18:47:42.
