data_PCOD9277172
_publ_section_title
;
Structure prediction by ZEFSAII (Michael W. Deem and Ramdas Pophale) SiO2 
 PCOD9277172
Probable space group: C 2/C
;
_chemical_formula_sum "Si O2"
_cell_formula_units_Z 56
_cell_length_a 16.104640
_cell_length_b 10.865809
_cell_length_c 14.409931
_cell_angle_alpha 90.000000
_cell_angle_beta 111.525275
_cell_angle_gamma 90.000000
_cell_volume 2345.726513
_symmetry_space_group_name_H-M "C 2/C"
_symmetry_group_IT_number 15
_symmetry_cell_setting 'monoclinic'
loop_
_space_group_symop_operation_xyz
x,y,z
-x,y,1/2-z
-x,-y,-z
x,-y,1/2+z
1/2+x,1/2+y,z
1/2-x,1/2+y,1/2-z
1/2-x,1/2-y,-z
1/2+x,1/2-y,1/2+z
loop_
_atom_site_type_symbol
_atom_site_label
_atom_site_fract_x
_atom_site_fract_y
_atom_site_fract_z
Si Si1 0.112777 0.013696 0.713175
Si Si2 0.778678 0.068281 0.422726
Si Si3 0.235291 0.665145 0.650436
Si Si4 0.500000 0.072933 0.250000
Si Si5 0.447883 0.116501 0.020927
Si Si6 0.352145 0.117209 0.688325
Si Si7 0.030923 0.881275 0.454248
Si Si8 0.000000 0.200899 0.250000
O O1 0.183476 0.070980 0.811732
O O2 0.037561 0.114117 0.658646
O O3 0.172886 0.978813 0.650508
O O4 0.058270 0.892150 0.714145
O O5 0.738343 0.200782 0.378172
O O6 0.864327 0.097902 0.521381
O O7 0.711760 0.954050 0.410302
O O8 0.155118 0.614358 0.553698
O O9 0.197885 0.673917 0.742086
O O10 0.462233 0.127367 0.138072
O O11 0.582692 0.989906 0.247552
O O12 0.479603 0.251151 0.998532
O O13 0.500000 0.000000 0.000000
O O14 0.423296 0.212572 0.674581
O O15 0.000000 0.000000 0.500000
#
# Coordination Sequence:
#
# PCOD9277172 Si02
#       8
#     8   8   8   4   8   8   8   4
#     4  10  21  37  65  95 138 184 232 289 368 422
#     4   9  19  40  63  94 128 184 240 286 355 431
#     4  10  20  40  68  98 132 187 240 292 351 445
#     4  11  24  39  66 106 139 181 240 306 362 420
#     4  11  23  43  71 103 145 191 249 299 369 441
#     4  10  21  39  68  95 138 182 233 298 358 424
#     4   9  21  40  65  95 138 189 240 295 359 434
#     4  11  22  41  62 100 145 183 232 306 370 416
#
# _framework density 23.873201999999999
#
# number of rings (size 3 to 8) (size 9 to 14) (size 15 to 20)
#    0.000    2.000    2.857    0.000    2.000    0.571 
#    5.143    2.143    0.000    0.000    0.000    0.000 
#    0.000    0.000    0.000    0.000    0.000    0.000 
#
# Total GULP energy -156140.839229 kJ/mol
# GULP energy per Si atom -5576.458544 kJ/mol
# Density = 2.381887 g / cm^3
# Si number density = 23.873202 Si / 1000 Ang^3
#
#
#
# Elastic Constant Matrix: (Units=GPa)
#
#
# Indices 1 2 3 4 5 6 
#
# 1 75.1082 65.4329 41.4681 0.0000 6.5423 0.0000
# 2 65.4329 156.0099 61.8501 0.0000 24.1718 0.0000
# 3 41.4681 61.8501 117.7933 0.0000 15.6531 0.0000
# 4 0.0000 0.0000 0.0000 25.2416 0.0000 24.4439
# 5 6.5423 24.1718 15.6531 0.0000 40.9392 0.0000
# 6 0.0000 0.0000 0.0000 24.4439 0.0000 42.8974
#
#
#
# Elastic Compliance Matrix: (Units=1/GPa)
#
#
# Indices 1 2 3 4 5 6 
#
# 1 0.022470 -0.008305 -0.003924 0.000000 0.002813 0.000000
# 2 -0.008305 0.011617 -0.002572 0.000000 -0.004549 0.000000
# 3 -0.003924 -0.002572 0.011521 0.000000 -0.002260 0.000000
# 4 0.000000 0.000000 0.000000 0.088395 0.000000 -0.050370
# 5 0.002813 -0.004549 -0.002260 0.000000 0.027527 0.000000
# 6 0.000000 0.000000 0.000000 -0.050370 0.000000 0.052013
#
#
# Mechanical properties :
#
#
# Convention : Reuss Voigt Hill
#
# Bulk Modulus (GPa) = 62.46632 76.26816 69.36724
# Shear Modulus (GPa) = 20.12230 33.82633 26.97431
#
# Velocity S-wave (km/s) = 2.90639 3.76828 3.36504
# Velocity P-wave (km/s) = 6.12254 7.13791 6.64963
#
# Compressibility (1/GPa) = 0.01600863
#
# Stress axis : x y z
#
# Youngs Moduli (GPa) = 44.50325 86.07818 86.79448
#
# Poissons Ratio (x) = 0.71485 0.34055
# Poissons Ratio (y) = 0.36958 0.22323
# Poissons Ratio (z) = 0.17462 0.22139
#
# Static dielectric constant tensor:
#      x y z
#    x 1.997850 0.000000 0.006150 
#    y 0.000000 1.931600 0.000000 
#    z 0.006150 0.000000 2.045170 
# 
# From -- ./inp_files/210724.got.cif
#   From: 2010.05.17/outbox.cif.g08.bks.cpg/sg15_106_cif.got.tgz:210724.got - 2010.06.03 18:47:42.
