data_PCOD9277154
_publ_section_title
;
Structure prediction by ZEFSAII (Michael W. Deem and Ramdas Pophale) SiO2 
 PCOD9277154
Probable space group: C 2/C
;
_chemical_formula_sum "Si O2"
_cell_formula_units_Z 44
_cell_length_a 13.155228
_cell_length_b 14.485389
_cell_length_c 19.497852
_cell_angle_alpha 90.000000
_cell_angle_beta 150.185107
_cell_angle_gamma 90.000000
_cell_volume 1847.336445
_symmetry_space_group_name_H-M "C 2/C"
_symmetry_group_IT_number 15
_symmetry_cell_setting 'monoclinic'
loop_
_space_group_symop_operation_xyz
x,y,z
-x,y,1/2-z
-x,-y,-z
x,-y,1/2+z
1/2+x,1/2+y,z
1/2-x,1/2+y,1/2-z
1/2-x,1/2-y,-z
1/2+x,1/2-y,1/2+z
loop_
_atom_site_type_symbol
_atom_site_label
_atom_site_fract_x
_atom_site_fract_y
_atom_site_fract_z
Si Si1 0.728131 0.956228 0.388158
Si Si2 0.623293 0.905116 0.570231
Si Si3 0.120341 0.113052 0.925665
Si Si4 0.177103 0.894414 0.664796
Si Si5 0.845070 0.255813 0.446759
Si Si6 0.000000 0.018466 0.250000
O O1 0.500000 0.915676 0.250000
O O2 0.927996 0.893252 0.518932
O O3 0.737242 0.039714 0.450246
O O4 0.770123 0.008838 0.340836
O O5 0.728862 0.888029 0.705555
O O6 0.479267 0.818755 0.476250
O O7 0.803660 0.920206 0.622216
O O8 0.500000 0.000000 0.500000
O O9 0.229294 0.174496 0.930610
O O10 0.963533 0.048674 0.793112
O O11 0.040744 0.183982 0.935715
O O12 0.271921 0.813900 0.672179
#
# Coordination Sequence:
#
# PCOD9277154 Si02
#       6
#     8   8   8   8   8   4
#     4  10  20  40  68  96 134 178 218 274 338 399
#     4  12  25  43  67  98 137 182 219 277 347 402
#     4  10  21  41  68 102 126 173 228 282 331 396
#     4  10  23  42  64 100 135 170 227 276 331 401
#     4  10  23  42  66 100 133 174 222 287 333 391
#     4  12  24  42  66  98 136 178 228 272 336 416
#
# _framework density 23.818076999999999
#
# number of rings (size 3 to 8) (size 9 to 14) (size 15 to 20)
#    0.000    1.455    3.636    1.091    2.545    0.000 
#    4.909    0.909    0.000    0.000    0.000    0.000 
#    0.000    0.000    0.000    0.000    0.000    0.000 
#
# Total GULP energy -122872.759936 kJ/mol
# GULP energy per Si atom -5585.125452 kJ/mol
# Density = 2.376387 g / cm^3
# Si number density = 23.818077 Si / 1000 Ang^3
#
#
#
# Elastic Constant Matrix: (Units=GPa)
#
#
# Indices 1 2 3 4 5 6 
#
# 1 62.2991 22.2918 5.1211 0.0003 4.0033 -0.0006
# 2 22.2918 76.3609 -6.0651 0.0049 -3.4649 0.0014
# 3 5.1211 -6.0651 61.4557 0.0111 0.3483 0.0035
# 4 0.0003 0.0049 0.0111 24.0450 0.0026 -4.2813
# 5 4.0033 -3.4649 0.3483 0.0026 43.7366 0.0002
# 6 -0.0006 0.0014 0.0035 -4.2813 0.0002 35.6170
#
#
#
# Elastic Compliance Matrix: (Units=1/GPa)
#
#
# Indices 1 2 3 4 5 6 
#
# 1 0.018370 -0.005623 -0.002074 0.000002 -0.002110 0.000001
# 2 -0.005623 0.014967 0.001936 -0.000004 0.001685 -0.000001
# 3 -0.002074 0.001936 0.016635 -0.000009 0.000211 -0.000003
# 4 0.000002 -0.000004 -0.000009 0.042498 -0.000003 0.005108
# 5 -0.002110 0.001685 0.000211 -0.000003 0.023189 -0.000001
# 6 0.000001 -0.000001 -0.000003 0.005108 -0.000001 0.028691
#
#
# Mechanical properties :
#
#
# Convention : Reuss Voigt Hill
#
# Bulk Modulus (GPa) = 26.00747 26.97903 26.49325
# Shear Modulus (GPa) = 29.64057 32.59760 31.11909
#
# Velocity S-wave (km/s) = 3.53151 3.70348 3.61852
# Velocity P-wave (km/s) = 5.25088 5.44421 5.34842
#
# Compressibility (1/GPa) = 0.03845049
#
# Stress axis : x y z
#
# Youngs Moduli (GPa) = 54.43747 66.81156 60.11574
#
# Poissons Ratio (x) = 0.37569 0.12466
# Poissons Ratio (y) = 0.30611 -0.11639
# Poissons Ratio (z) = 0.11289 -0.12936
#
# Static dielectric constant tensor:
#      x y z
#    x 2.039430 0.000000 0.013080 
#    y 0.000000 1.874640 0.000000 
#    z 0.013080 0.000000 1.970270 
# 
# From -- ./inp_files/168541.got.cif
#   From: 2010.05.17/outbox.cif.g08.bks.cpg/sg15_85_cif.got.tgz:168541.got - 2010.06.03 18:47:42.
