data_PCOD9277812
_publ_section_title
;
Structure prediction by ZEFSAII (Michael W. Deem and Ramdas Pophale) SiO2 
 PCOD9277812
Probable space group: C 2/C
;
_chemical_formula_sum "Si O2"
_cell_formula_units_Z 48
_cell_length_a 7.120473
_cell_length_b 31.913134
_cell_length_c 13.668848
_cell_angle_alpha 90.000000
_cell_angle_beta 43.793744
_cell_angle_gamma 90.000000
_cell_volume 2149.595280
_symmetry_space_group_name_H-M "C 2/C"
_symmetry_group_IT_number 15
_symmetry_cell_setting 'monoclinic'
loop_
_space_group_symop_operation_xyz
x,y,z
-x,y,1/2-z
-x,-y,-z
x,-y,1/2+z
1/2+x,1/2+y,z
1/2-x,1/2+y,1/2-z
1/2-x,1/2-y,-z
1/2+x,1/2-y,1/2+z
loop_
_atom_site_type_symbol
_atom_site_label
_atom_site_fract_x
_atom_site_fract_y
_atom_site_fract_z
Si Si1 0.234063 0.941385 0.781713
Si Si2 0.500000 0.509659 0.750000
Si Si3 0.269673 0.151129 0.715683
Si Si4 0.090201 0.875329 0.988944
Si Si5 0.091182 0.421918 0.466368
Si Si6 0.454957 0.754752 0.154022
Si Si7 0.500000 0.809479 0.750000
O O1 0.500000 0.950030 0.750000
O O2 0.086429 0.902915 0.892039
O O3 0.339700 0.929402 0.633173
O O4 0.052656 0.981791 0.827364
O O5 0.768843 0.537777 0.634465
O O6 0.445037 0.113879 0.601812
O O7 0.372497 0.197764 0.663581
O O8 0.000000 0.149760 0.750000
O O9 0.178952 0.144638 0.862970
O O10 0.327613 0.840542 0.885452
O O11 0.185002 0.906445 0.038928
O O12 0.500000 0.748588 0.250000
O O13 0.229646 0.721298 0.205807
O O14 0.750000 0.750000 0.000000
#
# Coordination Sequence:
#
# PCOD9277812 Si02
#       7
#     8   4   8   8   8   8   4
#     4  10  23  42  64  99 136 176 238 283 341 422
#     4  12  22  41  72  98 140 176 232 297 346 406
#     4  10  21  44  72  94 141 187 225 290 360 409
#     4  10  20  41  70  97 130 195 232 267 367 422
#     4  10  20  42  67  99 133 181 230 281 351 424
#     4  12  29  46  71 114 139 182 248 293 350 431
#     4  12  24  47  78  92 152 192 224 303 354 408
#
# _framework density 22.329784
#
# number of rings (size 3 to 8) (size 9 to 14) (size 15 to 20)
#    0.000    1.333    5.833    1.500    4.667    4.000 
#    7.500    0.833    0.000    0.000    0.000    0.000 
#    0.000    0.000    0.000    0.000    0.000    0.000 
#
# Total GULP energy -134016.086483 kJ/mol
# GULP energy per Si atom -5584.003603 kJ/mol
# Density = 2.227896 g / cm^3
# Si number density = 22.329784 Si / 1000 Ang^3
#
#
#
# Elastic Constant Matrix: (Units=GPa)
#
#
# Indices 1 2 3 4 5 6 
#
# 1 81.1141 45.5249 32.6963 0.0000 3.7636 0.0000
# 2 45.5249 134.5505 59.6583 0.0000 4.4616 0.0000
# 3 32.6963 59.6583 160.1098 0.0000 13.5646 0.0000
# 4 0.0000 0.0000 0.0000 29.7419 0.0000 9.3346
# 5 3.7636 4.4616 13.5646 0.0000 21.5268 0.0000
# 6 0.0000 0.0000 0.0000 9.3346 0.0000 35.7143
#
#
#
# Elastic Compliance Matrix: (Units=1/GPa)
#
#
# Indices 1 2 3 4 5 6 
#
# 1 0.015510 -0.004609 -0.001375 0.000000 -0.000890 0.000000
# 2 -0.004609 0.010274 -0.002931 0.000000 0.000524 0.000000
# 3 -0.001375 -0.002931 0.007972 0.000000 -0.004176 0.000000
# 4 0.000000 0.000000 0.000000 0.036627 0.000000 -0.009573
# 5 -0.000890 0.000524 -0.004176 0.000000 0.049132 0.000000
# 6 0.000000 0.000000 0.000000 -0.009573 0.000000 0.030502
#
#
# Mechanical properties :
#
#
# Convention : Reuss Voigt Hill
#
# Bulk Modulus (GPa) = 62.78624 72.39260 67.58942
# Shear Modulus (GPa) = 28.87551 33.25625 31.06588
#
# Velocity S-wave (km/s) = 3.59993 3.86336 3.73397
# Velocity P-wave (km/s) = 6.74226 7.23815 6.99460
#
# Compressibility (1/GPa) = 0.01592706
#
# Stress axis : x y z
#
# Youngs Moduli (GPa) = 64.47259 97.33378 125.43202
#
# Poissons Ratio (x) = 0.44860 0.17243
# Poissons Ratio (y) = 0.29715 0.36768
# Poissons Ratio (z) = 0.08863 0.28532
#
# Static dielectric constant tensor:
#      x y z
#    x 1.989640 0.000000 -0.070160 
#    y 0.000000 2.013070 0.000000 
#    z -0.070160 0.000000 1.853690 
# 
# From -- ./inp_files/139415.got.cif
#   From: 2010.05.17/outbox.cif.g08.bks.cpg/sg15_70_cif.got.tgz:139415.got - 2010.06.03 18:47:42.
