data_PCOD9277445
_publ_section_title
;
Structure prediction by ZEFSAII (Michael W. Deem and Ramdas Pophale) SiO2 
 PCOD9277445
Probable space group: C 2/C
;
_chemical_formula_sum "Si O2"
_cell_formula_units_Z 48
_cell_length_a 9.392153
_cell_length_b 31.535489
_cell_length_c 8.833255
_cell_angle_alpha 90.000000
_cell_angle_beta 84.600615
_cell_angle_gamma 90.000000
_cell_volume 2604.679146
_symmetry_space_group_name_H-M "C 2/C"
_symmetry_group_IT_number 15
_symmetry_cell_setting 'monoclinic'
loop_
_space_group_symop_operation_xyz
x,y,z
-x,y,1/2-z
-x,-y,-z
x,-y,1/2+z
1/2+x,1/2+y,z
1/2-x,1/2+y,1/2-z
1/2-x,1/2-y,-z
1/2+x,1/2-y,1/2+z
loop_
_atom_site_type_symbol
_atom_site_label
_atom_site_fract_x
_atom_site_fract_y
_atom_site_fract_z
Si Si1 0.419566 0.236858 0.424245
Si Si2 0.997040 0.816743 0.582448
Si Si3 0.481305 0.146671 0.572667
Si Si4 0.278187 0.610115 0.075886
Si Si5 0.984620 0.046485 0.571211
Si Si6 0.226455 0.107745 0.070404
O O1 0.500000 0.228824 0.250000
O O2 0.250000 0.250000 0.500000
O O3 0.505167 0.278603 0.467234
O O4 0.454259 0.193792 0.510354
O O5 0.118140 0.852533 0.564018
O O6 0.000000 0.797871 0.750000
O O7 0.853355 0.843769 0.575038
O O8 0.500000 0.148878 0.750000
O O9 0.355644 0.117034 0.519065
O O10 0.624527 0.125198 0.499186
O O11 0.256944 0.597424 0.253245
O O12 0.387423 0.576370 0.998324
O O13 0.842311 0.069647 0.520061
O O14 0.000000 0.044529 0.750000
O O15 0.000000 0.000000 0.500000
#
# Coordination Sequence:
#
# PCOD9277445 Si02
#       6
#     8   8   8   8   8   8
#     4  12  26  41  63  89 129 175 226 277 337 388
#     4   9  20  38  62  84 119 163 216 262 322 379
#     4  12  25  40  62  91 127 169 219 269 331 388
#     4  10  20  41  63  89 125 163 207 263 323 391
#     4  11  22  40  67  98 129 162 209 258 317 391
#     4  10  22  39  65  92 122 169 210 262 324 387
#
# _framework density 18.428374000000002
#
# number of rings (size 3 to 8) (size 9 to 14) (size 15 to 20)
#    0.000    1.333    1.667    5.500    4.667    3.333 
#    0.000    0.833    0.000    0.000    0.000    0.000 
#    0.000    0.000    0.000    0.000    0.000    0.000 
#
# Total GULP energy -133629.030733 kJ/mol
# GULP energy per Si atom -5567.876281 kJ/mol
# Density = 1.838643 g / cm^3
# Si number density = 18.428374 Si / 1000 Ang^3
#
#
#
# Elastic Constant Matrix: (Units=GPa)
#
#
# Indices 1 2 3 4 5 6 
#
# 1 106.0444 17.4463 66.1115 0.0000 9.1794 0.0000
# 2 17.4463 83.3107 68.0393 0.0000 9.0356 0.0000
# 3 66.1115 68.0393 180.4305 0.0000 3.1204 0.0000
# 4 0.0000 0.0000 0.0000 43.4909 0.0000 8.9464
# 5 9.1794 9.0356 3.1204 0.0000 28.8883 0.0000
# 6 0.0000 0.0000 0.0000 8.9464 0.0000 20.2293
#
#
#
# Elastic Compliance Matrix: (Units=1/GPa)
#
#
# Indices 1 2 3 4 5 6 
#
# 1 0.012838 0.002237 -0.005475 0.000000 -0.004188 0.000000
# 2 0.002237 0.018404 -0.007662 0.000000 -0.005640 0.000000
# 3 -0.005475 -0.007662 0.010386 0.000000 0.003015 0.000000
# 4 0.000000 0.000000 0.000000 0.025294 0.000000 -0.011186
# 5 -0.004188 -0.005640 0.003015 0.000000 0.037385 0.000000
# 6 0.000000 0.000000 0.000000 -0.011186 0.000000 0.054380
#
#
# Mechanical properties :
#
#
# Convention : Reuss Voigt Hill
#
# Bulk Modulus (GPa) = 50.43544 74.77555 62.60549
# Shear Modulus (GPa) = 26.72409 33.06760 29.89585
#
# Velocity S-wave (km/s) = 3.81223 4.24061 4.03211
# Velocity P-wave (km/s) = 6.84143 8.03999 7.46481
#
# Compressibility (1/GPa) = 0.01982733
#
# Stress axis : x y z
#
# Youngs Moduli (GPa) = 77.89494 54.33545 96.28583
#
# Poissons Ratio (x) = -0.12156 0.52718
# Poissons Ratio (y) = -0.17427 0.73778
# Poissons Ratio (z) = 0.42649 0.41634
#
# Static dielectric constant tensor:
#      x y z
#    x 1.673940 0.000000 -0.036700 
#    y 0.000000 1.583340 0.000000 
#    z -0.036700 0.000000 1.241750 
# 
# From -- ./inp_files/26111.got.cif
#   From: 2010.05.17/outbox.cif.g08.bks.cpg/sg15_14_cif.got.tgz:26111.got - 2010.06.03 18:47:42.
