data_PCOD9277934
_publ_section_title
;
Structure prediction by ZEFSAII (Michael W. Deem and Ramdas Pophale) SiO2 
 PCOD9277934
Probable space group: C 2/C
;
_chemical_formula_sum "Si O2"
_cell_formula_units_Z 52
_cell_length_a 23.775241
_cell_length_b 11.746072
_cell_length_c 10.763250
_cell_angle_alpha 90.000000
_cell_angle_beta 127.110670
_cell_angle_gamma 90.000000
_cell_volume 2397.045236
_symmetry_space_group_name_H-M "C 2/C"
_symmetry_group_IT_number 15
_symmetry_cell_setting 'monoclinic'
loop_
_space_group_symop_operation_xyz
x,y,z
-x,y,1/2-z
-x,-y,-z
x,-y,1/2+z
1/2+x,1/2+y,z
1/2-x,1/2+y,1/2-z
1/2-x,1/2-y,-z
1/2+x,1/2-y,1/2+z
loop_
_atom_site_type_symbol
_atom_site_label
_atom_site_fract_x
_atom_site_fract_y
_atom_site_fract_z
Si Si1 0.500000 0.176234 0.750000
Si Si2 0.141799 0.584369 0.839836
Si Si3 0.818823 0.330796 0.608679
Si Si4 0.696205 0.769875 0.638947
Si Si5 0.578683 0.622554 0.503402
Si Si6 0.019197 0.880885 0.403638
Si Si7 0.357037 0.770313 0.393749
O O1 0.559438 0.095662 0.768607
O O2 0.459789 0.266351 0.605988
O O3 0.182976 0.466479 0.909750
O O4 0.143162 0.622982 0.698671
O O5 0.177753 0.671334 0.984735
O O6 0.750000 0.250000 0.500000
O O7 0.839746 0.316185 0.781207
O O8 0.864422 0.295422 0.549628
O O9 0.661561 0.643842 0.592270
O O10 0.779242 0.780092 0.769549
O O11 0.552873 0.503090 0.414398
O O12 0.550593 0.610373 0.606434
O O13 0.079521 0.813096 0.557838
O O14 0.000000 0.822309 0.250000
#
# Coordination Sequence:
#
# PCOD9277934 Si02
#       7
#     4   8   8   8   8   8   8
#     4  10  20  42  62  94 134 172 222 278 328 416
#     4  11  22  42  67  95 132 180 228 277 344 408
#     4  10  23  42  61  91 134 169 217 281 340 396
#     4  10  23  41  65  96 135 177 221 285 338 411
#     4  10  21  39  62  93 133 174 217 272 342 395
#     4  11  22  38  66  98 133 175 224 277 336 405
#     4  11  23  41  66 100 132 174 230 276 339 413
#
# _framework density 21.693373999999999
#
# number of rings (size 3 to 8) (size 9 to 14) (size 15 to 20)
#    0.000    1.538    2.308    2.308    0.000    4.923 
#    4.154    3.846    0.000    0.000    0.000    0.000 
#    0.000    0.000    0.000    0.000    0.000    0.000 
#
# Total GULP energy -144791.319248 kJ/mol
# GULP energy per Si atom -5568.896894 kJ/mol
# Density = 2.164400 g / cm^3
# Si number density = 21.693374 Si / 1000 Ang^3
#
#
#
# Elastic Constant Matrix: (Units=GPa)
#
#
# Indices 1 2 3 4 5 6 
#
# 1 65.8142 21.4198 18.7763 0.0000 -1.1710 0.0000
# 2 21.4198 93.0318 8.8343 0.0000 12.8873 0.0000
# 3 18.7763 8.8343 64.7412 0.0000 7.1953 0.0000
# 4 0.0000 0.0000 0.0000 23.1159 0.0000 -0.8321
# 5 -1.1710 12.8873 7.1953 0.0000 28.4823 0.0000
# 6 0.0000 0.0000 0.0000 -0.8321 0.0000 17.5092
#
#
#
# Elastic Compliance Matrix: (Units=1/GPa)
#
#
# Indices 1 2 3 4 5 6 
#
# 1 0.018099 -0.004229 -0.005111 0.000000 0.003949 0.000000
# 2 -0.004229 0.012521 0.000172 0.000000 -0.005883 0.000000
# 3 -0.005111 0.000172 0.017426 0.000000 -0.004690 0.000000
# 4 0.000000 0.000000 0.000000 0.043334 0.000000 0.002059
# 5 0.003949 -0.005883 -0.004690 0.000000 0.039118 0.000000
# 6 0.000000 0.000000 0.000000 0.002059 0.000000 0.057211
#
#
# Mechanical properties :
#
#
# Convention : Reuss Voigt Hill
#
# Bulk Modulus (GPa) = 33.65825 35.73863 34.69844
# Shear Modulus (GPa) = 23.15359 25.45862 24.30610
#
# Velocity S-wave (km/s) = 3.27052 3.42945 3.35093
# Velocity P-wave (km/s) = 5.45993 5.67378 5.56788
#
# Compressibility (1/GPa) = 0.02971040
#
# Stress axis : x y z
#
# Youngs Moduli (GPa) = 55.25186 79.86414 57.38481
#
# Poissons Ratio (x) = 0.33773 0.29329
# Poissons Ratio (y) = 0.23365 -0.00985
# Poissons Ratio (z) = 0.28239 -0.01371
#
# Static dielectric constant tensor:
#      x y z
#    x 1.829110 0.000000 -0.003310 
#    y 0.000000 1.842520 0.000000 
#    z -0.003310 0.000000 1.849720 
# 
# From -- ./inp_files/111504.got.cif
#   From: 2010.05.17/outbox.cif.g08.bks.cpg/sg15_56_cif.got.tgz:111504.got - 2010.06.03 18:47:42.
