data_PCOD9277328
_publ_section_title
;
Structure prediction by ZEFSAII (Michael W. Deem and Ramdas Pophale) SiO2 
 PCOD9277328
Probable space group: C 2/C
;
_chemical_formula_sum "Si O2"
_cell_formula_units_Z 28
_cell_length_a 12.285971
_cell_length_b 6.849806
_cell_length_c 19.036178
_cell_angle_alpha 90.000000
_cell_angle_beta 35.826671
_cell_angle_gamma 90.000000
_cell_volume 937.717727
_symmetry_space_group_name_H-M "C 2/C"
_symmetry_group_IT_number 15
_symmetry_cell_setting 'monoclinic'
loop_
_space_group_symop_operation_xyz
x,y,z
-x,y,1/2-z
-x,-y,-z
x,-y,1/2+z
1/2+x,1/2+y,z
1/2-x,1/2+y,1/2-z
1/2-x,1/2-y,-z
1/2+x,1/2-y,1/2+z
loop_
_atom_site_type_symbol
_atom_site_label
_atom_site_fract_x
_atom_site_fract_y
_atom_site_fract_z
Si Si1 0.253135 0.018026 0.170063
Si Si2 0.334079 0.471581 0.138810
Si Si3 0.000000 0.366536 0.750000
Si Si4 0.839553 0.453001 0.476487
O O1 0.254193 0.256415 0.165667
O O2 0.112419 0.981632 0.307785
O O3 0.454560 0.946720 0.094375
O O4 0.221198 0.963621 0.105143
O O5 0.185884 0.642170 0.201852
O O6 0.500000 0.500000 0.000000
O O7 0.124526 0.439918 0.615674
O O8 0.750000 0.250000 0.500000
#
# Coordination Sequence:
#
# PCOD9277328 Si02
#       4
#     8   8   4   8
#     4  10  24  41  72 107 146 197 251 311 392 443
#     4  11  25  44  72 104 152 199 253 319 381 454
#     4  10  22  42  68  98 142 194 246 308 378 446
#     4  10  20  40  73  99 138 191 252 300 376 451
#
# _framework density 29.859735000000001
#
# number of rings (size 3 to 8) (size 9 to 14) (size 15 to 20)
#    0.000    1.714    2.857    0.000   12.000    0.000 
#    0.000    5.714    0.000    0.000    0.000    0.000 
#    0.000    0.000    0.000    0.000    0.000    0.000 
#
# Total GULP energy -78117.564378 kJ/mol
# GULP energy per Si atom -5579.826027 kJ/mol
# Density = 2.979177 g / cm^3
# Si number density = 29.859735 Si / 1000 Ang^3
#
#
#
# Elastic Constant Matrix: (Units=GPa)
#
#
# Indices 1 2 3 4 5 6 
#
# 1 233.0693 49.0723 58.1050 -0.0001 34.9634 0.0000
# 2 49.0723 109.3386 27.4298 -0.0002 33.3346 0.0001
# 3 58.1050 27.4298 194.1782 -0.0005 94.3190 0.0002
# 4 -0.0001 -0.0002 -0.0005 25.3441 0.0002 25.8427
# 5 34.9634 33.3346 94.3190 0.0002 98.1140 0.0000
# 6 0.0000 0.0001 0.0002 25.8427 0.0000 60.1594
#
#
#
# Elastic Compliance Matrix: (Units=1/GPa)
#
#
# Indices 1 2 3 4 5 6 
#
# 1 0.005004 -0.001959 -0.001272 0.000000 0.000105 0.000000
# 2 -0.001959 0.010991 0.000954 0.000000 -0.003953 0.000000
# 3 -0.001272 0.000954 0.010005 0.000001 -0.009488 0.000000
# 4 0.000000 0.000000 0.000001 0.070210 -0.000001 -0.030160
# 5 0.000105 -0.003953 -0.009488 -0.000001 0.020619 0.000000
# 6 0.000000 0.000000 0.000000 -0.030160 0.000000 0.029578
#
#
# Mechanical properties :
#
#
# Convention : Reuss Voigt Hill
#
# Bulk Modulus (GPa) = 46.62825 89.53336 68.08080
# Shear Modulus (GPa) = 31.62345 63.52211 47.57278
#
# Velocity S-wave (km/s) = 3.25786 4.61732 3.99583
# Velocity P-wave (km/s) = 5.45905 7.64696 6.64369
#
# Compressibility (1/GPa) = 0.02144623
#
# Stress axis : x y z
#
# Youngs Moduli (GPa) = 199.82724 90.98382 99.95429
#
# Poissons Ratio (x) = 0.17823 0.12710
# Poissons Ratio (y) = 0.39144 -0.09532
# Poissons Ratio (z) = 0.25409 -0.08677
#
# Static dielectric constant tensor:
#      x y z
#    x 2.205510 0.000000 -0.061190 
#    y 0.000000 2.691100 0.000000 
#    z -0.061190 0.000000 2.458000 
# 
# From -- ./inp_files/93086.got.cif
#   From: 2010.05.17/outbox.cif.g08.bks.cpg/sg15_47_cif.got.tgz:93086.got - 2010.06.03 18:47:42.
