data_PCOD9277160
_publ_section_title
;
Structure prediction by ZEFSAII (Michael W. Deem and Ramdas Pophale) SiO2 
 PCOD9277160
Probable space group: C 2/C
;
_chemical_formula_sum "Si O2"
_cell_formula_units_Z 40
_cell_length_a 12.975804
_cell_length_b 9.298407
_cell_length_c 20.874676
_cell_angle_alpha 90.000000
_cell_angle_beta 143.181551
_cell_angle_gamma 90.000000
_cell_volume 1509.361856
_symmetry_space_group_name_H-M "C 2/C"
_symmetry_group_IT_number 15
_symmetry_cell_setting 'monoclinic'
loop_
_space_group_symop_operation_xyz
x,y,z
-x,y,1/2-z
-x,-y,-z
x,-y,1/2+z
1/2+x,1/2+y,z
1/2-x,1/2+y,1/2-z
1/2-x,1/2-y,-z
1/2+x,1/2-y,1/2+z
loop_
_atom_site_type_symbol
_atom_site_label
_atom_site_fract_x
_atom_site_fract_y
_atom_site_fract_z
Si Si1 0.362201 0.183525 0.933178
Si Si2 0.751340 0.001347 0.921020
Si Si3 0.553398 0.128750 0.157030
Si Si4 0.500000 0.349164 0.250000
Si Si5 0.553560 0.340667 0.641686
Si Si6 0.000000 0.285737 0.250000
O O1 0.294644 0.346518 0.913698
O O2 0.190917 0.086070 0.852809
O O3 0.435097 0.199342 0.898390
O O4 0.496625 0.155951 0.055931
O O5 0.672317 0.115878 0.832474
O O6 0.589289 0.979282 0.886877
O O7 0.918244 0.057193 0.039606
O O8 0.526396 0.260211 0.195561
O O9 0.754605 0.096162 0.258298
O O10 0.490735 0.304256 0.680908
#
# Coordination Sequence:
#
# PCOD9277160 Si02
#       6
#     8   8   8   4   8   4
#     4  10  20  40  68  97 125 160 210 267 319 376
#     4  11  22  42  68  95 125 167 211 262 320 378
#     4  10  21  39  66  99 126 158 211 264 315 379
#     4   8  15  30  57  92 122 150 187 244 313 364
#     4  11  24  41  63  92 129 175 212 255 315 374
#     4  12  25  44  61  88 134 174 213 256 307 386
#
# _framework density 26.501266999999999
#
# number of rings (size 3 to 8) (size 9 to 14) (size 15 to 20)
#    0.000    1.600    0.000    8.400    0.000    1.600 
#    0.000   12.000    0.000    0.000    0.000    0.000 
#    0.000    0.000    0.000    0.000    0.000    0.000 
#
# Total GULP energy -111996.194034 kJ/mol
# GULP energy per Si atom -5599.809702 kJ/mol
# Density = 2.644095 g / cm^3
# Si number density = 26.501267 Si / 1000 Ang^3
#
#
#
# Elastic Constant Matrix: (Units=GPa)
#
#
# Indices 1 2 3 4 5 6 
#
# 1 118.3573 29.5513 53.9288 0.0000 -18.5094 0.0000
# 2 29.5513 41.4756 19.7633 0.0000 5.0060 0.0000
# 3 53.9288 19.7633 227.7210 0.0000 -0.3970 0.0000
# 4 0.0000 0.0000 0.0000 36.6021 0.0000 0.1333
# 5 -18.5094 5.0060 -0.3970 0.0000 45.0081 0.0000
# 6 0.0000 0.0000 0.0000 0.1333 0.0000 37.0339
#
#
#
# Elastic Compliance Matrix: (Units=1/GPa)
#
#
# Indices 1 2 3 4 5 6 
#
# 1 0.012572 -0.008639 -0.002217 0.000000 0.006111 0.000000
# 2 -0.008639 0.031449 -0.000696 0.000000 -0.007057 0.000000
# 3 -0.002217 -0.000696 0.004975 0.000000 -0.000790 0.000000
# 4 0.000000 0.000000 0.000000 0.027321 0.000000 -0.000098
# 5 0.006111 -0.007057 -0.000790 0.000000 0.025509 0.000000
# 6 0.000000 0.000000 0.000000 -0.000098 0.000000 0.027003
#
#
# Mechanical properties :
#
#
# Convention : Reuss Voigt Hill
#
# Bulk Modulus (GPa) = 38.62011 66.00452 52.31232
# Shear Modulus (GPa) = 31.14049 42.68287 36.91168
#
# Velocity S-wave (km/s) = 3.43163 4.01758 3.73611
# Velocity P-wave (km/s) = 5.50509 6.81773 6.19627
#
# Compressibility (1/GPa) = 0.02589324
#
# Stress axis : x y z
#
# Youngs Moduli (GPa) = 79.54392 31.79772 200.99106
#
# Poissons Ratio (x) = 0.27469 0.44557
# Poissons Ratio (y) = 0.68715 0.13986
# Poissons Ratio (z) = 0.17634 0.02213
#
# Static dielectric constant tensor:
#      x y z
#    x 2.085460 0.000000 -0.007030 
#    y 0.000000 2.249170 0.000000 
#    z -0.007030 0.000000 2.000470 
# 
# From -- ./inp_files/237386.got.cif
#   From: 2010.05.17/outbox.cif.g08.bks.cpg/sg15_119_cif.got.tgz:237386.got - 2010.06.03 18:47:42.
