data_PCOD9277507
_publ_section_title
;
Structure prediction by ZEFSAII (Michael W. Deem and Ramdas Pophale) SiO2 
 PCOD9277507
Probable space group: C 2/C
;
_chemical_formula_sum "Si O2"
_cell_formula_units_Z 48
_cell_length_a 13.164519
_cell_length_b 13.772313
_cell_length_c 10.259563
_cell_angle_alpha 90.000000
_cell_angle_beta 84.107481
_cell_angle_gamma 90.000000
_cell_volume 1850.290618
_symmetry_space_group_name_H-M "C 2/C"
_symmetry_group_IT_number 15
_symmetry_cell_setting 'monoclinic'
loop_
_space_group_symop_operation_xyz
x,y,z
-x,y,1/2-z
-x,-y,-z
x,-y,1/2+z
1/2+x,1/2+y,z
1/2-x,1/2+y,1/2-z
1/2-x,1/2-y,-z
1/2+x,1/2-y,1/2+z
loop_
_atom_site_type_symbol
_atom_site_label
_atom_site_fract_x
_atom_site_fract_y
_atom_site_fract_z
Si Si1 0.679590 0.420075 0.315423
Si Si2 0.635856 0.538961 0.553501
Si Si3 0.829620 0.338689 0.006310
Si Si4 0.885900 0.544677 0.254941
Si Si5 0.589037 0.310835 0.838665
Si Si6 0.784803 0.293331 0.635749
O O1 0.636125 0.445022 0.463811
O O2 0.793264 0.469100 0.296289
O O3 0.676126 0.304818 0.299776
O O4 0.611060 0.465044 0.208328
O O5 0.753347 0.575050 0.551058
O O6 0.585073 0.618571 0.464653
O O7 0.905271 0.298160 0.104429
O O8 0.750000 0.250000 0.000000
O O9 0.883626 0.374189 0.869995
O O10 0.859444 0.613367 0.132504
O O11 0.000000 0.502458 0.250000
O O12 0.500000 0.322784 0.750000
O O13 0.691055 0.327190 0.739846
O O14 0.750000 0.250000 0.500000
#
# Coordination Sequence:
#
# PCOD9277507 Si02
#       6
#     8   8   8   8   8   8
#     4  11  22  42  72  93 141 188 226 288 367 420
#     4  10  20  41  64  91 131 184 224 280 356 418
#     4   9  16  39  64  84 128 184 221 273 354 415
#     4  11  24  43  69 107 141 178 241 305 356 425
#     4  11  22  40  67  95 130 183 240 281 351 433
#     4  12  24  43  67 102 145 185 233 297 359 428
#
# _framework density 25.941870999999999
#
# number of rings (size 3 to 8) (size 9 to 14) (size 15 to 20)
#    0.000    1.333    6.667    2.000    2.333    0.667 
#    0.000    4.167    0.000    0.000    0.000    0.000 
#    0.000    0.000    0.000    0.000    0.000    0.000 
#
# Total GULP energy -134104.150307 kJ/mol
# GULP energy per Si atom -5587.672929 kJ/mol
# Density = 2.588283 g / cm^3
# Si number density = 25.941871 Si / 1000 Ang^3
#
#
#
# Elastic Constant Matrix: (Units=GPa)
#
#
# Indices 1 2 3 4 5 6 
#
# 1 104.4624 27.0204 26.9191 0.0000 14.6380 0.0000
# 2 27.0204 100.5453 13.7538 0.0000 13.2970 0.0000
# 3 26.9191 13.7538 110.3395 0.0000 29.5196 0.0000
# 4 0.0000 0.0000 0.0000 52.6680 0.0000 10.4175
# 5 14.6380 13.2970 29.5196 0.0000 31.6362 0.0000
# 6 0.0000 0.0000 0.0000 10.4175 0.0000 18.5828
#
#
#
# Elastic Compliance Matrix: (Units=1/GPa)
#
#
# Indices 1 2 3 4 5 6 
#
# 1 0.010980 -0.002389 -0.001720 0.000000 -0.002472 0.000000
# 2 -0.002389 0.011053 0.000203 0.000000 -0.003730 0.000000
# 3 -0.001720 0.000203 0.012350 0.000000 -0.010813 0.000000
# 4 0.000000 0.000000 0.000000 0.021355 0.000000 -0.011971
# 5 -0.002472 -0.003730 -0.010813 0.000000 0.044411 0.000000
# 6 0.000000 0.000000 0.000000 -0.011971 0.000000 0.060524
#
#
# Mechanical properties :
#
#
# Convention : Reuss Voigt Hill
#
# Bulk Modulus (GPa) = 37.63301 50.08152 43.85726
# Shear Modulus (GPa) = 28.19410 37.08766 32.64088
#
# Velocity S-wave (km/s) = 3.30027 3.78517 3.55100
# Velocity P-wave (km/s) = 5.39078 6.20085 5.80995
#
# Compressibility (1/GPa) = 0.02657242
#
# Stress axis : x y z
#
# Youngs Moduli (GPa) = 91.07295 90.47142 80.97054
#
# Poissons Ratio (x) = 0.21611 0.13925
# Poissons Ratio (y) = 0.21754 -0.01642
# Poissons Ratio (z) = 0.15662 -0.01835
#
# Static dielectric constant tensor:
#      x y z
#    x 2.110730 0.000000 0.009920 
#    y 0.000000 2.110790 0.000000 
#    z 0.009920 0.000000 2.175300 
# 
# From -- ./inp_files/96455.got.cif
#   From: 2010.05.17/outbox.cif.g08.bks.cpg/sg15_49_cif.got.tgz:96455.got - 2010.06.03 18:47:42.
