data_PCOD9277546
_publ_section_title
;
Structure prediction by ZEFSAII (Michael W. Deem and Ramdas Pophale) SiO2 
 PCOD9277546
Probable space group: C 2/C
;
_chemical_formula_sum "Si O2"
_cell_formula_units_Z 56
_cell_length_a 9.804363
_cell_length_b 12.010931
_cell_length_c 24.567507
_cell_angle_alpha 90.000000
_cell_angle_beta 99.143467
_cell_angle_gamma 90.000000
_cell_volume 2856.297482
_symmetry_space_group_name_H-M "C 2/C"
_symmetry_group_IT_number 15
_symmetry_cell_setting 'monoclinic'
loop_
_space_group_symop_operation_xyz
x,y,z
-x,y,1/2-z
-x,-y,-z
x,-y,1/2+z
1/2+x,1/2+y,z
1/2-x,1/2+y,1/2-z
1/2-x,1/2-y,-z
1/2+x,1/2-y,1/2+z
loop_
_atom_site_type_symbol
_atom_site_label
_atom_site_fract_x
_atom_site_fract_y
_atom_site_fract_z
Si Si1 0.000000 0.707692 0.750000
Si Si2 0.634000 0.726255 0.948005
Si Si3 0.186143 0.976457 0.382324
Si Si4 0.274648 0.606275 0.734233
Si Si5 0.640669 0.899198 0.859511
Si Si6 0.083947 0.080612 0.186651
Si Si7 0.000000 0.702327 0.250000
Si Si8 0.537617 0.929638 0.555424
O O1 0.865433 0.628373 0.740670
O O2 0.952748 0.795909 0.793902
O O3 0.632934 0.599901 0.929089
O O4 0.671062 0.785326 0.893568
O O5 0.999891 0.298973 0.955928
O O6 0.750000 0.750000 0.000000
O O7 0.245403 0.914364 0.331609
O O8 0.308356 0.051283 0.414159
O O9 0.052546 0.037576 0.350909
O O10 0.359307 0.499461 0.761575
O O11 0.370124 0.715269 0.749406
O O12 0.534558 0.872167 0.804300
O O13 0.787495 0.931579 0.845893
O O14 0.564230 0.968325 0.901657
O O15 0.500000 0.000000 0.500000
#
# Coordination Sequence:
#
# PCOD9277546 Si02
#       8
#     4   8   8   8   8   8   4   8
#     4  12  25  39  62  92 146 172 217 267 306 404
#     4  10  20  41  65  89 118 165 223 274 321 390
#     4  12  21  40  65  88 129 172 214 267 334 384
#     4  12  24  39  62  97 133 183 211 259 334 401
#     4  10  24  38  64  93 129 170 214 275 329 396
#     4  12  24  41  57 100 141 168 215 270 327 404
#     4  12  19  41  62  92 132 168 219 251 334 400
#     4  10  23  41  67  93 115 168 232 276 327 392
#
# _framework density 19.605802000000001
#
# number of rings (size 3 to 8) (size 9 to 14) (size 15 to 20)
#    0.857    0.000    7.143    0.000    6.000    0.000 
#    0.000    2.857    0.000    1.714    0.000    0.000 
#    0.000    0.000    0.000    0.000    0.000    0.000 
#
# Total GULP energy -155890.380632 kJ/mol
# GULP energy per Si atom -5567.513594 kJ/mol
# Density = 1.956118 g / cm^3
# Si number density = 19.605802 Si / 1000 Ang^3
#
#
#
# Elastic Constant Matrix: (Units=GPa)
#
#
# Indices 1 2 3 4 5 6 
#
# 1 112.8726 25.5722 31.7942 0.0000 20.8973 0.0000
# 2 25.5722 46.9303 13.1194 0.0000 18.6118 0.0000
# 3 31.7942 13.1194 108.4526 0.0000 23.9741 0.0000
# 4 0.0000 0.0000 0.0000 -24.3412 0.0000 27.6021
# 5 20.8973 18.6118 23.9741 0.0000 33.9364 0.0000
# 6 0.0000 0.0000 0.0000 27.6021 0.0000 16.7041
#
#
#
# Elastic Compliance Matrix: (Units=1/GPa)
#
#
# Indices 1 2 3 4 5 6 
#
# 1 0.010940 -0.004205 -0.002037 0.000000 -0.002991 0.000000
# 2 -0.004205 0.028847 0.000792 0.000000 -0.013791 0.000000
# 3 -0.002037 0.000792 0.011306 0.000000 -0.007167 0.000000
# 4 0.000000 0.000000 0.000000 -0.014296 0.000000 0.023622
# 5 -0.002991 -0.013791 -0.007167 0.000000 0.043935 0.000000
# 6 0.000000 0.000000 0.000000 0.023622 0.000000 0.020832
#
#
# Mechanical properties :
#
#
# Convention : Reuss Voigt Hill
#
# Bulk Modulus (GPa) = 24.88072 45.46969 35.17520
# Shear Modulus (GPa) = 39.72542 18.44451 29.08496
#
# Velocity S-wave (km/s) = 4.50622 3.07052 3.85579
# Velocity P-wave (km/s) = 6.30815 5.98441 6.14841
#
# Compressibility (1/GPa) = 0.04019177
#
# Stress axis : x y z
#
# Youngs Moduli (GPa) = 91.40824 34.66507 88.44536
#
# Poissons Ratio (x) = 0.14578 0.18019
# Poissons Ratio (y) = 0.38441 -0.07002
# Poissons Ratio (z) = 0.18622 -0.02744
#
# Static dielectric constant tensor:
#      x y z
#    x 1.713280 0.000000 -0.028480 
#    y 0.000000 1.753950 0.000000 
#    z -0.028480 0.000000 1.672500 
# 
# From -- ./inp_files/288478.got.cif
#   From: 2010.05.17/outbox.cif.g08.bks.cpg/sg15_145_cif.got.tgz:288478.got - 2010.06.03 18:47:42.
