data_PCOD9277618
_publ_section_title
;
Structure prediction by ZEFSAII (Michael W. Deem and Ramdas Pophale) SiO2 
 PCOD9277618
Probable space group: C 2/C
;
_chemical_formula_sum "Si O2"
_cell_formula_units_Z 64
_cell_length_a 8.787765
_cell_length_b 19.792941
_cell_length_c 19.385875
_cell_angle_alpha 90.000000
_cell_angle_beta 80.127036
_cell_angle_gamma 90.000000
_cell_volume 3321.959393
_symmetry_space_group_name_H-M "C 2/C"
_symmetry_group_IT_number 15
_symmetry_cell_setting 'monoclinic'
loop_
_space_group_symop_operation_xyz
x,y,z
-x,y,1/2-z
-x,-y,-z
x,-y,1/2+z
1/2+x,1/2+y,z
1/2-x,1/2+y,1/2-z
1/2-x,1/2-y,-z
1/2+x,1/2-y,1/2+z
loop_
_atom_site_type_symbol
_atom_site_label
_atom_site_fract_x
_atom_site_fract_y
_atom_site_fract_z
Si Si1 0.836831 0.797311 0.800592
Si Si2 0.595395 0.543505 0.437242
Si Si3 0.363553 0.924091 0.705999
Si Si4 0.865319 0.357814 0.313928
Si Si5 0.091154 0.822909 0.546128
Si Si6 0.371027 0.472668 0.207150
Si Si7 0.951465 0.556686 0.449066
Si Si8 0.429582 0.831508 0.464468
O O1 0.709320 0.849174 0.783827
O O2 0.802762 0.717319 0.800437
O O3 0.860927 0.815530 0.878253
O O4 0.000000 0.808066 0.750000
O O5 0.500000 0.500000 0.500000
O O6 0.536117 0.619871 0.449558
O O7 0.564142 0.515129 0.362858
O O8 0.778658 0.541982 0.436592
O O9 0.500000 0.930192 0.750000
O O10 0.433371 0.939075 0.625083
O O11 0.234319 0.977230 0.739176
O O12 0.732468 0.413145 0.317102
O O13 0.942258 0.352806 0.383660
O O14 0.000000 0.375321 0.250000
O O15 0.247711 0.842651 0.494520
O O16 0.040335 0.748058 0.527955
O O17 0.500000 0.446408 0.250000
O O18 0.000000 0.500000 0.500000
O O19 0.968448 0.625602 0.491146
#
# Coordination Sequence:
#
# PCOD9277618 Si02
#       8
#     8   8   8   8   8   8   8   8
#     4  10  21  40  67  95 125 167 211 257 320 381
#     4  12  26  42  64  97 129 167 218 267 314 380
#     4  12  24  42  65  95 129 169 216 264 317 387
#     4  10  23  42  66  96 129 167 213 262 315 387
#     4  10  20  41  66  92 129 164 209 258 316 384
#     4  12  26  41  66  93 130 171 211 265 322 376
#     4  12  26  42  65  94 132 170 213 268 321 378
#     4  10  22  41  69  94 123 172 208 257 325 382
#
# _framework density 19.265739
#
# number of rings (size 3 to 8) (size 9 to 14) (size 15 to 20)
#    0.000    1.000    2.500    4.500    3.500    1.000 
#    0.000    0.000    0.000    0.000    0.000    0.000 
#    0.000    0.000    0.000    0.000    0.000    0.000 
#
# Total GULP energy -178888.766967 kJ/mol
# GULP energy per Si atom -5590.273968 kJ/mol
# Density = 1.922189 g / cm^3
# Si number density = 19.265739 Si / 1000 Ang^3
#
#
#
# Elastic Constant Matrix: (Units=GPa)
#
#
# Indices 1 2 3 4 5 6 
#
# 1 41.1015 29.8780 26.3012 0.0000 -6.5062 0.0000
# 2 29.8780 75.2945 16.0731 0.0000 -1.2431 0.0000
# 3 26.3012 16.0731 108.4457 0.0000 -21.5676 0.0000
# 4 0.0000 0.0000 0.0000 98.5273 0.0000 7.3574
# 5 -6.5062 -1.2431 -21.5676 0.0000 34.8663 0.0000
# 6 0.0000 0.0000 0.0000 7.3574 0.0000 31.5350
#
#
#
# Elastic Compliance Matrix: (Units=1/GPa)
#
#
# Indices 1 2 3 4 5 6 
#
# 1 0.039466 -0.014131 -0.006970 0.000000 0.002549 0.000000
# 2 -0.014131 0.018798 0.000285 0.000000 -0.001790 0.000000
# 3 -0.006970 0.000285 0.012102 0.000000 0.006195 0.000000
# 4 0.000000 0.000000 0.000000 0.010329 0.000000 -0.002410
# 5 0.002549 -0.001790 0.006195 0.000000 0.032925 0.000000
# 6 0.000000 0.000000 0.000000 -0.002410 0.000000 0.032273
#
#
# Mechanical properties :
#
#
# Convention : Reuss Voigt Hill
#
# Bulk Modulus (GPa) = 34.80269 41.03847 37.92058
# Shear Modulus (GPa) = 25.36742 43.15834 34.26288
#
# Velocity S-wave (km/s) = 3.63259 4.73817 4.22173
# Velocity P-wave (km/s) = 5.97478 7.16109 6.59466
#
# Compressibility (1/GPa) = 0.02873341
#
# Stress axis : x y z
#
# Youngs Moduli (GPa) = 25.33829 53.19694 82.63373
#
# Poissons Ratio (x) = 0.75171 0.57599
# Poissons Ratio (y) = 0.35805 -0.02354
# Poissons Ratio (z) = 0.17662 -0.01516
#
# Static dielectric constant tensor:
#      x y z
#    x 1.641840 0.000000 -0.007220 
#    y 0.000000 1.709170 0.000000 
#    z -0.007220 0.000000 1.632940 
# 
# From -- ./inp_files/192178.got.cif
#   From: 2010.05.17/outbox.cif.g08.bks.cpg/sg15_97_cif.got.tgz:192178.got - 2010.06.03 18:47:42.
