data_PCOD9277771
_publ_section_title
;
Structure prediction by ZEFSAII (Michael W. Deem and Ramdas Pophale) SiO2 
 PCOD9277771
Probable space group: C 2/C
;
_chemical_formula_sum "Si O2"
_cell_formula_units_Z 52
_cell_length_a 18.258547
_cell_length_b 15.645493
_cell_length_c 14.928442
_cell_angle_alpha 90.000000
_cell_angle_beta 34.249728
_cell_angle_gamma 90.000000
_cell_volume 2400.075009
_symmetry_space_group_name_H-M "C 2/C"
_symmetry_group_IT_number 15
_symmetry_cell_setting 'monoclinic'
loop_
_space_group_symop_operation_xyz
x,y,z
-x,y,1/2-z
-x,-y,-z
x,-y,1/2+z
1/2+x,1/2+y,z
1/2-x,1/2+y,1/2-z
1/2-x,1/2-y,-z
1/2+x,1/2-y,1/2+z
loop_
_atom_site_type_symbol
_atom_site_label
_atom_site_fract_x
_atom_site_fract_y
_atom_site_fract_z
Si Si1 0.247005 0.619592 0.433494
Si Si2 0.378796 0.500505 0.553164
Si Si3 0.753537 0.826674 0.730330
Si Si4 0.659551 0.882953 0.216107
Si Si5 0.500000 0.536017 0.250000
Si Si6 0.964466 0.303605 0.997510
Si Si7 0.545747 0.031384 0.108225
O O1 0.241944 0.676970 0.350386
O O2 0.185308 0.650241 0.589729
O O3 0.393903 0.594045 0.307556
O O4 0.168543 0.531525 0.492783
O O5 0.500000 0.500000 0.500000
O O6 0.282176 0.425450 0.680592
O O7 0.294731 0.588182 0.627193
O O8 0.430514 0.484557 0.399891
O O9 0.872513 0.774828 0.567583
O O10 0.617370 0.792957 0.830701
O O11 0.572154 0.820359 0.362213
O O12 0.572589 0.968947 0.298909
O O13 0.928612 0.391513 0.984148
O O14 0.500000 0.067601 0.250000
#
# Coordination Sequence:
#
# PCOD9277771 Si02
#       7
#     8   8   8   8   4   8   8
#     4  10  21  39  66  96 122 161 211 272 321 379
#     4  11  22  40  67  95 126 167 215 274 320 383
#     4  12  26  42  61  93 138 170 212 259 334 390
#     4  10  21  40  70  93 120 162 224 269 316 377
#     4  10  22  36  66 100 122 154 220 270 326 370
#     4  12  26  41  62  96 131 175 212 262 328 394
#     4  10  20  41  69  90 117 159 221 270 312 376
#
# _framework density 21.665990000000001
#
# number of rings (size 3 to 8) (size 9 to 14) (size 15 to 20)
#    0.000    1.231    4.615    1.385    2.154    0.615 
#    1.385    0.769    0.000    0.000    0.000    0.000 
#    0.000    0.000    0.000    0.000    0.000    0.000 
#
# Total GULP energy -145242.300090 kJ/mol
# GULP energy per Si atom -5586.242311 kJ/mol
# Density = 2.161668 g / cm^3
# Si number density = 21.665990 Si / 1000 Ang^3
#
#
#
# Elastic Constant Matrix: (Units=GPa)
#
#
# Indices 1 2 3 4 5 6 
#
# 1 56.4872 -3.8923 22.1114 0.0001 -27.1653 0.0000
# 2 -3.8923 18.7801 10.2267 0.0001 -3.7673 -0.0001
# 3 22.1114 10.2267 93.7770 0.0002 -15.3046 -0.0001
# 4 0.0001 0.0001 0.0002 34.2944 -0.0001 -4.5056
# 5 -27.1653 -3.7673 -15.3046 -0.0001 50.8268 0.0001
# 6 0.0000 -0.0001 -0.0001 -4.5056 0.0001 7.4832
#
#
#
# Elastic Compliance Matrix: (Units=1/GPa)
#
#
# Indices 1 2 3 4 5 6 
#
# 1 0.027220 0.011348 -0.005410 0.000000 0.013760 0.000000
# 2 0.011348 0.061634 -0.008058 0.000000 0.008207 0.000000
# 3 -0.005410 -0.008058 0.012882 0.000000 0.000390 0.000000
# 4 0.000000 0.000000 0.000000 0.031664 0.000000 0.019065
# 5 0.013760 0.008207 0.000390 0.000000 0.027755 0.000000
# 6 0.000000 0.000000 0.000000 0.019065 0.000000 0.145112
#
#
# Mechanical properties :
#
#
# Convention : Reuss Voigt Hill
#
# Bulk Modulus (GPa) = 10.25674 25.10400 17.68037
# Shear Modulus (GPa) = 14.57704 27.89411 21.23558
#
# Velocity S-wave (km/s) = 2.59667 3.59201 3.13411
# Velocity P-wave (km/s) = 3.70602 5.36800 4.61248
#
# Compressibility (1/GPa) = 0.09749686
#
# Stress axis : x y z
#
# Youngs Moduli (GPa) = 36.73723 16.22474 77.63004
#
# Poissons Ratio (x) = -0.18412 0.41998
# Poissons Ratio (y) = -0.41690 0.62552
# Poissons Ratio (z) = 0.19875 0.13074
#
# Static dielectric constant tensor:
#      x y z
#    x 1.838630 0.000000 -0.002460 
#    y 0.000000 1.781360 0.000000 
#    z -0.002460 0.000000 1.799670 
# 
# From -- ./inp_files/215568.got.cif
#   From: 2010.05.17/outbox.cif.g08.bks.cpg/sg15_108_cif.got.tgz:215568.got - 2010.06.03 18:47:42.
