data_PCOD9277046
_publ_section_title
;
Structure prediction by ZEFSAII (Michael W. Deem and Ramdas Pophale) SiO2 
 PCOD9277046
Probable space group: C 2/C
;
_chemical_formula_sum "Si O2"
_cell_formula_units_Z 40
_cell_length_a 14.151534
_cell_length_b 14.158033
_cell_length_c 18.965027
_cell_angle_alpha 90.000000
_cell_angle_beta 150.455707
_cell_angle_gamma 90.000000
_cell_volume 1873.663530
_symmetry_space_group_name_H-M "C 2/C"
_symmetry_group_IT_number 15
_symmetry_cell_setting 'monoclinic'
loop_
_space_group_symop_operation_xyz
x,y,z
-x,y,1/2-z
-x,-y,-z
x,-y,1/2+z
1/2+x,1/2+y,z
1/2-x,1/2+y,1/2-z
1/2-x,1/2-y,-z
1/2+x,1/2-y,1/2+z
loop_
_atom_site_type_symbol
_atom_site_label
_atom_site_fract_x
_atom_site_fract_y
_atom_site_fract_z
Si Si1 0.799971 0.572416 0.163494
Si Si2 0.284036 0.890148 0.079308
Si Si3 0.728851 0.682359 0.394003
Si Si4 0.060266 0.583403 0.090204
Si Si5 0.775885 0.226544 0.597931
O O1 0.695466 0.484787 0.056466
O O2 0.848784 0.552724 0.276386
O O3 0.719872 0.678379 0.104464
O O4 0.000000 0.582121 0.250000
O O5 0.500000 0.888938 0.250000
O O6 0.195439 0.788914 0.043103
O O7 0.292863 0.885486 0.000202
O O8 0.500000 0.684726 0.250000
O O9 0.793800 0.646302 0.360638
O O10 0.000000 0.500000 0.000000
O O11 0.869063 0.643600 0.979022
O O12 0.750000 0.250000 0.500000
O O13 0.000000 0.201545 0.750000
#
# Coordination Sequence:
#
# PCOD9277046 Si02
#       5
#     8   8   8   8   8
#     4  10  20  40  67  94 136 176 228 279 349 405
#     4   9  19  41  67  89 134 176 214 284 349 402
#     4  10  23  42  67  97 134 173 230 285 344 412
#     4  12  25  42  69 101 137 184 233 285 347 419
#     4  11  23  46  71 100 140 186 228 292 349 418
#
# _framework density 21.348549999999999
#
# number of rings (size 3 to 8) (size 9 to 14) (size 15 to 20)
#    0.000    1.600    4.000    2.400    0.000    7.200 
#    0.000    2.000    0.000    0.000    0.000    0.000 
#    0.000    0.000    0.000    0.000    0.000    0.000 
#
# Total GULP energy -111667.523703 kJ/mol
# GULP energy per Si atom -5583.376185 kJ/mol
# Density = 2.129996 g / cm^3
# Si number density = 21.348550 Si / 1000 Ang^3
#
#
#
# Elastic Constant Matrix: (Units=GPa)
#
#
# Indices 1 2 3 4 5 6 
#
# 1 114.2005 38.4662 30.4428 -0.0056 -16.6702 -0.0031
# 2 38.4662 123.5456 18.1065 -0.0076 -7.6598 -0.0048
# 3 30.4428 18.1065 79.7597 -0.0106 -15.5656 -0.0076
# 4 -0.0056 -0.0076 -0.0106 33.0889 -0.0023 -9.1167
# 5 -16.6702 -7.6598 -15.5656 -0.0023 42.8118 -0.0014
# 6 -0.0031 -0.0048 -0.0076 -9.1167 -0.0014 36.9224
#
#
#
# Elastic Compliance Matrix: (Units=1/GPa)
#
#
# Indices 1 2 3 4 5 6 
#
# 1 0.010881 -0.002783 -0.003005 0.000000 0.002647 0.000000
# 2 -0.002783 0.009115 -0.000969 0.000002 0.000195 0.000001
# 3 -0.003005 -0.000969 0.014684 0.000005 0.003996 0.000004
# 4 0.000000 0.000002 0.000005 0.032428 0.000004 0.008007
# 5 0.002647 0.000195 0.003996 0.000004 0.025876 0.000003
# 6 0.000000 0.000001 0.000004 0.008007 0.000003 0.029061
#
#
# Mechanical properties :
#
#
# Convention : Reuss Voigt Hill
#
# Bulk Modulus (GPa) = 47.24498 54.61519 50.93009
# Shear Modulus (GPa) = 35.05945 37.93064 36.49504
#
# Velocity S-wave (km/s) = 4.05685 4.21970 4.13908
# Velocity P-wave (km/s) = 6.64247 7.02704 6.83746
#
# Compressibility (1/GPa) = 0.02116627
#
# Stress axis : x y z
#
# Youngs Moduli (GPa) = 91.89970 109.71075 68.10021
#
# Poissons Ratio (x) = 0.30538 0.20463
# Poissons Ratio (y) = 0.25580 0.06597
# Poissons Ratio (z) = 0.27615 0.10629
#
# Static dielectric constant tensor:
#      x y z
#    x 1.757010 0.000000 0.007150 
#    y 0.000000 1.887660 0.000000 
#    z 0.007150 0.000000 1.755160 
# 
# From -- ./inp_files/205610.got.cif
#   From: 2010.05.17/outbox.cif.g08.bks.cpg/sg15_103_cif.got.tgz:205610.got - 2010.06.03 18:47:42.
