data_PCOD9277418
_publ_section_title
;
Structure prediction by ZEFSAII (Michael W. Deem and Ramdas Pophale) SiO2 
 PCOD9277418
Probable space group: C 2/C
;
_chemical_formula_sum "Si O2"
_cell_formula_units_Z 64
_cell_length_a 17.950295
_cell_length_b 13.594094
_cell_length_c 13.861978
_cell_angle_alpha 90.000000
_cell_angle_beta 124.294570
_cell_angle_gamma 90.000000
_cell_volume 2794.517692
_symmetry_space_group_name_H-M "C 2/C"
_symmetry_group_IT_number 15
_symmetry_cell_setting 'monoclinic'
loop_
_space_group_symop_operation_xyz
x,y,z
-x,y,1/2-z
-x,-y,-z
x,-y,1/2+z
1/2+x,1/2+y,z
1/2-x,1/2+y,1/2-z
1/2-x,1/2-y,-z
1/2+x,1/2-y,1/2+z
loop_
_atom_site_type_symbol
_atom_site_label
_atom_site_fract_x
_atom_site_fract_y
_atom_site_fract_z
Si Si1 0.583973 0.149378 0.760174
Si Si2 0.288149 0.451442 0.810645
Si Si3 0.909071 0.222388 0.419461
Si Si4 0.106941 0.642982 0.207208
Si Si5 0.161723 0.183985 0.432515
Si Si6 0.896536 0.149556 0.891528
Si Si7 0.100981 0.629736 0.434433
Si Si8 0.265687 0.985221 0.030559
O O1 0.500000 0.095447 0.750000
O O2 0.571876 0.187496 0.642277
O O3 0.593193 0.251627 0.824270
O O4 0.670671 0.084007 0.853174
O O5 0.341829 0.353791 0.820834
O O6 0.181738 0.429355 0.715985
O O7 0.342539 0.550758 0.821126
O O8 0.288302 0.452618 0.929394
O O9 0.867945 0.276684 0.482073
O O10 0.994451 0.158075 0.519688
O O11 0.127633 0.753195 0.186429
O O12 0.107815 0.644769 0.324175
O O13 0.003066 0.614293 0.109906
O O14 0.250000 0.250000 0.500000
O O15 0.131278 0.167523 0.518723
O O16 0.194584 0.079131 0.419762
O O17 0.169097 0.539980 0.495034
#
# Coordination Sequence:
#
# PCOD9277418 Si02
#       8
#     8   8   8   8   8   8   8   8
#     4  11  22  39  63  90 125 167 207 260 316 374
#     4  10  22  37  64  92 125 163 210 256 307 378
#     4  11  23  40  64  89 128 171 204 254 317 377
#     4   9  20  37  67  91 125 162 210 263 305 368
#     4   9  19  37  61  84 123 163 204 257 311 363
#     4  10  20  41  62  92 126 169 206 257 319 365
#     4   9  20  43  64  91 124 163 206 261 316 363
#     4   9  21  39  62  89 122 163 208 266 307 372
#
# _framework density 22.901985
#
# number of rings (size 3 to 8) (size 9 to 14) (size 15 to 20)
#    0.000    2.250    1.250    0.375    8.750    2.000 
#    2.250    4.375    2.750    0.000    0.000    0.000 
#    0.000    0.000    0.000    0.000    0.000    0.000 
#
# Total GULP energy -178335.197393 kJ/mol
# GULP energy per Si atom -5572.974919 kJ/mol
# Density = 2.284986 g / cm^3
# Si number density = 22.901985 Si / 1000 Ang^3
#
#
#
# Elastic Constant Matrix: (Units=GPa)
#
#
# Indices 1 2 3 4 5 6 
#
# 1 79.9073 58.3295 19.6240 0.0000 7.4330 0.0000
# 2 58.3295 89.0262 11.3937 0.0000 -1.7051 0.0000
# 3 19.6240 11.3937 47.4932 0.0000 -6.0656 0.0000
# 4 0.0000 0.0000 0.0000 33.1876 0.0000 -0.1918
# 5 7.4330 -1.7051 -6.0656 0.0000 21.8233 0.0000
# 6 0.0000 0.0000 0.0000 -0.1918 0.0000 47.1281
#
#
#
# Elastic Compliance Matrix: (Units=1/GPa)
#
#
# Indices 1 2 3 4 5 6 
#
# 1 0.029729 -0.018515 -0.009663 0.000000 -0.014258 0.000000
# 2 -0.018515 0.023119 0.003255 0.000000 0.009017 0.000000
# 3 -0.009663 0.003255 0.025630 0.000000 0.010669 0.000000
# 4 0.000000 0.000000 0.000000 0.030132 0.000000 0.000123
# 5 -0.014258 0.009017 0.010669 0.000000 0.054349 0.000000
# 6 0.000000 0.000000 0.000000 0.000123 0.000000 0.021219
#
#
# Mechanical properties :
#
#
# Convention : Reuss Voigt Hill
#
# Bulk Modulus (GPa) = 34.92388 43.90236 39.41312
# Shear Modulus (GPa) = 20.52813 28.89977 24.71395
#
# Velocity S-wave (km/s) = 2.99715 3.55616 3.28856
# Velocity P-wave (km/s) = 5.22108 6.00608 5.62728
#
# Compressibility (1/GPa) = 0.02863370
#
# Stress axis : x y z
#
# Youngs Moduli (GPa) = 33.63730 43.25371 39.01671
#
# Poissons Ratio (x) = 0.80083 0.37702
# Poissons Ratio (y) = 0.62278 -0.12702
# Poissons Ratio (z) = 0.32504 -0.14081
#
# Static dielectric constant tensor:
#      x y z
#    x 1.886570 0.000000 0.033670 
#    y 0.000000 1.916820 0.000000 
#    z 0.033670 0.000000 1.852090 
# 
# From -- ./inp_files/162299.got.cif
#   From: 2010.05.17/outbox.cif.g08.bks.cpg/sg15_82_cif.got.tgz:162299.got - 2010.06.03 18:47:42.
