data_PCOD9277186
_publ_section_title
;
Structure prediction by ZEFSAII (Michael W. Deem and Ramdas Pophale) SiO2 
 PCOD9277186
Probable space group: C 2/C
;
_chemical_formula_sum "Si O2"
_cell_formula_units_Z 64
_cell_length_a 23.589892
_cell_length_b 6.995087
_cell_length_c 24.192176
_cell_angle_alpha 90.000000
_cell_angle_beta 141.018446
_cell_angle_gamma 90.000000
_cell_volume 2511.268170
_symmetry_space_group_name_H-M "C 2/C"
_symmetry_group_IT_number 15
_symmetry_cell_setting 'monoclinic'
loop_
_space_group_symop_operation_xyz
x,y,z
-x,y,1/2-z
-x,-y,-z
x,-y,1/2+z
1/2+x,1/2+y,z
1/2-x,1/2+y,1/2-z
1/2-x,1/2-y,-z
1/2+x,1/2-y,1/2+z
loop_
_atom_site_type_symbol
_atom_site_label
_atom_site_fract_x
_atom_site_fract_y
_atom_site_fract_z
Si Si1 0.052045 0.185764 0.113490
Si Si2 0.691733 0.216526 0.546341
Si Si3 0.168455 0.651667 0.268358
Si Si4 0.118176 0.364325 0.550590
Si Si5 0.294901 0.577517 0.797153
Si Si6 0.553477 0.723154 0.240088
Si Si7 0.488101 0.643082 0.635525
Si Si8 0.247026 0.828668 0.937101
O O1 0.052236 0.280905 0.174757
O O2 0.144112 0.114468 0.155879
O O3 0.007231 0.977383 0.093463
O O4 0.986325 0.313577 0.027684
O O5 0.763454 0.358932 0.628292
O O6 0.613784 0.292637 0.447839
O O7 0.749434 0.057911 0.558340
O O8 0.640447 0.085042 0.554321
O O9 0.200282 0.487266 0.250557
O O10 0.196620 0.850951 0.258981
O O11 0.063296 0.691254 0.199114
O O12 0.165691 0.250105 0.636057
O O13 0.164185 0.271436 0.530304
O O14 0.500000 0.821237 0.250000
O O15 0.509170 0.512699 0.198455
O O16 0.656856 0.721818 0.336231
O O17 0.250000 0.750000 0.000000
#
# Coordination Sequence:
#
# PCOD9277186 Si02
#       8
#     8   8   8   8   8   8   8   8
#     4   9  20  38  61  87 125 165 214 249 323 381
#     4  10  21  40  64  90 131 159 215 264 312 387
#     4  11  22  41  60  94 131 169 214 262 318 383
#     4  10  21  37  62  90 123 164 212 257 318 380
#     4  11  22  36  63  87 129 174 210 259 321 372
#     4  10  20  40  69  84 123 166 206 255 326 380
#     4   9  20  40  63  87 127 164 207 262 320 375
#     4  10  21  40  66  93 124 163 214 269 324 378
#
# _framework density 25.485130999999999
#
# number of rings (size 3 to 8) (size 9 to 14) (size 15 to 20)
#    1.500    0.500    1.250    2.625    1.750    2.000 
#    0.000    5.625    0.000    0.000    0.000    0.000 
#    0.000    0.000    0.000    0.000    0.000    0.000 
#
# Total GULP energy -178667.787133 kJ/mol
# GULP energy per Si atom -5583.368348 kJ/mol
# Density = 2.542713 g / cm^3
# Si number density = 25.485131 Si / 1000 Ang^3
#
#
#
# Elastic Constant Matrix: (Units=GPa)
#
#
# Indices 1 2 3 4 5 6 
#
# 1 87.9048 13.2731 23.1071 0.0002 1.5086 0.0007
# 2 13.2731 68.9126 24.9483 0.0004 -1.6393 0.0017
# 3 23.1071 24.9483 132.2761 -0.0004 3.9327 -0.0008
# 4 0.0002 0.0004 -0.0004 7.9128 0.0000 -9.5622
# 5 1.5086 -1.6393 3.9327 0.0000 29.0347 0.0006
# 6 0.0007 0.0017 -0.0008 -9.5622 0.0006 15.7980
#
#
#
# Elastic Compliance Matrix: (Units=1/GPa)
#
#
# Indices 1 2 3 4 5 6 
#
# 1 0.012109 -0.001699 -0.001780 -0.000003 -0.000484 -0.000002
# 2 -0.001699 0.015861 -0.002735 -0.000012 0.001354 -0.000009
# 3 -0.001780 -0.002735 0.008423 0.000006 -0.001203 0.000005
# 4 -0.000003 -0.000012 0.000006 0.470598 -0.000007 0.284844
# 5 -0.000484 0.001354 -0.001203 -0.000007 0.034706 -0.000006
# 6 -0.000002 -0.000009 0.000005 0.284844 -0.000006 0.235710
#
#
# Mechanical properties :
#
#
# Convention : Reuss Voigt Hill
#
# Bulk Modulus (GPa) = 41.73085 45.75007 43.74046
# Shear Modulus (GPa) = 6.26705 25.73344 16.00025
#
# Velocity S-wave (km/s) = 1.56985 3.18109 2.50837
# Velocity P-wave (km/s) = 4.43802 5.61098 5.05861
#
# Compressibility (1/GPa) = 0.02396309
#
# Stress axis : x y z
#
# Youngs Moduli (GPa) = 82.58446 63.04879 118.72905
#
# Poissons Ratio (x) = 0.10713 0.21138
# Poissons Ratio (y) = 0.14033 0.32471
# Poissons Ratio (z) = 0.14703 0.17243
#
# Static dielectric constant tensor:
#      x y z
#    x 1.988500 0.000000 -0.011200 
#    y 0.000000 2.092000 0.000000 
#    z -0.011200 0.000000 2.056890 
# 
# From -- ./inp_files/320131.got.cif
#   From: 2010.05.17/outbox.cif.g08.bks.cpg/sg15_161_cif.got.tgz:320131.got - 2010.06.03 18:47:42.
