data_PCOD9277930
_publ_section_title
;
Structure prediction by ZEFSAII (Michael W. Deem and Ramdas Pophale) SiO2 
 PCOD9277930
Probable space group: C 2/C
;
_chemical_formula_sum "Si O2"
_cell_formula_units_Z 56
_cell_length_a 13.268503
_cell_length_b 27.958994
_cell_length_c 8.771243
_cell_angle_alpha 90.000000
_cell_angle_beta 123.085506
_cell_angle_gamma 90.000000
_cell_volume 2726.304926
_symmetry_space_group_name_H-M "C 2/C"
_symmetry_group_IT_number 15
_symmetry_cell_setting 'monoclinic'
loop_
_space_group_symop_operation_xyz
x,y,z
-x,y,1/2-z
-x,-y,-z
x,-y,1/2+z
1/2+x,1/2+y,z
1/2-x,1/2+y,1/2-z
1/2-x,1/2-y,-z
1/2+x,1/2-y,1/2+z
loop_
_atom_site_type_symbol
_atom_site_label
_atom_site_fract_x
_atom_site_fract_y
_atom_site_fract_z
Si Si1 0.436968 0.663727 0.536374
Si Si2 0.405338 0.997812 0.786399
Si Si3 0.951412 0.340833 0.872032
Si Si4 0.165608 0.600738 0.699722
Si Si5 0.253690 0.085852 0.081338
Si Si6 0.244715 0.223433 0.282942
Si Si7 0.827944 0.180375 0.957641
O O1 0.500000 0.670869 0.750000
O O2 0.371531 0.611920 0.483394
O O3 0.332126 0.702355 0.419152
O O4 0.539232 0.670487 0.494130
O O5 0.500000 0.973963 0.750000
O O6 0.370140 0.053033 0.738759
O O7 0.286008 0.965848 0.678073
O O8 0.500000 0.000000 0.000000
O O9 0.854533 0.380671 0.742232
O O10 0.877962 0.299341 0.894254
O O11 0.000000 0.322120 0.750000
O O12 0.051922 0.366751 0.056249
O O13 0.226654 0.586649 0.586399
O O14 0.253335 0.632073 0.875606
O O15 0.180455 0.203373 0.382150
O O16 0.261080 0.279912 0.297942
#
# Coordination Sequence:
#
# PCOD9277930 Si02
#       7
#     8   8   8   8   8   8   8
#     4  11  23  44  70  90 128 184 225 269 324 396
#     4  12  22  37  65  98 133 167 212 280 351 400
#     4   9  19  37  62  94 130 164 208 272 334 389
#     4  11  22  38  63 100 130 166 221 271 339 402
#     4  10  20  42  62  93 135 164 213 283 325 391
#     4  10  25  43  64  96 136 172 220 279 330 390
#     4  11  25  43  64  96 136 177 218 275 334 394
#
# _framework density 20.540621000000002
#
# number of rings (size 3 to 8) (size 9 to 14) (size 15 to 20)
#    0.000    1.429    4.286    0.857    4.000    1.143 
#    0.000    0.714    0.000    0.000    0.000    0.000 
#    0.000    0.000    0.000    0.000    0.000    0.000 
#
# Total GULP energy -156229.253307 kJ/mol
# GULP energy per Si atom -5579.616190 kJ/mol
# Density = 2.049387 g / cm^3
# Si number density = 20.540621 Si / 1000 Ang^3
#
#
#
# Elastic Constant Matrix: (Units=GPa)
#
#
# Indices 1 2 3 4 5 6 
#
# 1 96.1958 27.7426 7.3316 0.0000 13.4077 0.0000
# 2 27.7426 111.0230 16.5855 0.0000 19.3797 0.0000
# 3 7.3316 16.5855 64.3775 0.0000 18.4551 0.0000
# 4 0.0000 0.0000 0.0000 7.0555 0.0000 -9.0330
# 5 13.4077 19.3797 18.4551 0.0000 21.8310 0.0000
# 6 0.0000 0.0000 0.0000 -9.0330 0.0000 15.2645
#
#
#
# Elastic Compliance Matrix: (Units=1/GPa)
#
#
# Indices 1 2 3 4 5 6 
#
# 1 0.011771 -0.001990 0.000974 0.000000 -0.006287 0.000000
# 2 -0.001990 0.010995 -0.000209 0.000000 -0.008362 0.000000
# 3 0.000974 -0.000209 0.020583 0.000000 -0.017813 0.000000
# 4 0.000000 0.000000 0.000000 0.584775 0.000000 0.346051
# 5 -0.006287 -0.008362 -0.017813 0.000000 0.072149 0.000000
# 6 0.000000 0.000000 0.000000 0.346051 0.000000 0.270294
#
#
# Mechanical properties :
#
#
# Convention : Reuss Voigt Hill
#
# Bulk Modulus (GPa) = 24.44961 41.65731 33.05346
# Shear Modulus (GPa) = 5.06766 23.49265 14.28016
#
# Velocity S-wave (km/s) = 1.57242 3.38556 2.63955
# Velocity P-wave (km/s) = 3.90199 5.96717 5.04146
#
# Compressibility (1/GPa) = 0.04090045
#
# Stress axis : x y z
#
# Youngs Moduli (GPa) = 84.95282 90.94922 48.58475
#
# Poissons Ratio (x) = 0.18095 -0.04733
# Poissons Ratio (y) = 0.16902 0.01015
# Poissons Ratio (z) = -0.08276 0.01900
#
# Static dielectric constant tensor:
#      x y z
#    x 1.767400 0.000000 -0.012110 
#    y 0.000000 1.724730 0.000000 
#    z -0.012110 0.000000 1.855770 
# 
# From -- ./inp_files/35771.got.cif
#   From: 2010.05.17/outbox.cif.g08.bks.cpg/sg15_18_cif.got.tgz:35771.got - 2010.06.03 18:47:42.
