data_PCOD9277282
_publ_section_title
;
Structure prediction by ZEFSAII (Michael W. Deem and Ramdas Pophale) SiO2 
 PCOD9277282
Probable space group: C 2/C
;
_chemical_formula_sum "Si O2"
_cell_formula_units_Z 56
_cell_length_a 18.985433
_cell_length_b 8.866105
_cell_length_c 27.579330
_cell_angle_alpha 90.000000
_cell_angle_beta 149.646438
_cell_angle_gamma 90.000000
_cell_volume 2345.935497
_symmetry_space_group_name_H-M "C 2/C"
_symmetry_group_IT_number 15
_symmetry_cell_setting 'monoclinic'
loop_
_space_group_symop_operation_xyz
x,y,z
-x,y,1/2-z
-x,-y,-z
x,-y,1/2+z
1/2+x,1/2+y,z
1/2-x,1/2+y,1/2-z
1/2-x,1/2-y,-z
1/2+x,1/2-y,1/2+z
loop_
_atom_site_type_symbol
_atom_site_label
_atom_site_fract_x
_atom_site_fract_y
_atom_site_fract_z
Si Si1 0.122375 0.091371 0.285744
Si Si2 0.341600 0.924303 0.102467
Si Si3 0.644238 0.030477 0.284808
Si Si4 0.854663 0.815553 0.377109
Si Si5 0.958318 0.354983 0.442979
Si Si6 0.631580 0.669198 0.726421
Si Si7 0.290870 0.089706 0.470180
O O1 0.231008 0.206218 0.324730
O O2 0.220238 0.004478 0.383328
O O3 0.000000 0.140856 0.250000
O O4 0.067581 0.983159 0.210835
O O5 0.279254 0.756275 0.069880
O O6 0.509138 0.924183 0.198165
O O7 0.310872 0.016447 0.132658
O O8 0.282606 0.986539 0.017121
O O9 0.592308 0.191708 0.237012
O O10 0.776827 0.975888 0.333060
O O11 0.896265 0.792142 0.346128
O O12 0.981354 0.783883 0.489212
O O13 0.798542 0.349417 0.333117
O O14 0.000000 0.500000 0.500000
O O15 0.050402 0.374937 0.449551
#
# Coordination Sequence:
#
# PCOD9277282 Si02
#       7
#     8   8   8   8   8   8   8
#     4  11  23  43  65  98 131 175 229 273 326 414
#     4  10  21  39  65  95 124 166 214 274 336 386
#     4  11  23  40  63  95 134 159 215 278 331 400
#     4  11  23  44  69  94 128 183 224 275 333 407
#     4  11  22  43  67  93 128 172 229 268 320 415
#     4  12  26  41  67  98 138 176 219 279 356 396
#     4  10  20  40  71  90 118 175 227 270 318 402
#
# _framework density 23.871074
#
# number of rings (size 3 to 8) (size 9 to 14) (size 15 to 20)
#    0.000    1.143    5.714    2.571    4.000    1.714 
#    2.571    0.714    0.000    0.000    0.000    0.000 
#    0.000    0.000    0.000    0.000    0.000    0.000 
#
# Total GULP energy -156349.974518 kJ/mol
# GULP energy per Si atom -5583.927661 kJ/mol
# Density = 2.381674 g / cm^3
# Si number density = 23.871074 Si / 1000 Ang^3
#
#
#
# Elastic Constant Matrix: (Units=GPa)
#
#
# Indices 1 2 3 4 5 6 
#
# 1 115.4210 9.9426 37.7474 0.0000 -34.5121 0.0000
# 2 9.9426 31.4180 -10.5026 0.0000 0.6338 -0.0001
# 3 37.7474 -10.5026 37.1254 0.0001 -5.0120 0.0001
# 4 0.0000 0.0000 0.0001 14.1456 0.0000 1.0631
# 5 -34.5121 0.6338 -5.0120 0.0000 56.0231 0.0000
# 6 0.0000 -0.0001 0.0001 1.0631 0.0000 20.6185
#
#
#
# Elastic Compliance Matrix: (Units=1/GPa)
#
#
# Indices 1 2 3 4 5 6 
#
# 1 0.021254 -0.015101 -0.024386 0.000000 0.011082 0.000000
# 2 -0.015101 0.045897 0.027343 0.000000 -0.007376 0.000000
# 3 -0.024386 0.027343 0.058097 0.000000 -0.010134 0.000000
# 4 0.000000 0.000000 0.000000 0.070968 0.000000 -0.003659
# 5 0.011082 -0.007376 -0.010134 0.000000 0.023854 0.000000
# 6 0.000000 0.000000 0.000000 -0.003659 0.000000 0.048689
#
#
# Mechanical properties :
#
#
# Convention : Reuss Voigt Hill
#
# Bulk Modulus (GPa) = 9.90505 28.70435 19.30470
# Shear Modulus (GPa) = 15.30458 27.94258 21.62358
#
# Velocity S-wave (km/s) = 2.53481 3.42506 3.01300
# Velocity P-wave (km/s) = 3.56727 5.26234 4.49542
#
# Compressibility (1/GPa) = 0.10095860
#
# Stress axis : x y z
#
# Youngs Moduli (GPa) = 47.05097 21.78795 17.21264
#
# Poissons Ratio (x) = 0.32903 0.41974
# Poissons Ratio (y) = 0.71053 -0.47064
# Poissons Ratio (z) = 1.14737 -0.59574
#
# Static dielectric constant tensor:
#      x y z
#    x 1.931380 0.000000 0.015560 
#    y 0.000000 1.997300 0.000000 
#    z 0.015560 0.000000 1.958110 
# 
# From -- ./inp_files/317533.got.cif
#   From: 2010.05.17/outbox.cif.g08.bks.cpg/sg15_159_cif.got.tgz:317533.got - 2010.06.03 18:47:42.
