data_PCOD9277031
_publ_section_title
;
Structure prediction by ZEFSAII (Michael W. Deem and Ramdas Pophale) SiO2 
 PCOD9277031
Probable space group: C 2/C
;
_chemical_formula_sum "Si O2"
_cell_formula_units_Z 24
_cell_length_a 22.689703
_cell_length_b 7.323282
_cell_length_c 15.907253
_cell_angle_alpha 90.000000
_cell_angle_beta 158.567282
_cell_angle_gamma 90.000000
_cell_volume 965.846866
_symmetry_space_group_name_H-M "C 2/C"
_symmetry_group_IT_number 15
_symmetry_cell_setting 'monoclinic'
loop_
_space_group_symop_operation_xyz
x,y,z
-x,y,1/2-z
-x,-y,-z
x,-y,1/2+z
1/2+x,1/2+y,z
1/2-x,1/2+y,1/2-z
1/2-x,1/2-y,-z
1/2+x,1/2-y,1/2+z
loop_
_atom_site_type_symbol
_atom_site_label
_atom_site_fract_x
_atom_site_fract_y
_atom_site_fract_z
Si Si1 0.688831 0.359346 0.837228
Si Si2 0.604761 0.742576 0.670946
Si Si3 0.077905 0.591318 0.439375
O O1 0.628521 0.570975 0.767816
O O2 0.541369 0.284648 0.586875
O O3 0.341616 0.101600 0.478417
O O4 0.750000 0.250000 0.000000
O O5 0.553036 0.907149 0.661759
O O6 0.773723 0.730019 0.846443
O O7 0.000000 0.657249 0.250000
#
# Coordination Sequence:
#
# PCOD9277031 Si02
#       3
#     8   8   8
#     4   9  21  43  66  96 140 184 233 277 346 415
#     4   9  21  42  65 100 138 175 234 284 339 415
#     4  10  20  40  67  92 137 179 227 281 352 399
#
# _framework density 24.848656999999999
#
# number of rings (size 3 to 8) (size 9 to 14) (size 15 to 20)
#    2.000    0.667    0.000    1.000    0.000    2.667 
#    6.000    3.333    0.000    0.000    0.000    0.000 
#    0.000    0.000    0.000    0.000    0.000    0.000 
#
# Total GULP energy -66820.014607 kJ/mol
# GULP energy per Si atom -5568.334551 kJ/mol
# Density = 2.479210 g / cm^3
# Si number density = 24.848657 Si / 1000 Ang^3
#
#
#
# Elastic Constant Matrix: (Units=GPa)
#
#
# Indices 1 2 3 4 5 6 
#
# 1 59.2158 44.4048 32.2852 0.0000 -14.9186 0.0000
# 2 44.4048 93.3185 43.1186 0.0000 -9.7666 0.0000
# 3 32.2852 43.1186 180.6691 0.0000 -30.6444 0.0000
# 4 0.0000 0.0000 0.0000 21.8828 0.0000 -9.6256
# 5 -14.9186 -9.7666 -30.6444 0.0000 26.5525 0.0000
# 6 0.0000 0.0000 0.0000 -9.6256 0.0000 37.3000
#
#
#
# Elastic Compliance Matrix: (Units=1/GPa)
#
#
# Indices 1 2 3 4 5 6 
#
# 1 0.029462 -0.012681 -0.000276 0.000000 0.011571 0.000000
# 2 -0.012681 0.017543 -0.002530 0.000000 -0.003592 0.000000
# 3 -0.000276 -0.002530 0.007465 0.000000 0.007530 0.000000
# 4 0.000000 0.000000 0.000000 0.051549 0.000000 0.013303
# 5 0.011571 -0.003592 0.007530 0.000000 0.051532 0.000000
# 6 0.000000 0.000000 0.000000 0.013303 0.000000 0.030243
#
#
# Mechanical properties :
#
#
# Convention : Reuss Voigt Hill
#
# Bulk Modulus (GPa) = 42.55855 63.64675 53.10265
# Shear Modulus (GPa) = 22.06533 31.37337 26.71935
#
# Velocity S-wave (km/s) = 2.98315 3.55713 3.28271
# Velocity P-wave (km/s) = 5.38793 6.52229 5.98206
#
# Compressibility (1/GPa) = 0.02349704
#
# Stress axis : x y z
#
# Youngs Moduli (GPa) = 33.94212 57.00229 133.95235
#
# Poissons Ratio (x) = 0.72283 0.03695
# Poissons Ratio (y) = 0.43041 0.33891
# Poissons Ratio (z) = 0.00936 0.14422
#
# Static dielectric constant tensor:
#      x y z
#    x 2.018030 0.000000 0.079630 
#    y 0.000000 2.108890 0.000000 
#    z 0.079630 0.000000 1.977840 
# 
# From -- ./inp_files/36069.got.cif
#   From: 2010.05.17/outbox.cif.g08.bks.cpg/sg15_19_cif.got.tgz:36069.got - 2010.06.03 18:47:42.
