data_PCOD9277518
_publ_section_title
;
Structure prediction by ZEFSAII (Michael W. Deem and Ramdas Pophale) SiO2 
 PCOD9277518
Probable space group: C 2/C
;
_chemical_formula_sum "Si O2"
_cell_formula_units_Z 60
_cell_length_a 10.542027
_cell_length_b 16.850632
_cell_length_c 25.442174
_cell_angle_alpha 90.000000
_cell_angle_beta 34.436885
_cell_angle_gamma 90.000000
_cell_volume 2555.792905
_symmetry_space_group_name_H-M "C 2/C"
_symmetry_group_IT_number 15
_symmetry_cell_setting 'monoclinic'
loop_
_space_group_symop_operation_xyz
x,y,z
-x,y,1/2-z
-x,-y,-z
x,-y,1/2+z
1/2+x,1/2+y,z
1/2-x,1/2+y,1/2-z
1/2-x,1/2-y,-z
1/2+x,1/2-y,1/2+z
loop_
_atom_site_type_symbol
_atom_site_label
_atom_site_fract_x
_atom_site_fract_y
_atom_site_fract_z
Si Si1 0.500000 0.718282 0.750000
Si Si2 0.487358 0.682751 0.331687
Si Si3 0.797171 0.653697 0.884667
Si Si4 0.473557 0.907139 0.519669
Si Si5 0.885250 0.172841 0.097665
Si Si6 0.594697 0.076732 0.344162
Si Si7 0.226667 0.988811 0.888949
Si Si8 0.343859 0.898797 0.153874
O O1 0.337514 0.777815 0.836263
O O2 0.357643 0.659282 0.761800
O O3 0.414069 0.764765 0.329716
O O4 0.282475 0.621877 0.395835
O O5 0.505069 0.705779 0.387017
O O6 0.717042 0.641120 0.235019
O O7 0.780027 0.577846 0.851937
O O8 0.938935 0.617026 0.884920
O O9 0.553777 0.674565 0.991526
O O10 0.538983 0.893800 0.558021
O O11 0.602387 0.873934 0.424790
O O12 0.500000 0.000000 0.500000
O O13 0.830136 0.081206 0.131572
O O14 0.421074 0.051017 0.358113
O O15 0.708515 0.992122 0.321959
O O16 0.000000 0.000000 0.000000
#
# Coordination Sequence:
#
# PCOD9277518 Si02
#       8
#     4   8   8   8   8   8   8   8
#     4  12  22  32  62 100 126 146 220 270 306 362
#     4  12  21  37  67  96 128 165 220 266 320 387
#     4  10  20  41  64  95 123 173 214 263 319 394
#     4  10  22  38  63  89 124 170 209 255 323 390
#     4  11  21  37  66  98 123 167 216 269 318 387
#     4  10  23  39  62  96 131 164 211 265 329 383
#     4   9  21  40  66  92 129 167 216 266 329 388
#     4  10  21  39  61  93 126 163 210 266 316 379
#
# _framework density 23.47608
#
# number of rings (size 3 to 8) (size 9 to 14) (size 15 to 20)
#    0.000    1.600    2.667    2.400    5.600    0.000 
#    0.000    0.000   14.667   16.000    0.000    0.000 
#    0.000    0.000    0.000    0.000    0.000    0.000 
#
# Total GULP energy -167491.879732 kJ/mol
# GULP energy per Si atom -5583.062658 kJ/mol
# Density = 2.342265 g / cm^3
# Si number density = 23.476080 Si / 1000 Ang^3
#
#
#
# Elastic Constant Matrix: (Units=GPa)
#
#
# Indices 1 2 3 4 5 6 
#
# 1 16.3935 8.6400 10.4392 0.0023 -9.4186 -0.0012
# 2 8.6400 153.1592 46.3808 -0.0109 -17.8674 0.0009
# 3 10.4392 46.3808 97.1375 0.0251 -8.2228 -0.0101
# 4 0.0023 -0.0109 0.0251 25.8494 -0.0016 -16.0887
# 5 -9.4186 -17.8674 -8.2228 -0.0016 31.7545 -0.0006
# 6 -0.0012 0.0009 -0.0101 -16.0887 -0.0006 35.7217
#
#
#
# Elastic Compliance Matrix: (Units=1/GPa)
#
#
# Indices 1 2 3 4 5 6 
#
# 1 0.077364 0.000109 -0.006562 0.000002 0.021309 0.000002
# 2 0.000109 0.008016 -0.003532 0.000009 0.003628 0.000003
# 3 -0.006562 -0.003532 0.012630 -0.000015 -0.000663 -0.000004
# 4 0.000002 0.000009 -0.000015 0.053754 0.000005 0.024210
# 5 0.021309 0.003628 -0.000663 0.000005 0.039681 0.000003
# 6 0.000002 0.000003 -0.000004 0.024210 0.000003 0.038898
#
#
# Mechanical properties :
#
#
# Convention : Reuss Voigt Hill
#
# Bulk Modulus (GPa) = 12.81409 44.17889 28.49649
# Shear Modulus (GPa) = 18.09445 32.08046 25.08746
#
# Velocity S-wave (km/s) = 2.77927 3.70065 3.27255
# Velocity P-wave (km/s) = 3.97106 6.09256 5.14240
#
# Compressibility (1/GPa) = 0.07803907
#
# Stress axis : x y z
#
# Youngs Moduli (GPa) = 12.92593 124.75334 79.17523
#
# Poissons Ratio (x) = -0.01358 0.51957
# Poissons Ratio (y) = -0.00141 0.27964
# Poissons Ratio (z) = 0.08482 0.44062
#
# Static dielectric constant tensor:
#      x y z
#    x 1.922630 -0.000020 0.014720 
#    y -0.000020 1.987230 0.000040 
#    z 0.014720 0.000040 1.928400 
# 
# From -- ./inp_files/293530.got.cif
#   From: 2010.05.17/outbox.cif.g08.bks.cpg/sg15_147_cif.got.tgz:293530.got - 2010.06.03 18:47:42.
