data_PCOD9277962
_publ_section_title
;
Structure prediction by ZEFSAII (Michael W. Deem and Ramdas Pophale) SiO2 
 PCOD9277962
Probable space group: C 2/C
;
_chemical_formula_sum "Si O2"
_cell_formula_units_Z 40
_cell_length_a 11.758422
_cell_length_b 9.663163
_cell_length_c 30.054991
_cell_angle_alpha 90.000000
_cell_angle_beta 143.571433
_cell_angle_gamma 90.000000
_cell_volume 2027.868836
_symmetry_space_group_name_H-M "C 2/C"
_symmetry_group_IT_number 15
_symmetry_cell_setting 'monoclinic'
loop_
_space_group_symop_operation_xyz
x,y,z
-x,y,1/2-z
-x,-y,-z
x,-y,1/2+z
1/2+x,1/2+y,z
1/2-x,1/2+y,1/2-z
1/2-x,1/2-y,-z
1/2+x,1/2-y,1/2+z
loop_
_atom_site_type_symbol
_atom_site_label
_atom_site_fract_x
_atom_site_fract_y
_atom_site_fract_z
Si Si1 0.227091 0.204132 0.634867
Si Si2 0.445562 0.918968 0.128725
Si Si3 0.845824 0.940304 0.737210
Si Si4 0.840581 0.127948 0.093446
Si Si5 0.316308 0.594101 0.513206
O O1 0.397756 0.118257 0.665039
O O2 0.277591 0.293485 0.694161
O O3 0.194514 0.322574 0.586301
O O4 0.044920 0.106795 0.581350
O O5 0.399439 0.773587 0.089484
O O6 0.658607 0.969685 0.186734
O O7 0.294197 0.030993 0.063585
O O8 0.000000 0.997920 0.750000
O O9 0.968512 0.919494 0.820214
O O10 0.770988 0.008990 0.039483
O O11 0.250000 0.750000 0.500000
#
# Coordination Sequence:
#
# PCOD9277962 Si02
#       5
#     8   8   8   8   8
#     4   9  22  41  64  90 128 162 207 271 308 369
#     4  10  22  41  63  93 130 162 214 264 312 377
#     4  10  20  42  63  93 123 171 209 262 318 372
#     4   9  24  38  66  89 134 161 211 260 316 367
#     4  12  22  40  67  97 127 168 215 254 322 381
#
# _framework density 19.725141000000001
#
# number of rings (size 3 to 8) (size 9 to 14) (size 15 to 20)
#    1.200    0.800    2.000    1.200    2.800    0.800 
#    0.000    2.000    0.000    0.000    0.000    0.000 
#    0.000    0.000    0.000    0.000    0.000    0.000 
#
# Total GULP energy -111354.313066 kJ/mol
# GULP energy per Si atom -5567.715653 kJ/mol
# Density = 1.968025 g / cm^3
# Si number density = 19.725141 Si / 1000 Ang^3
#
#
#
# Elastic Constant Matrix: (Units=GPa)
#
#
# Indices 1 2 3 4 5 6 
#
# 1 50.4073 13.5690 15.6656 0.0000 11.5867 0.0000
# 2 13.5690 95.0395 17.8755 0.0000 -10.3834 0.0000
# 3 15.6656 17.8755 34.2428 0.0000 -4.1461 0.0000
# 4 0.0000 0.0000 0.0000 29.9856 0.0000 7.1334
# 5 11.5867 -10.3834 -4.1461 0.0000 26.0237 0.0000
# 6 0.0000 0.0000 0.0000 7.1334 0.0000 33.5715
#
#
#
# Elastic Compliance Matrix: (Units=1/GPa)
#
#
# Indices 1 2 3 4 5 6 
#
# 1 0.028591 -0.003350 -0.013290 0.000000 -0.016184 0.000000
# 2 -0.003350 0.012432 -0.004258 0.000000 0.005774 0.000000
# 3 -0.013290 -0.004258 0.038765 0.000000 0.010394 0.000000
# 4 0.000000 0.000000 0.000000 0.035125 0.000000 -0.007463
# 5 -0.016184 0.005774 0.010394 0.000000 0.049592 0.000000
# 6 0.000000 0.000000 0.000000 -0.007463 0.000000 0.031373
#
#
# Mechanical properties :
#
#
# Convention : Reuss Voigt Hill
#
# Bulk Modulus (GPa) = 26.32279 30.43443 28.37861
# Shear Modulus (GPa) = 19.97303 26.75480 23.36392
#
# Velocity S-wave (km/s) = 3.18554 3.68690 3.44535
# Velocity P-wave (km/s) = 5.18690 5.79544 5.49959
#
# Compressibility (1/GPa) = 0.03798990
#
# Stress axis : x y z
#
# Youngs Moduli (GPa) = 34.97642 80.43796 25.79674
#
# Poissons Ratio (x) = 0.26950 0.34285
# Poissons Ratio (y) = 0.11718 0.10984
# Poissons Ratio (z) = 0.46485 0.34250
#
# Static dielectric constant tensor:
#      x y z
#    x 1.718620 0.000000 -0.002610 
#    y 0.000000 1.702900 0.000000 
#    z -0.002610 0.000000 1.738000 
# 
# From -- ./inp_files/310146.got.cif
#   From: 2010.05.17/outbox.cif.g08.bks.cpg/sg15_156_cif.got.tgz:310146.got - 2010.06.03 18:47:42.
