data_PCOD9277793
_publ_section_title
;
Structure prediction by ZEFSAII (Michael W. Deem and Ramdas Pophale) SiO2 
 PCOD9277793
Probable space group: C 2/C
;
_chemical_formula_sum "Si O2"
_cell_formula_units_Z 60
_cell_length_a 13.992371
_cell_length_b 8.153117
_cell_length_c 23.572019
_cell_angle_alpha 90.000000
_cell_angle_beta 71.866128
_cell_angle_gamma 90.000000
_cell_volume 2555.565853
_symmetry_space_group_name_H-M "C 2/C"
_symmetry_group_IT_number 15
_symmetry_cell_setting 'monoclinic'
loop_
_space_group_symop_operation_xyz
x,y,z
-x,y,1/2-z
-x,-y,-z
x,-y,1/2+z
1/2+x,1/2+y,z
1/2-x,1/2+y,1/2-z
1/2-x,1/2-y,-z
1/2+x,1/2-y,1/2+z
loop_
_atom_site_type_symbol
_atom_site_label
_atom_site_fract_x
_atom_site_fract_y
_atom_site_fract_z
Si Si1 0.114743 0.539496 0.491134
Si Si2 0.858022 0.509820 0.391093
Si Si3 0.214212 0.566004 0.367468
Si Si4 0.876286 0.111955 0.907845
Si Si5 0.433595 0.884511 0.181700
Si Si6 0.750000 0.750000 0.500000
Si Si7 0.955474 0.995734 0.695465
Si Si8 0.757582 0.609932 0.801253
O O1 0.132155 0.594010 0.552895
O O2 0.159305 0.645431 0.432038
O O3 0.173457 0.366670 0.476532
O O4 0.000000 0.500000 0.500000
O O5 0.834777 0.696554 0.415850
O O6 0.777323 0.463471 0.359641
O O7 0.968329 0.497555 0.342692
O O8 0.317551 0.492822 0.371909
O O9 0.140216 0.428231 0.356397
O O10 0.235235 0.699568 0.315948
O O11 0.837820 0.088015 0.978278
O O12 0.988539 0.098758 0.864550
O O13 0.469187 0.696735 0.179003
O O14 0.361587 0.912874 0.248628
O O15 0.837668 0.035979 0.713199
O O16 0.000000 0.031195 0.750000
#
# Coordination Sequence:
#
# PCOD9277793 Si02
#       8
#     8   8   8   8   8   4   8   8
#     4  10  20  41  70 100 135 179 231 277 349 411
#     4  11  23  41  69  99 135 178 225 280 335 414
#     4  11  23  43  72  97 138 180 219 291 335 405
#     4  10  21  41  66  94 130 170 216 270 338 390
#     4  12  23  42  66  96 135 177 225 280 343 402
#     4   8  20  36  66  94 130 170 218 278 326 404
#     4  12  26  43  65  96 134 176 225 280 337 411
#     4  12  26  42  65 100 137 177 229 279 340 411
#
# _framework density 23.478166000000002
#
# number of rings (size 3 to 8) (size 9 to 14) (size 15 to 20)
#    0.000    1.067    1.333    6.000    1.867    2.667 
#    0.000    2.000    0.000    8.800    0.000    0.000 
#    0.000    0.000    0.000    0.000    0.000    0.000 
#
# Total GULP energy -167127.104828 kJ/mol
# GULP energy per Si atom -5570.903494 kJ/mol
# Density = 2.342473 g / cm^3
# Si number density = 23.478166 Si / 1000 Ang^3
#
#
#
# Elastic Constant Matrix: (Units=GPa)
#
#
# Indices 1 2 3 4 5 6 
#
# 1 83.2150 9.3373 47.7301 0.0000 -2.6429 0.0000
# 2 9.3373 45.8209 13.9372 0.0000 -1.2951 0.0000
# 3 47.7301 13.9372 130.6852 0.0000 -5.4566 0.0000
# 4 0.0000 0.0000 0.0000 30.6016 0.0000 -1.0446
# 5 -2.6429 -1.2951 -5.4566 0.0000 44.1766 0.0000
# 6 0.0000 0.0000 0.0000 -1.0446 0.0000 33.5183
#
#
#
# Elastic Compliance Matrix: (Units=1/GPa)
#
#
# Indices 1 2 3 4 5 6 
#
# 1 0.015298 -0.001462 -0.005423 0.000000 0.000203 0.000000
# 2 -0.001462 0.022701 -0.001873 0.000000 0.000347 0.000000
# 3 -0.005423 -0.001873 0.009867 0.000000 0.000839 0.000000
# 4 0.000000 0.000000 0.000000 0.032713 0.000000 0.001019
# 5 0.000203 0.000347 0.000839 0.000000 0.022762 0.000000
# 6 0.000000 0.000000 0.000000 0.001019 0.000000 0.029866
#
#
# Mechanical properties :
#
#
# Convention : Reuss Voigt Hill
#
# Bulk Modulus (GPa) = 32.94728 44.63670 38.79199
# Shear Modulus (GPa) = 31.08669 34.24041 32.66355
#
# Velocity S-wave (km/s) = 3.64272 3.82304 3.73397
# Velocity P-wave (km/s) = 5.63526 6.20812 5.92861
#
# Compressibility (1/GPa) = 0.03035152
#
# Stress axis : x y z
#
# Youngs Moduli (GPa) = 65.36805 44.05014 101.34462
#
# Poissons Ratio (x) = 0.06441 0.54958
# Poissons Ratio (y) = 0.09558 0.18977
# Poissons Ratio (z) = 0.35448 0.08248
#
# Static dielectric constant tensor:
#      x y z
#    x 1.952030 0.000000 -0.084520 
#    y 0.000000 1.945690 0.000000 
#    z -0.084520 0.000000 2.920270 
# 
# From -- ./inp_files/273134.got.cif
#   From: 2010.05.17/outbox.cif.g08.bks.cpg/sg15_137_cif.got.tgz:273134.got - 2010.06.03 18:47:42.
