data_PCOD9277406
_publ_section_title
;
Structure prediction by ZEFSAII (Michael W. Deem and Ramdas Pophale) SiO2 
 PCOD9277406
Probable space group: C 2/C
;
_chemical_formula_sum "Si O2"
_cell_formula_units_Z 40
_cell_length_a 10.467905
_cell_length_b 9.373375
_cell_length_c 27.407563
_cell_angle_alpha 90.000000
_cell_angle_beta 44.836887
_cell_angle_gamma 90.000000
_cell_volume 1896.143870
_symmetry_space_group_name_H-M "C 2/C"
_symmetry_group_IT_number 15
_symmetry_cell_setting 'monoclinic'
loop_
_space_group_symop_operation_xyz
x,y,z
-x,y,1/2-z
-x,-y,-z
x,-y,1/2+z
1/2+x,1/2+y,z
1/2-x,1/2+y,1/2-z
1/2-x,1/2-y,-z
1/2+x,1/2-y,1/2+z
loop_
_atom_site_type_symbol
_atom_site_label
_atom_site_fract_x
_atom_site_fract_y
_atom_site_fract_z
Si Si1 0.357081 0.172300 0.248192
Si Si2 0.977614 0.159824 0.987872
Si Si3 0.171243 0.575286 0.427608
Si Si4 0.713558 0.472125 0.205769
Si Si5 0.889008 0.824756 0.398365
O O1 0.500000 0.117373 0.250000
O O2 0.244196 0.302393 0.303093
O O3 0.256774 0.049955 0.245103
O O4 0.469155 0.258805 0.176892
O O5 0.949168 0.173648 0.937670
O O6 0.151205 0.261390 0.949025
O O7 0.794983 0.232109 0.058255
O O8 0.000000 0.000000 0.000000
O O9 0.174454 0.546346 0.368523
O O10 0.343277 0.488261 0.399003
O O11 0.000000 0.500000 0.500000
O O12 0.500000 0.485436 0.250000
#
# Coordination Sequence:
#
# PCOD9277406 Si02
#       5
#     8   8   8   8   8
#     4  11  23  42  66  91 128 173 215 261 320 382
#     4  10  22  38  64  95 124 158 214 264 315 375
#     4  10  20  41  67  87 127 172 207 260 323 379
#     4  11  23  44  64  95 131 170 215 267 322 383
#     4  10  20  41  62  87 128 167 204 261 317 379
#
# _framework density 21.095445000000002
#
# number of rings (size 3 to 8) (size 9 to 14) (size 15 to 20)
#    0.000    1.600    6.000    0.000    0.000    3.200 
#    3.600    0.000    0.000    0.000    0.000    0.000 
#    0.000    0.000    0.000    0.000    0.000    0.000 
#
# Total GULP energy -111560.145125 kJ/mol
# GULP energy per Si atom -5578.007256 kJ/mol
# Density = 2.104743 g / cm^3
# Si number density = 21.095445 Si / 1000 Ang^3
#
#
#
# Elastic Constant Matrix: (Units=GPa)
#
#
# Indices 1 2 3 4 5 6 
#
# 1 71.4445 42.5050 2.4006 0.0000 5.2525 0.0000
# 2 42.5050 109.5448 1.4007 0.0000 5.5036 0.0000
# 3 2.4006 1.4007 80.7910 0.0000 10.7334 0.0000
# 4 0.0000 0.0000 0.0000 25.0550 0.0000 10.7498
# 5 5.2525 5.5036 10.7334 0.0000 12.2818 0.0000
# 6 0.0000 0.0000 0.0000 10.7498 0.0000 38.7778
#
#
#
# Elastic Compliance Matrix: (Units=1/GPa)
#
#
# Indices 1 2 3 4 5 6 
#
# 1 0.018474 -0.006920 0.000236 0.000000 -0.005006 0.000000
# 2 -0.006920 0.011945 0.000358 0.000000 -0.002706 0.000000
# 3 0.000236 0.000358 0.014028 0.000000 -0.012521 0.000000
# 4 0.000000 0.000000 0.000000 0.045300 0.000000 -0.012558
# 5 -0.005006 -0.002706 -0.012521 0.000000 0.095717 0.000000
# 6 0.000000 0.000000 0.000000 -0.012558 0.000000 0.029269
#
#
# Mechanical properties :
#
#
# Convention : Reuss Voigt Hill
#
# Bulk Modulus (GPa) = 31.45076 39.37699 35.41388
# Shear Modulus (GPa) = 21.00994 29.58783 25.29889
#
# Velocity S-wave (km/s) = 3.15929 3.74915 3.46679
# Velocity P-wave (km/s) = 5.31500 6.11949 5.73138
#
# Compressibility (1/GPa) = 0.03179573
#
# Stress axis : x y z
#
# Youngs Moduli (GPa) = 54.13097 83.71727 71.28685
#
# Poissons Ratio (x) = 0.57929 -0.01683
# Poissons Ratio (y) = 0.37456 -0.02552
# Poissons Ratio (z) = -0.01278 -0.02997
#
# Static dielectric constant tensor:
#      x y z
#    x 1.774520 0.000000 0.010390 
#    y 0.000000 1.797680 0.000000 
#    z 0.010390 0.000000 1.827170 
# 
# From -- ./inp_files/235714.got.cif
#   From: 2010.05.17/outbox.cif.g08.bks.cpg/sg15_118_cif.got.tgz:235714.got - 2010.06.03 18:47:42.
