data_PCOD9277350
_publ_section_title
;
Structure prediction by ZEFSAII (Michael W. Deem and Ramdas Pophale) SiO2 
 PCOD9277350
Probable space group: C 2/C
;
_chemical_formula_sum "Si O2"
_cell_formula_units_Z 48
_cell_length_a 15.531237
_cell_length_b 18.962579
_cell_length_c 7.349679
_cell_angle_alpha 90.000000
_cell_angle_beta 66.291466
_cell_angle_gamma 90.000000
_cell_volume 1981.887019
_symmetry_space_group_name_H-M "C 2/C"
_symmetry_group_IT_number 15
_symmetry_cell_setting 'monoclinic'
loop_
_space_group_symop_operation_xyz
x,y,z
-x,y,1/2-z
-x,-y,-z
x,-y,1/2+z
1/2+x,1/2+y,z
1/2-x,1/2+y,1/2-z
1/2-x,1/2-y,-z
1/2+x,1/2-y,1/2+z
loop_
_atom_site_type_symbol
_atom_site_label
_atom_site_fract_x
_atom_site_fract_y
_atom_site_fract_z
Si Si1 0.500000 0.249460 0.250000
Si Si2 0.780719 0.916410 0.783103
Si Si3 0.691808 0.225239 0.223620
Si Si4 0.647326 0.045428 0.889486
Si Si5 0.019857 0.127957 0.450762
Si Si6 0.500000 0.040306 0.750000
Si Si7 0.315702 0.619235 0.662044
O O1 0.587018 0.205702 0.249147
O O2 0.465196 0.300973 0.443560
O O3 0.740724 0.839689 0.774802
O O4 0.886662 0.918857 0.615719
O O5 0.708690 0.976201 0.782032
O O6 0.789868 0.916761 0.993766
O O7 0.682363 0.296089 0.352706
O O8 0.750000 0.250000 0.000000
O O9 0.576263 0.082063 0.805020
O O10 0.732076 0.097479 0.869265
O O11 0.570666 0.011997 0.086458
O O12 0.000000 0.140462 0.250000
O O13 0.922446 0.097652 0.615511
#
# Coordination Sequence:
#
# PCOD9277350 Si02
#       7
#     4   8   8   8   8   4   8
#     4  10  20  41  58  94 130 171 218 264 330 385
#     4  11  22  42  66  96 130 174 212 270 330 397
#     4  11  23  39  65  94 130 167 221 270 325 390
#     4  11  23  43  68  92 131 172 221 267 329 384
#     4   9  20  38  65  94 134 163 213 269 327 391
#     4  10  24  43  62  96 130 167 222 278 310 393
#     4  10  23  43  64  94 131 174 213 271 328 393
#
# _framework density 24.219341
#
# number of rings (size 3 to 8) (size 9 to 14) (size 15 to 20)
#    0.000    1.667    3.333    0.500    2.333    1.333 
#    3.000    0.000    5.500    0.000    0.000    0.000 
#    0.000    0.000    0.000    0.000    0.000    0.000 
#
# Total GULP energy -134016.444135 kJ/mol
# GULP energy per Si atom -5584.018506 kJ/mol
# Density = 2.416422 g / cm^3
# Si number density = 24.219341 Si / 1000 Ang^3
#
#
#
# Elastic Constant Matrix: (Units=GPa)
#
#
# Indices 1 2 3 4 5 6 
#
# 1 180.4988 39.5298 45.3314 0.0000 -49.5250 0.0000
# 2 39.5298 78.5454 13.0780 0.0000 -23.7112 0.0000
# 3 45.3314 13.0780 74.3709 0.0000 -26.5964 0.0000
# 4 0.0000 0.0000 0.0000 20.0444 0.0000 -1.1397
# 5 -49.5250 -23.7112 -26.5964 0.0000 44.6678 0.0000
# 6 0.0000 0.0000 0.0000 -1.1397 0.0000 23.2447
#
#
#
# Elastic Compliance Matrix: (Units=1/GPa)
#
#
# Indices 1 2 3 4 5 6 
#
# 1 0.008437 -0.001730 -0.002314 0.000000 0.007058 0.000000
# 2 -0.001730 0.015520 0.000744 0.000000 0.006763 0.000000
# 3 -0.002314 0.000744 0.017723 0.000000 0.008382 0.000000
# 4 0.000000 0.000000 0.000000 0.050029 0.000000 0.002453
# 5 0.007058 0.006763 0.008382 0.000000 0.038794 0.000000
# 6 0.000000 0.000000 0.000000 0.002453 0.000000 0.043141
#
#
# Mechanical properties :
#
#
# Convention : Reuss Voigt Hill
#
# Bulk Modulus (GPa) = 28.50634 58.81038 43.65836
# Shear Modulus (GPa) = 26.05013 33.28979 29.66996
#
# Velocity S-wave (km/s) = 3.28318 3.71146 3.50387
# Velocity P-wave (km/s) = 5.11547 6.53466 5.86812
#
# Compressibility (1/GPa) = 0.03507992
#
# Stress axis : x y z
#
# Youngs Moduli (GPa) = 118.52763 64.43280 56.42232
#
# Poissons Ratio (x) = 0.11147 0.13058
# Poissons Ratio (y) = 0.20506 -0.04198
# Poissons Ratio (z) = 0.27430 -0.04794
#
# Static dielectric constant tensor:
#      x y z
#    x 1.936430 0.000000 0.032210 
#    y 0.000000 1.922710 0.000000 
#    z 0.032210 0.000000 2.048560 
# 
# From -- ./inp_files/40710.got.cif
#   From: 2010.05.17/outbox.cif.g08.bks.cpg/sg15_21_cif.got.tgz:40710.got - 2010.06.03 18:47:42.
