data_PCOD9277412
_publ_section_title
;
Structure prediction by ZEFSAII (Michael W. Deem and Ramdas Pophale) SiO2 
 PCOD9277412
Probable space group: C 2/C
;
_chemical_formula_sum "Si O2"
_cell_formula_units_Z 60
_cell_length_a 29.641683
_cell_length_b 11.126562
_cell_length_c 8.011099
_cell_angle_alpha 90.000000
_cell_angle_beta 105.572785
_cell_angle_gamma 90.000000
_cell_volume 2545.148273
_symmetry_space_group_name_H-M "C 2/C"
_symmetry_group_IT_number 15
_symmetry_cell_setting 'monoclinic'
loop_
_space_group_symop_operation_xyz
x,y,z
-x,y,1/2-z
-x,-y,-z
x,-y,1/2+z
1/2+x,1/2+y,z
1/2-x,1/2+y,1/2-z
1/2-x,1/2-y,-z
1/2+x,1/2-y,1/2+z
loop_
_atom_site_type_symbol
_atom_site_label
_atom_site_fract_x
_atom_site_fract_y
_atom_site_fract_z
Si Si1 0.446614 0.136314 0.246889
Si Si2 0.197013 0.794475 0.452662
Si Si3 0.650069 0.697190 0.540735
Si Si4 0.801727 0.416504 0.314416
Si Si5 0.609576 0.049966 0.021271
Si Si6 0.728677 0.446015 0.979570
Si Si7 0.939978 0.884862 0.385832
Si Si8 0.500000 0.420741 0.750000
O O1 0.500000 0.120055 0.250000
O O2 0.435452 0.089761 0.419565
O O3 0.435281 0.277489 0.247924
O O4 0.410343 0.058774 0.105220
O O5 0.250000 0.750000 0.500000
O O6 0.176703 0.785293 0.245625
O O7 0.178182 0.696545 0.563535
O O8 0.201555 0.932201 0.514974
O O9 0.628411 0.824763 0.462799
O O10 0.685051 0.644245 0.438017
O O11 0.608477 0.607925 0.560101
O O12 0.846187 0.501337 0.327692
O O13 0.768845 0.382099 0.129144
O O14 0.762534 0.498336 0.372027
O O15 0.976899 0.853323 0.570534
O O16 0.960784 0.996006 0.302642
#
# Coordination Sequence:
#
# PCOD9277412 Si02
#       8
#     8   8   8   8   8   8   8   4
#     4  11  23  48  70 101 131 178 229 293 354 414
#     4  10  20  41  62  88 134 180 219 275 336 391
#     4  11  23  42  64  96 137 176 231 279 332 406
#     4  11  22  40  64  92 134 178 225 275 335 401
#     4  11  24  44  68  98 134 178 229 286 341 410
#     4  11  22  38  64  93 129 182 225 273 338 396
#     4  10  23  43  74  99 140 173 231 281 346 419
#     4  10  22  46  72 104 134 186 212 284 360 414
#
# _framework density 23.574262999999998
#
# number of rings (size 3 to 8) (size 9 to 14) (size 15 to 20)
#    0.000    1.333    3.333    4.400    1.867    0.533 
#   12.000    0.000    0.000    0.000    0.000    0.000 
#    0.000    0.000    0.000    0.000    0.000    0.000 
#
# Total GULP energy -167231.835238 kJ/mol
# GULP energy per Si atom -5574.394508 kJ/mol
# Density = 2.352061 g / cm^3
# Si number density = 23.574263 Si / 1000 Ang^3
#
#
#
# Elastic Constant Matrix: (Units=GPa)
#
#
# Indices 1 2 3 4 5 6 
#
# 1 143.4842 54.6881 7.4888 0.0000 -13.9120 0.0000
# 2 54.6881 84.2653 17.2458 0.0000 -5.1814 0.0000
# 3 7.4888 17.2458 29.6573 0.0000 13.5534 0.0000
# 4 0.0000 0.0000 0.0000 28.3413 0.0000 4.9362
# 5 -13.9120 -5.1814 13.5534 0.0000 24.0194 0.0000
# 6 0.0000 0.0000 0.0000 4.9362 0.0000 43.9212
#
#
#
# Elastic Compliance Matrix: (Units=1/GPa)
#
#
# Indices 1 2 3 4 5 6 
#
# 1 0.009724 -0.005659 -0.001591 0.000000 0.005309 0.000000
# 2 -0.005659 0.018758 -0.013246 0.000000 0.008243 0.000000
# 3 -0.001591 -0.013246 0.058682 0.000000 -0.036892 0.000000
# 4 0.000000 0.000000 0.000000 0.035989 0.000000 -0.004045
# 5 0.005309 0.008243 -0.036892 0.000000 0.067303 0.000000
# 6 0.000000 0.000000 0.000000 -0.004045 0.000000 0.023223
#
#
# Mechanical properties :
#
#
# Convention : Reuss Voigt Hill
#
# Bulk Modulus (GPa) = 21.65795 46.25025 33.95410
# Shear Modulus (GPa) = 18.51437 31.12199 24.81818
#
# Velocity S-wave (km/s) = 2.80547 3.63735 3.24816
# Velocity P-wave (km/s) = 4.43862 6.10754 5.33869
#
# Compressibility (1/GPa) = 0.04617243
#
# Stress axis : x y z
#
# Youngs Moduli (GPa) = 102.83786 53.31184 17.04094
#
# Poissons Ratio (x) = 0.30168 0.02712
# Poissons Ratio (y) = 0.58194 0.22572
# Poissons Ratio (z) = 0.16364 0.70615
#
# Static dielectric constant tensor:
#      x y z
#    x 1.557310 0.000000 0.132330 
#    y 0.000000 1.973250 0.000000 
#    z 0.132330 0.000000 1.876300 
# 
# From -- ./inp_files/69140.got.cif
#   From: 2010.05.17/outbox.cif.g08.bks.cpg/sg15_35_cif.got.tgz:69140.got - 2010.06.03 18:47:42.
