data_PCOD9277551
_publ_section_title
;
Structure prediction by ZEFSAII (Michael W. Deem and Ramdas Pophale) SiO2 
 PCOD9277551
Probable space group: C 2/C
;
_chemical_formula_sum "Si O2"
_cell_formula_units_Z 60
_cell_length_a 25.535374
_cell_length_b 11.281072
_cell_length_c 17.024338
_cell_angle_alpha 90.000000
_cell_angle_beta 149.320643
_cell_angle_gamma 90.000000
_cell_volume 2502.254320
_symmetry_space_group_name_H-M "C 2/C"
_symmetry_group_IT_number 15
_symmetry_cell_setting 'monoclinic'
loop_
_space_group_symop_operation_xyz
x,y,z
-x,y,1/2-z
-x,-y,-z
x,-y,1/2+z
1/2+x,1/2+y,z
1/2-x,1/2+y,1/2-z
1/2-x,1/2-y,-z
1/2+x,1/2-y,1/2+z
loop_
_atom_site_type_symbol
_atom_site_label
_atom_site_fract_x
_atom_site_fract_y
_atom_site_fract_z
Si Si1 0.597514 0.519403 0.521906
Si Si2 0.721951 0.958650 0.066972
Si Si3 0.147427 0.709446 0.909470
Si Si4 0.500000 0.594801 0.250000
Si Si5 0.063141 0.863264 0.127179
Si Si6 0.522399 0.094139 0.617148
Si Si7 0.430016 0.843738 0.737135
Si Si8 0.668091 0.973969 0.170882
O O1 0.515582 0.516714 0.346193
O O2 0.552610 0.411652 0.515597
O O3 0.584037 0.635588 0.559894
O O4 0.715899 0.500835 0.652127
O O5 0.843965 0.950673 0.226195
O O6 0.683899 0.919654 0.104447
O O7 0.678729 0.875502 0.942850
O O8 0.675171 0.089915 0.991979
O O9 0.100288 0.823235 0.889858
O O10 0.058996 0.681198 0.731704
O O11 0.250000 0.750000 0.000000
O O12 0.071973 0.752794 0.196995
O O13 0.603728 0.101668 0.650782
O O14 0.535954 0.965723 0.676663
O O15 0.406383 0.088053 0.436410
O O16 0.500000 0.817583 0.750000
#
# Coordination Sequence:
#
# PCOD9277551 Si02
#       8
#     8   8   8   4   8   8   8   8
#     4  10  24  44  65  95 132 173 223 278 337 412
#     4  10  21  42  67  93 135 167 219 275 333 399
#     4  11  23  39  64  95 128 174 218 268 328 396
#     4  12  24  40  66  92 126 170 226 268 332 402
#     4  10  23  44  66  94 134 172 216 276 340 400
#     4  10  22  40  63  93 137 167 223 279 332 397
#     4  11  22  40  66 102 131 176 223 274 337 404
#     4  10  20  41  65  90 127 178 209 277 341 389
#
# _framework density 23.978376999999998
#
# number of rings (size 3 to 8) (size 9 to 14) (size 15 to 20)
#    0.000    1.600    1.333    2.800    2.800    4.267 
#    2.400    5.333    0.000    0.000    0.000    0.000 
#    0.000    0.000    0.000    0.000    0.000    0.000 
#
# Total GULP energy -167427.420185 kJ/mol
# GULP energy per Si atom -5580.914006 kJ/mol
# Density = 2.392380 g / cm^3
# Si number density = 23.978377 Si / 1000 Ang^3
#
#
#
# Elastic Constant Matrix: (Units=GPa)
#
#
# Indices 1 2 3 4 5 6 
#
# 1 117.9953 3.1721 48.6909 0.0000 9.6248 0.0000
# 2 3.1721 24.2614 29.2673 0.0000 1.0493 0.0000
# 3 48.6909 29.2673 130.6566 0.0000 -4.2048 0.0000
# 4 0.0000 0.0000 0.0000 23.6524 0.0000 -2.1669
# 5 9.6248 1.0493 -4.2048 0.0000 47.6326 0.0000
# 6 0.0000 0.0000 0.0000 -2.1669 0.0000 19.4302
#
#
#
# Elastic Compliance Matrix: (Units=1/GPa)
#
#
# Indices 1 2 3 4 5 6 
#
# 1 0.010707 0.004985 -0.005195 0.000000 -0.002732 0.000000
# 2 0.004985 0.059068 -0.015207 0.000000 -0.003651 0.000000
# 3 -0.005195 -0.015207 0.013078 0.000000 0.002539 0.000000
# 4 0.000000 0.000000 0.000000 0.042715 0.000000 0.004764
# 5 -0.002732 -0.003651 0.002539 0.000000 0.021851 0.000000
# 6 0.000000 0.000000 0.000000 0.004764 0.000000 0.051998
#
#
# Mechanical properties :
#
#
# Convention : Reuss Voigt Hill
#
# Bulk Modulus (GPa) = 19.22336 48.35266 33.78801
# Shear Modulus (GPa) = 20.19472 30.92857 25.56165
#
# Velocity S-wave (km/s) = 2.90523 3.59535 3.26855
# Velocity P-wave (km/s) = 4.39183 6.11917 5.32599
#
# Compressibility (1/GPa) = 0.05202006
#
# Stress axis : x y z
#
# Youngs Moduli (GPa) = 93.39347 16.92964 76.46688
#
# Poissons Ratio (x) = -0.08439 0.39723
# Poissons Ratio (y) = -0.46555 1.16279
# Poissons Ratio (z) = 0.48516 0.25744
#
# Static dielectric constant tensor:
#      x y z
#    x 2.043840 0.000000 -0.085070 
#    y 0.000000 1.956010 0.000000 
#    z -0.085070 0.000000 1.956620 
# 
# From -- ./inp_files/222570.got.cif
#   From: 2010.05.17/outbox.cif.g08.bks.cpg/sg15_112_cif.got.tgz:222570.got - 2010.06.03 18:47:42.
