data_PCOD9277654
_publ_section_title
;
Structure prediction by ZEFSAII (Michael W. Deem and Ramdas Pophale) SiO2 
 PCOD9277654
Probable space group: C 2/C
;
_chemical_formula_sum "Si O2"
_cell_formula_units_Z 64
_cell_length_a 22.332435
_cell_length_b 16.465444
_cell_length_c 8.337220
_cell_angle_alpha 90.000000
_cell_angle_beta 51.931987
_cell_angle_gamma 90.000000
_cell_volume 2413.568681
_symmetry_space_group_name_H-M "C 2/C"
_symmetry_group_IT_number 15
_symmetry_cell_setting 'monoclinic'
loop_
_space_group_symop_operation_xyz
x,y,z
-x,y,1/2-z
-x,-y,-z
x,-y,1/2+z
1/2+x,1/2+y,z
1/2-x,1/2+y,1/2-z
1/2-x,1/2-y,-z
1/2+x,1/2-y,1/2+z
loop_
_atom_site_type_symbol
_atom_site_label
_atom_site_fract_x
_atom_site_fract_y
_atom_site_fract_z
Si Si1 0.210899 0.003248 0.503918
Si Si2 0.087937 0.417145 0.056137
Si Si3 0.186884 0.265051 0.965394
Si Si4 0.183205 0.161173 0.414561
Si Si5 0.809787 0.424311 0.112248
Si Si6 0.933694 0.650364 0.253024
Si Si7 0.959229 0.833001 0.153923
Si Si8 0.593561 0.628818 0.244082
O O1 0.130478 0.959761 0.663089
O O2 0.209757 0.067351 0.360120
O O3 0.246604 0.057073 0.584510
O O4 0.268668 0.932710 0.350399
O O5 0.130259 0.502183 0.005871
O O6 0.000000 0.418236 0.250000
O O7 0.132617 0.343805 0.069833
O O8 0.089700 0.398331 0.864128
O O9 0.241449 0.285009 0.723836
O O10 0.129617 0.188822 0.051916
O O11 0.250000 0.250000 0.000000
O O12 0.129654 0.160309 0.658728
O O13 0.129107 0.169505 0.348217
O O14 0.859182 0.344978 0.989129
O O15 0.967597 0.735535 0.136369
O O16 0.000000 0.612744 0.250000
O O17 0.003972 0.871195 0.930681
O O18 0.000000 0.864783 0.250000
#
# Coordination Sequence:
#
# PCOD9277654 Si02
#       8
#     8   8   8   8   8   8   8   8
#     4  12  23  43  68 100 139 183 240 293 360 425
#     4  12  25  43  68 102 145 187 238 297 355 435
#     4  10  20  41  68  99 133 187 239 289 353 417
#     4  10  20  41  66  98 135 179 234 299 349 426
#     4  12  24  42  65 101 141 186 237 289 355 435
#     4  11  25  44  66 101 144 188 230 298 361 431
#     4   9  21  42  67  95 133 178 238 289 362 420
#     4  10  21  40  68  98 132 186 233 290 354 433
#
# _framework density 26.516749999999998
#
# number of rings (size 3 to 8) (size 9 to 14) (size 15 to 20)
#    0.000    1.250    3.750    1.875    3.500    2.500 
#    4.500    1.250    0.000    0.000    0.000    0.000 
#    0.000    0.000    0.000    0.000    0.000    0.000 
#
# Total GULP energy -179015.612088 kJ/mol
# GULP energy per Si atom -5594.237878 kJ/mol
# Density = 2.645640 g / cm^3
# Si number density = 26.516750 Si / 1000 Ang^3
#
#
#
# Elastic Constant Matrix: (Units=GPa)
#
#
# Indices 1 2 3 4 5 6 
#
# 1 99.2907 35.7645 37.2584 0.0000 -18.8606 0.0000
# 2 35.7645 60.4045 24.9738 0.0000 -17.7202 0.0000
# 3 37.2584 24.9738 140.0145 0.0000 -43.4853 0.0000
# 4 0.0000 0.0000 0.0000 46.0822 0.0000 -9.8600
# 5 -18.8606 -17.7202 -43.4853 0.0000 49.2060 0.0000
# 6 0.0000 0.0000 0.0000 -9.8600 0.0000 30.6315
#
#
#
# Elastic Compliance Matrix: (Units=1/GPa)
#
#
# Indices 1 2 3 4 5 6 
#
# 1 0.013497 -0.006875 -0.002105 0.000000 0.000837 0.000000
# 2 -0.006875 0.022310 -0.000652 0.000000 0.004823 0.000000
# 3 -0.002105 -0.000652 0.010331 0.000000 0.008088 0.000000
# 4 0.000000 0.000000 0.000000 0.023305 0.000000 0.007502
# 5 0.000837 0.004823 0.008088 0.000000 0.029528 0.000000
# 6 0.000000 0.000000 0.000000 0.007502 0.000000 0.035061
#
#
# Mechanical properties :
#
#
# Convention : Reuss Voigt Hill
#
# Bulk Modulus (GPa) = 37.21299 55.07814 46.14556
# Shear Modulus (GPa) = 30.81576 38.63146 34.72361
#
# Velocity S-wave (km/s) = 3.41269 3.82104 3.62262
# Velocity P-wave (km/s) = 5.43993 6.34691 5.91084
#
# Compressibility (1/GPa) = 0.02687234
#
# Stress axis : x y z
#
# Youngs Moduli (GPa) = 74.09091 44.82239 96.80065
#
# Poissons Ratio (x) = 0.30817 0.20380
# Poissons Ratio (y) = 0.50940 0.06311
# Poissons Ratio (z) = 0.15599 0.02922
#
# Static dielectric constant tensor:
#      x y z
#    x 2.063670 0.000000 0.018630 
#    y 0.000000 2.123280 0.000000 
#    z 0.018630 0.000000 2.204870 
# 
# From -- ./inp_files/57869.got.cif
#   From: 2010.05.17/outbox.cif.g08.bks.cpg/sg15_29_cif.got.tgz:57869.got - 2010.06.03 18:47:42.
