data_PCOD9277906
_publ_section_title
;
Structure prediction by ZEFSAII (Michael W. Deem and Ramdas Pophale) SiO2 
 PCOD9277906
Probable space group: C 2/C
;
_chemical_formula_sum "Si O2"
_cell_formula_units_Z 56
_cell_length_a 17.673577
_cell_length_b 28.144447
_cell_length_c 5.356914
_cell_angle_alpha 90.000000
_cell_angle_beta 76.310634
_cell_angle_gamma 90.000000
_cell_volume 2588.905836
_symmetry_space_group_name_H-M "C 2/C"
_symmetry_group_IT_number 15
_symmetry_cell_setting 'monoclinic'
loop_
_space_group_symop_operation_xyz
x,y,z
-x,y,1/2-z
-x,-y,-z
x,-y,1/2+z
1/2+x,1/2+y,z
1/2-x,1/2+y,1/2-z
1/2-x,1/2-y,-z
1/2+x,1/2-y,1/2+z
loop_
_atom_site_type_symbol
_atom_site_label
_atom_site_fract_x
_atom_site_fract_y
_atom_site_fract_z
Si Si1 0.292489 0.195079 0.174247
Si Si2 0.000000 0.163107 0.250000
Si Si3 0.548643 0.135780 0.467493
Si Si4 0.404053 0.972846 0.462019
Si Si5 0.000000 0.222360 0.750000
Si Si6 0.216191 0.974607 0.573003
Si Si7 0.662057 0.369754 0.517809
Si Si8 0.167888 0.213118 0.689540
O O1 0.371567 0.164911 0.120269
O O2 0.231694 0.162441 0.073064
O O3 0.245741 0.204470 0.467938
O O4 0.315992 0.249859 0.095633
O O5 0.989433 0.195611 0.498347
O O6 0.079657 0.134300 0.222052
O O7 0.500000 0.141076 0.250000
O O8 0.568456 0.080236 0.497258
O O9 0.500000 0.152034 0.750000
O O10 0.309913 0.972574 0.520239
O O11 0.426812 0.008027 0.670633
O O12 0.090592 0.239088 0.636018
O O13 0.188046 0.923542 0.502074
O O14 0.191323 0.010999 0.372759
O O15 0.648102 0.341656 0.270935
#
# Coordination Sequence:
#
# PCOD9277906 Si02
#       8
#     8   4   8   8   4   8   8   8
#     4  11  24  45  67 100 135 188 229 278 339 413
#     4  10  22  38  68 101 130 170 218 269 336 394
#     4  12  28  45  65 100 141 182 226 289 347 392
#     4  10  21  40  67  94 128 176 232 280 332 404
#     4  10  20  42  62 105 130 172 216 283 320 392
#     4  10  23  39  67  99 128 170 222 273 337 403
#     4  11  22  43  70  97 137 175 224 280 334 412
#     4  10  24  41  73  98 137 178 236 273 343 401
#
# _framework density 21.630759000000001
#
# number of rings (size 3 to 8) (size 9 to 14) (size 15 to 20)
#    0.000    1.429    2.857    1.286    5.000    2.857 
#    5.143    0.714    0.000    0.000    0.000    0.000 
#    0.000    0.000    0.000    0.000    0.000    0.000 
#
# Total GULP energy -155876.873184 kJ/mol
# GULP energy per Si atom -5567.031185 kJ/mol
# Density = 2.158153 g / cm^3
# Si number density = 21.630759 Si / 1000 Ang^3
#
#
#
# Elastic Constant Matrix: (Units=GPa)
#
#
# Indices 1 2 3 4 5 6 
#
# 1 126.3842 33.6055 32.9583 0.0000 -8.3877 0.0000
# 2 33.6055 87.2821 11.5190 0.0000 -3.3098 0.0000
# 3 32.9583 11.5190 92.0270 0.0000 -4.6125 0.0000
# 4 0.0000 0.0000 0.0000 7.2476 0.0000 10.4473
# 5 -8.3877 -3.3098 -4.6125 0.0000 33.4954 0.0000
# 6 0.0000 0.0000 0.0000 10.4473 0.0000 33.3635
#
#
#
# Elastic Compliance Matrix: (Units=1/GPa)
#
#
# Indices 1 2 3 4 5 6 
#
# 1 0.009667 -0.003266 -0.002969 0.000000 0.001689 0.000000
# 2 -0.003266 0.012784 -0.000411 0.000000 0.000389 0.000000
# 3 -0.002969 -0.000411 0.012025 0.000000 0.000872 0.000000
# 4 0.000000 0.000000 0.000000 0.251498 0.000000 -0.078753
# 5 0.001689 0.000389 0.000872 0.000000 0.030436 0.000000
# 6 0.000000 0.000000 0.000000 -0.078753 0.000000 0.054633
#
#
# Mechanical properties :
#
#
# Convention : Reuss Voigt Hill
#
# Bulk Modulus (GPa) = 47.20558 51.31765 49.26162
# Shear Modulus (GPa) = 12.77480 29.99534 21.38507
#
# Velocity S-wave (km/s) = 2.43283 3.72788 3.14768
# Velocity P-wave (km/s) = 5.45548 6.50426 6.00282
#
# Compressibility (1/GPa) = 0.02118394
#
# Stress axis : x y z
#
# Youngs Moduli (GPa) = 103.44319 78.22505 83.16218
#
# Poissons Ratio (x) = 0.25550 0.24688
# Poissons Ratio (y) = 0.33787 0.03417
# Poissons Ratio (z) = 0.30709 0.03214
#
# Static dielectric constant tensor:
#      x y z
#    x 1.989640 0.000000 -0.060370 
#    y 0.000000 1.760490 0.000000 
#    z -0.060370 0.000000 1.850570 
# 
# From -- ./inp_files/11516.got.cif
#   From: 2010.05.17/outbox.cif.g08.bks.cpg/sg15_6_cif.got.tgz:11516.got - 2010.06.03 18:47:42.
