data_PCOD9277817
_publ_section_title
;
Structure prediction by ZEFSAII (Michael W. Deem and Ramdas Pophale) SiO2 
 PCOD9277817
Probable space group: C 2/C
;
_chemical_formula_sum "Si O2"
_cell_formula_units_Z 44
_cell_length_a 11.203045
_cell_length_b 13.176364
_cell_length_c 15.484906
_cell_angle_alpha 90.000000
_cell_angle_beta 63.792259
_cell_angle_gamma 90.000000
_cell_volume 2050.826302
_symmetry_space_group_name_H-M "C 2/C"
_symmetry_group_IT_number 15
_symmetry_cell_setting 'monoclinic'
loop_
_space_group_symop_operation_xyz
x,y,z
-x,y,1/2-z
-x,-y,-z
x,-y,1/2+z
1/2+x,1/2+y,z
1/2-x,1/2+y,1/2-z
1/2-x,1/2-y,-z
1/2+x,1/2-y,1/2+z
loop_
_atom_site_type_symbol
_atom_site_label
_atom_site_fract_x
_atom_site_fract_y
_atom_site_fract_z
Si Si1 0.500000 0.658537 0.250000
Si Si2 0.228095 0.995369 0.161761
Si Si3 0.092463 0.231239 0.396961
Si Si4 0.980615 0.633323 0.079192
Si Si5 0.266777 0.370654 0.515405
Si Si6 0.367753 0.695660 0.734363
O O1 0.628272 0.587954 0.202298
O O2 0.510558 0.718220 0.336080
O O3 0.374762 0.043217 0.112189
O O4 0.191388 0.918115 0.251293
O O5 0.201094 0.934747 0.080598
O O6 0.114725 0.133449 0.452547
O O7 0.244163 0.249220 0.318993
O O8 0.033297 0.325138 0.470200
O O9 0.911537 0.733435 0.141792
O O10 0.114639 0.601073 0.088089
O O11 0.250000 0.250000 0.500000
O O12 0.500000 0.689369 0.750000
#
# Coordination Sequence:
#
# PCOD9277817 Si02
#       6
#     4   8   8   8   8   8
#     4  12  28  44  64 100 144 178 228 286 346 398
#     4  12  24  41  70 104 138 176 226 282 339 408
#     4  11  24  46  67  98 140 183 227 280 342 400
#     4  11  23  42  75 102 137 176 227 286 341 401
#     4  10  20  41  71 100 126 176 229 273 330 406
#     4  12  21  42  74 101 135 180 229 280 328 408
#
# _framework density 21.454765999999999
#
# number of rings (size 3 to 8) (size 9 to 14) (size 15 to 20)
#    0.000    0.727    8.182    1.636    0.000    1.455 
#    0.000    0.000    2.000    0.000    0.000    0.000 
#    0.000    0.000    0.000    0.000    0.000    0.000 
#
# Total GULP energy -122645.894835 kJ/mol
# GULP energy per Si atom -5574.813402 kJ/mol
# Density = 2.140593 g / cm^3
# Si number density = 21.454766 Si / 1000 Ang^3
#
#
#
# Elastic Constant Matrix: (Units=GPa)
#
#
# Indices 1 2 3 4 5 6 
#
# 1 48.5100 34.0430 17.2055 0.0000 9.7307 0.0000
# 2 34.0430 77.1330 36.8567 0.0000 6.2782 0.0000
# 3 17.2055 36.8567 87.8312 0.0000 -8.3047 0.0000
# 4 0.0000 0.0000 0.0000 43.7163 0.0000 -4.6961
# 5 9.7307 6.2782 -8.3047 0.0000 38.2022 0.0000
# 6 0.0000 0.0000 0.0000 -4.6961 0.0000 21.7225
#
#
#
# Elastic Compliance Matrix: (Units=1/GPa)
#
#
# Indices 1 2 3 4 5 6 
#
# 1 0.031189 -0.012587 -0.001412 0.000000 -0.006183 0.000000
# 2 -0.012587 0.021995 -0.006945 0.000000 -0.001918 0.000000
# 3 -0.001412 -0.006945 0.015027 0.000000 0.004768 0.000000
# 4 0.000000 0.000000 0.000000 0.023419 0.000000 0.005063
# 5 -0.006183 -0.001918 0.004768 0.000000 0.029103 0.000000
# 6 0.000000 0.000000 0.000000 0.005063 0.000000 0.047130
#
#
# Mechanical properties :
#
#
# Convention : Reuss Voigt Hill
#
# Bulk Modulus (GPa) = 37.99192 43.29829 40.64511
# Shear Modulus (GPa) = 22.88053 29.08611 25.98332
#
# Velocity S-wave (km/s) = 3.26920 3.68597 3.48382
# Velocity P-wave (km/s) = 5.65656 6.19194 5.93030
#
# Compressibility (1/GPa) = 0.02632139
#
# Stress axis : x y z
#
# Youngs Moduli (GPa) = 32.06278 45.46497 66.54483
#
# Poissons Ratio (x) = 0.57228 0.09398
# Poissons Ratio (y) = 0.40358 0.46218
# Poissons Ratio (z) = 0.04528 0.31577
#
# Static dielectric constant tensor:
#      x y z
#    x 1.867530 0.000000 0.053010 
#    y 0.000000 1.810360 0.000000 
#    z 0.053010 0.000000 1.851030 
# 
# From -- ./inp_files/143900.got.cif
#   From: 2010.05.17/outbox.cif.g08.bks.cpg/sg15_72_cif.got.tgz:143900.got - 2010.06.03 18:47:42.
