data_PCOD9277956
_publ_section_title
;
Structure prediction by ZEFSAII (Michael W. Deem and Ramdas Pophale) SiO2 
 PCOD9277956
Probable space group: C 2/C
;
_chemical_formula_sum "Si O2"
_cell_formula_units_Z 56
_cell_length_a 12.183762
_cell_length_b 21.541008
_cell_length_c 10.423613
_cell_angle_alpha 90.000000
_cell_angle_beta 110.650351
_cell_angle_gamma 90.000000
_cell_volume 2559.914933
_symmetry_space_group_name_H-M "C 2/C"
_symmetry_group_IT_number 15
_symmetry_cell_setting 'monoclinic'
loop_
_space_group_symop_operation_xyz
x,y,z
-x,y,1/2-z
-x,-y,-z
x,-y,1/2+z
1/2+x,1/2+y,z
1/2-x,1/2+y,1/2-z
1/2-x,1/2-y,-z
1/2+x,1/2-y,1/2+z
loop_
_atom_site_type_symbol
_atom_site_label
_atom_site_fract_x
_atom_site_fract_y
_atom_site_fract_z
Si Si1 0.137419 0.926516 0.781792
Si Si2 0.506258 0.728821 0.905747
Si Si3 0.390615 0.287369 0.797442
Si Si4 0.761277 0.198364 0.892267
Si Si5 0.991486 0.622388 0.059371
Si Si6 0.325128 0.938795 0.665224
Si Si7 0.157706 0.569311 0.932366
O O1 0.143605 0.851478 0.784783
O O2 0.193406 0.941313 0.665863
O O3 0.000000 0.943214 0.750000
O O4 0.234460 0.949157 0.924974
O O5 0.500000 0.722435 0.750000
O O6 0.395712 0.692492 0.916671
O O7 0.501035 0.802966 0.935217
O O8 0.600093 0.702653 0.045775
O O9 0.500000 0.266199 0.750000
O O10 0.297481 0.233302 0.749392
O O11 0.702709 0.132980 0.890349
O O12 0.750000 0.250000 0.000000
O O13 0.092746 0.597348 0.198631
O O14 0.865141 0.597330 0.053048
O O15 0.036844 0.589775 0.950050
O O16 0.361128 0.009890 0.662439
#
# Coordination Sequence:
#
# PCOD9277956 Si02
#       7
#     8   8   8   8   8   8   8
#     4  10  21  40  64  87 125 176 226 276 328 404
#     4  12  24  42  67 100 136 176 218 286 354 396
#     4  11  21  39  68  97 123 175 225 268 341 406
#     4  12  20  41  66  94 131 169 226 279 328 415
#     4  10  20  42  63  90 135 169 214 279 342 408
#     4  10  21  38  61  91 122 174 217 264 345 389
#     4  11  21  39  65  92 127 175 225 277 331 408
#
# _framework density 21.875727000000001
#
# number of rings (size 3 to 8) (size 9 to 14) (size 15 to 20)
#    0.000    1.143    5.714    2.143    0.000    1.143 
#   12.857    0.714    0.000    0.000    0.000    0.000 
#    0.000    0.000    0.000    0.000    0.000    0.000 
#
# Total GULP energy -156000.956875 kJ/mol
# GULP energy per Si atom -5571.462746 kJ/mol
# Density = 2.182594 g / cm^3
# Si number density = 21.875727 Si / 1000 Ang^3
#
#
#
# Elastic Constant Matrix: (Units=GPa)
#
#
# Indices 1 2 3 4 5 6 
#
# 1 110.3144 2.6085 1.2703 0.0000 -20.8102 0.0000
# 2 2.6085 59.7458 -7.5047 0.0000 -9.5432 0.0000
# 3 1.2703 -7.5047 52.5368 0.0000 -0.7174 0.0000
# 4 0.0000 0.0000 0.0000 29.5991 0.0000 -17.6188
# 5 -20.8102 -9.5432 -0.7174 0.0000 25.4298 0.0000
# 6 0.0000 0.0000 0.0000 -17.6188 0.0000 32.7327
#
#
#
# Elastic Compliance Matrix: (Units=1/GPa)
#
#
# Indices 1 2 3 4 5 6 
#
# 1 0.010776 0.000999 0.000008 0.000000 0.009193 0.000000
# 2 0.000999 0.018270 0.002691 0.000000 0.007750 0.000000
# 3 0.000008 0.002691 0.019440 0.000000 0.001565 0.000000
# 4 0.000000 0.000000 0.000000 0.049713 0.000000 0.026759
# 5 0.009193 0.007750 0.001565 0.000000 0.049800 0.000000
# 6 0.000000 0.000000 0.000000 0.026759 0.000000 0.044954
#
#
# Mechanical properties :
#
#
# Convention : Reuss Voigt Hill
#
# Bulk Modulus (GPa) = 17.89504 23.92726 20.91115
# Shear Modulus (GPa) = 24.48791 32.63383 28.56087
#
# Velocity S-wave (km/s) = 3.34939 3.86655 3.61722
# Velocity P-wave (km/s) = 4.81206 5.55834 5.19861
#
# Compressibility (1/GPa) = 0.05588140
#
# Stress axis : x y z
#
# Youngs Moduli (GPa) = 92.80287 54.73493 51.44054
#
# Poissons Ratio (x) = -0.05468 -0.00040
# Poissons Ratio (y) = -0.09270 -0.13845
# Poissons Ratio (z) = -0.00071 -0.14732
#
# Static dielectric constant tensor:
#      x y z
#    x 1.753380 0.000000 -0.118640 
#    y 0.000000 1.744500 0.000000 
#    z -0.118640 0.000000 1.868600 
# 
# From -- ./inp_files/89647.got.cif
#   From: 2010.05.17/outbox.cif.g08.bks.cpg/sg15_45_cif.got.tgz:89647.got - 2010.06.03 18:47:42.
