data_PCOD9277881
_publ_section_title
;
Structure prediction by ZEFSAII (Michael W. Deem and Ramdas Pophale) SiO2 
 PCOD9277881
Probable space group: C 2/C
;
_chemical_formula_sum "Si O2"
_cell_formula_units_Z 52
_cell_length_a 7.635943
_cell_length_b 29.788625
_cell_length_c 16.489494
_cell_angle_alpha 90.000000
_cell_angle_beta 135.783691
_cell_angle_gamma 90.000000
_cell_volume 2615.671433
_symmetry_space_group_name_H-M "C 2/C"
_symmetry_group_IT_number 15
_symmetry_cell_setting 'monoclinic'
loop_
_space_group_symop_operation_xyz
x,y,z
-x,y,1/2-z
-x,-y,-z
x,-y,1/2+z
1/2+x,1/2+y,z
1/2-x,1/2+y,1/2-z
1/2-x,1/2-y,-z
1/2+x,1/2-y,1/2+z
loop_
_atom_site_type_symbol
_atom_site_label
_atom_site_fract_x
_atom_site_fract_y
_atom_site_fract_z
Si Si1 0.000000 0.793493 0.750000
Si Si2 0.129958 0.936913 0.525893
Si Si3 0.486844 0.165389 0.488992
Si Si4 0.450820 0.748917 0.394196
Si Si5 0.410059 0.976833 0.132799
Si Si6 0.781716 0.661024 0.111247
Si Si7 0.256095 0.923863 0.379739
O O1 0.198006 0.822872 0.867879
O O2 0.128296 0.761629 0.724724
O O3 0.144038 0.886683 0.564606
O O4 0.160717 0.936653 0.438143
O O5 0.868655 0.956899 0.471381
O O6 0.358773 0.970024 0.624240
O O7 0.613209 0.203362 0.587773
O O8 0.616458 0.166210 0.445026
O O9 0.545853 0.116987 0.546250
O O10 0.365033 0.706119 0.416562
O O11 0.750000 0.750000 0.500000
O O12 0.500000 0.959210 0.250000
O O13 0.602527 0.962199 0.126153
O O14 0.000000 0.657925 0.250000
O O15 0.000000 0.909719 0.250000
#
# Coordination Sequence:
#
# PCOD9277881 Si02
#       7
#     4   8   8   8   8   8   8
#     4  10  20  42  60  90 126 158 216 268 298 380
#     4  10  24  41  65  97 122 167 215 260 325 376
#     4  10  23  40  63  93 125 169 214 256 323 376
#     4  10  22  39  60  89 126 165 204 259 316 370
#     4  11  22  42  67  90 130 165 209 266 318 381
#     4  11  21  40  67  89 125 158 212 269 308 375
#     4  11  23  43  63  95 136 167 210 260 319 391
#
# _framework density 19.880172999999999
#
# number of rings (size 3 to 8) (size 9 to 14) (size 15 to 20)
#    0.000    1.538    3.077    1.385    4.308    0.615 
#   12.462    0.000    1.692    0.000    0.000    0.000 
#    0.000    0.000    0.000    0.000    0.000    0.000 
#
# Total GULP energy -144892.298636 kJ/mol
# GULP energy per Si atom -5572.780717 kJ/mol
# Density = 1.983492 g / cm^3
# Si number density = 19.880173 Si / 1000 Ang^3
#
#
#
# Elastic Constant Matrix: (Units=GPa)
#
#
# Indices 1 2 3 4 5 6 
#
# 1 29.9229 -8.5883 0.9391 0.0000 -3.1770 0.0000
# 2 -8.5883 24.7471 -4.1611 0.0000 0.8081 0.0000
# 3 0.9391 -4.1611 73.2352 0.0000 -1.2871 0.0000
# 4 0.0000 0.0000 0.0000 21.8411 0.0000 2.3333
# 5 -3.1770 0.8081 -1.2871 0.0000 21.2388 0.0000
# 6 0.0000 0.0000 0.0000 2.3333 0.0000 23.3809
#
#
#
# Elastic Compliance Matrix: (Units=1/GPa)
#
#
# Indices 1 2 3 4 5 6 
#
# 1 0.037678 0.012965 0.000344 0.000000 0.005164 0.000000
# 2 0.012965 0.045302 0.002414 0.000000 0.000362 0.000000
# 3 0.000344 0.002414 0.013801 0.000000 0.000796 0.000000
# 4 0.000000 0.000000 0.000000 0.046279 0.000000 -0.004618
# 5 0.005164 0.000362 0.000796 0.000000 0.047890 0.000000
# 6 0.000000 0.000000 0.000000 -0.004618 0.000000 0.043231
#
#
# Mechanical properties :
#
#
# Convention : Reuss Voigt Hill
#
# Bulk Modulus (GPa) = 7.79857 11.58717 9.69287
# Shear Modulus (GPa) = 20.36850 22.60655 21.48753
#
# Velocity S-wave (km/s) = 3.20435 3.37581 3.29120
# Velocity P-wave (km/s) = 4.19783 4.58650 4.39646
#
# Compressibility (1/GPa) = 0.12822856
#
# Stress axis : x y z
#
# Youngs Moduli (GPa) = 26.54078 22.07393 72.45654
#
# Poissons Ratio (x) = -0.28619 -0.02494
# Poissons Ratio (y) = -0.34410 -0.17492
# Poissons Ratio (z) = -0.00914 -0.05329
#
# Static dielectric constant tensor:
#      x y z
#    x 1.719780 0.000000 0.017020 
#    y 0.000000 1.803780 0.000000 
#    z 0.017020 0.000000 1.714040 
# 
# From -- ./inp_files/193773.got.cif
#   From: 2010.05.17/outbox.cif.g08.bks.cpg/sg15_97_cif.got.tgz:193773.got - 2010.06.03 18:47:42.
