data_PCOD9277762
_publ_section_title
;
Structure prediction by ZEFSAII (Michael W. Deem and Ramdas Pophale) SiO2 
 PCOD9277762
Probable space group: C 2/C
;
_chemical_formula_sum "Si O2"
_cell_formula_units_Z 60
_cell_length_a 19.667399
_cell_length_b 19.709062
_cell_length_c 8.332515
_cell_angle_alpha 90.000000
_cell_angle_beta 117.168349
_cell_angle_gamma 90.000000
_cell_volume 2873.540497
_symmetry_space_group_name_H-M "C 2/C"
_symmetry_group_IT_number 15
_symmetry_cell_setting 'monoclinic'
loop_
_space_group_symop_operation_xyz
x,y,z
-x,y,1/2-z
-x,-y,-z
x,-y,1/2+z
1/2+x,1/2+y,z
1/2-x,1/2+y,1/2-z
1/2-x,1/2-y,-z
1/2+x,1/2-y,1/2+z
loop_
_atom_site_type_symbol
_atom_site_label
_atom_site_fract_x
_atom_site_fract_y
_atom_site_fract_z
Si Si1 0.000000 0.500000 0.500000
Si Si2 0.727720 0.053785 0.647599
Si Si3 0.102072 0.971077 0.273245
Si Si4 0.072741 0.648675 0.049076
Si Si5 0.138412 0.559116 0.862588
Si Si6 0.457192 0.256011 0.030042
Si Si7 0.184046 0.694680 0.449576
Si Si8 0.955241 0.909712 0.959237
O O1 0.034441 0.421614 0.569580
O O2 0.063440 0.531395 0.693105
O O3 0.813140 0.031113 0.703483
O O4 0.706032 0.066237 0.808215
O O5 0.716764 0.123459 0.542557
O O6 0.667135 0.997675 0.519575
O O7 0.092893 0.939684 0.440276
O O8 0.072630 0.048053 0.223541
O O9 0.042321 0.928659 0.099601
O O10 0.136651 0.677536 0.238360
O O11 0.007940 0.705829 0.978098
O O12 0.113797 0.626189 0.929890
O O13 0.500000 0.265028 0.250000
O O14 0.377100 0.221789 0.987542
O O15 0.446763 0.329699 0.943173
O O16 0.250000 0.750000 0.500000
#
# Coordination Sequence:
#
# PCOD9277762 Si02
#       8
#     4   8   8   8   8   8   8   8
#     4  12  22  44  70  94 140 184 246 298 338 434
#     4  12  23  41  65 105 138 183 228 300 355 428
#     4  10  21  37  70  99 132 172 235 290 344 418
#     4  11  25  42  70 103 136 190 242 298 345 434
#     4  12  25  41  67 102 141 185 243 294 365 420
#     4  10  21  39  66  95 133 180 233 278 344 418
#     4  11  24  42  68  99 141 183 234 285 372 430
#     4  10  20  41  69 100 128 183 232 290 346 419
#
# _framework density 20.880165000000002
#
# number of rings (size 3 to 8) (size 9 to 14) (size 15 to 20)
#    0.000    1.067    4.000    2.800    1.867    2.133 
#    0.000    0.667   23.467    0.000    0.000    0.000 
#    0.000    0.000    0.000    0.000    0.000    0.000 
#
# Total GULP energy -167262.855817 kJ/mol
# GULP energy per Si atom -5575.428527 kJ/mol
# Density = 2.083264 g / cm^3
# Si number density = 20.880165 Si / 1000 Ang^3
#
#
#
# Elastic Constant Matrix: (Units=GPa)
#
#
# Indices 1 2 3 4 5 6 
#
# 1 127.4213 72.7295 58.5457 0.0000 -3.4280 0.0000
# 2 72.7295 137.0681 56.2053 0.0000 8.6813 0.0000
# 3 58.5457 56.2053 54.7663 0.0000 2.9269 0.0000
# 4 0.0000 0.0000 0.0000 36.8019 0.0000 3.4542
# 5 -3.4280 8.6813 2.9269 0.0000 30.6540 0.0000
# 6 0.0000 0.0000 0.0000 3.4542 0.0000 40.9514
#
#
#
# Elastic Compliance Matrix: (Units=1/GPa)
#
#
# Indices 1 2 3 4 5 6 
#
# 1 0.016401 -0.002903 -0.014771 0.000000 0.004067 0.000000
# 2 -0.002903 0.013281 -0.010360 0.000000 -0.003097 0.000000
# 3 -0.014771 -0.010360 0.044842 0.000000 -0.002999 0.000000
# 4 0.000000 0.000000 0.000000 0.027389 0.000000 -0.002310
# 5 0.004067 -0.003097 -0.002999 0.000000 0.034240 0.000000
# 6 0.000000 0.000000 0.000000 -0.002310 0.000000 0.024614
#
#
# Mechanical properties :
#
#
# Convention : Reuss Voigt Hill
#
# Bulk Modulus (GPa) = 54.18509 77.13518 65.66014
# Shear Modulus (GPa) = 22.42267 30.46646 26.44456
#
# Velocity S-wave (km/s) = 3.28056 3.82397 3.56264
# Velocity P-wave (km/s) = 6.35266 7.51792 6.95972
#
# Compressibility (1/GPa) = 0.01845526
#
# Stress axis : x y z
#
# Youngs Moduli (GPa) = 60.97100 75.29769 22.30038
#
# Poissons Ratio (x) = 0.21862 0.32939
# Poissons Ratio (y) = 0.17702 0.23104
# Poissons Ratio (z) = 0.90059 0.78011
#
# Static dielectric constant tensor:
#      x y z
#    x 1.828100 0.000000 -0.049980 
#    y 0.000000 1.705010 0.000000 
#    z -0.049980 0.000000 1.953680 
# 
# From -- ./inp_files/57047.got.cif
#   From: 2010.05.17/outbox.cif.g08.bks.cpg/sg15_29_cif.got.tgz:57047.got - 2010.06.03 18:47:42.
