data_PCOD9277213
_publ_section_title
;
Structure prediction by ZEFSAII (Michael W. Deem and Ramdas Pophale) SiO2 
 PCOD9277213
Probable space group: C 2/C
;
_chemical_formula_sum "Si O2"
_cell_formula_units_Z 56
_cell_length_a 8.779298
_cell_length_b 28.283248
_cell_length_c 14.508324
_cell_angle_alpha 90.000000
_cell_angle_beta 130.147375
_cell_angle_gamma 90.000000
_cell_volume 2753.724502
_symmetry_space_group_name_H-M "C 2/C"
_symmetry_group_IT_number 15
_symmetry_cell_setting 'monoclinic'
loop_
_space_group_symop_operation_xyz
x,y,z
-x,y,1/2-z
-x,-y,-z
x,-y,1/2+z
1/2+x,1/2+y,z
1/2-x,1/2+y,1/2-z
1/2-x,1/2-y,-z
1/2+x,1/2-y,1/2+z
loop_
_atom_site_type_symbol
_atom_site_label
_atom_site_fract_x
_atom_site_fract_y
_atom_site_fract_z
Si Si1 0.615823 0.052011 0.390650
Si Si2 0.000000 0.162582 0.250000
Si Si3 0.051875 0.703019 0.578392
Si Si4 0.129627 0.798590 0.995521
Si Si5 0.810151 0.553759 0.608788
Si Si6 0.619914 0.106790 0.055893
Si Si7 0.481227 0.384458 0.057996
Si Si8 0.500000 0.325075 0.250000
O O1 0.500000 0.052054 0.250000
O O2 0.477582 0.065297 0.422946
O O3 0.772045 0.094235 0.448664
O O4 0.710666 0.999995 0.433985
O O5 0.048126 0.193915 0.358946
O O6 0.188860 0.127875 0.316927
O O7 0.291347 0.703682 0.686753
O O8 0.973409 0.751817 0.502202
O O9 0.872536 0.701563 0.586404
O O10 0.015145 0.653634 0.511384
O O11 0.056223 0.843552 0.020811
O O12 0.830311 0.586457 0.525939
O O13 0.632172 0.572284 0.602854
O O14 0.000000 0.557266 0.750000
O O15 0.476287 0.360068 0.154653
#
# Coordination Sequence:
#
# PCOD9277213 Si02
#       8
#     8   4   8   8   8   8   8   4
#     4  11  25  43  66  97 135 170 221 280 334 388
#     4  10  20  40  69  98 126 176 219 268 330 402
#     4  10  22  44  65  99 129 178 217 273 330 405
#     4  10  23  42  71  92 135 174 225 262 337 408
#     4  11  24  43  69  94 129 176 227 269 334 397
#     4  11  21  45  68  95 133 170 224 273 330 399
#     4  12  24  44  65  98 134 175 219 278 331 400
#     4  12  26  40  67  98 142 170 223 278 342 384
#
# _framework density 20.336092000000001
#
# number of rings (size 3 to 8) (size 9 to 14) (size 15 to 20)
#    0.000    1.143    4.286    2.571    0.000    4.000 
#    5.143    0.000    0.000    0.000    0.000    0.000 
#    0.000    0.000    0.000    0.000    0.000    0.000 
#
# Total GULP energy -156073.462912 kJ/mol
# GULP energy per Si atom -5574.052247 kJ/mol
# Density = 2.028981 g / cm^3
# Si number density = 20.336092 Si / 1000 Ang^3
#
#
#
# Elastic Constant Matrix: (Units=GPa)
#
#
# Indices 1 2 3 4 5 6 
#
# 1 101.5602 46.3275 45.9384 0.0000 14.7763 0.0000
# 2 46.3275 122.8591 25.7646 0.0000 3.4746 0.0000
# 3 45.9384 25.7646 59.9450 0.0000 7.9478 0.0000
# 4 0.0000 0.0000 0.0000 36.5144 0.0000 19.2602
# 5 14.7763 3.4746 7.9478 0.0000 37.4344 0.0000
# 6 0.0000 0.0000 0.0000 19.2602 0.0000 26.3008
#
#
#
# Elastic Compliance Matrix: (Units=1/GPa)
#
#
# Indices 1 2 3 4 5 6 
#
# 1 0.017251 -0.004100 -0.010913 0.000000 -0.004112 0.000000
# 2 -0.004100 0.009920 -0.001249 0.000000 0.000963 0.000000
# 3 -0.010913 -0.001249 0.025719 0.000000 -0.001037 0.000000
# 4 0.000000 0.000000 0.000000 0.044623 0.000000 -0.032677
# 5 -0.004112 0.000963 -0.001037 0.000000 0.028467 0.000000
# 6 0.000000 0.000000 0.000000 -0.032677 0.000000 0.061952
#
#
# Mechanical properties :
#
#
# Convention : Reuss Voigt Hill
#
# Bulk Modulus (GPa) = 49.10106 57.82503 53.46305
# Shear Modulus (GPa) = 22.00262 31.13882 26.57072
#
# Velocity S-wave (km/s) = 3.29287 3.91731 3.61859
# Velocity P-wave (km/s) = 6.21727 6.99692 6.61859
#
# Compressibility (1/GPa) = 0.02036616
#
# Stress axis : x y z
#
# Youngs Moduli (GPa) = 57.96721 100.80385 38.88126
#
# Poissons Ratio (x) = 0.41332 0.42430
# Poissons Ratio (y) = 0.23768 0.04857
# Poissons Ratio (z) = 0.63258 0.12593
#
# Static dielectric constant tensor:
#      x y z
#    x 1.767480 0.000000 0.041180 
#    y 0.000000 1.730790 0.000000 
#    z 0.041180 0.000000 1.691530 
# 
# From -- ./inp_files/139604.got.cif
#   From: 2010.05.17/outbox.cif.g08.bks.cpg/sg15_70_cif.got.tgz:139604.got - 2010.06.03 18:47:42.
