data_PCOD9277984
_publ_section_title
;
Structure prediction by ZEFSAII (Michael W. Deem and Ramdas Pophale) SiO2 
 PCOD9277984
Probable space group: C 2/C
;
_chemical_formula_sum "Si O2"
_cell_formula_units_Z 64
_cell_length_a 12.450433
_cell_length_b 13.743602
_cell_length_c 18.132394
_cell_angle_alpha 90.000000
_cell_angle_beta 71.684164
_cell_angle_gamma 90.000000
_cell_volume 2945.515676
_symmetry_space_group_name_H-M "C 2/C"
_symmetry_group_IT_number 15
_symmetry_cell_setting 'monoclinic'
loop_
_space_group_symop_operation_xyz
x,y,z
-x,y,1/2-z
-x,-y,-z
x,-y,1/2+z
1/2+x,1/2+y,z
1/2-x,1/2+y,1/2-z
1/2-x,1/2-y,-z
1/2+x,1/2-y,1/2+z
loop_
_atom_site_type_symbol
_atom_site_label
_atom_site_fract_x
_atom_site_fract_y
_atom_site_fract_z
Si Si1 0.614086 0.392359 0.936984
Si Si2 0.268257 0.548473 0.496367
Si Si3 0.029023 0.559667 0.568098
Si Si4 0.720823 0.956464 0.349222
Si Si5 0.912522 0.990714 0.202749
Si Si6 0.822395 0.260962 0.842990
Si Si7 0.901492 0.234548 0.509610
Si Si8 0.074189 0.238385 0.834714
O O1 0.573996 0.437771 0.868202
O O2 0.726293 0.329582 0.896476
O O3 0.640206 0.478345 0.987756
O O4 0.517034 0.326189 0.991080
O O5 0.152471 0.524839 0.566682
O O6 0.245042 0.520042 0.416991
O O7 0.311186 0.658797 0.495892
O O8 0.060163 0.670975 0.543123
O O9 0.000000 0.500000 0.500000
O O10 0.912964 0.551928 0.637561
O O11 0.773374 0.849564 0.355697
O O12 0.788742 0.997637 0.265426
O O13 0.000000 0.009160 0.250000
O O14 0.926901 0.878869 0.174363
O O15 0.856066 0.278373 0.750093
O O16 0.942977 0.270017 0.858192
O O17 0.870693 0.264589 0.599466
#
# Coordination Sequence:
#
# PCOD9277984 Si02
#       8
#     8   8   8   8   8   8   8   8
#     4  12  25  38  68 104 126 159 228 276 320 376
#     4  11  24  40  64  99 127 166 216 272 328 379
#     4  10  24  42  61  91 127 177 210 255 328 392
#     4  10  20  42  64  86 131 176 212 257 325 397
#     4  11  21  41  65  91 130 171 209 265 335 389
#     4  10  21  39  61  93 128 165 217 261 324 386
#     4  12  23  40  68  96 131 161 223 274 321 383
#     4  10  21  38  65  90 125 174 209 265 327 385
#
# _framework density 21.727944000000001
#
# number of rings (size 3 to 8) (size 9 to 14) (size 15 to 20)
#    0.000    1.250    5.000    2.250    3.500    3.000 
#    2.250    1.250    0.000    0.000    0.000    0.000 
#    0.000    0.000    0.000    0.000    0.000    0.000 
#
# Total GULP energy -178904.205120 kJ/mol
# GULP energy per Si atom -5590.756410 kJ/mol
# Density = 2.167849 g / cm^3
# Si number density = 21.727944 Si / 1000 Ang^3
#
#
#
# Elastic Constant Matrix: (Units=GPa)
#
#
# Indices 1 2 3 4 5 6 
#
# 1 78.3806 12.2882 24.2092 0.0000 -28.5339 0.0000
# 2 12.2882 63.4618 8.0560 0.0000 -3.4374 0.0000
# 3 24.2092 8.0560 79.9688 0.0000 -9.4696 0.0000
# 4 0.0000 0.0000 0.0000 13.8797 0.0000 -9.8654
# 5 -28.5339 -3.4374 -9.4696 0.0000 38.3275 0.0000
# 6 0.0000 0.0000 0.0000 -9.8654 0.0000 39.6978
#
#
#
# Elastic Compliance Matrix: (Units=1/GPa)
#
#
# Indices 1 2 3 4 5 6 
#
# 1 0.019126 -0.002490 -0.003996 0.000000 0.013028 0.000000
# 2 -0.002490 0.016328 -0.000965 0.000000 -0.000628 0.000000
# 3 -0.003996 -0.000965 0.013855 0.000000 0.000361 0.000000
# 4 0.000000 0.000000 0.000000 0.087504 0.000000 0.021746
# 5 0.013028 -0.000628 0.000361 0.000000 0.035823 0.000000
# 6 0.000000 0.000000 0.000000 0.021746 0.000000 0.030594
#
#
# Mechanical properties :
#
#
# Convention : Reuss Voigt Hill
#
# Bulk Modulus (GPa) = 29.06597 34.54643 31.80620
# Shear Modulus (GPa) = 21.77672 30.19816 25.98744
#
# Velocity S-wave (km/s) = 3.16926 3.73209 3.46213
# Velocity P-wave (km/s) = 5.17673 5.87413 5.53642
#
# Compressibility (1/GPa) = 0.03440449
#
# Stress axis : x y z
#
# Youngs Moduli (GPa) = 52.28542 61.24355 72.17734
#
# Poissons Ratio (x) = 0.15252 0.28845
# Poissons Ratio (y) = 0.13021 0.06968
# Poissons Ratio (z) = 0.20895 0.05912
#
# Static dielectric constant tensor:
#      x y z
#    x 1.879880 0.000000 -0.082290 
#    y 0.000000 1.825420 0.000000 
#    z -0.082290 0.000000 1.810660 
# 
# From -- ./inp_files/238732.got.cif
#   From: 2010.05.17/outbox.cif.g08.bks.cpg/sg15_120_cif.got.tgz:238732.got - 2010.06.03 18:47:42.
