data_PCOD9277103
_publ_section_title
;
Structure prediction by ZEFSAII (Michael W. Deem and Ramdas Pophale) SiO2 
 PCOD9277103
Probable space group: C 2/C
;
_chemical_formula_sum "Si O2"
_cell_formula_units_Z 40
_cell_length_a 12.630810
_cell_length_b 14.056332
_cell_length_c 10.093328
_cell_angle_alpha 90.000000
_cell_angle_beta 104.462473
_cell_angle_gamma 90.000000
_cell_volume 1735.212433
_symmetry_space_group_name_H-M "C 2/C"
_symmetry_group_IT_number 15
_symmetry_cell_setting 'monoclinic'
loop_
_space_group_symop_operation_xyz
x,y,z
-x,y,1/2-z
-x,-y,-z
x,-y,1/2+z
1/2+x,1/2+y,z
1/2-x,1/2+y,1/2-z
1/2-x,1/2-y,-z
1/2+x,1/2-y,1/2+z
loop_
_atom_site_type_symbol
_atom_site_label
_atom_site_fract_x
_atom_site_fract_y
_atom_site_fract_z
Si Si1 0.686150 0.450166 0.816561
Si Si2 0.878199 0.093616 0.910546
Si Si3 0.937916 0.453558 0.860021
Si Si4 0.670734 0.224360 0.780076
Si Si5 0.509663 0.226115 0.979464
O O1 0.611355 0.515046 0.699565
O O2 0.681709 0.338377 0.781321
O O3 0.657878 0.455699 0.962997
O O4 0.957522 0.341432 0.889970
O O5 0.688918 0.978124 0.675305
O O6 0.781411 0.166406 0.835834
O O7 0.000000 0.486524 0.750000
O O8 0.894949 0.700909 0.874598
O O9 0.000000 0.500000 0.000000
O O10 0.597082 0.207578 0.888388
O O11 0.478703 0.336040 0.474334
#
# Coordination Sequence:
#
# PCOD9277103 Si02
#       5
#     8   8   8   8   8
#     4  11  22  40  63  91 124 171 205 256 316 372
#     4  11  21  42  65  92 129 161 214 259 310 380
#     4  12  24  38  61  94 124 158 210 253 312 367
#     4  10  20  40  68  87 125 166 210 256 311 377
#     4  10  21  40  63  90 124 170 204 256 315 367
#
# _framework density 23.051932000000001
#
# number of rings (size 3 to 8) (size 9 to 14) (size 15 to 20)
#    0.000    1.200    4.000    3.600    2.800    0.800 
#    3.600    2.000    0.000    0.000    0.000    0.000 
#    0.000    0.000    0.000    0.000    0.000    0.000 
#
# Total GULP energy -111966.684921 kJ/mol
# GULP energy per Si atom -5598.334246 kJ/mol
# Density = 2.299946 g / cm^3
# Si number density = 23.051932 Si / 1000 Ang^3
#
#
#
# Elastic Constant Matrix: (Units=GPa)
#
#
# Indices 1 2 3 4 5 6 
#
# 1 49.4664 18.7681 32.9047 0.0000 0.8499 0.0000
# 2 18.7681 101.2283 48.5871 0.0000 -16.3956 0.0000
# 3 32.9047 48.5871 123.9560 0.0000 -7.9097 0.0000
# 4 0.0000 0.0000 0.0000 62.8542 0.0000 4.3588
# 5 0.8499 -16.3956 -7.9097 0.0000 27.1311 0.0000
# 6 0.0000 0.0000 0.0000 4.3588 0.0000 3.2930
#
#
#
# Elastic Compliance Matrix: (Units=1/GPa)
#
#
# Indices 1 2 3 4 5 6 
#
# 1 0.025195 -0.002449 -0.005984 0.000000 -0.004014 0.000000
# 2 -0.002449 0.013475 -0.004185 0.000000 0.007000 0.000000
# 3 -0.005984 -0.004185 0.011358 0.000000 0.000970 0.000000
# 4 0.000000 0.000000 0.000000 0.017518 0.000000 -0.023188
# 5 -0.004014 0.007000 0.000970 0.000000 0.041497 0.000000
# 6 0.000000 0.000000 0.000000 -0.023188 0.000000 0.334367
#
#
# Mechanical properties :
#
#
# Convention : Reuss Voigt Hill
#
# Bulk Modulus (GPa) = 40.33665 52.79672 46.56668
# Shear Modulus (GPa) = 10.48416 30.28172 20.38294
#
# Velocity S-wave (km/s) = 2.13493 3.62834 2.97681
# Velocity P-wave (km/s) = 4.85936 6.36445 5.66214
#
# Compressibility (1/GPa) = 0.02479135
#
# Stress axis : x y z
#
# Youngs Moduli (GPa) = 39.69114 74.21034 88.04189
#
# Poissons Ratio (x) = 0.18174 0.52686
# Poissons Ratio (y) = 0.09720 0.36847
# Poissons Ratio (z) = 0.23752 0.31058
#
# Static dielectric constant tensor:
#      x y z
#    x 1.835880 0.000000 0.031700 
#    y 0.000000 1.956400 0.000000 
#    z 0.031700 0.000000 1.841110 
# 
# From -- ./inp_files/112175.got.cif
#   From: 2010.05.17/outbox.cif.g08.bks.cpg/sg15_57_cif.got.tgz:112175.got - 2010.06.03 18:47:42.
