data_PCOD9277807
_publ_section_title
;
Structure prediction by ZEFSAII (Michael W. Deem and Ramdas Pophale) SiO2 
 PCOD9277807
Probable space group: C 2/C
;
_chemical_formula_sum "Si O2"
_cell_formula_units_Z 40
_cell_length_a 10.966993
_cell_length_b 9.202857
_cell_length_c 21.360475
_cell_angle_alpha 90.000000
_cell_angle_beta 138.687629
_cell_angle_gamma 90.000000
_cell_volume 1423.222800
_symmetry_space_group_name_H-M "C 2/C"
_symmetry_group_IT_number 15
_symmetry_cell_setting 'monoclinic'
loop_
_space_group_symop_operation_xyz
x,y,z
-x,y,1/2-z
-x,-y,-z
x,-y,1/2+z
1/2+x,1/2+y,z
1/2-x,1/2+y,1/2-z
1/2-x,1/2-y,-z
1/2+x,1/2-y,1/2+z
loop_
_atom_site_type_symbol
_atom_site_label
_atom_site_fract_x
_atom_site_fract_y
_atom_site_fract_z
Si Si1 0.712917 0.623139 0.131758
Si Si2 0.260618 0.599512 0.713058
Si Si3 0.840367 0.022840 0.109110
Si Si4 0.849892 0.201551 0.919872
Si Si5 0.562355 0.900528 0.901281
O O1 0.725858 0.448883 0.136525
O O2 0.504082 0.661834 0.030953
O O3 0.760334 0.726250 0.208525
O O4 0.846955 0.664608 0.125661
O O5 0.446947 0.524413 0.809454
O O6 0.253471 0.553323 0.636920
O O7 0.075975 0.530784 0.668660
O O8 0.729233 0.968845 0.006287
O O9 0.801093 0.191970 0.108061
O O10 0.956956 0.288397 0.906192
#
# Coordination Sequence:
#
# PCOD9277807 Si02
#       5
#     8   8   8   8   8
#     4  11  22  40  73 103 135 182 237 289 357 417
#     4  10  21  42  66  98 142 185 230 292 344 417
#     4  10  20  41  70  95 144 188 225 290 356 408
#     4  10  21  41  68 105 136 176 233 296 348 422
#     4  11  21  43  73  95 139 194 230 278 358 428
#
# _framework density 28.105229999999999
#
# number of rings (size 3 to 8) (size 9 to 14) (size 15 to 20)
#    0.000    1.600    4.000    1.800    0.000    0.800 
#    0.000   16.000   13.200    0.000    0.000    0.000 
#    0.000    0.000    0.000    0.000    0.000    0.000 
#
# Total GULP energy -112427.917714 kJ/mol
# GULP energy per Si atom -5621.395886 kJ/mol
# Density = 2.804126 g / cm^3
# Si number density = 28.105230 Si / 1000 Ang^3
#
#
#
# Elastic Constant Matrix: (Units=GPa)
#
#
# Indices 1 2 3 4 5 6 
#
# 1 110.7691 68.1423 44.5263 0.0000 20.2090 0.0000
# 2 68.1423 259.4655 82.3525 0.0000 25.7658 0.0000
# 3 44.5263 82.3525 184.3200 0.0000 20.8043 0.0000
# 4 0.0000 0.0000 0.0000 29.4241 0.0000 8.8192
# 5 20.2090 25.7658 20.8043 0.0000 30.8958 0.0000
# 6 0.0000 0.0000 0.0000 8.8192 0.0000 60.4238
#
#
#
# Elastic Compliance Matrix: (Units=1/GPa)
#
#
# Indices 1 2 3 4 5 6 
#
# 1 0.011817 -0.002189 -0.001310 0.000000 -0.005022 0.000000
# 2 -0.002189 0.005097 -0.001548 0.000000 -0.001776 0.000000
# 3 -0.001310 -0.001548 0.006700 0.000000 -0.002364 0.000000
# 4 0.000000 0.000000 0.000000 0.035540 0.000000 -0.005187
# 5 -0.005022 -0.001776 -0.002364 0.000000 0.038725 0.000000
# 6 0.000000 0.000000 0.000000 -0.005187 0.000000 0.017307
#
#
# Mechanical properties :
#
#
# Convention : Reuss Voigt Hill
#
# Bulk Modulus (GPa) = 73.96114 104.95519 89.45817
# Shear Modulus (GPa) = 38.52474 48.11763 43.32119
#
# Velocity S-wave (km/s) = 3.70636 4.14218 3.93032
# Velocity P-wave (km/s) = 6.68499 7.76541 7.24537
#
# Compressibility (1/GPa) = 0.01352061
#
# Stress axis : x y z
#
# Youngs Moduli (GPa) = 84.62242 196.20762 149.25038
#
# Poissons Ratio (x) = 0.42951 0.19549
# Poissons Ratio (y) = 0.18524 0.23101
# Poissons Ratio (z) = 0.11084 0.30370
#
# Static dielectric constant tensor:
#      x y z
#    x 2.138700 0.000000 -0.048000 
#    y 0.000000 2.221730 0.000000 
#    z -0.048000 0.000000 2.171930 
# 
# From -- ./inp_files/182628.got.cif
#   From: 2010.05.17/outbox.cif.g08.bks.cpg/sg15_92_cif.got.tgz:182628.got - 2010.06.03 18:47:42.
