data_PCOD9277751
_publ_section_title
;
Structure prediction by ZEFSAII (Michael W. Deem and Ramdas Pophale) SiO2 
 PCOD9277751
Probable space group: C 2/C
;
_chemical_formula_sum "Si O2"
_cell_formula_units_Z 56
_cell_length_a 26.674332
_cell_length_b 8.163272
_cell_length_c 9.648927
_cell_angle_alpha 90.000000
_cell_angle_beta 71.310534
_cell_angle_gamma 90.000000
_cell_volume 1990.262043
_symmetry_space_group_name_H-M "C 2/C"
_symmetry_group_IT_number 15
_symmetry_cell_setting 'monoclinic'
loop_
_space_group_symop_operation_xyz
x,y,z
-x,y,1/2-z
-x,-y,-z
x,-y,1/2+z
1/2+x,1/2+y,z
1/2-x,1/2+y,1/2-z
1/2-x,1/2-y,-z
1/2+x,1/2-y,1/2+z
loop_
_atom_site_type_symbol
_atom_site_label
_atom_site_fract_x
_atom_site_fract_y
_atom_site_fract_z
Si Si1 0.802321 0.002787 0.096112
Si Si2 0.914699 0.994061 0.341435
Si Si3 0.663534 0.813692 0.792310
Si Si4 0.049497 0.301799 0.031050
Si Si5 0.805559 0.525455 0.968447
Si Si6 0.553707 0.841198 0.565931
Si Si7 0.641444 0.731342 0.286911
O O1 0.806781 0.852761 0.198255
O O2 0.753800 0.977087 0.036755
O O3 0.806433 0.167949 0.181337
O O4 0.857253 0.009695 0.964468
O O5 0.949607 0.134677 0.383156
O O6 0.897113 0.075690 0.212427
O O7 0.939188 0.814720 0.339624
O O8 0.603139 0.799477 0.893352
O O9 0.669325 0.867649 0.628993
O O10 0.690346 0.947137 0.872008
O O11 0.998712 0.313196 0.978601
O O12 0.051630 0.470489 0.119807
O O13 0.838905 0.673904 0.867072
O O14 0.603190 0.837291 0.416495
#
# Coordination Sequence:
#
# PCOD9277751 Si02
#       7
#     8   8   8   8   8   8   8
#     4  10  23  39  64  92 134 183 228 285 357 415
#     4  10  22  41  63  97 137 174 230 291 346 422
#     4  11  24  43  66  99 137 177 238 292 345 426
#     4  10  20  41  68  95 132 182 225 293 355 417
#     4  12  23  43  68  97 140 183 235 292 355 421
#     4  10  22  40  66  99 133 178 236 282 357 428
#     4  11  22  41  64  96 137 182 234 292 350 428
#
# _framework density 28.137
#
# number of rings (size 3 to 8) (size 9 to 14) (size 15 to 20)
#    0.000    1.429    4.286    1.714    2.000    1.714 
#    0.000    1.429    0.000   10.286    0.000    0.000 
#    0.000    0.000    0.000    0.000    0.000    0.000 
#
# Total GULP energy -157191.857250 kJ/mol
# GULP energy per Si atom -5613.994902 kJ/mol
# Density = 2.807296 g / cm^3
# Si number density = 28.137000 Si / 1000 Ang^3
#
#
#
# Elastic Constant Matrix: (Units=GPa)
#
#
# Indices 1 2 3 4 5 6 
#
# 1 185.9949 62.1765 24.8619 0.0000 3.1551 0.0000
# 2 62.1765 190.1009 30.1060 0.0000 13.1492 0.0000
# 3 24.8619 30.1060 88.8523 0.0000 1.9194 0.0000
# 4 0.0000 0.0000 0.0000 27.6584 0.0000 18.2124
# 5 3.1551 13.1492 1.9194 0.0000 48.8189 0.0000
# 6 0.0000 0.0000 0.0000 18.2124 0.0000 54.5538
#
#
#
# Elastic Compliance Matrix: (Units=1/GPa)
#
#
# Indices 1 2 3 4 5 6 
#
# 1 0.006137 -0.001844 -0.001096 0.000000 0.000143 0.000000
# 2 -0.001844 0.006213 -0.001557 0.000000 -0.001493 0.000000
# 3 -0.001096 -0.001557 0.012088 0.000000 0.000015 0.000000
# 4 0.000000 0.000000 0.000000 0.046343 0.000000 -0.015471
# 5 0.000143 -0.001493 0.000015 0.000000 0.020876 0.000000
# 6 0.000000 0.000000 0.000000 -0.015471 0.000000 0.023495
#
#
# Mechanical properties :
#
#
# Convention : Reuss Voigt Hill
#
# Bulk Modulus (GPa) = 64.74189 77.69298 71.21743
# Shear Modulus (GPa) = 38.67150 49.39313 44.03232
#
# Velocity S-wave (km/s) = 3.71131 4.19436 3.96021
# Velocity P-wave (km/s) = 6.43619 7.15047 6.80271
#
# Compressibility (1/GPa) = 0.01544595
#
# Stress axis : x y z
#
# Youngs Moduli (GPa) = 162.95144 160.94719 82.72345
#
# Poissons Ratio (x) = 0.29672 0.09063
# Poissons Ratio (y) = 0.30041 0.12881
# Poissons Ratio (z) = 0.17853 0.25062
#
# Static dielectric constant tensor:
#      x y z
#    x 2.141340 0.000000 0.028900 
#    y 0.000000 2.285700 0.000000 
#    z 0.028900 0.000000 2.175170 
# 
# From -- ./inp_files/121884.got.cif
#   From: 2010.05.17/outbox.cif.g08.bks.cpg/sg15_61_cif.got.tgz:121884.got - 2010.06.03 18:47:42.
