data_PCOD9277748
_publ_section_title
;
Structure prediction by ZEFSAII (Michael W. Deem and Ramdas Pophale) SiO2 
 PCOD9277748
Probable space group: C 2/C
;
_chemical_formula_sum "Si O2"
_cell_formula_units_Z 48
_cell_length_a 9.789041
_cell_length_b 20.955844
_cell_length_c 20.505670
_cell_angle_alpha 90.000000
_cell_angle_beta 145.681646
_cell_angle_gamma 90.000000
_cell_volume 2371.576497
_symmetry_space_group_name_H-M "C 2/C"
_symmetry_group_IT_number 15
_symmetry_cell_setting 'monoclinic'
loop_
_space_group_symop_operation_xyz
x,y,z
-x,y,1/2-z
-x,-y,-z
x,-y,1/2+z
1/2+x,1/2+y,z
1/2-x,1/2+y,1/2-z
1/2-x,1/2-y,-z
1/2+x,1/2-y,1/2+z
loop_
_atom_site_type_symbol
_atom_site_label
_atom_site_fract_x
_atom_site_fract_y
_atom_site_fract_z
Si Si1 0.248523 0.258778 0.422539
Si Si2 0.032921 0.929385 0.632912
Si Si3 0.000000 0.854127 0.750000
Si Si4 0.700632 0.689433 0.025228
Si Si5 0.000000 0.625709 0.250000
Si Si6 0.610237 0.427722 0.141272
Si Si7 0.394195 0.107829 0.623394
O O1 0.250000 0.250000 0.500000
O O2 0.186192 0.195986 0.356874
O O3 0.501020 0.287425 0.498309
O O4 0.065934 0.318197 0.342232
O O5 0.262387 0.914006 0.676715
O O6 0.085628 0.899417 0.724592
O O7 0.787768 0.897910 0.508496
O O8 0.993578 0.005025 0.612550
O O9 0.926525 0.666482 0.157528
O O10 0.750000 0.750000 0.000000
O O11 0.580779 0.630194 0.938662
O O12 0.746663 0.425979 0.124406
O O13 0.838243 0.419370 0.279673
#
# Coordination Sequence:
#
# PCOD9277748 Si02
#       7
#     8   8   4   8   4   8   8
#     4  11  20  41  66  93 126 172 220 265 324 387
#     4  12  24  41  66  99 129 171 216 269 332 389
#     4  12  24  42  64  98 138 168 216 270 330 400
#     4  11  24  41  64 100 131 167 217 277 331 377
#     4  12  22  40  68  98 126 164 220 276 326 380
#     4  10  22  39  67  93 129 171 218 271 318 390
#     4  10  20  41  68  95 121 170 230 266 310 394
#
# _framework density 20.239702000000001
#
# number of rings (size 3 to 8) (size 9 to 14) (size 15 to 20)
#    0.000    1.000    5.000    4.500    2.333    1.333 
#    0.000    3.333    0.000    0.000    0.000    0.000 
#    0.000    0.000    0.000    0.000    0.000    0.000 
#
# Total GULP energy -133904.000260 kJ/mol
# GULP energy per Si atom -5579.333344 kJ/mol
# Density = 2.019364 g / cm^3
# Si number density = 20.239702 Si / 1000 Ang^3
#
#
#
# Elastic Constant Matrix: (Units=GPa)
#
#
# Indices 1 2 3 4 5 6 
#
# 1 46.7099 42.1347 20.3123 -0.0016 -20.5612 0.0005
# 2 42.1347 163.2554 50.4114 0.0001 -10.8026 -0.0006
# 3 20.3123 50.4114 118.9564 0.0003 -13.0981 -0.0013
# 4 -0.0016 0.0001 0.0003 26.6960 -0.0014 -2.9471
# 5 -20.5612 -10.8026 -13.0981 -0.0014 25.1557 0.0004
# 6 0.0005 -0.0006 -0.0013 -2.9471 0.0004 22.7374
#
#
#
# Elastic Compliance Matrix: (Units=1/GPa)
#
#
# Indices 1 2 3 4 5 6 
#
# 1 0.043648 -0.009140 -0.000089 0.000004 0.031705 -0.000001
# 2 -0.009140 0.009020 -0.002819 -0.000001 -0.005065 0.000000
# 3 -0.000089 -0.002819 0.010051 0.000000 0.003950 0.000000
# 4 0.000004 -0.000001 0.000000 0.038003 0.000005 0.004926
# 5 0.031705 -0.005065 0.003950 0.000005 0.065548 -0.000001
# 6 -0.000001 0.000000 0.000000 0.004926 -0.000001 0.044619
#
#
# Mechanical properties :
#
#
# Convention : Reuss Voigt Hill
#
# Bulk Modulus (GPa) = 25.89134 61.62653 43.75894
# Shear Modulus (GPa) = 20.17272 29.32202 24.74737
#
# Velocity S-wave (km/s) = 3.16047 3.81036 3.50053
# Velocity P-wave (km/s) = 5.11255 7.06207 6.16486
#
# Compressibility (1/GPa) = 0.03862296
#
# Stress axis : x y z
#
# Youngs Moduli (GPa) = 22.91053 110.86820 99.48873
#
# Poissons Ratio (x) = 1.01331 0.00884
# Poissons Ratio (y) = 0.20940 0.28050
# Poissons Ratio (z) = 0.00204 0.31259
#
# Static dielectric constant tensor:
#      x y z
#    x 1.711120 0.000000 0.000680 
#    y 0.000000 1.756160 0.000000 
#    z 0.000680 0.000000 1.776980 
# 
# From -- ./inp_files/270666.got.cif
#   From: 2010.05.17/outbox.cif.g08.bks.cpg/sg15_136_cif.got.tgz:270666.got - 2010.06.03 18:47:42.
