data_PCOD9277322
_publ_section_title
;
Structure prediction by ZEFSAII (Michael W. Deem and Ramdas Pophale) SiO2 
 PCOD9277322
Probable space group: C 2/C
;
_chemical_formula_sum "Si O2"
_cell_formula_units_Z 64
_cell_length_a 7.665736
_cell_length_b 23.165108
_cell_length_c 14.012020
_cell_angle_alpha 90.000000
_cell_angle_beta 78.171204
_cell_angle_gamma 90.000000
_cell_volume 2435.382272
_symmetry_space_group_name_H-M "C 2/C"
_symmetry_group_IT_number 15
_symmetry_cell_setting 'monoclinic'
loop_
_space_group_symop_operation_xyz
x,y,z
-x,y,1/2-z
-x,-y,-z
x,-y,1/2+z
1/2+x,1/2+y,z
1/2-x,1/2+y,1/2-z
1/2-x,1/2-y,-z
1/2+x,1/2-y,1/2+z
loop_
_atom_site_type_symbol
_atom_site_label
_atom_site_fract_x
_atom_site_fract_y
_atom_site_fract_z
Si Si1 0.184945 0.440239 0.897535
Si Si2 0.877294 0.312622 0.553671
Si Si3 0.070302 0.069659 0.429144
Si Si4 0.872049 0.768468 0.356198
Si Si5 0.894776 0.517046 0.880093
Si Si6 0.367765 0.854054 0.342574
Si Si7 0.487160 0.613056 0.858651
Si Si8 0.473047 0.694882 0.141562
O O1 0.131723 0.373622 0.885831
O O2 0.396467 0.446116 0.886075
O O3 0.082385 0.485022 0.842188
O O4 0.115343 0.458087 0.010381
O O5 0.672310 0.290306 0.582550
O O6 0.470885 0.428890 0.451465
O O7 0.023280 0.268077 0.574820
O O8 0.093743 0.136540 0.401701
O O9 0.238488 0.029964 0.389731
O O10 0.838812 0.836832 0.378144
O O11 0.684190 0.739341 0.356588
O O12 0.000000 0.761648 0.250000
O O13 0.867325 0.576531 0.829247
O O14 0.500000 0.828495 0.250000
O O15 0.412474 0.834217 0.442966
O O16 0.158618 0.845123 0.352533
O O17 0.500000 0.587799 0.750000
O O18 0.500000 0.683440 0.250000
#
# Coordination Sequence:
#
# PCOD9277322 Si02
#       8
#     8   8   8   8   8   8   8   8
#     4   9  19  36  68 100 129 177 235 287 357 433
#     4  10  21  46  73 103 147 191 244 314 369 437
#     4  11  22  45  69 105 149 186 236 313 363 437
#     4  11  24  44  72 107 145 194 252 306 371 452
#     4  10  20  40  72  99 135 187 237 288 370 432
#     4  11  25  51  70 108 152 197 249 312 370 445
#     4  11  26  47  67 107 149 192 255 297 375 450
#     4  11  22  43  74 107 146 188 248 313 375 439
#
# _framework density 26.279240999999999
#
# number of rings (size 3 to 8) (size 9 to 14) (size 15 to 20)
#    0.000    1.500    5.000    1.125    0.000    5.000 
#    9.000    0.000    0.000    0.000    0.000    0.000 
#    0.000    0.000    0.000    0.000    0.000    0.000 
#
# Total GULP energy -179277.357090 kJ/mol
# GULP energy per Si atom -5602.417409 kJ/mol
# Density = 2.621943 g / cm^3
# Si number density = 26.279241 Si / 1000 Ang^3
#
#
#
# Elastic Constant Matrix: (Units=GPa)
#
#
# Indices 1 2 3 4 5 6 
#
# 1 98.0170 44.1587 40.8141 0.0000 -0.0781 0.0000
# 2 44.1587 110.0311 2.5803 0.0000 -6.2965 0.0000
# 3 40.8141 2.5803 124.5828 0.0000 -2.1620 0.0000
# 4 0.0000 0.0000 0.0000 25.1830 0.0000 -0.2833
# 5 -0.0781 -6.2965 -2.1620 0.0000 37.8080 0.0000
# 6 0.0000 0.0000 0.0000 -0.2833 0.0000 39.9772
#
#
#
# Elastic Compliance Matrix: (Units=1/GPa)
#
#
# Indices 1 2 3 4 5 6 
#
# 1 0.014852 -0.005919 -0.004764 0.000000 -0.001227 0.000000
# 2 -0.005919 0.011538 0.001735 0.000000 0.002009 0.000000
# 3 -0.004764 0.001735 0.009566 0.000000 0.000826 0.000000
# 4 0.000000 0.000000 0.000000 0.039713 0.000000 0.000281
# 5 -0.001227 0.002009 0.000826 0.000000 0.026829 0.000000
# 6 0.000000 0.000000 0.000000 0.000281 0.000000 0.025016
#
#
# Mechanical properties :
#
#
# Convention : Reuss Voigt Hill
#
# Bulk Modulus (GPa) = 55.37301 56.41521 55.89411
# Shear Modulus (GPa) = 33.01866 36.93214 34.97540
#
# Velocity S-wave (km/s) = 3.54850 3.75290 3.65213
# Velocity P-wave (km/s) = 6.15677 6.34769 6.25296
#
# Compressibility (1/GPa) = 0.01805934
#
# Stress axis : x y z
#
# Youngs Moduli (GPa) = 67.33200 86.66977 104.53701
#
# Poissons Ratio (x) = 0.51300 0.49804
# Poissons Ratio (y) = 0.39854 -0.18137
# Poissons Ratio (z) = 0.32079 -0.15037
#
# Static dielectric constant tensor:
#      x y z
#    x 2.079570 0.000000 0.000880 
#    y 0.000000 2.080650 0.000000 
#    z 0.000880 0.000000 2.141920 
# 
# From -- ./inp_files/261723.got.cif
#   From: 2010.05.17/outbox.cif.g08.bks.cpg/sg15_131_cif.got.tgz:261723.got - 2010.06.03 18:47:42.
