data_PCOD9277006
_publ_section_title
;
Structure prediction by ZEFSAII (Michael W. Deem and Ramdas Pophale) SiO2 
 PCOD9277006
Probable space group: C 2/C
;
_chemical_formula_sum "Si O2"
_cell_formula_units_Z 32
_cell_length_a 7.193194
_cell_length_b 12.375200
_cell_length_c 16.249323
_cell_angle_alpha 90.000000
_cell_angle_beta 99.257445
_cell_angle_gamma 90.000000
_cell_volume 1427.629886
_symmetry_space_group_name_H-M "C 2/C"
_symmetry_group_IT_number 15
_symmetry_cell_setting 'monoclinic'
loop_
_space_group_symop_operation_xyz
x,y,z
-x,y,1/2-z
-x,-y,-z
x,-y,1/2+z
1/2+x,1/2+y,z
1/2-x,1/2+y,1/2-z
1/2-x,1/2-y,-z
1/2+x,1/2-y,1/2+z
loop_
_atom_site_type_symbol
_atom_site_label
_atom_site_fract_x
_atom_site_fract_y
_atom_site_fract_z
Si Si1 0.846228 0.788114 0.168613
Si Si2 0.959556 0.230649 0.124860
Si Si3 0.876727 0.990436 0.573297
Si Si4 0.436085 0.820035 0.941894
O O1 0.632298 0.781186 0.185446
O O2 0.000000 0.789480 0.250000
O O3 0.896666 0.687489 0.111351
O O4 0.860299 0.895891 0.115503
O O5 0.975473 0.101604 0.135511
O O6 0.735020 0.250113 0.112409
O O7 0.993988 0.265934 0.031716
O O8 0.671558 0.932644 0.547087
O O9 0.000000 0.000000 0.500000
#
# Coordination Sequence:
#
# PCOD9277006 Si02
#       4
#     8   8   8   8
#     4  12  24  38  59  89 126 165 195 246 315 359
#     4   9  20  41  64  84 119 152 205 253 293 358
#     4  10  20  40  67  89 116 153 212 252 293 357
#     4   9  20  41  62  90 116 155 204 256 297 349
#
# _framework density 22.414773
#
# number of rings (size 3 to 8) (size 9 to 14) (size 15 to 20)
#    1.500    0.500    2.500    0.750    0.000    4.000 
#    4.500    0.000    0.000    0.000    0.000    0.000 
#    0.000    0.000    0.000    0.000    0.000    0.000 
#
# Total GULP energy -89084.027295 kJ/mol
# GULP energy per Si atom -5567.751706 kJ/mol
# Density = 2.236376 g / cm^3
# Si number density = 22.414773 Si / 1000 Ang^3
#
#
#
# Elastic Constant Matrix: (Units=GPa)
#
#
# Indices 1 2 3 4 5 6 
#
# 1 132.5512 21.5015 39.3573 0.0000 16.2832 0.0000
# 2 21.5015 64.6494 7.9314 0.0000 -0.0151 0.0000
# 3 39.3573 7.9314 39.4529 0.0000 17.3375 0.0000
# 4 0.0000 0.0000 0.0000 3.1672 0.0000 3.1129
# 5 16.2832 -0.0151 17.3375 0.0000 47.6568 0.0000
# 6 0.0000 0.0000 0.0000 3.1129 0.0000 37.3209
#
#
#
# Elastic Compliance Matrix: (Units=1/GPa)
#
#
# Indices 1 2 3 4 5 6 
#
# 1 0.011067 -0.002381 -0.010593 0.000000 0.000072 0.000000
# 2 -0.002381 0.016449 -0.001537 0.000000 0.001378 0.000000
# 3 -0.010593 -0.001537 0.041223 0.000000 -0.011378 0.000000
# 4 0.000000 0.000000 0.000000 0.343933 0.000000 -0.028687
# 5 0.000072 0.001378 -0.011378 0.000000 0.025099 0.000000
# 6 0.000000 0.000000 0.000000 -0.028687 0.000000 0.029187
#
#
# Mechanical properties :
#
#
# Convention : Reuss Voigt Hill
#
# Bulk Modulus (GPa) = 25.17831 41.58156 33.37993
# Shear Modulus (GPa) = 9.81896 28.81987 19.31941
#
# Velocity S-wave (km/s) = 2.09525 3.58963 2.93901
# Velocity P-wave (km/s) = 4.13651 5.98096 5.14211
#
# Compressibility (1/GPa) = 0.03971673
#
# Stress axis : x y z
#
# Youngs Moduli (GPa) = 90.35891 60.79450 24.25828
#
# Poissons Ratio (x) = 0.14476 0.25697
# Poissons Ratio (y) = 0.21516 0.03728
# Poissons Ratio (z) = 0.95717 0.09344
#
# Static dielectric constant tensor:
#      x y z
#    x 1.874840 0.000000 -0.003790 
#    y 0.000000 1.819900 0.000000 
#    z -0.003790 0.000000 1.849010 
# 
# From -- ./inp_files/188224.got.cif
#   From: 2010.05.17/outbox.cif.g08.bks.cpg/sg15_95_cif.got.tgz:188224.got - 2010.06.03 18:47:42.
