data_PCOD9277111
_publ_section_title
;
Structure prediction by ZEFSAII (Michael W. Deem and Ramdas Pophale) SiO2 
 PCOD9277111
Probable space group: C 2/C
;
_chemical_formula_sum "Si O2"
_cell_formula_units_Z 44
_cell_length_a 25.957947
_cell_length_b 11.025888
_cell_length_c 9.852765
_cell_angle_alpha 90.000000
_cell_angle_beta 130.431385
_cell_angle_gamma 90.000000
_cell_volume 2146.501621
_symmetry_space_group_name_H-M "C 2/C"
_symmetry_group_IT_number 15
_symmetry_cell_setting 'monoclinic'
loop_
_space_group_symop_operation_xyz
x,y,z
-x,y,1/2-z
-x,-y,-z
x,-y,1/2+z
1/2+x,1/2+y,z
1/2-x,1/2+y,1/2-z
1/2-x,1/2-y,-z
1/2+x,1/2-y,1/2+z
loop_
_atom_site_type_symbol
_atom_site_label
_atom_site_fract_x
_atom_site_fract_y
_atom_site_fract_z
Si Si1 0.647032 0.868580 0.211518
Si Si2 0.699110 0.565445 0.487375
Si Si3 0.000000 0.019213 0.250000
Si Si4 0.089335 0.235722 0.365175
Si Si5 0.365032 0.606974 0.416386
Si Si6 0.956494 0.452299 0.050805
O O1 0.722772 0.899264 0.385524
O O2 0.602621 0.829650 0.266881
O O3 0.640539 0.751632 0.104055
O O4 0.615369 0.983958 0.085304
O O5 0.661608 0.672306 0.509155
O O6 0.666272 0.562733 0.281127
O O7 0.680385 0.445980 0.539477
O O8 0.044335 0.119266 0.243288
O O9 0.057791 0.940841 0.424563
O O10 0.058627 0.310995 0.438702
O O11 0.000000 0.499743 0.250000
O O12 0.000000 0.500000 0.000000
#
# Coordination Sequence:
#
# PCOD9277111 Si02
#       6
#     8   8   4   8   8   8
#     4  11  24  40  67  90 136 167 213 270 320 388
#     4  10  24  42  68  92 129 174 213 265 326 382
#     4  10  20  40  68  90 130 166 216 270 316 376
#     4  10  20  42  64  91 126 175 206 259 330 386
#     4  10  23  42  64  98 124 172 218 262 323 381
#     4  12  24  42  64  95 126 170 214 260 330 383
#
# _framework density 20.498470000000001
#
# number of rings (size 3 to 8) (size 9 to 14) (size 15 to 20)
#    0.000    1.455    2.727    2.182    6.364    6.545 
#    6.545    0.909    0.000    0.000    0.000    0.000 
#    0.000    0.000    0.000    0.000    0.000    0.000 
#
# Total GULP energy -122521.808001 kJ/mol
# GULP energy per Si atom -5569.173091 kJ/mol
# Density = 2.045181 g / cm^3
# Si number density = 20.498470 Si / 1000 Ang^3
#
#
#
# Elastic Constant Matrix: (Units=GPa)
#
#
# Indices 1 2 3 4 5 6 
#
# 1 65.4374 5.5894 46.1154 0.0000 18.6493 0.0000
# 2 5.5894 73.1542 45.4543 0.0000 11.4038 0.0000
# 3 46.1154 45.4543 133.0564 0.0000 33.4371 0.0000
# 4 0.0000 0.0000 0.0000 31.9301 0.0000 -4.8352
# 5 18.6493 11.4038 33.4371 0.0000 40.1922 0.0000
# 6 0.0000 0.0000 0.0000 -4.8352 0.0000 27.9405
#
#
#
# Elastic Compliance Matrix: (Units=1/GPa)
#
#
# Indices 1 2 3 4 5 6 
#
# 1 0.021694 0.003825 -0.007615 0.000000 -0.004816 0.000000
# 2 0.003825 0.018028 -0.007273 0.000000 -0.000839 0.000000
# 3 -0.007615 -0.007273 0.014202 0.000000 -0.006218 0.000000
# 4 0.000000 0.000000 0.000000 0.032161 0.000000 0.005566
# 5 -0.004816 -0.000839 -0.006218 0.000000 0.032526 0.000000
# 6 0.000000 0.000000 0.000000 0.005566 0.000000 0.036754
#
#
# Mechanical properties :
#
#
# Convention : Reuss Voigt Hill
#
# Bulk Modulus (GPa) = 31.44984 51.77404 41.61194
# Shear Modulus (GPa) = 26.58279 31.64513 29.11396
#
# Velocity S-wave (km/s) = 3.60504 3.93336 3.77277
# Velocity P-wave (km/s) = 5.71877 6.77796 6.27077
#
# Compressibility (1/GPa) = 0.03179667
#
# Stress axis : x y z
#
# Youngs Moduli (GPa) = 46.09498 55.47054 70.41111
#
# Poissons Ratio (x) = -0.21217 0.53620
# Poissons Ratio (y) = -0.17631 0.51213
# Poissons Ratio (z) = 0.35103 0.40346
#
# Static dielectric constant tensor:
#      x y z
#    x 1.815160 0.000000 0.031460 
#    y 0.000000 1.757200 0.000000 
#    z 0.031460 0.000000 1.712910 
# 
# From -- ./inp_files/65656.got.cif
#   From: 2010.05.17/outbox.cif.g08.bks.cpg/sg15_33_cif.got.tgz:65656.got - 2010.06.03 18:47:42.
