data_PCOD9277985
_publ_section_title
;
Structure prediction by ZEFSAII (Michael W. Deem and Ramdas Pophale) SiO2 
 PCOD9277985
Probable space group: C 2/C
;
_chemical_formula_sum "Si O2"
_cell_formula_units_Z 44
_cell_length_a 21.381961
_cell_length_b 20.384300
_cell_length_c 12.898134
_cell_angle_alpha 90.000000
_cell_angle_beta 22.353825
_cell_angle_gamma 90.000000
_cell_volume 2138.086501
_symmetry_space_group_name_H-M "C 2/C"
_symmetry_group_IT_number 15
_symmetry_cell_setting 'monoclinic'
loop_
_space_group_symop_operation_xyz
x,y,z
-x,y,1/2-z
-x,-y,-z
x,-y,1/2+z
1/2+x,1/2+y,z
1/2-x,1/2+y,1/2-z
1/2-x,1/2-y,-z
1/2+x,1/2-y,1/2+z
loop_
_atom_site_type_symbol
_atom_site_label
_atom_site_fract_x
_atom_site_fract_y
_atom_site_fract_z
Si Si1 0.419296 0.524940 0.228877
Si Si2 0.500683 0.612022 0.639640
Si Si3 0.500000 0.630171 0.250000
Si Si4 0.130953 0.769223 0.277022
Si Si5 0.261569 0.763664 0.314532
Si Si6 0.809816 0.384109 0.532086
O O1 0.401289 0.455211 0.312193
O O2 0.535231 0.578078 0.105563
O O3 0.260231 0.568054 0.448944
O O4 0.500000 0.500000 0.000000
O O5 0.500000 0.649520 0.750000
O O6 0.421171 0.655945 0.671402
O O7 0.688294 0.600463 0.315594
O O8 0.346252 0.678161 0.472172
O O9 0.209275 0.761917 0.271769
O O10 0.957150 0.730492 0.532607
O O11 0.250000 0.750000 0.000000
O O12 0.211135 0.694553 0.444578
O O13 0.000000 0.397872 0.250000
#
# Coordination Sequence:
#
# PCOD9277985 Si02
#       6
#     8   8   4   8   8   8
#     4  10  22  40  62  86 126 176 211 255 329 401
#     4  10  20  42  64  87 123 173 218 258 319 402
#     4  12  22  38  66 100 130 164 220 274 332 392
#     4  11  23  42  66  94 131 172 217 271 331 398
#     4  11  23  37  64  98 130 165 215 273 335 385
#     4  10  21  38  61  90 128 159 207 267 330 376
#
# _framework density 20.579148
#
# number of rings (size 3 to 8) (size 9 to 14) (size 15 to 20)
#    0.000    1.455    1.818    6.000    2.545    1.455 
#    0.000    6.364    0.000    0.000    0.000    0.000 
#    0.000    0.000    0.000    0.000    0.000    0.000 
#
# Total GULP energy -122579.191170 kJ/mol
# GULP energy per Si atom -5571.781417 kJ/mol
# Density = 2.053231 g / cm^3
# Si number density = 20.579148 Si / 1000 Ang^3
#
#
#
# Elastic Constant Matrix: (Units=GPa)
#
#
# Indices 1 2 3 4 5 6 
#
# 1 90.7928 27.0357 14.3035 0.0000 0.0187 -0.0002
# 2 27.0357 142.7347 33.3679 0.0010 -4.6371 0.0006
# 3 14.3035 33.3679 101.9498 -0.0008 -14.1129 0.0012
# 4 0.0000 0.0010 -0.0008 24.5088 -0.0001 0.0021
# 5 0.0187 -4.6371 -14.1129 -0.0001 24.8294 0.0000
# 6 -0.0002 0.0006 0.0012 0.0021 0.0000 36.1433
#
#
#
# Elastic Compliance Matrix: (Units=1/GPa)
#
#
# Indices 1 2 3 4 5 6 
#
# 1 0.011790 -0.002000 -0.001142 0.000000 -0.001032 0.000000
# 2 -0.002000 0.007926 -0.002288 0.000000 0.000181 0.000000
# 3 -0.001142 -0.002288 0.011569 0.000000 0.006149 0.000000
# 4 0.000000 0.000000 0.000000 0.040802 0.000000 -0.000002
# 5 -0.001032 0.000181 0.006149 0.000000 0.043805 0.000000
# 6 0.000000 0.000000 0.000000 -0.000002 0.000000 0.027668
#
#
# Mechanical properties :
#
#
# Convention : Reuss Voigt Hill
#
# Bulk Modulus (GPa) = 48.96271 53.87683 51.41977
# Shear Modulus (GPa) = 31.01208 34.48098 32.74653
#
# Velocity S-wave (km/s) = 3.88618 4.09776 3.99337
# Velocity P-wave (km/s) = 6.63178 6.97324 6.80465
#
# Compressibility (1/GPa) = 0.02042370
#
# Stress axis : x y z
#
# Youngs Moduli (GPa) = 84.81982 126.17338 86.43562
#
# Poissons Ratio (x) = 0.25229 0.09875
# Poissons Ratio (y) = 0.16960 0.19780
# Poissons Ratio (z) = 0.09690 0.28874
#
# Static dielectric constant tensor:
#      x y z
#    x 1.895970 0.000000 0.021630 
#    y 0.000000 1.843060 0.000000 
#    z 0.021630 0.000000 1.713790 
# 
# From -- ./inp_files/174415.got.cif
#   From: 2010.05.17/outbox.cif.g08.bks.cpg/sg15_88_cif.got.tgz:174415.got - 2010.06.03 18:47:42.
