data_PCOD9277427
_publ_section_title
;
Structure prediction by ZEFSAII (Michael W. Deem and Ramdas Pophale) SiO2 
 PCOD9277427
Probable space group: C 2/C
;
_chemical_formula_sum "Si O2"
_cell_formula_units_Z 52
_cell_length_a 28.322792
_cell_length_b 13.087902
_cell_length_c 16.626553
_cell_angle_alpha 90.000000
_cell_angle_beta 157.139835
_cell_angle_gamma 90.000000
_cell_volume 2394.312235
_symmetry_space_group_name_H-M "C 2/C"
_symmetry_group_IT_number 15
_symmetry_cell_setting 'monoclinic'
loop_
_space_group_symop_operation_xyz
x,y,z
-x,y,1/2-z
-x,-y,-z
x,-y,1/2+z
1/2+x,1/2+y,z
1/2-x,1/2+y,1/2-z
1/2-x,1/2-y,-z
1/2+x,1/2-y,1/2+z
loop_
_atom_site_type_symbol
_atom_site_label
_atom_site_fract_x
_atom_site_fract_y
_atom_site_fract_z
Si Si1 0.802998 0.488131 0.384683
Si Si2 0.539150 0.724101 0.971840
Si Si3 0.566904 0.367335 0.043086
Si Si4 0.818899 0.158469 0.062433
Si Si5 0.000000 0.326278 0.750000
Si Si6 0.118043 0.436943 0.167446
Si Si7 0.679742 0.213374 0.096445
O O1 0.664630 0.458016 0.188194
O O2 0.886728 0.399966 0.554021
O O3 0.818102 0.476641 0.312627
O O4 0.857061 0.599805 0.488540
O O5 0.465088 0.651223 0.914095
O O6 0.475793 0.758314 0.790509
O O7 0.567978 0.823912 0.070950
O O8 0.676505 0.693541 0.164572
O O9 0.624607 0.266816 0.088938
O O10 0.438777 0.378756 0.795453
O O11 0.750000 0.250000 0.000000
O O12 0.718933 0.070341 0.894460
O O13 0.844134 0.206663 0.013568
O O14 0.000000 0.500000 0.000000
#
# Coordination Sequence:
#
# PCOD9277427 Si02
#       7
#     8   8   8   8   4   8   8
#     4  11  25  39  69  97 131 180 226 277 335 409
#     4  10  22  43  66  92 136 173 225 281 334 406
#     4  12  22  44  71  97 140 174 225 292 338 399
#     4  11  22  40  71 100 132 177 221 276 350 392
#     4  10  22  46  62  96 130 178 242 268 334 424
#     4  10  20  41  62  99 138 166 226 275 325 408
#     4  11  23  43  66  99 135 175 218 280 340 403
#
# _framework density 21.718136999999999
#
# number of rings (size 3 to 8) (size 9 to 14) (size 15 to 20)
#    0.000    1.231    7.692    1.385    2.154    2.462 
#    0.000    1.538    0.000    0.000    0.000    0.000 
#    0.000    0.000    0.000    0.000    0.000    0.000 
#
# Total GULP energy -145217.059966 kJ/mol
# GULP energy per Si atom -5585.271537 kJ/mol
# Density = 2.166871 g / cm^3
# Si number density = 21.718137 Si / 1000 Ang^3
#
#
#
# Elastic Constant Matrix: (Units=GPa)
#
#
# Indices 1 2 3 4 5 6 
#
# 1 87.8213 19.8253 48.8966 0.0000 4.4446 0.0000
# 2 19.8253 57.7795 42.1259 0.0000 3.5475 0.0000
# 3 48.8966 42.1259 124.7387 0.0000 4.8327 0.0000
# 4 0.0000 0.0000 0.0000 18.5475 0.0000 11.5426
# 5 4.4446 3.5475 4.8327 0.0000 34.0594 0.0000
# 6 0.0000 0.0000 0.0000 11.5426 0.0000 19.9646
#
#
#
# Elastic Compliance Matrix: (Units=1/GPa)
#
#
# Indices 1 2 3 4 5 6 
#
# 1 0.014656 -0.001069 -0.005344 0.000000 -0.001043 0.000000
# 2 -0.001069 0.023096 -0.007333 0.000000 -0.001226 0.000000
# 3 -0.005344 -0.007333 0.012601 0.000000 -0.000327 0.000000
# 4 0.000000 0.000000 0.000000 0.084217 0.000000 -0.048691
# 5 -0.001043 -0.001226 -0.000327 0.000000 0.029671 0.000000
# 6 0.000000 0.000000 0.000000 -0.048691 0.000000 0.078240
#
#
# Mechanical properties :
#
#
# Convention : Reuss Voigt Hill
#
# Bulk Modulus (GPa) = 43.74283 54.67056 49.20669
# Shear Modulus (GPa) = 18.01206 25.14707 21.57956
#
# Velocity S-wave (km/s) = 2.88298 3.40646 3.15559
# Velocity P-wave (km/s) = 5.59169 6.37961 5.99860
#
# Compressibility (1/GPa) = 0.02286089
#
# Stress axis : x y z
#
# Youngs Moduli (GPa) = 68.23122 43.29809 79.36094
#
# Poissons Ratio (x) = 0.04628 0.42408
# Poissons Ratio (y) = 0.07292 0.58198
# Poissons Ratio (z) = 0.36461 0.31752
#
# Static dielectric constant tensor:
#      x y z
#    x 1.812560 0.000000 0.009260 
#    y 0.000000 1.879010 0.000000 
#    z 0.009260 0.000000 1.832490 
# 
# From -- ./inp_files/225511.got.cif
#   From: 2010.05.17/outbox.cif.g08.bks.cpg/sg15_113_cif.got.tgz:225511.got - 2010.06.03 18:47:42.
