data_PCOD9277312
_publ_section_title
;
Structure prediction by ZEFSAII (Michael W. Deem and Ramdas Pophale) SiO2 
 PCOD9277312
Probable space group: C 2/C
;
_chemical_formula_sum "Si O2"
_cell_formula_units_Z 56
_cell_length_a 11.711827
_cell_length_b 14.359049
_cell_length_c 14.908366
_cell_angle_alpha 90.000000
_cell_angle_beta 94.142888
_cell_angle_gamma 90.000000
_cell_volume 2500.599092
_symmetry_space_group_name_H-M "C 2/C"
_symmetry_group_IT_number 15
_symmetry_cell_setting 'monoclinic'
loop_
_space_group_symop_operation_xyz
x,y,z
-x,y,1/2-z
-x,-y,-z
x,-y,1/2+z
1/2+x,1/2+y,z
1/2-x,1/2+y,1/2-z
1/2-x,1/2-y,-z
1/2+x,1/2-y,1/2+z
loop_
_atom_site_type_symbol
_atom_site_label
_atom_site_fract_x
_atom_site_fract_y
_atom_site_fract_z
Si Si1 0.739145 0.382924 0.211873
Si Si2 0.696130 0.537856 0.347673
Si Si3 0.972159 0.074641 0.900002
Si Si4 0.358863 0.065169 0.984211
Si Si5 0.041378 0.445936 0.355996
Si Si6 0.632447 0.615588 0.048287
Si Si7 0.628532 0.714321 0.236364
O O1 0.742691 0.479961 0.265259
O O2 0.611030 0.371857 0.170547
O O3 0.839683 0.390084 0.144205
O O4 0.779751 0.295349 0.270456
O O5 0.577325 0.483603 0.363362
O O6 0.790301 0.519769 0.429956
O O7 0.667910 0.642066 0.316147
O O8 0.029885 0.141297 0.975987
O O9 0.890364 0.995730 0.938879
O O10 0.444148 0.101970 0.912122
O O11 0.254776 0.129967 0.009561
O O12 0.425958 0.033465 0.077651
O O13 0.000000 0.463200 0.250000
O O14 0.622672 0.658352 0.144311
O O15 0.500000 0.749114 0.250000
#
# Coordination Sequence:
#
# PCOD9277312 Si02
#       7
#     8   8   8   8   8   8   8
#     4  12  23  40  69 100 142 181 228 293 346 415
#     4  11  21  43  73  97 132 181 239 284 342 411
#     4  10  20  40  72  95 131 176 236 289 343 393
#     4  10  22  38  71  99 130 188 233 281 343 417
#     4  11  21  39  62  97 142 182 223 270 355 420
#     4  10  20  41  70 102 129 177 241 292 337 408
#     4  12  24  40  69 107 138 184 234 281 356 423
#
# _framework density 22.394634
#
# number of rings (size 3 to 8) (size 9 to 14) (size 15 to 20)
#    0.000    1.143    5.714    0.857    0.000    0.000 
#    0.000    7.143   18.857    0.000    0.000    0.000 
#    0.000    0.000    0.000    0.000    0.000    0.000 
#
# Total GULP energy -156300.017572 kJ/mol
# GULP energy per Si atom -5582.143485 kJ/mol
# Density = 2.234366 g / cm^3
# Si number density = 22.394634 Si / 1000 Ang^3
#
#
#
# Elastic Constant Matrix: (Units=GPa)
#
#
# Indices 1 2 3 4 5 6 
#
# 1 123.1041 12.6097 39.8800 0.0000 -3.3424 0.0000
# 2 12.6097 33.3349 1.7685 0.0000 12.0952 0.0000
# 3 39.8800 1.7685 106.9380 0.0000 8.7443 0.0000
# 4 0.0000 0.0000 0.0000 11.8364 0.0000 7.0408
# 5 -3.3424 12.0952 8.7443 0.0000 50.9160 0.0000
# 6 0.0000 0.0000 0.0000 7.0408 0.0000 23.5616
#
#
#
# Elastic Compliance Matrix: (Units=1/GPa)
#
#
# Indices 1 2 3 4 5 6 
#
# 1 0.009866 -0.004380 -0.003798 0.000000 0.002340 0.000000
# 2 -0.004380 0.034773 0.001782 0.000000 -0.008854 0.000000
# 3 -0.003798 0.001782 0.010947 0.000000 -0.002553 0.000000
# 4 0.000000 0.000000 0.000000 0.102749 0.000000 -0.030704
# 5 0.002340 -0.008854 -0.002553 0.000000 0.022336 0.000000
# 6 0.000000 0.000000 0.000000 -0.030704 0.000000 0.051617
#
#
# Mechanical properties :
#
#
# Convention : Reuss Voigt Hill
#
# Bulk Modulus (GPa) = 23.36730 41.32148 32.34439
# Shear Modulus (GPa) = 19.27943 31.20403 25.24173
#
# Velocity S-wave (km/s) = 2.93728 3.73684 3.36092
# Velocity P-wave (km/s) = 4.68620 6.09181 5.43464
#
# Compressibility (1/GPa) = 0.04279484
#
# Stress axis : x y z
#
# Youngs Moduli (GPa) = 101.36041 28.75772 91.34996
#
# Poissons Ratio (x) = 0.12595 0.34696
# Poissons Ratio (y) = 0.44392 -0.16280
# Poissons Ratio (z) = 0.38498 -0.05125
#
# Static dielectric constant tensor:
#      x y z
#    x 1.868550 0.000000 0.010170 
#    y 0.000000 1.850600 0.000000 
#    z 0.010170 0.000000 1.935990 
# 
# From -- ./inp_files/144235.got.cif
#   From: 2010.05.17/outbox.cif.g08.bks.cpg/sg15_73_cif.got.tgz:144235.got - 2010.06.03 18:47:42.
