data_PCOD9277462
_publ_section_title
;
Structure prediction by ZEFSAII (Michael W. Deem and Ramdas Pophale) SiO2 
 PCOD9277462
Probable space group: C 2/C
;
_chemical_formula_sum "Si O2"
_cell_formula_units_Z 40
_cell_length_a 16.855694
_cell_length_b 14.281767
_cell_length_c 16.209454
_cell_angle_alpha 90.000000
_cell_angle_beta 154.776961
_cell_angle_gamma 90.000000
_cell_volume 1662.847504
_symmetry_space_group_name_H-M "C 2/C"
_symmetry_group_IT_number 15
_symmetry_cell_setting 'monoclinic'
loop_
_space_group_symop_operation_xyz
x,y,z
-x,y,1/2-z
-x,-y,-z
x,-y,1/2+z
1/2+x,1/2+y,z
1/2-x,1/2+y,1/2-z
1/2-x,1/2-y,-z
1/2+x,1/2-y,1/2+z
loop_
_atom_site_type_symbol
_atom_site_label
_atom_site_fract_x
_atom_site_fract_y
_atom_site_fract_z
Si Si1 0.590754 0.380366 0.755952
Si Si2 0.139793 0.651547 0.134024
Si Si3 0.378903 0.535134 0.475308
Si Si4 0.237318 0.847178 0.297756
Si Si5 0.705546 0.063293 0.478247
O O1 0.500000 0.329935 0.750000
O O2 0.733917 0.332712 0.828129
O O3 0.425270 0.429556 0.547491
O O4 0.708083 0.467964 0.903165
O O5 0.221896 0.564808 0.263158
O O6 0.163624 0.744043 0.211205
O O7 0.921469 0.637180 0.916472
O O8 0.570052 0.581129 0.623945
O O9 0.329202 0.586908 0.514997
O O10 0.293819 0.864121 0.446146
O O11 0.500000 0.047500 0.250000
#
# Coordination Sequence:
#
# PCOD9277462 Si02
#       5
#     8   8   8   8   8
#     4   9  22  42  64  87 120 163 209 254 302 357
#     4  12  22  40  60  92 127 159 203 252 307 366
#     4  10  21  41  63  90 124 160 203 254 304 361
#     4  11  23  38  61  93 125 163 201 243 310 369
#     4  10  20  41  63  94 125 159 202 251 308 362
#
# _framework density 24.055122000000001
#
# number of rings (size 3 to 8) (size 9 to 14) (size 15 to 20)
#    0.000    1.600    4.000    2.400    0.000    4.000 
#   10.800    1.000    0.000    0.000    0.000    0.000 
#    0.000    0.000    0.000    0.000    0.000    0.000 
#
# Total GULP energy -111876.419906 kJ/mol
# GULP energy per Si atom -5593.820995 kJ/mol
# Density = 2.400037 g / cm^3
# Si number density = 24.055122 Si / 1000 Ang^3
#
#
#
# Elastic Constant Matrix: (Units=GPa)
#
#
# Indices 1 2 3 4 5 6 
#
# 1 132.0685 -16.1241 -18.4722 0.0067 4.3232 0.0028
# 2 -16.1241 30.8930 -7.9285 0.0107 -1.4573 0.0034
# 3 -18.4722 -7.9285 89.9251 0.0071 9.9825 0.0038
# 4 0.0067 0.0107 0.0071 12.7963 0.0024 -0.3091
# 5 4.3232 -1.4573 9.9825 0.0024 42.5374 0.0013
# 6 0.0028 0.0034 0.0038 -0.3091 0.0013 21.1496
#
#
#
# Elastic Compliance Matrix: (Units=1/GPa)
#
#
# Indices 1 2 3 4 5 6 
#
# 1 0.008550 0.005003 0.002336 -0.000010 -0.001246 -0.000002
# 2 0.005003 0.036056 0.004236 -0.000035 -0.000267 -0.000008
# 3 0.002336 0.004236 0.012304 -0.000011 -0.002980 -0.000003
# 4 -0.000010 -0.000035 -0.000011 0.078175 -0.000002 0.001143
# 5 -0.001246 -0.000267 -0.002980 -0.000002 0.024325 -0.000001
# 6 -0.000002 -0.000008 -0.000003 0.001143 -0.000001 0.047299
#
#
# Mechanical properties :
#
#
# Convention : Reuss Voigt Hill
#
# Bulk Modulus (GPa) = 12.49038 18.64853 15.56946
# Shear Modulus (GPa) = 23.78169 34.99078 29.38623
#
# Velocity S-wave (km/s) = 3.14766 3.81807 3.49896
# Velocity P-wave (km/s) = 4.29116 5.21595 4.77599
#
# Compressibility (1/GPa) = 0.08006163
#
# Stress axis : x y z
#
# Youngs Moduli (GPa) = 116.95689 27.73474 81.27115
#
# Poissons Ratio (x) = -0.13877 -0.18983
# Poissons Ratio (y) = -0.58517 -0.34430
# Poissons Ratio (z) = -0.27319 -0.11750
#
# Static dielectric constant tensor:
#      x y z
#    x 2.027320 0.000000 0.000300 
#    y 0.000000 1.906360 0.000000 
#    z 0.000300 0.000000 1.906480 
# 
# From -- ./inp_files/37838.got.cif
#   From: 2010.05.17/outbox.cif.g08.bks.cpg/sg15_19_cif.got.tgz:37838.got - 2010.06.03 18:47:42.
