data_PCOD9277661
_publ_section_title
;
Structure prediction by ZEFSAII (Michael W. Deem and Ramdas Pophale) SiO2 
 PCOD9277661
Probable space group: C 2/C
;
_chemical_formula_sum "Si O2"
_cell_formula_units_Z 40
_cell_length_a 17.880709
_cell_length_b 23.659136
_cell_length_c 9.790650
_cell_angle_alpha 90.000000
_cell_angle_beta 30.493867
_cell_angle_gamma 90.000000
_cell_volume 2101.769506
_symmetry_space_group_name_H-M "C 2/C"
_symmetry_group_IT_number 15
_symmetry_cell_setting 'monoclinic'
loop_
_space_group_symop_operation_xyz
x,y,z
-x,y,1/2-z
-x,-y,-z
x,-y,1/2+z
1/2+x,1/2+y,z
1/2-x,1/2+y,1/2-z
1/2-x,1/2-y,-z
1/2+x,1/2-y,1/2+z
loop_
_atom_site_type_symbol
_atom_site_label
_atom_site_fract_x
_atom_site_fract_y
_atom_site_fract_z
Si Si1 0.600404 0.215415 0.228608
Si Si2 0.910490 0.774943 0.757794
Si Si3 0.670258 0.900413 0.521784
Si Si4 0.658585 0.397885 0.528352
Si Si5 0.108304 0.518046 0.706344
O O1 0.500000 0.215847 0.250000
O O2 0.499310 0.246989 0.495975
O O3 0.656592 0.150352 0.151843
O O4 0.750000 0.250000 0.000000
O O5 0.886636 0.842208 0.814250
O O6 0.000000 0.756798 0.750000
O O7 0.750000 0.750000 0.000000
O O8 0.500000 0.909186 0.750000
O O9 0.708464 0.963049 0.512446
O O10 0.766097 0.883342 0.237884
O O11 0.500000 0.427265 0.750000
O O12 0.781125 0.433600 0.415913
O O13 0.000000 0.533774 0.750000
O O14 0.000000 0.500000 0.000000
#
# Coordination Sequence:
#
# PCOD9277661 Si02
#       5
#     8   8   8   8   8
#     4  11  22  41  63  89 126 169 208 255 323 384
#     4  11  23  40  63  94 128 169 217 264 321 379
#     4  10  20  41  67  86 129 172 210 255 330 377
#     4  11  23  42  65  96 136 170 210 277 334 373
#     4  11  22  43  69  98 121 171 226 258 317 399
#
# _framework density 19.031583000000001
#
# number of rings (size 3 to 8) (size 9 to 14) (size 15 to 20)
#    0.000    1.200    4.000    6.000    0.000    1.600 
#    3.600    1.000    0.000    0.000    0.000    0.000 
#    0.000    0.000    0.000    0.000    0.000    0.000 
#
# Total GULP energy -111379.229632 kJ/mol
# GULP energy per Si atom -5568.961482 kJ/mol
# Density = 1.898827 g / cm^3
# Si number density = 19.031583 Si / 1000 Ang^3
#
#
#
# Elastic Constant Matrix: (Units=GPa)
#
#
# Indices 1 2 3 4 5 6 
#
# 1 120.4978 44.0319 51.6412 -0.0007 -12.9629 0.0005
# 2 44.0319 105.8552 45.5340 -0.0010 5.8783 0.0010
# 3 51.6412 45.5340 151.8662 0.0004 -1.6936 0.0006
# 4 -0.0007 -0.0010 0.0004 29.9391 0.0005 -2.8190
# 5 -12.9629 5.8783 -1.6936 0.0005 42.4895 -0.0007
# 6 0.0005 0.0010 0.0006 -2.8190 -0.0007 31.4425
#
#
#
# Elastic Compliance Matrix: (Units=1/GPa)
#
#
# Indices 1 2 3 4 5 6 
#
# 1 0.011212 -0.003737 -0.002649 0.000000 0.003832 0.000000
# 2 -0.003737 0.012205 -0.002421 0.000000 -0.002925 0.000000
# 3 -0.002649 -0.002421 0.008210 0.000000 -0.000146 0.000000
# 4 0.000000 0.000000 0.000000 0.033686 0.000000 0.003020
# 5 0.003832 -0.002925 -0.000146 0.000000 0.025103 0.000001
# 6 0.000000 0.000000 0.000000 0.003020 0.000001 0.032075
#
#
# Mechanical properties :
#
#
# Convention : Reuss Voigt Hill
#
# Bulk Modulus (GPa) = 71.36796 73.40374 72.38585
# Shear Modulus (GPa) = 34.53578 36.57502 35.55540
#
# Velocity S-wave (km/s) = 4.26450 4.38860 4.32699
# Velocity P-wave (km/s) = 7.86315 8.02078 7.94235
#
# Compressibility (1/GPa) = 0.01401189
#
# Stress axis : x y z
#
# Youngs Moduli (GPa) = 89.18888 81.93139 121.80198
#
# Poissons Ratio (x) = 0.30618 0.32271
# Poissons Ratio (y) = 0.33330 0.29493
# Poissons Ratio (z) = 0.23630 0.19839
#
# Static dielectric constant tensor:
#      x y z
#    x 1.654060 0.000000 0.025230 
#    y 0.000000 1.764590 0.000000 
#    z 0.025230 0.000000 1.651750 
# 
# From -- ./inp_files/23478.got.cif
#   From: 2010.05.17/outbox.cif.g08.bks.cpg/sg15_12_cif.got.tgz:23478.got - 2010.06.03 18:47:42.
