data_PCOD9277044
_publ_section_title
;
Structure prediction by ZEFSAII (Michael W. Deem and Ramdas Pophale) SiO2 
 PCOD9277044
Probable space group: C 2/C
;
_chemical_formula_sum "Si O2"
_cell_formula_units_Z 28
_cell_length_a 7.404668
_cell_length_b 18.164212
_cell_length_c 17.970335
_cell_angle_alpha 90.000000
_cell_angle_beta 145.738422
_cell_angle_gamma 90.000000
_cell_volume 1360.708451
_symmetry_space_group_name_H-M "C 2/C"
_symmetry_group_IT_number 15
_symmetry_cell_setting 'monoclinic'
loop_
_space_group_symop_operation_xyz
x,y,z
-x,y,1/2-z
-x,-y,-z
x,-y,1/2+z
1/2+x,1/2+y,z
1/2-x,1/2+y,1/2-z
1/2-x,1/2-y,-z
1/2+x,1/2-y,1/2+z
loop_
_atom_site_type_symbol
_atom_site_label
_atom_site_fract_x
_atom_site_fract_y
_atom_site_fract_z
Si Si1 0.179132 0.164173 0.965468
Si Si2 0.000000 0.791667 0.250000
Si Si3 0.233418 0.565129 0.102557
Si Si4 0.364944 0.645851 0.386248
O O1 0.003568 0.160629 0.826194
O O2 0.250000 0.250000 0.000000
O O3 0.517528 0.124287 0.071933
O O4 0.029815 0.136841 0.992015
O O5 0.699590 0.733738 0.149912
O O6 0.500000 0.537064 0.250000
O O7 0.398898 0.606284 0.089685
O O8 0.000000 0.500000 0.000000
O O9 0.000000 0.615777 0.250000
#
# Coordination Sequence:
#
# PCOD9277044 Si02
#       4
#     8   4   8   8
#     4  10  20  40  67  94 131 164 223 266 334 385
#     4   8  18  36  68 100 130 160 220 268 332 390
#     4  12  25  42  67  92 135 178 218 271 331 399
#     4   9  19  41  63  93 131 173 207 269 338 382
#
# _framework density 20.577517
#
# number of rings (size 3 to 8) (size 9 to 14) (size 15 to 20)
#    0.857    1.143    2.857    0.000    2.000    5.714 
#    0.000    4.286    0.000    0.000    0.000    0.000 
#    0.000    0.000    0.000    0.000    0.000    0.000 
#
# Total GULP energy -78042.561583 kJ/mol
# GULP energy per Si atom -5574.468684 kJ/mol
# Density = 2.053068 g / cm^3
# Si number density = 20.577517 Si / 1000 Ang^3
#
#
#
# Elastic Constant Matrix: (Units=GPa)
#
#
# Indices 1 2 3 4 5 6 
#
# 1 128.8027 30.1772 50.3516 0.0127 -35.9923 -0.0012
# 2 30.1772 63.8712 36.5130 -0.0067 7.2525 0.0007
# 3 50.3516 36.5130 118.0127 0.0145 -38.6416 -0.0016
# 4 0.0127 -0.0067 0.0145 -809.4694 -0.0002 95.4562
# 5 -35.9923 7.2525 -38.6416 -0.0002 45.9386 0.0004
# 6 -0.0012 0.0007 -0.0016 95.4562 0.0004 -8.6182
#
#
#
# Elastic Compliance Matrix: (Units=1/GPa)
#
#
# Indices 1 2 3 4 5 6 
#
# 1 0.012535 -0.007811 0.000950 0.000000 0.011853 -0.000004
# 2 -0.007811 0.028970 -0.012603 0.000000 -0.021295 0.000006
# 3 0.000950 -0.012603 0.017753 0.000000 0.017666 -0.000004
# 4 0.000000 0.000000 0.000000 0.004035 -0.000001 0.044695
# 5 0.011853 -0.021295 0.017666 -0.000001 0.049277 -0.000010
# 6 -0.000004 0.000006 -0.000004 0.044695 -0.000010 0.379017
#
#
# Mechanical properties :
#
#
# Convention : Reuss Voigt Hill
#
# Bulk Modulus (GPa) = 49.19352 60.53001 54.86177
# Shear Modulus (GPa) = 9.30594 -141.52014 -66.10710
#
# Velocity S-wave (km/s) = 2.12890 -8.30202 -5.67412
# Velocity P-wave (km/s) = 5.47734 7.90054 4.02599
#
# Compressibility (1/GPa) = 0.02032788
#
# Stress axis : x y z
#
# Youngs Moduli (GPa) = 79.77840 34.51872 56.32998
#
# Poissons Ratio (x) = 0.26963 -0.05349
# Poissons Ratio (y) = 0.62315 0.70994
# Poissons Ratio (z) = -0.07576 0.43505
#
# Static dielectric constant tensor:
#      x y z
#    x 1.768170 0.000000 -0.070220 
#    y 0.000000 1.715720 0.000000 
#    z -0.070220 0.000000 1.816300 
# 
# From -- ./inp_files/231493.got.cif
#   From: 2010.05.17/outbox.cif.g08.bks.cpg/sg15_116_cif.got.tgz:231493.got - 2010.06.03 18:47:42.
