data_PCOD9277318
_publ_section_title
;
Structure prediction by ZEFSAII (Michael W. Deem and Ramdas Pophale) SiO2 
 PCOD9277318
Probable space group: C 2/C
;
_chemical_formula_sum "Si O2"
_cell_formula_units_Z 44
_cell_length_a 10.241221
_cell_length_b 13.754265
_cell_length_c 20.096577
_cell_angle_alpha 90.000000
_cell_angle_beta 137.286041
_cell_angle_gamma 90.000000
_cell_volume 1920.250161
_symmetry_space_group_name_H-M "C 2/C"
_symmetry_group_IT_number 15
_symmetry_cell_setting 'monoclinic'
loop_
_space_group_symop_operation_xyz
x,y,z
-x,y,1/2-z
-x,-y,-z
x,-y,1/2+z
1/2+x,1/2+y,z
1/2-x,1/2+y,1/2-z
1/2-x,1/2-y,-z
1/2+x,1/2-y,1/2+z
loop_
_atom_site_type_symbol
_atom_site_label
_atom_site_fract_x
_atom_site_fract_y
_atom_site_fract_z
Si Si1 0.443165 0.524927 0.402139
Si Si2 0.305216 0.673541 0.966084
Si Si3 0.000000 0.713822 0.750000
Si Si4 0.590166 0.803900 0.985240
Si Si5 0.967206 0.874352 0.170680
Si Si6 0.198980 0.677244 0.231351
O O1 0.500000 0.500000 0.500000
O O2 0.634887 0.586706 0.463015
O O3 0.445069 0.429695 0.358975
O O4 0.272690 0.598257 0.313302
O O5 0.141582 0.652451 0.850404
O O6 0.476239 0.725534 0.987335
O O7 0.250000 0.750000 0.000000
O O8 0.122908 0.779462 0.744651
O O9 0.447483 0.858597 0.881303
O O10 0.750000 0.750000 0.000000
O O11 0.736563 0.867173 0.081975
O O12 0.000000 0.933059 0.250000
O O13 0.083535 0.771229 0.217483
#
# Coordination Sequence:
#
# PCOD9277318 Si02
#       6
#     8   8   4   8   8   8
#     4  12  25  45  68 108 147 186 240 304 355 439
#     4  11  22  41  73  98 142 189 241 291 361 428
#     4  10  20  40  72  98 128 196 234 280 368 418
#     4   9  20  43  70 100 132 188 232 287 357 423
#     4  11  25  44  71 103 143 187 243 294 362 432
#     4  10  22  44  75  97 142 188 234 294 363 427
#
# _framework density 22.913681
#
# number of rings (size 3 to 8) (size 9 to 14) (size 15 to 20)
#    0.000    1.455    1.818    4.364    1.273    1.455 
#    6.545    1.818    6.000    0.000    0.000    0.000 
#    0.000    0.000    0.000    0.000    0.000    0.000 
#
# Total GULP energy -122471.343654 kJ/mol
# GULP energy per Si atom -5566.879257 kJ/mol
# Density = 2.286153 g / cm^3
# Si number density = 22.913681 Si / 1000 Ang^3
#
#
#
# Elastic Constant Matrix: (Units=GPa)
#
#
# Indices 1 2 3 4 5 6 
#
# 1 100.3567 12.7037 26.4971 0.0000 -6.8811 0.0000
# 2 12.7037 74.4187 45.4349 0.0000 -7.2405 0.0000
# 3 26.4971 45.4349 199.9725 0.0000 -7.8176 0.0000
# 4 0.0000 0.0000 0.0000 40.3086 0.0000 -5.2682
# 5 -6.8811 -7.2405 -7.8176 0.0000 39.0981 0.0000
# 6 0.0000 0.0000 0.0000 -5.2682 0.0000 21.6265
#
#
#
# Elastic Compliance Matrix: (Units=1/GPa)
#
#
# Indices 1 2 3 4 5 6 
#
# 1 0.010480 -0.000970 -0.001112 0.000000 0.001442 0.000000
# 2 -0.000970 0.015881 -0.003398 0.000000 0.002091 0.000000
# 3 -0.001112 -0.003398 0.005934 0.000000 0.000362 0.000000
# 4 0.000000 0.000000 0.000000 0.025624 0.000000 0.006242
# 5 0.001442 0.002091 0.000362 0.000000 0.026290 0.000000
# 6 0.000000 0.000000 0.000000 0.006242 0.000000 0.047760
#
#
# Mechanical properties :
#
#
# Convention : Reuss Voigt Hill
#
# Bulk Modulus (GPa) = 46.86999 60.44659 53.65829
# Shear Modulus (GPa) = 33.32430 39.54746 36.43588
#
# Velocity S-wave (km/s) = 3.81772 4.15894 3.99198
# Velocity P-wave (km/s) = 6.31924 7.03561 6.68702
#
# Compressibility (1/GPa) = 0.02133562
#
# Stress axis : x y z
#
# Youngs Moduli (GPa) = 95.42273 62.96811 168.51470
#
# Poissons Ratio (x) = 0.06106 0.18737
# Poissons Ratio (y) = 0.09254 0.57262
# Poissons Ratio (z) = 0.10610 0.21397
#
# Static dielectric constant tensor:
#      x y z
#    x 1.847390 0.000000 -0.015650 
#    y 0.000000 1.295770 0.000000 
#    z -0.015650 0.000000 2.001020 
# 
# From -- ./inp_files/269814.got.cif
#   From: 2010.05.17/outbox.cif.g08.bks.cpg/sg15_135_cif.got.tgz:269814.got - 2010.06.03 18:47:42.
