data_PCOD9277621
_publ_section_title
;
Structure prediction by ZEFSAII (Michael W. Deem and Ramdas Pophale) SiO2 
 PCOD9277621
Probable space group: C 2/C
;
_chemical_formula_sum "Si O2"
_cell_formula_units_Z 48
_cell_length_a 12.609100
_cell_length_b 13.158509
_cell_length_c 28.754426
_cell_angle_alpha 90.000000
_cell_angle_beta 27.085605
_cell_angle_gamma 90.000000
_cell_volume 2172.267873
_symmetry_space_group_name_H-M "C 2/C"
_symmetry_group_IT_number 15
_symmetry_cell_setting 'monoclinic'
loop_
_space_group_symop_operation_xyz
x,y,z
-x,y,1/2-z
-x,-y,-z
x,-y,1/2+z
1/2+x,1/2+y,z
1/2-x,1/2+y,1/2-z
1/2-x,1/2-y,-z
1/2+x,1/2-y,1/2+z
loop_
_atom_site_type_symbol
_atom_site_label
_atom_site_fract_x
_atom_site_fract_y
_atom_site_fract_z
Si Si1 0.758516 0.318251 0.850975
Si Si2 0.275253 0.488299 0.802976
Si Si3 0.410168 0.142808 0.990949
Si Si4 0.964650 0.960940 0.632064
Si Si5 0.776719 0.286981 0.642161
Si Si6 0.425317 0.411421 0.492326
O O1 0.533541 0.248990 0.931349
O O2 0.728145 0.410949 0.826616
O O3 0.000000 0.260559 0.750000
O O4 0.761429 0.354361 0.903251
O O5 0.500000 0.488443 0.750000
O O6 0.358546 0.516565 0.718442
O O7 0.189732 0.370723 0.830759
O O8 0.081250 0.559335 0.901942
O O9 0.147976 0.123432 0.077163
O O10 0.380209 0.149028 0.058171
O O11 0.118228 0.033365 0.538913
O O12 0.500000 0.269076 0.750000
O O13 0.892827 0.177016 0.592826
O O14 0.500000 0.500000 0.500000
#
# Coordination Sequence:
#
# PCOD9277621 Si02
#       6
#     8   8   8   8   8   8
#     4  10  23  43  65  94 133 172 223 276 337 392
#     4  11  23  40  65  97 133 176 222 273 330 398
#     4  11  22  42  67  93 135 174 224 273 329 395
#     4  11  23  41  67 100 128 175 224 273 334 399
#     4  10  20  41  66  92 131 178 215 271 330 392
#     4   9  22  41  62  93 128 170 213 277 330 386
#
# _framework density 22.096720999999999
#
# number of rings (size 3 to 8) (size 9 to 14) (size 15 to 20)
#    0.000    1.667    3.333    1.500    2.333    4.000 
#    6.000    0.833    0.000    0.000    0.000    0.000 
#    0.000    0.000    0.000    0.000    0.000    0.000 
#
# Total GULP energy -133643.853740 kJ/mol
# GULP energy per Si atom -5568.493906 kJ/mol
# Density = 2.204643 g / cm^3
# Si number density = 22.096721 Si / 1000 Ang^3
#
#
#
# Elastic Constant Matrix: (Units=GPa)
#
#
# Indices 1 2 3 4 5 6 
#
# 1 59.4676 5.3053 15.0358 -0.0006 23.7759 0.0018
# 2 5.3053 48.3937 9.7733 0.0012 20.2070 -0.0003
# 3 15.0358 9.7733 93.5052 0.0202 13.1321 -0.0201
# 4 -0.0006 0.0012 0.0202 18.9456 -0.0105 10.3080
# 5 23.7759 20.2070 13.1321 -0.0105 24.8954 0.0051
# 6 0.0018 -0.0003 -0.0201 10.3080 0.0051 16.4319
#
#
#
# Elastic Compliance Matrix: (Units=1/GPa)
#
#
# Indices 1 2 3 4 5 6 
#
# 1 0.032691 0.014277 -0.000796 -0.000041 -0.042390 0.000035
# 2 0.014277 0.037502 -0.000028 -0.000050 -0.044059 0.000044
# 3 -0.000796 -0.000028 0.011573 -0.000036 -0.005322 0.000039
# 4 -0.000041 -0.000050 -0.000036 0.080133 0.000144 -0.050269
# 5 -0.042390 -0.044059 -0.005322 0.000144 0.119221 -0.000130
# 6 0.000035 0.000044 0.000039 -0.050269 -0.000130 0.092392
#
#
# Mechanical properties :
#
#
# Convention : Reuss Voigt Hill
#
# Bulk Modulus (GPa) = 9.20194 29.06613 19.13404
# Shear Modulus (GPa) = 13.06067 23.47141 18.26604
#
# Velocity S-wave (km/s) = 2.43383 3.26270 2.87825
# Velocity P-wave (km/s) = 3.47440 5.23223 4.44115
#
# Compressibility (1/GPa) = 0.10867273
#
# Stress axis : x y z
#
# Youngs Moduli (GPa) = 30.58917 26.66559 86.40861
#
# Poissons Ratio (x) = -0.38070 0.06876
# Poissons Ratio (y) = -0.43672 0.00239
# Poissons Ratio (z) = 0.02434 0.00074
#
# Static dielectric constant tensor:
#      x y z
#    x 1.825950 0.000000 0.011890 
#    y 0.000000 1.866970 0.000000 
#    z 0.011890 0.000000 1.788240 
# 
# From -- ./inp_files/292993.got.cif
#   From: 2010.05.17/outbox.cif.g08.bks.cpg/sg15_147_cif.got.tgz:292993.got - 2010.06.03 18:47:42.
