data_PCOD9277583
_publ_section_title
;
Structure prediction by ZEFSAII (Michael W. Deem and Ramdas Pophale) SiO2 
 PCOD9277583
Probable space group: C 2/C
;
_chemical_formula_sum "Si O2"
_cell_formula_units_Z 44
_cell_length_a 14.614235
_cell_length_b 16.884817
_cell_length_c 8.482369
_cell_angle_alpha 90.000000
_cell_angle_beta 61.398332
_cell_angle_gamma 90.000000
_cell_volume 1837.675423
_symmetry_space_group_name_H-M "C 2/C"
_symmetry_group_IT_number 15
_symmetry_cell_setting 'monoclinic'
loop_
_space_group_symop_operation_xyz
x,y,z
-x,y,1/2-z
-x,-y,-z
x,-y,1/2+z
1/2+x,1/2+y,z
1/2-x,1/2+y,1/2-z
1/2-x,1/2-y,-z
1/2+x,1/2-y,1/2+z
loop_
_atom_site_type_symbol
_atom_site_label
_atom_site_fract_x
_atom_site_fract_y
_atom_site_fract_z
Si Si1 0.000000 0.447575 0.250000
Si Si2 0.154712 0.345425 0.280900
Si Si3 0.703830 0.946354 0.542095
Si Si4 0.306286 0.690863 0.075156
Si Si5 0.975212 0.093700 0.024327
Si Si6 0.167819 0.101624 0.050513
O O1 0.043990 0.387451 0.345278
O O2 0.096782 0.504992 0.134533
O O3 0.207956 0.400254 0.372491
O O4 0.154328 0.254948 0.331232
O O5 0.225410 0.352036 0.066433
O O6 0.720069 0.879213 0.662298
O O7 0.794242 0.010593 0.491114
O O8 0.410109 0.640011 0.944449
O O9 0.250000 0.750000 0.000000
O O10 0.895142 0.105310 0.236142
O O11 0.086256 0.128596 0.983790
O O12 0.000000 0.000000 0.000000
#
# Coordination Sequence:
#
# PCOD9277583 Si02
#       6
#     4   8   8   8   8   8
#     4  10  22  38  70  92 122 176 226 266 330 396
#     4  10  22  43  63  96 136 171 217 282 337 403
#     4  10  20  41  65  96 125 173 221 273 325 404
#     4  10  23  43  65  92 138 172 213 277 341 393
#     4  11  21  40  67 101 132 174 227 272 330 409
#     4  10  22  37  69  98 130 175 222 277 332 394
#
# _framework density 23.943293000000001
#
# number of rings (size 3 to 8) (size 9 to 14) (size 15 to 20)
#    0.000    1.818    1.818    1.636    2.545    2.182 
#    6.545    0.000    0.000    0.000    0.000    0.000 
#    0.000    0.000    0.000    0.000    0.000    0.000 
#
# Total GULP energy -122607.645140 kJ/mol
# GULP energy per Si atom -5573.074779 kJ/mol
# Density = 2.388880 g / cm^3
# Si number density = 23.943293 Si / 1000 Ang^3
#
#
#
# Elastic Constant Matrix: (Units=GPa)
#
#
# Indices 1 2 3 4 5 6 
#
# 1 156.9223 66.6603 27.7165 0.0000 -11.2731 0.0000
# 2 66.6603 185.8215 37.3397 0.0000 -11.3974 0.0000
# 3 27.7165 37.3397 52.8464 0.0000 -16.8505 0.0000
# 4 0.0000 0.0000 0.0000 11.0997 0.0000 8.6999
# 5 -11.2731 -11.3974 -16.8505 0.0000 31.9121 0.0000
# 6 0.0000 0.0000 0.0000 8.6999 0.0000 65.4187
#
#
#
# Elastic Compliance Matrix: (Units=1/GPa)
#
#
# Indices 1 2 3 4 5 6 
#
# 1 0.007798 -0.002305 -0.002219 0.000000 0.000760 0.000000
# 2 -0.002305 0.006954 -0.003814 0.000000 -0.000345 0.000000
# 3 -0.002219 -0.003814 0.026571 0.000000 0.011884 0.000000
# 4 0.000000 0.000000 0.000000 0.100576 0.000000 -0.013375
# 5 0.000760 -0.000345 0.011884 0.000000 0.037757 0.000000
# 6 0.000000 0.000000 0.000000 -0.013375 0.000000 0.017065
#
#
# Mechanical properties :
#
#
# Convention : Reuss Voigt Hill
#
# Bulk Modulus (GPa) = 40.57409 73.22481 56.89945
# Shear Modulus (GPa) = 22.56183 39.27765 30.91974
#
# Velocity S-wave (km/s) = 3.07303 4.05463 3.59747
# Velocity P-wave (km/s) = 5.43820 7.25045 6.40871
#
# Compressibility (1/GPa) = 0.02464627
#
# Stress axis : x y z
#
# Youngs Moduli (GPa) = 128.23371 143.80832 37.63489
#
# Poissons Ratio (x) = 0.33148 0.08351
# Poissons Ratio (y) = 0.29558 0.14355
# Poissons Ratio (z) = 0.28456 0.54853
#
# Static dielectric constant tensor:
#      x y z
#    x 2.085490 0.000000 0.173800 
#    y 0.000000 1.931940 0.000000 
#    z 0.173800 0.000000 2.035350 
# 
# From -- ./inp_files/39569.got.cif
#   From: 2010.05.17/outbox.cif.g08.bks.cpg/sg15_20_cif.got.tgz:39569.got - 2010.06.03 18:47:42.
