data_PCOD9277327
_publ_section_title
;
Structure prediction by ZEFSAII (Michael W. Deem and Ramdas Pophale) SiO2 
 PCOD9277327
Probable space group: C 2/C
;
_chemical_formula_sum "Si O2"
_cell_formula_units_Z 56
_cell_length_a 15.454946
_cell_length_b 18.917026
_cell_length_c 9.084282
_cell_angle_alpha 90.000000
_cell_angle_beta 112.318095
_cell_angle_gamma 90.000000
_cell_volume 2456.941796
_symmetry_space_group_name_H-M "C 2/C"
_symmetry_group_IT_number 15
_symmetry_cell_setting 'monoclinic'
loop_
_space_group_symop_operation_xyz
x,y,z
-x,y,1/2-z
-x,-y,-z
x,-y,1/2+z
1/2+x,1/2+y,z
1/2-x,1/2+y,1/2-z
1/2-x,1/2-y,-z
1/2+x,1/2-y,1/2+z
loop_
_atom_site_type_symbol
_atom_site_label
_atom_site_fract_x
_atom_site_fract_y
_atom_site_fract_z
Si Si1 0.578795 0.057759 0.012972
Si Si2 0.704248 0.622197 0.737686
Si Si3 0.599845 0.212415 0.962790
Si Si4 0.630499 0.393910 0.497909
Si Si5 0.294785 0.266495 0.752133
Si Si6 0.538368 0.639686 0.440148
Si Si7 0.298886 0.005258 0.172483
O O1 0.637896 0.061569 0.201203
O O2 0.550809 0.136753 0.945491
O O3 0.500000 0.000000 0.000000
O O4 0.643882 0.028313 0.924171
O O5 0.761127 0.693560 0.801676
O O6 0.646524 0.622219 0.546293
O O7 0.774676 0.557513 0.770089
O O8 0.632573 0.617514 0.825379
O O9 0.629308 0.241594 0.820673
O O10 0.538921 0.277132 0.986112
O O11 0.700907 0.206445 0.108219
O O12 0.668611 0.325820 0.613743
O O13 0.529317 0.405624 0.501143
O O14 0.702397 0.457485 0.569588
O O15 0.500000 0.630349 0.250000
#
# Coordination Sequence:
#
# PCOD9277327 Si02
#       7
#     8   8   8   8   8   8   8
#     4  12  26  47  72 105 148 186 239 298 363 434
#     4  11  25  44  69 104 147 185 236 303 357 428
#     4  10  21  42  71 104 135 181 239 294 351 419
#     4  12  24  44  70 102 145 185 241 292 369 424
#     4  10  20  40  73  97 132 185 240 291 349 427
#     4  11  25  42  71 109 138 186 241 298 355 423
#     4  12  26  46  71 103 142 194 239 290 367 436
#
# _framework density 22.792562
#
# number of rings (size 3 to 8) (size 9 to 14) (size 15 to 20)
#    0.000    0.857    5.714    1.286    2.000    2.857 
#    2.571    1.429    0.000    0.000    0.000    0.000 
#    0.000    0.000    0.000    0.000    0.000    0.000 
#
# Total GULP energy -156475.736780 kJ/mol
# GULP energy per Si atom -5588.419171 kJ/mol
# Density = 2.274068 g / cm^3
# Si number density = 22.792562 Si / 1000 Ang^3
#
#
#
# Elastic Constant Matrix: (Units=GPa)
#
#
# Indices 1 2 3 4 5 6 
#
# 1 68.5816 22.7596 -16.0680 0.0000 -16.6754 0.0000
# 2 22.7596 108.7465 0.5784 0.0000 -9.2619 0.0000
# 3 -16.0680 0.5784 57.7654 0.0000 1.3299 0.0000
# 4 0.0000 0.0000 0.0000 23.1633 0.0000 -3.1217
# 5 -16.6754 -9.2619 1.3299 0.0000 38.3886 0.0000
# 6 0.0000 0.0000 0.0000 -3.1217 0.0000 34.6871
#
#
#
# Elastic Compliance Matrix: (Units=1/GPa)
#
#
# Indices 1 2 3 4 5 6 
#
# 1 0.018588 -0.003312 0.005040 0.000000 0.007100 0.000000
# 2 -0.003312 0.009980 -0.001044 0.000000 0.001005 0.000000
# 3 0.005040 -0.001044 0.018694 0.000000 0.001290 0.000000
# 4 0.000000 0.000000 0.000000 0.043702 0.000000 0.003933
# 5 0.007100 0.001005 0.001290 0.000000 0.029332 0.000000
# 6 0.000000 0.000000 0.000000 0.003933 0.000000 0.029183
#
#
# Mechanical properties :
#
#
# Convention : Reuss Voigt Hill
#
# Bulk Modulus (GPa) = 20.56407 27.73706 24.15056
# Shear Modulus (GPa) = 30.42820 34.43603 32.43211
#
# Velocity S-wave (km/s) = 3.65774 3.89118 3.77626
# Velocity P-wave (km/s) = 5.18465 5.69070 5.44356
#
# Compressibility (1/GPa) = 0.04862851
#
# Stress axis : x y z
#
# Youngs Moduli (GPa) = 53.79910 100.19942 53.49286
#
# Poissons Ratio (x) = 0.33189 -0.26961
# Poissons Ratio (y) = 0.17820 0.05587
# Poissons Ratio (z) = -0.27115 0.10465
#
# Static dielectric constant tensor:
#      x y z
#    x 1.864640 0.000000 0.019340 
#    y 0.000000 1.848520 0.000000 
#    z 0.019340 0.000000 1.870640 
# 
# From -- ./inp_files/49139.got.cif
#   From: 2010.05.17/outbox.cif.g08.bks.cpg/sg15_25_cif.got.tgz:49139.got - 2010.06.03 18:47:42.
