data_PCOD9277027
_publ_section_title
;
Structure prediction by ZEFSAII (Michael W. Deem and Ramdas Pophale) SiO2 
 PCOD9277027
Probable space group: C 2/C
;
_chemical_formula_sum "Si O2"
_cell_formula_units_Z 48
_cell_length_a 15.497978
_cell_length_b 14.884526
_cell_length_c 31.787005
_cell_angle_alpha 90.000000
_cell_angle_beta 160.507363
_cell_angle_gamma 90.000000
_cell_volume 2446.793282
_symmetry_space_group_name_H-M "C 2/C"
_symmetry_group_IT_number 15
_symmetry_cell_setting 'monoclinic'
loop_
_space_group_symop_operation_xyz
x,y,z
-x,y,1/2-z
-x,-y,-z
x,-y,1/2+z
1/2+x,1/2+y,z
1/2-x,1/2+y,1/2-z
1/2-x,1/2-y,-z
1/2+x,1/2-y,1/2+z
loop_
_atom_site_type_symbol
_atom_site_label
_atom_site_fract_x
_atom_site_fract_y
_atom_site_fract_z
Si Si1 0.000000 0.196712 0.750000
Si Si2 0.844151 0.455268 0.967418
Si Si3 0.500000 0.995401 0.750000
Si Si4 0.346027 0.256930 0.635822
Si Si5 0.687142 0.558691 0.767142
Si Si6 0.759711 0.871516 0.301532
Si Si7 0.121605 0.156500 0.042190
O O1 0.853218 0.135656 0.716299
O O2 0.811476 0.260324 0.636931
O O3 0.792843 0.348536 0.940903
O O4 0.556942 0.494787 0.837698
O O5 0.000000 0.500000 0.000000
O O6 0.028322 0.478907 0.091422
O O7 0.726291 0.931415 0.872412
O O8 0.385210 0.056641 0.734629
O O9 0.500000 0.274844 0.750000
O O10 0.566205 0.213446 0.707947
O O11 0.129762 0.181291 0.545468
O O12 0.679785 0.591576 0.716247
O O13 0.014591 0.848328 0.445691
#
# Coordination Sequence:
#
# PCOD9277027 Si02
#       7
#     4   8   4   8   8   8   8
#     4  11  22  46  63  98 126 176 221 284 332 399
#     4  12  23  45  70  96 135 181 224 280 336 398
#     4  11  22  40  67  88 132 178 219 272 330 399
#     4  10  20  40  67  92 126 173 220 272 333 390
#     4  12  26  41  69 100 138 171 229 274 339 405
#     4  11  25  41  64 100 131 174 221 274 334 406
#     4  10  21  41  69  88 131 173 220 275 335 386
#
# _framework density 19.617512999999999
#
# number of rings (size 3 to 8) (size 9 to 14) (size 15 to 20)
#    0.000    1.000    5.833    1.500    2.333    2.667 
#    6.000    0.000    0.000    0.000    0.000    0.000 
#    0.000    0.000    0.000    0.000    0.000    0.000 
#
# Total GULP energy -133964.610064 kJ/mol
# GULP energy per Si atom -5581.858753 kJ/mol
# Density = 1.957286 g / cm^3
# Si number density = 19.617513 Si / 1000 Ang^3
#
#
#
# Elastic Constant Matrix: (Units=GPa)
#
#
# Indices 1 2 3 4 5 6 
#
# 1 81.6966 36.4468 18.0376 -0.0073 -13.6672 0.0046
# 2 36.4468 90.4898 47.8446 -0.0120 -1.7116 -0.0007
# 3 18.0376 47.8446 153.4661 -0.0400 -7.3721 -0.0037
# 4 -0.0073 -0.0120 -0.0400 33.9985 -0.0038 5.6394
# 5 -13.6672 -1.7116 -7.3721 -0.0038 21.6641 0.0040
# 6 0.0046 -0.0007 -0.0037 5.6394 0.0040 15.4903
#
#
#
# Elastic Compliance Matrix: (Units=1/GPa)
#
#
# Indices 1 2 3 4 5 6 
#
# 1 0.016942 -0.006991 0.000686 0.000005 0.010370 -0.000010
# 2 -0.006991 0.016119 -0.004427 -0.000002 -0.004643 0.000004
# 3 0.000686 -0.004427 0.007949 0.000009 0.002788 -0.000002
# 4 0.000005 -0.000002 0.000009 0.031303 0.000013 -0.011396
# 5 0.010370 -0.004643 0.002788 0.000013 0.053283 -0.000021
# 6 -0.000010 0.000004 -0.000002 -0.011396 -0.000021 0.068705
#
#
# Mechanical properties :
#
#
# Convention : Reuss Voigt Hill
#
# Bulk Modulus (GPa) = 51.15390 58.92339 55.03864
# Shear Modulus (GPa) = 22.49400 29.11882 25.80641
#
# Velocity S-wave (km/s) = 3.38986 3.85688 3.63089
# Velocity P-wave (km/s) = 6.43846 7.06649 6.75978
#
# Compressibility (1/GPa) = 0.01954885
#
# Stress axis : x y z
#
# Youngs Moduli (GPa) = 59.02371 62.03741 125.79449
#
# Poissons Ratio (x) = 0.43368 -0.08632
# Poissons Ratio (y) = 0.41261 0.55686
# Poissons Ratio (z) = -0.04050 0.27462
#
# Static dielectric constant tensor:
#      x y z
#    x 1.564990 -0.000030 0.064040 
#    y -0.000030 1.710470 0.000010 
#    z 0.064040 0.000010 1.712360 
# 
# From -- ./inp_files/314181.got.cif
#   From: 2010.05.17/outbox.cif.g08.bks.cpg/sg15_158_cif.got.tgz:314181.got - 2010.06.03 18:47:42.
