data_PCOD9277465
_publ_section_title
;
Structure prediction by ZEFSAII (Michael W. Deem and Ramdas Pophale) SiO2 
 PCOD9277465
Probable space group: C 2/C
;
_chemical_formula_sum "Si O2"
_cell_formula_units_Z 56
_cell_length_a 15.021199
_cell_length_b 9.972699
_cell_length_c 23.964937
_cell_angle_alpha 90.000000
_cell_angle_beta 51.921973
_cell_angle_gamma 90.000000
_cell_volume 2825.940532
_symmetry_space_group_name_H-M "C 2/C"
_symmetry_group_IT_number 15
_symmetry_cell_setting 'monoclinic'
loop_
_space_group_symop_operation_xyz
x,y,z
-x,y,1/2-z
-x,-y,-z
x,-y,1/2+z
1/2+x,1/2+y,z
1/2-x,1/2+y,1/2-z
1/2-x,1/2-y,-z
1/2+x,1/2-y,1/2+z
loop_
_atom_site_type_symbol
_atom_site_label
_atom_site_fract_x
_atom_site_fract_y
_atom_site_fract_z
Si Si1 0.358137 0.726032 0.082360
Si Si2 0.076397 0.481434 0.381579
Si Si3 0.832357 0.935764 0.785305
Si Si4 0.391091 0.686763 0.826034
Si Si5 0.550112 0.749580 0.570385
Si Si6 0.606228 0.125860 0.745697
Si Si7 0.357925 0.465866 0.149558
O O1 0.227393 0.752554 0.149318
O O2 0.398310 0.595692 0.099950
O O3 0.427116 0.858464 0.073928
O O4 0.369194 0.710935 0.011889
O O5 0.196632 0.556489 0.342821
O O6 0.080748 0.413877 0.319085
O O7 0.980679 0.593556 0.421299
O O8 0.876385 0.785255 0.767458
O O9 0.861217 0.003908 0.714548
O O10 0.880930 0.028834 0.815622
O O11 0.500000 0.738473 0.750000
O O12 0.404251 0.715789 0.885966
O O13 0.436883 0.660613 0.607248
O O14 0.500000 0.081798 0.750000
O O15 0.727532 0.061882 0.684134
#
# Coordination Sequence:
#
# PCOD9277465 Si02
#       7
#     8   8   8   8   8   8   8
#     4  11  25  43  65  93 134 168 210 260 324 382
#     4  10  23  40  65  92 127 169 213 261 320 378
#     4  10  20  41  63  95 123 165 211 265 322 370
#     4  11  24  39  68  96 125 162 212 264 316 378
#     4  12  24  43  66  95 128 172 212 262 316 388
#     4  11  23  37  64  96 126 161 216 274 315 366
#     4  11  23  40  63  92 125 169 212 259 320 381
#
# _framework density 19.816412
#
# number of rings (size 3 to 8) (size 9 to 14) (size 15 to 20)
#    0.000    1.143    4.286    1.714    6.000    0.000 
#    0.000    0.000    0.000    1.714    0.000    0.000 
#    0.000    0.000    0.000    0.000    0.000    0.000 
#
# Total GULP energy -156493.196187 kJ/mol
# GULP energy per Si atom -5589.042721 kJ/mol
# Density = 1.977131 g / cm^3
# Si number density = 19.816412 Si / 1000 Ang^3
#
#
#
# Elastic Constant Matrix: (Units=GPa)
#
#
# Indices 1 2 3 4 5 6 
#
# 1 80.1281 27.1110 4.5883 0.0000 13.2447 0.0000
# 2 27.1110 119.8820 18.7867 0.0000 10.0960 0.0000
# 3 4.5883 18.7867 62.2135 0.0000 17.0988 0.0000
# 4 0.0000 0.0000 0.0000 6.9097 0.0000 6.3567
# 5 13.2447 10.0960 17.0988 0.0000 25.0986 0.0000
# 6 0.0000 0.0000 0.0000 6.3567 0.0000 17.4346
#
#
#
# Elastic Compliance Matrix: (Units=1/GPa)
#
#
# Indices 1 2 3 4 5 6 
#
# 1 0.014676 -0.002964 0.001985 0.000000 -0.007905 0.000000
# 2 -0.002964 0.009447 -0.002485 0.000000 -0.000543 0.000000
# 3 0.001985 -0.002485 0.020536 0.000000 -0.014039 0.000000
# 4 0.000000 0.000000 0.000000 0.217769 0.000000 -0.079399
# 5 -0.007905 -0.000543 -0.014039 0.000000 0.053797 0.000000
# 6 0.000000 0.000000 0.000000 -0.079399 0.000000 0.086306
#
#
# Mechanical properties :
#
#
# Convention : Reuss Voigt Hill
#
# Bulk Modulus (GPa) = 26.50333 40.35508 33.42920
# Shear Modulus (GPa) = 11.84736 24.00440 17.92588
#
# Velocity S-wave (km/s) = 2.44776 3.48421 3.01092
# Velocity P-wave (km/s) = 4.62517 6.04938 5.38457
#
# Compressibility (1/GPa) = 0.03773111
#
# Stress axis : x y z
#
# Youngs Moduli (GPa) = 68.13889 105.85315 48.69493
#
# Poissons Ratio (x) = 0.31378 -0.09667
# Poissons Ratio (y) = 0.20199 0.12100
# Poissons Ratio (z) = -0.13528 0.26303
#
# Static dielectric constant tensor:
#      x y z
#    x 1.708930 0.000000 -0.012970 
#    y 0.000000 1.694430 0.000000 
#    z -0.012970 0.000000 1.675960 
# 
# From -- ./inp_files/242774.got.cif
#   From: 2010.05.17/outbox.cif.g08.bks.cpg/sg15_122_cif.got.tgz:242774.got - 2010.06.03 18:47:42.
