data_PCOD9277629
_publ_section_title
;
Structure prediction by ZEFSAII (Michael W. Deem and Ramdas Pophale) SiO2 
 PCOD9277629
Probable space group: C 2/C
;
_chemical_formula_sum "Si O2"
_cell_formula_units_Z 60
_cell_length_a 16.579297
_cell_length_b 9.082897
_cell_length_c 17.112349
_cell_angle_alpha 90.000000
_cell_angle_beta 85.481348
_cell_angle_gamma 90.000000
_cell_volume 2568.905491
_symmetry_space_group_name_H-M "C 2/C"
_symmetry_group_IT_number 15
_symmetry_cell_setting 'monoclinic'
loop_
_space_group_symop_operation_xyz
x,y,z
-x,y,1/2-z
-x,-y,-z
x,-y,1/2+z
1/2+x,1/2+y,z
1/2-x,1/2+y,1/2-z
1/2-x,1/2-y,-z
1/2+x,1/2-y,1/2+z
loop_
_atom_site_type_symbol
_atom_site_label
_atom_site_fract_x
_atom_site_fract_y
_atom_site_fract_z
Si Si1 0.938612 0.566923 0.815936
Si Si2 0.798673 0.392639 0.749830
Si Si3 0.364894 0.145973 0.974205
Si Si4 0.548621 0.504262 0.413373
Si Si5 0.694892 0.480964 0.498876
Si Si6 0.559081 0.164357 0.377682
Si Si7 0.500000 0.491756 0.750000
Si Si8 0.329226 0.409176 0.322924
O O1 0.853596 0.517021 0.786368
O O2 0.915796 0.658837 0.892394
O O3 0.000000 0.637154 0.750000
O O4 0.988043 0.422353 0.840417
O O5 0.856103 0.345618 0.673782
O O6 0.719035 0.464151 0.720305
O O7 0.791416 0.249408 0.804651
O O8 0.332772 0.309725 0.994256
O O9 0.290041 0.032861 0.973833
O O10 0.422642 0.096459 0.039487
O O11 0.500000 0.500000 0.500000
O O12 0.639275 0.546576 0.434322
O O13 0.541552 0.334127 0.389548
O O14 0.523423 0.580615 0.333360
O O15 0.677272 0.555735 0.584126
O O16 0.580065 0.582271 0.717798
#
# Coordination Sequence:
#
# PCOD9277629 Si02
#       8
#     8   8   8   8   8   8   4   8
#     4  10  23  40  66 100 135 182 240 296 354 428
#     4  11  25  41  72  99 141 186 243 295 360 427
#     4  10  21  41  66  95 133 188 225 295 352 439
#     4  11  22  39  67  99 129 180 239 290 346 434
#     4  10  23  40  68  93 137 186 243 281 367 431
#     4  10  20  41  66  94 131 192 237 281 361 435
#     4  12  24  42  72  98 148 178 242 302 356 406
#     4  12  25  46  69 106 139 193 243 300 356 431
#
# _framework density 23.356249999999999
#
# number of rings (size 3 to 8) (size 9 to 14) (size 15 to 20)
#    0.000    1.333    4.000    1.200    5.600    0.000 
#    1.200    2.000    0.000    0.000    0.000    0.000 
#    0.000    0.000    0.000    0.000    0.000    0.000 
#
# Total GULP energy -167608.615555 kJ/mol
# GULP energy per Si atom -5586.953852 kJ/mol
# Density = 2.330309 g / cm^3
# Si number density = 23.356250 Si / 1000 Ang^3
#
#
#
# Elastic Constant Matrix: (Units=GPa)
#
#
# Indices 1 2 3 4 5 6 
#
# 1 89.3427 14.9702 46.6652 0.0000 23.7916 0.0000
# 2 14.9702 25.9989 14.6504 0.0000 15.1100 0.0000
# 3 46.6652 14.6504 178.9875 0.0000 21.6890 0.0000
# 4 0.0000 0.0000 0.0000 37.8190 0.0000 1.2304
# 5 23.7916 15.1100 21.6890 0.0000 45.0756 0.0000
# 6 0.0000 0.0000 0.0000 1.2304 0.0000 2.7987
#
#
#
# Elastic Compliance Matrix: (Units=1/GPa)
#
#
# Indices 1 2 3 4 5 6 
#
# 1 0.014709 -0.003892 -0.002903 0.000000 -0.005062 0.000000
# 2 -0.003892 0.049548 -0.001356 0.000000 -0.013903 0.000000
# 3 -0.002903 -0.001356 0.006599 0.000000 -0.001188 0.000000
# 4 0.000000 0.000000 0.000000 0.026825 0.000000 -0.011793
# 5 -0.005062 -0.013903 -0.001188 0.000000 0.030089 0.000000
# 6 0.000000 0.000000 0.000000 -0.011793 0.000000 0.362498
#
#
# Mechanical properties :
#
#
# Convention : Reuss Voigt Hill
#
# Bulk Modulus (GPa) = 18.33033 49.65564 33.99298
# Shear Modulus (GPa) = 9.52824 31.67488 20.60156
#
# Velocity S-wave (km/s) = 2.02197 3.68661 2.97317
# Velocity P-wave (km/s) = 3.64916 6.27915 5.13537
#
# Compressibility (1/GPa) = 0.05455438
#
# Stress axis : x y z
#
# Youngs Moduli (GPa) = 67.98406 20.18243 151.54163
#
# Poissons Ratio (x) = 0.07854 0.43992
# Poissons Ratio (y) = 0.26457 0.20554
# Poissons Ratio (z) = 0.19736 0.02737
#
# Static dielectric constant tensor:
#      x y z
#    x 1.906180 0.000000 0.034770 
#    y 0.000000 1.859880 0.000000 
#    z 0.034770 0.000000 1.948410 
# 
# From -- ./inp_files/209585.got.cif
#   From: 2010.05.17/outbox.cif.g08.bks.cpg/sg15_105_cif.got.tgz:209585.got - 2010.06.03 18:47:42.
