data_PCOD9277723
_publ_section_title
;
Structure prediction by ZEFSAII (Michael W. Deem and Ramdas Pophale) SiO2 
 PCOD9277723
Probable space group: C 2/C
;
_chemical_formula_sum "Si O2"
_cell_formula_units_Z 36
_cell_length_a 14.483879
_cell_length_b 7.411728
_cell_length_c 13.990485
_cell_angle_alpha 90.000000
_cell_angle_beta 90.897669
_cell_angle_gamma 90.000000
_cell_volume 1501.702235
_symmetry_space_group_name_H-M "C 2/C"
_symmetry_group_IT_number 15
_symmetry_cell_setting 'monoclinic'
loop_
_space_group_symop_operation_xyz
x,y,z
-x,y,1/2-z
-x,-y,-z
x,-y,1/2+z
1/2+x,1/2+y,z
1/2-x,1/2+y,1/2-z
1/2-x,1/2-y,-z
1/2+x,1/2-y,1/2+z
loop_
_atom_site_type_symbol
_atom_site_label
_atom_site_fract_x
_atom_site_fract_y
_atom_site_fract_z
Si Si1 0.164049 0.460831 0.861476
Si Si2 0.932946 0.022254 0.855901
Si Si3 0.000000 0.647475 0.250000
Si Si4 0.136288 0.098380 0.950017
Si Si5 0.193562 0.851336 0.796508
O O1 0.058655 0.467117 0.823233
O O2 0.155413 0.313158 0.945943
O O3 0.193030 0.668392 0.857728
O O4 0.227210 0.370975 0.780661
O O5 0.931779 0.217688 0.806009
O O6 0.036270 0.036006 0.903346
O O7 0.898114 0.888168 0.771148
O O8 0.866317 0.978738 0.943658
O O9 0.204417 0.005123 0.876637
#
# Coordination Sequence:
#
# PCOD9277723 Si02
#       5
#     8   8   4   8   8
#     4  11  23  39  64  90 128 160 213 244 316 359
#     4  10  20  41  68  85 130 163 202 256 313 355
#     4  10  20  42  62  90 120 172 200 260 306 372
#     4  10  22  42  61  97 122 163 208 256 298 381
#     4  12  21  42  63  91 125 170 195 265 304 366
#
# _framework density 23.972795999999999
#
# number of rings (size 3 to 8) (size 9 to 14) (size 15 to 20)
#    0.000    1.333    6.667    0.000    3.111    0.889 
#    4.000    5.556    0.000    0.000    0.000    0.000 
#    0.000    0.000    0.000    0.000    0.000    0.000 
#
# Total GULP energy -100277.722438 kJ/mol
# GULP energy per Si atom -5570.984580 kJ/mol
# Density = 2.391823 g / cm^3
# Si number density = 23.972796 Si / 1000 Ang^3
#
#
#
# Elastic Constant Matrix: (Units=GPa)
#
#
# Indices 1 2 3 4 5 6 
#
# 1 64.7571 8.3384 -3.8408 0.0000 12.2202 0.0000
# 2 8.3384 111.7223 13.3183 0.0000 11.1996 0.0000
# 3 -3.8408 13.3183 105.2715 0.0000 6.2961 0.0000
# 4 0.0000 0.0000 0.0000 27.3554 0.0000 5.5110
# 5 12.2202 11.1996 6.2961 0.0000 32.4593 0.0000
# 6 0.0000 0.0000 0.0000 5.5110 0.0000 36.0247
#
#
#
# Elastic Compliance Matrix: (Units=1/GPa)
#
#
# Indices 1 2 3 4 5 6 
#
# 1 0.016787 -0.000753 0.001083 0.000000 -0.006270 0.000000
# 2 -0.000753 0.009409 -0.001053 0.000000 -0.002759 0.000000
# 3 0.001083 -0.001053 0.009788 0.000000 -0.001943 0.000000
# 4 0.000000 0.000000 0.000000 0.037718 0.000000 -0.005770
# 5 -0.006270 -0.002759 -0.001943 0.000000 0.034497 0.000000
# 6 0.000000 0.000000 0.000000 -0.005770 0.000000 0.028641
#
#
# Mechanical properties :
#
#
# Convention : Reuss Voigt Hill
#
# Bulk Modulus (GPa) = 28.95455 35.26474 32.10964
# Shear Modulus (GPa) = 33.37784 36.76356 35.07070
#
# Velocity S-wave (km/s) = 3.73543 3.92031 3.82899
# Velocity P-wave (km/s) = 5.54156 5.93582 5.74208
#
# Compressibility (1/GPa) = 0.03453689
#
# Stress axis : x y z
#
# Youngs Moduli (GPa) = 59.57078 106.28074 102.16427
#
# Poissons Ratio (x) = 0.08007 -0.11062
# Poissons Ratio (y) = 0.04488 0.10757
# Poissons Ratio (z) = -0.06450 0.11190
#
# Static dielectric constant tensor:
#      x y z
#    x 2.004100 0.000000 -0.000410 
#    y 0.000000 1.888590 0.000000 
#    z -0.000410 0.000000 1.891870 
# 
# From -- ./inp_files/207945.got.cif
#   From: 2010.05.17/outbox.cif.g08.bks.cpg/sg15_104_cif.got.tgz:207945.got - 2010.06.03 18:47:42.
