data_PCOD9277702
_publ_section_title
;
Structure prediction by ZEFSAII (Michael W. Deem and Ramdas Pophale) SiO2 
 PCOD9277702
Probable space group: C 2/C
;
_chemical_formula_sum "Si O2"
_cell_formula_units_Z 44
_cell_length_a 23.931368
_cell_length_b 12.025194
_cell_length_c 16.599037
_cell_angle_alpha 90.000000
_cell_angle_beta 158.665136
_cell_angle_gamma 90.000000
_cell_volume 1737.908064
_symmetry_space_group_name_H-M "C 2/C"
_symmetry_group_IT_number 15
_symmetry_cell_setting 'monoclinic'
loop_
_space_group_symop_operation_xyz
x,y,z
-x,y,1/2-z
-x,-y,-z
x,-y,1/2+z
1/2+x,1/2+y,z
1/2-x,1/2+y,1/2-z
1/2-x,1/2-y,-z
1/2+x,1/2-y,1/2+z
loop_
_atom_site_type_symbol
_atom_site_label
_atom_site_fract_x
_atom_site_fract_y
_atom_site_fract_z
Si Si1 0.106578 0.614706 0.827455
Si Si2 0.601385 0.977663 0.057525
Si Si3 0.988701 0.754628 0.406647
Si Si4 0.692557 0.377409 0.566351
Si Si5 0.000000 0.939027 0.750000
Si Si6 0.082237 0.831577 0.700103
O O1 0.127976 0.703737 0.784211
O O2 0.000000 0.673158 0.750000
O O3 0.005489 0.513449 0.660154
O O4 0.264159 0.596035 0.085437
O O5 0.736025 0.065175 0.256338
O O6 0.616171 0.845341 0.076401
O O7 0.500000 0.000000 0.000000
O O8 0.037471 0.819434 0.391644
O O9 0.009996 0.828236 0.515608
O O10 0.820540 0.699075 0.194506
O O11 0.648401 0.480790 0.450628
O O12 0.986180 0.876038 0.646734
#
# Coordination Sequence:
#
# PCOD9277702 Si02
#       6
#     8   8   8   8   4   8
#     4  11  21  37  63 106 134 173 222 288 352 400
#     4  10  20  41  67  97 141 182 223 281 355 415
#     4  11  25  46  73 101 144 189 233 284 360 423
#     4  11  26  46  71 102 142 189 235 290 350 422
#     4  12  28  46  68 104 146 180 238 296 350 402
#     4  11  23  37  72 101 139 174 235 296 339 416
#
# _framework density 25.317795
#
# number of rings (size 3 to 8) (size 9 to 14) (size 15 to 20)
#    0.000    1.091    4.545    3.273    5.091    1.455 
#    4.909    0.000    0.000    0.000    0.000    0.000 
#    0.000    0.000    0.000    0.000    0.000    0.000 
#
# Total GULP energy -122784.173963 kJ/mol
# GULP energy per Si atom -5581.098817 kJ/mol
# Density = 2.526017 g / cm^3
# Si number density = 25.317795 Si / 1000 Ang^3
#
#
#
# Elastic Constant Matrix: (Units=GPa)
#
#
# Indices 1 2 3 4 5 6 
#
# 1 108.6790 39.3434 25.3565 0.0000 3.3319 0.0000
# 2 39.3434 66.9708 19.6658 0.0000 -4.9137 0.0000
# 3 25.3565 19.6658 76.3867 0.0000 1.7008 0.0000
# 4 0.0000 0.0000 0.0000 22.6886 0.0000 -2.2709
# 5 3.3319 -4.9137 1.7008 0.0000 34.0693 0.0000
# 6 0.0000 0.0000 0.0000 -2.2709 0.0000 34.5196
#
#
#
# Elastic Compliance Matrix: (Units=1/GPa)
#
#
# Indices 1 2 3 4 5 6 
#
# 1 0.012205 -0.006646 -0.002295 0.000000 -0.002038 0.000000
# 2 -0.006646 0.019994 -0.003024 0.000000 0.003685 0.000000
# 3 -0.002295 -0.003024 0.014653 0.000000 -0.000943 0.000000
# 4 0.000000 0.000000 0.000000 0.044367 0.000000 0.002919
# 5 -0.002038 0.003685 -0.000943 0.000000 0.030130 0.000000
# 6 0.000000 0.000000 0.000000 0.002919 0.000000 0.029161
#
#
# Mechanical properties :
#
#
# Convention : Reuss Voigt Hill
#
# Bulk Modulus (GPa) = 43.62403 46.75199 45.18801
# Shear Modulus (GPa) = 27.46046 29.43357 28.44701
#
# Velocity S-wave (km/s) = 3.29695 3.41334 3.35565
# Velocity P-wave (km/s) = 5.63570 5.83444 5.73593
#
# Compressibility (1/GPa) = 0.02292315
#
# Stress axis : x y z
#
# Youngs Moduli (GPa) = 81.93197 50.01432 68.24738
#
# Poissons Ratio (x) = 0.33238 0.15664
# Poissons Ratio (y) = 0.54450 0.20635
# Poissons Ratio (z) = 0.18805 0.15122
#
# Static dielectric constant tensor:
#      x y z
#    x 1.950070 0.000000 0.036100 
#    y 0.000000 2.080640 0.000000 
#    z 0.036100 0.000000 2.168410 
# 
# From -- ./inp_files/222776.got.cif
#   From: 2010.05.17/outbox.cif.g08.bks.cpg/sg15_112_cif.got.tgz:222776.got - 2010.06.03 18:47:42.
