data_PCOD9277939
_publ_section_title
;
Structure prediction by ZEFSAII (Michael W. Deem and Ramdas Pophale) SiO2 
 PCOD9277939
Probable space group: C 2/C
;
_chemical_formula_sum "Si O2"
_cell_formula_units_Z 60
_cell_length_a 10.744437
_cell_length_b 19.317701
_cell_length_c 13.254890
_cell_angle_alpha 90.000000
_cell_angle_beta 81.563903
_cell_angle_gamma 90.000000
_cell_volume 2721.388865
_symmetry_space_group_name_H-M "C 2/C"
_symmetry_group_IT_number 15
_symmetry_cell_setting 'monoclinic'
loop_
_space_group_symop_operation_xyz
x,y,z
-x,y,1/2-z
-x,-y,-z
x,-y,1/2+z
1/2+x,1/2+y,z
1/2-x,1/2+y,1/2-z
1/2-x,1/2-y,-z
1/2+x,1/2-y,1/2+z
loop_
_atom_site_type_symbol
_atom_site_label
_atom_site_fract_x
_atom_site_fract_y
_atom_site_fract_z
Si Si1 0.600168 0.360107 0.165321
Si Si2 0.712224 0.099817 0.014138
Si Si3 0.407202 0.675233 0.510539
Si Si4 0.684539 0.238493 0.303889
Si Si5 0.379582 0.327733 0.653328
Si Si6 0.500000 0.455208 0.750000
Si Si7 0.949927 0.591933 0.148003
Si Si8 0.291407 0.463341 0.933889
O O1 0.500000 0.399122 0.250000
O O2 0.514307 0.349069 0.077275
O O3 0.631724 0.291622 0.226705
O O4 0.734596 0.383747 0.104224
O O5 0.771894 0.155800 0.083408
O O6 0.565313 0.097228 0.056002
O O7 0.768377 0.022315 0.019982
O O8 0.321786 0.725487 0.586727
O O9 0.496674 0.704241 0.412073
O O10 0.332165 0.609512 0.477541
O O11 0.820311 0.216939 0.248361
O O12 0.604497 0.168331 0.322375
O O13 0.414826 0.402454 0.693949
O O14 0.403078 0.485345 0.844384
O O15 0.836355 0.548358 0.113700
O O16 0.000000 0.564390 0.250000
#
# Coordination Sequence:
#
# PCOD9277939 Si02
#       8
#     8   8   8   8   8   4   8   8
#     4   9  21  39  61  99 123 163 211 275 318 381
#     4  11  24  40  66  95 126 174 218 263 333 393
#     4   9  22  38  64  95 128 164 213 274 322 381
#     4  11  21  41  63  94 132 169 220 270 328 386
#     4  10  21  39  64  95 123 172 213 269 332 386
#     4  10  20  42  62  96 122 170 214 266 334 382
#     4  12  23  43  66  93 123 182 216 265 329 389
#     4  11  24  43  64  93 137 168 222 268 325 399
#
# _framework density 22.047564999999999
#
# number of rings (size 3 to 8) (size 9 to 14) (size 15 to 20)
#    0.000    1.600    2.667    1.600    2.800    6.400 
#    7.200    0.000    0.000    0.000    0.000    0.000 
#    0.000    0.000    0.000    0.000    0.000    0.000 
#
# Total GULP energy -167402.250004 kJ/mol
# GULP energy per Si atom -5580.075000 kJ/mol
# Density = 2.199738 g / cm^3
# Si number density = 22.047565 Si / 1000 Ang^3
#
#
#
# Elastic Constant Matrix: (Units=GPa)
#
#
# Indices 1 2 3 4 5 6 
#
# 1 95.6050 28.4514 75.7222 0.0000 -14.1046 0.0000
# 2 28.4514 43.3553 41.1055 0.0000 -17.0913 0.0000
# 3 75.7222 41.1055 142.3364 0.0000 -48.6453 0.0000
# 4 0.0000 0.0000 0.0000 41.2982 0.0000 -19.5533
# 5 -14.1046 -17.0913 -48.6453 0.0000 56.4262 0.0000
# 6 0.0000 0.0000 0.0000 -19.5533 0.0000 -8.9342
#
#
#
# Elastic Compliance Matrix: (Units=1/GPa)
#
#
# Indices 1 2 3 4 5 6 
#
# 1 0.019982 -0.004785 -0.011394 0.000000 -0.006277 0.000000
# 2 -0.004785 0.033144 -0.005676 0.000000 0.003950 0.000000
# 3 -0.011394 -0.005676 0.018664 0.000000 0.011523 0.000000
# 4 0.000000 0.000000 0.000000 0.011892 0.000000 -0.026026
# 5 -0.006277 0.003950 0.011523 0.000000 0.027284 0.000000
# 6 0.000000 0.000000 0.000000 -0.026026 0.000000 -0.054969
#
#
# Mechanical properties :
#
#
# Convention : Reuss Voigt Hill
#
# Bulk Modulus (GPa) = 35.61186 63.53943 49.57565
# Shear Modulus (GPa) = 45.84367 26.82588 36.33478
#
# Velocity S-wave (km/s) = 4.56489 3.49195 4.06398
# Velocity P-wave (km/s) = 6.63111 6.71864 6.67502
#
# Compressibility (1/GPa) = 0.02808053
#
# Stress axis : x y z
#
# Youngs Moduli (GPa) = 50.04588 30.17131 53.57773
#
# Poissons Ratio (x) = 0.14437 0.61044
# Poissons Ratio (y) = 0.23946 0.30413
# Poissons Ratio (z) = 0.57020 0.17126
#
# Static dielectric constant tensor:
#      x y z
#    x 1.818820 0.000000 -0.008750 
#    y 0.000000 1.873000 0.000000 
#    z -0.008750 0.000000 1.844960 
# 
# From -- ./inp_files/146051.got.cif
#   From: 2010.05.17/outbox.cif.g08.bks.cpg/sg15_74_cif.got.tgz:146051.got - 2010.06.03 18:47:42.
