data_PCOD9277394
_publ_section_title
;
Structure prediction by ZEFSAII (Michael W. Deem and Ramdas Pophale) SiO2 
 PCOD9277394
Probable space group: C 2/C
;
_chemical_formula_sum "Si O2"
_cell_formula_units_Z 44
_cell_length_a 11.000834
_cell_length_b 23.288526
_cell_length_c 22.226315
_cell_angle_alpha 90.000000
_cell_angle_beta 156.430647
_cell_angle_gamma 90.000000
_cell_volume 2276.888477
_symmetry_space_group_name_H-M "C 2/C"
_symmetry_group_IT_number 15
_symmetry_cell_setting 'monoclinic'
loop_
_space_group_symop_operation_xyz
x,y,z
-x,y,1/2-z
-x,-y,-z
x,-y,1/2+z
1/2+x,1/2+y,z
1/2-x,1/2+y,1/2-z
1/2-x,1/2-y,-z
1/2+x,1/2-y,1/2+z
loop_
_atom_site_type_symbol
_atom_site_label
_atom_site_fract_x
_atom_site_fract_y
_atom_site_fract_z
Si Si1 0.494844 0.435652 0.877741
Si Si2 0.615523 0.835360 0.983881
Si Si3 0.660939 0.373991 0.071283
Si Si4 0.728640 0.057983 0.463773
Si Si5 0.000000 0.883262 0.750000
Si Si6 0.209353 0.282769 0.898040
O O1 0.556909 0.419252 0.836613
O O2 0.127649 0.441410 0.715594
O O3 0.619067 0.388809 0.981947
O O4 0.656812 0.495290 0.967215
O O5 0.761839 0.897007 0.034647
O O6 0.295957 0.846231 0.869917
O O7 0.581302 0.807137 0.902299
O O8 0.789193 0.785855 0.098141
O O9 0.000000 0.382133 0.250000
O O10 0.435331 0.417395 0.004007
O O11 0.537064 0.311087 0.033950
O O12 0.000000 0.304528 0.750000
#
# Coordination Sequence:
#
# PCOD9277394 Si02
#       6
#     8   8   8   8   4   8
#     4  11  22  39  62  90 123 162 199 251 303 361
#     4   9  21  39  59  83 124 156 199 246 300 366
#     4  11  22  38  64  94 119 155 207 255 304 358
#     4  10  21  40  61  87 125 161 201 250 301 360
#     4  10  22  40  58  90 122 160 200 246 300 362
#     4  10  20  41  62  86 116 162 201 251 306 348
#
# _framework density 19.324617
#
# number of rings (size 3 to 8) (size 9 to 14) (size 15 to 20)
#    0.000    1.818    0.000    5.455    1.273    2.909 
#   14.727    1.818    0.000    0.000    0.000    0.000 
#    0.000    0.000    0.000    0.000    0.000    0.000 
#
# Total GULP energy -122737.107465 kJ/mol
# GULP energy per Si atom -5578.959430 kJ/mol
# Density = 1.928063 g / cm^3
# Si number density = 19.324617 Si / 1000 Ang^3
#
#
#
# Elastic Constant Matrix: (Units=GPa)
#
#
# Indices 1 2 3 4 5 6 
#
# 1 108.4029 10.8133 42.9030 0.0013 -9.2262 -0.0033
# 2 10.8133 37.8330 19.1086 0.0350 0.0864 -0.0312
# 3 42.9030 19.1086 103.4726 0.0248 -8.4616 0.0090
# 4 0.0013 0.0350 0.0248 16.4884 -0.0077 0.8405
# 5 -9.2262 0.0864 -8.4616 -0.0077 24.2357 0.0039
# 6 -0.0033 -0.0312 0.0090 0.8405 0.0039 -1.5837
#
#
#
# Elastic Compliance Matrix: (Units=1/GPa)
#
#
# Indices 1 2 3 4 5 6 
#
# 1 0.011247 -0.001083 -0.004234 0.000010 0.002807 -0.000014
# 2 -0.001083 0.029353 -0.005161 -0.000024 -0.002319 -0.000624
# 3 -0.004234 -0.005161 0.012603 -0.000016 0.002807 0.000181
# 4 0.000010 -0.000024 -0.000016 0.059051 0.000012 0.031340
# 5 0.002807 -0.002319 0.002807 0.000012 0.043318 0.000169
# 6 -0.000014 -0.000624 0.000181 0.031340 0.000169 -0.614805
#
#
# Mechanical properties :
#
#
# Convention : Reuss Voigt Hill
#
# Bulk Modulus (GPa) = 31.01057 43.92871 37.46964
# Shear Modulus (GPa) = -11.69518 19.62031 3.96257
#
# Velocity S-wave (km/s) = -2.46274 3.18984 1.43352
# Velocity P-wave (km/s) = 2.82758 6.02894 4.70868
#
# Compressibility (1/GPa) = 0.03224707
#
# Stress axis : x y z
#
# Youngs Moduli (GPa) = 88.90866 34.06792 79.34839
#
# Poissons Ratio (x) = 0.03688 0.33597
# Poissons Ratio (y) = 0.09626 0.40955
# Poissons Ratio (z) = 0.37644 0.17584
#
# Static dielectric constant tensor:
#      x y z
#    x 1.671620 0.000000 -0.001630 
#    y 0.000000 1.706500 -0.000030 
#    z -0.001630 -0.000030 1.641990 
# 
# From -- ./inp_files/271232.got.cif
#   From: 2010.05.17/outbox.cif.g08.bks.cpg/sg15_136_cif.got.tgz:271232.got - 2010.06.03 18:47:42.
