data_PCOD9277611
_publ_section_title
;
Structure prediction by ZEFSAII (Michael W. Deem and Ramdas Pophale) SiO2 
 PCOD9277611
Probable space group: C 2/C
;
_chemical_formula_sum "Si O2"
_cell_formula_units_Z 52
_cell_length_a 9.957379
_cell_length_b 23.879132
_cell_length_c 11.882704
_cell_angle_alpha 90.000000
_cell_angle_beta 122.864286
_cell_angle_gamma 90.000000
_cell_volume 2373.212169
_symmetry_space_group_name_H-M "C 2/C"
_symmetry_group_IT_number 15
_symmetry_cell_setting 'monoclinic'
loop_
_space_group_symop_operation_xyz
x,y,z
-x,y,1/2-z
-x,-y,-z
x,-y,1/2+z
1/2+x,1/2+y,z
1/2-x,1/2+y,1/2-z
1/2-x,1/2-y,-z
1/2+x,1/2-y,1/2+z
loop_
_atom_site_type_symbol
_atom_site_label
_atom_site_fract_x
_atom_site_fract_y
_atom_site_fract_z
Si Si1 0.672119 0.210181 0.774164
Si Si2 0.845282 0.853370 0.541609
Si Si3 0.722822 0.331781 0.744696
Si Si4 0.791226 0.586950 0.084705
Si Si5 0.153693 0.408883 0.143580
Si Si6 0.935504 0.942912 0.417214
Si Si7 0.500000 0.985906 0.250000
O O1 0.500000 0.223937 0.750000
O O2 0.739218 0.265023 0.744023
O O3 0.657102 0.154587 0.691829
O O4 0.784218 0.193758 0.929146
O O5 0.747558 0.850535 0.612892
O O6 0.835142 0.911159 0.468691
O O7 0.033569 0.844824 0.646247
O O8 0.814197 0.366384 0.691213
O O9 0.851794 0.528194 0.163792
O O10 0.873727 0.592403 0.001495
O O11 0.602093 0.588910 0.971454
O O12 0.322236 0.438723 0.256876
O O13 0.028275 0.446161 0.155961
O O14 0.000000 0.000000 0.500000
#
# Coordination Sequence:
#
# PCOD9277611 Si02
#       7
#     8   8   8   8   8   8   4
#     4  11  21  37  67  94 123 170 213 265 321 380
#     4   9  20  36  61  94 123 161 218 259 305 390
#     4  10  21  40  62  91 126 164 212 264 314 373
#     4  11  25  42  62  95 133 168 212 268 325 383
#     4  11  24  43  65  96 128 168 217 266 322 393
#     4  10  20  41  66  92 122 170 213 261 321 379
#     4  12  24  44  62  96 132 174 212 256 326 396
#
# _framework density 21.911231000000001
#
# number of rings (size 3 to 8) (size 9 to 14) (size 15 to 20)
#    0.000    1.538    3.846    1.385    0.000    3.077 
#    5.538    0.000    3.385    0.000    0.000    0.000 
#    0.000    0.000    0.000    0.000    0.000    0.000 
#
# Total GULP energy -145235.575774 kJ/mol
# GULP energy per Si atom -5585.983684 kJ/mol
# Density = 2.186136 g / cm^3
# Si number density = 21.911231 Si / 1000 Ang^3
#
#
#
# Elastic Constant Matrix: (Units=GPa)
#
#
# Indices 1 2 3 4 5 6 
#
# 1 88.1307 46.0730 35.9510 0.0000 -16.2405 0.0000
# 2 46.0730 156.6079 55.1163 0.0000 -47.2640 0.0000
# 3 35.9510 55.1163 100.9526 0.0000 -34.6893 0.0000
# 4 0.0000 0.0000 0.0000 -30.0017 0.0000 -49.8909
# 5 -16.2405 -47.2640 -34.6893 0.0000 47.7761 0.0000
# 6 0.0000 0.0000 0.0000 -49.8909 0.0000 -11.8392
#
#
#
# Elastic Compliance Matrix: (Units=1/GPa)
#
#
# Indices 1 2 3 4 5 6 
#
# 1 0.014355 -0.003222 -0.003693 0.000000 -0.000989 0.000000
# 2 -0.003222 0.010326 -0.001807 0.000000 0.007807 0.000000
# 3 -0.003693 -0.001807 0.014872 0.000000 0.007755 0.000000
# 4 0.000000 0.000000 0.000000 0.005548 0.000000 -0.023380
# 5 -0.000989 0.007807 0.007755 0.000000 0.033950 0.000000
# 6 0.000000 0.000000 0.000000 -0.023380 0.000000 0.014060
#
#
# Mechanical properties :
#
#
# Convention : Reuss Voigt Hill
#
# Bulk Modulus (GPa) = 45.23053 68.88574 57.05813
# Shear Modulus (GPa) = 42.39999 15.09043 28.74521
#
# Velocity S-wave (km/s) = 4.40373 2.62717 3.62594
# Velocity P-wave (km/s) = 6.82235 6.38040 6.60507
#
# Compressibility (1/GPa) = 0.02210896
#
# Stress axis : x y z
#
# Youngs Moduli (GPa) = 69.66014 96.84701 67.23909
#
# Poissons Ratio (x) = 0.31205 0.24831
# Poissons Ratio (y) = 0.22445 0.12151
# Poissons Ratio (z) = 0.25725 0.17501
#
# Static dielectric constant tensor:
#      x y z
#    x 1.828510 0.000000 0.027560 
#    y 0.000000 1.810670 0.000000 
#    z 0.027560 0.000000 1.843450 
# 
# From -- ./inp_files/89714.got.cif
#   From: 2010.05.17/outbox.cif.g08.bks.cpg/sg15_45_cif.got.tgz:89714.got - 2010.06.03 18:47:42.
