data_PCOD9277409
_publ_section_title
;
Structure prediction by ZEFSAII (Michael W. Deem and Ramdas Pophale) SiO2 
 PCOD9277409
Probable space group: C 2/C
;
_chemical_formula_sum "Si O2"
_cell_formula_units_Z 48
_cell_length_a 8.092244
_cell_length_b 12.691319
_cell_length_c 20.559128
_cell_angle_alpha 90.000000
_cell_angle_beta 85.704904
_cell_angle_gamma 90.000000
_cell_volume 2105.518243
_symmetry_space_group_name_H-M "C 2/C"
_symmetry_group_IT_number 15
_symmetry_cell_setting 'monoclinic'
loop_
_space_group_symop_operation_xyz
x,y,z
-x,y,1/2-z
-x,-y,-z
x,-y,1/2+z
1/2+x,1/2+y,z
1/2-x,1/2+y,1/2-z
1/2-x,1/2-y,-z
1/2+x,1/2-y,1/2+z
loop_
_atom_site_type_symbol
_atom_site_label
_atom_site_fract_x
_atom_site_fract_y
_atom_site_fract_z
Si Si1 0.152535 0.001145 0.831023
Si Si2 0.796917 0.081858 0.806290
Si Si3 0.570544 0.160863 0.455585
Si Si4 0.406174 0.822128 0.818747
Si Si5 0.548669 0.604147 0.958424
Si Si6 0.808169 0.558998 0.561058
O O1 0.238810 0.055860 0.767050
O O2 0.168542 0.065192 0.897386
O O3 0.954122 0.006333 0.821889
O O4 0.238249 0.888587 0.834823
O O5 0.860404 0.201056 0.807187
O O6 0.652158 0.065211 0.863193
O O7 0.513727 0.167945 0.381598
O O8 0.600946 0.279823 0.478051
O O9 0.429810 0.112671 0.506738
O O10 0.704708 0.065986 0.454511
O O11 0.500000 0.858449 0.750000
O O12 0.361691 0.623548 0.937152
O O13 0.500000 0.500000 0.000000
#
# Coordination Sequence:
#
# PCOD9277409 Si02
#       6
#     8   8   8   8   8   8
#     4  10  21  37  63  91 116 161 209 242 312 367
#     4  10  20  41  62  88 123 160 205 254 306 365
#     4  11  22  39  62  92 123 164 205 254 308 364
#     4  12  21  38  69  87 121 167 200 255 310 362
#     4  11  22  38  62  89 127 164 202 255 308 363
#     4  10  22  38  62  89 123 162 206 254 305 366
#
# _framework density 22.797239000000001
#
# number of rings (size 3 to 8) (size 9 to 14) (size 15 to 20)
#    0.000    1.333    5.000    2.500    2.333    0.667 
#    0.000    0.000   18.333    0.000    0.000    0.000 
#    0.000    0.000    0.000    0.000    0.000    0.000 
#
# Total GULP energy -133820.514701 kJ/mol
# GULP energy per Si atom -5575.854779 kJ/mol
# Density = 2.274535 g / cm^3
# Si number density = 22.797239 Si / 1000 Ang^3
#
#
#
# Elastic Constant Matrix: (Units=GPa)
#
#
# Indices 1 2 3 4 5 6 
#
# 1 49.1103 48.1027 6.6172 0.0000 -4.8136 0.0000
# 2 48.1027 170.5126 52.9232 0.0000 2.5045 0.0000
# 3 6.6172 52.9232 112.5172 0.0000 -17.5395 0.0000
# 4 0.0000 0.0000 0.0000 38.2600 0.0000 -4.5147
# 5 -4.8136 2.5045 -17.5395 0.0000 25.4538 0.0000
# 6 0.0000 0.0000 0.0000 -4.5147 0.0000 31.4754
#
#
#
# Elastic Compliance Matrix: (Units=1/GPa)
#
#
# Indices 1 2 3 4 5 6 
#
# 1 0.030751 -0.010237 0.004560 0.000000 0.009965 0.000000
# 2 -0.010237 0.010524 -0.005390 0.000000 -0.006685 0.000000
# 3 0.004560 -0.005390 0.012740 0.000000 0.010172 0.000000
# 4 0.000000 0.000000 0.000000 0.026587 0.000000 0.003813
# 5 0.009965 -0.006685 0.010172 0.000000 0.048838 0.000000
# 6 0.000000 0.000000 0.000000 0.003813 0.000000 0.032318
#
#
# Mechanical properties :
#
#
# Convention : Reuss Voigt Hill
#
# Bulk Modulus (GPa) = 31.36647 60.82515 46.09581
# Shear Modulus (GPa) = 25.70440 34.00428 29.85434
#
# Velocity S-wave (km/s) = 3.36150 3.86631 3.62271
# Velocity P-wave (km/s) = 5.37169 6.83154 6.14512
#
# Compressibility (1/GPa) = 0.03188117
#
# Stress axis : x y z
#
# Youngs Moduli (GPa) = 32.51886 95.02400 78.49197
#
# Poissons Ratio (x) = 0.97274 -0.35790
# Poissons Ratio (y) = 0.33289 0.42307
# Poissons Ratio (z) = -0.14828 0.51218
#
# Static dielectric constant tensor:
#      x y z
#    x 1.962820 0.000000 0.150210 
#    y 0.000000 1.808670 0.000000 
#    z 0.150210 0.000000 2.036420 
# 
# From -- ./inp_files/263100.got.cif
#   From: 2010.05.17/outbox.cif.g08.bks.cpg/sg15_132_cif.got.tgz:263100.got - 2010.06.03 18:47:42.
