data_PCOD9277071
_publ_section_title
;
Structure prediction by ZEFSAII (Michael W. Deem and Ramdas Pophale) SiO2 
 PCOD9277071
Probable space group: C 2/C
;
_chemical_formula_sum "Si O2"
_cell_formula_units_Z 40
_cell_length_a 12.446274
_cell_length_b 20.768154
_cell_length_c 12.356778
_cell_angle_alpha 90.000000
_cell_angle_beta 150.972823
_cell_angle_gamma 90.000000
_cell_volume 1549.833875
_symmetry_space_group_name_H-M "C 2/C"
_symmetry_group_IT_number 15
_symmetry_cell_setting 'monoclinic'
loop_
_space_group_symop_operation_xyz
x,y,z
-x,y,1/2-z
-x,-y,-z
x,-y,1/2+z
1/2+x,1/2+y,z
1/2-x,1/2+y,1/2-z
1/2-x,1/2-y,-z
1/2+x,1/2-y,1/2+z
loop_
_atom_site_type_symbol
_atom_site_label
_atom_site_fract_x
_atom_site_fract_y
_atom_site_fract_z
Si Si1 0.000000 0.089485 0.250000
Si Si2 0.500000 0.184986 0.250000
Si Si3 0.821454 0.443242 0.850914
Si Si4 0.860700 0.678893 0.905598
Si Si5 0.923353 0.903431 0.069503
Si Si6 0.283341 0.809656 0.107241
O O1 0.190914 0.054731 0.349394
O O2 0.095921 0.137686 0.426870
O O3 0.566541 0.217378 0.422535
O O4 0.289520 0.140070 0.088860
O O5 0.657943 0.445750 0.602858
O O6 0.000000 0.500000 0.000000
O O7 0.954753 0.375618 0.957163
O O8 0.632226 0.640548 0.722012
O O9 0.825458 0.716700 0.764013
O O10 0.000000 0.934964 0.250000
O O11 0.500000 0.843633 0.250000
O O12 0.250000 0.750000 0.000000
#
# Coordination Sequence:
#
# PCOD9277071 Si02
#       6
#     4   4   8   8   8   8
#     4  12  24  46  68 104 155 193 244 312 364 444
#     4   8  18  36  64  96 127 189 230 290 358 418
#     4  11  24  42  67 101 144 195 245 306 377 442
#     4  10  20  40  67  99 143 182 245 302 363 442
#     4   9  18  38  64  94 133 189 241 293 363 425
#     4  12  24  42  72 109 144 192 238 301 381 445
#
# _framework density 25.809215999999999
#
# number of rings (size 3 to 8) (size 9 to 14) (size 15 to 20)
#    0.000    1.600    5.000    0.000    0.000    0.800 
#    9.000    6.000    0.000    1.200    2.600    0.000 
#    0.000    0.200    0.000    0.000    0.000    0.000 
#
# Total GULP energy -111961.171464 kJ/mol
# GULP energy per Si atom -5598.058573 kJ/mol
# Density = 2.575047 g / cm^3
# Si number density = 25.809216 Si / 1000 Ang^3
#
#
#
# Elastic Constant Matrix: (Units=GPa)
#
#
# Indices 1 2 3 4 5 6 
#
# 1 197.2265 54.0214 90.2066 0.0000 -29.0260 0.0000
# 2 54.0214 84.0943 39.6967 0.0000 -5.8610 0.0000
# 3 90.2066 39.6967 170.6922 0.0000 -39.8895 0.0000
# 4 0.0000 0.0000 0.0000 6.4165 0.0000 14.2416
# 5 -29.0260 -5.8610 -39.8895 0.0000 86.6901 0.0000
# 6 0.0000 0.0000 0.0000 14.2416 0.0000 23.6700
#
#
#
# Elastic Compliance Matrix: (Units=1/GPa)
#
#
# Indices 1 2 3 4 5 6 
#
# 1 0.007473 -0.003340 -0.002959 0.000000 0.000915 0.000000
# 2 -0.003340 0.014878 -0.001928 0.000000 -0.001000 0.000000
# 3 -0.002959 -0.001928 0.008525 0.000000 0.002802 0.000000
# 4 0.000000 0.000000 0.000000 -0.464633 0.000000 0.279556
# 5 0.000915 -0.001000 0.002802 0.000000 0.013063 0.000000
# 6 0.000000 0.000000 0.000000 0.279556 0.000000 -0.125954
#
#
# Mechanical properties :
#
#
# Convention : Reuss Voigt Hill
#
# Bulk Modulus (GPa) = 69.34127 91.09583 80.21855
# Shear Modulus (GPa) = -9.51684 41.22788 15.85552
#
# Velocity S-wave (km/s) = -1.92234 4.00110 2.48127
# Velocity P-wave (km/s) = 4.69020 7.53110 6.27358
#
# Compressibility (1/GPa) = 0.01442143
#
# Stress axis : x y z
#
# Youngs Moduli (GPa) = 133.81280 67.21429 117.29700
#
# Poissons Ratio (x) = 0.22451 0.34705
# Poissons Ratio (y) = 0.44697 0.22620
# Poissons Ratio (z) = 0.39592 0.12962
#
# Static dielectric constant tensor:
#      x y z
#    x 2.078870 0.000000 0.011290 
#    y 0.000000 1.986670 0.000000 
#    z 0.011290 0.000000 2.115370 
# 
# From -- ./inp_files/92247.got.cif
#   From: 2010.05.17/outbox.cif.g08.bks.cpg/sg15_47_cif.got.tgz:92247.got - 2010.06.03 18:47:42.
