data_PCOD9277833
_publ_section_title
;
Structure prediction by ZEFSAII (Michael W. Deem and Ramdas Pophale) SiO2 
 PCOD9277833
Probable space group: C 2/C
;
_chemical_formula_sum "Si O2"
_cell_formula_units_Z 40
_cell_length_a 23.585370
_cell_length_b 6.029496
_cell_length_c 12.146500
_cell_angle_alpha 90.000000
_cell_angle_beta 60.395510
_cell_angle_gamma 90.000000
_cell_volume 1501.836233
_symmetry_space_group_name_H-M "C 2/C"
_symmetry_group_IT_number 15
_symmetry_cell_setting 'monoclinic'
loop_
_space_group_symop_operation_xyz
x,y,z
-x,y,1/2-z
-x,-y,-z
x,-y,1/2+z
1/2+x,1/2+y,z
1/2-x,1/2+y,1/2-z
1/2-x,1/2-y,-z
1/2+x,1/2-y,1/2+z
loop_
_atom_site_type_symbol
_atom_site_label
_atom_site_fract_x
_atom_site_fract_y
_atom_site_fract_z
Si Si1 0.229150 0.997296 0.068917
Si Si2 0.554033 0.719368 0.558910
Si Si3 0.097139 0.178260 0.120017
Si Si4 0.574105 0.926470 0.779105
Si Si5 0.336498 0.994871 0.624975
O O1 0.152751 0.027315 0.123152
O O2 0.261920 0.987424 0.159277
O O3 0.250000 0.750000 0.000000
O O4 0.250000 0.250000 0.000000
O O5 0.550003 0.462317 0.587732
O O6 0.568222 0.809736 0.667946
O O7 0.485561 0.829091 0.593347
O O8 0.618115 0.785121 0.428924
O O9 0.066556 0.320862 0.246867
O O10 0.132710 0.339965 0.998982
O O11 0.642687 0.906104 0.776203
#
# Coordination Sequence:
#
# PCOD9277833 Si02
#       5
#     8   8   8   8   8
#     4  10  20  41  71  96 133 177 224 282 346 409
#     4  10  21  39  63  86 135 170 220 277 342 399
#     4  10  22  41  63  95 133 178 221 288 345 406
#     4  10  23  39  60  99 129 172 225 279 341 412
#     4  10  21  40  65  95 127 173 231 271 344 413
#
# _framework density 26.634063999999999
#
# number of rings (size 3 to 8) (size 9 to 14) (size 15 to 20)
#    0.000    2.000    2.000    0.600    0.000    8.800 
#    3.600    0.000    0.000    3.600    0.000    0.000 
#    0.000    0.000    0.000    0.000    0.000    0.000 
#
# Total GULP energy -111485.575165 kJ/mol
# GULP energy per Si atom -5574.278758 kJ/mol
# Density = 2.657344 g / cm^3
# Si number density = 26.634064 Si / 1000 Ang^3
#
#
#
# Elastic Constant Matrix: (Units=GPa)
#
#
# Indices 1 2 3 4 5 6 
#
# 1 103.0595 62.0583 32.6647 0.0000 10.7192 0.0000
# 2 62.0583 137.6794 13.8105 0.0000 -13.3773 0.0000
# 3 32.6647 13.8105 41.0450 0.0000 21.9275 0.0000
# 4 0.0000 0.0000 0.0000 21.5694 0.0000 8.4765
# 5 10.7192 -13.3773 21.9275 0.0000 42.4656 0.0000
# 6 0.0000 0.0000 0.0000 8.4765 0.0000 44.0475
#
#
#
# Elastic Compliance Matrix: (Units=1/GPa)
#
#
# Indices 1 2 3 4 5 6 
#
# 1 0.017420 -0.006809 -0.011154 0.000000 -0.000783 0.000000
# 2 -0.006809 0.011063 -0.001496 0.000000 0.005977 0.000000
# 3 -0.011154 -0.001496 0.044869 0.000000 -0.020824 0.000000
# 4 0.000000 0.000000 0.000000 0.050155 0.000000 -0.009652
# 5 -0.000783 0.005977 -0.020824 0.000000 0.036382 0.000000
# 6 0.000000 0.000000 0.000000 -0.009652 0.000000 0.024560
#
#
# Mechanical properties :
#
#
# Convention : Reuss Voigt Hill
#
# Bulk Modulus (GPa) = 29.04222 55.42791 42.23506
# Shear Modulus (GPa) = 21.29055 33.16652 27.22853
#
# Velocity S-wave (km/s) = 2.83039 3.53266 3.20084
# Velocity P-wave (km/s) = 4.64858 6.12337 5.43622
#
# Compressibility (1/GPa) = 0.03443263
#
# Stress axis : x y z
#
# Youngs Moduli (GPa) = 57.40501 90.38923 22.28716
#
# Poissons Ratio (x) = 0.61548 0.24860
# Poissons Ratio (y) = 0.39088 0.03335
# Poissons Ratio (z) = 0.64031 0.13526
#
# Static dielectric constant tensor:
#      x y z
#    x 2.116840 0.000000 -0.019600 
#    y 0.000000 2.337520 0.000000 
#    z -0.019600 0.000000 2.158570 
# 
# From -- ./inp_files/170508.got.cif
#   From: 2010.05.17/outbox.cif.g08.bks.cpg/sg15_86_cif.got.tgz:170508.got - 2010.06.03 18:47:42.
