data_PCOD9277337
_publ_section_title
;
Structure prediction by ZEFSAII (Michael W. Deem and Ramdas Pophale) SiO2 
 PCOD9277337
Probable space group: C 2/C
;
_chemical_formula_sum "Si O2"
_cell_formula_units_Z 60
_cell_length_a 22.149095
_cell_length_b 11.054178
_cell_length_c 15.532382
_cell_angle_alpha 90.000000
_cell_angle_beta 51.483115
_cell_angle_gamma 90.000000
_cell_volume 2975.521118
_symmetry_space_group_name_H-M "C 2/C"
_symmetry_group_IT_number 15
_symmetry_cell_setting 'monoclinic'
loop_
_space_group_symop_operation_xyz
x,y,z
-x,y,1/2-z
-x,-y,-z
x,-y,1/2+z
1/2+x,1/2+y,z
1/2-x,1/2+y,1/2-z
1/2-x,1/2-y,-z
1/2+x,1/2-y,1/2+z
loop_
_atom_site_type_symbol
_atom_site_label
_atom_site_fract_x
_atom_site_fract_y
_atom_site_fract_z
Si Si1 0.160324 0.719766 0.879147
Si Si2 0.759633 0.259389 0.632775
Si Si3 0.876711 0.544471 0.021179
Si Si4 0.026692 0.319363 0.383257
Si Si5 0.254290 0.863064 0.933431
Si Si6 0.667801 0.402131 0.571328
Si Si7 0.500000 0.639410 0.250000
Si Si8 0.413547 0.016037 0.298569
O O1 0.219387 0.696409 0.748424
O O2 0.140003 0.595430 0.946049
O O3 0.079225 0.749482 0.905439
O O4 0.200327 0.821995 0.901737
O O5 0.807467 0.376278 0.618377
O O6 0.697562 0.313133 0.620405
O O7 0.816812 0.172277 0.529898
O O8 0.885035 0.554057 0.909897
O O9 0.954782 0.606699 0.986119
O O10 0.002211 0.225930 0.331378
O O11 0.074537 0.422707 0.289682
O O12 0.344381 0.893513 0.835549
O O13 0.250000 0.750000 0.000000
O O14 0.218281 0.978363 0.014116
O O15 0.579502 0.432166 0.669982
O O16 0.500000 0.062266 0.250000
#
# Coordination Sequence:
#
# PCOD9277337 Si02
#       8
#     8   8   8   8   8   8   4   8
#     4  12  26  38  65 101 141 172 227 285 338 404
#     4  11  22  38  68  98 125 173 227 278 339 395
#     4  11  21  42  66 100 131 174 226 286 338 397
#     4  11  21  41  70 101 131 170 231 293 332 398
#     4  12  25  47  65  95 143 186 220 277 350 422
#     4  11  23  42  70  93 132 176 228 275 339 415
#     4  12  20  42  68 102 126 178 226 286 338 408
#     4  10  20  40  74  97 126 177 232 279 337 403
#
# _framework density 20.164535000000001
#
# number of rings (size 3 to 8) (size 9 to 14) (size 15 to 20)
#    0.000    0.800    7.333    1.200    3.733    0.000 
#    1.200    0.667    2.933    0.000    0.000    0.000 
#    0.000    0.000    0.000    0.000    0.000    0.000 
#
# Total GULP energy -167463.055191 kJ/mol
# GULP energy per Si atom -5582.101840 kJ/mol
# Density = 2.011864 g / cm^3
# Si number density = 20.164535 Si / 1000 Ang^3
#
#
#
# Elastic Constant Matrix: (Units=GPa)
#
#
# Indices 1 2 3 4 5 6 
#
# 1 119.4663 18.4416 24.6414 0.0000 -20.1983 0.0000
# 2 18.4416 51.1688 7.8797 0.0000 -9.5892 0.0000
# 3 24.6414 7.8797 71.4118 0.0000 -19.9682 0.0000
# 4 0.0000 0.0000 0.0000 20.2890 0.0000 -14.8050
# 5 -20.1983 -9.5892 -19.9682 0.0000 35.4292 0.0000
# 6 0.0000 0.0000 0.0000 -14.8050 0.0000 35.2835
#
#
#
# Elastic Compliance Matrix: (Units=1/GPa)
#
#
# Indices 1 2 3 4 5 6 
#
# 1 0.009819 -0.002518 -0.002060 0.000000 0.003755 0.000000
# 2 -0.002518 0.021276 -0.000321 0.000000 0.004143 0.000000
# 3 -0.002060 -0.000321 0.017090 0.000000 0.008371 0.000000
# 4 0.000000 0.000000 0.000000 0.071039 0.000000 0.029808
# 5 0.003755 0.004143 0.008371 0.000000 0.036205 0.000000
# 6 0.000000 0.000000 0.000000 0.029808 0.000000 0.040849
#
#
# Mechanical properties :
#
#
# Convention : Reuss Voigt Hill
#
# Bulk Modulus (GPa) = 26.04965 38.21914 32.13440
# Shear Modulus (GPa) = 22.84436 30.93929 26.89183
#
# Velocity S-wave (km/s) = 3.36951 3.92132 3.65584
# Velocity P-wave (km/s) = 5.29950 6.28467 5.81299
#
# Compressibility (1/GPa) = 0.03838823
#
# Stress axis : x y z
#
# Youngs Moduli (GPa) = 101.84238 47.00069 58.51283
#
# Poissons Ratio (x) = 0.11834 0.12056
# Poissons Ratio (y) = 0.25642 0.01875
# Poissons Ratio (z) = 0.20983 0.01506
#
# Static dielectric constant tensor:
#      x y z
#    x 1.822460 0.000000 -0.002050 
#    y 0.000000 1.690810 0.000000 
#    z -0.002050 0.000000 1.708000 
# 
# From -- ./inp_files/173153.got.cif
#   From: 2010.05.17/outbox.cif.g08.bks.cpg/sg15_87_cif.got.tgz:173153.got - 2010.06.03 18:47:42.
