data_PCOD9277275
_publ_section_title
;
Structure prediction by ZEFSAII (Michael W. Deem and Ramdas Pophale) SiO2 
 PCOD9277275
Probable space group: C 2/C
;
_chemical_formula_sum "Si O2"
_cell_formula_units_Z 56
_cell_length_a 25.815681
_cell_length_b 9.022870
_cell_length_c 16.991365
_cell_angle_alpha 90.000000
_cell_angle_beta 45.313181
_cell_angle_gamma 90.000000
_cell_volume 2813.860090
_symmetry_space_group_name_H-M "C 2/C"
_symmetry_group_IT_number 15
_symmetry_cell_setting 'monoclinic'
loop_
_space_group_symop_operation_xyz
x,y,z
-x,y,1/2-z
-x,-y,-z
x,-y,1/2+z
1/2+x,1/2+y,z
1/2-x,1/2+y,1/2-z
1/2-x,1/2-y,-z
1/2+x,1/2-y,1/2+z
loop_
_atom_site_type_symbol
_atom_site_label
_atom_site_fract_x
_atom_site_fract_y
_atom_site_fract_z
Si Si1 0.566354 0.747226 0.547707
Si Si2 0.416160 0.405311 0.214333
Si Si3 0.471817 0.058426 0.944718
Si Si4 0.839397 0.716229 0.161301
Si Si5 0.260879 0.939960 0.327243
Si Si6 0.810141 0.858659 0.472944
Si Si7 0.402075 0.738645 0.172689
O O1 0.501131 0.633566 0.636205
O O2 0.641207 0.718367 0.512076
O O3 0.583228 0.740513 0.436764
O O4 0.537777 0.912391 0.596510
O O5 0.385844 0.287584 0.182786
O O6 0.367750 0.394579 0.343631
O O7 0.403826 0.569034 0.194949
O O8 0.532399 0.174579 0.854491
O O9 0.395667 0.138884 0.041646
O O10 0.500000 0.000000 0.000000
O O11 0.795696 0.846401 0.164673
O O12 0.788684 0.586150 0.250678
O O13 0.328936 0.830195 0.267165
O O14 0.227107 0.001210 0.444447
O O15 0.750000 0.750000 0.500000
#
# Coordination Sequence:
#
# PCOD9277275 Si02
#       7
#     8   8   8   8   8   8   8
#     4  11  22  45  70  98 127 178 231 272 329 390
#     4  12  24  42  69  97 134 178 221 276 328 405
#     4  10  20  40  70  99 127 162 219 289 326 379
#     4  12  22  41  70 102 131 170 230 278 331 386
#     4  12  25  42  68 103 138 175 219 278 340 400
#     4  12  28  43  65  94 142 184 217 262 343 413
#     4  11  23  42  73 104 128 166 230 286 333 379
#
# _framework density 19.901486999999999
#
# number of rings (size 3 to 8) (size 9 to 14) (size 15 to 20)
#    0.000    0.571    7.143    3.429    2.000    1.714 
#    0.000    0.000    0.000    0.000    0.000    0.000 
#    0.000    0.000    0.000    0.000    0.000    0.000 
#
# Total GULP energy -156527.838677 kJ/mol
# GULP energy per Si atom -5590.279953 kJ/mol
# Density = 1.985619 g / cm^3
# Si number density = 19.901487 Si / 1000 Ang^3
#
#
#
# Elastic Constant Matrix: (Units=GPa)
#
#
# Indices 1 2 3 4 5 6 
#
# 1 67.9617 44.6185 37.1745 0.0097 -21.8323 -0.0083
# 2 44.6185 113.2644 22.6184 0.0110 -8.7797 -0.0110
# 3 37.1745 22.6184 76.8019 0.0082 -15.7838 -0.0100
# 4 0.0097 0.0110 0.0082 32.7870 -0.0063 -12.5757
# 5 -21.8323 -8.7797 -15.7838 -0.0063 23.1128 0.0073
# 6 -0.0083 -0.0110 -0.0100 -12.5757 0.0073 3.5875
#
#
#
# Elastic Compliance Matrix: (Units=1/GPa)
#
#
# Indices 1 2 3 4 5 6 
#
# 1 0.032356 -0.009400 -0.008545 0.000023 0.021157 0.000062
# 2 -0.009400 0.012187 0.000101 -0.000021 -0.004180 -0.000048
# 3 -0.008545 0.000101 0.018002 -0.000021 0.004261 -0.000051
# 4 0.000023 -0.000021 -0.000021 -0.088529 0.000074 -0.310327
# 5 0.021157 -0.004180 0.004261 0.000074 0.064573 0.000177
# 6 0.000062 -0.000048 -0.000051 -0.310327 0.000177 -0.809073
#
#
# Mechanical properties :
#
#
# Convention : Reuss Voigt Hill
#
# Bulk Modulus (GPa) = 37.23091 51.87230 44.55160
# Shear Modulus (GPa) = -6.88854 22.13858 7.62502
#
# Velocity S-wave (km/s) = -1.86248 3.33890 1.95952
# Velocity P-wave (km/s) = 3.75807 6.40199 5.24922
#
# Compressibility (1/GPa) = 0.02685940
#
# Stress axis : x y z
#
# Youngs Moduli (GPa) = 30.90626 82.05162 55.54843
#
# Poissons Ratio (x) = 0.77126 0.47466
# Poissons Ratio (y) = 0.29051 -0.00563
# Poissons Ratio (z) = 0.26409 -0.00832
#
# Static dielectric constant tensor:
#      x y z
#    x 1.697350 0.000000 -0.011030 
#    y 0.000000 1.419010 0.000040 
#    z -0.011030 0.000040 1.682840 
# 
# From -- ./inp_files/222017.got.cif
#   From: 2010.05.17/outbox.cif.g08.bks.cpg/sg15_112_cif.got.tgz:222017.got - 2010.06.03 18:47:42.
