data_PCOD9277718
_publ_section_title
;
Structure prediction by ZEFSAII (Michael W. Deem and Ramdas Pophale) SiO2 
 PCOD9277718
Probable space group: C 2/C
;
_chemical_formula_sum "Si O2"
_cell_formula_units_Z 48
_cell_length_a 17.673142
_cell_length_b 12.871536
_cell_length_c 17.649384
_cell_angle_alpha 90.000000
_cell_angle_beta 147.610007
_cell_angle_gamma 90.000000
_cell_volume 2150.693765
_symmetry_space_group_name_H-M "C 2/C"
_symmetry_group_IT_number 15
_symmetry_cell_setting 'monoclinic'
loop_
_space_group_symop_operation_xyz
x,y,z
-x,y,1/2-z
-x,-y,-z
x,-y,1/2+z
1/2+x,1/2+y,z
1/2-x,1/2+y,1/2-z
1/2-x,1/2-y,-z
1/2+x,1/2-y,1/2+z
loop_
_atom_site_type_symbol
_atom_site_label
_atom_site_fract_x
_atom_site_fract_y
_atom_site_fract_z
Si Si1 0.760617 0.830671 0.439497
Si Si2 0.661241 0.499900 0.380655
Si Si3 0.841216 0.672567 0.950483
Si Si4 0.804890 0.349508 0.893741
Si Si5 0.671189 0.854959 0.754274
Si Si6 0.392277 0.910426 0.324658
O O1 0.750000 0.750000 0.500000
O O2 0.797642 0.940031 0.507474
O O3 0.860752 0.762910 0.469757
O O4 0.630739 0.841975 0.270911
O O5 0.500000 0.466357 0.250000
O O6 0.761103 0.406849 0.438424
O O7 0.683191 0.592003 0.336941
O O8 0.762445 0.783802 0.886756
O O9 0.831831 0.629468 0.854585
O O10 0.006506 0.679285 0.111776
O O11 0.941946 0.421703 0.018966
O O12 0.763788 0.335819 0.773451
O O13 0.669556 0.979448 0.754459
#
# Coordination Sequence:
#
# PCOD9277718 Si02
#       6
#     8   8   8   8   8   8
#     4  10  24  37  65 104 133 168 219 281 346 400
#     4  11  24  41  62  94 143 175 215 286 338 402
#     4  11  23  45  68 101 135 182 233 279 341 413
#     4  10  20  41  68 102 126 172 225 285 344 402
#     4  11  22  42  76 100 133 175 234 285 336 408
#     4  11  21  43  73  98 134 175 225 286 346 408
#
# _framework density 22.318380000000001
#
# number of rings (size 3 to 8) (size 9 to 14) (size 15 to 20)
#    0.000    1.333    5.000    1.000    4.667    3.333 
#    0.000    5.000    0.000    0.000    0.000    0.000 
#    0.000    0.000    0.000    0.000    0.000    0.000 
#
# Total GULP energy -133696.018399 kJ/mol
# GULP energy per Si atom -5570.667433 kJ/mol
# Density = 2.226758 g / cm^3
# Si number density = 22.318380 Si / 1000 Ang^3
#
#
#
# Elastic Constant Matrix: (Units=GPa)
#
#
# Indices 1 2 3 4 5 6 
#
# 1 46.4781 6.3384 4.0400 0.0000 5.7294 0.0000
# 2 6.3384 54.1204 -10.4815 0.0001 -0.3863 0.0000
# 3 4.0400 -10.4815 34.0798 0.0001 -0.8419 0.0000
# 4 0.0000 0.0001 0.0001 33.4393 0.0000 -2.8444
# 5 5.7294 -0.3863 -0.8419 0.0000 27.5675 0.0000
# 6 0.0000 0.0000 0.0000 -2.8444 0.0000 26.8598
#
#
#
# Elastic Compliance Matrix: (Units=1/GPa)
#
#
# Indices 1 2 3 4 5 6 
#
# 1 0.022938 -0.003479 -0.003911 0.000000 -0.004935 0.000000
# 2 -0.003479 0.020181 0.006649 0.000000 0.001209 0.000000
# 3 -0.003911 0.006649 0.031898 0.000000 0.001880 0.000000
# 4 0.000000 0.000000 0.000000 0.030177 0.000000 0.003196
# 5 -0.004935 0.001209 0.001880 0.000000 0.037375 0.000000
# 6 0.000000 0.000000 0.000000 0.003196 0.000000 0.037569
#
#
# Mechanical properties :
#
#
# Convention : Reuss Voigt Hill
#
# Bulk Modulus (GPa) = 13.59894 14.94135 14.27015
# Shear Modulus (GPa) = 24.25631 26.55875 25.40753
#
# Velocity S-wave (km/s) = 3.30029 3.45337 3.37770
# Velocity P-wave (km/s) = 4.54191 4.75502 4.64968
#
# Compressibility (1/GPa) = 0.07353512
#
# Stress axis : x y z
#
# Youngs Moduli (GPa) = 43.59515 49.55115 31.34989
#
# Poissons Ratio (x) = 0.17240 0.12262
# Poissons Ratio (y) = 0.15168 -0.20845
# Poissons Ratio (z) = 0.17051 -0.32947
#
# Static dielectric constant tensor:
#      x y z
#    x 1.888600 0.000000 -0.033100 
#    y 0.000000 2.116770 0.000000 
#    z -0.033100 0.000000 1.819880 
# 
# From -- ./inp_files/252610.got.cif
#   From: 2010.05.17/outbox.cif.g08.bks.cpg/sg15_127_cif.got.tgz:252610.got - 2010.06.03 18:47:42.
