data_PCOD9277483
_publ_section_title
;
Structure prediction by ZEFSAII (Michael W. Deem and Ramdas Pophale) SiO2 
 PCOD9277483
Probable space group: C 2/C
;
_chemical_formula_sum "Si O2"
_cell_formula_units_Z 56
_cell_length_a 6.018191
_cell_length_b 25.485089
_cell_length_c 17.400486
_cell_angle_alpha 90.000000
_cell_angle_beta 76.015413
_cell_angle_gamma 90.000000
_cell_volume 2589.683742
_symmetry_space_group_name_H-M "C 2/C"
_symmetry_group_IT_number 15
_symmetry_cell_setting 'monoclinic'
loop_
_space_group_symop_operation_xyz
x,y,z
-x,y,1/2-z
-x,-y,-z
x,-y,1/2+z
1/2+x,1/2+y,z
1/2-x,1/2+y,1/2-z
1/2-x,1/2-y,-z
1/2+x,1/2-y,1/2+z
loop_
_atom_site_type_symbol
_atom_site_label
_atom_site_fract_x
_atom_site_fract_y
_atom_site_fract_z
Si Si1 0.781849 0.915492 0.806758
Si Si2 0.304216 0.179522 0.824838
Si Si3 0.933274 0.092358 0.456319
Si Si4 0.499506 0.837189 0.462513
Si Si5 0.368758 0.162800 0.381816
Si Si6 0.000000 0.257191 0.750000
Si Si7 0.064982 0.089938 0.607381
Si Si8 0.000000 0.010523 0.750000
O O1 0.566034 0.878042 0.836149
O O2 0.000000 0.885644 0.750000
O O3 0.851891 0.935619 0.886016
O O4 0.212312 0.969204 0.743077
O O5 0.500000 0.161319 0.750000
O O6 0.421661 0.196752 0.895626
O O7 0.159995 0.223102 0.792086
O O8 0.132976 0.132059 0.857343
O O9 0.140674 0.129858 0.413713
O O10 0.015908 0.065102 0.527495
O O11 0.718144 0.127662 0.497821
O O12 0.570397 0.813260 0.539005
O O13 0.703029 0.875953 0.418458
O O14 0.351798 0.206652 0.318894
O O15 0.058504 0.047673 0.674437
#
# Coordination Sequence:
#
# PCOD9277483 Si02
#       8
#     8   8   8   8   8   4   8   4
#     4   9  20  37  56  86 120 152 199 244 292 351
#     4  11  23  40  61  92 122 154 199 250 299 362
#     4   9  19  38  62  84 117 163 198 247 294 345
#     4   9  20  40  64  84 121 161 198 250 296 350
#     4  10  21  40  61  85 119 163 201 247 295 352
#     4  12  25  36  64  92 116 162 199 242 308 356
#     4  10  20  41  64  87 123 156 199 246 299 354
#     4  10  21  36  62  92 118 158 195 244 302 358
#
# _framework density 21.624262999999999
#
# number of rings (size 3 to 8) (size 9 to 14) (size 15 to 20)
#    0.429    1.714    0.000    3.000    0.000    4.000 
#    0.000   23.571    0.000    0.000    0.000    0.000 
#    0.000    0.000    0.000    0.000    0.000    0.000 
#
# Total GULP energy -156113.392187 kJ/mol
# GULP energy per Si atom -5575.478292 kJ/mol
# Density = 2.157504 g / cm^3
# Si number density = 21.624263 Si / 1000 Ang^3
#
#
#
# Elastic Constant Matrix: (Units=GPa)
#
#
# Indices 1 2 3 4 5 6 
#
# 1 60.8032 14.1976 31.3398 0.0000 -20.1920 0.0000
# 2 14.1976 59.8110 38.8921 0.0000 2.5122 0.0000
# 3 31.3398 38.8921 141.0685 0.0000 0.5483 0.0000
# 4 0.0000 0.0000 0.0000 7.5784 0.0000 -0.0450
# 5 -20.1920 2.5122 0.5483 0.0000 58.5212 0.0000
# 6 0.0000 0.0000 0.0000 -0.0450 0.0000 1.5493
#
#
#
# Elastic Compliance Matrix: (Units=1/GPa)
#
#
# Indices 1 2 3 4 5 6 
#
# 1 0.021758 -0.002832 -0.004083 0.000000 0.007667 0.000000
# 2 -0.002832 0.020780 -0.005093 0.000000 -0.001821 0.000000
# 3 -0.004083 -0.005093 0.009405 0.000000 -0.001278 0.000000
# 4 0.000000 0.000000 0.000000 0.131976 0.000000 0.003830
# 5 0.007667 -0.001821 -0.001278 0.000000 0.019824 0.000000
# 6 0.000000 0.000000 0.000000 0.003830 0.000000 0.645561
#
#
# Mechanical properties :
#
#
# Convention : Reuss Voigt Hill
#
# Bulk Modulus (GPa) = 35.80672 47.83796 41.82234
# Shear Modulus (GPa) = 5.66491 25.34667 15.50579
#
# Velocity S-wave (km/s) = 1.62030 3.42737 2.68069
# Velocity P-wave (km/s) = 4.48275 6.15084 5.38182
#
# Compressibility (1/GPa) = 0.02792772
#
# Stress axis : x y z
#
# Youngs Moduli (GPa) = 45.95914 48.12419 106.32887
#
# Poissons Ratio (x) = 0.13629 0.43413
# Poissons Ratio (y) = 0.13016 0.54149
# Poissons Ratio (z) = 0.18764 0.24508
#
# Static dielectric constant tensor:
#      x y z
#    x 1.829100 0.000000 0.067620 
#    y 0.000000 1.750930 0.000000 
#    z 0.067620 0.000000 1.843100 
# 
# From -- ./inp_files/186140.got.cif
#   From: 2010.05.17/outbox.cif.g08.bks.cpg/sg15_94_cif.got.tgz:186140.got - 2010.06.03 18:47:42.
