data_PCOD9277329
_publ_section_title
;
Structure prediction by ZEFSAII (Michael W. Deem and Ramdas Pophale) SiO2 
 PCOD9277329
Probable space group: C 2/C
;
_chemical_formula_sum "Si O2"
_cell_formula_units_Z 44
_cell_length_a 14.093682
_cell_length_b 7.252999
_cell_length_c 24.461491
_cell_angle_alpha 90.000000
_cell_angle_beta 132.476286
_cell_angle_gamma 90.000000
_cell_volume 1844.253160
_symmetry_space_group_name_H-M "C 2/C"
_symmetry_group_IT_number 15
_symmetry_cell_setting 'monoclinic'
loop_
_space_group_symop_operation_xyz
x,y,z
-x,y,1/2-z
-x,-y,-z
x,-y,1/2+z
1/2+x,1/2+y,z
1/2-x,1/2+y,1/2-z
1/2-x,1/2-y,-z
1/2+x,1/2-y,1/2+z
loop_
_atom_site_type_symbol
_atom_site_label
_atom_site_fract_x
_atom_site_fract_y
_atom_site_fract_z
Si Si1 0.500000 0.236957 0.750000
Si Si2 0.568691 0.845608 0.654033
Si Si3 0.067276 0.041139 0.377284
Si Si4 0.333238 0.893225 0.492965
Si Si5 0.446978 0.660476 0.439928
Si Si6 0.773920 0.442073 0.194678
O O1 0.511668 0.359837 0.701123
O O2 0.621809 0.111151 0.809300
O O3 0.490648 0.667568 0.646944
O O4 0.458058 0.948905 0.576853
O O5 0.682650 0.734857 0.667481
O O6 0.641746 0.986819 0.721756
O O7 0.042429 0.141681 0.425404
O O8 0.221279 0.031057 0.430207
O O9 0.250000 0.750000 0.500000
O O10 0.402965 0.813962 0.465947
O O11 0.500000 0.500000 0.500000
O O12 0.314203 0.605930 0.359215
#
# Coordination Sequence:
#
# PCOD9277329 Si02
#       6
#     4   8   8   8   8   8
#     4  12  28  44  60 106 138 184 236 284 342 424
#     4  10  22  44  70  98 132 180 222 284 351 411
#     4  10  24  44  69  99 145 181 237 291 349 429
#     4  10  20  40  74 100 133 180 236 281 358 419
#     4  11  20  42  72 102 136 182 227 296 352 425
#     4  11  24  41  68  96 138 178 227 284 349 415
#
# _framework density 23.857897000000001
#
# number of rings (size 3 to 8) (size 9 to 14) (size 15 to 20)
#    0.000    1.455    5.455    2.182    7.636    0.000 
#    3.273    6.364    0.000    0.000    0.000    0.000 
#    0.000    0.000    0.000    0.000    0.000    0.000 
#
# Total GULP energy -122672.724904 kJ/mol
# GULP energy per Si atom -5576.032950 kJ/mol
# Density = 2.380360 g / cm^3
# Si number density = 23.857897 Si / 1000 Ang^3
#
#
#
# Elastic Constant Matrix: (Units=GPa)
#
#
# Indices 1 2 3 4 5 6 
#
# 1 86.8251 24.9978 39.6148 0.0000 -1.8646 0.0000
# 2 24.9978 57.5618 13.4273 0.0000 3.5518 0.0000
# 3 39.6148 13.4273 144.9275 0.0000 22.7949 0.0000
# 4 0.0000 0.0000 0.0000 -1.2645 0.0000 -19.5128
# 5 -1.8646 3.5518 22.7949 0.0000 49.0146 0.0000
# 6 0.0000 0.0000 0.0000 -19.5128 0.0000 12.0269
#
#
#
# Elastic Compliance Matrix: (Units=1/GPa)
#
#
# Indices 1 2 3 4 5 6 
#
# 1 0.015089 -0.005788 -0.004040 0.000000 0.002872 0.000000
# 2 -0.005788 0.019991 -0.000008 0.000000 -0.001665 0.000000
# 3 -0.004040 -0.000008 0.008663 0.000000 -0.004182 0.000000
# 4 0.000000 0.000000 0.000000 -0.030374 0.000000 -0.049280
# 5 0.002872 -0.001665 -0.004182 0.000000 0.022577 0.000000
# 6 0.000000 0.000000 0.000000 -0.049280 0.000000 0.003194
#
#
# Mechanical properties :
#
#
# Convention : Reuss Voigt Hill
#
# Bulk Modulus (GPa) = 41.54423 49.48824 45.51623
# Shear Modulus (GPa) = 74.81304 26.04036 50.42670
#
# Velocity S-wave (km/s) = 5.60588 3.30734 4.60241
# Velocity P-wave (km/s) = 7.70403 5.94748 6.88203
#
# Compressibility (1/GPa) = 0.02407073
#
# Stress axis : x y z
#
# Youngs Moduli (GPa) = 66.27512 50.02326 115.43633
#
# Poissons Ratio (x) = 0.28951 0.46635
# Poissons Ratio (y) = 0.38357 0.00096
# Poissons Ratio (z) = 0.26775 0.00041
#
# Static dielectric constant tensor:
#      x y z
#    x 1.504540 0.000000 0.269150 
#    y 0.000000 1.987080 0.000000 
#    z 0.269150 0.000000 1.752140 
# 
# From -- ./inp_files/295311.got.cif
#   From: 2010.05.17/outbox.cif.g08.bks.cpg/sg15_148_cif.got.tgz:295311.got - 2010.06.03 18:47:42.
