data_PCOD9277542
_publ_section_title
;
Structure prediction by ZEFSAII (Michael W. Deem and Ramdas Pophale) SiO2 
 PCOD9277542
Probable space group: C 2/C
;
_chemical_formula_sum "Si O2"
_cell_formula_units_Z 64
_cell_length_a 25.134570
_cell_length_b 12.040691
_cell_length_c 8.993571
_cell_angle_alpha 90.000000
_cell_angle_beta 108.778335
_cell_angle_gamma 90.000000
_cell_volume 2576.914493
_symmetry_space_group_name_H-M "C 2/C"
_symmetry_group_IT_number 15
_symmetry_cell_setting 'monoclinic'
loop_
_space_group_symop_operation_xyz
x,y,z
-x,y,1/2-z
-x,-y,-z
x,-y,1/2+z
1/2+x,1/2+y,z
1/2-x,1/2+y,1/2-z
1/2-x,1/2-y,-z
1/2+x,1/2-y,1/2+z
loop_
_atom_site_type_symbol
_atom_site_label
_atom_site_fract_x
_atom_site_fract_y
_atom_site_fract_z
Si Si1 0.150733 0.766004 0.933985
Si Si2 0.827955 0.539842 0.416183
Si Si3 0.075128 0.234600 0.887886
Si Si4 0.957259 0.684428 0.839433
Si Si5 0.834916 0.128543 0.338929
Si Si6 0.765724 0.121727 0.541297
Si Si7 0.382852 0.407011 0.318786
Si Si8 0.093038 0.466835 0.772328
O O1 0.103141 0.717705 0.782029
O O2 0.185122 0.835220 0.842068
O O3 0.183074 0.665797 0.042120
O O4 0.119591 0.838115 0.031253
O O5 0.782299 0.450778 0.424694
O O6 0.887181 0.510909 0.550424
O O7 0.848347 0.534379 0.265860
O O8 0.074119 0.133024 0.770065
O O9 0.074071 0.342009 0.782056
O O10 0.035198 0.259045 0.993086
O O11 0.135290 0.219968 0.027915
O O12 0.952146 0.550512 0.837587
O O13 0.000000 0.718123 0.750000
O O14 0.785416 0.079249 0.396016
O O15 0.883399 0.036847 0.356426
O O16 0.750000 0.250000 0.500000
O O17 0.820960 0.112684 0.692979
#
# Coordination Sequence:
#
# PCOD9277542 Si02
#       8
#     8   8   8   8   8   8   8   8
#     4  10  22  41  69  90 129 174 214 264 338 388
#     4  11  23  38  62  88 128 179 216 258 320 394
#     4  10  20  41  65  87 132 171 205 263 341 385
#     4  10  23  42  69 102 134 162 206 264 334 421
#     4  10  23  42  61  90 125 178 218 275 328 367
#     4  11  26  38  59  89 133 174 227 276 314 381
#     4  11  22  42  64  91 124 173 226 274 320 374
#     4  11  21  40  64  90 130 181 203 256 336 395
#
# _framework density 24.835902000000001
#
# number of rings (size 3 to 8) (size 9 to 14) (size 15 to 20)
#    0.000    1.500    2.500    3.000    5.250    0.500 
#    0.000    2.500    0.000   12.000    0.000    0.875 
#    0.000    0.000    0.000    0.000    0.000    0.000 
#
# Total GULP energy -178789.439203 kJ/mol
# GULP energy per Si atom -5587.169975 kJ/mol
# Density = 2.477937 g / cm^3
# Si number density = 24.835902 Si / 1000 Ang^3
#
#
#
# Elastic Constant Matrix: (Units=GPa)
#
#
# Indices 1 2 3 4 5 6 
#
# 1 67.2217 10.7056 34.8801 0.0000 -25.8293 0.0000
# 2 10.7056 93.0487 21.6876 0.0000 -13.3029 0.0000
# 3 34.8801 21.6876 110.7627 0.0000 -38.1761 0.0000
# 4 0.0000 0.0000 0.0000 31.2394 0.0000 -15.3393
# 5 -25.8293 -13.3029 -38.1761 0.0000 52.2885 0.0000
# 6 0.0000 0.0000 0.0000 -15.3393 0.0000 9.6847
#
#
#
# Elastic Compliance Matrix: (Units=1/GPa)
#
#
# Indices 1 2 3 4 5 6 
#
# 1 0.019483 -0.000403 -0.003708 0.000000 0.006814 0.000000
# 2 -0.000403 0.011380 -0.001566 0.000000 0.001553 0.000000
# 3 -0.003708 -0.001566 0.013007 0.000000 0.007267 0.000000
# 4 0.000000 0.000000 0.000000 0.144011 0.000000 0.228095
# 5 0.006814 0.001553 0.007267 0.000000 0.028191 0.000000
# 6 0.000000 0.000000 0.000000 0.228095 0.000000 0.464528
#
#
# Mechanical properties :
#
#
# Convention : Reuss Voigt Hill
#
# Bulk Modulus (GPa) = 30.75388 45.06441 37.90915
# Shear Modulus (GPa) = 7.11447 32.22650 19.67049
#
# Velocity S-wave (km/s) = 1.69435 3.60610 2.81733
# Velocity P-wave (km/s) = 4.02957 5.96010 5.08725
#
# Compressibility (1/GPa) = 0.03251622
#
# Stress axis : x y z
#
# Youngs Moduli (GPa) = 51.32804 87.86972 76.88116
#
# Poissons Ratio (x) = 0.03542 0.28504
# Poissons Ratio (y) = 0.02069 0.12041
# Poissons Ratio (z) = 0.19030 0.13762
#
# Static dielectric constant tensor:
#      x y z
#    x 2.026770 0.000000 -0.047740 
#    y 0.000000 2.084690 0.000000 
#    z -0.047740 0.000000 1.998620 
# 
# From -- ./inp_files/69374.got.cif
#   From: 2010.05.17/outbox.cif.g08.bks.cpg/sg15_35_cif.got.tgz:69374.got - 2010.06.03 18:47:42.
