data_PCOD9277187
_publ_section_title
;
Structure prediction by ZEFSAII (Michael W. Deem and Ramdas Pophale) SiO2 
 PCOD9277187
Probable space group: C 2/C
;
_chemical_formula_sum "Si O2"
_cell_formula_units_Z 40
_cell_length_a 11.962424
_cell_length_b 17.807733
_cell_length_c 8.086913
_cell_angle_alpha 90.000000
_cell_angle_beta 101.724699
_cell_angle_gamma 90.000000
_cell_volume 1686.760053
_symmetry_space_group_name_H-M "C 2/C"
_symmetry_group_IT_number 15
_symmetry_cell_setting 'monoclinic'
loop_
_space_group_symop_operation_xyz
x,y,z
-x,y,1/2-z
-x,-y,-z
x,-y,1/2+z
1/2+x,1/2+y,z
1/2-x,1/2+y,1/2-z
1/2-x,1/2-y,-z
1/2+x,1/2-y,1/2+z
loop_
_atom_site_type_symbol
_atom_site_label
_atom_site_fract_x
_atom_site_fract_y
_atom_site_fract_z
Si Si1 0.595421 0.192440 0.014574
Si Si2 0.290026 0.386715 0.769968
Si Si3 0.144922 0.280487 0.152036
Si Si4 0.628356 0.338028 0.221332
Si Si5 0.367067 0.480940 0.480096
O O1 0.458604 0.189581 0.989513
O O2 0.625825 0.184289 0.830491
O O3 0.668627 0.139599 0.156921
O O4 0.627277 0.277626 0.072534
O O5 0.358553 0.309520 0.823909
O O6 0.347346 0.436961 0.643862
O O7 0.295264 0.443569 0.926151
O O8 0.270745 0.305411 0.135516
O O9 0.500000 0.339464 0.250000
O O10 0.660285 0.419442 0.167380
O O11 0.500000 0.500000 0.500000
#
# Coordination Sequence:
#
# PCOD9277187 Si02
#       5
#     8   8   8   8   8
#     4  10  20  40  69  88 119 171 227 254 310 386
#     4  11  22  40  64  97 128 169 213 267 325 382
#     4  10  20  40  71  88 116 171 228 259 305 382
#     4  11  21  37  59  95 128 158 207 277 321 370
#     4  12  23  37  60  96 135 164 208 261 335 385
#
# _framework density 23.714100999999999
#
# number of rings (size 3 to 8) (size 9 to 14) (size 15 to 20)
#    0.000    1.200    4.000    4.200    2.800    0.800 
#    0.000    3.000    0.000    4.800    0.000    0.000 
#    0.000    0.000    0.000    0.000    0.000    0.000 
#
# Total GULP energy -111953.656540 kJ/mol
# GULP energy per Si atom -5597.682827 kJ/mol
# Density = 2.366013 g / cm^3
# Si number density = 23.714101 Si / 1000 Ang^3
#
#
#
# Elastic Constant Matrix: (Units=GPa)
#
#
# Indices 1 2 3 4 5 6 
#
# 1 132.0336 42.8255 31.5150 0.0000 33.8861 0.0000
# 2 42.8255 142.3115 38.4499 0.0000 10.6598 0.0000
# 3 31.5150 38.4499 82.2403 0.0000 10.2086 0.0000
# 4 0.0000 0.0000 0.0000 51.8994 0.0000 0.4240
# 5 33.8861 10.6598 10.2086 0.0000 47.6744 0.0000
# 6 0.0000 0.0000 0.0000 0.4240 0.0000 34.3612
#
#
#
# Elastic Compliance Matrix: (Units=1/GPa)
#
#
# Indices 1 2 3 4 5 6 
#
# 1 0.010436 -0.002051 -0.002236 0.000000 -0.006480 0.000000
# 2 -0.002051 0.008494 -0.003216 0.000000 0.000247 0.000000
# 3 -0.002236 -0.003216 0.014622 0.000000 -0.000823 0.000000
# 4 0.000000 0.000000 0.000000 0.019270 0.000000 -0.000238
# 5 -0.006480 0.000247 -0.000823 0.000000 0.025703 0.000000
# 6 0.000000 0.000000 0.000000 -0.000238 0.000000 0.029106
#
#
# Mechanical properties :
#
#
# Convention : Reuss Voigt Hill
#
# Bulk Modulus (GPa) = 53.91843 64.68513 59.30178
# Shear Modulus (GPa) = 38.81429 43.04000 40.92715
#
# Velocity S-wave (km/s) = 4.05008 4.26485 4.15885
# Velocity P-wave (km/s) = 6.68259 7.18249 6.93705
#
# Compressibility (1/GPa) = 0.01854653
#
# Stress axis : x y z
#
# Youngs Moduli (GPa) = 95.82324 117.72375 68.38992
#
# Poissons Ratio (x) = 0.24145 0.15291
# Poissons Ratio (y) = 0.19653 0.21995
# Poissons Ratio (z) = 0.21424 0.37862
#
# Static dielectric constant tensor:
#      x y z
#    x 1.952800 0.000000 -0.031720 
#    y 0.000000 1.860140 0.000000 
#    z -0.031720 0.000000 2.024290 
# 
# From -- ./inp_files/29343.got.cif
#   From: 2010.05.17/outbox.cif.g08.bks.cpg/sg15_15_cif.got.tgz:29343.got - 2010.06.03 18:47:42.
