data_PCOD9277432
_publ_section_title
;
Structure prediction by ZEFSAII (Michael W. Deem and Ramdas Pophale) SiO2 
 PCOD9277432
Probable space group: C 2/C
;
_chemical_formula_sum "Si O2"
_cell_formula_units_Z 56
_cell_length_a 13.442877
_cell_length_b 12.106173
_cell_length_c 16.534616
_cell_angle_alpha 90.000000
_cell_angle_beta 61.565544
_cell_angle_gamma 90.000000
_cell_volume 2366.252576
_symmetry_space_group_name_H-M "C 2/C"
_symmetry_group_IT_number 15
_symmetry_cell_setting 'monoclinic'
loop_
_space_group_symop_operation_xyz
x,y,z
-x,y,1/2-z
-x,-y,-z
x,-y,1/2+z
1/2+x,1/2+y,z
1/2-x,1/2+y,1/2-z
1/2-x,1/2-y,-z
1/2+x,1/2-y,1/2+z
loop_
_atom_site_type_symbol
_atom_site_label
_atom_site_fract_x
_atom_site_fract_y
_atom_site_fract_z
Si Si1 0.500000 0.843079 0.750000
Si Si2 0.547439 0.377250 0.961134
Si Si3 0.130176 0.238633 0.092371
Si Si4 0.585965 0.018479 0.593002
Si Si5 0.500000 0.419786 0.750000
Si Si6 0.833248 0.011969 0.694049
Si Si7 0.083740 0.236652 0.871407
Si Si8 0.352343 0.024020 0.100519
O O1 0.572437 0.769829 0.782843
O O2 0.572295 0.922890 0.663445
O O3 0.462657 0.310624 0.934708
O O4 0.662704 0.409946 0.870684
O O5 0.500000 0.500000 0.000000
O O6 0.536909 0.303382 0.045276
O O7 0.105603 0.364303 0.126148
O O8 0.103285 0.157495 0.178131
O O9 0.250000 0.250000 0.000000
O O10 0.670083 0.996307 0.484711
O O11 0.467244 0.028948 0.590714
O O12 0.450908 0.494269 0.697446
O O13 0.739628 0.007825 0.798260
O O14 0.835789 0.130913 0.651095
O O15 0.126704 0.344524 0.900706
#
# Coordination Sequence:
#
# PCOD9277432 Si02
#       8
#     4   8   8   8   4   8   8   8
#     4  10  22  40  64  88 128 168 212 262 332 376
#     4   9  20  39  61  93 122 169 219 269 327 396
#     4  11  21  38  64  89 130 172 211 272 335 387
#     4  10  21  40  60  89 126 167 211 263 320 396
#     4  10  22  34  56  94 124 160 216 260 318 390
#     4  10  21  38  63  94 126 166 219 266 325 395
#     4  10  20  41  63  85 125 169 206 270 328 383
#     4  10  21  39  65  91 126 167 215 268 325 390
#
# _framework density 23.666111999999998
#
# number of rings (size 3 to 8) (size 9 to 14) (size 15 to 20)
#    0.000    2.000    1.429    1.714    0.000    2.286 
#   12.857    0.714    0.000    0.000    0.000    0.000 
#    0.000    0.000    0.000    0.000    0.000    0.000 
#
# Total GULP energy -156305.818301 kJ/mol
# GULP energy per Si atom -5582.350654 kJ/mol
# Density = 2.361225 g / cm^3
# Si number density = 23.666112 Si / 1000 Ang^3
#
#
#
# Elastic Constant Matrix: (Units=GPa)
#
#
# Indices 1 2 3 4 5 6 
#
# 1 35.8623 7.0205 7.7810 0.0000 3.2159 0.0000
# 2 7.0205 99.1384 30.4014 0.0000 -4.9644 0.0000
# 3 7.7810 30.4014 152.9502 0.0000 -0.4082 0.0000
# 4 0.0000 0.0000 0.0000 45.9215 0.0000 10.3803
# 5 3.2159 -4.9644 -0.4082 0.0000 37.7224 0.0000
# 6 0.0000 0.0000 0.0000 10.3803 0.0000 12.3375
#
#
#
# Elastic Compliance Matrix: (Units=1/GPa)
#
#
# Indices 1 2 3 4 5 6 
#
# 1 0.028725 -0.001831 -0.001105 0.000000 -0.002702 0.000000
# 2 -0.001831 0.010932 -0.002076 0.000000 0.001572 0.000000
# 3 -0.001105 -0.002076 0.007007 0.000000 -0.000103 0.000000
# 4 0.000000 0.000000 0.000000 0.026891 0.000000 -0.022625
# 5 -0.002702 0.001572 -0.000103 0.000000 0.026946 0.000000
# 6 0.000000 0.000000 0.000000 -0.022625 0.000000 0.100089
#
#
# Mechanical properties :
#
#
# Convention : Reuss Voigt Hill
#
# Bulk Modulus (GPa) = 27.29157 42.03961 34.66559
# Shear Modulus (GPa) = 22.43924 35.37949 28.90937
#
# Velocity S-wave (km/s) = 3.08256 3.87064 3.49886
# Velocity P-wave (km/s) = 4.92204 6.14638 5.56797
#
# Compressibility (1/GPa) = 0.03664135
#
# Stress axis : x y z
#
# Youngs Moduli (GPa) = 34.81317 91.47659 142.72378
#
# Poissons Ratio (x) = 0.16747 0.15766
# Poissons Ratio (y) = 0.06373 0.29623
# Poissons Ratio (z) = 0.03846 0.18986
#
# Static dielectric constant tensor:
#      x y z
#    x 1.983600 0.000000 -0.018130 
#    y 0.000000 1.865480 0.000000 
#    z -0.018130 0.000000 2.050200 
# 
# From -- ./inp_files/210590.got.cif
#   From: 2010.05.17/outbox.cif.g08.bks.cpg/sg15_106_cif.got.tgz:210590.got - 2010.06.03 18:47:42.
