data_PCOD9277037
_publ_section_title
;
Structure prediction by ZEFSAII (Michael W. Deem and Ramdas Pophale) SiO2 
 PCOD9277037
Probable space group: C 2/C
;
_chemical_formula_sum "Si O2"
_cell_formula_units_Z 44
_cell_length_a 16.932389
_cell_length_b 12.303369
_cell_length_c 27.434166
_cell_angle_alpha 90.000000
_cell_angle_beta 156.899948
_cell_angle_gamma 90.000000
_cell_volume 2242.303367
_symmetry_space_group_name_H-M "C 2/C"
_symmetry_group_IT_number 15
_symmetry_cell_setting 'monoclinic'
loop_
_space_group_symop_operation_xyz
x,y,z
-x,y,1/2-z
-x,-y,-z
x,-y,1/2+z
1/2+x,1/2+y,z
1/2-x,1/2+y,1/2-z
1/2-x,1/2-y,-z
1/2+x,1/2-y,1/2+z
loop_
_atom_site_type_symbol
_atom_site_label
_atom_site_fract_x
_atom_site_fract_y
_atom_site_fract_z
Si Si1 0.530391 0.261581 0.619923
Si Si2 0.000000 0.707304 0.250000
Si Si3 0.872549 0.871626 0.628274
Si Si4 0.094892 0.117563 0.058642
Si Si5 0.470499 0.718158 0.891363
Si Si6 0.794061 0.878886 0.059498
O O1 0.345429 0.185745 0.498747
O O2 0.486229 0.321326 0.645916
O O3 0.559750 0.346169 0.593397
O O4 0.743483 0.201568 0.745745
O O5 0.828094 0.633374 0.176442
O O6 0.908377 0.789673 0.157865
O O7 0.000000 0.851355 0.750000
O O8 0.835778 0.000456 0.601232
O O9 0.986920 0.195523 0.957881
O O10 0.000000 0.000000 0.000000
O O11 0.615572 0.637404 0.943199
O O12 0.563330 0.837249 0.931845
#
# Coordination Sequence:
#
# PCOD9277037 Si02
#       6
#     8   4   8   8   8   8
#     4  11  24  44  61  96 136 164 221 266 320 396
#     4  10  20  42  66  94 128 160 220 270 306 398
#     4  11  24  42  67  96 129 177 213 271 330 381
#     4  11  23  42  65  96 128 175 213 264 330 381
#     4  10  22  41  63  94 130 168 215 267 312 393
#     4  10  20  40  67  93 128 165 216 265 323 377
#
# _framework density 19.622679999999999
#
# number of rings (size 3 to 8) (size 9 to 14) (size 15 to 20)
#    0.000    1.455    2.727    2.182    0.000    2.909 
#    8.182    3.636    0.000    0.000    0.000    0.000 
#    0.000    0.000    0.000    0.000    0.000    0.000 
#
# Total GULP energy -122806.511860 kJ/mol
# GULP energy per Si atom -5582.114175 kJ/mol
# Density = 1.957802 g / cm^3
# Si number density = 19.622680 Si / 1000 Ang^3
#
#
#
# Elastic Constant Matrix: (Units=GPa)
#
#
# Indices 1 2 3 4 5 6 
#
# 1 121.8734 47.7290 65.8455 0.0015 -9.0345 0.0000
# 2 47.7290 99.7779 53.8431 0.0043 11.6799 -0.0003
# 3 65.8455 53.8431 133.0757 0.0175 0.3644 -0.0013
# 4 0.0015 0.0043 0.0175 22.9323 -0.0027 -9.4692
# 5 -9.0345 11.6799 0.3644 -0.0027 36.5729 -0.0003
# 6 0.0000 -0.0003 -0.0013 -9.4692 -0.0003 18.4571
#
#
#
# Elastic Compliance Matrix: (Units=1/GPa)
#
#
# Indices 1 2 3 4 5 6 
#
# 1 0.012622 -0.004073 -0.004610 0.000005 0.004465 0.000002
# 2 -0.004073 0.014763 -0.003942 0.000000 -0.005682 0.000000
# 3 -0.004610 -0.003942 0.011390 -0.000009 0.000007 -0.000004
# 4 0.000005 0.000000 -0.000009 0.055327 0.000006 0.028385
# 5 0.004465 -0.005682 0.000007 0.000006 0.030260 0.000003
# 6 0.000002 0.000000 -0.000004 0.028385 0.000003 0.068742
#
#
# Mechanical properties :
#
#
# Convention : Reuss Voigt Hill
#
# Bulk Modulus (GPa) = 73.93380 76.61801 75.27590
# Shear Modulus (GPa) = 22.43537 28.07975 25.25756
#
# Velocity S-wave (km/s) = 3.38500 3.78694 3.59160
# Velocity P-wave (km/s) = 7.28266 7.63227 7.45952
#
# Compressibility (1/GPa) = 0.01352561
#
# Stress axis : x y z
#
# Youngs Moduli (GPa) = 79.22913 67.73688 87.79318
#
# Poissons Ratio (x) = 0.27588 0.40468
# Poissons Ratio (y) = 0.32268 0.34612
# Poissons Ratio (z) = 0.36521 0.26705
#
# Static dielectric constant tensor:
#      x y z
#    x 1.697390 0.000000 -0.017790 
#    y 0.000000 1.668220 0.000000 
#    z -0.017790 0.000000 1.771640 
# 
# From -- ./inp_files/316123.got.cif
#   From: 2010.05.17/outbox.cif.g08.bks.cpg/sg15_159_cif.got.tgz:316123.got - 2010.06.03 18:47:42.
