data_PCOD9277839
_publ_section_title
;
Structure prediction by ZEFSAII (Michael W. Deem and Ramdas Pophale) SiO2 
 PCOD9277839
Probable space group: C 2/C
;
_chemical_formula_sum "Si O2"
_cell_formula_units_Z 44
_cell_length_a 8.997630
_cell_length_b 13.753829
_cell_length_c 15.952383
_cell_angle_alpha 90.000000
_cell_angle_beta 105.666689
_cell_angle_gamma 90.000000
_cell_volume 1900.795786
_symmetry_space_group_name_H-M "C 2/C"
_symmetry_group_IT_number 15
_symmetry_cell_setting 'monoclinic'
loop_
_space_group_symop_operation_xyz
x,y,z
-x,y,1/2-z
-x,-y,-z
x,-y,1/2+z
1/2+x,1/2+y,z
1/2-x,1/2+y,1/2-z
1/2-x,1/2-y,-z
1/2+x,1/2-y,1/2+z
loop_
_atom_site_type_symbol
_atom_site_label
_atom_site_fract_x
_atom_site_fract_y
_atom_site_fract_z
Si Si1 0.740726 0.802152 0.305165
Si Si2 0.000000 0.539400 0.750000
Si Si3 0.500000 0.624991 0.250000
Si Si4 0.446862 0.099259 0.106865
Si Si5 0.419230 0.247808 0.485272
Si Si6 0.500000 0.264807 0.250000
Si Si7 0.412198 0.572340 0.421750
O O1 0.627360 0.888455 0.303271
O O2 0.645486 0.700312 0.287975
O O3 0.873181 0.803528 0.394049
O O4 0.841128 0.820599 0.238347
O O5 0.047874 0.476745 0.676324
O O6 0.457548 0.565106 0.328876
O O7 0.514947 0.141565 0.030323
O O8 0.456115 0.191453 0.169157
O O9 0.269583 0.065310 0.083866
O O10 0.250000 0.250000 0.500000
O O11 0.537085 0.315491 0.552298
O O12 0.500000 0.500000 0.500000
#
# Coordination Sequence:
#
# PCOD9277839 Si02
#       7
#     8   4   4   8   8   4   8
#     4  10  20  41  72 101 133 182 246 290 357 428
#     4  10  22  40  67 103 140 176 236 290 346 433
#     4  11  22  43  76  98 142 192 233 296 362 431
#     4  10  22  43  66  96 147 185 228 297 363 428
#     4  11  23  44  70  97 136 191 235 295 373 429
#     4   9  18  37  73  97 130 188 233 298 356 426
#     4  12  25  45  72 107 147 186 249 300 359 433
#
# _framework density 23.148201
#
# number of rings (size 3 to 8) (size 9 to 14) (size 15 to 20)
#    0.000    1.455    3.636    1.636    0.000    0.000 
#    0.000   20.000    0.000    0.000    0.000    0.000 
#    0.000    0.000    0.000    0.000    0.000    0.000 
#
# Total GULP energy -122490.230013 kJ/mol
# GULP energy per Si atom -5567.737728 kJ/mol
# Density = 2.309551 g / cm^3
# Si number density = 23.148201 Si / 1000 Ang^3
#
#
#
# Elastic Constant Matrix: (Units=GPa)
#
#
# Indices 1 2 3 4 5 6 
#
# 1 92.2791 20.9853 19.3802 0.0000 -12.3798 0.0000
# 2 20.9853 67.3576 24.6449 0.0000 -15.5899 0.0000
# 3 19.3802 24.6449 75.7133 0.0000 -5.9049 0.0000
# 4 0.0000 0.0000 0.0000 -29.4680 0.0000 -4.3885
# 5 -12.3798 -15.5899 -5.9049 0.0000 34.5373 0.0000
# 6 0.0000 0.0000 0.0000 -4.3885 0.0000 12.0519
#
#
#
# Elastic Compliance Matrix: (Units=1/GPa)
#
#
# Indices 1 2 3 4 5 6 
#
# 1 0.012214 -0.002340 -0.002134 0.000000 0.002957 0.000000
# 2 -0.002340 0.019017 -0.005055 0.000000 0.006881 0.000000
# 3 -0.002134 -0.005055 0.015367 0.000000 -0.000419 0.000000
# 4 0.000000 0.000000 0.000000 -0.032190 0.000000 -0.011721
# 5 0.002957 0.006881 -0.000419 0.000000 0.033049 0.000000
# 6 0.000000 0.000000 0.000000 -0.011721 0.000000 0.078706
#
#
# Mechanical properties :
#
#
# Convention : Reuss Voigt Hill
#
# Bulk Modulus (GPa) = 36.31044 40.59675 38.45359
# Shear Modulus (GPa) = 32.38347 14.78022 23.58185
#
# Velocity S-wave (km/s) = 3.74433 2.52961 3.19522
# Velocity P-wave (km/s) = 5.86630 5.10957 5.50096
#
# Compressibility (1/GPa) = 0.02754029
#
# Stress axis : x y z
#
# Youngs Moduli (GPa) = 81.87536 52.58404 65.07653
#
# Poissons Ratio (x) = 0.12305 0.13888
# Poissons Ratio (y) = 0.19159 0.32893
# Poissons Ratio (z) = 0.17472 0.26579
#
# Static dielectric constant tensor:
#      x y z
#    x 3.297830 0.000000 -0.988110 
#    y 0.000000 1.881420 0.000000 
#    z -0.988110 0.000000 2.483020 
# 
# From -- ./inp_files/189026.got.cif
#   From: 2010.05.17/outbox.cif.g08.bks.cpg/sg15_95_cif.got.tgz:189026.got - 2010.06.03 18:47:42.
