data_PCOD9277564
_publ_section_title
;
Structure prediction by ZEFSAII (Michael W. Deem and Ramdas Pophale) SiO2 
 PCOD9277564
Probable space group: C 2/C
;
_chemical_formula_sum "Si O2"
_cell_formula_units_Z 52
_cell_length_a 17.038405
_cell_length_b 8.831472
_cell_length_c 15.118980
_cell_angle_alpha 90.000000
_cell_angle_beta 107.711589
_cell_angle_gamma 90.000000
_cell_volume 2167.180517
_symmetry_space_group_name_H-M "C 2/C"
_symmetry_group_IT_number 15
_symmetry_cell_setting 'monoclinic'
loop_
_space_group_symop_operation_xyz
x,y,z
-x,y,1/2-z
-x,-y,-z
x,-y,1/2+z
1/2+x,1/2+y,z
1/2-x,1/2+y,1/2-z
1/2-x,1/2-y,-z
1/2+x,1/2-y,1/2+z
loop_
_atom_site_type_symbol
_atom_site_label
_atom_site_fract_x
_atom_site_fract_y
_atom_site_fract_z
Si Si1 0.816387 0.531554 0.231131
Si Si2 0.571384 0.229505 0.648731
Si Si3 0.614910 0.763582 0.461001
Si Si4 0.500000 0.532801 0.250000
Si Si5 0.143577 0.976012 0.116114
Si Si6 0.368483 0.334743 0.190412
Si Si7 0.745724 0.584019 0.390301
O O1 0.872801 0.407043 0.297833
O O2 0.742954 0.471021 0.144874
O O3 0.867320 0.655971 0.194879
O O4 0.767495 0.615379 0.294960
O O5 0.477183 0.183731 0.594117
O O6 0.558658 0.349248 0.722788
O O7 0.614500 0.349084 0.596796
O O8 0.604935 0.628372 0.528310
O O9 0.674096 0.690152 0.406189
O O10 0.671174 0.889849 0.526826
O O11 0.445761 0.419059 0.172688
O O12 0.126676 0.894543 0.205540
O O13 0.288150 0.412666 0.121919
#
# Coordination Sequence:
#
# PCOD9277564 Si02
#       7
#     8   8   8   4   8   8   8
#     4  11  23  42  68 100 132 190 238 280 334 432
#     4  11  24  40  69  99 141 180 233 283 353 413
#     4  11  22  41  69 105 139 181 227 292 355 411
#     4  10  22  40  66  96 130 182 222 288 346 412
#     4  10  21  39  68  98 134 182 230 273 348 413
#     4  10  20  41  65  92 132 179 231 279 339 411
#     4  10  22  40  66  99 138 178 229 285 349 414
#
# _framework density 23.994311
#
# number of rings (size 3 to 8) (size 9 to 14) (size 15 to 20)
#    0.000    1.538    3.077    2.308    4.308    1.231 
#    0.000    3.077    0.000    0.000    0.000    0.000 
#    0.000    0.000    0.000    0.000    0.000    0.000 
#
# Total GULP energy -145107.953125 kJ/mol
# GULP energy per Si atom -5581.075120 kJ/mol
# Density = 2.393970 g / cm^3
# Si number density = 23.994311 Si / 1000 Ang^3
#
#
#
# Elastic Constant Matrix: (Units=GPa)
#
#
# Indices 1 2 3 4 5 6 
#
# 1 99.7919 46.6552 27.2126 0.0000 38.7590 0.0000
# 2 46.6552 108.7243 14.9933 0.0000 16.9354 0.0000
# 3 27.2126 14.9933 36.4945 0.0000 23.3596 0.0000
# 4 0.0000 0.0000 0.0000 36.8138 0.0000 10.8084
# 5 38.7590 16.9354 23.3596 0.0000 46.7676 0.0000
# 6 0.0000 0.0000 0.0000 10.8084 0.0000 32.3003
#
#
#
# Elastic Compliance Matrix: (Units=1/GPa)
#
#
# Indices 1 2 3 4 5 6 
#
# 1 0.017879 -0.005415 -0.004230 0.000000 -0.010743 0.000000
# 2 -0.005415 0.011554 -0.001328 0.000000 0.000967 0.000000
# 3 -0.004230 -0.001328 0.041967 0.000000 -0.016975 0.000000
# 4 0.000000 0.000000 0.000000 0.030123 0.000000 -0.010080
# 5 -0.010743 0.000967 -0.016975 0.000000 0.038414 0.000000
# 6 0.000000 0.000000 0.000000 -0.010080 0.000000 0.034332
#
#
# Mechanical properties :
#
#
# Convention : Reuss Voigt Hill
#
# Bulk Modulus (GPa) = 20.22144 46.97034 33.59589
# Shear Modulus (GPa) = 23.50727 33.58630 28.54679
#
# Velocity S-wave (km/s) = 3.13341 3.74540 3.45299
# Velocity P-wave (km/s) = 4.64079 6.19049 5.47079
#
# Compressibility (1/GPa) = 0.04945247
#
# Stress axis : x y z
#
# Youngs Moduli (GPa) = 55.93191 86.55160 23.82848
#
# Poissons Ratio (x) = 0.46870 0.10080
# Poissons Ratio (y) = 0.30289 0.03164
# Poissons Ratio (z) = 0.23660 0.11494
#
# Static dielectric constant tensor:
#      x y z
#    x 2.134940 0.000000 -0.074920 
#    y 0.000000 1.929480 0.000000 
#    z -0.074920 0.000000 1.985990 
# 
# From -- ./inp_files/209215.got.cif
#   From: 2010.05.17/outbox.cif.g08.bks.cpg/sg15_105_cif.got.tgz:209215.got - 2010.06.03 18:47:42.
