data_PCOD9277210
_publ_section_title
;
Structure prediction by ZEFSAII (Michael W. Deem and Ramdas Pophale) SiO2 
 PCOD9277210
Probable space group: C 2/C
;
_chemical_formula_sum "Si O2"
_cell_formula_units_Z 44
_cell_length_a 8.136110
_cell_length_b 28.469841
_cell_length_c 9.742981
_cell_angle_alpha 90.000000
_cell_angle_beta 64.900932
_cell_angle_gamma 90.000000
_cell_volume 2043.706230
_symmetry_space_group_name_H-M "C 2/C"
_symmetry_group_IT_number 15
_symmetry_cell_setting 'monoclinic'
loop_
_space_group_symop_operation_xyz
x,y,z
-x,y,1/2-z
-x,-y,-z
x,-y,1/2+z
1/2+x,1/2+y,z
1/2-x,1/2+y,1/2-z
1/2-x,1/2-y,-z
1/2+x,1/2-y,1/2+z
loop_
_atom_site_type_symbol
_atom_site_label
_atom_site_fract_x
_atom_site_fract_y
_atom_site_fract_z
Si Si1 0.080454 0.722374 0.495470
Si Si2 0.000000 0.356310 0.250000
Si Si3 0.650619 0.301103 0.817428
Si Si4 0.206256 0.396864 0.656340
Si Si5 0.205257 0.915213 0.187420
Si Si6 0.637632 0.010214 0.325549
O O1 0.250000 0.750000 0.500000
O O2 0.049612 0.677674 0.604662
O O3 0.155453 0.709081 0.320836
O O4 0.913202 0.758391 0.563646
O O5 0.834550 0.387337 0.248098
O O6 0.500000 0.302563 0.750000
O O7 0.661469 0.352792 0.875773
O O8 0.220654 0.413683 0.494456
O O9 0.225937 0.438778 0.761934
O O10 0.000000 0.380930 0.750000
O O11 0.000000 0.897194 0.250000
O O12 0.212930 0.969624 0.228254
O O13 0.500000 0.003537 0.250000
O O14 0.500000 0.000000 0.500000
#
# Coordination Sequence:
#
# PCOD9277210 Si02
#       6
#     8   4   8   8   8   8
#     4  10  20  40  69  97 131 190 237 281 358 433
#     4  12  24  46  74  94 156 188 222 306 368 404
#     4  10  22  40  70  96 135 182 235 292 350 422
#     4  11  24  46  69 102 146 184 241 291 367 425
#     4  12  28  43  72 112 140 186 248 293 358 442
#     4  11  22  47  73  98 145 192 229 295 367 425
#
# _framework density 21.529513000000001
#
# number of rings (size 3 to 8) (size 9 to 14) (size 15 to 20)
#    0.000    1.091    7.273    1.091    5.091    1.455 
#    0.000    4.545    0.000    0.000    0.000    0.000 
#    0.000    0.000    0.000    0.000    0.000    0.000 
#
# Total GULP energy -122703.896105 kJ/mol
# GULP energy per Si atom -5577.449823 kJ/mol
# Density = 2.148051 g / cm^3
# Si number density = 21.529513 Si / 1000 Ang^3
#
#
#
# Elastic Constant Matrix: (Units=GPa)
#
#
# Indices 1 2 3 4 5 6 
#
# 1 86.9341 53.6774 28.5886 0.0000 -7.2410 0.0000
# 2 53.6774 161.3676 46.2920 0.0000 -2.4075 0.0000
# 3 28.5886 46.2920 105.9204 0.0000 -9.0350 0.0000
# 4 0.0000 0.0000 0.0000 0.6020 0.0000 10.2053
# 5 -7.2410 -2.4075 -9.0350 0.0000 22.9009 0.0000
# 6 0.0000 0.0000 0.0000 10.2053 0.0000 36.0758
#
#
#
# Elastic Compliance Matrix: (Units=1/GPa)
#
#
# Indices 1 2 3 4 5 6 
#
# 1 0.015162 -0.004464 -0.001834 0.000000 0.003601 0.000000
# 2 -0.004464 0.008405 -0.002601 0.000000 -0.001554 0.000000
# 3 -0.001834 -0.002601 0.011383 0.000000 0.003638 0.000000
# 4 0.000000 0.000000 0.000000 -0.437643 0.000000 0.123803
# 5 0.003601 -0.001554 0.003638 0.000000 0.046077 0.000000
# 6 0.000000 0.000000 0.000000 0.123803 0.000000 -0.007303
#
#
# Mechanical properties :
#
#
# Convention : Reuss Voigt Hill
#
# Bulk Modulus (GPa) = 58.30195 67.92646 63.11420
# Shear Modulus (GPa) = -14.68846 26.95998 6.13576
#
# Velocity S-wave (km/s) = -2.61482 3.54253 1.69001
# Velocity P-wave (km/s) = 4.24528 6.95353 5.76082
#
# Compressibility (1/GPa) = 0.01715209
#
# Stress axis : x y z
#
# Youngs Moduli (GPa) = 65.95344 118.97959 87.84845
#
# Poissons Ratio (x) = 0.53108 0.16115
# Poissons Ratio (y) = 0.29439 0.22850
# Poissons Ratio (z) = 0.12099 0.30948
#
# Static dielectric constant tensor:
#      x y z
#    x 1.767010 0.000000 -0.026840 
#    y 0.000000 1.892920 0.000000 
#    z -0.026840 0.000000 1.761920 
# 
# From -- ./inp_files/25978.got.cif
#   From: 2010.05.17/outbox.cif.g08.bks.cpg/sg15_13_cif.got.tgz:25978.got - 2010.06.03 18:47:42.
