data_PCOD9277789
_publ_section_title
;
Structure prediction by ZEFSAII (Michael W. Deem and Ramdas Pophale) SiO2 
 PCOD9277789
Probable space group: C 2/C
;
_chemical_formula_sum "Si O2"
_cell_formula_units_Z 48
_cell_length_a 7.928995
_cell_length_b 29.395192
_cell_length_c 12.851437
_cell_angle_alpha 90.000000
_cell_angle_beta 134.180377
_cell_angle_gamma 90.000000
_cell_volume 2148.106141
_symmetry_space_group_name_H-M "C 2/C"
_symmetry_group_IT_number 15
_symmetry_cell_setting 'monoclinic'
loop_
_space_group_symop_operation_xyz
x,y,z
-x,y,1/2-z
-x,-y,-z
x,-y,1/2+z
1/2+x,1/2+y,z
1/2-x,1/2+y,1/2-z
1/2-x,1/2-y,-z
1/2+x,1/2-y,1/2+z
loop_
_atom_site_type_symbol
_atom_site_label
_atom_site_fract_x
_atom_site_fract_y
_atom_site_fract_z
Si Si1 0.626223 0.699133 0.058975
Si Si2 0.725017 0.549326 0.673181
Si Si3 0.259749 0.353748 0.700618
Si Si4 0.623097 0.800728 0.055784
Si Si5 0.753644 0.647459 0.702774
Si Si6 0.230665 0.948997 0.681578
O O1 0.779043 0.681067 0.220335
O O2 0.530394 0.749855 0.035997
O O3 0.750614 0.699989 0.000835
O O4 0.432006 0.660379 0.965089
O O5 0.709498 0.596913 0.726767
O O6 0.705947 0.499915 0.718058
O O7 0.500107 0.552816 0.495371
O O8 0.000000 0.549698 0.750000
O O9 0.500000 0.340747 0.750000
O O10 0.272817 0.405520 0.744771
O O11 0.060103 0.341876 0.532434
O O12 0.771665 0.814828 0.219501
O O13 0.000000 0.650130 0.750000
O O14 0.500000 0.947096 0.750000
#
# Coordination Sequence:
#
# PCOD9277789 Si02
#       6
#     8   8   8   8   8   8
#     4  11  23  44  62  88 127 172 218 269 325 396
#     4   9  20  38  70  97 132 173 214 268 333 395
#     4  12  25  40  64  95 129 170 218 274 332 388
#     4  11  25  40  64  92 126 169 220 270 325 393
#     4  11  22  39  64  96 129 165 214 270 328 389
#     4  10  20  41  69  97 129 176 218 264 329 400
#
# _framework density 22.345265000000001
#
# number of rings (size 3 to 8) (size 9 to 14) (size 15 to 20)
#    0.000    1.333    1.667    4.000    2.333    6.667 
#    0.000    2.500    0.000    0.000    0.000    0.000 
#    0.000    0.000    0.000    0.000    0.000    0.000 
#
# Total GULP energy -133702.079038 kJ/mol
# GULP energy per Si atom -5570.919960 kJ/mol
# Density = 2.229441 g / cm^3
# Si number density = 22.345265 Si / 1000 Ang^3
#
#
#
# Elastic Constant Matrix: (Units=GPa)
#
#
# Indices 1 2 3 4 5 6 
#
# 1 65.0345 16.3655 16.3378 0.0000 5.2904 0.0000
# 2 16.3655 165.2820 14.8108 0.0000 -4.5084 0.0000
# 3 16.3378 14.8108 90.1523 0.0000 22.8713 0.0000
# 4 0.0000 0.0000 0.0000 37.4036 0.0000 21.6051
# 5 5.2904 -4.5084 22.8713 0.0000 34.0577 0.0000
# 6 0.0000 0.0000 0.0000 21.6051 0.0000 -17.3724
#
#
#
# Elastic Compliance Matrix: (Units=1/GPa)
#
#
# Indices 1 2 3 4 5 6 
#
# 1 0.016447 -0.001437 -0.002469 0.000000 -0.001087 0.000000
# 2 -0.001437 0.006359 -0.001271 0.000000 0.001918 0.000000
# 3 -0.002469 -0.001271 0.014095 0.000000 -0.009250 0.000000
# 4 0.000000 0.000000 0.000000 0.015559 0.000000 0.019350
# 5 -0.001087 0.001918 -0.009250 0.000000 0.035997 0.000000
# 6 0.000000 0.000000 0.000000 0.019350 0.000000 -0.033499
#
#
# Mechanical properties :
#
#
# Convention : Reuss Voigt Hill
#
# Bulk Modulus (GPa) = 37.66812 46.16633 41.91722
# Shear Modulus (GPa) = 67.42198 29.01478 48.21838
#
# Velocity S-wave (km/s) = 5.49894 3.60735 4.65034
# Velocity P-wave (km/s) = 7.56384 6.16895 6.90172
#
# Compressibility (1/GPa) = 0.02654765
#
# Stress axis : x y z
#
# Youngs Moduli (GPa) = 60.80270 157.26338 70.94562
#
# Poissons Ratio (x) = 0.22597 0.17514
# Poissons Ratio (y) = 0.08737 0.09017
# Poissons Ratio (z) = 0.15010 0.19987
#
# Static dielectric constant tensor:
#      x y z
#    x 1.823440 0.000000 0.045260 
#    y 0.000000 1.800270 0.000000 
#    z 0.045260 0.000000 1.799910 
# 
# From -- ./inp_files/138924.got.cif
#   From: 2010.05.17/outbox.cif.g08.bks.cpg/sg15_70_cif.got.tgz:138924.got - 2010.06.03 18:47:42.
