data_PCOD9277251
_publ_section_title
;
Structure prediction by ZEFSAII (Michael W. Deem and Ramdas Pophale) SiO2 
 PCOD9277251
Probable space group: C 2/C
;
_chemical_formula_sum "Si O2"
_cell_formula_units_Z 52
_cell_length_a 8.158691
_cell_length_b 12.515749
_cell_length_c 25.134433
_cell_angle_alpha 90.000000
_cell_angle_beta 116.446956
_cell_angle_gamma 90.000000
_cell_volume 2297.935512
_symmetry_space_group_name_H-M "C 2/C"
_symmetry_group_IT_number 15
_symmetry_cell_setting 'monoclinic'
loop_
_space_group_symop_operation_xyz
x,y,z
-x,y,1/2-z
-x,-y,-z
x,-y,1/2+z
1/2+x,1/2+y,z
1/2-x,1/2+y,1/2-z
1/2-x,1/2-y,-z
1/2+x,1/2-y,1/2+z
loop_
_atom_site_type_symbol
_atom_site_label
_atom_site_fract_x
_atom_site_fract_y
_atom_site_fract_z
Si Si1 0.000000 0.909661 0.750000
Si Si2 0.800981 0.091940 0.789610
Si Si3 0.240247 0.156096 0.541706
Si Si4 0.046989 0.201190 0.909040
Si Si5 0.012120 0.396695 0.168423
Si Si6 0.321442 0.899229 0.864919
Si Si7 0.285618 0.985210 0.465106
O O1 0.156736 0.848234 0.806109
O O2 0.106271 0.988105 0.723906
O O3 0.650619 0.070939 0.814250
O O4 0.680414 0.151469 0.726721
O O5 0.961284 0.156437 0.841782
O O6 0.250000 0.250000 0.500000
O O7 0.418397 0.163208 0.605711
O O8 0.217605 0.043736 0.508120
O O9 0.074687 0.166178 0.558410
O O10 0.998485 0.325494 0.900052
O O11 0.233068 0.137396 0.946295
O O12 0.102442 0.500554 0.155766
O O13 0.233158 0.942583 0.906542
O O14 0.500000 0.000000 0.500000
#
# Coordination Sequence:
#
# PCOD9277251 Si02
#       7
#     4   8   8   8   8   8   8
#     4  10  20  40  70  92 130 172 214 284 330 408
#     4   9  19  39  66  90 128 170 214 276 340 389
#     4  11  22  41  65  95 132 176 224 274 337 413
#     4  11  24  42  66  97 131 174 225 275 340 403
#     4   9  20  39  65  92 132 170 213 280 336 398
#     4  11  22  41  67  97 131 172 223 270 342 402
#     4  12  24  44  63  92 134 175 220 277 327 401
#
# _framework density 22.629007000000001
#
# number of rings (size 3 to 8) (size 9 to 14) (size 15 to 20)
#    0.000    1.538    4.615    0.462    0.000    3.077 
#    0.000    4.615    0.000    0.000    0.000    0.000 
#    0.000    0.000    0.000    0.000    0.000    0.000 
#
# Total GULP energy -145075.375573 kJ/mol
# GULP energy per Si atom -5579.822137 kJ/mol
# Density = 2.257750 g / cm^3
# Si number density = 22.629007 Si / 1000 Ang^3
#
#
#
# Elastic Constant Matrix: (Units=GPa)
#
#
# Indices 1 2 3 4 5 6 
#
# 1 45.0522 9.6404 36.5400 0.0000 11.2254 0.0000
# 2 9.6404 37.8417 29.9333 0.0000 -1.3123 0.0000
# 3 36.5400 29.9333 145.7349 0.0000 7.9175 0.0000
# 4 0.0000 0.0000 0.0000 32.0854 0.0000 -2.7110
# 5 11.2254 -1.3123 7.9175 0.0000 39.2944 0.0000
# 6 0.0000 0.0000 0.0000 -2.7110 0.0000 28.1929
#
#
#
# Elastic Compliance Matrix: (Units=1/GPa)
#
#
# Indices 1 2 3 4 5 6 
#
# 1 0.029906 -0.002693 -0.006548 0.000000 -0.007314 0.000000
# 2 -0.002693 0.032017 -0.006067 0.000000 0.003061 0.000000
# 3 -0.006548 -0.006067 0.009766 0.000000 -0.000300 0.000000
# 4 0.000000 0.000000 0.000000 0.031422 0.000000 0.003022
# 5 -0.007314 0.003061 -0.000300 0.000000 0.027701 0.000000
# 6 0.000000 0.000000 0.000000 0.003022 0.000000 0.035760
#
#
# Mechanical properties :
#
#
# Convention : Reuss Voigt Hill
#
# Bulk Modulus (GPa) = 24.34687 42.31737 33.33212
# Shear Modulus (GPa) = 23.71022 30.08222 26.89622
#
# Velocity S-wave (km/s) = 3.24045 3.65000 3.45131
# Velocity P-wave (km/s) = 4.97828 6.04189 5.53569
#
# Compressibility (1/GPa) = 0.04107304
#
# Stress axis : x y z
#
# Youngs Moduli (GPa) = 33.43852 31.23303 102.39617
#
# Poissons Ratio (x) = 0.08411 0.67047
# Poissons Ratio (y) = 0.09005 0.62127
# Poissons Ratio (z) = 0.21895 0.18950
#
# Static dielectric constant tensor:
#      x y z
#    x 1.861950 0.000000 0.021290 
#    y 0.000000 1.913390 0.000000 
#    z 0.021290 0.000000 1.972130 
# 
# From -- ./inp_files/264444.got.cif
#   From: 2010.05.17/outbox.cif.g08.bks.cpg/sg15_133_cif.got.tgz:264444.got - 2010.06.03 18:47:42.
