data_PCOD9277567
_publ_section_title
;
Structure prediction by ZEFSAII (Michael W. Deem and Ramdas Pophale) SiO2 
 PCOD9277567
Probable space group: C 2/C
;
_chemical_formula_sum "Si O2"
_cell_formula_units_Z 44
_cell_length_a 25.984167
_cell_length_b 7.985128
_cell_length_c 13.797026
_cell_angle_alpha 90.000000
_cell_angle_beta 41.273334
_cell_angle_gamma 90.000000
_cell_volume 1888.387056
_symmetry_space_group_name_H-M "C 2/C"
_symmetry_group_IT_number 15
_symmetry_cell_setting 'monoclinic'
loop_
_space_group_symop_operation_xyz
x,y,z
-x,y,1/2-z
-x,-y,-z
x,-y,1/2+z
1/2+x,1/2+y,z
1/2-x,1/2+y,1/2-z
1/2-x,1/2-y,-z
1/2+x,1/2-y,1/2+z
loop_
_atom_site_type_symbol
_atom_site_label
_atom_site_fract_x
_atom_site_fract_y
_atom_site_fract_z
Si Si1 0.936093 0.946726 0.014047
Si Si2 0.152894 0.508388 0.063632
Si Si3 0.734923 0.449460 0.424116
Si Si4 0.592557 0.636040 0.619179
Si Si5 0.227026 0.198551 0.734299
Si Si6 0.500000 0.216809 0.750000
O O1 0.861996 0.851224 0.161911
O O2 0.978475 0.829203 0.874142
O O3 0.897779 0.105148 0.010875
O O4 0.000000 0.000000 0.000000
O O5 0.204316 0.428840 0.076106
O O6 0.119333 0.694749 0.132304
O O7 0.077128 0.397162 0.152003
O O8 0.212317 0.561938 0.893927
O O9 0.646294 0.486626 0.585176
O O10 0.756231 0.626913 0.342368
O O11 0.734126 0.312085 0.340951
O O12 0.500000 0.633491 0.750000
#
# Coordination Sequence:
#
# PCOD9277567 Si02
#       6
#     8   8   8   8   8   4
#     4  11  26  41  68  95 135 178 215 273 331 388
#     4  11  24  42  70  95 133 176 215 277 336 379
#     4  10  23  40  68  91 129 176 209 274 331 384
#     4  10  20  41  65  93 123 169 220 254 317 407
#     4  10  22  43  63  99 129 169 230 266 321 410
#     4  12  26  44  64 108 132 168 228 282 314 400
#
# _framework density 23.300307
#
# number of rings (size 3 to 8) (size 9 to 14) (size 15 to 20)
#    0.000    1.455    1.818    3.273    5.091    4.364 
#    0.000    8.182    0.000    0.000    0.000    0.000 
#    0.000    0.000    0.000    0.000    0.000    0.000 
#
# Total GULP energy -122854.574150 kJ/mol
# GULP energy per Si atom -5584.298825 kJ/mol
# Density = 2.324727 g / cm^3
# Si number density = 23.300307 Si / 1000 Ang^3
#
#
#
# Elastic Constant Matrix: (Units=GPa)
#
#
# Indices 1 2 3 4 5 6 
#
# 1 157.5179 9.3201 28.7241 -0.0001 -20.6446 0.0000
# 2 9.3201 75.8051 17.5887 -0.0003 2.0910 0.0001
# 3 28.7241 17.5887 129.8202 -0.0001 -32.8732 0.0001
# 4 -0.0001 -0.0003 -0.0001 34.5985 0.0000 2.4193
# 5 -20.6446 2.0910 -32.8732 0.0000 41.4534 0.0000
# 6 0.0000 0.0001 0.0001 2.4193 0.0000 22.6922
#
#
#
# Elastic Compliance Matrix: (Units=1/GPa)
#
#
# Indices 1 2 3 4 5 6 
#
# 1 0.006903 -0.000772 -0.000679 0.000000 0.002939 0.000000
# 2 -0.000772 0.013950 -0.002496 0.000000 -0.003068 0.000000
# 3 -0.000679 -0.002496 0.010182 0.000000 0.007863 0.000000
# 4 0.000000 0.000000 0.000000 0.029120 0.000000 -0.003105
# 5 0.002939 -0.003068 0.007863 0.000000 0.031977 0.000000
# 6 0.000000 0.000000 0.000000 -0.003105 0.000000 0.044399
#
#
# Mechanical properties :
#
#
# Convention : Reuss Voigt Hill
#
# Bulk Modulus (GPa) = 43.21160 52.71210 47.96185
# Shear Modulus (GPa) = 32.86457 40.24952 36.55704
#
# Velocity S-wave (km/s) = 3.75971 4.16074 3.96530
# Velocity P-wave (km/s) = 6.11825 6.76420 6.44931
#
# Compressibility (1/GPa) = 0.02314193
#
# Stress axis : x y z
#
# Youngs Moduli (GPa) = 144.86286 71.68233 98.20995
#
# Poissons Ratio (x) = 0.05536 0.06665
# Poissons Ratio (y) = 0.11188 0.24513
# Poissons Ratio (z) = 0.09830 0.17892
#
# Static dielectric constant tensor:
#      x y z
#    x 1.876450 0.000000 -0.028360 
#    y 0.000000 1.932560 0.000000 
#    z -0.028360 0.000000 2.033560 
# 
# From -- ./inp_files/166082.got.cif
#   From: 2010.05.17/outbox.cif.g08.bks.cpg/sg15_84_cif.got.tgz:166082.got - 2010.06.03 18:47:42.
