data_PCOD9277174
_publ_section_title
;
Structure prediction by ZEFSAII (Michael W. Deem and Ramdas Pophale) SiO2 
 PCOD9277174
Probable space group: C 2/C
;
_chemical_formula_sum "Si O2"
_cell_formula_units_Z 36
_cell_length_a 5.663730
_cell_length_b 20.488861
_cell_length_c 12.517910
_cell_angle_alpha 90.000000
_cell_angle_beta 85.436828
_cell_angle_gamma 90.000000
_cell_volume 1448.016061
_symmetry_space_group_name_H-M "C 2/C"
_symmetry_group_IT_number 15
_symmetry_cell_setting 'monoclinic'
loop_
_space_group_symop_operation_xyz
x,y,z
-x,y,1/2-z
-x,-y,-z
x,-y,1/2+z
1/2+x,1/2+y,z
1/2-x,1/2+y,1/2-z
1/2-x,1/2-y,-z
1/2+x,1/2-y,1/2+z
loop_
_atom_site_type_symbol
_atom_site_label
_atom_site_fract_x
_atom_site_fract_y
_atom_site_fract_z
Si Si1 0.473361 0.670726 0.527051
Si Si2 0.000000 0.352550 0.750000
Si Si3 0.299264 0.936829 0.934636
Si Si4 0.108169 0.572678 0.629410
Si Si5 0.353583 0.757475 0.159001
O O1 0.581165 0.611519 0.454095
O O2 0.248593 0.637223 0.589023
O O3 0.478183 0.729795 0.441483
O O4 0.658963 0.696086 0.610513
O O5 0.992958 0.400164 0.852553
O O6 0.784514 0.303040 0.779965
O O7 0.235745 0.006800 0.888578
O O8 0.405044 0.940514 0.049326
O O9 0.000000 0.574019 0.750000
O O10 0.500000 0.786937 0.250000
#
# Coordination Sequence:
#
# PCOD9277174 Si02
#       5
#     8   4   8   8   8
#     4  10  23  42  65 100 138 175 231 283 339 411
#     4  10  20  40  68  98 138 178 224 270 342 412
#     4  10  22  41  65  97 136 180 224 276 342 411
#     4  11  23  41  66  97 137 180 224 282 341 408
#     4  10  22  41  68 100 135 181 227 282 342 408
#
# _framework density 24.861602000000001
#
# number of rings (size 3 to 8) (size 9 to 14) (size 15 to 20)
#    0.000    1.778    1.111    2.000    0.000    5.333 
#    0.000    6.667    0.000    4.000    0.000    0.000 
#    0.000    0.000    0.000    0.000    0.000    0.000 
#
# Total GULP energy -100702.946994 kJ/mol
# GULP energy per Si atom -5594.608166 kJ/mol
# Density = 2.480502 g / cm^3
# Si number density = 24.861602 Si / 1000 Ang^3
#
#
#
# Elastic Constant Matrix: (Units=GPa)
#
#
# Indices 1 2 3 4 5 6 
#
# 1 52.2414 35.8885 61.4238 0.0000 -13.0634 0.0000
# 2 35.8885 164.9014 60.5169 0.0000 -9.3279 0.0000
# 3 61.4238 60.5169 198.2143 0.0000 -10.8289 0.0000
# 4 0.0000 0.0000 0.0000 33.7184 0.0000 -17.8841
# 5 -13.0634 -9.3279 -10.8289 0.0000 43.0963 0.0000
# 6 0.0000 0.0000 0.0000 -17.8841 0.0000 24.6969
#
#
#
# Elastic Compliance Matrix: (Units=1/GPa)
#
#
# Indices 1 2 3 4 5 6 
#
# 1 0.034149 -0.003697 -0.009056 0.000000 0.007275 0.000000
# 2 -0.003697 0.007270 -0.001064 0.000000 0.000186 0.000000
# 3 -0.009056 -0.001064 0.008125 0.000000 -0.000934 0.000000
# 4 0.000000 0.000000 0.000000 0.048152 0.000000 0.034869
# 5 0.007275 0.000186 -0.000934 0.000000 0.025215 0.000000
# 6 0.000000 0.000000 0.000000 0.034869 0.000000 0.065741
#
#
# Mechanical properties :
#
#
# Convention : Reuss Voigt Hill
#
# Bulk Modulus (GPa) = 45.64114 81.22394 63.43254
# Shear Modulus (GPa) = 22.36260 37.47084 29.91672
#
# Velocity S-wave (km/s) = 3.00239 3.88645 3.47267
# Velocity P-wave (km/s) = 5.51517 7.27191 6.45359
#
# Compressibility (1/GPa) = 0.02191006
#
# Stress axis : x y z
#
# Youngs Moduli (GPa) = 29.28378 137.55726 123.07512
#
# Poissons Ratio (x) = 0.50855 1.11456
# Poissons Ratio (y) = 0.10826 0.13092
# Poissons Ratio (z) = 0.26519 0.14632
#
# Static dielectric constant tensor:
#      x y z
#    x 2.000660 0.000000 -0.036290 
#    y 0.000000 2.057710 0.000000 
#    z -0.036290 0.000000 1.926590 
# 
# From -- ./inp_files/72437.got.cif
#   From: 2010.05.17/outbox.cif.g08.bks.cpg/sg15_37_cif.got.tgz:72437.got - 2010.06.03 18:47:42.
