data_PCOD9277516
_publ_section_title
;
Structure prediction by ZEFSAII (Michael W. Deem and Ramdas Pophale) SiO2 
 PCOD9277516
Probable space group: C 2/C
;
_chemical_formula_sum "Si O2"
_cell_formula_units_Z 48
_cell_length_a 6.167914
_cell_length_b 22.308331
_cell_length_c 16.982898
_cell_angle_alpha 90.000000
_cell_angle_beta 73.109269
_cell_angle_gamma 90.000000
_cell_volume 2235.969436
_symmetry_space_group_name_H-M "C 2/C"
_symmetry_group_IT_number 15
_symmetry_cell_setting 'monoclinic'
loop_
_space_group_symop_operation_xyz
x,y,z
-x,y,1/2-z
-x,-y,-z
x,-y,1/2+z
1/2+x,1/2+y,z
1/2-x,1/2+y,1/2-z
1/2-x,1/2-y,-z
1/2+x,1/2-y,1/2+z
loop_
_atom_site_type_symbol
_atom_site_label
_atom_site_fract_x
_atom_site_fract_y
_atom_site_fract_z
Si Si1 0.500000 0.165032 0.250000
Si Si2 0.877608 0.304247 0.031927
Si Si3 0.963686 0.978595 0.660583
Si Si4 0.500000 0.030935 0.750000
Si Si5 0.176934 0.899901 0.164956
Si Si6 0.217938 0.372113 0.881583
Si Si7 0.448888 0.737490 0.173229
O O1 0.412145 0.123620 0.188137
O O2 0.696646 0.209895 0.198440
O O3 0.716191 0.348430 0.098007
O O4 0.012022 0.274006 0.089573
O O5 0.750000 0.250000 0.000000
O O6 0.036045 0.345696 0.961592
O O7 0.000000 0.967436 0.750000
O O8 0.121953 0.926886 0.607218
O O9 0.694799 0.991313 0.686031
O O10 0.074589 0.042633 0.631273
O O11 0.616577 0.072694 0.804749
O O12 0.000000 0.878996 0.250000
O O13 0.392295 0.319687 0.843990
O O14 0.500000 0.770827 0.250000
#
# Coordination Sequence:
#
# PCOD9277516 Si02
#       7
#     4   8   8   4   8   8   8
#     4  10  20  41  64  94 128 184 219 268 342 392
#     4  12  25  44  63  97 144 178 224 284 332 395
#     4   9  19  40  69  97 130 165 230 274 335 409
#     4   8  18  43  66 100 124 176 227 280 334 402
#     4   9  22  41  68  95 127 176 227 270 334 402
#     4  11  23  40  64 100 134 174 224 281 341 397
#     4  10  23  40  65  92 128 181 228 270 330 401
#
# _framework density 21.467196999999999
#
# number of rings (size 3 to 8) (size 9 to 14) (size 15 to 20)
#    0.000    2.333    1.667    2.000    2.333    6.667 
#    9.000    0.833    0.000    0.000    0.000    0.000 
#    0.000    0.000    0.000    0.000    0.000    0.000 
#
# Total GULP energy -133771.148451 kJ/mol
# GULP energy per Si atom -5573.797852 kJ/mol
# Density = 2.141834 g / cm^3
# Si number density = 21.467197 Si / 1000 Ang^3
#
#
#
# Elastic Constant Matrix: (Units=GPa)
#
#
# Indices 1 2 3 4 5 6 
#
# 1 108.0338 51.0656 48.9536 0.0000 -11.5761 0.0000
# 2 51.0656 127.9397 70.9186 0.0000 -9.9129 0.0000
# 3 48.9536 70.9186 116.7045 0.0000 -11.9074 0.0000
# 4 0.0000 0.0000 0.0000 52.2402 0.0000 -35.4132
# 5 -11.5761 -9.9129 -11.9074 0.0000 28.2353 0.0000
# 6 0.0000 0.0000 0.0000 -35.4132 0.0000 70.2085
#
#
#
# Elastic Compliance Matrix: (Units=1/GPa)
#
#
# Indices 1 2 3 4 5 6 
#
# 1 0.012369 -0.003022 -0.003075 0.000000 0.002713 0.000000
# 2 -0.003022 0.012562 -0.006314 0.000000 0.000508 0.000000
# 3 -0.003075 -0.006314 0.013940 0.000000 0.002402 0.000000
# 4 0.000000 0.000000 0.000000 0.029089 0.000000 0.014672
# 5 0.002713 0.000508 0.002402 0.000000 0.037720 0.000000
# 6 0.000000 0.000000 0.000000 0.014672 0.000000 0.021644
#
#
# Mechanical properties :
#
#
# Convention : Reuss Voigt Hill
#
# Bulk Modulus (GPa) = 71.18002 77.17260 74.17631
# Shear Modulus (GPa) = 31.88183 42.25282 37.06733
#
# Velocity S-wave (km/s) = 3.85793 4.44131 4.15986
# Velocity P-wave (km/s) = 7.28522 7.89477 7.59611
#
# Compressibility (1/GPa) = 0.01404889
#
# Stress axis : x y z
#
# Youngs Moduli (GPa) = 80.84711 79.60708 71.73426
#
# Poissons Ratio (x) = 0.24059 0.22059
# Poissons Ratio (y) = 0.24433 0.45292
# Poissons Ratio (z) = 0.24861 0.50263
#
# Static dielectric constant tensor:
#      x y z
#    x 1.887650 0.000000 0.001520 
#    y 0.000000 1.865430 0.000000 
#    z 0.001520 0.000000 1.796470 
# 
# From -- ./inp_files/185511.got.cif
#   From: 2010.05.17/outbox.cif.g08.bks.cpg/sg15_93_cif.got.tgz:185511.got - 2010.06.03 18:47:42.
