data_PCOD9277097
_publ_section_title
;
Structure prediction by ZEFSAII (Michael W. Deem and Ramdas Pophale) SiO2 
 PCOD9277097
Probable space group: C 2/C
;
_chemical_formula_sum "Si O2"
_cell_formula_units_Z 36
_cell_length_a 12.315288
_cell_length_b 16.231104
_cell_length_c 8.906467
_cell_angle_alpha 90.000000
_cell_angle_beta 127.198186
_cell_angle_gamma 90.000000
_cell_volume 1418.112304
_symmetry_space_group_name_H-M "C 2/C"
_symmetry_group_IT_number 15
_symmetry_cell_setting 'monoclinic'
loop_
_space_group_symop_operation_xyz
x,y,z
-x,y,1/2-z
-x,-y,-z
x,-y,1/2+z
1/2+x,1/2+y,z
1/2-x,1/2+y,1/2-z
1/2-x,1/2-y,-z
1/2+x,1/2-y,1/2+z
loop_
_atom_site_type_symbol
_atom_site_label
_atom_site_fract_x
_atom_site_fract_y
_atom_site_fract_z
Si Si1 0.003478 0.247690 0.412743
Si Si2 0.500000 0.042343 0.250000
Si Si3 0.608536 0.479453 0.217904
Si Si4 0.647551 0.910709 0.581950
Si Si5 0.224804 0.195739 0.826306
O O1 0.853211 0.275974 0.334002
O O2 0.000000 0.201783 0.250000
O O3 0.100553 0.326864 0.467724
O O4 0.080625 0.210360 0.621115
O O5 0.402828 0.091553 0.285218
O O6 0.575944 0.981505 0.426070
O O7 0.500000 0.455547 0.250000
O O8 0.696594 0.562993 0.299380
O O9 0.718317 0.404346 0.316711
O O10 0.500000 0.500000 0.000000
O O11 0.250000 0.250000 0.000000
#
# Coordination Sequence:
#
# PCOD9277097 Si02
#       5
#     8   4   8   8   8
#     4  12  28  49  81 114 160 202 268 334 409 486
#     4  10  20  40  68 106 142 182 256 320 386 460
#     4  12  29  48  76 113 160 209 267 334 402 477
#     4  11  24  42  75 108 149 197 260 325 399 469
#     4  12  29  53  80 118 159 218 269 330 413 499
#
# _framework density 25.385859
#
# number of rings (size 3 to 8) (size 9 to 14) (size 15 to 20)
#    0.000    0.444    1.111    6.667   15.556    0.889 
#    0.000    0.000    0.000    0.000    0.000    0.000 
#    0.000    0.000    0.000    0.000    0.000    0.000 
#
# Total GULP energy -100477.404672 kJ/mol
# GULP energy per Si atom -5582.078037 kJ/mol
# Density = 2.532808 g / cm^3
# Si number density = 25.385859 Si / 1000 Ang^3
#
#
#
# Elastic Constant Matrix: (Units=GPa)
#
#
# Indices 1 2 3 4 5 6 
#
# 1 124.6827 22.4866 46.0906 0.0000 3.4223 0.0000
# 2 22.4866 75.8965 29.6377 0.0000 -14.2563 0.0000
# 3 46.0906 29.6377 161.3347 0.0000 -16.7001 0.0000
# 4 0.0000 0.0000 0.0000 31.2972 0.0000 11.8354
# 5 3.4223 -14.2563 -16.7001 0.0000 40.3150 0.0000
# 6 0.0000 0.0000 0.0000 11.8354 0.0000 46.5954
#
#
#
# Elastic Compliance Matrix: (Units=1/GPa)
#
#
# Indices 1 2 3 4 5 6 
#
# 1 0.009454 -0.002306 -0.002554 0.000000 -0.002676 0.000000
# 2 -0.002306 0.015442 -0.001664 0.000000 0.004967 0.000000
# 3 -0.002554 -0.001664 0.007517 0.000000 0.002743 0.000000
# 4 0.000000 0.000000 0.000000 0.035347 0.000000 -0.008978
# 5 -0.002676 0.004967 0.002743 0.000000 0.027924 0.000000
# 6 0.000000 0.000000 0.000000 -0.008978 0.000000 0.023742
#
#
# Mechanical properties :
#
#
# Convention : Reuss Voigt Hill
#
# Bulk Modulus (GPa) = 51.63955 62.03819 56.83887
# Shear Modulus (GPa) = 35.98943 41.22146 38.60545
#
# Velocity S-wave (km/s) = 3.76931 4.03401 3.90391
# Velocity P-wave (km/s) = 6.27134 6.79623 6.53905
#
# Compressibility (1/GPa) = 0.01936500
#
# Stress axis : x y z
#
# Youngs Moduli (GPa) = 105.77611 64.75913 133.02318
#
# Poissons Ratio (x) = 0.14935 0.33976
# Poissons Ratio (y) = 0.24395 0.22131
# Poissons Ratio (z) = 0.27017 0.10774
#
# Static dielectric constant tensor:
#      x y z
#    x 1.984290 0.000000 -0.033100 
#    y 0.000000 2.049420 0.000000 
#    z -0.033100 0.000000 2.020320 
# 
# From -- ./inp_files/30558.got.cif
#   From: 2010.05.17/outbox.cif.g08.bks.cpg/sg15_16_cif.got.tgz:30558.got - 2010.06.03 18:47:42.
