data_PCOD9277537
_publ_section_title
;
Structure prediction by ZEFSAII (Michael W. Deem and Ramdas Pophale) SiO2 
 PCOD9277537
Probable space group: C 2/C
;
_chemical_formula_sum "Si O2"
_cell_formula_units_Z 52
_cell_length_a 26.262734
_cell_length_b 12.954803
_cell_length_c 8.810151
_cell_angle_alpha 90.000000
_cell_angle_beta 47.385869
_cell_angle_gamma 90.000000
_cell_volume 2205.924688
_symmetry_space_group_name_H-M "C 2/C"
_symmetry_group_IT_number 15
_symmetry_cell_setting 'monoclinic'
loop_
_space_group_symop_operation_xyz
x,y,z
-x,y,1/2-z
-x,-y,-z
x,-y,1/2+z
1/2+x,1/2+y,z
1/2-x,1/2+y,1/2-z
1/2-x,1/2-y,-z
1/2+x,1/2-y,1/2+z
loop_
_atom_site_type_symbol
_atom_site_label
_atom_site_fract_x
_atom_site_fract_y
_atom_site_fract_z
Si Si1 0.275701 0.720844 0.782163
Si Si2 0.000000 0.010747 0.250000
Si Si3 0.259442 0.459979 0.095247
Si Si4 0.333952 0.788623 0.217227
Si Si5 0.903750 0.091748 0.188121
Si Si6 0.572720 0.931439 0.685372
Si Si7 0.869496 0.390809 0.603519
O O1 0.273194 0.602299 0.727401
O O2 0.219329 0.771235 0.783724
O O3 0.350457 0.772388 0.615870
O O4 0.250000 0.750000 0.000000
O O5 0.958648 0.076740 0.210554
O O6 0.943142 0.943668 0.456292
O O7 0.214145 0.371554 0.100167
O O8 0.205134 0.552415 0.218882
O O9 0.334241 0.473206 0.869540
O O10 0.377821 0.708493 0.221734
O O11 0.378057 0.856878 0.011417
O O12 0.500000 0.916916 0.750000
O O13 0.584046 0.907250 0.839279
O O14 0.595545 0.048787 0.604914
#
# Coordination Sequence:
#
# PCOD9277537 Si02
#       7
#     8   4   8   8   8   8   8
#     4  10  20  41  65 106 134 169 223 294 343 400
#     4  10  28  44  68  96 136 182 234 266 354 448
#     4   9  23  39  72  99 135 171 229 294 332 395
#     4   9  22  40  68  97 133 170 227 286 338 398
#     4  11  23  48  63  99 134 180 226 285 347 413
#     4  11  24  42  64  94 137 185 219 272 335 420
#     4  11  22  42  68 100 133 174 231 280 343 393
#
# _framework density 23.572879
#
# number of rings (size 3 to 8) (size 9 to 14) (size 15 to 20)
#    0.923    0.923    1.538    0.923    5.385    3.692 
#    5.538    0.000    6.769    0.000    0.000    0.000 
#    0.000    0.000    0.000    0.000    0.000    0.000 
#
# Total GULP energy -145185.143889 kJ/mol
# GULP energy per Si atom -5584.043996 kJ/mol
# Density = 2.351923 g / cm^3
# Si number density = 23.572879 Si / 1000 Ang^3
#
#
#
# Elastic Constant Matrix: (Units=GPa)
#
#
# Indices 1 2 3 4 5 6 
#
# 1 113.3529 41.5105 22.5847 0.0000 -2.8830 0.0000
# 2 41.5105 38.8663 -6.1422 0.0000 9.4072 0.0000
# 3 22.5847 -6.1422 78.1553 0.0000 6.7424 0.0000
# 4 0.0000 0.0000 0.0000 19.1964 0.0000 1.0264
# 5 -2.8830 9.4072 6.7424 0.0000 32.4862 0.0000
# 6 0.0000 0.0000 0.0000 1.0264 0.0000 33.1368
#
#
#
# Elastic Compliance Matrix: (Units=1/GPa)
#
#
# Indices 1 2 3 4 5 6 
#
# 1 0.020307 -0.025775 -0.008852 0.000000 0.011103 0.000000
# 2 -0.025775 0.061052 0.014223 0.000000 -0.022919 0.000000
# 3 -0.008852 0.014223 0.017202 0.000000 -0.008474 0.000000
# 4 0.000000 0.000000 0.000000 0.052180 0.000000 -0.001616
# 5 0.011103 -0.022919 -0.008474 0.000000 0.040163 0.000000
# 6 0.000000 0.000000 0.000000 -0.001616 0.000000 0.030228
#
#
# Mechanical properties :
#
#
# Convention : Reuss Voigt Hill
#
# Bulk Modulus (GPa) = 17.31437 38.47559 27.89498
# Shear Modulus (GPa) = 17.78165 28.45864 23.12015
#
# Velocity S-wave (km/s) = 2.74948 3.47834 3.13516
# Velocity P-wave (km/s) = 4.17618 5.69993 4.99648
#
# Compressibility (1/GPa) = 0.05775551
#
# Stress axis : x y z
#
# Youngs Moduli (GPa) = 49.24464 16.37939 58.13354
#
# Poissons Ratio (x) = 0.42217 0.51457
# Poissons Ratio (y) = 1.26926 -0.82686
# Poissons Ratio (z) = 0.43589 -0.23297
#
# Static dielectric constant tensor:
#      x y z
#    x 1.905250 0.000000 -0.011070 
#    y 0.000000 1.945070 0.000000 
#    z -0.011070 0.000000 1.945880 
# 
# From -- ./inp_files/66114.got.cif
#   From: 2010.05.17/outbox.cif.g08.bks.cpg/sg15_34_cif.got.tgz:66114.got - 2010.06.03 18:47:42.
