data_PCOD9277966
_publ_section_title
;
Structure prediction by ZEFSAII (Michael W. Deem and Ramdas Pophale) SiO2 
 PCOD9277966
Probable space group: C 2/C
;
_chemical_formula_sum "Si O2"
_cell_formula_units_Z 60
_cell_length_a 15.670444
_cell_length_b 12.188361
_cell_length_c 15.155516
_cell_angle_alpha 90.000000
_cell_angle_beta 88.417695
_cell_angle_gamma 90.000000
_cell_volume 2893.554761
_symmetry_space_group_name_H-M "C 2/C"
_symmetry_group_IT_number 15
_symmetry_cell_setting 'monoclinic'
loop_
_space_group_symop_operation_xyz
x,y,z
-x,y,1/2-z
-x,-y,-z
x,-y,1/2+z
1/2+x,1/2+y,z
1/2-x,1/2+y,1/2-z
1/2-x,1/2-y,-z
1/2+x,1/2-y,1/2+z
loop_
_atom_site_type_symbol
_atom_site_label
_atom_site_fract_x
_atom_site_fract_y
_atom_site_fract_z
Si Si1 0.323466 0.488412 0.835565
Si Si2 0.572628 0.211687 0.457984
Si Si3 0.414988 0.256249 0.582987
Si Si4 0.845140 0.266311 0.357810
Si Si5 0.835795 0.123472 0.664590
Si Si6 0.500000 0.754890 0.250000
Si Si7 0.144601 0.483054 0.414629
Si Si8 0.300009 0.562751 0.023948
O O1 0.349237 0.361953 0.832346
O O2 0.354314 0.565723 0.756670
O O3 0.219330 0.487059 0.843145
O O4 0.347307 0.538131 0.930086
O O5 0.483668 0.249746 0.502703
O O6 0.640371 0.225574 0.537350
O O7 0.599072 0.287580 0.375842
O O8 0.581545 0.084134 0.431596
O O9 0.456420 0.309045 0.669422
O O10 0.397598 0.130817 0.608894
O O11 0.329919 0.319851 0.558089
O O12 0.756272 0.316981 0.330989
O O13 0.924990 0.318826 0.303869
O O14 0.827646 0.027070 0.593305
O O15 0.200939 0.455671 0.501329
#
# Coordination Sequence:
#
# PCOD9277966 Si02
#       8
#     8   8   8   8   8   4   8   8
#     4  10  22  35  64  90 124 164 215 265 313 391
#     4  11  21  39  68  89 125 173 212 268 327 391
#     4  11  23  40  62  95 137 165 213 270 328 391
#     4  11  19  42  58  91 126 162 219 255 319 396
#     4  12  20  39  68  90 125 171 215 265 319 392
#     4  10  24  36  62  90 124 172 206 266 320 390
#     4  10  20  42  63  94 123 173 222 262 323 393
#     4  10  22  40  64  95 124 169 213 267 322 387
#
# _framework density 20.735741000000001
#
# number of rings (size 3 to 8) (size 9 to 14) (size 15 to 20)
#    0.800    0.533    4.000    2.800    0.000    0.533 
#    2.400    0.000    2.933    0.000    0.000    0.000 
#    0.000    0.000    0.000    0.000    0.000    0.000 
#
# Total GULP energy -167316.452983 kJ/mol
# GULP energy per Si atom -5577.215099 kJ/mol
# Density = 2.068855 g / cm^3
# Si number density = 20.735741 Si / 1000 Ang^3
#
#
#
# Elastic Constant Matrix: (Units=GPa)
#
#
# Indices 1 2 3 4 5 6 
#
# 1 25.6529 -0.3564 3.3793 0.0000 -3.0041 0.0000
# 2 -0.3564 88.6553 25.2654 0.0000 -3.0769 0.0000
# 3 3.3793 25.2654 94.9889 0.0000 -17.5616 0.0000
# 4 0.0000 0.0000 0.0000 17.9970 0.0000 -9.9082
# 5 -3.0041 -3.0769 -17.5616 0.0000 13.7882 0.0000
# 6 0.0000 0.0000 0.0000 -9.9082 0.0000 13.1544
#
#
#
# Elastic Compliance Matrix: (Units=1/GPa)
#
#
# Indices 1 2 3 4 5 6 
#
# 1 0.040023 0.000439 0.000117 0.000000 0.008967 0.000000
# 2 0.000439 0.012246 -0.003597 0.000000 -0.001753 0.000000
# 3 0.000117 -0.003597 0.014828 0.000000 0.018109 0.000000
# 4 0.000000 0.000000 0.000000 0.094931 0.000000 0.071505
# 5 0.008967 -0.001753 0.018109 0.000000 0.097154 0.000000
# 6 0.000000 0.000000 0.000000 0.071505 0.000000 0.129880
#
#
# Mechanical properties :
#
#
# Convention : Reuss Voigt Hill
#
# Bulk Modulus (GPa) = 16.38947 29.54153 22.96550
# Shear Modulus (GPa) = 12.03425 21.05516 16.54471
#
# Velocity S-wave (km/s) = 2.41169 3.19000 2.82775
# Velocity P-wave (km/s) = 3.95931 5.27690 4.66486
#
# Compressibility (1/GPa) = 0.06101477
#
# Stress axis : x y z
#
# Youngs Moduli (GPa) = 24.98586 81.66199 67.43955
#
# Poissons Ratio (x) = -0.03582 -0.00791
# Poissons Ratio (y) = -0.01096 0.24257
# Poissons Ratio (z) = -0.00293 0.29372
#
# Static dielectric constant tensor:
#      x y z
#    x 1.790350 0.000000 0.016290 
#    y 0.000000 1.731730 0.000000 
#    z 0.016290 0.000000 1.760160 
# 
# From -- ./inp_files/160943.got.cif
#   From: 2010.05.17/outbox.cif.g08.bks.cpg/sg15_81_cif.got.tgz:160943.got - 2010.06.03 18:47:42.
