data_PCOD9277595
_publ_section_title
;
Structure prediction by ZEFSAII (Michael W. Deem and Ramdas Pophale) SiO2 
 PCOD9277595
Probable space group: C 2/C
;
_chemical_formula_sum "Si O2"
_cell_formula_units_Z 64
_cell_length_a 8.226998
_cell_length_b 12.705987
_cell_length_c 24.295258
_cell_angle_alpha 90.000000
_cell_angle_beta 80.516975
_cell_angle_gamma 90.000000
_cell_volume 2504.929566
_symmetry_space_group_name_H-M "C 2/C"
_symmetry_group_IT_number 15
_symmetry_cell_setting 'monoclinic'
loop_
_space_group_symop_operation_xyz
x,y,z
-x,y,1/2-z
-x,-y,-z
x,-y,1/2+z
1/2+x,1/2+y,z
1/2-x,1/2+y,1/2-z
1/2-x,1/2-y,-z
1/2+x,1/2-y,1/2+z
loop_
_atom_site_type_symbol
_atom_site_label
_atom_site_fract_x
_atom_site_fract_y
_atom_site_fract_z
Si Si1 0.095344 0.653896 0.937682
Si Si2 0.045447 0.177388 0.975776
Si Si3 0.670271 0.989452 0.771174
Si Si4 0.824247 0.740038 0.228639
Si Si5 0.292290 0.157815 0.872941
Si Si6 0.169195 0.978121 0.555574
Si Si7 0.075998 0.008494 0.840162
Si Si8 0.305319 0.676242 0.833999
O O1 0.155158 0.533793 0.944043
O O2 0.247047 0.709107 0.897052
O O3 0.954701 0.660034 0.899297
O O4 0.045247 0.724676 0.991649
O O5 0.154611 0.213129 0.918264
O O6 0.928248 0.079507 0.964868
O O7 0.162527 0.119231 0.014533
O O8 0.500000 0.015641 0.750000
O O9 0.643340 0.874067 0.796767
O O10 0.831676 0.982684 0.722020
O O11 0.714372 0.074141 0.813795
O O12 0.714713 0.799155 0.189380
O O13 0.739424 0.738573 0.293441
O O14 0.000000 0.771837 0.250000
O O15 0.227768 0.037205 0.871482
O O16 0.063215 0.948271 0.616882
O O17 0.984188 0.121729 0.835011
#
# Coordination Sequence:
#
# PCOD9277595 Si02
#       8
#     8   8   8   8   8   8   8   8
#     4  11  24  39  67 100 135 174 229 288 347 414
#     4  10  22  44  68  96 135 179 228 283 352 425
#     4  11  23  38  62  98 133 170 231 285 343 415
#     4  11  23  42  66  97 132 184 228 280 354 421
#     4  11  22  41  66  95 134 181 220 291 350 409
#     4   9  22  42  67  99 131 172 230 281 342 428
#     4  10  20  41  66  86 133 175 216 275 348 400
#     4  11  22  42  66  91 134 179 225 279 340 412
#
# _framework density 25.549620999999998
#
# number of rings (size 3 to 8) (size 9 to 14) (size 15 to 20)
#    0.000    1.500    2.500    1.875    1.750    2.500 
#    2.250    3.750    0.000    0.000    0.000    0.000 
#    0.000    0.000    0.000    0.000    0.000    0.000 
#
# Total GULP energy -178210.925495 kJ/mol
# GULP energy per Si atom -5569.091422 kJ/mol
# Density = 2.549147 g / cm^3
# Si number density = 25.549621 Si / 1000 Ang^3
#
#
#
# Elastic Constant Matrix: (Units=GPa)
#
#
# Indices 1 2 3 4 5 6 
#
# 1 102.3373 16.5423 16.7501 0.0000 15.1739 0.0000
# 2 16.5423 38.9556 11.2195 0.0000 4.3934 0.0000
# 3 16.7501 11.2195 120.7585 0.0000 -16.2171 0.0000
# 4 0.0000 0.0000 0.0000 12.9301 0.0000 11.1490
# 5 15.1739 4.3934 -16.2171 0.0000 32.0732 0.0000
# 6 0.0000 0.0000 0.0000 11.1490 0.0000 16.4795
#
#
#
# Elastic Compliance Matrix: (Units=1/GPa)
#
#
# Indices 1 2 3 4 5 6 
#
# 1 0.011597 -0.003644 -0.002081 0.000000 -0.006040 0.000000
# 2 -0.003644 0.028357 -0.002595 0.000000 -0.003473 0.000000
# 3 -0.002081 -0.002595 0.009646 0.000000 0.006217 0.000000
# 4 0.000000 0.000000 0.000000 0.185616 0.000000 -0.125576
# 5 -0.006040 -0.003473 0.006217 0.000000 0.037655 0.000000
# 6 0.000000 0.000000 0.000000 -0.125576 0.000000 0.145638
#
#
# Mechanical properties :
#
#
# Convention : Reuss Voigt Hill
#
# Bulk Modulus (GPa) = 30.34149 39.00835 34.67492
# Shear Modulus (GPa) = 11.20736 26.79921 19.00329
#
# Velocity S-wave (km/s) = 2.09667 3.24220 2.73019
# Velocity P-wave (km/s) = 4.21458 5.41448 4.85177
#
# Compressibility (1/GPa) = 0.03295817
#
# Stress axis : x y z
#
# Youngs Moduli (GPa) = 86.23096 35.26492 103.67293
#
# Poissons Ratio (x) = 0.12851 0.21575
# Poissons Ratio (y) = 0.31423 0.26908
# Poissons Ratio (z) = 0.17945 0.09153
#
# Static dielectric constant tensor:
#      x y z
#    x 2.279050 0.000000 -0.180890 
#    y 0.000000 2.018110 0.000000 
#    z -0.180890 0.000000 2.142530 
# 
# From -- ./inp_files/288740.got.cif
#   From: 2010.05.17/outbox.cif.g08.bks.cpg/sg15_145_cif.got.tgz:288740.got - 2010.06.03 18:47:42.
