data_PCOD9277980
_publ_section_title
;
Structure prediction by ZEFSAII (Michael W. Deem and Ramdas Pophale) SiO2 
 PCOD9277980
Probable space group: C 2/C
;
_chemical_formula_sum "Si O2"
_cell_formula_units_Z 60
_cell_length_a 7.802726
_cell_length_b 12.033377
_cell_length_c 26.860393
_cell_angle_alpha 90.000000
_cell_angle_beta 96.971011
_cell_angle_gamma 90.000000
_cell_volume 2503.363268
_symmetry_space_group_name_H-M "C 2/C"
_symmetry_group_IT_number 15
_symmetry_cell_setting 'monoclinic'
loop_
_space_group_symop_operation_xyz
x,y,z
-x,y,1/2-z
-x,-y,-z
x,-y,1/2+z
1/2+x,1/2+y,z
1/2-x,1/2+y,1/2-z
1/2-x,1/2-y,-z
1/2+x,1/2-y,1/2+z
loop_
_atom_site_type_symbol
_atom_site_label
_atom_site_fract_x
_atom_site_fract_y
_atom_site_fract_z
Si Si1 0.369300 0.448758 0.424797
Si Si2 0.501022 0.212791 0.410039
Si Si3 0.571059 0.732336 0.172759
Si Si4 0.909851 0.188842 0.436824
Si Si5 0.500000 0.912666 0.250000
Si Si6 0.524748 0.741522 0.805427
Si Si7 0.167165 0.990139 0.190588
Si Si8 0.095463 0.383624 0.498835
O O1 0.492215 0.345456 0.417328
O O2 0.461175 0.560934 0.446887
O O3 0.288174 0.481935 0.367503
O O4 0.239033 0.404041 0.462120
O O5 0.700263 0.181258 0.427554
O O6 0.453976 0.192048 0.350629
O O7 0.369898 0.152959 0.443066
O O8 0.516500 0.728037 0.113761
O O9 0.488603 0.826473 0.203378
O O10 0.772366 0.764568 0.178720
O O11 0.566601 0.606318 0.192766
O O12 0.975552 0.280970 0.476952
O O13 0.329567 0.984128 0.233476
O O14 0.500000 0.789696 0.750000
O O15 0.442916 0.619444 0.802601
O O16 0.000000 0.500000 0.500000
#
# Coordination Sequence:
#
# PCOD9277980 Si02
#       8
#     8   8   8   8   4   8   8   8
#     4  10  22  43  63  87 126 165 205 263 306 370
#     4  10  22  40  66  92 119 166 213 243 313 375
#     4  10  23  39  62  88 122 163 204 254 309 366
#     4  10  22  44  61  88 129 165 203 255 317 368
#     4  12  22  34  60  94 116 156 212 250 304 374
#     4  10  20  42  64  85 125 164 198 256 304 358
#     4  10  23  39  61  88 122 162 207 252 313 365
#     4  12  23  40  66  94 129 164 202 264 313 370
#
# _framework density 23.967756000000001
#
# number of rings (size 3 to 8) (size 9 to 14) (size 15 to 20)
#    0.000    1.600    2.667    1.600    1.867    0.533 
#    2.400    0.000    5.867    0.000    0.000    0.000 
#    0.000    0.000    0.000    0.000    0.000    0.000 
#
# Total GULP energy -167721.689067 kJ/mol
# GULP energy per Si atom -5590.722969 kJ/mol
# Density = 2.391320 g / cm^3
# Si number density = 23.967756 Si / 1000 Ang^3
#
#
#
# Elastic Constant Matrix: (Units=GPa)
#
#
# Indices 1 2 3 4 5 6 
#
# 1 25.7639 14.4054 22.5685 0.0000 2.1617 0.0000
# 2 14.4054 114.4438 48.2318 0.0000 4.5520 0.0000
# 3 22.5685 48.2318 156.8444 0.0000 -15.0869 0.0000
# 4 0.0000 0.0000 0.0000 25.2011 0.0000 3.7426
# 5 2.1617 4.5520 -15.0869 0.0000 34.1757 0.0000
# 6 0.0000 0.0000 0.0000 3.7426 0.0000 28.8770
#
#
#
# Elastic Compliance Matrix: (Units=1/GPa)
#
#
# Indices 1 2 3 4 5 6 
#
# 1 0.046424 -0.002990 -0.006271 0.000000 -0.005307 0.000000
# 2 -0.002990 0.010499 -0.003044 0.000000 -0.002553 0.000000
# 3 -0.006271 -0.003044 0.008659 0.000000 0.004625 0.000000
# 4 0.000000 0.000000 0.000000 0.040460 0.000000 -0.005244
# 5 -0.005307 -0.002553 0.004625 0.000000 0.031978 0.000000
# 6 0.000000 0.000000 0.000000 -0.005244 0.000000 0.035309
#
#
# Mechanical properties :
#
#
# Convention : Reuss Voigt Hill
#
# Bulk Modulus (GPa) = 24.40657 51.94040 38.17348
# Shear Modulus (GPa) = 23.63007 31.77385 27.70196
#
# Velocity S-wave (km/s) = 3.14333 3.64495 3.40340
# Velocity P-wave (km/s) = 4.83521 6.27951 5.60408
#
# Compressibility (1/GPa) = 0.04097257
#
# Stress axis : x y z
#
# Youngs Moduli (GPa) = 21.54056 95.25100 115.48714
#
# Poissons Ratio (x) = 0.28476 0.72423
# Poissons Ratio (y) = 0.06440 0.35153
# Poissons Ratio (z) = 0.13508 0.28993
#
# Static dielectric constant tensor:
#      x y z
#    x 1.914720 0.000000 -0.014150 
#    y 0.000000 1.881830 0.000000 
#    z -0.014150 0.000000 2.042820 
# 
# From -- ./inp_files/288024.got.cif
#   From: 2010.05.17/outbox.cif.g08.bks.cpg/sg15_145_cif.got.tgz:288024.got - 2010.06.03 18:47:42.
