data_PCOD9277455
_publ_section_title
;
Structure prediction by ZEFSAII (Michael W. Deem and Ramdas Pophale) SiO2 
 PCOD9277455
Probable space group: C 2/C
;
_chemical_formula_sum "Si O2"
_cell_formula_units_Z 52
_cell_length_a 6.165109
_cell_length_b 28.717359
_cell_length_c 15.447758
_cell_angle_alpha 90.000000
_cell_angle_beta 63.619672
_cell_angle_gamma 90.000000
_cell_volume 2450.151720
_symmetry_space_group_name_H-M "C 2/C"
_symmetry_group_IT_number 15
_symmetry_cell_setting 'monoclinic'
loop_
_space_group_symop_operation_xyz
x,y,z
-x,y,1/2-z
-x,-y,-z
x,-y,1/2+z
1/2+x,1/2+y,z
1/2-x,1/2+y,1/2-z
1/2-x,1/2-y,-z
1/2+x,1/2-y,1/2+z
loop_
_atom_site_type_symbol
_atom_site_label
_atom_site_fract_x
_atom_site_fract_y
_atom_site_fract_z
Si Si1 0.000000 0.027388 0.750000
Si Si2 0.471916 0.700000 0.025884
Si Si3 0.986922 0.468867 0.089599
Si Si4 0.322295 0.250234 0.847752
Si Si5 0.641480 0.474000 0.895086
Si Si6 0.807276 0.107767 0.446639
Si Si7 0.048406 0.341337 0.842417
O O1 0.241757 0.051720 0.673544
O O2 0.052796 0.995695 0.822526
O O3 0.520439 0.736583 0.095013
O O4 0.645661 0.657285 0.019969
O O5 0.202685 0.678801 0.072871
O O6 0.582361 0.723173 0.920750
O O7 0.090420 0.507260 0.137566
O O8 0.000000 0.500000 0.000000
O O9 0.146596 0.424710 0.036188
O O10 0.500000 0.224663 0.750000
O O11 0.233312 0.297804 0.817166
O O12 0.562747 0.420470 0.901599
O O13 0.500000 0.500000 0.000000
O O14 0.671337 0.118006 0.379359
O O15 0.000000 0.352714 0.750000
#
# Coordination Sequence:
#
# PCOD9277455 Si02
#       7
#     4   8   8   8   8   8   8
#     4  12  22  40  72  94 118 190 224 266 344 394
#     4  10  22  38  63  91 131 168 211 274 324 394
#     4  11  23  45  65  94 132 177 225 273 331 401
#     4  10  20  41  63  91 127 173 218 254 332 405
#     4  10  22  42  63  90 131 170 224 271 323 395
#     4  10  24  41  62  95 134 167 219 280 331 382
#     4  11  22  39  66 100 132 166 211 279 339 395
#
# _framework density 21.223175999999999
#
# number of rings (size 3 to 8) (size 9 to 14) (size 15 to 20)
#    0.000    1.538    4.615    0.923    2.154    1.231 
#    0.000    4.615    0.000    0.000    8.000    0.000 
#    0.000    0.000    0.000    0.000    0.000    0.000 
#
# Total GULP energy -144895.387945 kJ/mol
# GULP energy per Si atom -5572.899536 kJ/mol
# Density = 2.117487 g / cm^3
# Si number density = 21.223176 Si / 1000 Ang^3
#
#
#
# Elastic Constant Matrix: (Units=GPa)
#
#
# Indices 1 2 3 4 5 6 
#
# 1 83.0577 27.6376 40.0595 0.0000 -4.5681 0.0000
# 2 27.6376 64.4124 31.3431 0.0000 3.5820 0.0000
# 3 40.0595 31.3431 125.5638 0.0000 -9.1351 0.0000
# 4 0.0000 0.0000 0.0000 15.8971 0.0000 0.4183
# 5 -4.5681 3.5820 -9.1351 0.0000 47.5804 0.0000
# 6 0.0000 0.0000 0.0000 0.4183 0.0000 15.1101
#
#
#
# Elastic Compliance Matrix: (Units=1/GPa)
#
#
# Indices 1 2 3 4 5 6 
#
# 1 0.015500 -0.004952 -0.003624 0.000000 0.001165 0.000000
# 2 -0.004952 0.019485 -0.003474 0.000000 -0.002609 0.000000
# 3 -0.003624 -0.003474 0.010123 0.000000 0.001857 0.000000
# 4 0.000000 0.000000 0.000000 0.062950 0.000000 -0.001742
# 5 0.001165 -0.002609 0.001857 0.000000 0.021682 0.000000
# 6 0.000000 0.000000 0.000000 -0.001742 0.000000 0.066229
#
#
# Mechanical properties :
#
#
# Convention : Reuss Voigt Hill
#
# Bulk Modulus (GPa) = 47.60153 52.34603 49.97378
# Shear Modulus (GPa) = 22.01957 27.31711 24.66834
#
# Velocity S-wave (km/s) = 3.22456 3.59156 3.41300
# Velocity P-wave (km/s) = 6.02838 6.47435 6.25534
#
# Compressibility (1/GPa) = 0.02100773
#
# Stress axis : x y z
#
# Youngs Moduli (GPa) = 64.51807 51.32120 98.78924
#
# Poissons Ratio (x) = 0.25413 0.35802
# Poissons Ratio (y) = 0.31948 0.34318
# Poissons Ratio (z) = 0.23382 0.17828
#
# Static dielectric constant tensor:
#      x y z
#    x 1.730230 0.000000 -0.042950 
#    y 0.000000 1.761850 0.000000 
#    z -0.042950 0.000000 1.772730 
# 
# From -- ./inp_files/130692.got.cif
#   From: 2010.05.17/outbox.cif.g08.bks.cpg/sg15_66_cif.got.tgz:130692.got - 2010.06.03 18:47:42.
