data_PCOD9277384
_publ_section_title
;
Structure prediction by ZEFSAII (Michael W. Deem and Ramdas Pophale) SiO2 
 PCOD9277384
Probable space group: C 2/C
;
_chemical_formula_sum "Si O2"
_cell_formula_units_Z 52
_cell_length_a 10.838691
_cell_length_b 13.921006
_cell_length_c 15.772779
_cell_angle_alpha 90.000000
_cell_angle_beta 129.472624
_cell_angle_gamma 90.000000
_cell_volume 1837.099595
_symmetry_space_group_name_H-M "C 2/C"
_symmetry_group_IT_number 15
_symmetry_cell_setting 'monoclinic'
loop_
_space_group_symop_operation_xyz
x,y,z
-x,y,1/2-z
-x,-y,-z
x,-y,1/2+z
1/2+x,1/2+y,z
1/2-x,1/2+y,1/2-z
1/2-x,1/2-y,-z
1/2+x,1/2-y,1/2+z
loop_
_atom_site_type_symbol
_atom_site_label
_atom_site_fract_x
_atom_site_fract_y
_atom_site_fract_z
Si Si1 0.000000 0.253413 0.750000
Si Si2 0.244476 0.611559 0.572752
Si Si3 0.262515 0.435400 0.692244
Si Si4 0.006580 0.893910 0.546425
Si Si5 0.679082 0.263229 0.163871
Si Si6 0.993622 0.685795 0.893067
Si Si7 0.064214 0.505591 0.370581
O O1 0.871721 0.192798 0.641637
O O2 0.893492 0.288351 0.782432
O O3 0.315479 0.515978 0.648149
O O4 0.088901 0.653343 0.553819
O O5 0.198336 0.580364 0.457874
O O6 0.364434 0.425930 0.822544
O O7 0.242073 0.330315 0.642182
O O8 0.086689 0.476180 0.636033
O O9 0.955320 0.795756 0.578902
O O10 0.943407 0.835626 0.432846
O O11 0.000000 0.000000 0.500000
O O12 0.837637 0.319124 0.263028
O O13 0.112863 0.604250 0.909958
O O14 0.000000 0.521147 0.250000
#
# Coordination Sequence:
#
# PCOD9277384 Si02
#       7
#     4   8   8   8   8   8   8
#     4  10  22  36  60  96 134 164 204 278 342 350
#     4  10  20  41  61  88 133 173 207 260 332 394
#     4  10  22  40  64  94 124 177 214 252 325 395
#     4  11  20  35  67  91 117 162 220 264 300 384
#     4  10  21  38  61  90 129 160 206 269 326 377
#     4   9  20  40  58  87 126 171 207 254 334 384
#     4  11  22  36  63  92 127 167 219 258 311 385
#
# _framework density 28.305489000000001
#
# number of rings (size 3 to 8) (size 9 to 14) (size 15 to 20)
#    0.000    1.846    0.000    6.462    3.231    0.000 
#    2.769    3.077   15.231    5.538    0.000    0.000 
#    0.000    0.000    0.000    0.000    0.000    0.000 
#
# Total GULP energy -144798.182738 kJ/mol
# GULP energy per Si atom -5569.160875 kJ/mol
# Density = 2.824106 g / cm^3
# Si number density = 28.305489 Si / 1000 Ang^3
#
#
#
# Elastic Constant Matrix: (Units=GPa)
#
#
# Indices 1 2 3 4 5 6 
#
# 1 57.2602 12.8623 26.1545 0.0000 -15.8215 0.0000
# 2 12.8623 206.6948 63.4695 0.0000 -3.4311 0.0000
# 3 26.1545 63.4695 185.9889 0.0000 -11.3558 0.0000
# 4 0.0000 0.0000 0.0000 53.6143 0.0000 -0.2197
# 5 -15.8215 -3.4311 -11.3558 0.0000 23.4108 0.0000
# 6 0.0000 0.0000 0.0000 -0.2197 0.0000 -8.6606
#
#
#
# Elastic Compliance Matrix: (Units=1/GPa)
#
#
# Indices 1 2 3 4 5 6 
#
# 1 0.022432 -0.000511 -0.002122 0.000000 0.014056 0.000000
# 2 -0.000511 0.005416 -0.001802 0.000000 -0.000426 0.000000
# 3 -0.002122 -0.001802 0.006375 0.000000 0.001394 0.000000
# 4 0.000000 0.000000 0.000000 0.018650 0.000000 -0.000473
# 5 0.014056 -0.000426 0.001394 0.000000 0.052828 0.000000
# 6 0.000000 0.000000 0.000000 -0.000473 0.000000 -0.115453
#
#
# Mechanical properties :
#
#
# Convention : Reuss Voigt Hill
#
# Bulk Modulus (GPa) = 39.44351 72.76847 56.10599
# Shear Modulus (GPa) = 660.49549 36.83675 348.66612
#
# Velocity S-wave (km/s) = 15.29222 3.61140 11.11067
# Velocity P-wave (km/s) = 18.04904 6.56915 13.58163
#
# Compressibility (1/GPa) = 0.02535272
#
# Stress axis : x y z
#
# Youngs Moduli (GPa) = 44.57943 184.62920 156.85597
#
# Poissons Ratio (x) = 0.09435 0.33283
# Poissons Ratio (y) = 0.02278 0.28273
# Poissons Ratio (z) = 0.09459 0.33279
#
# Static dielectric constant tensor:
#      x y z
#    x 2.374950 0.000000 0.028200 
#    y 0.000000 2.236840 0.000000 
#    z 0.028200 0.000000 2.247020 
# 
# From -- ./inp_files/205767.got.cif
#   From: 2010.05.17/outbox.cif.g08.bks.cpg/sg15_103_cif.got.tgz:205767.got - 2010.06.03 18:47:42.
