data_PCOD9277075
_publ_section_title
;
Structure prediction by ZEFSAII (Michael W. Deem and Ramdas Pophale) SiO2 
 PCOD9277075
Probable space group: C 2/C
;
_chemical_formula_sum "Si O2"
_cell_formula_units_Z 48
_cell_length_a 12.902473
_cell_length_b 7.991180
_cell_length_c 27.241828
_cell_angle_alpha 90.000000
_cell_angle_beta 141.412203
_cell_angle_gamma 90.000000
_cell_volume 1751.882631
_symmetry_space_group_name_H-M "C 2/C"
_symmetry_group_IT_number 15
_symmetry_cell_setting 'monoclinic'
loop_
_space_group_symop_operation_xyz
x,y,z
-x,y,1/2-z
-x,-y,-z
x,-y,1/2+z
1/2+x,1/2+y,z
1/2-x,1/2+y,1/2-z
1/2-x,1/2-y,-z
1/2+x,1/2-y,1/2+z
loop_
_atom_site_type_symbol
_atom_site_label
_atom_site_fract_x
_atom_site_fract_y
_atom_site_fract_z
Si Si1 0.404870 0.190213 0.356416
Si Si2 0.500000 0.142409 0.750000
Si Si3 0.763134 0.635010 0.398938
Si Si4 0.802083 0.235941 0.661904
Si Si5 0.294184 0.536580 0.296139
Si Si6 0.261708 0.903295 0.543525
Si Si7 0.250000 0.250000 0.500000
O O1 0.402257 0.207169 0.413744
O O2 0.417566 0.378854 0.339715
O O3 0.243334 0.107329 0.271574
O O4 0.542136 0.061452 0.390012
O O5 0.396629 0.253425 0.673518
O O6 0.362110 0.041944 0.730621
O O7 0.735571 0.449521 0.369561
O O8 0.792481 0.642252 0.466685
O O9 0.685094 0.296879 0.663478
O O10 0.753632 0.348454 0.596965
O O11 0.000000 0.241276 0.750000
O O12 0.250000 0.750000 0.500000
O O13 0.175804 0.076372 0.499483
#
# Coordination Sequence:
#
# PCOD9277075 Si02
#       7
#     8   4   8   8   8   8   4
#     4  11  24  42  68 111 142 181 246 305 362 419
#     4  10  20  40  68 100 132 190 232 296 362 430
#     4  11  24  41  71 101 140 184 240 289 363 426
#     4  12  22  45  73 103 138 191 242 294 358 436
#     4  11  21  39  67 103 144 176 238 313 360 416
#     4  12  26  49  73 103 146 197 241 289 363 440
#     4  12  26  50  70  96 144 196 230 288 360 440
#
# _framework density 27.399096
#
# number of rings (size 3 to 8) (size 9 to 14) (size 15 to 20)
#    0.000    0.667    5.000    4.000    0.000    0.667 
#    6.000    1.667    0.000    0.000    0.000    0.000 
#    0.000    0.000    0.000    0.000    0.000    0.000 
#
# Total GULP energy -133873.079971 kJ/mol
# GULP energy per Si atom -5578.044999 kJ/mol
# Density = 2.733673 g / cm^3
# Si number density = 27.399096 Si / 1000 Ang^3
#
#
#
# Elastic Constant Matrix: (Units=GPa)
#
#
# Indices 1 2 3 4 5 6 
#
# 1 71.1681 -11.8451 28.5468 0.0000 -35.6790 0.0000
# 2 -11.8451 157.2905 36.5777 0.0000 -13.7281 0.0000
# 3 28.5468 36.5777 82.1490 0.0000 -35.0320 0.0000
# 4 0.0000 0.0000 0.0000 38.7334 0.0000 -22.3110
# 5 -35.6790 -13.7281 -35.0320 0.0000 61.6367 0.0000
# 6 0.0000 0.0000 0.0000 -22.3110 0.0000 37.5485
#
#
#
# Elastic Compliance Matrix: (Units=1/GPa)
#
#
# Indices 1 2 3 4 5 6 
#
# 1 0.021997 0.003686 -0.004626 0.000000 0.010925 0.000000
# 2 0.003686 0.007713 -0.004056 0.000000 0.001546 0.000000
# 3 -0.004626 -0.004056 0.018557 0.000000 0.006966 0.000000
# 4 0.000000 0.000000 0.000000 0.039252 0.000000 0.023323
# 5 0.010925 0.001546 0.006966 0.000000 0.026852 0.000000
# 6 0.000000 0.000000 0.000000 0.023323 0.000000 0.040491
#
#
# Mechanical properties :
#
#
# Convention : Reuss Voigt Hill
#
# Bulk Modulus (GPa) = 26.12655 46.35182 36.23919
# Shear Modulus (GPa) = 28.15101 44.73894 36.44497
#
# Velocity S-wave (km/s) = 3.20885 4.04525 3.65108
# Velocity P-wave (km/s) = 4.82548 6.22678 5.57037
#
# Compressibility (1/GPa) = 0.03827524
#
# Stress axis : x y z
#
# Youngs Moduli (GPa) = 45.45975 129.64448 53.88757
#
# Poissons Ratio (x) = -0.47786 0.24931
# Poissons Ratio (y) = -0.16756 0.21856
# Poissons Ratio (z) = 0.21032 0.52582
#
# Static dielectric constant tensor:
#      x y z
#    x 2.184480 0.000000 0.133250 
#    y 0.000000 2.180730 0.000000 
#    z 0.133250 0.000000 2.278260 
# 
# From -- ./inp_files/295479.got.cif
#   From: 2010.05.17/outbox.cif.g08.bks.cpg/sg15_148_cif.got.tgz:295479.got - 2010.06.03 18:47:42.
