data_PCOD9277426
_publ_section_title
;
Structure prediction by ZEFSAII (Michael W. Deem and Ramdas Pophale) SiO2 
 PCOD9277426
Probable space group: C 2/C
;
_chemical_formula_sum "Si O2"
_cell_formula_units_Z 56
_cell_length_a 27.394166
_cell_length_b 17.217157
_cell_length_c 8.721974
_cell_angle_alpha 90.000000
_cell_angle_beta 39.392041
_cell_angle_gamma 90.000000
_cell_volume 2610.659501
_symmetry_space_group_name_H-M "C 2/C"
_symmetry_group_IT_number 15
_symmetry_cell_setting 'monoclinic'
loop_
_space_group_symop_operation_xyz
x,y,z
-x,y,1/2-z
-x,-y,-z
x,-y,1/2+z
1/2+x,1/2+y,z
1/2-x,1/2+y,1/2-z
1/2-x,1/2-y,-z
1/2+x,1/2-y,1/2+z
loop_
_atom_site_type_symbol
_atom_site_label
_atom_site_fract_x
_atom_site_fract_y
_atom_site_fract_z
Si Si1 0.000000 0.991863 0.250000
Si Si2 0.849994 0.414202 0.771358
Si Si3 0.091109 0.080907 0.258066
Si Si4 0.408559 0.234459 0.732426
Si Si5 0.747214 0.174123 0.227577
Si Si6 0.500000 0.137772 0.750000
Si Si7 0.348499 0.182812 0.567301
Si Si8 0.750566 0.066491 0.492077
O O1 0.066024 0.046722 0.157030
O O2 0.970076 0.941501 0.463071
O O3 0.783680 0.359226 0.857557
O O4 0.811792 0.498711 0.876489
O O5 0.925220 0.411577 0.480614
O O6 0.874127 0.376535 0.873887
O O7 0.092382 0.173387 0.251721
O O8 0.171467 0.043412 0.113527
O O9 0.474636 0.192685 0.670226
O O10 0.407017 0.209132 0.558207
O O11 0.328808 0.207333 0.004197
O O12 0.811253 0.240797 0.079534
O O13 0.771995 0.102951 0.276017
O O14 0.284217 0.135024 0.818339
#
# Coordination Sequence:
#
# PCOD9277426 Si02
#       8
#     4   8   8   8   8   4   8   8
#     4  10  27  38  58  99 132 168 216 260 360 399
#     4  11  25  39  65 101 135 178 227 274 345 388
#     4  11  22  43  62  93 133 175 216 275 327 413
#     4  10  20  41  70  87 131 174 215 270 337 383
#     4  10  20  41  62  98 128 166 225 279 324 391
#     4  10  25  46  62  97 146 176 216 282 336 409
#     4  11  21  40  66 101 119 170 239 274 322 395
#     4  11  22  40  68  94 131 175 223 278 331 388
#
# _framework density 21.450517999999999
#
# number of rings (size 3 to 8) (size 9 to 14) (size 15 to 20)
#    0.000    1.429    2.857    2.571    4.000    1.714 
#    0.000   12.857    0.000    0.000    0.000    0.000 
#    0.000    0.000    0.000    0.000    0.000    0.000 
#
# Total GULP energy -156469.885866 kJ/mol
# GULP energy per Si atom -5588.210209 kJ/mol
# Density = 2.140170 g / cm^3
# Si number density = 21.450518 Si / 1000 Ang^3
#
#
#
# Elastic Constant Matrix: (Units=GPa)
#
#
# Indices 1 2 3 4 5 6 
#
# 1 96.0529 20.2798 -11.6214 0.0000 -1.5914 0.0000
# 2 20.2798 86.2376 -2.1089 0.0000 -5.8493 0.0000
# 3 -11.6214 -2.1089 6.7455 0.0000 -2.9685 0.0000
# 4 0.0000 0.0000 0.0000 19.1745 0.0000 1.9378
# 5 -1.5914 -5.8493 -2.9685 0.0000 29.2774 0.0000
# 6 0.0000 0.0000 0.0000 1.9378 0.0000 -42.1571
#
#
#
# Elastic Compliance Matrix: (Units=1/GPa)
#
#
# Indices 1 2 3 4 5 6 
#
# 1 0.013940 -0.002495 0.024441 0.000000 0.002737 0.000000
# 2 -0.002495 0.012360 0.000621 0.000000 0.002397 0.000000
# 3 0.024441 0.000621 0.200119 0.000000 0.021743 0.000000
# 4 0.000000 0.000000 0.000000 0.051912 0.000000 0.002386
# 5 0.002737 0.002397 0.021743 0.000000 0.036988 0.000000
# 6 0.000000 0.000000 0.000000 0.002386 0.000000 -0.023611
#
#
# Mechanical properties :
#
#
# Convention : Reuss Voigt Hill
#
# Bulk Modulus (GPa) = 3.68251 22.45946 13.07099
# Shear Modulus (GPa) = 14.83279 13.42472 14.12876
#
# Velocity S-wave (km/s) = 2.63247 2.50441 2.56924
# Velocity P-wave (km/s) = 3.31064 4.34233 3.86110
#
# Compressibility (1/GPa) = 0.27155376
#
# Stress axis : x y z
#
# Youngs Moduli (GPa) = 71.73520 80.90411 4.99704
#
# Poissons Ratio (x) = 0.20184 -0.12213
# Poissons Ratio (y) = 0.17897 -0.00310
# Poissons Ratio (z) = -1.75331 -0.05023
#
# Static dielectric constant tensor:
#      x y z
#    x 1.808550 0.000000 0.006430 
#    y 0.000000 1.760150 0.000000 
#    z 0.006430 0.000000 1.778390 
# 
# From -- ./inp_files/69907.got.cif
#   From: 2010.05.17/outbox.cif.g08.bks.cpg/sg15_35_cif.got.tgz:69907.got - 2010.06.03 18:47:42.
