data_PCOD9277454
_publ_section_title
;
Structure prediction by ZEFSAII (Michael W. Deem and Ramdas Pophale) SiO2 
 PCOD9277454
Probable space group: C 2/C
;
_chemical_formula_sum "Si O2"
_cell_formula_units_Z 60
_cell_length_a 23.892229
_cell_length_b 15.062141
_cell_length_c 14.196397
_cell_angle_alpha 90.000000
_cell_angle_beta 148.097243
_cell_angle_gamma 90.000000
_cell_volume 2699.910702
_symmetry_space_group_name_H-M "C 2/C"
_symmetry_group_IT_number 15
_symmetry_cell_setting 'monoclinic'
loop_
_space_group_symop_operation_xyz
x,y,z
-x,y,1/2-z
-x,-y,-z
x,-y,1/2+z
1/2+x,1/2+y,z
1/2-x,1/2+y,1/2-z
1/2-x,1/2-y,-z
1/2+x,1/2-y,1/2+z
loop_
_atom_site_type_symbol
_atom_site_label
_atom_site_fract_x
_atom_site_fract_y
_atom_site_fract_z
Si Si1 0.514012 0.433730 0.165537
Si Si2 0.642646 0.202461 0.174519
Si Si3 0.971300 0.730375 0.309056
Si Si4 0.856860 0.072663 0.265331
Si Si5 0.500000 0.119991 0.750000
Si Si6 0.598873 0.767088 0.244864
Si Si7 0.162035 0.470586 0.597004
Si Si8 0.194563 0.327503 0.204095
O O1 0.500000 0.472921 0.250000
O O2 0.553345 0.333949 0.238468
O O3 0.595550 0.492780 0.225599
O O4 0.415036 0.427037 0.951515
O O5 0.622839 0.198779 0.258280
O O6 0.684785 0.106509 0.204770
O O7 0.715712 0.277392 0.229087
O O8 0.523587 0.218738 0.964833
O O9 0.084445 0.720183 0.520445
O O10 0.000000 0.687290 0.250000
O O11 0.878549 0.163472 0.240419
O O12 0.736733 0.050743 0.115929
O O13 0.411855 0.186761 0.668380
O O14 0.455293 0.053884 0.606296
O O15 0.688590 0.814881 0.308583
O O16 0.183698 0.569167 0.663262
#
# Coordination Sequence:
#
# PCOD9277454 Si02
#       8
#     8   8   8   8   4   8   8   8
#     4  10  21  38  65  98 132 166 218 275 342 402
#     4  10  20  41  63  91 123 171 215 260 334 387
#     4  10  21  38  61  88 129 163 209 273 320 386
#     4  11  21  42  65  98 132 171 221 284 340 391
#     4  10  26  44  62  98 134 176 234 268 326 412
#     4  10  22  43  67  93 131 173 217 282 329 391
#     4  11  24  42  67  93 135 175 227 269 328 403
#     4  11  22  41  66  93 123 178 215 267 339 387
#
# _framework density 22.222957999999998
#
# number of rings (size 3 to 8) (size 9 to 14) (size 15 to 20)
#    0.000    1.600    4.000    0.800    3.733    5.867 
#    2.400    0.000    0.000    0.000    0.000    0.000 
#    0.000    0.000    0.000    0.000    0.000    0.000 
#
# Total GULP energy -167230.832561 kJ/mol
# GULP energy per Si atom -5574.361085 kJ/mol
# Density = 2.217238 g / cm^3
# Si number density = 22.222958 Si / 1000 Ang^3
#
#
#
# Elastic Constant Matrix: (Units=GPa)
#
#
# Indices 1 2 3 4 5 6 
#
# 1 138.4101 56.9244 18.9426 0.0000 9.9327 0.0000
# 2 56.9244 152.6535 11.6652 0.0000 18.7981 0.0000
# 3 18.9426 11.6652 21.3584 0.0000 9.4877 0.0000
# 4 0.0000 0.0000 0.0000 -129.2715 0.0000 -7.5895
# 5 9.9327 18.7981 9.4877 0.0000 33.5398 0.0000
# 6 0.0000 0.0000 0.0000 -7.5895 0.0000 32.1976
#
#
#
# Elastic Compliance Matrix: (Units=1/GPa)
#
#
# Indices 1 2 3 4 5 6 
#
# 1 0.009390 -0.003078 -0.007066 0.000000 0.000943 0.000000
# 2 -0.003078 0.008154 -0.000113 0.000000 -0.003627 0.000000
# 3 -0.007066 -0.000113 0.059691 0.000000 -0.014730 0.000000
# 4 0.000000 0.000000 0.000000 -0.007630 0.000000 -0.001799
# 5 0.000943 -0.003627 -0.014730 0.000000 0.035735 0.000000
# 6 0.000000 0.000000 0.000000 -0.001799 0.000000 0.030634
#
#
# Mechanical properties :
#
#
# Convention : Reuss Voigt Hill
#
# Bulk Modulus (GPa) = 17.62970 54.16514 35.89742
# Shear Modulus (GPa) = 28.50717 2.28585 15.39651
#
# Velocity S-wave (km/s) = 3.58548 1.01530 2.63500
# Velocity P-wave (km/s) = 5.00911 5.07945 5.04441
#
# Compressibility (1/GPa) = 0.05672245
#
# Stress axis : x y z
#
# Youngs Moduli (GPa) = 106.49577 122.64442 16.75287
#
# Poissons Ratio (x) = 0.37746 0.11837
# Poissons Ratio (y) = 0.32776 0.00189
# Poissons Ratio (z) = 0.75249 0.01382
#
# Static dielectric constant tensor:
#      x y z
#    x 1.971080 0.000000 -0.122130 
#    y 0.000000 1.778890 0.000000 
#    z -0.122130 0.000000 1.964680 
# 
# From -- ./inp_files/168641.got.cif
#   From: 2010.05.17/outbox.cif.g08.bks.cpg/sg15_85_cif.got.tgz:168641.got - 2010.06.03 18:47:42.
