data_PCOD9277398
_publ_section_title
;
Structure prediction by ZEFSAII (Michael W. Deem and Ramdas Pophale) SiO2 
 PCOD9277398
Probable space group: C 2/C
;
_chemical_formula_sum "Si O2"
_cell_formula_units_Z 44
_cell_length_a 23.147413
_cell_length_b 15.510979
_cell_length_c 15.269977
_cell_angle_alpha 90.000000
_cell_angle_beta 22.963600
_cell_angle_gamma 90.000000
_cell_volume 2138.983791
_symmetry_space_group_name_H-M "C 2/C"
_symmetry_group_IT_number 15
_symmetry_cell_setting 'monoclinic'
loop_
_space_group_symop_operation_xyz
x,y,z
-x,y,1/2-z
-x,-y,-z
x,-y,1/2+z
1/2+x,1/2+y,z
1/2-x,1/2+y,1/2-z
1/2-x,1/2-y,-z
1/2+x,1/2-y,1/2+z
loop_
_atom_site_type_symbol
_atom_site_label
_atom_site_fract_x
_atom_site_fract_y
_atom_site_fract_z
Si Si1 0.330578 0.853895 0.520663
Si Si2 0.990647 0.446843 0.423823
Si Si3 0.000000 0.034528 0.250000
Si Si4 0.610361 0.887664 0.531212
Si Si5 0.765695 0.659150 0.829565
Si Si6 0.130126 0.991651 0.247335
O O1 0.346618 0.891731 0.597456
O O2 0.278859 0.756531 0.588792
O O3 0.220573 0.918455 0.625632
O O4 0.500000 0.859978 0.250000
O O5 0.982873 0.526014 0.366340
O O6 0.000000 0.500000 0.500000
O O7 0.119400 0.377560 0.259500
O O8 0.071031 0.981707 0.231132
O O9 0.875361 0.096001 0.467380
O O10 0.661154 0.845922 0.369031
O O11 0.757043 0.918500 0.377304
O O12 0.500000 0.837606 0.750000
O O13 0.000000 0.000000 0.500000
#
# Coordination Sequence:
#
# PCOD9277398 Si02
#       6
#     8   8   4   8   8   8
#     4  11  23  39  62  93 127 161 208 266 325 375
#     4   9  20  37  59  87 118 166 210 250 311 381
#     4  12  22  36  60  96 130 160 204 262 328 362
#     4  10  20  41  62  86 125 174 216 258 308 380
#     4  11  22  35  64  92 127 165 209 263 319 377
#     4  11  23  40  63  94 130 162 212 268 317 376
#
# _framework density 20.570516999999999
#
# number of rings (size 3 to 8) (size 9 to 14) (size 15 to 20)
#    0.000    1.455    2.727    4.364    2.545    1.455 
#    0.000    0.000    2.000    5.455    0.000    0.000 
#    0.000    0.000    0.000    0.000    0.000    0.000 
#
# Total GULP energy -122720.895857 kJ/mol
# GULP energy per Si atom -5578.222539 kJ/mol
# Density = 2.052370 g / cm^3
# Si number density = 20.570517 Si / 1000 Ang^3
#
#
#
# Elastic Constant Matrix: (Units=GPa)
#
#
# Indices 1 2 3 4 5 6 
#
# 1 160.3156 12.4089 34.1883 0.0000 -0.4689 0.0000
# 2 12.4089 48.8996 2.3372 0.0000 -2.8483 0.0000
# 3 34.1883 2.3372 112.4025 0.0000 17.9564 0.0000
# 4 0.0000 0.0000 0.0000 25.7661 0.0000 -7.7189
# 5 -0.4689 -2.8483 17.9564 0.0000 34.5332 0.0000
# 6 0.0000 0.0000 0.0000 -7.7189 0.0000 15.2349
#
#
#
# Elastic Compliance Matrix: (Units=1/GPa)
#
#
# Indices 1 2 3 4 5 6 
#
# 1 0.006837 -0.001563 -0.002226 0.000000 0.001121 0.000000
# 2 -0.001563 0.020966 -0.000254 0.000000 0.001840 0.000000
# 3 -0.002226 -0.000254 0.010456 0.000000 -0.005488 0.000000
# 4 0.000000 0.000000 0.000000 0.045756 0.000000 0.023182
# 5 0.001121 0.001840 -0.005488 0.000000 0.031978 0.000000
# 6 0.000000 0.000000 0.000000 0.023182 0.000000 0.077384
#
#
# Mechanical properties :
#
#
# Convention : Reuss Voigt Hill
#
# Bulk Modulus (GPa) = 33.14446 46.60961 39.87703
# Shear Modulus (GPa) = 23.63830 33.28572 28.46201
#
# Velocity S-wave (km/s) = 3.39357 4.02696 3.72375
# Velocity P-wave (km/s) = 5.61272 6.65804 6.15760
#
# Compressibility (1/GPa) = 0.03017095
#
# Stress axis : x y z
#
# Youngs Moduli (GPa) = 146.26941 47.69603 95.64175
#
# Poissons Ratio (x) = 0.07456 0.21291
# Poissons Ratio (y) = 0.22865 0.02434
# Poissons Ratio (z) = 0.32561 0.01214
#
# Static dielectric constant tensor:
#      x y z
#    x 1.785380 0.000000 0.036730 
#    y 0.000000 1.699640 0.000000 
#    z 0.036730 0.000000 1.798020 
# 
# From -- ./inp_files/174187.got.cif
#   From: 2010.05.17/outbox.cif.g08.bks.cpg/sg15_88_cif.got.tgz:174187.got - 2010.06.03 18:47:42.
