data_PCOD9277609
_publ_section_title
;
Structure prediction by ZEFSAII (Michael W. Deem and Ramdas Pophale) SiO2 
 PCOD9277609
Probable space group: C 2/C
;
_chemical_formula_sum "Si O2"
_cell_formula_units_Z 56
_cell_length_a 22.233501
_cell_length_b 9.122384
_cell_length_c 15.356286
_cell_angle_alpha 90.000000
_cell_angle_beta 67.351470
_cell_angle_gamma 90.000000
_cell_volume 2874.416476
_symmetry_space_group_name_H-M "C 2/C"
_symmetry_group_IT_number 15
_symmetry_cell_setting 'monoclinic'
loop_
_space_group_symop_operation_xyz
x,y,z
-x,y,1/2-z
-x,-y,-z
x,-y,1/2+z
1/2+x,1/2+y,z
1/2-x,1/2+y,1/2-z
1/2-x,1/2-y,-z
1/2+x,1/2-y,1/2+z
loop_
_atom_site_type_symbol
_atom_site_label
_atom_site_fract_x
_atom_site_fract_y
_atom_site_fract_z
Si Si1 0.420193 0.007808 0.639801
Si Si2 0.796144 0.651501 0.764007
Si Si3 0.179240 0.193916 0.073751
Si Si4 0.566157 0.107590 0.561556
Si Si5 0.163266 0.851688 0.061186
Si Si6 0.424588 0.847517 0.812278
Si Si7 0.748911 0.341298 0.858750
O O1 0.356861 0.107623 0.670163
O O2 0.487122 0.099301 0.622644
O O3 0.428691 0.925095 0.543943
O O4 0.400464 0.899454 0.730610
O O5 0.823995 0.748285 0.826388
O O6 0.763223 0.508301 0.824666
O O7 0.749244 0.744919 0.728956
O O8 0.115681 0.260382 0.059105
O O9 0.180032 0.018434 0.072706
O O10 0.250000 0.250000 0.000000
O O11 0.591375 0.972952 0.607639
O O12 0.092473 0.805832 0.132984
O O13 0.202359 0.732173 0.098302
O O14 0.181362 0.833290 0.950373
O O15 0.500000 0.847216 0.750000
#
# Coordination Sequence:
#
# PCOD9277609 Si02
#       7
#     8   8   8   8   8   8   8
#     4  10  21  39  69  91 121 168 216 259 312 390
#     4  12  23  40  62  95 123 168 219 259 326 392
#     4  12  25  40  62  94 130 170 214 266 326 388
#     4  10  22  41  66  92 126 163 216 267 317 383
#     4  11  23  42  60  92 130 171 202 270 335 371
#     4  10  20  41  66  91 121 166 214 258 315 387
#     4  11  24  38  65  91 131 165 210 268 325 391
#
# _framework density 19.482213999999999
#
# number of rings (size 3 to 8) (size 9 to 14) (size 15 to 20)
#    0.000    1.143    4.286    1.714    6.000    0.000 
#    5.143    0.000    0.000    3.429    0.000    0.000 
#    0.000    0.000    0.000    0.000    0.000    0.000 
#
# Total GULP energy -155947.008705 kJ/mol
# GULP energy per Si atom -5569.536025 kJ/mol
# Density = 1.943787 g / cm^3
# Si number density = 19.482214 Si / 1000 Ang^3
#
#
#
# Elastic Constant Matrix: (Units=GPa)
#
#
# Indices 1 2 3 4 5 6 
#
# 1 36.7035 8.7478 12.2610 0.0000 10.4852 0.0000
# 2 8.7478 110.5453 41.2205 0.0000 6.2778 0.0000
# 3 12.2610 41.2205 79.8795 0.0000 6.8452 0.0000
# 4 0.0000 0.0000 0.0000 23.1165 0.0000 5.1862
# 5 10.4852 6.2778 6.8452 0.0000 31.3779 0.0000
# 6 0.0000 0.0000 0.0000 5.1862 0.0000 25.9475
#
#
#
# Elastic Compliance Matrix: (Units=1/GPa)
#
#
# Indices 1 2 3 4 5 6 
#
# 1 0.031345 -0.000556 -0.003706 0.000000 -0.009555 0.000000
# 2 -0.000556 0.011242 -0.005645 0.000000 -0.000832 0.000000
# 3 -0.003706 -0.005645 0.016099 0.000000 -0.001144 0.000000
# 4 0.000000 0.000000 0.000000 0.045290 0.000000 -0.009052
# 5 -0.009555 -0.000832 -0.001144 0.000000 0.035479 0.000000
# 6 0.000000 0.000000 0.000000 -0.009052 0.000000 0.040349
#
#
# Mechanical properties :
#
#
# Convention : Reuss Voigt Hill
#
# Bulk Modulus (GPa) = 25.72461 39.06522 32.39492
# Shear Modulus (GPa) = 23.52127 27.08164 25.30146
#
# Velocity S-wave (km/s) = 3.47842 3.73241 3.60765
# Velocity P-wave (km/s) = 5.41898 6.21850 5.83246
#
# Compressibility (1/GPa) = 0.03887328
#
# Stress axis : x y z
#
# Youngs Moduli (GPa) = 31.90274 88.95131 62.11752
#
# Poissons Ratio (x) = 0.04947 0.23018
# Poissons Ratio (y) = 0.01774 0.35063
# Poissons Ratio (z) = 0.11822 0.50210
#
# Static dielectric constant tensor:
#      x y z
#    x 1.827850 0.000000 -0.051710 
#    y 0.000000 1.673580 0.000000 
#    z -0.051710 0.000000 1.759850 
# 
# From -- ./inp_files/171787.got.cif
#   From: 2010.05.17/outbox.cif.g08.bks.cpg/sg15_86_cif.got.tgz:171787.got - 2010.06.03 18:47:42.
