data_PCOD9277565
_publ_section_title
;
Structure prediction by ZEFSAII (Michael W. Deem and Ramdas Pophale) SiO2 
 PCOD9277565
Probable space group: C 2/C
;
_chemical_formula_sum "Si O2"
_cell_formula_units_Z 40
_cell_length_a 10.135595
_cell_length_b 18.716294
_cell_length_c 11.002543
_cell_angle_alpha 90.000000
_cell_angle_beta 55.361501
_cell_angle_gamma 90.000000
_cell_volume 1717.246011
_symmetry_space_group_name_H-M "C 2/C"
_symmetry_group_IT_number 15
_symmetry_cell_setting 'monoclinic'
loop_
_space_group_symop_operation_xyz
x,y,z
-x,y,1/2-z
-x,-y,-z
x,-y,1/2+z
1/2+x,1/2+y,z
1/2-x,1/2+y,1/2-z
1/2-x,1/2-y,-z
1/2+x,1/2-y,1/2+z
loop_
_atom_site_type_symbol
_atom_site_label
_atom_site_fract_x
_atom_site_fract_y
_atom_site_fract_z
Si Si1 0.685814 0.136713 0.934364
Si Si2 0.312257 0.210231 0.810041
Si Si3 0.219333 0.491074 0.804279
Si Si4 0.500000 0.567183 0.750000
Si Si5 0.500000 0.902091 0.750000
Si Si6 0.678609 0.637795 0.099774
O O1 0.694196 0.196496 0.828911
O O2 0.864695 0.115594 0.881714
O O3 0.368563 0.936929 0.105836
O O4 0.572532 0.145986 0.106507
O O5 0.500000 0.203105 0.750000
O O6 0.254368 0.289299 0.875183
O O7 0.205922 0.153960 0.943095
O O8 0.403225 0.519538 0.703095
O O9 0.230284 0.432245 0.904812
O O10 0.137715 0.453482 0.733380
O O11 0.500000 0.632978 0.250000
#
# Coordination Sequence:
#
# PCOD9277565 Si02
#       6
#     8   8   8   4   4   8
#     4  10  23  39  59  96 127 170 205 267 308 384
#     4  10  22  38  66  91 127 160 214 268 312 370
#     4  10  22  40  61  93 125 169 211 269 304 391
#     4   8  22  38  59  87 132 162 214 258 320 350
#     4  12  24  36  63  93 136 166 214 246 338 358
#     4  10  20  41  65  93 117 168 215 260 314 377
#
# _framework density 23.293109999999999
#
# number of rings (size 3 to 8) (size 9 to 14) (size 15 to 20)
#    1.200    0.800    1.000    1.800    4.200    2.400 
#    0.000    2.000    0.000    0.000    0.000    0.000 
#    0.000    0.000    0.000    0.000    0.000    0.000 
#
# Total GULP energy -111605.852029 kJ/mol
# GULP energy per Si atom -5580.292601 kJ/mol
# Density = 2.324009 g / cm^3
# Si number density = 23.293110 Si / 1000 Ang^3
#
#
#
# Elastic Constant Matrix: (Units=GPa)
#
#
# Indices 1 2 3 4 5 6 
#
# 1 81.8840 -15.2314 32.1095 0.0000 -13.7606 0.0000
# 2 -15.2314 31.1336 -4.6604 0.0000 9.9012 0.0000
# 3 32.1095 -4.6604 128.7932 0.0000 7.1992 0.0000
# 4 0.0000 0.0000 0.0000 9.2492 0.0000 -1.6052
# 5 -13.7606 9.9012 7.1992 0.0000 37.7154 0.0000
# 6 0.0000 0.0000 0.0000 -1.6052 0.0000 -11.2512
#
#
#
# Elastic Compliance Matrix: (Units=1/GPa)
#
#
# Indices 1 2 3 4 5 6 
#
# 1 0.015634 0.005452 -0.003982 0.000000 0.005033 0.000000
# 2 0.005452 0.037365 0.000435 0.000000 -0.007903 0.000000
# 3 -0.003982 0.000435 0.008956 0.000000 -0.003276 0.000000
# 4 0.000000 0.000000 0.000000 0.105505 0.000000 -0.015053
# 5 0.005033 -0.007903 -0.003276 0.000000 0.031051 0.000000
# 6 0.000000 0.000000 0.000000 -0.015053 0.000000 -0.086732
#
#
# Mechanical properties :
#
#
# Convention : Reuss Voigt Hill
#
# Bulk Modulus (GPa) = 15.20580 29.58291 22.39436
# Shear Modulus (GPa) = 38.49403 22.44889 30.47146
#
# Velocity S-wave (km/s) = 4.06962 3.10781 3.62079
# Velocity P-wave (km/s) = 5.35020 5.06022 5.20723
#
# Compressibility (1/GPa) = 0.06576438
#
# Stress axis : x y z
#
# Youngs Moduli (GPa) = 63.96477 26.76284 111.65792
#
# Poissons Ratio (x) = -0.14591 0.44458
# Poissons Ratio (y) = -0.34873 -0.04853
# Poissons Ratio (z) = 0.25469 -0.01163
#
# Static dielectric constant tensor:
#      x y z
#    x 1.899630 0.000000 -0.054770 
#    y 0.000000 1.877670 0.000000 
#    z -0.054770 0.000000 1.929590 
# 
# From -- ./inp_files/89361.got.cif
#   From: 2010.05.17/outbox.cif.g08.bks.cpg/sg15_45_cif.got.tgz:89361.got - 2010.06.03 18:47:42.
