data_PCOD9277991
_publ_section_title
;
Structure prediction by ZEFSAII (Michael W. Deem and Ramdas Pophale) SiO2 
 PCOD9277991
Probable space group: C 2/C
;
_chemical_formula_sum "Si O2"
_cell_formula_units_Z 44
_cell_length_a 21.474636
_cell_length_b 10.555659
_cell_length_c 7.499876
_cell_angle_alpha 90.000000
_cell_angle_beta 98.418597
_cell_angle_gamma 90.000000
_cell_volume 1681.745485
_symmetry_space_group_name_H-M "C 2/C"
_symmetry_group_IT_number 15
_symmetry_cell_setting 'monoclinic'
loop_
_space_group_symop_operation_xyz
x,y,z
-x,y,1/2-z
-x,-y,-z
x,-y,1/2+z
1/2+x,1/2+y,z
1/2-x,1/2+y,1/2-z
1/2-x,1/2-y,-z
1/2+x,1/2-y,1/2+z
loop_
_atom_site_type_symbol
_atom_site_label
_atom_site_fract_x
_atom_site_fract_y
_atom_site_fract_z
Si Si1 0.500000 0.611321 0.750000
Si Si2 0.372220 0.472616 0.030337
Si Si3 0.917813 0.664121 0.253714
Si Si4 0.788658 0.221850 0.696104
Si Si5 0.162963 0.209969 0.316511
Si Si6 0.441112 0.882996 0.344741
O O1 0.553691 0.534711 0.880808
O O2 0.544972 0.711431 0.664162
O O3 0.326454 0.403973 0.154632
O O4 0.347657 0.616775 0.021690
O O5 0.362505 0.382851 0.854460
O O6 0.843647 0.676170 0.248579
O O7 0.941892 0.535107 0.347913
O O8 0.930667 0.659963 0.044800
O O9 0.750000 0.250000 0.500000
O O10 0.732837 0.240718 0.812272
O O11 0.118434 0.331183 0.290014
O O12 0.500000 0.838892 0.250000
#
# Coordination Sequence:
#
# PCOD9277991 Si02
#       6
#     4   8   8   8   8   8
#     4  10  20  42  64  88 128 170 206 252 324 358
#     4  10  23  41  67  90 131 167 210 265 307 382
#     4  11  23  41  68  92 126 170 204 271 306 382
#     4   9  19  43  68  85 129 167 210 251 325 363
#     4  11  24  43  65  97 125 171 210 261 317 373
#     4  12  25  41  64  98 127 165 214 260 321 373
#
# _framework density 26.163292999999999
#
# number of rings (size 3 to 8) (size 9 to 14) (size 15 to 20)
#    0.000    1.455    6.364    0.545    3.818    2.182 
#    3.273    0.909    0.000    0.000    0.000    0.000 
#    0.000    0.000    0.000    0.000    0.000    0.000 
#
# Total GULP energy -123042.773023 kJ/mol
# GULP energy per Si atom -5592.853319 kJ/mol
# Density = 2.610374 g / cm^3
# Si number density = 26.163293 Si / 1000 Ang^3
#
#
#
# Elastic Constant Matrix: (Units=GPa)
#
#
# Indices 1 2 3 4 5 6 
#
# 1 266.8937 35.1339 31.6432 0.0000 2.2203 0.0000
# 2 35.1339 77.0550 4.7695 0.0000 -6.8151 0.0000
# 3 31.6432 4.7695 101.1887 0.0000 -15.7648 0.0000
# 4 0.0000 0.0000 0.0000 35.0588 0.0000 -4.4413
# 5 2.2203 -6.8151 -15.7648 0.0000 36.6934 0.0000
# 6 0.0000 0.0000 0.0000 -4.4413 0.0000 43.2956
#
#
#
# Elastic Compliance Matrix: (Units=1/GPa)
#
#
# Indices 1 2 3 4 5 6 
#
# 1 0.004177 -0.001925 -0.001405 0.000000 -0.001214 0.000000
# 2 -0.001925 0.014088 0.000390 0.000000 0.002900 0.000000
# 3 -0.001405 0.000390 0.011069 0.000000 0.004913 0.000000
# 4 0.000000 0.000000 0.000000 0.028899 0.000000 0.002964
# 5 -0.001214 0.002900 0.004913 0.000000 0.029976 0.000000
# 6 0.000000 0.000000 0.000000 0.002964 0.000000 0.023401
#
#
# Mechanical properties :
#
#
# Convention : Reuss Voigt Hill
#
# Bulk Modulus (GPa) = 42.63622 65.35895 53.99759
# Shear Modulus (GPa) = 39.90212 47.91561 43.90887
#
# Velocity S-wave (km/s) = 3.90951 4.28414 4.10110
# Velocity P-wave (km/s) = 6.05893 7.03613 6.56574
#
# Compressibility (1/GPa) = 0.02345424
#
# Stress axis : x y z
#
# Youngs Moduli (GPa) = 239.41686 70.98335 90.34424
#
# Poissons Ratio (x) = 0.13663 0.12689
# Poissons Ratio (y) = 0.46084 -0.03521
# Poissons Ratio (z) = 0.33626 -0.02767
#
# Static dielectric constant tensor:
#      x y z
#    x 2.021100 0.000000 0.011510 
#    y 0.000000 2.030070 0.000000 
#    z 0.011510 0.000000 2.261680 
# 
# From -- ./inp_files/54486.got.cif
#   From: 2010.05.17/outbox.cif.g08.bks.cpg/sg15_28_cif.got.tgz:54486.got - 2010.06.03 18:47:42.
