data_PCOD9277000
_publ_section_title
;
Structure prediction by ZEFSAII (Michael W. Deem and Ramdas Pophale) SiO2 
 PCOD9277000
Probable space group: C 2/C
;
_chemical_formula_sum "Si O2"
_cell_formula_units_Z 60
_cell_length_a 23.605953
_cell_length_b 7.850921
_cell_length_c 17.693662
_cell_angle_alpha 90.000000
_cell_angle_beta 111.514231
_cell_angle_gamma 90.000000
_cell_volume 3050.670258
_symmetry_space_group_name_H-M "C 2/C"
_symmetry_group_IT_number 15
_symmetry_cell_setting 'monoclinic'
loop_
_space_group_symop_operation_xyz
x,y,z
-x,y,1/2-z
-x,-y,-z
x,-y,1/2+z
1/2+x,1/2+y,z
1/2-x,1/2+y,1/2-z
1/2-x,1/2-y,-z
1/2+x,1/2-y,1/2+z
loop_
_atom_site_type_symbol
_atom_site_label
_atom_site_fract_x
_atom_site_fract_y
_atom_site_fract_z
Si Si1 0.222996 0.718409 0.166052
Si Si2 0.630060 0.635727 0.513823
Si Si3 0.951962 0.677098 0.896150
Si Si4 0.283601 0.512444 0.567992
Si Si5 0.073521 0.505552 0.454985
Si Si6 0.830872 0.572487 0.762260
Si Si7 0.676382 0.112767 0.399940
Si Si8 0.000000 0.000000 0.500000
O O1 0.181738 0.857526 0.103696
O O2 0.259631 0.613207 0.120380
O O3 0.179582 0.589611 0.189246
O O4 0.273059 0.804461 0.243707
O O5 0.661274 0.565135 0.453619
O O6 0.609193 0.830822 0.490468
O O7 0.572086 0.531750 0.513402
O O8 0.893494 0.663037 0.814908
O O9 0.979763 0.862282 0.923508
O O10 0.006188 0.550910 0.896008
O O11 0.934159 0.610129 0.971433
O O12 0.304128 0.695103 0.610123
O O13 0.227953 0.544211 0.482555
O O14 0.112850 0.608667 0.414113
O O15 0.829391 0.505284 0.675890
#
# Coordination Sequence:
#
# PCOD9277000 Si02
#       8
#     8   8   8   8   8   8   8   4
#     4  12  24  40  62  97 132 169 210 267 338 392
#     4  11  20  39  65  92 121 163 219 266 311 379
#     4  10  22  41  62  93 124 166 221 264 320 386
#     4  11  22  40  63  93 125 166 222 260 308 402
#     4  10  20  40  67  84 118 172 221 256 307 397
#     4  12  25  39  61  95 133 168 203 275 339 383
#     4  11  22  38  63  93 126 168 213 265 326 381
#     4  10  24  38  66  96 120 168 214 272 308 388
#
# _framework density 19.667808999999998
#
# number of rings (size 3 to 8) (size 9 to 14) (size 15 to 20)
#    0.000    1.067    4.000    2.800    1.867    2.667 
#    0.000    0.000    0.000    0.000    0.000    0.000 
#    0.000    0.000    0.000    0.000    0.000    0.000 
#
# Total GULP energy -167149.129179 kJ/mol
# GULP energy per Si atom -5571.637639 kJ/mol
# Density = 1.962304 g / cm^3
# Si number density = 19.667809 Si / 1000 Ang^3
#
#
#
# Elastic Constant Matrix: (Units=GPa)
#
#
# Indices 1 2 3 4 5 6 
#
# 1 113.5831 11.3407 19.8429 0.0000 7.1166 0.0000
# 2 11.3407 32.2868 16.8441 0.0000 9.3104 0.0000
# 3 19.8429 16.8441 55.7683 0.0000 20.0118 0.0000
# 4 0.0000 0.0000 0.0000 16.2339 0.0000 -6.8157
# 5 7.1166 9.3104 20.0118 0.0000 35.4810 0.0000
# 6 0.0000 0.0000 0.0000 -6.8157 0.0000 25.6831
#
#
#
# Elastic Compliance Matrix: (Units=1/GPa)
#
#
# Indices 1 2 3 4 5 6 
#
# 1 0.009483 -0.001891 -0.002882 0.000000 0.000219 0.000000
# 2 -0.001891 0.037659 -0.009142 0.000000 -0.004347 0.000000
# 3 -0.002882 -0.009142 0.025889 0.000000 -0.011625 0.000000
# 4 0.000000 0.000000 0.000000 0.069323 0.000000 0.018397
# 5 0.000219 -0.004347 -0.011625 0.000000 0.035837 0.000000
# 6 0.000000 0.000000 0.000000 0.018397 0.000000 0.043818
#
#
# Mechanical properties :
#
#
# Convention : Reuss Voigt Hill
#
# Bulk Modulus (GPa) = 22.12271 33.07708 27.59990
# Shear Modulus (GPa) = 18.87459 25.72030 22.29744
#
# Velocity S-wave (km/s) = 3.10121 3.62019 3.37070
# Velocity P-wave (km/s) = 4.90876 5.85907 5.40484
#
# Compressibility (1/GPa) = 0.04520241
#
# Stress axis : x y z
#
# Youngs Moduli (GPa) = 105.45652 26.55386 38.62582
#
# Poissons Ratio (x) = 0.05020 0.11131
# Poissons Ratio (y) = 0.19938 0.35312
# Poissons Ratio (z) = 0.30389 0.24276
#
# Static dielectric constant tensor:
#      x y z
#    x 1.681570 0.000000 0.010930 
#    y 0.000000 1.707210 0.000000 
#    z 0.010930 0.000000 1.666210 
# 
# From -- ./inp_files/213964.got.cif
#   From: 2010.05.17/outbox.cif.g08.bks.cpg/sg15_107_cif.got.tgz:213964.got - 2010.06.03 18:47:42.
