data_PCOD9277628
_publ_section_title
;
Structure prediction by ZEFSAII (Michael W. Deem and Ramdas Pophale) SiO2 
 PCOD9277628
Probable space group: C 2/C
;
_chemical_formula_sum "Si O2"
_cell_formula_units_Z 48
_cell_length_a 21.549357
_cell_length_b 11.456275
_cell_length_c 14.992331
_cell_angle_alpha 90.000000
_cell_angle_beta 142.866181
_cell_angle_gamma 90.000000
_cell_volume 2234.357855
_symmetry_space_group_name_H-M "C 2/C"
_symmetry_group_IT_number 15
_symmetry_cell_setting 'monoclinic'
loop_
_space_group_symop_operation_xyz
x,y,z
-x,y,1/2-z
-x,-y,-z
x,-y,1/2+z
1/2+x,1/2+y,z
1/2-x,1/2+y,1/2-z
1/2-x,1/2-y,-z
1/2+x,1/2-y,1/2+z
loop_
_atom_site_type_symbol
_atom_site_label
_atom_site_fract_x
_atom_site_fract_y
_atom_site_fract_z
Si Si1 0.775133 0.128940 0.577318
Si Si2 0.442344 0.074312 0.093495
Si Si3 0.480623 0.835850 0.081237
Si Si4 0.861347 0.248758 0.085872
Si Si5 0.901712 0.986653 0.078507
Si Si6 0.489779 0.684623 0.913243
O O1 0.750000 0.250000 0.500000
O O2 0.678518 0.084883 0.523235
O O3 0.803473 0.051886 0.523239
O O4 0.875767 0.142374 0.755015
O O5 0.500000 0.041095 0.250000
O O6 0.478109 0.204601 0.109963
O O7 0.482521 0.975533 0.071236
O O8 0.373457 0.828477 0.013048
O O9 0.565405 0.792927 0.250261
O O10 0.488316 0.745753 0.008606
O O11 0.894834 0.125203 0.080570
O O12 0.750000 0.250000 0.000000
O O13 0.000000 0.948602 0.250000
O O14 0.928713 0.920222 0.016784
#
# Coordination Sequence:
#
# PCOD9277628 Si02
#       6
#     8   8   8   8   8   8
#     4  11  21  39  67  98 127 174 224 267 337 403
#     4  12  21  42  69  97 137 182 222 277 338 413
#     4  11  25  44  65  98 139 175 223 281 340 400
#     4  11  23  44  68  91 132 184 223 263 345 409
#     4  10  20  41  66  94 128 171 223 272 326 403
#     4  11  24  40  68 101 134 167 226 290 334 392
#
# _framework density 21.482682
#
# number of rings (size 3 to 8) (size 9 to 14) (size 15 to 20)
#    0.000    1.000    6.667    2.000    0.000    2.000 
#    0.000    1.667    0.000    0.000    0.000    0.000 
#    0.000    0.000    0.000    0.000    0.000    0.000 
#
# Total GULP energy -133662.935850 kJ/mol
# GULP energy per Si atom -5569.288994 kJ/mol
# Density = 2.143379 g / cm^3
# Si number density = 21.482682 Si / 1000 Ang^3
#
#
#
# Elastic Constant Matrix: (Units=GPa)
#
#
# Indices 1 2 3 4 5 6 
#
# 1 131.2709 43.8972 61.7871 0.0000 -5.0741 0.0000
# 2 43.8972 134.6152 30.8300 0.0000 4.5863 0.0000
# 3 61.7871 30.8300 57.2182 0.0000 8.1646 0.0000
# 4 0.0000 0.0000 0.0000 13.5591 0.0000 9.2865
# 5 -5.0741 4.5863 8.1646 0.0000 28.8606 0.0000
# 6 0.0000 0.0000 0.0000 9.2865 0.0000 22.4047
#
#
#
# Elastic Compliance Matrix: (Units=1/GPa)
#
#
# Indices 1 2 3 4 5 6 
#
# 1 0.017664 -0.001602 -0.019477 0.000000 0.008870 0.000000
# 2 -0.001602 0.008620 -0.002792 0.000000 -0.000861 0.000000
# 3 -0.019477 -0.002792 0.042140 0.000000 -0.014902 0.000000
# 4 0.000000 0.000000 0.000000 0.102987 0.000000 -0.042687
# 5 0.008870 -0.000861 -0.014902 0.000000 0.040561 0.000000
# 6 0.000000 0.000000 0.000000 -0.042687 0.000000 0.062327
#
#
# Mechanical properties :
#
#
# Convention : Reuss Voigt Hill
#
# Bulk Modulus (GPa) = 48.35063 66.23701 57.29382
# Shear Modulus (GPa) = 15.20065 25.40422 20.30244
#
# Velocity S-wave (km/s) = 2.66292 3.44254 3.07752
# Velocity P-wave (km/s) = 5.65778 6.83383 6.27342
#
# Compressibility (1/GPa) = 0.02068225
#
# Stress axis : x y z
#
# Youngs Moduli (GPa) = 56.61315 116.01435 23.73049
#
# Poissons Ratio (x) = 0.18581 0.46220
# Poissons Ratio (y) = 0.09067 0.06626
# Poissons Ratio (z) = 1.10265 0.32391
#
# Static dielectric constant tensor:
#      x y z
#    x 1.866730 0.000000 0.010170 
#    y 0.000000 2.105150 0.000000 
#    z 0.010170 0.000000 1.778050 
# 
# From -- ./inp_files/167853.got.cif
#   From: 2010.05.17/outbox.cif.g08.bks.cpg/sg15_84_cif.got.tgz:167853.got - 2010.06.03 18:47:42.
