data_PCOD9277079
_publ_section_title
;
Structure prediction by ZEFSAII (Michael W. Deem and Ramdas Pophale) SiO2 
 PCOD9277079
Probable space group: C 2/C
;
_chemical_formula_sum "Si O2"
_cell_formula_units_Z 52
_cell_length_a 15.303286
_cell_length_b 12.051907
_cell_length_c 14.462088
_cell_angle_alpha 90.000000
_cell_angle_beta 68.838211
_cell_angle_gamma 90.000000
_cell_volume 2487.427712
_symmetry_space_group_name_H-M "C 2/C"
_symmetry_group_IT_number 15
_symmetry_cell_setting 'monoclinic'
loop_
_space_group_symop_operation_xyz
x,y,z
-x,y,1/2-z
-x,-y,-z
x,-y,1/2+z
1/2+x,1/2+y,z
1/2-x,1/2+y,1/2-z
1/2-x,1/2-y,-z
1/2+x,1/2-y,1/2+z
loop_
_atom_site_type_symbol
_atom_site_label
_atom_site_fract_x
_atom_site_fract_y
_atom_site_fract_z
Si Si1 0.000000 0.532488 0.250000
Si Si2 0.962665 0.846362 0.971816
Si Si3 0.686170 0.867367 0.632196
Si Si4 0.601374 0.488936 0.681549
Si Si5 0.721996 0.141488 0.907309
Si Si6 0.859077 0.986399 0.624011
Si Si7 0.474956 0.096222 0.580318
O O1 0.909505 0.609926 0.279452
O O2 0.985816 0.450637 0.340105
O O3 0.923305 0.898783 0.889174
O O4 0.980366 0.715617 0.959859
O O5 0.064172 0.903288 0.949640
O O6 0.897070 0.892727 0.079174
O O7 0.674018 0.849425 0.526801
O O8 0.740354 0.758128 0.643436
O O9 0.757012 0.967827 0.622656
O O10 0.500000 0.540436 0.750000
O O11 0.684970 0.567423 0.615387
O O12 0.639359 0.455003 0.768398
O O13 0.638237 0.102578 0.873769
O O14 0.500000 0.000000 0.500000
#
# Coordination Sequence:
#
# PCOD9277079 Si02
#       7
#     4   8   8   8   8   8   8
#     4  12  28  44  70  98 142 184 242 274 358 418
#     4  10  22  41  70 101 137 180 230 290 340 412
#     4  11  23  42  68  98 135 186 230 288 347 418
#     4  10  22  38  68 103 133 176 240 281 340 411
#     4  11  23  43  68  96 141 177 229 289 351 406
#     4  10  20  40  68 101 133 179 234 284 346 404
#     4  12  26  47  68 102 143 187 226 290 352 414
#
# _framework density 20.90513
#
# number of rings (size 3 to 8) (size 9 to 14) (size 15 to 20)
#    0.000    1.231    4.615    0.923    4.308    1.231 
#    0.000    3.077    0.000    0.000    0.000    0.000 
#    0.000    0.000    0.000    0.000    0.000    0.000 
#
# Total GULP energy -145029.379020 kJ/mol
# GULP energy per Si atom -5578.053039 kJ/mol
# Density = 2.085755 g / cm^3
# Si number density = 20.905130 Si / 1000 Ang^3
#
#
#
# Elastic Constant Matrix: (Units=GPa)
#
#
# Indices 1 2 3 4 5 6 
#
# 1 70.0253 27.2930 9.0075 0.0000 -14.7043 0.0000
# 2 27.2930 116.7826 34.0425 0.0000 -18.0981 0.0000
# 3 9.0075 34.0425 42.3617 0.0000 6.2692 0.0000
# 4 0.0000 0.0000 0.0000 15.0818 0.0000 -4.3083
# 5 -14.7043 -18.0981 6.2692 0.0000 38.5602 0.0000
# 6 0.0000 0.0000 0.0000 -4.3083 0.0000 32.5552
#
#
#
# Elastic Compliance Matrix: (Units=1/GPa)
#
#
# Indices 1 2 3 4 5 6 
#
# 1 0.016696 -0.002263 -0.002578 0.000000 0.005724 0.000000
# 2 -0.002263 0.013604 -0.011546 0.000000 0.007399 0.000000
# 3 -0.002578 -0.011546 0.035228 0.000000 -0.012130 0.000000
# 4 0.000000 0.000000 0.000000 0.068910 0.000000 0.009120
# 5 0.005724 0.007399 -0.012130 0.000000 0.033561 0.000000
# 6 0.000000 0.000000 0.000000 0.009120 0.000000 0.031924
#
#
# Mechanical properties :
#
#
# Convention : Reuss Voigt Hill
#
# Bulk Modulus (GPa) = 30.53176 41.09508 35.81342
# Shear Modulus (GPa) = 20.52390 27.82787 24.17589
#
# Velocity S-wave (km/s) = 3.13671 3.65245 3.40436
# Velocity P-wave (km/s) = 5.26832 6.12273 5.71152
#
# Compressibility (1/GPa) = 0.03275278
#
# Stress axis : x y z
#
# Youngs Moduli (GPa) = 59.89353 73.50557 28.38613
#
# Poissons Ratio (x) = 0.16638 0.07319
# Poissons Ratio (y) = 0.13557 0.32776
# Poissons Ratio (z) = 0.15442 0.84873
#
# Static dielectric constant tensor:
#      x y z
#    x 1.767050 0.000000 0.009830 
#    y 0.000000 1.749400 0.000000 
#    z 0.009830 0.000000 1.792460 
# 
# From -- ./inp_files/152556.got.cif
#   From: 2010.05.17/outbox.cif.g08.bks.cpg/sg15_77_cif.got.tgz:152556.got - 2010.06.03 18:47:42.
