data_PCOD9277013
_publ_section_title
;
Structure prediction by ZEFSAII (Michael W. Deem and Ramdas Pophale) SiO2 
 PCOD9277013
Probable space group: C 2/C
;
_chemical_formula_sum "Si O2"
_cell_formula_units_Z 40
_cell_length_a 12.139533
_cell_length_b 24.006981
_cell_length_c 9.069453
_cell_angle_alpha 90.000000
_cell_angle_beta 131.681462
_cell_angle_gamma 90.000000
_cell_volume 1974.040111
_symmetry_space_group_name_H-M "C 2/C"
_symmetry_group_IT_number 15
_symmetry_cell_setting 'monoclinic'
loop_
_space_group_symop_operation_xyz
x,y,z
-x,y,1/2-z
-x,-y,-z
x,-y,1/2+z
1/2+x,1/2+y,z
1/2-x,1/2+y,1/2-z
1/2-x,1/2-y,-z
1/2+x,1/2-y,1/2+z
loop_
_atom_site_type_symbol
_atom_site_label
_atom_site_fract_x
_atom_site_fract_y
_atom_site_fract_z
Si Si1 0.139333 0.460780 0.265440
Si Si2 0.644066 0.362162 0.981208
Si Si3 0.698444 0.811575 0.636944
Si Si4 0.996682 0.784108 0.069824
Si Si5 0.567154 0.918640 0.662533
O O1 0.271538 0.420259 0.424832
O O2 0.166086 0.526973 0.285398
O O3 0.000000 0.452561 0.250000
O O4 0.073616 0.442113 0.050690
O O5 0.500000 0.368492 0.750000
O O6 0.748594 0.318936 0.984416
O O7 0.593410 0.335196 0.090079
O O8 0.565261 0.770286 0.552895
O O9 0.651981 0.873257 0.645222
O O10 0.833333 0.792333 0.860183
O O11 0.000000 0.780727 0.250000
O O12 0.500000 0.892642 0.750000
#
# Coordination Sequence:
#
# PCOD9277013 Si02
#       5
#     8   8   8   8   8
#     4  10  20  40  67  90 122 164 206 251 308 363
#     4  10  23  42  63  92 127 162 205 250 310 375
#     4  11  23  42  61  91 128 162 207 253 305 373
#     4  11  25  40  62  91 125 165 207 255 309 358
#     4  10  22  37  65  95 121 159 211 256 301 364
#
# _framework density 20.263013000000001
#
# number of rings (size 3 to 8) (size 9 to 14) (size 15 to 20)
#    0.000    1.600    2.000    1.800    5.600    0.000 
#    0.000    5.000    0.000    0.000    0.000    0.000 
#    0.000    0.000    0.000    0.000    0.000    0.000 
#
# Total GULP energy -111724.202983 kJ/mol
# GULP energy per Si atom -5586.210149 kJ/mol
# Density = 2.021689 g / cm^3
# Si number density = 20.263013 Si / 1000 Ang^3
#
#
#
# Elastic Constant Matrix: (Units=GPa)
#
#
# Indices 1 2 3 4 5 6 
#
# 1 72.2841 30.0716 13.3789 0.0000 -5.0524 0.0000
# 2 30.0716 111.3542 18.9635 0.0000 24.6503 0.0000
# 3 13.3789 18.9635 33.7046 0.0000 -2.9179 0.0000
# 4 0.0000 0.0000 0.0000 20.9690 0.0000 4.8942
# 5 -5.0524 24.6503 -2.9179 0.0000 25.7921 0.0000
# 6 0.0000 0.0000 0.0000 4.8942 0.0000 27.7186
#
#
#
# Elastic Compliance Matrix: (Units=1/GPa)
#
#
# Indices 1 2 3 4 5 6 
#
# 1 0.017605 -0.006350 -0.002617 0.000000 0.009221 0.000000
# 2 -0.006350 0.015874 -0.007909 0.000000 -0.017310 0.000000
# 3 -0.002617 -0.007909 0.036122 0.000000 0.011133 0.000000
# 4 0.000000 0.000000 0.000000 0.049739 0.000000 -0.008782
# 5 0.009221 -0.017310 0.011133 0.000000 0.058381 0.000000
# 6 0.000000 0.000000 0.000000 -0.008782 0.000000 0.037628
#
#
# Mechanical properties :
#
#
# Convention : Reuss Voigt Hill
#
# Bulk Modulus (GPa) = 27.89524 38.01899 32.95711
# Shear Modulus (GPa) = 19.15332 25.22452 22.18892
#
# Velocity S-wave (km/s) = 3.07780 3.53208 3.31274
# Velocity P-wave (km/s) = 5.14072 5.95295 5.56168
#
# Compressibility (1/GPa) = 0.03584841
#
# Stress axis : x y z
#
# Youngs Moduli (GPa) = 56.80233 62.99620 27.68374
#
# Poissons Ratio (x) = 0.40002 0.07245
# Poissons Ratio (y) = 0.36069 0.21896
# Poissons Ratio (z) = 0.14866 0.49826
#
# Static dielectric constant tensor:
#      x y z
#    x 1.750670 0.000000 -0.042120 
#    y 0.000000 1.728490 0.000000 
#    z -0.042120 0.000000 1.733870 
# 
# From -- ./inp_files/33889.got.cif
#   From: 2010.05.17/outbox.cif.g08.bks.cpg/sg15_17_cif.got.tgz:33889.got - 2010.06.03 18:47:42.
