data_PCOD9277008
_publ_section_title
;
Structure prediction by ZEFSAII (Michael W. Deem and Ramdas Pophale) SiO2 
 PCOD9277008
Probable space group: C 2/C
;
_chemical_formula_sum "Si O2"
_cell_formula_units_Z 40
_cell_length_a 11.788167
_cell_length_b 27.954467
_cell_length_c 8.063750
_cell_angle_alpha 90.000000
_cell_angle_beta 36.029680
_cell_angle_gamma 90.000000
_cell_volume 1563.013441
_symmetry_space_group_name_H-M "C 2/C"
_symmetry_group_IT_number 15
_symmetry_cell_setting 'monoclinic'
loop_
_space_group_symop_operation_xyz
x,y,z
-x,y,1/2-z
-x,-y,-z
x,-y,1/2+z
1/2+x,1/2+y,z
1/2-x,1/2+y,1/2-z
1/2-x,1/2-y,-z
1/2+x,1/2-y,1/2+z
loop_
_atom_site_type_symbol
_atom_site_label
_atom_site_fract_x
_atom_site_fract_y
_atom_site_fract_z
Si Si1 0.847374 0.838986 0.295876
Si Si2 0.639207 0.031199 0.717539
Si Si3 0.677257 0.440750 0.171160
Si Si4 0.815767 0.815241 0.789395
Si Si5 0.423087 0.792922 0.113018
O O1 0.737012 0.888074 0.464507
O O2 0.693162 0.801497 0.415994
O O3 0.000000 0.820502 0.250000
O O4 0.013407 0.850997 0.958975
O O5 0.500000 0.059561 0.750000
O O6 0.791097 0.055126 0.665384
O O7 0.740751 0.991004 0.487473
O O8 0.500000 0.000000 0.000000
O O9 0.500000 0.436388 0.250000
O O10 0.917279 0.762910 0.666693
O O11 0.638238 0.812843 0.870093
O O12 0.705663 0.819112 0.093469
#
# Coordination Sequence:
#
# PCOD9277008 Si02
#       5
#     8   8   8   8   8
#     4  11  24  40  58  99 137 165 210 274 329 387
#     4   9  19  41  69  94 123 162 212 263 328 394
#     4  10  21  41  65  95 128 170 211 266 329 395
#     4  10  20  40  67  90 124 174 229 266 315 377
#     4  10  20  40  67  89 123 177 224 271 311 376
#
# _framework density 25.591591000000001
#
# number of rings (size 3 to 8) (size 9 to 14) (size 15 to 20)
#    0.000    2.000    2.000    1.200    0.000    1.600 
#   25.200   14.000    0.000    0.000    0.000    0.000 
#    0.000    0.000    0.000    0.000    0.000    0.000 
#
# Total GULP energy -111368.183246 kJ/mol
# GULP energy per Si atom -5568.409162 kJ/mol
# Density = 2.553334 g / cm^3
# Si number density = 25.591591 Si / 1000 Ang^3
#
#
#
# Elastic Constant Matrix: (Units=GPa)
#
#
# Indices 1 2 3 4 5 6 
#
# 1 253.7348 49.1531 28.9637 0.0000 -11.9712 0.0000
# 2 49.1531 56.7483 -1.7006 0.0000 -12.8059 0.0000
# 3 28.9637 -1.7006 51.7341 0.0000 -18.8335 0.0000
# 4 0.0000 0.0000 0.0000 1.9954 0.0000 11.3561
# 5 -11.9712 -12.8059 -18.8335 0.0000 35.8337 0.0000
# 6 0.0000 0.0000 0.0000 11.3561 0.0000 10.1907
#
#
#
# Elastic Compliance Matrix: (Units=1/GPa)
#
#
# Indices 1 2 3 4 5 6 
#
# 1 0.005291 -0.005183 -0.003912 0.000000 -0.002141 0.000000
# 2 -0.005183 0.024890 0.007825 0.000000 0.011276 0.000000
# 3 -0.003912 0.007825 0.027600 0.000000 0.015995 0.000000
# 4 0.000000 0.000000 0.000000 -0.093814 0.000000 0.104542
# 5 -0.002141 0.011276 0.015995 0.000000 0.039628 0.000000
# 6 0.000000 0.000000 0.000000 0.104542 0.000000 -0.018369
#
#
# Mechanical properties :
#
#
# Convention : Reuss Voigt Hill
#
# Bulk Modulus (GPa) = 18.10250 57.22775 37.66512
# Shear Modulus (GPa) = 809.25336 28.65736 418.95536
#
# Velocity S-wave (km/s) = 17.80182 3.34997 12.80873
# Velocity P-wave (km/s) = 20.72749 6.11339 15.28075
#
# Compressibility (1/GPa) = 0.05524100
#
# Stress axis : x y z
#
# Youngs Moduli (GPa) = 189.01258 40.17699 36.23206
#
# Poissons Ratio (x) = 0.20823 0.14173
# Poissons Ratio (y) = 0.97962 -0.28351
# Poissons Ratio (z) = 0.73935 -0.31438
#
# Static dielectric constant tensor:
#      x y z
#    x 2.159630 0.000000 0.108500 
#    y 0.000000 1.901650 0.000000 
#    z 0.108500 0.000000 2.169100 
# 
# From -- ./inp_files/34977.got.cif
#   From: 2010.05.17/outbox.cif.g08.bks.cpg/sg15_18_cif.got.tgz:34977.got - 2010.06.03 18:47:42.
