data_PCOD9277191
_publ_section_title
;
Structure prediction by ZEFSAII (Michael W. Deem and Ramdas Pophale) SiO2 
 PCOD9277191
Probable space group: C 2/C
;
_chemical_formula_sum "Si O2"
_cell_formula_units_Z 28
_cell_length_a 8.318846
_cell_length_b 17.361618
_cell_length_c 10.667189
_cell_angle_alpha 90.000000
_cell_angle_beta 42.368187
_cell_angle_gamma 90.000000
_cell_volume 1038.230399
_symmetry_space_group_name_H-M "C 2/C"
_symmetry_group_IT_number 15
_symmetry_cell_setting 'monoclinic'
loop_
_space_group_symop_operation_xyz
x,y,z
-x,y,1/2-z
-x,-y,-z
x,-y,1/2+z
1/2+x,1/2+y,z
1/2-x,1/2+y,1/2-z
1/2-x,1/2-y,-z
1/2+x,1/2-y,1/2+z
loop_
_atom_site_type_symbol
_atom_site_label
_atom_site_fract_x
_atom_site_fract_y
_atom_site_fract_z
Si Si1 0.000000 0.429563 0.750000
Si Si2 0.735670 0.452745 0.547699
Si Si3 0.967508 0.688324 0.616465
Si Si4 0.494072 0.646193 0.532095
O O1 0.052539 0.488872 0.605577
O O2 0.234947 0.378197 0.607879
O O3 0.500000 0.484445 0.750000
O O4 0.374032 0.421641 0.019902
O O5 0.844483 0.374223 0.543362
O O6 0.004417 0.772358 0.541442
O O7 0.000000 0.689544 0.750000
O O8 0.697645 0.660566 0.747837
#
# Coordination Sequence:
#
# PCOD9277191 Si02
#       4
#     4   8   8   8
#     4  12  26  42  60  98 138 162 194 270 324 370
#     4  11  22  42  69  92 121 169 216 257 308 370
#     4  10  20  40  69  92 120 166 220 259 296 371
#     4  11  22  41  65  94 131 161 214 259 310 373
#
# _framework density 26.968966999999999
#
# number of rings (size 3 to 8) (size 9 to 14) (size 15 to 20)
#    0.000    1.143    4.286    6.857    0.000    2.286 
#    5.143    0.000    0.000    0.000    0.000    0.000 
#    0.000    0.000    0.000    0.000    0.000    0.000 
#
# Total GULP energy -78409.793531 kJ/mol
# GULP energy per Si atom -5600.699538 kJ/mol
# Density = 2.690758 g / cm^3
# Si number density = 26.968967 Si / 1000 Ang^3
#
#
#
# Elastic Constant Matrix: (Units=GPa)
#
#
# Indices 1 2 3 4 5 6 
#
# 1 53.6462 34.6631 29.4018 0.0000 -30.9517 0.0000
# 2 34.6631 136.4694 49.1838 0.0000 -16.0045 0.0000
# 3 29.4018 49.1838 188.5495 0.0000 -48.9025 0.0000
# 4 0.0000 0.0000 0.0000 87.2443 0.0000 8.8093
# 5 -30.9517 -16.0045 -48.9025 0.0000 53.6223 0.0000
# 6 0.0000 0.0000 0.0000 8.8093 0.0000 70.7549
#
#
#
# Elastic Compliance Matrix: (Units=1/GPa)
#
#
# Indices 1 2 3 4 5 6 
#
# 1 0.032629 -0.006649 0.001331 0.000000 0.018064 0.000000
# 2 -0.006649 0.009460 -0.002219 0.000000 -0.003038 0.000000
# 3 0.001331 -0.002219 0.007469 0.000000 0.006918 0.000000
# 4 0.000000 0.000000 0.000000 0.011608 0.000000 -0.001445
# 5 0.018064 -0.003038 0.006918 0.000000 0.034478 0.000000
# 6 0.000000 0.000000 0.000000 -0.001445 0.000000 0.014313
#
#
# Mechanical properties :
#
#
# Convention : Reuss Voigt Hill
#
# Bulk Modulus (GPa) = 28.99796 67.24029 48.11912
# Shear Modulus (GPa) = 36.62320 60.01875 48.32097
#
# Velocity S-wave (km/s) = 3.68907 4.72261 4.23747
# Velocity P-wave (km/s) = 5.37786 7.39757 6.46704
#
# Compressibility (1/GPa) = 0.03448519
#
# Stress axis : x y z
#
# Youngs Moduli (GPa) = 30.64727 105.70948 133.88622
#
# Poissons Ratio (x) = 0.70288 -0.17826
# Poissons Ratio (y) = 0.20378 0.29706
# Poissons Ratio (z) = -0.04080 0.23454
#
# Static dielectric constant tensor:
#      x y z
#    x 2.260400 0.000000 0.016590 
#    y 0.000000 2.029620 0.000000 
#    z 0.016590 0.000000 2.101770 
# 
# From -- ./inp_files/144863.got.cif
#   From: 2010.05.17/outbox.cif.g08.bks.cpg/sg15_73_cif.got.tgz:144863.got - 2010.06.03 18:47:42.
