data_PCOD9277979
_publ_section_title
;
Structure prediction by ZEFSAII (Michael W. Deem and Ramdas Pophale) SiO2 
 PCOD9277979
Probable space group: C 2/C
;
_chemical_formula_sum "Si O2"
_cell_formula_units_Z 60
_cell_length_a 29.000798
_cell_length_b 11.907018
_cell_length_c 7.451621
_cell_angle_alpha 90.000000
_cell_angle_beta 74.107358
_cell_angle_gamma 90.000000
_cell_volume 2474.787253
_symmetry_space_group_name_H-M "C 2/C"
_symmetry_group_IT_number 15
_symmetry_cell_setting 'monoclinic'
loop_
_space_group_symop_operation_xyz
x,y,z
-x,y,1/2-z
-x,-y,-z
x,-y,1/2+z
1/2+x,1/2+y,z
1/2-x,1/2+y,1/2-z
1/2-x,1/2-y,-z
1/2+x,1/2-y,1/2+z
loop_
_atom_site_type_symbol
_atom_site_label
_atom_site_fract_x
_atom_site_fract_y
_atom_site_fract_z
Si Si1 0.744959 0.632665 0.395042
Si Si2 0.010117 0.817401 0.451831
Si Si3 0.819026 0.957676 0.819200
Si Si4 0.500000 0.125078 0.750000
Si Si5 0.649545 0.881400 0.865912
Si Si6 0.114483 0.143540 0.780087
Si Si7 0.399267 0.901719 0.225918
Si Si8 0.092776 0.152737 0.392241
O O1 0.750000 0.750000 0.500000
O O2 0.721203 0.525974 0.524695
O O3 0.709248 0.636434 0.263718
O O4 0.797012 0.605710 0.262583
O O5 0.061661 0.875288 0.413626
O O6 0.000000 0.797135 0.250000
O O7 0.013403 0.705021 0.567565
O O8 0.962748 0.879484 0.575313
O O9 0.842531 0.066843 0.693032
O O10 0.870347 0.894506 0.793470
O O11 0.549048 0.063466 0.747044
O O12 0.627400 0.772872 0.794081
O O13 0.621376 0.994887 0.857140
O O14 0.640411 0.866584 0.085465
O O15 0.111124 0.119994 0.570245
O O16 0.408225 0.787849 0.108263
#
# Coordination Sequence:
#
# PCOD9277979 Si02
#       8
#     8   8   8   4   8   8   8   8
#     4  12  27  48  72 108 145 188 247 305 366 444
#     4   9  20  39  70 105 149 193 238 305 371 445
#     4  12  25  44  78 101 142 187 234 302 366 425
#     4  10  20  42  64 108 138 192 250 290 372 460
#     4  12  24  45  66  99 141 189 241 306 364 437
#     4  11  22  45  72 100 147 188 240 298 367 441
#     4  11  25  42  70 101 142 188 241 303 371 441
#     4  10  23  44  68 107 144 186 240 300 362 452
#
# _framework density 24.244508
#
# number of rings (size 3 to 8) (size 9 to 14) (size 15 to 20)
#    0.000    1.067    4.000    1.600    1.867    2.133 
#    3.600    2.000    1.467    0.000    0.000    0.000 
#    0.000    0.000    0.000    0.000    0.000    0.000 
#
# Total GULP energy -167509.302304 kJ/mol
# GULP energy per Si atom -5583.643410 kJ/mol
# Density = 2.418933 g / cm^3
# Si number density = 24.244508 Si / 1000 Ang^3
#
#
#
# Elastic Constant Matrix: (Units=GPa)
#
#
# Indices 1 2 3 4 5 6 
#
# 1 141.9304 48.0751 44.8553 0.0000 -48.4786 0.0000
# 2 48.0751 87.5648 19.7872 0.0000 -19.5978 0.0000
# 3 44.8553 19.7872 67.1360 0.0000 -26.7091 0.0000
# 4 0.0000 0.0000 0.0000 29.7990 0.0000 -2.6728
# 5 -48.4786 -19.5978 -26.7091 0.0000 43.1681 0.0000
# 6 0.0000 0.0000 0.0000 -2.6728 0.0000 -0.9424
#
#
#
# Elastic Compliance Matrix: (Units=1/GPa)
#
#
# Indices 1 2 3 4 5 6 
#
# 1 0.013192 -0.004054 -0.003260 0.000000 0.010957 0.000000
# 2 -0.004054 0.014148 -0.000951 0.000000 0.001282 0.000000
# 3 -0.003260 -0.000951 0.020860 0.000000 0.008814 0.000000
# 4 0.000000 0.000000 0.000000 0.026753 0.000000 -0.075875
# 5 0.010957 0.001282 0.008814 0.000000 0.041506 0.000000
# 6 0.000000 0.000000 0.000000 -0.075875 0.000000 -0.845927
#
#
# Mechanical properties :
#
#
# Convention : Reuss Voigt Hill
#
# Bulk Modulus (GPa) = 31.57606 58.00736 44.79171
# Shear Modulus (GPa) = -7.11861 26.66584 9.77361
#
# Velocity S-wave (km/s) = -1.71539 3.32003 2.00998
# Velocity P-wave (km/s) = 3.02140 6.21890 4.88895
#
# Compressibility (1/GPa) = 0.03166957
#
# Stress axis : x y z
#
# Youngs Moduli (GPa) = 75.80615 70.68386 47.93874
#
# Poissons Ratio (x) = 0.28652 0.15627
# Poissons Ratio (y) = 0.30728 0.04561
# Poissons Ratio (z) = 0.24711 0.06725
#
# Static dielectric constant tensor:
#      x y z
#    x 2.216470 0.000000 0.343540 
#    y 0.000000 1.967520 0.000000 
#    z 0.343540 0.000000 2.376750 
# 
# From -- ./inp_files/69337.got.cif
#   From: 2010.05.17/outbox.cif.g08.bks.cpg/sg15_35_cif.got.tgz:69337.got - 2010.06.03 18:47:42.
