data_PCOD9277001
_publ_section_title
;
Structure prediction by ZEFSAII (Michael W. Deem and Ramdas Pophale) SiO2 
 PCOD9277001
Probable space group: C 2/C
;
_chemical_formula_sum "Si O2"
_cell_formula_units_Z 60
_cell_length_a 11.323730
_cell_length_b 15.379564
_cell_length_c 17.686148
_cell_angle_alpha 90.000000
_cell_angle_beta 92.224009
_cell_angle_gamma 90.000000
_cell_volume 3077.793836
_symmetry_space_group_name_H-M "C 2/C"
_symmetry_group_IT_number 15
_symmetry_cell_setting 'monoclinic'
loop_
_space_group_symop_operation_xyz
x,y,z
-x,y,1/2-z
-x,-y,-z
x,-y,1/2+z
1/2+x,1/2+y,z
1/2-x,1/2+y,1/2-z
1/2-x,1/2-y,-z
1/2+x,1/2-y,1/2+z
loop_
_atom_site_type_symbol
_atom_site_label
_atom_site_fract_x
_atom_site_fract_y
_atom_site_fract_z
Si Si1 0.788841 0.634665 0.793859
Si Si2 0.503113 0.142274 0.468746
Si Si3 0.341859 0.982297 0.427007
Si Si4 0.000000 0.240729 0.250000
Si Si5 0.624541 0.455343 0.990917
Si Si6 0.111353 0.770652 0.910263
Si Si7 0.952834 0.227671 0.665113
Si Si8 0.308700 0.366792 0.367928
O O1 0.851113 0.562071 0.846113
O O2 0.889979 0.703400 0.777009
O O3 0.674997 0.682440 0.828377
O O4 0.742071 0.600913 0.712512
O O5 0.599827 0.080042 0.509271
O O6 0.458603 0.204414 0.535996
O O7 0.548625 0.197778 0.398689
O O8 0.400181 0.077037 0.437515
O O9 0.203232 0.988248 0.437792
O O10 0.049875 0.201094 0.329505
O O11 0.621945 0.358294 0.957834
O O12 0.500000 0.500000 0.000000
O O13 0.694655 0.442305 0.070804
O O14 0.231133 0.717249 0.892226
O O15 0.000000 0.256600 0.750000
O O16 0.055635 0.161990 0.639712
#
# Coordination Sequence:
#
# PCOD9277001 Si02
#       8
#     8   8   8   4   8   8   8   8
#     4  10  22  39  65  87 127 157 206 261 312 370
#     4  11  22  40  66  87 128 160 213 260 299 381
#     4  11  24  40  58  98 123 161 206 258 318 357
#     4  10  22  42  68  92 116 170 218 246 318 380
#     4  12  24  39  62  94 126 160 208 260 314 371
#     4  11  21  42  69  86 121 174 211 252 305 393
#     4  10  21  39  61  93 116 162 210 258 310 370
#     4  10  20  40  67  85 119 172 211 241 314 383
#
# _framework density 19.494484
#
# number of rings (size 3 to 8) (size 9 to 14) (size 15 to 20)
#    0.000    1.333    4.000    2.000    0.000    1.600 
#    6.000    0.000    0.000    0.000    0.000    0.000 
#    0.000    0.000    0.000    0.000    0.000    0.000 
#
# Total GULP energy -167345.201051 kJ/mol
# GULP energy per Si atom -5578.173368 kJ/mol
# Density = 1.945011 g / cm^3
# Si number density = 19.494484 Si / 1000 Ang^3
#
#
#
# Elastic Constant Matrix: (Units=GPa)
#
#
# Indices 1 2 3 4 5 6 
#
# 1 51.6288 13.0775 -6.7487 0.0000 -3.0702 0.0000
# 2 13.0775 47.6063 34.1416 0.0000 4.5514 0.0000
# 3 -6.7487 34.1416 96.3978 0.0000 10.7483 0.0000
# 4 0.0000 0.0000 0.0000 8.2862 0.0000 6.1107
# 5 -3.0702 4.5514 10.7483 0.0000 33.8691 0.0000
# 6 0.0000 0.0000 0.0000 6.1107 0.0000 10.8481
#
#
#
# Elastic Compliance Matrix: (Units=1/GPa)
#
#
# Indices 1 2 3 4 5 6 
#
# 1 0.022621 -0.009891 0.004883 0.000000 0.001830 0.000000
# 2 -0.009891 0.032496 -0.012041 0.000000 -0.001442 0.000000
# 3 0.004883 -0.012041 0.015291 0.000000 -0.002792 0.000000
# 4 0.000000 0.000000 0.000000 0.206438 0.000000 -0.116286
# 5 0.001830 -0.001442 -0.002792 0.000000 0.030771 0.000000
# 6 0.000000 0.000000 0.000000 -0.116286 0.000000 0.157686
#
#
# Mechanical properties :
#
#
# Convention : Reuss Voigt Hill
#
# Bulk Modulus (GPa) = 27.54004 30.73041 29.13523
# Shear Modulus (GPa) = 9.77508 20.94485 15.35996
#
# Velocity S-wave (km/s) = 2.24169 3.28136 2.81002
# Velocity P-wave (km/s) = 4.56705 5.49129 5.05036
#
# Compressibility (1/GPa) = 0.03631076
#
# Stress axis : x y z
#
# Youngs Moduli (GPa) = 44.20584 30.77316 65.39633
#
# Poissons Ratio (x) = 0.30437 -0.31931
# Poissons Ratio (y) = 0.43723 0.78743
# Poissons Ratio (z) = -0.21584 0.37053
#
# Static dielectric constant tensor:
#      x y z
#    x 1.693340 0.000000 0.023650 
#    y 0.000000 1.651640 0.000000 
#    z 0.023650 0.000000 1.735320 
# 
# From -- ./inp_files/197819.got.cif
#   From: 2010.05.17/outbox.cif.g08.bks.cpg/sg15_99_cif.got.tgz:197819.got - 2010.06.03 18:47:42.
