data_PCOD9277844
_publ_section_title
;
Structure prediction by ZEFSAII (Michael W. Deem and Ramdas Pophale) SiO2 
 PCOD9277844
Probable space group: C 2/C
;
_chemical_formula_sum "Si O2"
_cell_formula_units_Z 32
_cell_length_a 10.006053
_cell_length_b 16.126651
_cell_length_c 7.518767
_cell_angle_alpha 90.000000
_cell_angle_beta 95.475234
_cell_angle_gamma 90.000000
_cell_volume 1207.723802
_symmetry_space_group_name_H-M "C 2/C"
_symmetry_group_IT_number 15
_symmetry_cell_setting 'monoclinic'
loop_
_space_group_symop_operation_xyz
x,y,z
-x,y,1/2-z
-x,-y,-z
x,-y,1/2+z
1/2+x,1/2+y,z
1/2-x,1/2+y,1/2-z
1/2-x,1/2-y,-z
1/2+x,1/2-y,1/2+z
loop_
_atom_site_type_symbol
_atom_site_label
_atom_site_fract_x
_atom_site_fract_y
_atom_site_fract_z
Si Si1 0.024582 0.904571 0.043094
Si Si2 0.308469 0.159929 0.616259
Si Si3 0.277236 0.315019 0.845945
Si Si4 0.933639 0.409335 0.488485
O O1 0.821542 0.884334 0.478634
O O2 0.000000 0.886198 0.250000
O O3 0.919919 0.854297 0.910829
O O4 0.000000 0.000000 0.000000
O O5 0.250000 0.250000 0.000000
O O6 0.346877 0.105380 0.798272
O O7 0.556811 0.154719 0.982132
O O8 0.277476 0.252195 0.681301
O O9 0.162875 0.385040 0.860333
O O10 0.000000 0.500000 0.500000
#
# Coordination Sequence:
#
# PCOD9277844 Si02
#       4
#     8   8   8   8
#     4  12  24  46  73 104 147 193 247 304 372 443
#     4  10  23  43  71 104 142 185 249 293 368 437
#     4  10  21  45  71  96 147 187 235 304 358 438
#     4  10  20  41  72 104 141 189 244 299 365 437
#
# _framework density 26.496123000000001
#
# number of rings (size 3 to 8) (size 9 to 14) (size 15 to 20)
#    0.000    1.500    5.000    1.500    0.000    0.000 
#    9.000   31.250    0.000    0.000    0.000    0.000 
#    0.000    0.000    0.000    0.000    0.000    0.000 
#
# Total GULP energy -89808.314963 kJ/mol
# GULP energy per Si atom -5613.019685 kJ/mol
# Density = 2.643582 g / cm^3
# Si number density = 26.496123 Si / 1000 Ang^3
#
#
#
# Elastic Constant Matrix: (Units=GPa)
#
#
# Indices 1 2 3 4 5 6 
#
# 1 201.4965 76.7425 57.7616 0.0000 44.5019 0.0000
# 2 76.7425 183.1027 48.1094 0.0000 39.7934 0.0000
# 3 57.7616 48.1094 133.4852 0.0000 12.0226 0.0000
# 4 0.0000 0.0000 0.0000 50.3764 0.0000 6.7862
# 5 44.5019 39.7934 12.0226 0.0000 53.1118 0.0000
# 6 0.0000 0.0000 0.0000 6.7862 0.0000 64.5252
#
#
#
# Elastic Compliance Matrix: (Units=1/GPa)
#
#
# Indices 1 2 3 4 5 6 
#
# 1 0.007101 -0.001461 -0.002153 0.000000 -0.004368 0.000000
# 2 -0.001461 0.007363 -0.001669 0.000000 -0.003914 0.000000
# 3 -0.002153 -0.001669 0.008931 0.000000 0.001032 0.000000
# 4 0.000000 0.000000 0.000000 0.020136 0.000000 -0.002118
# 5 -0.004368 -0.003914 0.001032 0.000000 0.025187 0.000000
# 6 0.000000 0.000000 0.000000 -0.002118 0.000000 0.015721
#
#
# Mechanical properties :
#
#
# Convention : Reuss Voigt Hill
#
# Bulk Modulus (GPa) = 77.94275 98.14572 88.04424
# Shear Modulus (GPa) = 50.36163 55.96741 53.16452
#
# Velocity S-wave (km/s) = 4.36445 4.60095 4.48426
# Velocity P-wave (km/s) = 7.40800 8.08374 7.75324
#
# Compressibility (1/GPa) = 0.01282993
#
# Stress axis : x y z
#
# Youngs Moduli (GPa) = 140.82057 135.81186 111.96370
#
# Poissons Ratio (x) = 0.19848 0.24103
# Poissons Ratio (y) = 0.20580 0.18684
# Poissons Ratio (z) = 0.30315 0.22664
#
# Static dielectric constant tensor:
#      x y z
#    x 2.848450 0.000000 -1.739320 
#    y 0.000000 1.862230 0.000000 
#    z -1.739320 0.000000 5.350170 
# 
# From -- ./inp_files/85208.got.cif
#   From: 2010.05.17/outbox.cif.g08.bks.cpg/sg15_43_cif.got.tgz:85208.got - 2010.06.03 18:47:42.
