data_PCOD9277369
_publ_section_title
;
Structure prediction by ZEFSAII (Michael W. Deem and Ramdas Pophale) SiO2 
 PCOD9277369
Probable space group: C 2/C
;
_chemical_formula_sum "Si O2"
_cell_formula_units_Z 48
_cell_length_a 24.317590
_cell_length_b 5.427038
_cell_length_c 21.096977
_cell_angle_alpha 90.000000
_cell_angle_beta 142.968864
_cell_angle_gamma 90.000000
_cell_volume 1676.793815
_symmetry_space_group_name_H-M "C 2/C"
_symmetry_group_IT_number 15
_symmetry_cell_setting 'monoclinic'
loop_
_space_group_symop_operation_xyz
x,y,z
-x,y,1/2-z
-x,-y,-z
x,-y,1/2+z
1/2+x,1/2+y,z
1/2-x,1/2+y,1/2-z
1/2-x,1/2-y,-z
1/2+x,1/2-y,1/2+z
loop_
_atom_site_type_symbol
_atom_site_label
_atom_site_fract_x
_atom_site_fract_y
_atom_site_fract_z
Si Si1 0.509544 0.178010 0.937495
Si Si2 0.612110 0.369209 0.908389
Si Si3 0.364828 0.467362 0.372250
Si Si4 0.176440 0.558038 0.857819
Si Si5 0.600342 0.226668 0.471283
Si Si6 0.214617 0.949640 0.328663
O O1 0.545462 0.281091 0.903484
O O2 0.434218 0.352473 0.898599
O O3 0.590971 0.210832 0.064039
O O4 0.511058 0.892078 0.920291
O O5 0.610646 0.178242 0.850083
O O6 0.720103 0.429028 0.019262
O O7 0.580789 0.655770 0.885220
O O8 0.355982 0.596318 0.433051
O O9 0.287522 0.415774 0.249400
O O10 0.166364 0.284832 0.818797
O O11 0.175313 0.777697 0.805085
O O12 0.685879 0.042184 0.546573
#
# Coordination Sequence:
#
# PCOD9277369 Si02
#       6
#     8   8   8   8   8   8
#     4  10  20  41  60  90 126 174 220 265 327 393
#     4   9  20  37  63  93 123 168 220 268 316 397
#     4  10  24  37  60  92 130 172 220 269 332 394
#     4  10  22  39  64  95 129 166 216 270 328 381
#     4  10  21  35  64  92 128 170 225 274 328 387
#     4  11  24  39  62  98 131 169 213 277 332 384
#
# _framework density 28.626056999999999
#
# number of rings (size 3 to 8) (size 9 to 14) (size 15 to 20)
#    0.000    2.000    1.667    0.500    7.000    2.000 
#    0.000    0.833    0.000    2.000    0.000    0.000 
#    0.000    0.000    0.000    0.000    0.000    0.000 
#
# Total GULP energy -133759.945510 kJ/mol
# GULP energy per Si atom -5573.331063 kJ/mol
# Density = 2.856090 g / cm^3
# Si number density = 28.626057 Si / 1000 Ang^3
#
#
#
# Elastic Constant Matrix: (Units=GPa)
#
#
# Indices 1 2 3 4 5 6 
#
# 1 113.7241 17.7874 -7.0861 0.0016 -7.4192 -0.0055
# 2 17.7874 137.5723 3.4323 0.0033 -3.8037 -0.0112
# 3 -7.0861 3.4323 77.6279 -0.0014 7.5421 0.0009
# 4 0.0016 0.0033 -0.0014 7.1609 -0.0007 -14.4237
# 5 -7.4192 -3.8037 7.5421 -0.0007 22.1780 0.0014
# 6 -0.0055 -0.0112 0.0009 -14.4237 0.0014 63.8067
#
#
#
# Elastic Compliance Matrix: (Units=1/GPa)
#
#
# Indices 1 2 3 4 5 6 
#
# 1 0.009183 -0.001129 0.000629 0.000000 0.002664 0.000001
# 2 -0.001129 0.007458 -0.000538 -0.000001 0.001084 0.000001
# 3 0.000629 -0.000538 0.013394 0.000004 -0.004437 0.000001
# 4 0.000000 -0.000001 0.000004 0.256386 0.000003 0.057957
# 5 0.002664 0.001084 -0.004437 0.000003 0.047676 0.000000
# 6 0.000001 0.000001 0.000001 0.057957 0.000000 0.028774
#
#
# Mechanical properties :
#
#
# Convention : Reuss Voigt Hill
#
# Bulk Modulus (GPa) = 35.76662 39.68794 37.72728
# Shear Modulus (GPa) = 13.35944 39.61516 26.48730
#
# Velocity S-wave (km/s) = 2.16264 3.72410 3.04515
# Velocity P-wave (km/s) = 4.33100 5.69089 5.05687
#
# Compressibility (1/GPa) = 0.02795903
#
# Stress axis : x y z
#
# Youngs Moduli (GPa) = 108.89831 134.07823 74.65881
#
# Poissons Ratio (x) = 0.15142 -0.04698
# Poissons Ratio (y) = 0.12298 0.04018
# Poissons Ratio (z) = -0.06853 0.07216
#
# Static dielectric constant tensor:
#      x y z
#    x 2.290400 0.000000 0.051190 
#    y 0.000000 2.741930 0.000000 
#    z 0.051190 0.000000 2.381830 
# 
# From -- ./inp_files/254473.got.cif
#   From: 2010.05.17/outbox.cif.g08.bks.cpg/sg15_128_cif.got.tgz:254473.got - 2010.06.03 18:47:42.
