data_PCOD9277941
_publ_section_title
;
Structure prediction by ZEFSAII (Michael W. Deem and Ramdas Pophale) SiO2 
 PCOD9277941
Probable space group: C 2/C
;
_chemical_formula_sum "Si O2"
_cell_formula_units_Z 48
_cell_length_a 26.261034
_cell_length_b 4.948922
_cell_length_c 14.340239
_cell_angle_alpha 90.000000
_cell_angle_beta 89.856821
_cell_angle_gamma 90.000000
_cell_volume 1863.706262
_symmetry_space_group_name_H-M "C 2/C"
_symmetry_group_IT_number 15
_symmetry_cell_setting 'monoclinic'
loop_
_space_group_symop_operation_xyz
x,y,z
-x,y,1/2-z
-x,-y,-z
x,-y,1/2+z
1/2+x,1/2+y,z
1/2-x,1/2+y,1/2-z
1/2-x,1/2-y,-z
1/2+x,1/2-y,1/2+z
loop_
_atom_site_type_symbol
_atom_site_label
_atom_site_fract_x
_atom_site_fract_y
_atom_site_fract_z
Si Si1 0.167606 0.278809 0.703809
Si Si2 0.729612 0.982571 0.846441
Si Si3 0.988148 0.252090 0.565778
Si Si4 0.750000 0.750000 0.000000
Si Si5 0.831950 0.233925 0.000269
Si Si6 0.403593 0.468855 0.656424
Si Si7 0.500000 0.488459 0.250000
O O1 0.223562 0.148515 0.690028
O O2 0.182052 0.506777 0.779044
O O3 0.149145 0.337215 0.599880
O O4 0.131987 0.079582 0.762037
O O5 0.710260 0.058603 0.954501
O O6 0.747148 0.691788 0.883504
O O7 0.929991 0.221301 0.601427
O O8 0.000000 0.500000 0.500000
O O9 0.017741 0.200118 0.663386
O O10 0.000000 0.000000 0.500000
O O11 0.696842 0.549280 0.014633
O O12 0.874790 0.192714 0.076929
O O13 0.453516 0.343386 0.706361
#
# Coordination Sequence:
#
# PCOD9277941 Si02
#       7
#     8   8   8   4   8   8   4
#     4  11  23  41  67 100 143 189 241 300 370 434
#     4  11  24  41  66  98 151 194 247 295 363 451
#     4  10  24  48  78 103 147 194 245 320 389 451
#     4  10  20  42  62  96 140 186 238 300 352 430
#     4  11  24  43  69 102 148 191 243 301 370 451
#     4  10  23  46  70 108 139 183 255 301 383 455
#     4   8  24  46  74 108 140 186 252 322 374 462
#
# _framework density 25.755130000000001
#
# number of rings (size 3 to 8) (size 9 to 14) (size 15 to 20)
#    1.000    0.667    1.667    3.000    4.667    2.000 
#    0.000    0.000    0.000    0.000    0.000    0.000 
#    0.000    0.000    0.000    0.000    0.000    0.000 
#
# Total GULP energy -133663.154664 kJ/mol
# GULP energy per Si atom -5569.298111 kJ/mol
# Density = 2.569651 g / cm^3
# Si number density = 25.755130 Si / 1000 Ang^3
#
#
#
# Elastic Constant Matrix: (Units=GPa)
#
#
# Indices 1 2 3 4 5 6 
#
# 1 105.6877 31.5568 71.1085 0.0000 24.2311 0.0000
# 2 31.5568 84.4797 47.0911 0.0000 -6.2469 0.0000
# 3 71.1085 47.0911 263.7113 0.0000 10.5754 0.0000
# 4 0.0000 0.0000 0.0000 30.2633 0.0000 -0.1572
# 5 24.2311 -6.2469 10.5754 0.0000 56.5896 0.0000
# 6 0.0000 0.0000 0.0000 -0.1572 0.0000 23.5053
#
#
#
# Elastic Compliance Matrix: (Units=1/GPa)
#
#
# Indices 1 2 3 4 5 6 
#
# 1 0.013901 -0.004075 -0.002785 0.000000 -0.005882 0.000000
# 2 -0.004075 0.014547 -0.001646 0.000000 0.003658 0.000000
# 3 -0.002785 -0.001646 0.004832 0.000000 0.000108 0.000000
# 4 0.000000 0.000000 0.000000 0.033044 0.000000 0.000221
# 5 -0.005882 0.003658 0.000108 0.000000 0.020573 0.000000
# 6 0.000000 0.000000 0.000000 0.000221 0.000000 0.042545
#
#
# Mechanical properties :
#
#
# Convention : Reuss Voigt Hill
#
# Bulk Modulus (GPa) = 61.46471 83.71018 72.58744
# Shear Modulus (GPa) = 32.92133 42.34644 37.63389
#
# Velocity S-wave (km/s) = 3.57913 4.05927 3.82674
# Velocity P-wave (km/s) = 6.40290 7.38533 6.91159
#
# Compressibility (1/GPa) = 0.01626950
#
# Stress axis : x y z
#
# Youngs Moduli (GPa) = 71.93892 68.74166 206.93494
#
# Poissons Ratio (x) = 0.28013 0.57625
# Poissons Ratio (y) = 0.29316 0.34052
# Poissons Ratio (z) = 0.20033 0.11312
#
# Static dielectric constant tensor:
#      x y z
#    x 2.095810 0.000000 0.129070 
#    y 0.000000 2.159770 0.000000 
#    z 0.129070 0.000000 2.457640 
# 
# From -- ./inp_files/179768.got.cif
#   From: 2010.05.17/outbox.cif.g08.bks.cpg/sg15_90_cif.got.tgz:179768.got - 2010.06.03 18:47:42.
