data_PCOD9277520
_publ_section_title
;
Structure prediction by ZEFSAII (Michael W. Deem and Ramdas Pophale) SiO2 
 PCOD9277520
Probable space group: C 2/C
;
_chemical_formula_sum "Si O2"
_cell_formula_units_Z 64
_cell_length_a 13.452528
_cell_length_b 17.620132
_cell_length_c 31.837904
_cell_angle_alpha 90.000000
_cell_angle_beta 154.294490
_cell_angle_gamma 90.000000
_cell_volume 3273.352308
_symmetry_space_group_name_H-M "C 2/C"
_symmetry_group_IT_number 15
_symmetry_cell_setting 'monoclinic'
loop_
_space_group_symop_operation_xyz
x,y,z
-x,y,1/2-z
-x,-y,-z
x,-y,1/2+z
1/2+x,1/2+y,z
1/2-x,1/2+y,1/2-z
1/2-x,1/2-y,-z
1/2+x,1/2-y,1/2+z
loop_
_atom_site_type_symbol
_atom_site_label
_atom_site_fract_x
_atom_site_fract_y
_atom_site_fract_z
Si Si1 0.912778 0.036111 0.010179
Si Si2 0.464509 0.708038 0.059582
Si Si3 0.068648 0.050896 0.644163
Si Si4 0.259804 0.803848 0.176567
Si Si5 0.872881 0.176004 0.289019
Si Si6 0.901244 0.478562 0.833090
Si Si7 0.943244 0.546415 0.019083
Si Si8 0.386737 0.802520 0.954030
O O1 0.665155 0.996269 0.922344
O O2 0.898779 0.127359 0.012383
O O3 0.000000 0.000000 0.000000
O O4 0.084139 0.009403 0.112363
O O5 0.630320 0.695630 0.162572
O O6 0.250000 0.750000 0.000000
O O7 0.526463 0.765814 0.045706
O O8 0.100411 0.131546 0.634432
O O9 0.819749 0.038404 0.568602
O O10 0.253398 0.038257 0.750630
O O11 0.500000 0.836776 0.250000
O O12 0.302081 0.743030 0.229988
O O13 0.162383 0.762089 0.098789
O O14 0.711378 0.103161 0.220469
O O15 0.142713 0.164348 0.378882
O O16 0.900115 0.481867 0.882955
O O17 0.990020 0.632635 0.024917
O O18 0.000000 0.500000 0.000000
#
# Coordination Sequence:
#
# PCOD9277520 Si02
#       8
#     8   8   8   8   8   8   8   8
#     4  11  25  43  65  97 129 173 219 272 338 389
#     4  10  22  39  66  92 128 168 221 262 319 396
#     4  11  25  41  66  96 131 169 219 272 325 391
#     4  10  22  39  66  95 122 169 222 263 327 396
#     4  10  20  41  64  95 125 173 216 261 328 389
#     4  11  24  42  66  91 133 170 216 278 319 393
#     4  11  25  42  65  96 130 175 218 265 329 383
#     4  10  21  38  67  91 127 172 214 265 319 398
#
# _framework density 19.551821
#
# number of rings (size 3 to 8) (size 9 to 14) (size 15 to 20)
#    0.000    1.500    2.500    1.500   12.250    2.000 
#    2.250    0.000    0.000    0.000    0.000    0.000 
#    0.000    0.000    0.000    0.000    0.000    0.000 
#
# Total GULP energy -178436.094191 kJ/mol
# GULP energy per Si atom -5576.127943 kJ/mol
# Density = 1.950732 g / cm^3
# Si number density = 19.551821 Si / 1000 Ang^3
#
#
#
# Elastic Constant Matrix: (Units=GPa)
#
#
# Indices 1 2 3 4 5 6 
#
# 1 120.2509 24.9534 38.7113 0.0000 -27.8065 -0.0003
# 2 24.9534 42.2054 -6.8280 -0.0007 1.2633 -0.0001
# 3 38.7113 -6.8280 63.8462 0.0155 -30.4424 -0.0016
# 4 0.0000 -0.0007 0.0155 -31.1184 -0.0054 0.2207
# 5 -27.8065 1.2633 -30.4424 -0.0054 25.0288 0.0003
# 6 -0.0003 -0.0001 -0.0016 0.2207 0.0003 38.7781
#
#
#
# Elastic Compliance Matrix: (Units=1/GPa)
#
#
# Indices 1 2 3 4 5 6 
#
# 1 0.014224 -0.009456 -0.004459 -0.000004 0.010856 0.000000
# 2 -0.009456 0.030619 0.007765 0.000004 -0.002606 0.000000
# 3 -0.004459 0.007765 0.039632 0.000012 0.042858 0.000001
# 4 -0.000004 0.000004 0.000012 -0.032134 0.000003 0.000183
# 5 0.010856 -0.002606 0.042858 0.000003 0.104274 0.000001
# 6 0.000000 0.000000 0.000001 0.000183 0.000001 0.025787
#
#
# Mechanical properties :
#
#
# Convention : Reuss Voigt Hill
#
# Bulk Modulus (GPa) = 13.85537 37.77510 25.81524
# Shear Modulus (GPa) = 22.85611 17.83541 20.34576
#
# Velocity S-wave (km/s) = 3.42278 3.02356 3.22934
# Velocity P-wave (km/s) = 4.76680 5.61709 5.20932
#
# Compressibility (1/GPa) = 0.07217420
#
# Stress axis : x y z
#
# Youngs Moduli (GPa) = 70.30316 32.65972 25.23224
#
# Poissons Ratio (x) = 0.30884 0.11252
# Poissons Ratio (y) = 0.66480 -0.19594
# Poissons Ratio (z) = 0.31351 -0.25361
#
# Static dielectric constant tensor:
#      x y z
#    x 1.868640 0.000000 0.061830 
#    y 0.000000 1.690900 0.000000 
#    z 0.061830 0.000000 1.724670 
# 
# From -- ./inp_files/311661.got.cif
#   From: 2010.05.17/outbox.cif.g08.bks.cpg/sg15_156_cif.got.tgz:311661.got - 2010.06.03 18:47:42.
