data_PCOD9277850
_publ_section_title
;
Structure prediction by ZEFSAII (Michael W. Deem and Ramdas Pophale) SiO2 
 PCOD9277850
Probable space group: C 2/C
;
_chemical_formula_sum "Si O2"
_cell_formula_units_Z 64
_cell_length_a 27.639460
_cell_length_b 9.401471
_cell_length_c 15.224646
_cell_angle_alpha 90.000000
_cell_angle_beta 125.959552
_cell_angle_gamma 90.000000
_cell_volume 3202.232038
_symmetry_space_group_name_H-M "C 2/C"
_symmetry_group_IT_number 15
_symmetry_cell_setting 'monoclinic'
loop_
_space_group_symop_operation_xyz
x,y,z
-x,y,1/2-z
-x,-y,-z
x,-y,1/2+z
1/2+x,1/2+y,z
1/2-x,1/2+y,1/2-z
1/2-x,1/2-y,-z
1/2+x,1/2-y,1/2+z
loop_
_atom_site_type_symbol
_atom_site_label
_atom_site_fract_x
_atom_site_fract_y
_atom_site_fract_z
Si Si1 0.844982 0.477922 0.968830
Si Si2 0.349819 0.767385 0.341482
Si Si3 0.287361 0.597890 0.430939
Si Si4 0.023566 0.357392 0.370064
Si Si5 0.467552 0.846577 0.809635
Si Si6 0.015813 0.164670 0.020409
Si Si7 0.743425 0.274030 0.096621
Si Si8 0.168288 0.306339 0.885410
O O1 0.909199 0.414878 0.063161
O O2 0.825328 0.578724 0.028869
O O3 0.852870 0.578423 0.892284
O O4 0.797512 0.351847 0.908061
O O5 0.318477 0.666728 0.380270
O O6 0.414697 0.703183 0.391813
O O7 0.307591 0.774539 0.212101
O O8 0.285339 0.429051 0.421217
O O9 0.220274 0.659286 0.371909
O O10 0.320732 0.655953 0.554219
O O11 0.000000 0.310373 0.250000
O O12 0.982249 0.491827 0.353536
O O13 0.019380 0.236438 0.437280
O O14 0.500000 0.829917 0.750000
O O15 0.397434 0.820362 0.723705
O O16 0.495845 0.740470 0.909418
O O17 0.000000 0.000000 0.000000
O O18 0.750000 0.250000 0.000000
#
# Coordination Sequence:
#
# PCOD9277850 Si02
#       8
#     8   8   8   8   8   8   8   8
#     4  11  22  45  70 101 131 173 233 282 338 416
#     4  11  26  47  67  93 139 181 231 281 346 421
#     4  10  23  43  65  99 137 181 218 283 344 404
#     4  11  24  45  75 102 129 179 239 285 350 415
#     4  11  21  44  76 101 130 183 232 285 346 421
#     4  12  29  46  65 104 141 180 229 292 361 422
#     4  12  26  40  68 101 135 179 231 285 338 399
#     4  10  20  41  72  98 135 172 228 277 345 411
#
# _framework density 19.986059000000001
#
# number of rings (size 3 to 8) (size 9 to 14) (size 15 to 20)
#    0.000    1.000    5.000    1.875    5.250    2.500 
#    0.000    0.000    0.000    0.000    0.000    0.000 
#    0.000    0.000    0.000    0.000    0.000    0.000 
#
# Total GULP energy -179023.185553 kJ/mol
# GULP energy per Si atom -5594.474549 kJ/mol
# Density = 1.994057 g / cm^3
# Si number density = 19.986059 Si / 1000 Ang^3
#
#
#
# Elastic Constant Matrix: (Units=GPa)
#
#
# Indices 1 2 3 4 5 6 
#
# 1 41.1810 5.4886 -7.7969 0.0000 7.5818 0.0000
# 2 5.4886 126.1781 30.7258 0.0000 -6.9092 0.0000
# 3 -7.7969 30.7258 85.3021 0.0000 7.8573 0.0000
# 4 0.0000 0.0000 0.0000 381.7340 0.0000 -154.7908
# 5 7.5818 -6.9092 7.8573 0.0000 40.2965 0.0000
# 6 0.0000 0.0000 0.0000 -154.7908 0.0000 84.7751
#
#
#
# Elastic Compliance Matrix: (Units=1/GPa)
#
#
# Indices 1 2 3 4 5 6 
#
# 1 0.026470 -0.002428 0.003861 0.000000 -0.006149 0.000000
# 2 -0.002428 0.009095 -0.003751 0.000000 0.002748 0.000000
# 3 0.003861 -0.003751 0.013801 0.000000 -0.004061 0.000000
# 4 0.000000 0.000000 0.000000 0.010091 0.000000 0.018425
# 5 -0.006149 0.002748 -0.004061 0.000000 0.027236 0.000000
# 6 0.000000 0.000000 0.000000 0.018425 0.000000 0.045437
#
#
# Mechanical properties :
#
#
# Convention : Reuss Voigt Hill
#
# Bulk Modulus (GPa) = 22.35727 34.38845 28.37286
# Shear Modulus (GPa) = 32.96495 116.31069 74.63782
#
# Velocity S-wave (km/s) = 4.06568 7.63690 6.11768
# Velocity P-wave (km/s) = 5.76632 9.74713 8.00803
#
# Compressibility (1/GPa) = 0.04472819
#
# Stress axis : x y z
#
# Youngs Moduli (GPa) = 37.77901 109.95305 72.45840
#
# Poissons Ratio (x) = 0.26699 -0.27973
# Poissons Ratio (y) = 0.09174 0.27179
# Poissons Ratio (z) = -0.14585 0.41243
#
# Static dielectric constant tensor:
#      x y z
#    x 1.651490 0.000000 -0.008660 
#    y 0.000000 1.708170 0.000000 
#    z -0.008660 0.000000 1.687880 
# 
# From -- ./inp_files/181181.got.cif
#   From: 2010.05.17/outbox.cif.g08.bks.cpg/sg15_91_cif.got.tgz:181181.got - 2010.06.03 18:47:42.
