data_PCOD9277638
_publ_section_title
;
Structure prediction by ZEFSAII (Michael W. Deem and Ramdas Pophale) SiO2 
 PCOD9277638
Probable space group: C 2/C
;
_chemical_formula_sum "Si O2"
_cell_formula_units_Z 40
_cell_length_a 6.642694
_cell_length_b 31.813408
_cell_length_c 8.970643
_cell_angle_alpha 90.000000
_cell_angle_beta 75.160693
_cell_angle_gamma 90.000000
_cell_volume 1832.509922
_symmetry_space_group_name_H-M "C 2/C"
_symmetry_group_IT_number 15
_symmetry_cell_setting 'monoclinic'
loop_
_space_group_symop_operation_xyz
x,y,z
-x,y,1/2-z
-x,-y,-z
x,-y,1/2+z
1/2+x,1/2+y,z
1/2-x,1/2+y,1/2-z
1/2-x,1/2-y,-z
1/2+x,1/2-y,1/2+z
loop_
_atom_site_type_symbol
_atom_site_label
_atom_site_fract_x
_atom_site_fract_y
_atom_site_fract_z
Si Si1 0.423780 0.596533 0.591941
Si Si2 0.212222 0.442695 0.670043
Si Si3 0.776083 0.018710 0.483669
Si Si4 0.986575 0.260348 0.908294
Si Si5 0.205133 0.684409 0.614159
O O1 0.500000 0.595046 0.750000
O O2 0.613444 0.585480 0.442486
O O3 0.254674 0.560133 0.589186
O O4 0.326604 0.641182 0.570875
O O5 0.144975 0.478512 0.561823
O O6 0.000000 0.418528 0.750000
O O7 0.279570 0.466217 0.811447
O O8 0.000000 0.000000 0.500000
O O9 0.000000 0.283436 0.750000
O O10 0.124769 0.218159 0.861190
O O11 0.750000 0.250000 0.000000
O O12 0.104339 0.290768 0.997241
O O13 0.000000 0.675543 0.750000
#
# Coordination Sequence:
#
# PCOD9277638 Si02
#       5
#     8   8   8   8   8
#     4  11  24  43  65  97 142 186 231 296 351 412
#     4  11  23  42  68  99 139 188 242 293 351 422
#     4  10  20  41  66  95 134 185 239 291 348 411
#     4  11  23  48  77 105 137 181 230 284 349 426
#     4  11  25  44  72 104 140 183 233 281 354 425
#
# _framework density 21.827985999999999
#
# number of rings (size 3 to 8) (size 9 to 14) (size 15 to 20)
#    0.000    1.200    2.000    6.000    0.000    2.400 
#    7.200    0.000    0.000    0.000    0.000    0.000 
#    0.000    0.000    0.000    0.000    0.000    0.000 
#
# Total GULP energy -111483.738271 kJ/mol
# GULP energy per Si atom -5574.186914 kJ/mol
# Density = 2.177830 g / cm^3
# Si number density = 21.827986 Si / 1000 Ang^3
#
#
#
# Elastic Constant Matrix: (Units=GPa)
#
#
# Indices 1 2 3 4 5 6 
#
# 1 110.2226 41.7198 92.1608 0.0000 -16.2570 0.0000
# 2 41.7198 146.7428 52.6959 0.0000 -6.2905 0.0000
# 3 92.1608 52.6959 137.2485 0.0000 -2.5223 0.0000
# 4 0.0000 0.0000 0.0000 7.5615 0.0000 -27.5575
# 5 -16.2570 -6.2905 -2.5223 0.0000 48.2351 0.0000
# 6 0.0000 0.0000 0.0000 -27.5575 0.0000 14.5774
#
#
#
# Elastic Compliance Matrix: (Units=1/GPa)
#
#
# Indices 1 2 3 4 5 6 
#
# 1 0.022852 -0.000858 -0.014891 0.000000 0.006812 0.000000
# 2 -0.000858 0.007974 -0.002474 0.000000 0.000621 0.000000
# 3 -0.014891 -0.002474 0.018154 0.000000 -0.004392 0.000000
# 4 0.000000 0.000000 0.000000 -0.022455 0.000000 -0.042449
# 5 0.006812 0.000621 -0.004392 0.000000 0.022879 0.000000
# 6 0.000000 0.000000 0.000000 -0.042449 0.000000 -0.011648
#
#
# Mechanical properties :
#
#
# Convention : Reuss Voigt Hill
#
# Bulk Modulus (GPa) = 79.77481 85.26299 82.51890
# Shear Modulus (GPa) = 63.79185 27.91728 45.85456
#
# Velocity S-wave (km/s) = 5.41186 3.58014 4.58834
# Velocity P-wave (km/s) = 8.69927 7.49907 8.12137
#
# Compressibility (1/GPa) = 0.01253528
#
# Stress axis : x y z
#
# Youngs Moduli (GPa) = 43.75900 125.41414 55.08404
#
# Poissons Ratio (x) = 0.10758 0.82023
# Poissons Ratio (y) = 0.03754 0.13628
# Poissons Ratio (z) = 0.65160 0.31027
#
# Static dielectric constant tensor:
#      x y z
#    x 1.873810 0.000000 -0.041880 
#    y 0.000000 3.183430 0.000000 
#    z -0.041880 0.000000 1.825280 
# 
# From -- ./inp_files/25393.got.cif
#   From: 2010.05.17/outbox.cif.g08.bks.cpg/sg15_13_cif.got.tgz:25393.got - 2010.06.03 18:47:42.
