data_PCOD9277402
_publ_section_title
;
Structure prediction by ZEFSAII (Michael W. Deem and Ramdas Pophale) SiO2 
 PCOD9277402
Probable space group: C 2/C
;
_chemical_formula_sum "Si O2"
_cell_formula_units_Z 40
_cell_length_a 9.450807
_cell_length_b 10.247090
_cell_length_c 27.721033
_cell_angle_alpha 90.000000
_cell_angle_beta 133.627466
_cell_angle_gamma 90.000000
_cell_volume 1943.220798
_symmetry_space_group_name_H-M "C 2/C"
_symmetry_group_IT_number 15
_symmetry_cell_setting 'monoclinic'
loop_
_space_group_symop_operation_xyz
x,y,z
-x,y,1/2-z
-x,-y,-z
x,-y,1/2+z
1/2+x,1/2+y,z
1/2-x,1/2+y,1/2-z
1/2-x,1/2-y,-z
1/2+x,1/2-y,1/2+z
loop_
_atom_site_type_symbol
_atom_site_label
_atom_site_fract_x
_atom_site_fract_y
_atom_site_fract_z
Si Si1 0.997349 0.727964 0.909842
Si Si2 0.696953 0.916371 0.054130
Si Si3 0.673003 0.468904 0.003502
Si Si4 0.947795 0.940266 0.294191
Si Si5 0.315606 0.176348 0.239903
O O1 0.879900 0.703141 0.932035
O O2 0.846988 0.756812 0.832324
O O3 0.134954 0.603414 0.929630
O O4 0.115510 0.857994 0.950544
O O5 0.864078 0.973034 0.129056
O O6 0.500000 0.000000 0.000000
O O7 0.780882 0.907688 0.019837
O O8 0.500000 0.500000 0.000000
O O9 0.780864 0.047367 0.261667
O O10 0.000000 0.936948 0.250000
O O11 0.881839 0.792191 0.291328
O O12 0.500000 0.140834 0.250000
#
# Coordination Sequence:
#
# PCOD9277402 Si02
#       5
#     8   8   8   8   8
#     4  10  20  41  62  86 129 167 201 266 321 376
#     4  10  20  41  67  88 125 169 209 262 321 377
#     4  10  22  38  64  94 122 160 216 264 317 377
#     4  11  23  44  65  95 127 171 215 261 323 384
#     4  11  23  42  65  91 132 171 214 263 320 383
#
# _framework density 20.584384
#
# number of rings (size 3 to 8) (size 9 to 14) (size 15 to 20)
#    0.000    1.600    6.000    0.000    0.000    3.200 
#    3.600    0.000    0.000    0.000    0.000    0.000 
#    0.000    0.000    0.000    0.000    0.000    0.000 
#
# Total GULP energy -111418.319892 kJ/mol
# GULP energy per Si atom -5570.915995 kJ/mol
# Density = 2.053753 g / cm^3
# Si number density = 20.584384 Si / 1000 Ang^3
#
#
#
# Elastic Constant Matrix: (Units=GPa)
#
#
# Indices 1 2 3 4 5 6 
#
# 1 110.5882 37.8091 5.7727 0.0000 14.5584 0.0000
# 2 37.8091 87.2753 0.6285 0.0000 9.3279 0.0000
# 3 5.7727 0.6285 68.3269 0.0000 24.3028 0.0000
# 4 0.0000 0.0000 0.0000 8.1317 0.0000 4.7582
# 5 14.5584 9.3279 24.3028 0.0000 22.6519 0.0000
# 6 0.0000 0.0000 0.0000 4.7582 0.0000 37.5117
#
#
#
# Elastic Compliance Matrix: (Units=1/GPa)
#
#
# Indices 1 2 3 4 5 6 
#
# 1 0.011345 -0.004132 0.001727 0.000000 -0.007442 0.000000
# 2 -0.004132 0.013797 0.002100 0.000000 -0.005279 0.000000
# 3 0.001727 0.002100 0.024535 0.000000 -0.028298 0.000000
# 4 0.000000 0.000000 0.000000 0.132835 0.000000 -0.016849
# 5 -0.007442 -0.005279 -0.028298 0.000000 0.081464 0.000000
# 6 0.000000 0.000000 0.000000 -0.016849 0.000000 0.028796
#
#
# Mechanical properties :
#
#
# Convention : Reuss Voigt Hill
#
# Bulk Modulus (GPa) = 20.38046 39.40122 29.89084
# Shear Modulus (GPa) = 16.14270 28.45773 22.30022
#
# Velocity S-wave (km/s) = 2.80343 3.72222 3.29501
# Velocity P-wave (km/s) = 4.51679 6.13646 5.38783
#
# Compressibility (1/GPa) = 0.04906661
#
# Stress axis : x y z
#
# Youngs Moduli (GPa) = 88.14625 72.47942 40.75732
#
# Poissons Ratio (x) = 0.29947 -0.07037
# Poissons Ratio (y) = 0.36420 -0.08558
# Poissons Ratio (z) = -0.15220 -0.15219
#
# Static dielectric constant tensor:
#      x y z
#    x 1.750330 0.000000 0.029990 
#    y 0.000000 1.816520 0.000000 
#    z 0.029990 0.000000 1.751810 
# 
# From -- ./inp_files/229793.got.cif
#   From: 2010.05.17/outbox.cif.g08.bks.cpg/sg15_115_cif.got.tgz:229793.got - 2010.06.03 18:47:42.
