data_PCOD9277212
_publ_section_title
;
Structure prediction by ZEFSAII (Michael W. Deem and Ramdas Pophale) SiO2 
 PCOD9277212
Probable space group: C 2/C
;
_chemical_formula_sum "Si O2"
_cell_formula_units_Z 56
_cell_length_a 16.458955
_cell_length_b 9.041814
_cell_length_c 22.295607
_cell_angle_alpha 90.000000
_cell_angle_beta 120.180482
_cell_angle_gamma 90.000000
_cell_volume 2868.237108
_symmetry_space_group_name_H-M "C 2/C"
_symmetry_group_IT_number 15
_symmetry_cell_setting 'monoclinic'
loop_
_space_group_symop_operation_xyz
x,y,z
-x,y,1/2-z
-x,-y,-z
x,-y,1/2+z
1/2+x,1/2+y,z
1/2-x,1/2+y,1/2-z
1/2-x,1/2-y,-z
1/2+x,1/2-y,1/2+z
loop_
_atom_site_type_symbol
_atom_site_label
_atom_site_fract_x
_atom_site_fract_y
_atom_site_fract_z
Si Si1 0.387652 0.188756 0.571713
Si Si2 0.498956 0.929372 0.933811
Si Si3 0.196063 0.715037 0.181193
Si Si4 0.856608 0.032321 0.749733
Si Si5 0.933422 0.020599 0.147887
Si Si6 0.694854 0.389882 0.058225
Si Si7 0.845665 0.175335 0.512312
O O1 0.410408 0.307368 0.631341
O O2 0.375866 0.280880 0.504859
O O3 0.288316 0.116698 0.552045
O O4 0.462962 0.060340 0.594181
O O5 0.399892 0.870046 0.872760
O O6 0.574849 0.798102 0.965146
O O7 0.500000 0.000000 0.000000
O O8 0.279006 0.596938 0.222182
O O9 0.213753 0.821710 0.130318
O O10 0.181765 0.819020 0.233846
O O11 0.892449 0.042498 0.694507
O O12 0.955112 0.996107 0.818876
O O13 0.880296 0.934037 0.076772
O O14 0.665035 0.561862 0.047439
O O15 0.750000 0.250000 0.500000
#
# Coordination Sequence:
#
# PCOD9277212 Si02
#       7
#     8   8   8   8   8   8   8
#     4  10  20  40  69  98 126 169 212 268 333 402
#     4  12  25  41  67 104 135 163 215 286 349 394
#     4  12  26  46  62 100 134 173 224 276 332 389
#     4  11  26  45  66  90 136 184 223 268 321 398
#     4  10  23  46  69  91 130 183 229 260 322 412
#     4  10  21  40  68  97 131 164 216 268 335 394
#     4  11  23  40  71 103 130 169 216 283 340 387
#
# _framework density 19.524187999999999
#
# number of rings (size 3 to 8) (size 9 to 14) (size 15 to 20)
#    0.000    1.143    5.714    0.000    4.000    2.857 
#    0.000    0.000    0.000    0.000    0.000    0.000 
#    0.000    0.000    0.000    0.000    0.000    0.000 
#
# Total GULP energy -156291.967916 kJ/mol
# GULP energy per Si atom -5581.855997 kJ/mol
# Density = 1.947975 g / cm^3
# Si number density = 19.524188 Si / 1000 Ang^3
#
#
#
# Elastic Constant Matrix: (Units=GPa)
#
#
# Indices 1 2 3 4 5 6 
#
# 1 99.3673 65.6985 42.3661 0.0000 21.1860 0.0000
# 2 65.6985 131.5602 45.0032 0.0000 10.3167 0.0000
# 3 42.3661 45.0032 62.4986 0.0000 15.6258 0.0000
# 4 0.0000 0.0000 0.0000 37.5379 0.0000 6.0016
# 5 21.1860 10.3167 15.6258 0.0000 34.5716 0.0000
# 6 0.0000 0.0000 0.0000 6.0016 0.0000 33.9093
#
#
#
# Elastic Compliance Matrix: (Units=1/GPa)
#
#
# Indices 1 2 3 4 5 6 
#
# 1 0.018428 -0.006603 -0.006096 0.000000 -0.006568 0.000000
# 2 -0.006603 0.012454 -0.005157 0.000000 0.002661 0.000000
# 3 -0.006096 -0.005157 0.025397 0.000000 -0.006205 0.000000
# 4 0.000000 0.000000 0.000000 0.027416 0.000000 -0.004852
# 5 -0.006568 0.002661 -0.006205 0.000000 0.034961 0.000000
# 6 0.000000 0.000000 0.000000 -0.004852 0.000000 0.030349
#
#
# Mechanical properties :
#
#
# Convention : Reuss Voigt Hill
#
# Bulk Modulus (GPa) = 48.61790 66.61796 57.61793
# Shear Modulus (GPa) = 26.09993 30.56097 28.33045
#
# Velocity S-wave (km/s) = 3.66019 3.96066 3.81339
# Velocity P-wave (km/s) = 6.54356 7.42365 6.99745
#
# Compressibility (1/GPa) = 0.02056856
#
# Stress axis : x y z
#
# Youngs Moduli (GPa) = 54.26433 80.29758 39.37448
#
# Poissons Ratio (x) = 0.53017 0.24002
# Poissons Ratio (y) = 0.35828 0.20306
# Poissons Ratio (z) = 0.33078 0.41410
#
# Static dielectric constant tensor:
#      x y z
#    x 1.695950 0.000000 -0.003460 
#    y 0.000000 1.687580 0.000000 
#    z -0.003460 0.000000 1.692110 
# 
# From -- ./inp_files/273237.got.cif
#   From: 2010.05.17/outbox.cif.g08.bks.cpg/sg15_137_cif.got.tgz:273237.got - 2010.06.03 18:47:42.
