data_PCOD9277403
_publ_section_title
;
Structure prediction by ZEFSAII (Michael W. Deem and Ramdas Pophale) SiO2 
 PCOD9277403
Probable space group: C 2/C
;
_chemical_formula_sum "Si O2"
_cell_formula_units_Z 40
_cell_length_a 8.743355
_cell_length_b 13.365846
_cell_length_c 16.897682
_cell_angle_alpha 90.000000
_cell_angle_beta 85.059000
_cell_angle_gamma 90.000000
_cell_volume 1967.364442
_symmetry_space_group_name_H-M "C 2/C"
_symmetry_group_IT_number 15
_symmetry_cell_setting 'monoclinic'
loop_
_space_group_symop_operation_xyz
x,y,z
-x,y,1/2-z
-x,-y,-z
x,-y,1/2+z
1/2+x,1/2+y,z
1/2-x,1/2+y,1/2-z
1/2-x,1/2-y,-z
1/2+x,1/2-y,1/2+z
loop_
_atom_site_type_symbol
_atom_site_label
_atom_site_fract_x
_atom_site_fract_y
_atom_site_fract_z
Si Si1 0.383454 0.461577 0.439153
Si Si2 0.302112 0.858552 0.637802
Si Si3 0.665429 0.002454 0.719292
Si Si4 0.400133 0.334795 0.185326
Si Si5 0.601215 0.073745 0.049104
O O1 0.500000 0.500000 0.500000
O O2 0.307548 0.562326 0.402894
O O3 0.482093 0.390049 0.378398
O O4 0.245008 0.400479 0.487544
O O5 0.276822 0.740746 0.651085
O O6 0.469758 0.853572 0.588029
O O7 0.316038 0.908109 0.723807
O O8 0.500000 0.046513 0.750000
O O9 0.800885 0.078342 0.729960
O O10 0.665397 0.976454 0.626556
O O11 0.500000 0.283621 0.250000
O O12 0.500000 0.000000 0.000000
#
# Coordination Sequence:
#
# PCOD9277403 Si02
#       5
#     8   8   8   8   8
#     4  11  22  40  64  94 132 165 212 282 321 382
#     4  10  23  42  64  90 129 170 216 265 322 396
#     4  10  20  41  62  86 129 168 214 271 320 385
#     4  12  23  41  68  96 124 175 227 265 330 392
#     4   9  19  38  62  86 127 168 198 265 334 370
#
# _framework density 20.331769999999999
#
# number of rings (size 3 to 8) (size 9 to 14) (size 15 to 20)
#    0.000    1.600    4.000    1.800    0.000    1.600 
#    3.600    0.000    0.000    0.000    0.000    0.000 
#    0.000    0.000    0.000    0.000    0.000    0.000 
#
# Total GULP energy -111353.921975 kJ/mol
# GULP energy per Si atom -5567.696099 kJ/mol
# Density = 2.028549 g / cm^3
# Si number density = 20.331770 Si / 1000 Ang^3
#
#
#
# Elastic Constant Matrix: (Units=GPa)
#
#
# Indices 1 2 3 4 5 6 
#
# 1 72.4370 41.2539 39.1198 0.0000 -6.3146 0.0000
# 2 41.2539 84.3579 34.3638 0.0000 -11.6830 0.0000
# 3 39.1198 34.3638 105.5632 0.0000 3.4680 0.0000
# 4 0.0000 0.0000 0.0000 12.8579 0.0000 2.3612
# 5 -6.3146 -11.6830 3.4680 0.0000 48.9234 0.0000
# 6 0.0000 0.0000 0.0000 2.3612 0.0000 31.9104
#
#
#
# Elastic Compliance Matrix: (Units=1/GPa)
#
#
# Indices 1 2 3 4 5 6 
#
# 1 0.021423 -0.008140 -0.005329 0.000000 0.001199 0.000000
# 2 -0.008140 0.017418 -0.002762 0.000000 0.003305 0.000000
# 3 -0.005329 -0.002762 0.012420 0.000000 -0.002228 0.000000
# 4 0.000000 0.000000 0.000000 0.078845 0.000000 -0.005834
# 5 0.001199 0.003305 -0.002228 0.000000 0.021542 0.000000
# 6 0.000000 0.000000 0.000000 -0.005834 0.000000 0.031769
#
#
# Mechanical properties :
#
#
# Convention : Reuss Voigt Hill
#
# Bulk Modulus (GPa) = 53.19233 54.64814 53.92024
# Shear Modulus (GPa) = 22.50784 28.57971 25.54377
#
# Velocity S-wave (km/s) = 3.33081 3.75329 3.54834
# Velocity P-wave (km/s) = 6.40401 6.76162 6.58524
#
# Compressibility (1/GPa) = 0.01879970
#
# Stress axis : x y z
#
# Youngs Moduli (GPa) = 46.67843 57.41269 80.51532
#
# Poissons Ratio (x) = 0.46734 0.42904
# Poissons Ratio (y) = 0.37996 0.22238
# Poissons Ratio (z) = 0.24873 0.15858
#
# Static dielectric constant tensor:
#      x y z
#    x 1.738650 0.000000 -0.016450 
#    y 0.000000 1.715400 0.000000 
#    z -0.016450 0.000000 1.748370 
# 
# From -- ./inp_files/187808.got.cif
#   From: 2010.05.17/outbox.cif.g08.bks.cpg/sg15_94_cif.got.tgz:187808.got - 2010.06.03 18:47:42.
