data_PCOD9277905
_publ_section_title
;
Structure prediction by ZEFSAII (Michael W. Deem and Ramdas Pophale) SiO2 
 PCOD9277905
Probable space group: C 2/C
;
_chemical_formula_sum "Si O2"
_cell_formula_units_Z 48
_cell_length_a 12.721344
_cell_length_b 23.091233
_cell_length_c 5.904342
_cell_angle_alpha 90.000000
_cell_angle_beta 88.254547
_cell_angle_gamma 90.000000
_cell_volume 1733.604681
_symmetry_space_group_name_H-M "C 2/C"
_symmetry_group_IT_number 15
_symmetry_cell_setting 'monoclinic'
loop_
_space_group_symop_operation_xyz
x,y,z
-x,y,1/2-z
-x,-y,-z
x,-y,1/2+z
1/2+x,1/2+y,z
1/2-x,1/2+y,1/2-z
1/2-x,1/2-y,-z
1/2+x,1/2-y,1/2+z
loop_
_atom_site_type_symbol
_atom_site_label
_atom_site_fract_x
_atom_site_fract_y
_atom_site_fract_z
Si Si1 0.148289 0.303531 0.229661
Si Si2 0.288676 0.142361 0.382035
Si Si3 0.866305 0.809993 0.967540
Si Si4 0.000000 0.411899 0.250000
Si Si5 0.449033 0.568399 0.507272
Si Si6 0.239168 0.513129 0.992099
Si Si7 0.500000 0.083580 0.250000
O O1 0.162581 0.301668 0.495830
O O2 0.091469 0.253350 0.095222
O O3 0.095813 0.366439 0.220116
O O4 0.267768 0.304503 0.139588
O O5 0.190963 0.166072 0.252614
O O6 0.244784 0.082800 0.502958
O O7 0.391489 0.119836 0.244126
O O8 0.936806 0.862695 0.034762
O O9 0.010175 0.441251 0.493845
O O10 0.500000 0.551778 0.750000
O O11 0.341145 0.529921 0.495855
O O12 0.500000 0.563052 0.250000
O O13 0.189017 0.500017 0.246265
#
# Coordination Sequence:
#
# PCOD9277905 Si02
#       7
#     8   8   8   4   8   8   4
#     4  10  23  41  74 105 147 193 244 301 382 446
#     4  11  23  45  72 105 147 192 248 304 378 447
#     4  11  23  46  70 107 146 196 243 313 374 449
#     4  10  20  42  62 103 140 180 235 282 366 438
#     4  12  29  51  73 109 149 200 261 310 371 440
#     4  12  26  47  75 101 145 195 248 310 370 433
#     4  10  22  40  72 101 138 182 231 298 358 448
#
# _framework density 27.687974000000001
#
# number of rings (size 3 to 8) (size 9 to 14) (size 15 to 20)
#    0.000    1.000    3.333    2.500    3.500    2.000 
#    1.500    0.833    0.000    0.000    0.000    0.000 
#    0.000    0.000    0.000    0.000    0.000    0.000 
#
# Total GULP energy -133854.171469 kJ/mol
# GULP energy per Si atom -5577.257145 kJ/mol
# Density = 2.762495 g / cm^3
# Si number density = 27.687974 Si / 1000 Ang^3
#
#
#
# Elastic Constant Matrix: (Units=GPa)
#
#
# Indices 1 2 3 4 5 6 
#
# 1 64.0971 18.8657 57.1536 0.0000 -7.5371 0.0000
# 2 18.8657 169.8169 59.2656 0.0000 -8.1560 0.0000
# 3 57.1536 59.2656 216.7288 0.0000 2.4630 0.0000
# 4 0.0000 0.0000 0.0000 66.8956 0.0000 22.4270
# 5 -7.5371 -8.1560 2.4630 0.0000 65.7762 0.0000
# 6 0.0000 0.0000 0.0000 22.4270 0.0000 25.5403
#
#
#
# Elastic Compliance Matrix: (Units=1/GPa)
#
#
# Indices 1 2 3 4 5 6 
#
# 1 0.020844 -0.000292 -0.005446 0.000000 0.002556 0.000000
# 2 -0.000292 0.006565 -0.001728 0.000000 0.000845 0.000000
# 3 -0.005446 -0.001728 0.006535 0.000000 -0.001083 0.000000
# 4 0.000000 0.000000 0.000000 0.021185 0.000000 -0.018603
# 5 0.002556 0.000845 -0.001083 0.000000 0.015641 0.000000
# 6 0.000000 0.000000 0.000000 -0.018603 0.000000 0.055489
#
#
# Mechanical properties :
#
#
# Convention : Reuss Voigt Hill
#
# Bulk Modulus (GPa) = 52.59875 80.13474 66.36675
# Shear Modulus (GPa) = 33.89183 52.66628 43.27906
#
# Velocity S-wave (km/s) = 3.50246 4.36608 3.95789
# Velocity P-wave (km/s) = 5.94933 7.37711 6.70135
#
# Compressibility (1/GPa) = 0.01901186
#
# Stress axis : x y z
#
# Youngs Moduli (GPa) = 47.97577 152.32955 153.02363
#
# Poissons Ratio (x) = 0.04452 0.83334
# Poissons Ratio (y) = 0.01402 0.26438
# Poissons Ratio (z) = 0.26127 0.26318
#
# Static dielectric constant tensor:
#      x y z
#    x 2.254720 0.000000 0.062150 
#    y 0.000000 2.139800 0.000000 
#    z 0.062150 0.000000 1.632090 
# 
# From -- ./inp_files/10707.got.cif
#   From: 2010.05.17/outbox.cif.g08.bks.cpg/sg15_6_cif.got.tgz:10707.got - 2010.06.03 18:47:42.
