data_PCOD9277826
_publ_section_title
;
Structure prediction by ZEFSAII (Michael W. Deem and Ramdas Pophale) SiO2 
 PCOD9277826
Probable space group: C 2/C
;
_chemical_formula_sum "Si O2"
_cell_formula_units_Z 64
_cell_length_a 8.959881
_cell_length_b 17.104401
_cell_length_c 18.345311
_cell_angle_alpha 90.000000
_cell_angle_beta 101.340050
_cell_angle_gamma 90.000000
_cell_volume 2756.593962
_symmetry_space_group_name_H-M "C 2/C"
_symmetry_group_IT_number 15
_symmetry_cell_setting 'monoclinic'
loop_
_space_group_symop_operation_xyz
x,y,z
-x,y,1/2-z
-x,-y,-z
x,-y,1/2+z
1/2+x,1/2+y,z
1/2-x,1/2+y,1/2-z
1/2-x,1/2-y,-z
1/2+x,1/2-y,1/2+z
loop_
_atom_site_type_symbol
_atom_site_label
_atom_site_fract_x
_atom_site_fract_y
_atom_site_fract_z
Si Si1 0.262283 0.135185 0.631965
Si Si2 0.537214 0.726964 0.514266
Si Si3 0.684663 0.744066 0.758697
Si Si4 0.535951 0.479973 0.168886
Si Si5 0.880265 0.601835 0.507865
Si Si6 0.186132 0.152292 0.902068
Si Si7 0.372144 0.357310 0.868428
Si Si8 0.340795 0.936661 0.534849
O O1 0.237630 0.205122 0.687850
O O2 0.412588 0.118617 0.599120
O O3 0.153668 0.161241 0.553951
O O4 0.199919 0.058389 0.666329
O O5 0.622498 0.809346 0.522486
O O6 0.403027 0.719625 0.561627
O O7 0.465902 0.701537 0.429886
O O8 0.500000 0.756714 0.750000
O O9 0.720497 0.682263 0.825925
O O10 0.787391 0.817248 0.792387
O O11 0.500000 0.471385 0.250000
O O12 0.423026 0.422446 0.115769
O O13 0.525881 0.569695 0.145612
O O14 0.778161 0.523157 0.513138
O O15 0.977741 0.561784 0.449866
O O16 0.320492 0.122075 0.964702
O O17 0.242887 0.395937 0.907149
#
# Coordination Sequence:
#
# PCOD9277826 Si02
#       8
#     8   8   8   8   8   8   8   8
#     4  11  22  41  66  93 129 174 212 266 327 388
#     4  10  22  40  66  96 125 165 215 270 314 376
#     4  12  22  43  68  94 127 174 216 265 332 396
#     4  11  21  42  67  93 125 167 222 270 315 384
#     4  11  22  40  60  95 140 163 211 268 327 381
#     4  10  20  41  71  90 124 174 223 259 320 386
#     4  11  25  41  69  97 130 165 222 271 320 383
#     4  10  23  39  65  97 130 175 210 269 324 388
#
# _framework density 23.217057
#
# number of rings (size 3 to 8) (size 9 to 14) (size 15 to 20)
#    0.000    1.250    5.000    1.875    1.750    4.500 
#    2.250    1.875    0.000    0.000    0.000    0.000 
#    0.000    0.000    0.000    0.000    0.000    0.000 
#
# Total GULP energy -178171.374161 kJ/mol
# GULP energy per Si atom -5567.855443 kJ/mol
# Density = 2.316421 g / cm^3
# Si number density = 23.217057 Si / 1000 Ang^3
#
#
#
# Elastic Constant Matrix: (Units=GPa)
#
#
# Indices 1 2 3 4 5 6 
#
# 1 28.6352 8.5707 26.5932 0.0000 -16.8373 0.0000
# 2 8.5707 111.8214 17.5039 0.0000 -4.6416 0.0000
# 3 26.5932 17.5039 91.9693 0.0000 -15.1745 0.0000
# 4 0.0000 0.0000 0.0000 28.7605 0.0000 -4.5169
# 5 -16.8373 -4.6416 -15.1745 0.0000 37.0538 0.0000
# 6 0.0000 0.0000 0.0000 -4.5169 0.0000 26.2381
#
#
#
# Elastic Compliance Matrix: (Units=1/GPa)
#
#
# Indices 1 2 3 4 5 6 
#
# 1 0.061038 -0.001620 -0.013726 0.000000 0.021912 0.000000
# 2 -0.001620 0.009268 -0.001314 0.000000 -0.000113 0.000000
# 3 -0.013726 -0.001314 0.015053 0.000000 -0.000237 0.000000
# 4 0.000000 0.000000 0.000000 0.035736 0.000000 0.006152
# 5 0.021912 -0.000113 -0.000237 0.000000 0.036833 0.000000
# 6 0.000000 0.000000 0.000000 0.006152 0.000000 0.039172
#
#
# Mechanical properties :
#
#
# Convention : Reuss Voigt Hill
#
# Bulk Modulus (GPa) = 19.21643 37.52906 28.37274
# Shear Modulus (GPa) = 20.18036 30.39436 25.28736
#
# Velocity S-wave (km/s) = 2.95142 3.62213 3.30384
# Velocity P-wave (km/s) = 4.46199 5.80453 5.17697
#
# Compressibility (1/GPa) = 0.05203881
#
# Stress axis : x y z
#
# Youngs Moduli (GPa) = 16.38333 107.89795 66.43199
#
# Poissons Ratio (x) = 0.17482 0.91181
# Poissons Ratio (y) = 0.02655 0.08730
# Poissons Ratio (z) = 0.22487 0.14179
#
# Static dielectric constant tensor:
#      x y z
#    x 2.671540 0.000000 -0.129100 
#    y 0.000000 1.938720 0.000000 
#    z -0.129100 0.000000 1.868080 
# 
# From -- ./inp_files/198342.got.cif
#   From: 2010.05.17/outbox.cif.g08.bks.cpg/sg15_100_cif.got.tgz:198342.got - 2010.06.03 18:47:42.
