data_PCOD9277446
_publ_section_title
;
Structure prediction by ZEFSAII (Michael W. Deem and Ramdas Pophale) SiO2 
 PCOD9277446
Probable space group: C 2/C
;
_chemical_formula_sum "Si O2"
_cell_formula_units_Z 64
_cell_length_a 10.541195
_cell_length_b 13.220221
_cell_length_c 22.291443
_cell_angle_alpha 90.000000
_cell_angle_beta 67.296860
_cell_angle_gamma 90.000000
_cell_volume 2865.768434
_symmetry_space_group_name_H-M "C 2/C"
_symmetry_group_IT_number 15
_symmetry_cell_setting 'monoclinic'
loop_
_space_group_symop_operation_xyz
x,y,z
-x,y,1/2-z
-x,-y,-z
x,-y,1/2+z
1/2+x,1/2+y,z
1/2-x,1/2+y,1/2-z
1/2-x,1/2-y,-z
1/2+x,1/2-y,1/2+z
loop_
_atom_site_type_symbol
_atom_site_label
_atom_site_fract_x
_atom_site_fract_y
_atom_site_fract_z
Si Si1 0.139631 0.859779 0.878007
Si Si2 0.785581 0.317700 0.074324
Si Si3 0.888941 0.522840 0.467835
Si Si4 0.641372 0.449364 0.448909
Si Si5 0.651176 0.998471 0.351714
Si Si6 0.051934 0.956200 0.673909
Si Si7 0.641215 0.152503 0.259276
Si Si8 0.966612 0.825808 0.137614
O O1 0.125858 0.782291 0.934441
O O2 0.197091 0.963926 0.893649
O O3 0.243084 0.818676 0.809280
O O4 0.002706 0.884050 0.867610
O O5 0.831244 0.385952 0.124231
O O6 0.624903 0.290736 0.104096
O O7 0.813778 0.380190 0.009165
O O8 0.766907 0.444346 0.473404
O O9 0.000000 0.500000 0.500000
O O10 0.997341 0.535345 0.394387
O O11 0.500000 0.500000 0.500000
O O12 0.599472 0.356274 0.414198
O O13 0.783957 0.045903 0.360107
O O14 0.674575 0.041850 0.280901
O O15 0.000000 0.928753 0.750000
O O16 0.989742 0.068193 0.670343
O O17 0.500000 0.147035 0.250000
O O18 0.621567 0.240882 0.312257
#
# Coordination Sequence:
#
# PCOD9277446 Si02
#       8
#     8   8   8   8   8   8   8   8
#     4  11  24  37  64  97 128 166 222 273 322 392
#     4  10  21  42  64  92 126 175 216 272 332 394
#     4  10  22  42  65  91 128 168 215 272 335 380
#     4  11  23  43  68  98 130 170 229 275 319 398
#     4  10  23  41  65  87 129 172 213 270 335 388
#     4  10  20  41  63  89 125 179 215 262 328 405
#     4  12  22  38  62  98 130 165 216 273 329 393
#     4  10  22  37  68  94 126 171 223 267 328 398
#
# _framework density 22.33258
#
# number of rings (size 3 to 8) (size 9 to 14) (size 15 to 20)
#    0.000    1.500    3.750    1.125    3.500    1.500 
#    4.500    1.250    0.000    0.000    0.000    0.000 
#    0.000    0.000    0.000    0.000    0.000    0.000 
#
# Total GULP energy -178408.135252 kJ/mol
# GULP energy per Si atom -5575.254227 kJ/mol
# Density = 2.228175 g / cm^3
# Si number density = 22.332580 Si / 1000 Ang^3
#
#
#
# Elastic Constant Matrix: (Units=GPa)
#
#
# Indices 1 2 3 4 5 6 
#
# 1 130.1392 19.5034 21.7098 0.0000 5.5298 0.0000
# 2 19.5034 54.7771 18.5574 0.0000 9.8684 0.0000
# 3 21.7098 18.5574 62.9183 0.0000 -1.0606 0.0000
# 4 0.0000 0.0000 0.0000 48.5278 0.0000 5.7024
# 5 5.5298 9.8684 -1.0606 0.0000 44.2047 0.0000
# 6 0.0000 0.0000 0.0000 5.7024 0.0000 15.0816
#
#
#
# Elastic Compliance Matrix: (Units=1/GPa)
#
#
# Indices 1 2 3 4 5 6 
#
# 1 0.008409 -0.002103 -0.002292 0.000000 -0.000637 0.000000
# 2 -0.002103 0.021821 -0.005791 0.000000 -0.004747 0.000000
# 3 -0.002292 -0.005791 0.018426 0.000000 0.002022 0.000000
# 4 0.000000 0.000000 0.000000 0.021565 0.000000 -0.008154
# 5 -0.000637 -0.004747 0.002022 0.000000 0.023810 0.000000
# 6 0.000000 0.000000 0.000000 -0.008154 0.000000 0.069389
#
#
# Mechanical properties :
#
#
# Convention : Reuss Voigt Hill
#
# Bulk Modulus (GPa) = 35.35301 40.81953 38.08627
# Shear Modulus (GPa) = 25.87732 34.10043 29.98887
#
# Velocity S-wave (km/s) = 3.40770 3.91184 3.66844
# Velocity P-wave (km/s) = 5.59891 6.22262 5.91899
#
# Compressibility (1/GPa) = 0.02828613
#
# Stress axis : x y z
#
# Youngs Moduli (GPa) = 118.92562 45.82646 54.26979
#
# Poissons Ratio (x) = 0.09635 0.12438
# Poissons Ratio (y) = 0.25005 0.31426
# Poissons Ratio (z) = 0.27257 0.26537
#
# Static dielectric constant tensor:
#      x y z
#    x 1.838470 0.000000 0.014310 
#    y 0.000000 1.868770 0.000000 
#    z 0.014310 0.000000 1.931420 
# 
# From -- ./inp_files/269264.got.cif
#   From: 2010.05.17/outbox.cif.g08.bks.cpg/sg15_135_cif.got.tgz:269264.got - 2010.06.03 18:47:42.
