data_PCOD9277391
_publ_section_title
;
Structure prediction by ZEFSAII (Michael W. Deem and Ramdas Pophale) SiO2 
 PCOD9277391
Probable space group: C 2/C
;
_chemical_formula_sum "Si O2"
_cell_formula_units_Z 48
_cell_length_a 17.912742
_cell_length_b 23.020126
_cell_length_c 5.923735
_cell_angle_alpha 90.000000
_cell_angle_beta 54.426159
_cell_angle_gamma 90.000000
_cell_volume 1986.788530
_symmetry_space_group_name_H-M "C 2/C"
_symmetry_group_IT_number 15
_symmetry_cell_setting 'monoclinic'
loop_
_space_group_symop_operation_xyz
x,y,z
-x,y,1/2-z
-x,-y,-z
x,-y,1/2+z
1/2+x,1/2+y,z
1/2-x,1/2+y,1/2-z
1/2-x,1/2-y,-z
1/2+x,1/2-y,1/2+z
loop_
_atom_site_type_symbol
_atom_site_label
_atom_site_fract_x
_atom_site_fract_y
_atom_site_fract_z
Si Si1 0.126162 0.479319 0.383855
Si Si2 0.173292 0.166120 0.208329
Si Si3 0.794160 0.065279 0.060649
Si Si4 0.595964 0.243968 0.204451
Si Si5 0.000000 0.815969 0.750000
Si Si6 0.800856 0.640134 0.626472
Si Si7 0.500000 0.471662 0.250000
O O1 0.089508 0.501078 0.698168
O O2 0.227967 0.510138 0.194208
O O3 0.131343 0.409297 0.393809
O O4 0.226525 0.109914 0.204477
O O5 0.150091 0.210566 0.449133
O O6 0.073037 0.150904 0.277703
O O7 0.245929 0.183063 0.889265
O O8 0.773258 0.100366 0.870447
O O9 0.901191 0.057390 0.904658
O O10 0.500000 0.230846 0.250000
O O11 0.565857 0.275674 0.484165
O O12 0.648381 0.183510 0.133445
O O13 0.500000 0.500000 0.500000
#
# Coordination Sequence:
#
# PCOD9277391 Si02
#       7
#     8   8   8   8   4   8   4
#     4  10  20  41  61  96 134 172 219 278 333 404
#     4  11  23  40  65  96 133 176 226 285 350 417
#     4  11  25  38  63  97 134 182 227 280 347 414
#     4  10  24  45  66  96 132 179 229 293 359 418
#     4  10  24  43  62  92 140 170 229 284 344 418
#     4  11  23  41  69  97 135 176 235 289 349 420
#     4  12  28  43  64  96 148 192 237 278 342 418
#
# _framework density 24.159592
#
# number of rings (size 3 to 8) (size 9 to 14) (size 15 to 20)
#    0.000    1.333    1.667    3.500    8.167    5.333 
#    0.000    0.000    0.000    4.000    0.000    0.000 
#    0.000    0.000    0.000    0.000    0.000    0.000 
#
# Total GULP energy -133854.068708 kJ/mol
# GULP energy per Si atom -5577.252863 kJ/mol
# Density = 2.410460 g / cm^3
# Si number density = 24.159592 Si / 1000 Ang^3
#
#
#
# Elastic Constant Matrix: (Units=GPa)
#
#
# Indices 1 2 3 4 5 6 
#
# 1 90.8410 39.5710 18.9754 0.0000 19.8909 0.0000
# 2 39.5710 83.8622 32.9958 0.0000 7.6947 0.0000
# 3 18.9754 32.9958 136.3336 0.0000 26.2197 0.0000
# 4 0.0000 0.0000 0.0000 27.0390 0.0000 -2.2810
# 5 19.8909 7.6947 26.2197 0.0000 26.0823 0.0000
# 6 0.0000 0.0000 0.0000 -2.2810 0.0000 19.6347
#
#
#
# Elastic Compliance Matrix: (Units=1/GPa)
#
#
# Indices 1 2 3 4 5 6 
#
# 1 0.016538 -0.007405 0.001854 0.000000 -0.012292 0.000000
# 2 -0.007405 0.016510 -0.003861 0.000000 0.004658 0.000000
# 3 0.001854 -0.003861 0.009997 0.000000 -0.010325 0.000000
# 4 0.000000 0.000000 0.000000 0.037350 0.000000 0.004339
# 5 -0.012292 0.004658 -0.010325 0.000000 0.056719 0.000000
# 6 0.000000 0.000000 0.000000 0.004339 0.000000 0.051434
#
#
# Mechanical properties :
#
#
# Convention : Reuss Voigt Hill
#
# Bulk Modulus (GPa) = 41.28581 54.90236 48.09409
# Shear Modulus (GPa) = 23.20760 29.18417 26.19589
#
# Velocity S-wave (km/s) = 3.10271 3.47936 3.29642
# Velocity P-wave (km/s) = 5.47372 6.23823 5.86844
#
# Compressibility (1/GPa) = 0.02422140
#
# Stress axis : x y z
#
# Youngs Moduli (GPa) = 60.46598 60.56796 100.03045
#
# Poissons Ratio (x) = 0.44853 -0.18550
# Poissons Ratio (y) = 0.44778 0.38622
# Poissons Ratio (z) = -0.11213 0.23385
#
# Static dielectric constant tensor:
#      x y z
#    x 2.217630 0.000000 -0.533280 
#    y 0.000000 1.958280 0.000000 
#    z -0.533280 0.000000 3.519500 
# 
# From -- ./inp_files/13824.got.cif
#   From: 2010.05.17/outbox.cif.g08.bks.cpg/sg15_7_cif.got.tgz:13824.got - 2010.06.03 18:47:42.
