data_PCOD9277900
_publ_section_title
;
Structure prediction by ZEFSAII (Michael W. Deem and Ramdas Pophale) SiO2 
 PCOD9277900
Probable space group: C 2/C
;
_chemical_formula_sum "Si O2"
_cell_formula_units_Z 56
_cell_length_a 13.557918
_cell_length_b 19.733511
_cell_length_c 17.232199
_cell_angle_alpha 90.000000
_cell_angle_beta 28.354411
_cell_angle_gamma 90.000000
_cell_volume 2189.587538
_symmetry_space_group_name_H-M "C 2/C"
_symmetry_group_IT_number 15
_symmetry_cell_setting 'monoclinic'
loop_
_space_group_symop_operation_xyz
x,y,z
-x,y,1/2-z
-x,-y,-z
x,-y,1/2+z
1/2+x,1/2+y,z
1/2-x,1/2+y,1/2-z
1/2-x,1/2-y,-z
1/2+x,1/2-y,1/2+z
loop_
_atom_site_type_symbol
_atom_site_label
_atom_site_fract_x
_atom_site_fract_y
_atom_site_fract_z
Si Si1 0.913555 0.352712 0.383161
Si Si2 0.743916 0.720145 0.606375
Si Si3 0.490441 0.539880 0.912271
Si Si4 0.294287 0.141638 0.426620
Si Si5 0.519067 0.296025 0.828261
Si Si6 0.070472 0.397998 0.426832
Si Si7 0.702150 0.583869 0.286293
O O1 0.708587 0.319187 0.489634
O O2 0.044167 0.284468 0.314412
O O3 0.000000 0.393674 0.250000
O O4 0.911761 0.391695 0.464832
O O5 0.500000 0.712039 0.750000
O O6 0.791706 0.800149 0.572240
O O7 0.861967 0.686912 0.452024
O O8 0.827093 0.673792 0.617442
O O9 0.729161 0.563582 0.746362
O O10 0.520410 0.461551 0.871380
O O11 0.367649 0.585442 0.936509
O O12 0.363842 0.561384 0.079407
O O13 0.500000 0.109649 0.250000
O O14 0.500000 0.313265 0.750000
O O15 0.670035 0.339686 0.777397
O O16 0.935873 0.429488 0.591553
#
# Coordination Sequence:
#
# PCOD9277900 Si02
#       7
#     8   8   8   8   8   8   8
#     4  10  22  38  66 102 135 165 219 289 342 407
#     4  10  21  39  63 101 134 166 224 283 338 410
#     4  11  25  44  65  96 139 177 231 283 318 404
#     4  10  21  41  64  94 135 171 221 288 339 395
#     4  10  20  42  61  94 134 167 221 279 334 408
#     4  12  23  42  72  99 132 186 221 276 354 399
#     4  11  25  44  65  97 135 184 230 271 330 411
#
# _framework density 25.575593000000001
#
# number of rings (size 3 to 8) (size 9 to 14) (size 15 to 20)
#    0.000    1.429    2.857    2.143    2.000    1.143 
#    2.571    3.571    0.000    0.000    0.000    0.000 
#    0.000    0.000    0.000    0.000    0.000    0.000 
#
# Total GULP energy -155962.390910 kJ/mol
# GULP energy per Si atom -5570.085390 kJ/mol
# Density = 2.551738 g / cm^3
# Si number density = 25.575593 Si / 1000 Ang^3
#
#
#
# Elastic Constant Matrix: (Units=GPa)
#
#
# Indices 1 2 3 4 5 6 
#
# 1 61.8854 3.8382 22.3982 -0.0096 7.1701 0.0060
# 2 3.8382 70.6801 4.8657 -0.0119 -7.4775 0.0112
# 3 22.3982 4.8657 140.4884 -0.0096 5.5340 0.0186
# 4 -0.0096 -0.0119 -0.0096 27.4728 0.0172 -7.3773
# 5 7.1701 -7.4775 5.5340 0.0172 33.6599 -0.0102
# 6 0.0060 0.0112 0.0186 -7.3773 -0.0102 23.0728
#
#
#
# Elastic Compliance Matrix: (Units=1/GPa)
#
#
# Indices 1 2 3 4 5 6 
#
# 1 0.017594 -0.001153 -0.002624 0.000007 -0.003572 -0.000001
# 2 -0.001153 0.014620 -0.000463 0.000002 0.003570 -0.000004
# 3 -0.002624 -0.000463 0.007584 0.000001 -0.000791 -0.000005
# 4 0.000007 0.000002 0.000001 0.039819 -0.000017 0.012732
# 5 -0.003572 0.003570 -0.000791 -0.000017 0.031393 0.000008
# 6 -0.000001 -0.000004 -0.000005 0.012732 0.000008 0.047412
#
#
# Mechanical properties :
#
#
# Convention : Reuss Voigt Hill
#
# Bulk Modulus (GPa) = 31.93098 37.25090 34.59094
# Shear Modulus (GPa) = 28.19420 32.97120 30.58270
#
# Velocity S-wave (km/s) = 3.32382 3.59439 3.46175
# Velocity P-wave (km/s) = 5.21943 5.64117 5.43439
#
# Compressibility (1/GPa) = 0.03131755
#
# Stress axis : x y z
#
# Youngs Moduli (GPa) = 56.83700 68.39770 131.86305
#
# Poissons Ratio (x) = 0.07884 0.34606
# Poissons Ratio (y) = 0.06552 0.06108
# Poissons Ratio (z) = 0.14916 0.03168
#
# Static dielectric constant tensor:
#      x y z
#    x 2.122490 0.000010 0.071600 
#    y 0.000010 2.241570 0.000070 
#    z 0.071600 0.000070 2.231010 
# 
# From -- ./inp_files/206909.got.cif
#   From: 2010.05.17/outbox.cif.g08.bks.cpg/sg15_104_cif.got.tgz:206909.got - 2010.06.03 18:47:42.
