data_PCOD9277831
_publ_section_title
;
Structure prediction by ZEFSAII (Michael W. Deem and Ramdas Pophale) SiO2 
 PCOD9277831
Probable space group: C 2/C
;
_chemical_formula_sum "Si O2"
_cell_formula_units_Z 40
_cell_length_a 14.425377
_cell_length_b 8.023351
_cell_length_c 28.515109
_cell_angle_alpha 90.000000
_cell_angle_beta 147.321882
_cell_angle_gamma 90.000000
_cell_volume 1781.913130
_symmetry_space_group_name_H-M "C 2/C"
_symmetry_group_IT_number 15
_symmetry_cell_setting 'monoclinic'
loop_
_space_group_symop_operation_xyz
x,y,z
-x,y,1/2-z
-x,-y,-z
x,-y,1/2+z
1/2+x,1/2+y,z
1/2-x,1/2+y,1/2-z
1/2-x,1/2-y,-z
1/2+x,1/2-y,1/2+z
loop_
_atom_site_type_symbol
_atom_site_label
_atom_site_fract_x
_atom_site_fract_y
_atom_site_fract_z
Si Si1 0.258479 0.562921 0.020803
Si Si2 0.587754 0.887928 0.637526
Si Si3 0.964661 0.047828 0.931529
Si Si4 0.101365 0.539860 0.244476
Si Si5 0.460984 0.355190 0.787498
O O1 0.361277 0.467699 0.023884
O O2 0.381895 0.566350 0.117790
O O3 0.250000 0.750000 0.000000
O O4 0.067070 0.499920 0.946227
O O5 0.594764 0.735228 0.604226
O O6 0.783378 0.949733 0.722739
O O7 0.550474 0.853266 0.677020
O O8 0.804162 0.942519 0.842632
O O9 0.000000 0.000000 0.000000
O O10 0.061805 0.345334 0.212571
O O11 0.000000 0.571093 0.250000
O O12 0.500000 0.367357 0.750000
#
# Coordination Sequence:
#
# PCOD9277831 Si02
#       5
#     8   8   8   8   8
#     4  12  24  42  69  98 137 181 234 288 346 409
#     4  11  23  43  72 100 139 184 233 289 346 418
#     4  11  25  44  66 101 139 182 235 285 349 420
#     4  10  20  41  71  95 135 185 226 281 352 409
#     4  10  23  43  65  99 140 181 226 283 352 413
#
# _framework density 22.447782
#
# number of rings (size 3 to 8) (size 9 to 14) (size 15 to 20)
#    0.000    1.200    4.000    1.800    5.600    0.800 
#    0.000    1.000    0.000    0.000    0.000    0.000 
#    0.000    0.000    0.000    0.000    0.000    0.000 
#
# Total GULP energy -111737.630499 kJ/mol
# GULP energy per Si atom -5586.881525 kJ/mol
# Density = 2.239669 g / cm^3
# Si number density = 22.447782 Si / 1000 Ang^3
#
#
#
# Elastic Constant Matrix: (Units=GPa)
#
#
# Indices 1 2 3 4 5 6 
#
# 1 86.7221 12.4367 50.6162 0.0000 -16.9410 0.0000
# 2 12.4367 26.6027 40.5159 0.0000 -11.5950 0.0000
# 3 50.6162 40.5159 185.1496 0.0000 -17.5278 0.0000
# 4 0.0000 0.0000 0.0000 25.4639 0.0000 -0.8333
# 5 -16.9410 -11.5950 -17.5278 0.0000 48.2541 0.0000
# 6 0.0000 0.0000 0.0000 -0.8333 0.0000 19.5180
#
#
#
# Elastic Compliance Matrix: (Units=1/GPa)
#
#
# Indices 1 2 3 4 5 6 
#
# 1 0.014349 0.000578 -0.003686 0.000000 0.003838 0.000000
# 2 0.000578 0.060834 -0.012497 0.000000 0.010281 0.000000
# 3 -0.003686 -0.012497 0.009048 0.000000 -0.001010 0.000000
# 4 0.000000 0.000000 0.000000 0.039326 0.000000 0.001679
# 5 0.003838 0.010281 -0.001010 0.000000 0.024174 0.000000
# 6 0.000000 0.000000 0.000000 0.001679 0.000000 0.051306
#
#
# Mechanical properties :
#
#
# Convention : Reuss Voigt Hill
#
# Bulk Modulus (GPa) = 18.86025 56.17912 37.51969
# Shear Modulus (GPa) = 20.16770 31.64090 25.90430
#
# Velocity S-wave (km/s) = 3.00063 3.75845 3.40071
# Velocity P-wave (km/s) = 4.51941 6.62688 5.67189
#
# Compressibility (1/GPa) = 0.05302156
#
# Stress axis : x y z
#
# Youngs Moduli (GPa) = 69.69013 16.43819 110.52482
#
# Poissons Ratio (x) = -0.00951 0.40740
# Poissons Ratio (y) = -0.04030 1.38122
# Poissons Ratio (z) = 0.25688 0.20543
#
# Static dielectric constant tensor:
#      x y z
#    x 1.828780 0.000000 0.123710 
#    y 0.000000 1.851190 0.000000 
#    z 0.123710 0.000000 2.604320 
# 
# From -- ./inp_files/150760.got.cif
#   From: 2010.05.17/outbox.cif.g08.bks.cpg/sg15_76_cif.got.tgz:150760.got - 2010.06.03 18:47:42.
