data_PCOD9277824
_publ_section_title
;
Structure prediction by ZEFSAII (Michael W. Deem and Ramdas Pophale) SiO2 
 PCOD9277824
Probable space group: C 2/C
;
_chemical_formula_sum "Si O2"
_cell_formula_units_Z 48
_cell_length_a 16.965344
_cell_length_b 7.582325
_cell_length_c 14.408853
_cell_angle_alpha 90.000000
_cell_angle_beta 99.301670
_cell_angle_gamma 90.000000
_cell_volume 1829.136282
_symmetry_space_group_name_H-M "C 2/C"
_symmetry_group_IT_number 15
_symmetry_cell_setting 'monoclinic'
loop_
_space_group_symop_operation_xyz
x,y,z
-x,y,1/2-z
-x,-y,-z
x,-y,1/2+z
1/2+x,1/2+y,z
1/2-x,1/2+y,1/2-z
1/2-x,1/2-y,-z
1/2+x,1/2-y,1/2+z
loop_
_atom_site_type_symbol
_atom_site_label
_atom_site_fract_x
_atom_site_fract_y
_atom_site_fract_z
Si Si1 0.016701 0.794266 0.982844
Si Si2 0.852571 0.279729 0.388867
Si Si3 0.158122 0.289126 0.317940
Si Si4 0.673460 0.373531 0.089101
Si Si5 0.595533 0.398855 0.272658
Si Si6 0.898549 0.392285 0.583335
O O1 0.111853 0.797497 0.001869
O O2 0.984749 0.666515 0.058898
O O3 0.871952 0.770425 0.141632
O O4 0.000000 0.000000 0.000000
O O5 0.820364 0.343519 0.284927
O O6 0.949439 0.250798 0.393759
O O7 0.652963 0.099369 0.521162
O O8 0.819865 0.087250 0.412400
O O9 0.240655 0.288872 0.388998
O O10 0.119720 0.097779 0.301379
O O11 0.102828 0.438273 0.352773
O O12 0.630959 0.345566 0.180545
O O13 0.500000 0.384819 0.250000
#
# Coordination Sequence:
#
# PCOD9277824 Si02
#       6
#     8   8   8   8   8   8
#     4   8  16  40  77 101 134 202 242 283 366 448
#     4   8  20  43  72 101 150 194 238 302 358 445
#     4  11  25  42  71 117 147 180 251 320 368 427
#     4  10  20  41  71 107 143 196 241 310 374 429
#     4  11  23  44  70  99 144 198 250 296 363 455
#     4  10  22  43  78 104 142 205 244 295 374 449
#
# _framework density 26.241895
#
# number of rings (size 3 to 8) (size 9 to 14) (size 15 to 20)
#    1.000    1.333    1.667    0.000    4.667    1.333 
#    0.000    4.167    0.000    9.000    0.000    0.000 
#    0.000    0.000    0.000    0.000    0.000    0.000 
#
# Total GULP energy -134314.518510 kJ/mol
# GULP energy per Si atom -5596.438271 kJ/mol
# Density = 2.618217 g / cm^3
# Si number density = 26.241895 Si / 1000 Ang^3
#
#
#
# Elastic Constant Matrix: (Units=GPa)
#
#
# Indices 1 2 3 4 5 6 
#
# 1 121.5716 2.9905 15.9372 0.0000 7.7231 0.0000
# 2 2.9905 107.2165 44.4859 0.0000 -12.8604 0.0000
# 3 15.9372 44.4859 110.0578 0.0000 8.2698 0.0000
# 4 0.0000 0.0000 0.0000 40.0718 0.0000 0.1414
# 5 7.7231 -12.8604 8.2698 0.0000 39.5674 0.0000
# 6 0.0000 0.0000 0.0000 0.1414 0.0000 25.7912
#
#
#
# Elastic Compliance Matrix: (Units=1/GPa)
#
#
# Indices 1 2 3 4 5 6 
#
# 1 0.008463 0.000076 -0.001152 0.000000 -0.001387 0.000000
# 2 0.000076 0.012123 -0.005289 0.000000 0.005031 0.000000
# 3 -0.001152 -0.005289 0.011687 0.000000 -0.003937 0.000000
# 4 0.000000 0.000000 0.000000 0.024956 0.000000 -0.000137
# 5 -0.001387 0.005031 -0.003937 0.000000 0.028002 0.000000
# 6 0.000000 0.000000 0.000000 -0.000137 0.000000 0.038774
#
#
# Mechanical properties :
#
#
# Convention : Reuss Voigt Hill
#
# Bulk Modulus (GPa) = 51.17302 51.74145 51.45724
# Shear Modulus (GPa) = 34.90450 39.44824 37.17637
#
# Velocity S-wave (km/s) = 3.65102 3.88139 3.76796
# Velocity P-wave (km/s) = 6.10869 6.31243 6.21140
#
# Compressibility (1/GPa) = 0.01954155
#
# Stress axis : x y z
#
# Youngs Moduli (GPa) = 118.16385 82.48932 85.56812
#
# Poissons Ratio (x) = -0.00623 0.09856
# Poissons Ratio (y) = -0.00893 0.45257
# Poissons Ratio (z) = 0.13610 0.43629
#
# Static dielectric constant tensor:
#      x y z
#    x 2.099710 0.000000 -0.049810 
#    y 0.000000 2.038460 0.000000 
#    z -0.049810 0.000000 2.074040 
# 
# From -- ./inp_files/159746.got.cif
#   From: 2010.05.17/outbox.cif.g08.bks.cpg/sg15_80_cif.got.tgz:159746.got - 2010.06.03 18:47:42.
