data_PCOD9277613
_publ_section_title
;
Structure prediction by ZEFSAII (Michael W. Deem and Ramdas Pophale) SiO2 
 PCOD9277613
Probable space group: C 2/C
;
_chemical_formula_sum "Si O2"
_cell_formula_units_Z 56
_cell_length_a 16.983170
_cell_length_b 8.274341
_cell_length_c 19.214548
_cell_angle_alpha 90.000000
_cell_angle_beta 112.897137
_cell_angle_gamma 90.000000
_cell_volume 2487.359505
_symmetry_space_group_name_H-M "C 2/C"
_symmetry_group_IT_number 15
_symmetry_cell_setting 'monoclinic'
loop_
_space_group_symop_operation_xyz
x,y,z
-x,y,1/2-z
-x,-y,-z
x,-y,1/2+z
1/2+x,1/2+y,z
1/2-x,1/2+y,1/2-z
1/2-x,1/2-y,-z
1/2+x,1/2-y,1/2+z
loop_
_atom_site_type_symbol
_atom_site_label
_atom_site_fract_x
_atom_site_fract_y
_atom_site_fract_z
Si Si1 0.132967 0.569329 0.970798
Si Si2 0.404673 0.441902 0.971509
Si Si3 0.284779 0.562710 0.202178
Si Si4 0.855319 0.840202 0.337170
Si Si5 0.664150 0.417063 0.931419
Si Si6 0.117246 0.599847 0.606175
Si Si7 0.995812 0.590388 0.332880
O O1 0.119361 0.753468 0.942873
O O2 0.087448 0.448178 0.900516
O O3 0.235857 0.564686 0.013192
O O4 0.099097 0.526393 0.036463
O O5 0.353541 0.583242 0.913412
O O6 0.395705 0.273774 0.930182
O O7 0.500000 0.500000 0.000000
O O8 0.378513 0.436051 0.042711
O O9 0.223852 0.715632 0.196092
O O10 0.340797 0.494116 0.283126
O O11 0.339789 0.588402 0.152412
O O12 0.215646 0.424955 0.159355
O O13 0.941107 0.744246 0.343305
O O14 0.061074 0.556062 0.653839
O O15 0.000000 0.593776 0.250000
#
# Coordination Sequence:
#
# PCOD9277613 Si02
#       7
#     8   8   8   8   8   8   8
#     4  10  20  41  66  92 125 166 218 261 315 378
#     4  12  24  40  63  94 132 169 210 263 323 381
#     4  10  23  43  66  94 126 166 218 263 317 378
#     4  11  24  42  64  92 129 171 210 265 325 377
#     4  10  22  39  67  94 122 167 216 268 309 373
#     4  10  22  39  63  92 128 170 209 264 319 373
#     4  11  24  40  63  93 129 171 212 260 318 383
#
# _framework density 22.513833999999999
#
# number of rings (size 3 to 8) (size 9 to 14) (size 15 to 20)
#    0.000    1.429    0.000    6.429    0.000   11.429 
#    0.000    0.714    0.000    0.000    0.000    0.000 
#    0.000    0.000    0.000    0.000    0.000    0.000 
#
# Total GULP energy -156411.413081 kJ/mol
# GULP energy per Si atom -5586.121896 kJ/mol
# Density = 2.246259 g / cm^3
# Si number density = 22.513834 Si / 1000 Ang^3
#
#
#
# Elastic Constant Matrix: (Units=GPa)
#
#
# Indices 1 2 3 4 5 6 
#
# 1 62.2778 27.9986 24.4487 0.0000 -26.7674 0.0000
# 2 27.9986 106.9360 27.6221 0.0000 -12.4677 0.0000
# 3 24.4487 27.6221 112.6447 0.0000 -27.5173 0.0000
# 4 0.0000 0.0000 0.0000 43.7418 0.0000 6.2480
# 5 -26.7674 -12.4677 -27.5173 0.0000 38.3122 0.0000
# 6 0.0000 0.0000 0.0000 6.2480 0.0000 19.9998
#
#
#
# Elastic Compliance Matrix: (Units=1/GPa)
#
#
# Indices 1 2 3 4 5 6 
#
# 1 0.025046 -0.004608 -0.000482 0.000000 0.015653 0.000000
# 2 -0.004608 0.010936 -0.001939 0.000000 -0.001053 0.000000
# 3 -0.000482 -0.001939 0.011183 0.000000 0.007064 0.000000
# 4 0.000000 0.000000 0.000000 0.023929 0.000000 -0.007476
# 5 0.015653 -0.001053 0.007064 0.000000 0.041768 0.000000
# 6 0.000000 0.000000 0.000000 -0.007476 0.000000 0.052336
#
#
# Mechanical properties :
#
#
# Convention : Reuss Voigt Hill
#
# Bulk Modulus (GPa) = 30.20558 49.11082 39.65820
# Shear Modulus (GPa) = 26.27536 33.86335 30.06936
#
# Velocity S-wave (km/s) = 3.41996 3.88250 3.65854
# Velocity P-wave (km/s) = 5.38891 6.47760 5.95818
#
# Compressibility (1/GPa) = 0.03310646
#
# Stress axis : x y z
#
# Youngs Moduli (GPa) = 39.92699 91.44192 89.41913
#
# Poissons Ratio (x) = 0.42137 0.04313
# Poissons Ratio (y) = 0.18399 0.17336
# Poissons Ratio (z) = 0.01926 0.17729
#
# Static dielectric constant tensor:
#      x y z
#    x 1.836150 0.000000 0.010360 
#    y 0.000000 1.858030 0.000000 
#    z 0.010360 0.000000 1.869600 
# 
# From -- ./inp_files/209659.got.cif
#   From: 2010.05.17/outbox.cif.g08.bks.cpg/sg15_105_cif.got.tgz:209659.got - 2010.06.03 18:47:42.
