data_PCOD9277003
_publ_section_title
;
Structure prediction by ZEFSAII (Michael W. Deem and Ramdas Pophale) SiO2 
 PCOD9277003
Probable space group: C 2/C
;
_chemical_formula_sum "Si O2"
_cell_formula_units_Z 48
_cell_length_a 9.095687
_cell_length_b 27.888303
_cell_length_c 10.242418
_cell_angle_alpha 90.000000
_cell_angle_beta 90.000030
_cell_angle_gamma 90.000000
_cell_volume 2598.125294
_symmetry_space_group_name_H-M "C 2/C"
_symmetry_group_IT_number 15
_symmetry_cell_setting 'monoclinic'
loop_
_space_group_symop_operation_xyz
x,y,z
-x,y,1/2-z
-x,-y,-z
x,-y,1/2+z
1/2+x,1/2+y,z
1/2-x,1/2+y,1/2-z
1/2-x,1/2-y,-z
1/2+x,1/2-y,1/2+z
loop_
_atom_site_type_symbol
_atom_site_label
_atom_site_fract_x
_atom_site_fract_y
_atom_site_fract_z
Si Si1 0.675596 0.894104 0.490477
Si Si2 0.676735 0.786223 0.399341
Si Si3 0.175263 0.535067 0.750000
Si Si4 0.324404 0.105896 0.990477
Si Si5 0.824875 0.068175 0.250000
Si Si6 0.323265 0.213777 0.899340
O O1 0.710576 0.841125 0.437610
O O2 0.706781 0.932963 0.377657
O O3 0.500000 0.896025 0.516222
O O4 0.762153 0.906309 0.621139
O O5 0.750000 0.750000 0.500000
O O6 0.723507 0.777091 0.250000
O O7 0.500000 0.781132 0.404903
O O8 0.206782 0.567038 0.622344
O O9 0.264409 0.486114 0.750000
O O10 0.000000 0.524323 0.750000
O O11 0.237847 0.093691 0.121139
O O12 0.289424 0.158875 0.937609
O O13 0.000000 0.068745 0.250000
O O14 0.250000 0.250000 0.000000
#
# Coordination Sequence:
#
# PCOD9277003 Si02
#       6
#     8   8   8   8   8   8
#     4  10  21  41  65  87 116 158 205 247 288 348
#     4  10  22  41  64  91 121 153 196 246 295 350
#     4  10  20  40  67  88 111 155 208 251 291 346
#     4  10  21  41  65  87 116 158 205 247 288 348
#     4  12  26  38  55  90 129 159 192 245 301 356
#     4  10  22  41  64  91 121 153 196 246 295 350
#
# _framework density 18.474862000000002
#
# number of rings (size 3 to 8) (size 9 to 14) (size 15 to 20)
#    0.000    1.667    1.667    2.500    2.333    7.333 
#    0.000    0.000    0.000    0.000    0.000    0.000 
#    0.000    0.000    0.000    0.000    0.000    0.000 
#
# Total GULP energy -134161.959390 kJ/mol
# GULP energy per Si atom -5590.081641 kJ/mol
# Density = 1.843281 g / cm^3
# Si number density = 18.474862 Si / 1000 Ang^3
#
#
#
# Elastic Constant Matrix: (Units=GPa)
#
#
# Indices 1 2 3 4 5 6 
#
# 1 43.6152 48.5748 79.9934 0.0000 -0.0005 0.0000
# 2 48.5748 108.6379 84.3144 0.0000 -0.0003 0.0000
# 3 79.9934 84.3144 204.0647 0.0000 -0.0006 0.0000
# 4 0.0000 0.0000 0.0000 37.7701 0.0000 0.0000
# 5 -0.0005 -0.0003 -0.0006 0.0000 18.7817 0.0000
# 6 0.0000 0.0000 0.0000 0.0000 0.0000 29.3790
#
#
#
# Elastic Compliance Matrix: (Units=1/GPa)
#
#
# Indices 1 2 3 4 5 6 
#
# 1 0.111204 -0.023391 -0.033928 0.000000 0.000001 0.000000
# 2 -0.023391 0.018470 0.001538 0.000000 0.000000 0.000000
# 3 -0.033928 0.001538 0.017565 0.000000 0.000000 0.000000
# 4 0.000000 0.000000 0.000000 0.026476 0.000000 0.000000
# 5 0.000001 0.000000 0.000000 0.000000 0.053243 0.000000
# 6 0.000000 0.000000 0.000000 0.000000 0.000000 0.034038
#
#
# Mechanical properties :
#
#
# Convention : Reuss Voigt Hill
#
# Bulk Modulus (GPa) = 28.02876 86.89813 57.46344
# Shear Modulus (GPa) = 13.00560 26.74851 19.87705
#
# Velocity S-wave (km/s) = 2.65611 3.80917 3.28365
# Velocity P-wave (km/s) = 4.96092 8.15379 6.74889
#
# Compressibility (1/GPa) = 0.03567764
#
# Stress axis : x y z
#
# Youngs Moduli (GPa) = 8.99246 54.14182 56.93279
#
# Poissons Ratio (x) = 1.26643 1.93159
# Poissons Ratio (y) = 0.21034 -0.08756
# Poissons Ratio (z) = 0.30509 -0.08327
#
# Static dielectric constant tensor:
#      x y z
#    x 1.613280 0.000000 0.000000 
#    y 0.000000 1.609740 0.000000 
#    z 0.000000 0.000000 1.611980 
# 
# From -- ./inp_files/26077.got.cif
#   From: 2010.05.17/outbox.cif.g08.bks.cpg/sg15_14_cif.got.tgz:26077.got - 2010.06.03 18:47:42.
