data_PCOD9277127
_publ_section_title
;
Structure prediction by ZEFSAII (Michael W. Deem and Ramdas Pophale) SiO2 
 PCOD9277127
Probable space group: C 2/C
;
_chemical_formula_sum "Si O2"
_cell_formula_units_Z 56
_cell_length_a 9.188790
_cell_length_b 17.688458
_cell_length_c 27.086398
_cell_angle_alpha 90.000000
_cell_angle_beta 143.515378
_cell_angle_gamma 90.000000
_cell_volume 2617.758531
_symmetry_space_group_name_H-M "C 2/C"
_symmetry_group_IT_number 15
_symmetry_cell_setting 'monoclinic'
loop_
_space_group_symop_operation_xyz
x,y,z
-x,y,1/2-z
-x,-y,-z
x,-y,1/2+z
1/2+x,1/2+y,z
1/2-x,1/2+y,1/2-z
1/2-x,1/2-y,-z
1/2+x,1/2-y,1/2+z
loop_
_atom_site_type_symbol
_atom_site_label
_atom_site_fract_x
_atom_site_fract_y
_atom_site_fract_z
Si Si1 0.005621 0.588509 0.564733
Si Si2 0.268463 0.681222 0.468375
Si Si3 0.793581 0.053861 0.549617
Si Si4 0.770877 0.820427 0.724575
Si Si5 0.509319 0.677684 0.435417
Si Si6 0.234699 0.944051 0.689023
Si Si7 0.223828 0.696162 0.694546
O O1 0.907140 0.503346 0.529234
O O2 0.766589 0.640264 0.493607
O O3 0.185639 0.598694 0.567263
O O4 0.127298 0.613697 0.650055
O O5 0.250000 0.750000 0.500000
O O6 0.361469 0.609694 0.524434
O O7 0.461477 0.699005 0.478288
O O8 0.993193 0.670255 0.372874
O O9 0.020979 0.005254 0.631149
O O10 0.784115 0.886980 0.769554
O O11 0.779607 0.736893 0.753115
O O12 0.000000 0.827364 0.750000
O O13 0.315771 0.611640 0.370773
O O14 0.443055 0.746924 0.382820
O O15 0.500000 0.977679 0.750000
O O16 0.500000 0.702272 0.750000
#
# Coordination Sequence:
#
# PCOD9277127 Si02
#       7
#     8   8   8   8   8   8   8
#     4  10  23  41  66  94 134 172 221 276 333 407
#     4  12  25  43  66  95 136 174 224 282 335 400
#     4  10  25  43  65 102 132 173 224 277 338 407
#     4  11  25  41  67 100 134 175 227 281 336 395
#     4  10  20  40  68  93 126 182 217 267 334 406
#     4  10  20  46  69  95 136 178 221 274 338 410
#     4  11  21  42  65  96 131 173 227 273 334 397
#
# _framework density 21.392347999999998
#
# number of rings (size 3 to 8) (size 9 to 14) (size 15 to 20)
#    0.000    1.429    2.857    2.143   10.000    2.286 
#    2.571    0.714    0.000    0.000    0.000    0.000 
#    0.000    0.000    0.000    0.000    0.000    0.000 
#
# Total GULP energy -156291.810534 kJ/mol
# GULP energy per Si atom -5581.850376 kJ/mol
# Density = 2.134366 g / cm^3
# Si number density = 21.392348 Si / 1000 Ang^3
#
#
#
# Elastic Constant Matrix: (Units=GPa)
#
#
# Indices 1 2 3 4 5 6 
#
# 1 121.3354 24.8465 35.4005 0.0000 9.5159 0.0001
# 2 24.8465 56.5868 35.8630 -0.0001 -3.0176 0.0000
# 3 35.4005 35.8630 75.0274 -0.0003 -5.3313 0.0000
# 4 0.0000 -0.0001 -0.0003 15.7349 -0.0002 -6.6489
# 5 9.5159 -3.0176 -5.3313 -0.0002 20.6753 0.0000
# 6 0.0001 0.0000 0.0000 -6.6489 0.0000 22.2133
#
#
#
# Elastic Compliance Matrix: (Units=1/GPa)
#
#
# Indices 1 2 3 4 5 6 
#
# 1 0.010439 -0.002172 -0.004331 0.000000 -0.006238 0.000000
# 2 -0.002172 0.025811 -0.011179 0.000000 0.001884 0.000000
# 3 -0.004331 -0.011179 0.021128 0.000000 0.005810 0.000000
# 4 0.000000 0.000000 0.000000 0.072755 0.000001 0.021777
# 5 -0.006238 0.001884 0.005810 0.000001 0.053011 0.000000
# 6 0.000000 0.000000 0.000000 0.021777 0.000000 0.051537
#
#
# Mechanical properties :
#
#
# Convention : Reuss Voigt Hill
#
# Bulk Modulus (GPa) = 45.42278 49.46328 47.44303
# Shear Modulus (GPa) = 18.02563 22.18065 20.10314
#
# Velocity S-wave (km/s) = 2.90594 3.22351 3.06884
# Velocity P-wave (km/s) = 5.70426 6.08497 5.89769
#
# Compressibility (1/GPa) = 0.02201539
#
# Stress axis : x y z
#
# Youngs Moduli (GPa) = 95.79363 38.74328 47.32987
#
# Poissons Ratio (x) = 0.08414 0.20498
# Poissons Ratio (y) = 0.20803 0.52910
# Poissons Ratio (z) = 0.41486 0.43311
#
# Static dielectric constant tensor:
#      x y z
#    x 1.725230 0.000000 0.001140 
#    y 0.000000 1.799970 0.000000 
#    z 0.001140 0.000000 1.813780 
# 
# From -- ./inp_files/289761.got.cif
#   From: 2010.05.17/outbox.cif.g08.bks.cpg/sg15_145_cif.got.tgz:289761.got - 2010.06.03 18:47:42.
