data_PCOD9277508
_publ_section_title
;
Structure prediction by ZEFSAII (Michael W. Deem and Ramdas Pophale) SiO2 
 PCOD9277508
Probable space group: C 2/C
;
_chemical_formula_sum "Si O2"
_cell_formula_units_Z 40
_cell_length_a 14.201590
_cell_length_b 9.817648
_cell_length_c 16.824556
_cell_angle_alpha 90.000000
_cell_angle_beta 49.454332
_cell_angle_gamma 90.000000
_cell_volume 1782.533373
_symmetry_space_group_name_H-M "C 2/C"
_symmetry_group_IT_number 15
_symmetry_cell_setting 'monoclinic'
loop_
_space_group_symop_operation_xyz
x,y,z
-x,y,1/2-z
-x,-y,-z
x,-y,1/2+z
1/2+x,1/2+y,z
1/2-x,1/2+y,1/2-z
1/2-x,1/2-y,-z
1/2+x,1/2-y,1/2+z
loop_
_atom_site_type_symbol
_atom_site_label
_atom_site_fract_x
_atom_site_fract_y
_atom_site_fract_z
Si Si1 0.718538 0.076925 0.359186
Si Si2 0.977037 0.794883 0.010963
Si Si3 0.807452 0.900103 0.977147
Si Si4 0.745535 0.169182 0.085155
Si Si5 0.206702 0.190267 0.754850
O O1 0.586164 0.143376 0.457185
O O2 0.803090 0.047944 0.389408
O O3 0.772357 0.198352 0.275340
O O4 0.713074 0.939665 0.312410
O O5 0.932213 0.874077 0.957567
O O6 0.906726 0.855324 0.127022
O O7 0.120136 0.804813 0.949227
O O8 0.731717 0.010528 0.070848
O O9 0.750000 0.750000 0.000000
O O10 0.660230 0.231747 0.200994
O O11 0.750000 0.250000 0.000000
#
# Coordination Sequence:
#
# PCOD9277508 Si02
#       5
#     8   8   8   8   8
#     4   9  20  40  65  90 129 159 208 268 314 383
#     4   9  23  39  66  90 128 164 211 259 322 377
#     4  10  20  41  64  92 126 167 204 266 317 378
#     4  12  23  40  65  94 127 171 213 258 320 382
#     4  10  21  40  63  92 127 162 212 261 319 377
#
# _framework density 22.439972000000001
#
# number of rings (size 3 to 8) (size 9 to 14) (size 15 to 20)
#    1.200    0.800    2.000    1.800    0.000    1.600 
#    0.000    3.000    0.000    2.400    0.000    0.000 
#    0.000    0.000    0.000    0.000    0.000    0.000 
#
# Total GULP energy -111418.024340 kJ/mol
# GULP energy per Si atom -5570.901217 kJ/mol
# Density = 2.238890 g / cm^3
# Si number density = 22.439972 Si / 1000 Ang^3
#
#
#
# Elastic Constant Matrix: (Units=GPa)
#
#
# Indices 1 2 3 4 5 6 
#
# 1 81.1582 21.3954 40.4107 0.0000 30.1608 0.0000
# 2 21.3954 144.2067 18.2467 0.0000 6.2364 0.0000
# 3 40.4107 18.2467 72.3758 0.0000 26.3910 0.0000
# 4 0.0000 0.0000 0.0000 39.9128 0.0000 7.7356
# 5 30.1608 6.2364 26.3910 0.0000 29.4952 0.0000
# 6 0.0000 0.0000 0.0000 7.7356 0.0000 22.2386
#
#
#
# Elastic Compliance Matrix: (Units=1/GPa)
#
#
# Indices 1 2 3 4 5 6 
#
# 1 0.021897 -0.001809 -0.005558 0.000000 -0.017035 0.000000
# 2 -0.001809 0.007313 -0.001402 0.000000 0.001557 0.000000
# 3 -0.005558 -0.001402 0.022402 0.000000 -0.014064 0.000000
# 4 0.000000 0.000000 0.000000 0.026866 0.000000 -0.009345
# 5 -0.017035 0.001557 -0.014064 0.000000 0.063578 0.000000
# 6 0.000000 0.000000 0.000000 -0.009345 0.000000 0.048218
#
#
# Mechanical properties :
#
#
# Convention : Reuss Voigt Hill
#
# Bulk Modulus (GPa) = 29.34773 50.87181 40.10977
# Shear Modulus (GPa) = 22.81348 32.84185 27.82766
#
# Velocity S-wave (km/s) = 3.19195 3.82978 3.52532
# Velocity P-wave (km/s) = 5.16637 6.50197 5.87227
#
# Compressibility (1/GPa) = 0.03407419
#
# Stress axis : x y z
#
# Youngs Moduli (GPa) = 45.66864 136.74568 44.63901
#
# Poissons Ratio (x) = 0.24734 0.24812
# Poissons Ratio (y) = 0.08260 0.06257
# Poissons Ratio (z) = 0.25384 0.19167
#
# Static dielectric constant tensor:
#      x y z
#    x 1.854630 0.000000 -0.039260 
#    y 0.000000 1.910410 0.000000 
#    z -0.039260 0.000000 1.976190 
# 
# From -- ./inp_files/141667.got.cif
#   From: 2010.05.17/outbox.cif.g08.bks.cpg/sg15_71_cif.got.tgz:141667.got - 2010.06.03 18:47:42.
