data_PCOD9277732
_publ_section_title
;
Structure prediction by ZEFSAII (Michael W. Deem and Ramdas Pophale) SiO2 
 PCOD9277732
Probable space group: C 2/C
;
_chemical_formula_sum "Si O2"
_cell_formula_units_Z 48
_cell_length_a 25.053129
_cell_length_b 10.070383
_cell_length_c 13.427960
_cell_angle_alpha 90.000000
_cell_angle_beta 144.547125
_cell_angle_gamma 90.000000
_cell_volume 1965.037417
_symmetry_space_group_name_H-M "C 2/C"
_symmetry_group_IT_number 15
_symmetry_cell_setting 'monoclinic'
loop_
_space_group_symop_operation_xyz
x,y,z
-x,y,1/2-z
-x,-y,-z
x,-y,1/2+z
1/2+x,1/2+y,z
1/2-x,1/2+y,1/2-z
1/2-x,1/2-y,-z
1/2+x,1/2-y,1/2+z
loop_
_atom_site_type_symbol
_atom_site_label
_atom_site_fract_x
_atom_site_fract_y
_atom_site_fract_z
Si Si1 0.643643 0.735489 0.306513
Si Si2 0.234078 0.598012 0.664215
Si Si3 0.973114 0.000624 0.340357
Si Si4 0.342366 0.375062 0.895783
Si Si5 0.851563 0.233705 0.700051
Si Si6 0.418843 0.992391 0.711782
O O1 0.750000 0.750000 0.500000
O O2 0.576723 0.636071 0.264510
O O3 0.650595 0.663543 0.210419
O O4 0.592111 0.876521 0.237786
O O5 0.260907 0.484493 0.784503
O O6 0.171413 0.726912 0.585678
O O7 0.328637 0.671377 0.773457
O O8 0.177129 0.517988 0.495044
O O9 0.899316 0.885192 0.216439
O O10 0.000000 0.000000 0.500000
O O11 0.066686 0.951217 0.434027
O O12 0.750000 0.250000 0.500000
O O13 0.913622 0.362975 0.775804
O O14 0.500000 0.993035 0.750000
#
# Coordination Sequence:
#
# PCOD9277732 Si02
#       6
#     8   8   8   8   8   8
#     4  11  21  44  69  94 134 180 224 280 338 404
#     4  11  23  43  65  99 136 179 226 281 342 412
#     4  10  20  42  65  95 130 172 221 277 328 402
#     4  11  24  42  69  98 138 175 233 282 345 410
#     4  10  20  41  68  90 134 178 217 272 336 398
#     4  11  24  42  63  98 135 173 229 281 335 408
#
# _framework density 24.427015000000001
#
# number of rings (size 3 to 8) (size 9 to 14) (size 15 to 20)
#    0.000    1.333    5.000    2.000    2.333    1.333 
#    0.000    5.000    0.000    0.000    0.000    0.000 
#    0.000    0.000    0.000    0.000    0.000    0.000 
#
# Total GULP energy -133826.167434 kJ/mol
# GULP energy per Si atom -5576.090310 kJ/mol
# Density = 2.437142 g / cm^3
# Si number density = 24.427015 Si / 1000 Ang^3
#
#
#
# Elastic Constant Matrix: (Units=GPa)
#
#
# Indices 1 2 3 4 5 6 
#
# 1 63.0348 16.0600 17.4119 0.0000 16.4805 0.0000
# 2 16.0600 188.1242 36.1631 0.0000 17.8555 0.0000
# 3 17.4119 36.1631 80.5527 0.0000 12.9192 0.0000
# 4 0.0000 0.0000 0.0000 39.7702 0.0000 16.8799
# 5 16.4805 17.8555 12.9192 0.0000 22.9468 0.0000
# 6 0.0000 0.0000 0.0000 16.8799 0.0000 46.7712
#
#
#
# Elastic Compliance Matrix: (Units=1/GPa)
#
#
# Indices 1 2 3 4 5 6 
#
# 1 0.019883 -0.000041 -0.002192 0.000000 -0.013014 0.000000
# 2 -0.000041 0.006063 -0.002156 0.000000 -0.003475 0.000000
# 3 -0.002192 -0.002156 0.014658 0.000000 -0.005000 0.000000
# 4 0.000000 0.000000 0.000000 0.029693 0.000000 -0.010716
# 5 -0.013014 -0.003475 -0.005000 0.000000 0.058445 0.000000
# 6 0.000000 0.000000 0.000000 -0.010716 0.000000 0.025248
#
#
# Mechanical properties :
#
#
# Convention : Reuss Voigt Hill
#
# Bulk Modulus (GPa) = 31.42074 52.33131 41.87603
# Shear Modulus (GPa) = 28.83896 39.36942 34.10419
#
# Velocity S-wave (km/s) = 3.43974 4.01897 3.74059
# Velocity P-wave (km/s) = 5.35414 6.55792 5.98636
#
# Compressibility (1/GPa) = 0.03182611
#
# Stress axis : x y z
#
# Youngs Moduli (GPa) = 50.29502 164.92458 68.22227
#
# Poissons Ratio (x) = 0.00672 0.14956
# Poissons Ratio (y) = 0.00205 0.14708
# Poissons Ratio (z) = 0.11026 0.35557
#
# Static dielectric constant tensor:
#      x y z
#    x 2.207950 0.000000 -0.022540 
#    y 0.000000 1.918450 0.000000 
#    z -0.022540 0.000000 1.997640 
# 
# From -- ./inp_files/224703.got.cif
#   From: 2010.05.17/outbox.cif.g08.bks.cpg/sg15_113_cif.got.tgz:224703.got - 2010.06.03 18:47:42.
