data_PCOD9277800
_publ_section_title
;
Structure prediction by ZEFSAII (Michael W. Deem and Ramdas Pophale) SiO2 
 PCOD9277800
Probable space group: C 2/C
;
_chemical_formula_sum "Si O2"
_cell_formula_units_Z 48
_cell_length_a 13.431192
_cell_length_b 11.296519
_cell_length_c 18.078872
_cell_angle_alpha 90.000000
_cell_angle_beta 65.124409
_cell_angle_gamma 90.000000
_cell_volume 2488.540541
_symmetry_space_group_name_H-M "C 2/C"
_symmetry_group_IT_number 15
_symmetry_cell_setting 'monoclinic'
loop_
_space_group_symop_operation_xyz
x,y,z
-x,y,1/2-z
-x,-y,-z
x,-y,1/2+z
1/2+x,1/2+y,z
1/2-x,1/2+y,1/2-z
1/2-x,1/2-y,-z
1/2+x,1/2-y,1/2+z
loop_
_atom_site_type_symbol
_atom_site_label
_atom_site_fract_x
_atom_site_fract_y
_atom_site_fract_z
Si Si1 0.997832 0.768649 0.663821
Si Si2 0.224113 0.101593 0.101265
Si Si3 0.613264 0.102806 0.170466
Si Si4 0.561652 0.058624 0.549351
Si Si5 0.705851 0.446030 0.769878
Si Si6 0.626275 0.623125 0.690814
O O1 0.119327 0.820910 0.613660
O O2 0.987002 0.655303 0.614741
O O3 0.000000 0.734568 0.750000
O O4 0.904895 0.869456 0.681125
O O5 0.253295 0.115522 0.179811
O O6 0.177588 0.966719 0.115431
O O7 0.328718 0.117058 0.018195
O O8 0.500000 0.085574 0.250000
O O9 0.712818 0.052603 0.187657
O O10 0.634566 0.243442 0.162553
O O11 0.598543 0.039469 0.097127
O O12 0.500000 0.000000 0.500000
O O13 0.684531 0.580049 0.748341
O O14 0.500000 0.595614 0.750000
#
# Coordination Sequence:
#
# PCOD9277800 Si02
#       6
#     8   8   8   8   8   8
#     4  10  20  41  70  86 113 163 214 243 295 368
#     4   9  19  40  64  87 122 156 201 252 299 350
#     4  11  24  38  61  93 122 163 201 247 310 362
#     4  12  26  39  56  92 135 159 194 254 319 358
#     4   9  19  40  66  90 112 161 212 248 288 363
#     4   9  18  40  66  89 120 152 208 249 293 357
#
# _framework density 19.288412000000001
#
# number of rings (size 3 to 8) (size 9 to 14) (size 15 to 20)
#    1.000    1.000    1.667    2.000    2.333    3.333 
#    0.000    4.167    0.000    0.000    0.000    0.000 
#    0.000    0.000    0.000    0.000    0.000    0.000 
#
# Total GULP energy -133731.061169 kJ/mol
# GULP energy per Si atom -5572.127549 kJ/mol
# Density = 1.924451 g / cm^3
# Si number density = 19.288412 Si / 1000 Ang^3
#
#
#
# Elastic Constant Matrix: (Units=GPa)
#
#
# Indices 1 2 3 4 5 6 
#
# 1 77.8066 40.2361 53.7894 0.0000 28.3447 0.0000
# 2 40.2361 75.0071 47.9706 0.0000 14.8841 0.0000
# 3 53.7894 47.9706 93.9950 0.0000 7.3044 0.0000
# 4 0.0000 0.0000 0.0000 21.3413 0.0000 1.1437
# 5 28.3447 14.8841 7.3044 0.0000 39.2186 0.0000
# 6 0.0000 0.0000 0.0000 1.1437 0.0000 15.5405
#
#
#
# Elastic Compliance Matrix: (Units=1/GPa)
#
#
# Indices 1 2 3 4 5 6 
#
# 1 0.032047 -0.003936 -0.014862 0.000000 -0.018900 0.000000
# 2 -0.003936 0.021623 -0.008489 0.000000 -0.003781 0.000000
# 3 -0.014862 -0.008489 0.022720 0.000000 0.009731 0.000000
# 4 0.000000 0.000000 0.000000 0.047043 0.000000 -0.003462
# 5 -0.018900 -0.003781 0.009731 0.000000 0.038780 0.000000
# 6 0.000000 0.000000 0.000000 -0.003462 0.000000 0.064603
#
#
# Mechanical properties :
#
#
# Convention : Reuss Voigt Hill
#
# Bulk Modulus (GPa) = 45.83744 58.97786 52.40765
# Shear Modulus (GPa) = 17.32131 22.20759 19.76445
#
# Velocity S-wave (km/s) = 2.99994 3.39683 3.20453
# Velocity P-wave (km/s) = 5.98459 6.78438 6.39700
#
# Compressibility (1/GPa) = 0.02181623
#
# Stress axis : x y z
#
# Youngs Moduli (GPa) = 31.20392 46.24759 44.01418
#
# Poissons Ratio (x) = 0.18202 0.65414
# Poissons Ratio (y) = 0.12281 0.37364
# Poissons Ratio (z) = 0.46375 0.39260
#
# Static dielectric constant tensor:
#      x y z
#    x 1.678080 0.000000 -0.003080 
#    y 0.000000 1.743670 0.000000 
#    z -0.003080 0.000000 1.658380 
# 
# From -- ./inp_files/203476.got.cif
#   From: 2010.05.17/outbox.cif.g08.bks.cpg/sg15_102_cif.got.tgz:203476.got - 2010.06.03 18:47:42.
