data_PCOD9277447
_publ_section_title
;
Structure prediction by ZEFSAII (Michael W. Deem and Ramdas Pophale) SiO2 
 PCOD9277447
Probable space group: C 2/C
;
_chemical_formula_sum "Si O2"
_cell_formula_units_Z 52
_cell_length_a 11.255570
_cell_length_b 27.767404
_cell_length_c 10.229420
_cell_angle_alpha 90.000000
_cell_angle_beta 52.655060
_cell_angle_gamma 90.000000
_cell_volume 2541.673610
_symmetry_space_group_name_H-M "C 2/C"
_symmetry_group_IT_number 15
_symmetry_cell_setting 'monoclinic'
loop_
_space_group_symop_operation_xyz
x,y,z
-x,y,1/2-z
-x,-y,-z
x,-y,1/2+z
1/2+x,1/2+y,z
1/2-x,1/2+y,1/2-z
1/2-x,1/2-y,-z
1/2+x,1/2-y,1/2+z
loop_
_atom_site_type_symbol
_atom_site_label
_atom_site_fract_x
_atom_site_fract_y
_atom_site_fract_z
Si Si1 0.500000 0.840143 0.750000
Si Si2 0.960597 0.895217 0.927943
Si Si3 0.439208 0.312949 0.152488
Si Si4 0.778299 0.417716 0.809770
Si Si5 0.390847 0.223221 0.565087
Si Si6 0.833339 0.417337 0.475018
Si Si7 0.000000 0.671633 0.750000
Si Si8 0.500000 0.000689 0.250000
O O1 0.353551 0.874253 0.838889
O O2 0.535331 0.808261 0.599928
O O3 0.000000 0.878883 0.750000
O O4 0.100279 0.918921 0.910964
O O5 0.913613 0.852713 0.058051
O O6 0.822856 0.930635 0.989446
O O7 0.500000 0.333065 0.250000
O O8 0.286273 0.285219 0.295277
O O9 0.560579 0.276785 0.007635
O O10 0.824766 0.406090 0.631427
O O11 0.862792 0.465505 0.800514
O O12 0.459835 0.204909 0.655024
O O13 0.945215 0.462139 0.392825
O O14 0.877484 0.367495 0.376504
#
# Coordination Sequence:
#
# PCOD9277447 Si02
#       8
#     4   8   8   8   8   8   4   4
#     4  11  22  41  66  88 132 172 216 259 328 371
#     4  10  23  41  65  90 129 169 214 262 322 373
#     4  12  26  42  62  95 131 171 220 267 320 370
#     4  10  21  39  63  94 122 164 212 261 320 382
#     4  12  26  41  64  93 130 174 219 269 312 380
#     4  10  20  41  63  89 126 162 207 262 313 389
#     4  11  22  41  64  90 122 168 216 255 318 369
#     4  10  22  36  66  96 124 162 208 258 322 386
#
# _framework density 20.458960999999999
#
# number of rings (size 3 to 8) (size 9 to 14) (size 15 to 20)
#    0.000    1.231    3.846    1.846    3.231    1.231 
#    0.000    0.000    0.000    0.000    0.000    0.000 
#    0.000    0.000    0.000    0.000    0.000    0.000 
#
# Total GULP energy -144862.665796 kJ/mol
# GULP energy per Si atom -5571.640992 kJ/mol
# Density = 2.041240 g / cm^3
# Si number density = 20.458961 Si / 1000 Ang^3
#
#
#
# Elastic Constant Matrix: (Units=GPa)
#
#
# Indices 1 2 3 4 5 6 
#
# 1 6.7182 -34.2589 -38.2082 0.0000 14.7854 0.0000
# 2 -34.2589 26.7240 -16.8742 0.0000 12.8015 0.0000
# 3 -38.2082 -16.8742 40.5108 0.0000 9.0419 0.0000
# 4 0.0000 0.0000 0.0000 -0.9276 0.0000 -7.0668
# 5 14.7854 12.8015 9.0419 0.0000 32.9636 0.0000
# 6 0.0000 0.0000 0.0000 -7.0668 0.0000 17.9786
#
#
#
# Elastic Compliance Matrix: (Units=1/GPa)
#
#
# Indices 1 2 3 4 5 6 
#
# 1 -0.002442 -0.014133 -0.010289 0.000000 0.009406 0.000000
# 2 -0.014133 0.010575 -0.010038 0.000000 0.004986 0.000000
# 3 -0.010289 -0.010038 0.009479 0.000000 0.005913 0.000000
# 4 0.000000 0.000000 0.000000 -0.269881 0.000000 -0.106081
# 5 0.009406 0.004986 0.005913 0.000000 0.022559 0.000000
# 6 0.000000 0.000000 0.000000 -0.106081 0.000000 0.013924
#
#
# Mechanical properties :
#
#
# Convention : Reuss Voigt Hill
#
# Bulk Modulus (GPa) = -19.49006 -11.63665 -15.56335
# Shear Modulus (GPa) = -30.49403 20.88922 -4.80240
#
# Velocity S-wave (km/s) = -3.86488 3.19882 -1.53376
# Velocity P-wave (km/s) = 5.42803 2.81836 3.28027
#
# Compressibility (1/GPa) = -0.05130822
#
# Stress axis : x y z
#
# Youngs Moduli (GPa) = -409.53164 94.56189 105.49363
#
# Poissons Ratio (x) = 1.33646 1.08547
# Poissons Ratio (y) = -5.78798 1.05892
# Poissons Ratio (z) = -4.21386 0.94919
#
# Static dielectric constant tensor:
#      x y z
#    x 1.774120 0.000000 -0.083650 
#    y 0.000000 1.690560 0.000000 
#    z -0.083650 0.000000 1.738260 
# 
# From -- ./inp_files/34148.got.cif
#   From: 2010.05.17/outbox.cif.g08.bks.cpg/sg15_18_cif.got.tgz:34148.got - 2010.06.03 18:47:42.
