data_PCOD9277468
_publ_section_title
;
Structure prediction by ZEFSAII (Michael W. Deem and Ramdas Pophale) SiO2 
 PCOD9277468
Probable space group: C 2/C
;
_chemical_formula_sum "Si O2"
_cell_formula_units_Z 44
_cell_length_a 6.907557
_cell_length_b 24.629276
_cell_length_c 17.081077
_cell_angle_alpha 90.000000
_cell_angle_beta 42.563010
_cell_angle_gamma 90.000000
_cell_volume 1965.600987
_symmetry_space_group_name_H-M "C 2/C"
_symmetry_group_IT_number 15
_symmetry_cell_setting 'monoclinic'
loop_
_space_group_symop_operation_xyz
x,y,z
-x,y,1/2-z
-x,-y,-z
x,-y,1/2+z
1/2+x,1/2+y,z
1/2-x,1/2+y,1/2-z
1/2-x,1/2-y,-z
1/2+x,1/2-y,1/2+z
loop_
_atom_site_type_symbol
_atom_site_label
_atom_site_fract_x
_atom_site_fract_y
_atom_site_fract_z
Si Si1 0.500000 0.942116 0.250000
Si Si2 0.073354 0.546555 0.143346
Si Si3 0.143470 0.163140 0.074778
Si Si4 0.944718 0.126936 0.560830
Si Si5 0.000000 0.077702 0.250000
Si Si6 0.500000 0.206588 0.250000
Si Si7 0.837487 0.244116 0.632777
O O1 0.236833 0.901631 0.316564
O O2 0.639075 0.984166 0.145544
O O3 0.000000 0.571983 0.250000
O O4 0.771515 0.542980 0.191181
O O5 0.294421 0.586496 0.036455
O O6 0.111603 0.116730 0.148626
O O7 0.313479 0.212565 0.067165
O O8 0.814567 0.179347 0.154139
O O9 0.243752 0.136965 0.962879
O O10 0.003934 0.188722 0.565926
O O11 0.532502 0.234845 0.324826
O O12 0.500000 0.232024 0.750000
#
# Coordination Sequence:
#
# PCOD9277468 Si02
#       7
#     4   8   8   8   4   4   8
#     4  10  24  48  72  94 136 173 231 290 346 386
#     4  10  24  43  71  94 127 177 229 284 337 388
#     4  11  21  37  69  97 139 180 219 272 325 411
#     4  12  22  44  72  99 136 182 221 280 347 396
#     4  12  20  43  69 104 130 174 238 268 336 406
#     4  10  20  41  63  96 148 173 223 260 322 400
#     4  10  22  40  64 100 144 177 218 272 328 407
#
# _framework density 22.385010999999999
#
# number of rings (size 3 to 8) (size 9 to 14) (size 15 to 20)
#    0.545    0.727    5.455    2.182    0.000    0.727 
#    6.545    4.545    0.000    0.000    0.000    0.000 
#    0.000    0.000    0.000    0.000    0.000    0.000 
#
# Total GULP energy -122486.195173 kJ/mol
# GULP energy per Si atom -5567.554326 kJ/mol
# Density = 2.233406 g / cm^3
# Si number density = 22.385011 Si / 1000 Ang^3
#
#
#
# Elastic Constant Matrix: (Units=GPa)
#
#
# Indices 1 2 3 4 5 6 
#
# 1 105.8395 24.8942 3.7372 0.0000 -4.2327 0.0000
# 2 24.8942 91.3052 9.7706 0.0000 -8.6334 0.0000
# 3 3.7372 9.7706 66.6035 0.0000 -9.7271 0.0001
# 4 0.0000 0.0000 0.0000 36.7600 0.0000 4.2695
# 5 -4.2327 -8.6334 -9.7271 0.0000 29.9168 -0.0001
# 6 0.0000 0.0000 0.0001 4.2695 -0.0001 19.0900
#
#
#
# Elastic Compliance Matrix: (Units=1/GPa)
#
#
# Indices 1 2 3 4 5 6 
#
# 1 0.010108 -0.002688 -0.000081 0.000000 0.000628 0.000000
# 2 -0.002688 0.012072 -0.001225 0.000000 0.002705 0.000000
# 3 -0.000081 -0.001225 0.015900 0.000000 0.004805 0.000000
# 4 0.000000 0.000000 0.000000 0.027929 0.000000 -0.006246
# 5 0.000628 0.002705 0.004805 0.000000 0.035858 0.000000
# 6 0.000000 0.000000 0.000000 -0.006246 0.000000 0.053781
#
#
# Mechanical properties :
#
#
# Convention : Reuss Voigt Hill
#
# Bulk Modulus (GPa) = 33.23103 37.83913 35.53508
# Shear Modulus (GPa) = 28.79071 32.17644 30.48357
#
# Velocity S-wave (km/s) = 3.59020 3.79543 3.69424
# Velocity P-wave (km/s) = 5.66246 6.01228 5.83999
#
# Compressibility (1/GPa) = 0.03009235
#
# Stress axis : x y z
#
# Youngs Moduli (GPa) = 98.92680 82.83616 62.89228
#
# Poissons Ratio (x) = 0.22266 0.00510
# Poissons Ratio (y) = 0.26591 0.07705
# Poissons Ratio (z) = 0.00803 0.10148
#
# Static dielectric constant tensor:
#      x y z
#    x 1.693540 0.000000 0.006360 
#    y 0.000000 1.855120 0.000000 
#    z 0.006360 0.000000 1.889270 
# 
# From -- ./inp_files/186031.got.cif
#   From: 2010.05.17/outbox.cif.g08.bks.cpg/sg15_94_cif.got.tgz:186031.got - 2010.06.03 18:47:42.
