data_PCOD9277201
_publ_section_title
;
Structure prediction by ZEFSAII (Michael W. Deem and Ramdas Pophale) SiO2 
 PCOD9277201
Probable space group: C 2/C
;
_chemical_formula_sum "Si O2"
_cell_formula_units_Z 52
_cell_length_a 18.597249
_cell_length_b 30.352948
_cell_length_c 5.426129
_cell_angle_alpha 90.000000
_cell_angle_beta 120.150282
_cell_angle_gamma 90.000000
_cell_volume 2648.565185
_symmetry_space_group_name_H-M "C 2/C"
_symmetry_group_IT_number 15
_symmetry_cell_setting 'monoclinic'
loop_
_space_group_symop_operation_xyz
x,y,z
-x,y,1/2-z
-x,-y,-z
x,-y,1/2+z
1/2+x,1/2+y,z
1/2-x,1/2+y,1/2-z
1/2-x,1/2-y,-z
1/2+x,1/2-y,1/2+z
loop_
_atom_site_type_symbol
_atom_site_label
_atom_site_fract_x
_atom_site_fract_y
_atom_site_fract_z
Si Si1 0.687483 0.728215 0.704045
Si Si2 0.239749 0.622246 0.239964
Si Si3 0.814486 0.470893 0.892572
Si Si4 0.589893 0.678466 0.921615
Si Si5 0.323399 0.839304 0.354273
Si Si6 0.927069 0.270701 0.318286
Si Si7 0.000000 0.471433 0.250000
O O1 0.612663 0.703167 0.706852
O O2 0.742653 0.691396 0.678194
O O3 0.654557 0.768085 0.489996
O O4 0.750000 0.750000 0.000000
O O5 0.248573 0.569476 0.252058
O O6 0.329558 0.647817 0.387986
O O7 0.192766 0.637336 0.411298
O O8 0.183870 0.631274 0.901146
O O9 0.806489 0.502071 0.635927
O O10 0.908643 0.450239 0.070615
O O11 0.500000 0.655440 0.750000
O O12 0.575153 0.721178 0.073446
O O13 0.404955 0.807878 0.480619
O O14 0.000000 0.279219 0.250000
O O15 0.000000 0.500000 0.500000
#
# Coordination Sequence:
#
# PCOD9277201 Si02
#       7
#     8   8   8   8   8   8   4
#     4  11  20  35  57  78 110 162 214 260 295 350
#     4  11  24  40  63  90 123 156 200 261 312 363
#     4  10  20  40  69  94 118 154 196 241 311 390
#     4  11  22  36  57  85 119 165 220 258 297 352
#     4  11  23  38  58  84 121 159 205 250 305 351
#     4  12  22  36  57  80 117 169 215 251 296 356
#     4   8  16  32  62  92 110 140 182 228 282 364
#
# _framework density 19.633272000000002
#
# number of rings (size 3 to 8) (size 9 to 14) (size 15 to 20)
#    0.000    1.231    4.615    3.231    0.000    0.000 
#    1.385    0.000    0.000    0.923    0.000    0.000 
#    0.000    0.000    0.000    0.000    0.000    0.000 
#
# Total GULP energy -144749.738468 kJ/mol
# GULP energy per Si atom -5567.297633 kJ/mol
# Density = 1.958859 g / cm^3
# Si number density = 19.633272 Si / 1000 Ang^3
#
#
#
# Elastic Constant Matrix: (Units=GPa)
#
#
# Indices 1 2 3 4 5 6 
#
# 1 107.5625 50.0519 41.3629 0.0000 -20.7905 0.0000
# 2 50.0519 90.6142 32.9080 0.0000 -4.7264 0.0000
# 3 41.3629 32.9080 94.2286 0.0000 -17.0594 0.0000
# 4 0.0000 0.0000 0.0000 17.7988 0.0000 2.5406
# 5 -20.7905 -4.7264 -17.0594 0.0000 28.2725 0.0000
# 6 0.0000 0.0000 0.0000 2.5406 0.0000 14.7086
#
#
#
# Elastic Compliance Matrix: (Units=1/GPa)
#
#
# Indices 1 2 3 4 5 6 
#
# 1 0.015209 -0.006974 -0.002724 0.000000 0.008374 0.000000
# 2 -0.006974 0.015847 -0.003280 0.000000 -0.004459 0.000000
# 3 -0.002724 -0.003280 0.014024 0.000000 0.005910 0.000000
# 4 0.000000 0.000000 0.000000 0.057604 0.000000 -0.009950
# 5 0.008374 -0.004459 0.005910 0.000000 0.044349 0.000000
# 6 0.000000 0.000000 0.000000 -0.009950 0.000000 0.069706
#
#
# Mechanical properties :
#
#
# Convention : Reuss Voigt Hill
#
# Bulk Modulus (GPa) = 52.29606 60.11676 56.20641
# Shear Modulus (GPa) = 20.07479 23.36151 21.71815
#
# Velocity S-wave (km/s) = 3.20111 3.45323 3.32955
# Velocity P-wave (km/s) = 6.35272 6.82539 6.59329
#
# Compressibility (1/GPa) = 0.01912190
#
# Stress axis : x y z
#
# Youngs Moduli (GPa) = 65.75261 63.10403 71.30737
#
# Poissons Ratio (x) = 0.44012 0.19425
# Poissons Ratio (y) = 0.45859 0.23388
# Poissons Ratio (z) = 0.17912 0.20698
#
# Static dielectric constant tensor:
#      x y z
#    x 1.746960 0.000000 -0.042190 
#    y 0.000000 1.705200 0.000000 
#    z -0.042190 0.000000 1.809210 
# 
# From -- ./inp_files/11301.got.cif
#   From: 2010.05.17/outbox.cif.g08.bks.cpg/sg15_6_cif.got.tgz:11301.got - 2010.06.03 18:47:42.
