data_PCOD9277060
_publ_section_title
;
Structure prediction by ZEFSAII (Michael W. Deem and Ramdas Pophale) SiO2 
 PCOD9277060
Probable space group: C 2/C
;
_chemical_formula_sum "Si O2"
_cell_formula_units_Z 44
_cell_length_a 8.668749
_cell_length_b 17.626270
_cell_length_c 15.046312
_cell_angle_alpha 90.000000
_cell_angle_beta 127.233648
_cell_angle_gamma 90.000000
_cell_volume 1830.439137
_symmetry_space_group_name_H-M "C 2/C"
_symmetry_group_IT_number 15
_symmetry_cell_setting 'monoclinic'
loop_
_space_group_symop_operation_xyz
x,y,z
-x,y,1/2-z
-x,-y,-z
x,-y,1/2+z
1/2+x,1/2+y,z
1/2-x,1/2+y,1/2-z
1/2-x,1/2-y,-z
1/2+x,1/2-y,1/2+z
loop_
_atom_site_type_symbol
_atom_site_label
_atom_site_fract_x
_atom_site_fract_y
_atom_site_fract_z
Si Si1 0.983408 0.687462 0.118548
Si Si2 0.890046 0.156204 0.305358
Si Si3 0.500000 0.668671 0.750000
Si Si4 0.055665 0.700157 0.935397
Si Si5 0.693704 0.426009 0.039651
Si Si6 0.140977 0.909248 0.454114
O O1 0.162650 0.638193 0.218840
O O2 0.002166 0.769753 0.169834
O O3 0.016322 0.689852 0.024916
O O4 0.769613 0.652667 0.052098
O O5 0.000000 0.150045 0.250000
O O6 0.900551 0.245232 0.336435
O O7 0.022291 0.107167 0.416609
O O8 0.352916 0.610272 0.648823
O O9 0.115179 0.623983 0.905927
O O10 0.250000 0.750000 0.000000
O O11 0.585950 0.415968 0.096545
O O12 0.726140 0.510650 0.016435
#
# Coordination Sequence:
#
# PCOD9277060 Si02
#       6
#     8   8   4   8   8   8
#     4  12  23  42  65 102 133 176 233 286 337 401
#     4  11  21  38  70  94 129 174 227 278 330 399
#     4  12  24  40  70 100 134 176 234 276 344 400
#     4  10  20  40  67  97 130 175 226 279 335 399
#     4  10  23  47  66  98 140 179 226 277 350 408
#     4  11  26  43  69  97 142 182 220 290 343 408
#
# _framework density 24.037946999999999
#
# number of rings (size 3 to 8) (size 9 to 14) (size 15 to 20)
#    0.000    1.091    3.636    4.909    1.273    0.727 
#    0.000    1.818    2.000    0.000    0.000    0.000 
#    0.000    0.000    0.000    0.000    0.000    0.000 
#
# Total GULP energy -122780.390432 kJ/mol
# GULP energy per Si atom -5580.926838 kJ/mol
# Density = 2.398324 g / cm^3
# Si number density = 24.037947 Si / 1000 Ang^3
#
#
#
# Elastic Constant Matrix: (Units=GPa)
#
#
# Indices 1 2 3 4 5 6 
#
# 1 64.9664 22.4873 27.9231 0.0000 4.4461 0.0000
# 2 22.4873 100.7431 2.5264 0.0000 5.6627 0.0000
# 3 27.9231 2.5264 73.1670 0.0000 13.4094 0.0000
# 4 0.0000 0.0000 0.0000 16.9798 0.0000 -2.0818
# 5 4.4461 5.6627 13.4094 0.0000 38.4762 0.0000
# 6 0.0000 0.0000 0.0000 -2.0818 0.0000 25.2930
#
#
#
# Elastic Compliance Matrix: (Units=1/GPa)
#
#
# Indices 1 2 3 4 5 6 
#
# 1 0.020154 -0.004361 -0.007725 0.000000 0.001005 0.000000
# 2 -0.004361 0.010953 0.001591 0.000000 -0.001663 0.000000
# 3 -0.007725 0.001591 0.017562 0.000000 -0.005462 0.000000
# 4 0.000000 0.000000 0.000000 0.059494 0.000000 0.004897
# 5 0.001005 -0.001663 -0.005462 0.000000 0.028022 0.000000
# 6 0.000000 0.000000 0.000000 0.004897 0.000000 0.039940
#
#
# Mechanical properties :
#
#
# Convention : Reuss Voigt Hill
#
# Bulk Modulus (GPa) = 36.13019 38.30558 37.21788
# Shear Modulus (GPa) = 24.23171 28.54577 26.38874
#
# Velocity S-wave (km/s) = 3.17844 3.44979 3.31689
# Velocity P-wave (km/s) = 5.34164 5.64253 5.49415
#
# Compressibility (1/GPa) = 0.02767768
#
# Stress axis : x y z
#
# Youngs Moduli (GPa) = 49.61870 91.29660 56.94256
#
# Poissons Ratio (x) = 0.39818 0.43988
# Poissons Ratio (y) = 0.21641 -0.09059
# Poissons Ratio (z) = 0.38330 -0.14525
#
# Static dielectric constant tensor:
#      x y z
#    x 2.057020 0.000000 -0.002000 
#    y 0.000000 1.950380 0.000000 
#    z -0.002000 0.000000 1.937900 
# 
# From -- ./inp_files/134963.got.cif
#   From: 2010.05.17/outbox.cif.g08.bks.cpg/sg15_68_cif.got.tgz:134963.got - 2010.06.03 18:47:42.
