data_PCOD9277110
_publ_section_title
;
Structure prediction by ZEFSAII (Michael W. Deem and Ramdas Pophale) SiO2 
 PCOD9277110
Probable space group: C 2/C
;
_chemical_formula_sum "Si O2"
_cell_formula_units_Z 40
_cell_length_a 14.965768
_cell_length_b 13.077981
_cell_length_c 12.521725
_cell_angle_alpha 90.000000
_cell_angle_beta 135.032911
_cell_angle_gamma 90.000000
_cell_volume 1731.965632
_symmetry_space_group_name_H-M "C 2/C"
_symmetry_group_IT_number 15
_symmetry_cell_setting 'monoclinic'
loop_
_space_group_symop_operation_xyz
x,y,z
-x,y,1/2-z
-x,-y,-z
x,-y,1/2+z
1/2+x,1/2+y,z
1/2-x,1/2+y,1/2-z
1/2-x,1/2-y,-z
1/2+x,1/2-y,1/2+z
loop_
_atom_site_type_symbol
_atom_site_label
_atom_site_fract_x
_atom_site_fract_y
_atom_site_fract_z
Si Si1 0.000000 0.991898 0.250000
Si Si2 0.919121 0.669743 0.780843
Si Si3 0.000000 0.481332 0.750000
Si Si4 0.427963 0.378108 0.895390
Si Si5 0.798405 0.071865 0.812517
Si Si6 0.753686 0.631714 0.969231
O O1 0.880050 0.922406 0.118077
O O2 0.958325 0.066049 0.309545
O O3 0.912298 0.758946 0.861185
O O4 0.774347 0.629095 0.652638
O O5 0.000000 0.714651 0.750000
O O6 0.988733 0.559254 0.842517
O O7 0.875152 0.416773 0.628513
O O8 0.311382 0.448881 0.835263
O O9 0.556595 0.391305 0.070135
O O10 0.734429 0.106231 0.647801
O O11 0.750000 0.750000 0.000000
#
# Coordination Sequence:
#
# PCOD9277110 Si02
#       6
#     4   8   4   8   8   8
#     4  10  20  40  68  90 126 178 232 272 340 408
#     4  10  23  42  66 104 134 178 222 292 348 400
#     4  10  24  42  66  98 134 176 234 282 338 410
#     4  10  21  42  68  97 134 177 230 286 345 407
#     4  10  24  40  65 101 134 178 234 280 338 427
#     4  11  24  42  65  95 138 186 222 282 344 410
#
# _framework density 23.095146
#
# number of rings (size 3 to 8) (size 9 to 14) (size 15 to 20)
#    0.600    1.200    1.000    1.800    0.000   12.800 
#    0.000    0.000    0.000    0.000    0.000    0.000 
#    0.000    0.000    0.000    0.000    0.000    0.000 
#
# Total GULP energy -111388.383503 kJ/mol
# GULP energy per Si atom -5569.419175 kJ/mol
# Density = 2.304258 g / cm^3
# Si number density = 23.095146 Si / 1000 Ang^3
#
#
#
# Elastic Constant Matrix: (Units=GPa)
#
#
# Indices 1 2 3 4 5 6 
#
# 1 106.4074 47.5978 36.6885 0.0000 18.7382 0.0000
# 2 47.5978 195.2073 74.8156 0.0000 23.3533 0.0000
# 3 36.6885 74.8156 105.2744 0.0000 12.6767 0.0000
# 4 0.0000 0.0000 0.0000 18.1589 0.0000 14.1077
# 5 18.7382 23.3533 12.6767 0.0000 34.8938 0.0000
# 6 0.0000 0.0000 0.0000 14.1077 0.0000 -5.1087
#
#
#
# Elastic Compliance Matrix: (Units=1/GPa)
#
#
# Indices 1 2 3 4 5 6 
#
# 1 0.011664 -0.001319 -0.002593 0.000000 -0.004439 0.000000
# 2 -0.001319 0.007509 -0.004556 0.000000 -0.002662 0.000000
# 3 -0.002593 -0.004556 0.013705 0.000000 -0.000537 0.000000
# 4 0.000000 0.000000 0.000000 0.017508 0.000000 0.048348
# 5 -0.004439 -0.002662 -0.000537 0.000000 0.033019 0.000000
# 6 0.000000 0.000000 0.000000 0.048348 0.000000 -0.062232
#
#
# Mechanical properties :
#
#
# Convention : Reuss Voigt Hill
#
# Bulk Modulus (GPa) = 62.72949 80.56589 71.64769
# Shear Modulus (GPa) = 115.14690 26.10794 70.62742
#
# Velocity S-wave (km/s) = 7.06865 3.36587 5.53601
# Velocity P-wave (km/s) = 9.68718 7.07570 8.48254
#
# Compressibility (1/GPa) = 0.01594147
#
# Stress axis : x y z
#
# Youngs Moduli (GPa) = 85.73720 133.17144 72.96465
#
# Poissons Ratio (x) = 0.17569 0.18918
# Poissons Ratio (y) = 0.11311 0.33244
# Poissons Ratio (z) = 0.22230 0.60676
#
# Static dielectric constant tensor:
#      x y z
#    x 2.039960 0.000000 -0.074340 
#    y 0.000000 1.878370 0.000000 
#    z -0.074340 0.000000 1.912870 
# 
# From -- ./inp_files/160689.got.cif
#   From: 2010.05.17/outbox.cif.g08.bks.cpg/sg15_81_cif.got.tgz:160689.got - 2010.06.03 18:47:42.
