data_PCOD9277587
_publ_section_title
;
Structure prediction by ZEFSAII (Michael W. Deem and Ramdas Pophale) SiO2 
 PCOD9277587
Probable space group: C 2/C
;
_chemical_formula_sum "Si O2"
_cell_formula_units_Z 52
_cell_length_a 27.532824
_cell_length_b 5.146456
_cell_length_c 19.017086
_cell_angle_alpha 90.000000
_cell_angle_beta 107.514898
_cell_angle_gamma 90.000000
_cell_volume 2569.726325
_symmetry_space_group_name_H-M "C 2/C"
_symmetry_group_IT_number 15
_symmetry_cell_setting 'monoclinic'
loop_
_space_group_symop_operation_xyz
x,y,z
-x,y,1/2-z
-x,-y,-z
x,-y,1/2+z
1/2+x,1/2+y,z
1/2-x,1/2+y,1/2-z
1/2-x,1/2-y,-z
1/2+x,1/2-y,1/2+z
loop_
_atom_site_type_symbol
_atom_site_label
_atom_site_fract_x
_atom_site_fract_y
_atom_site_fract_z
Si Si1 0.081706 0.534930 0.027691
Si Si2 0.404117 0.523754 0.687962
Si Si3 0.544456 0.448582 0.432675
Si Si4 0.699761 0.431464 0.921595
Si Si5 0.000000 0.646613 0.750000
Si Si6 0.307982 0.932881 0.485095
Si Si7 0.048981 0.284992 0.663109
O O1 0.074366 0.592149 0.106399
O O2 0.049249 0.285037 0.990099
O O3 0.140306 0.478524 0.034336
O O4 0.063424 0.785009 0.974944
O O5 0.419764 0.628854 0.617764
O O6 0.345728 0.446998 0.653905
O O7 0.448156 0.307560 0.717310
O O8 0.412549 0.705477 0.758611
O O9 0.486631 0.451462 0.379385
O O10 0.695890 0.146722 0.954220
O O11 0.692147 0.647001 0.980311
O O12 0.756225 0.505188 0.919639
O O13 0.990576 0.470941 0.814002
#
# Coordination Sequence:
#
# PCOD9277587 Si02
#       7
#     8   8   8   8   4   8   8
#     4  12  25  41  69  94 134 163 217 272 324 368
#     4  12  23  40  66  92 128 174 214 261 317 389
#     4  12  23  43  63  97 128 174 213 261 314 389
#     4  10  22  38  69  93 123 164 213 267 309 383
#     4  12  24  42  62  88 136 172 216 246 322 398
#     4  10  20  41  65  98 121 159 217 266 320 365
#     4  12  27  40  62  97 133 175 211 268 324 395
#
# _framework density 20.235620000000001
#
# number of rings (size 3 to 8) (size 9 to 14) (size 15 to 20)
#    0.000    0.615    6.154    1.846    4.308    0.000 
#    0.000    0.000    3.385    0.000    0.000    0.000 
#    0.000    0.000    0.000    0.000    0.000    0.000 
#
# Total GULP energy -145320.339921 kJ/mol
# GULP energy per Si atom -5589.243843 kJ/mol
# Density = 2.018956 g / cm^3
# Si number density = 20.235620 Si / 1000 Ang^3
#
#
#
# Elastic Constant Matrix: (Units=GPa)
#
#
# Indices 1 2 3 4 5 6 
#
# 1 94.6294 7.7797 41.4092 0.0000 16.6391 0.0000
# 2 7.7797 75.6350 28.2752 0.0000 5.9768 0.0000
# 3 41.4092 28.2752 110.2083 0.0000 4.0220 0.0000
# 4 0.0000 0.0000 0.0000 26.6415 0.0000 0.1763
# 5 16.6391 5.9768 4.0220 0.0000 47.7102 0.0000
# 6 0.0000 0.0000 0.0000 0.1763 0.0000 17.7732
#
#
#
# Elastic Compliance Matrix: (Units=1/GPa)
#
#
# Indices 1 2 3 4 5 6 
#
# 1 0.013519 0.000880 -0.005145 0.000000 -0.004391 0.000000
# 2 0.000880 0.014792 -0.004059 0.000000 -0.001818 0.000000
# 3 -0.005145 -0.004059 0.012001 0.000000 0.001291 0.000000
# 4 0.000000 0.000000 0.000000 0.037538 0.000000 -0.000372
# 5 -0.004391 -0.001818 0.001291 0.000000 0.022610 0.000000
# 6 0.000000 0.000000 0.000000 -0.000372 0.000000 0.056268
#
#
# Mechanical properties :
#
#
# Convention : Reuss Voigt Hill
#
# Bulk Modulus (GPa) = 42.25977 48.37786 45.31882
# Shear Modulus (GPa) = 27.58396 31.95889 29.77143
#
# Velocity S-wave (km/s) = 3.69608 3.97840 3.83983
# Velocity P-wave (km/s) = 6.25650 6.71288 6.48870
#
# Compressibility (1/GPa) = 0.02366317
#
# Stress axis : x y z
#
# Youngs Moduli (GPa) = 73.97149 67.60381 83.32484
#
# Poissons Ratio (x) = -0.05948 0.42870
# Poissons Ratio (y) = -0.06509 0.33824
# Poissons Ratio (z) = 0.38058 0.27443
#
# Static dielectric constant tensor:
#      x y z
#    x 1.736810 0.000000 0.026330 
#    y 0.000000 1.773480 0.000000 
#    z 0.026330 0.000000 1.736220 
# 
# From -- ./inp_files/220982.got.cif
#   From: 2010.05.17/outbox.cif.g08.bks.cpg/sg15_111_cif.got.tgz:220982.got - 2010.06.03 18:47:42.
