data_PCOD9277016
_publ_section_title
;
Structure prediction by ZEFSAII (Michael W. Deem and Ramdas Pophale) SiO2 
 PCOD9277016
Probable space group: C 2/C
;
_chemical_formula_sum "Si O2"
_cell_formula_units_Z 52
_cell_length_a 13.264644
_cell_length_b 16.035324
_cell_length_c 20.607551
_cell_angle_alpha 90.000000
_cell_angle_beta 143.673076
_cell_angle_gamma 90.000000
_cell_volume 2596.622292
_symmetry_space_group_name_H-M "C 2/C"
_symmetry_group_IT_number 15
_symmetry_cell_setting 'monoclinic'
loop_
_space_group_symop_operation_xyz
x,y,z
-x,y,1/2-z
-x,-y,-z
x,-y,1/2+z
1/2+x,1/2+y,z
1/2-x,1/2+y,1/2-z
1/2-x,1/2-y,-z
1/2+x,1/2-y,1/2+z
loop_
_atom_site_type_symbol
_atom_site_label
_atom_site_fract_x
_atom_site_fract_y
_atom_site_fract_z
Si Si1 0.893862 0.883100 0.516790
Si Si2 0.119444 0.935597 0.432161
Si Si3 0.473228 0.127012 0.662861
Si Si4 0.718749 0.642841 0.263984
Si Si5 0.833642 0.825005 0.338947
Si Si6 0.016009 0.427604 0.831699
Si Si7 0.000000 0.035636 0.250000
O O1 0.717065 0.852835 0.458520
O O2 0.869999 0.863741 0.428837
O O3 0.056518 0.840292 0.633149
O O4 0.912401 0.983049 0.537800
O O5 0.305904 0.900816 0.544285
O O6 0.978519 0.865086 0.369805
O O7 0.100739 0.977455 0.352370
O O8 0.500000 0.162478 0.750000
O O9 0.645778 0.149503 0.716275
O O10 0.471882 0.027362 0.666945
O O11 0.817583 0.725892 0.335934
O O12 0.633252 0.592221 0.278782
O O13 0.853697 0.592090 0.291221
O O14 0.000000 0.394036 0.750000
#
# Coordination Sequence:
#
# PCOD9277016 Si02
#       7
#     8   8   8   8   8   8   4
#     4   9  19  38  61  86 118 162 207 262 303 362
#     4  10  21  41  65  86 120 169 212 260 298 379
#     4   8  16  31  59  87 107 147 211 254 288 357
#     4  11  24  39  60  92 133 164 196 262 331 369
#     4  11  21  37  61  93 121 162 214 259 307 372
#     4  10  20  40  67  91 117 166 221 258 298 368
#     4  10  24  44  60  92 138 166 200 258 332 378
#
# _framework density 20.026015000000001
#
# number of rings (size 3 to 8) (size 9 to 14) (size 15 to 20)
#    0.000    2.154    0.000    4.154    3.231    1.846 
#    9.692    0.000    0.000    0.000    0.000    0.000 
#    0.000    0.000    0.000    0.000    0.000    0.000 
#
# Total GULP energy -144968.939372 kJ/mol
# GULP energy per Si atom -5575.728437 kJ/mol
# Density = 1.998044 g / cm^3
# Si number density = 20.026015 Si / 1000 Ang^3
#
#
#
# Elastic Constant Matrix: (Units=GPa)
#
#
# Indices 1 2 3 4 5 6 
#
# 1 60.7175 64.9372 -24.8890 0.0000 35.4753 0.0000
# 2 64.9372 22.5276 92.3365 0.0001 -1.1406 0.0001
# 3 -24.8890 92.3365 -2.2613 0.0003 46.3910 0.0001
# 4 0.0000 0.0001 0.0003 66.7925 0.0001 32.6430
# 5 35.4753 -1.1406 46.3910 0.0001 20.7750 0.0000
# 6 0.0000 0.0001 0.0001 32.6430 0.0000 15.6955
#
#
#
# Elastic Compliance Matrix: (Units=1/GPa)
#
#
# Indices 1 2 3 4 5 6 
#
# 1 0.010413 0.002560 -0.007947 0.000000 0.000104 0.000000
# 2 0.002560 0.009930 0.006383 0.000000 -0.018081 0.000000
# 3 -0.007947 0.006383 0.004090 0.000000 0.004786 -0.000001
# 4 0.000000 0.000000 0.000000 -0.911164 0.000001 1.895011
# 5 0.000104 -0.018081 0.004786 0.000001 0.036277 -0.000002
# 6 0.000000 0.000000 -0.000001 1.895011 -0.000002 -3.877472
#
#
# Mechanical properties :
#
#
# Convention : Reuss Voigt Hill
#
# Bulk Modulus (GPa) = 37.83886 38.41703 38.12794
# Shear Modulus (GPa) = -1.05907 17.22588 8.08340
#
# Velocity S-wave (km/s) = -0.72801 2.93606 2.01127
# Velocity P-wave (km/s) = 4.26957 5.54248 4.94714
#
# Compressibility (1/GPa) = 0.02642786
#
# Stress axis : x y z
#
# Youngs Moduli (GPa) = 96.02939 100.70096 244.47179
#
# Poissons Ratio (x) = -0.25781 1.94276
# Poissons Ratio (y) = -0.24585 -1.56057
# Poissons Ratio (z) = 0.76312 -0.64282
#
# Static dielectric constant tensor:
#      x y z
#    x 1.753920 0.000000 0.002380 
#    y 0.000000 1.714370 0.000000 
#    z 0.002380 0.000000 1.728980 
# 
# From -- ./inp_files/239881.got.cif
#   From: 2010.05.17/outbox.cif.g08.bks.cpg/sg15_120_cif.got.tgz:239881.got - 2010.06.03 18:47:42.
