data_PCOD9277805
_publ_section_title
;
Structure prediction by ZEFSAII (Michael W. Deem and Ramdas Pophale) SiO2 
 PCOD9277805
Probable space group: C 2/C
;
_chemical_formula_sum "Si O2"
_cell_formula_units_Z 48
_cell_length_a 17.717411
_cell_length_b 13.651233
_cell_length_c 14.011509
_cell_angle_alpha 90.000000
_cell_angle_beta 149.736885
_cell_angle_gamma 90.000000
_cell_volume 1707.902976
_symmetry_space_group_name_H-M "C 2/C"
_symmetry_group_IT_number 15
_symmetry_cell_setting 'monoclinic'
loop_
_space_group_symop_operation_xyz
x,y,z
-x,y,1/2-z
-x,-y,-z
x,-y,1/2+z
1/2+x,1/2+y,z
1/2-x,1/2+y,1/2-z
1/2-x,1/2-y,-z
1/2+x,1/2-y,1/2+z
loop_
_atom_site_type_symbol
_atom_site_label
_atom_site_fract_x
_atom_site_fract_y
_atom_site_fract_z
Si Si1 0.859775 0.448426 0.396405
Si Si2 0.604249 0.441030 0.983758
Si Si3 0.798331 0.214659 0.324087
Si Si4 0.924227 0.769474 0.261418
Si Si5 0.713381 0.470156 0.420654
Si Si6 0.863554 0.277869 0.040857
O O1 0.696069 0.474599 0.175588
O O2 0.849451 0.330091 0.369925
O O3 0.849307 0.475077 0.495998
O O4 0.000000 0.500000 0.500000
O O5 0.442627 0.485406 0.789229
O O6 0.720959 0.474969 0.028577
O O7 0.581547 0.324196 0.947631
O O8 0.670938 0.209102 0.266141
O O9 0.949508 0.175709 0.536414
O O10 0.728150 0.177219 0.148546
O O11 0.820358 0.855067 0.106363
O O12 0.000000 0.723204 0.250000
O O13 0.000000 0.324128 0.250000
O O14 0.750000 0.250000 0.000000
#
# Coordination Sequence:
#
# PCOD9277805 Si02
#       6
#     8   8   8   8   8   8
#     4  10  23  41  61  95 133 166 212 272 332 385
#     4  10  20  42  64  94 121 169 223 259 324 392
#     4  10  24  41  63  99 129 173 220 266 331 399
#     4  11  21  42  66  95 134 168 219 271 329 397
#     4  10  20  41  70  95 122 171 223 265 319 396
#     4  11  22  43  65  92 131 170 217 276 322 390
#
# _framework density 28.10464
#
# number of rings (size 3 to 8) (size 9 to 14) (size 15 to 20)
#    0.000    1.667    3.333    2.000    0.000    2.000 
#   18.000    0.000    0.000    0.000    0.000    0.000 
#    0.000    0.000    0.000    0.000    0.000    0.000 
#
# Total GULP energy -134420.304265 kJ/mol
# GULP energy per Si atom -5600.846011 kJ/mol
# Density = 2.804067 g / cm^3
# Si number density = 28.104640 Si / 1000 Ang^3
#
#
#
# Elastic Constant Matrix: (Units=GPa)
#
#
# Indices 1 2 3 4 5 6 
#
# 1 178.7177 18.4798 53.8799 0.0000 1.1746 0.0000
# 2 18.4798 88.3627 9.8284 0.0000 -8.8250 0.0000
# 3 53.8799 9.8284 141.0071 0.0001 -20.2731 0.0000
# 4 0.0000 0.0000 0.0001 38.2604 0.0000 2.6517
# 5 1.1746 -8.8250 -20.2731 0.0000 54.5203 0.0000
# 6 0.0000 0.0000 0.0000 2.6517 0.0000 22.3157
#
#
#
# Elastic Compliance Matrix: (Units=1/GPa)
#
#
# Indices 1 2 3 4 5 6 
#
# 1 0.006509 -0.001203 -0.002590 0.000000 -0.001298 0.000000
# 2 -0.001203 0.011768 -0.000088 0.000000 0.001898 0.000000
# 3 -0.002590 -0.000088 0.008551 0.000000 0.003221 0.000000
# 4 0.000000 0.000000 0.000000 0.026354 0.000000 -0.003131
# 5 -0.001298 0.001898 0.003221 0.000000 0.019875 0.000000
# 6 0.000000 0.000000 0.000000 -0.003131 0.000000 0.045184
#
#
# Mechanical properties :
#
#
# Convention : Reuss Voigt Hill
#
# Bulk Modulus (GPa) = 52.44762 63.60709 58.02735
# Shear Modulus (GPa) = 37.77680 44.74592 41.26136
#
# Velocity S-wave (km/s) = 3.67024 3.99446 3.83578
# Velocity P-wave (km/s) = 6.05499 6.62991 6.34896
#
# Compressibility (1/GPa) = 0.01906664
#
# Stress axis : x y z
#
# Youngs Moduli (GPa) = 153.62988 84.97714 116.94919
#
# Poissons Ratio (x) = 0.10221 0.30290
# Poissons Ratio (y) = 0.18479 0.01026
# Poissons Ratio (z) = 0.39790 0.00745
#
# Static dielectric constant tensor:
#      x y z
#    x 2.185790 0.000000 -0.110710 
#    y 0.000000 2.244640 0.000000 
#    z -0.110710 0.000000 2.330300 
# 
# From -- ./inp_files/163312.got.cif
#   From: 2010.05.17/outbox.cif.g08.bks.cpg/sg15_82_cif.got.tgz:163312.got - 2010.06.03 18:47:42.
