data_PCOD9277274
_publ_section_title
;
Structure prediction by ZEFSAII (Michael W. Deem and Ramdas Pophale) SiO2 
 PCOD9277274
Probable space group: C 2/C
;
_chemical_formula_sum "Si O2"
_cell_formula_units_Z 44
_cell_length_a 21.830540
_cell_length_b 9.010685
_cell_length_c 9.586929
_cell_angle_alpha 90.000000
_cell_angle_beta 61.157908
_cell_angle_gamma 90.000000
_cell_volume 1651.894726
_symmetry_space_group_name_H-M "C 2/C"
_symmetry_group_IT_number 15
_symmetry_cell_setting 'monoclinic'
loop_
_space_group_symop_operation_xyz
x,y,z
-x,y,1/2-z
-x,-y,-z
x,-y,1/2+z
1/2+x,1/2+y,z
1/2-x,1/2+y,1/2-z
1/2-x,1/2-y,-z
1/2+x,1/2-y,1/2+z
loop_
_atom_site_type_symbol
_atom_site_label
_atom_site_fract_x
_atom_site_fract_y
_atom_site_fract_z
Si Si1 0.449048 0.011127 0.925801
Si Si2 0.777913 0.945213 0.430380
Si Si3 0.139250 0.211232 0.210320
Si Si4 0.500000 0.562621 0.250000
Si Si5 0.598860 0.675080 0.556395
Si Si6 0.684080 0.016155 0.274371
O O1 0.500000 0.068222 0.750000
O O2 0.425782 0.844393 0.908446
O O3 0.378497 0.087754 0.064781
O O4 0.500000 0.000000 0.000000
O O5 0.801066 0.117555 0.432489
O O6 0.727942 0.894266 0.611841
O O7 0.852853 0.866819 0.365699
O O8 0.736177 0.944714 0.331843
O O9 0.142514 0.158662 0.367321
O O10 0.149215 0.386652 0.217170
O O11 0.063992 0.158774 0.237871
O O12 0.463203 0.443055 0.392053
#
# Coordination Sequence:
#
# PCOD9277274 Si02
#       6
#     8   8   8   4   8   8
#     4  11  24  46  69 101 141 181 231 279 350 418
#     4  11  22  45  70 103 139 183 233 289 349 415
#     4  10  22  40  67 101 138 179 235 285 349 408
#     4  10  20  40  70  98 140 178 240 290 338 408
#     4  10  21  42  72 101 135 182 235 288 345 411
#     4  11  24  44  70 100 143 182 234 288 349 418
#
# _framework density 26.63608
#
# number of rings (size 3 to 8) (size 9 to 14) (size 15 to 20)
#    0.000    1.455    2.727    2.182    0.000    2.909 
#   16.364    0.000    0.000    0.000    0.000    0.000 
#    0.000    0.000    0.000    0.000    0.000    0.000 
#
# Total GULP energy -123072.550388 kJ/mol
# GULP energy per Si atom -5594.206836 kJ/mol
# Density = 2.657546 g / cm^3
# Si number density = 26.636080 Si / 1000 Ang^3
#
#
#
# Elastic Constant Matrix: (Units=GPa)
#
#
# Indices 1 2 3 4 5 6 
#
# 1 130.6667 39.7533 11.3165 0.0000 -10.0410 0.0000
# 2 39.7533 89.3943 -3.3935 0.0000 -11.4923 0.0000
# 3 11.3165 -3.3935 117.2529 0.0000 -15.5164 0.0000
# 4 0.0000 0.0000 0.0000 24.3224 0.0000 -1.7612
# 5 -10.0410 -11.4923 -15.5164 0.0000 41.0137 0.0000
# 6 0.0000 0.0000 0.0000 -1.7612 0.0000 46.1142
#
#
#
# Elastic Compliance Matrix: (Units=1/GPa)
#
#
# Indices 1 2 3 4 5 6 
#
# 1 0.008984 -0.003930 -0.000879 0.000000 0.000765 0.000000
# 2 -0.003930 0.013397 0.001196 0.000000 0.003244 0.000000
# 3 -0.000879 0.001196 0.009121 0.000000 0.003570 0.000000
# 4 0.000000 0.000000 0.000000 0.041228 0.000000 0.001575
# 5 0.000765 0.003244 0.003570 0.000000 0.026829 0.000000
# 6 0.000000 0.000000 0.000000 0.001575 0.000000 0.021745
#
#
# Mechanical properties :
#
#
# Convention : Reuss Voigt Hill
#
# Bulk Modulus (GPa) = 41.19553 48.07406 44.63479
# Shear Modulus (GPa) = 36.59743 41.59925 39.09834
#
# Velocity S-wave (km/s) = 3.71074 3.95620 3.83544
# Velocity P-wave (km/s) = 5.81886 6.24150 6.03388
#
# Compressibility (1/GPa) = 0.02427448
#
# Stress axis : x y z
#
# Youngs Moduli (GPa) = 111.31284 74.64610 109.64241
#
# Poissons Ratio (x) = 0.29336 0.09643
# Poissons Ratio (y) = 0.43746 -0.13117
# Poissons Ratio (z) = 0.09790 -0.08930
#
# Static dielectric constant tensor:
#      x y z
#    x 2.084190 0.000000 -0.032140 
#    y 0.000000 2.129820 0.000000 
#    z -0.032140 0.000000 2.127060 
# 
# From -- ./inp_files/54344.got.cif
#   From: 2010.05.17/outbox.cif.g08.bks.cpg/sg15_28_cif.got.tgz:54344.got - 2010.06.03 18:47:42.
