data_PCOD9277404
_publ_section_title
;
Structure prediction by ZEFSAII (Michael W. Deem and Ramdas Pophale) SiO2 
 PCOD9277404
Probable space group: C 2/C
;
_chemical_formula_sum "Si O2"
_cell_formula_units_Z 52
_cell_length_a 8.045370
_cell_length_b 16.299297
_cell_length_c 26.729136
_cell_angle_alpha 90.000000
_cell_angle_beta 48.428994
_cell_angle_gamma 90.000000
_cell_volume 2622.280768
_symmetry_space_group_name_H-M "C 2/C"
_symmetry_group_IT_number 15
_symmetry_cell_setting 'monoclinic'
loop_
_space_group_symop_operation_xyz
x,y,z
-x,y,1/2-z
-x,-y,-z
x,-y,1/2+z
1/2+x,1/2+y,z
1/2-x,1/2+y,1/2-z
1/2-x,1/2-y,-z
1/2+x,1/2-y,1/2+z
loop_
_atom_site_type_symbol
_atom_site_label
_atom_site_fract_x
_atom_site_fract_y
_atom_site_fract_z
Si Si1 0.456456 0.577203 0.203940
Si Si2 0.130688 0.420063 0.276621
Si Si3 0.338395 0.691840 0.136856
Si Si4 0.470036 0.554123 0.458149
Si Si5 0.779761 0.521292 0.576432
Si Si6 0.000000 0.199351 0.750000
Si Si7 0.542328 0.861784 0.086302
O O1 0.500000 0.610759 0.250000
O O2 0.269101 0.505324 0.244741
O O3 0.382133 0.645251 0.179886
O O4 0.690884 0.540177 0.136858
O O5 0.320242 0.355030 0.256199
O O6 0.000000 0.406799 0.250000
O O7 0.968717 0.408341 0.357529
O O8 0.346079 0.619804 0.094622
O O9 0.113916 0.741585 0.187044
O O10 0.519837 0.764292 0.095133
O O11 0.500000 0.500000 0.500000
O O12 0.417623 0.490660 0.423819
O O13 0.256939 0.610413 0.512972
O O14 0.000000 0.500000 0.500000
O O15 0.835394 0.604082 0.594586
#
# Coordination Sequence:
#
# PCOD9277404 Si02
#       7
#     8   8   8   8   8   4   8
#     4  11  20  38  64  98 127 169 220 263 322 390
#     4  11  23  38  71  95 124 172 214 264 324 391
#     4  10  23  37  63  87 129 166 201 269 320 380
#     4  10  22  38  63  92 120 159 218 259 312 390
#     4   9  19  38  63  87 121 171 209 256 321 386
#     4  10  22  46  60  92 130 168 208 270 332 376
#     4  10  20  41  62  87 125 165 206 261 326 374
#
# _framework density 19.830065999999999
#
# number of rings (size 3 to 8) (size 9 to 14) (size 15 to 20)
#    0.000    1.846    2.308    1.385    5.385    2.462 
#    0.000    0.769    6.769    0.000    0.000    0.000 
#    0.000    0.000    0.000    0.000    0.000    0.000 
#
# Total GULP energy -144792.144703 kJ/mol
# GULP energy per Si atom -5568.928642 kJ/mol
# Density = 1.978493 g / cm^3
# Si number density = 19.830066 Si / 1000 Ang^3
#
#
#
# Elastic Constant Matrix: (Units=GPa)
#
#
# Indices 1 2 3 4 5 6 
#
# 1 43.3111 30.0063 11.8147 -0.0015 11.2656 0.0020
# 2 30.0063 106.2878 25.4945 -0.0010 20.4094 0.0012
# 3 11.8147 25.4945 77.6762 -0.0013 21.5499 0.0002
# 4 -0.0015 -0.0010 -0.0013 44.3810 0.0008 7.8446
# 5 11.2656 20.4094 21.5499 0.0008 33.8663 -0.0003
# 6 0.0020 0.0012 0.0002 7.8446 -0.0003 12.9182
#
#
#
# Elastic Compliance Matrix: (Units=1/GPa)
#
#
# Indices 1 2 3 4 5 6 
#
# 1 0.029595 -0.007212 -0.000739 0.000002 -0.005028 -0.000005
# 2 -0.007212 0.012681 -0.001956 0.000000 -0.003999 0.000000
# 3 -0.000739 -0.001956 0.016070 0.000001 -0.008801 -0.000001
# 4 0.000002 0.000000 0.000001 0.025241 -0.000002 -0.015328
# 5 -0.005028 -0.003999 -0.008801 -0.000002 0.039211 0.000003
# 6 -0.000005 0.000000 -0.000001 -0.015328 0.000003 0.086718
#
#
# Mechanical properties :
#
#
# Convention : Reuss Voigt Hill
#
# Bulk Modulus (GPa) = 25.95278 40.21179 33.08228
# Shear Modulus (GPa) = 20.64621 28.89709 24.77165
#
# Velocity S-wave (km/s) = 3.23020 3.82152 3.53823
# Velocity P-wave (km/s) = 5.19887 6.30827 5.78024
#
# Compressibility (1/GPa) = 0.03853152
#
# Stress axis : x y z
#
# Youngs Moduli (GPa) = 33.78959 78.85519 62.22747
#
# Poissons Ratio (x) = 0.56872 0.04601
# Poissons Ratio (y) = 0.24370 0.12171
# Poissons Ratio (z) = 0.02498 0.15423
#
# Static dielectric constant tensor:
#      x y z
#    x 1.734000 0.000000 -0.024550 
#    y 0.000000 1.691500 0.000000 
#    z -0.024550 0.000000 1.786040 
# 
# From -- ./inp_files/264186.got.cif
#   From: 2010.05.17/outbox.cif.g08.bks.cpg/sg15_133_cif.got.tgz:264186.got - 2010.06.03 18:47:42.
