data_PCOD9277692
_publ_section_title
;
Structure prediction by ZEFSAII (Michael W. Deem and Ramdas Pophale) SiO2 
 PCOD9277692
Probable space group: C 2/C
;
_chemical_formula_sum "Si O2"
_cell_formula_units_Z 44
_cell_length_a 15.092550
_cell_length_b 14.015362
_cell_length_c 20.545465
_cell_angle_alpha 90.000000
_cell_angle_beta 153.536582
_cell_angle_gamma 90.000000
_cell_volume 1936.661678
_symmetry_space_group_name_H-M "C 2/C"
_symmetry_group_IT_number 15
_symmetry_cell_setting 'monoclinic'
loop_
_space_group_symop_operation_xyz
x,y,z
-x,y,1/2-z
-x,-y,-z
x,-y,1/2+z
1/2+x,1/2+y,z
1/2-x,1/2+y,1/2-z
1/2-x,1/2-y,-z
1/2+x,1/2-y,1/2+z
loop_
_atom_site_type_symbol
_atom_site_label
_atom_site_fract_x
_atom_site_fract_y
_atom_site_fract_z
Si Si1 0.696278 0.498949 0.722978
Si Si2 0.192056 0.934558 0.576182
Si Si3 0.550023 0.824157 0.145508
Si Si4 0.215355 0.772520 0.401724
Si Si5 0.620590 0.821482 0.599262
Si Si6 0.000000 0.398595 0.250000
O O1 0.649182 0.442502 0.624866
O O2 0.496370 0.560828 0.596174
O O3 0.874724 0.571667 0.827544
O O4 0.764230 0.421686 0.819556
O O5 0.293264 0.832514 0.636037
O O6 0.319749 0.027808 0.643322
O O7 0.741421 0.756554 0.275745
O O8 0.466920 0.837047 0.163376
O O9 0.409417 0.790512 0.995111
O O10 0.250000 0.750000 0.500000
O O11 0.405420 0.824347 0.493674
O O12 0.000000 0.820147 0.250000
#
# Coordination Sequence:
#
# PCOD9277692 Si02
#       6
#     8   8   8   8   8   4
#     4  10  22  42  69  94 132 181 228 270 341 414
#     4  10  20  41  67  94 131 181 223 277 342 405
#     4  11  25  44  68  97 133 177 229 280 342 409
#     4  12  24  40  66 104 135 169 222 285 344 406
#     4  12  25  44  70  98 137 180 227 283 342 414
#     4  10  24  42  66  94 136 178 232 278 340 402
#
# _framework density 22.719508000000001
#
# number of rings (size 3 to 8) (size 9 to 14) (size 15 to 20)
#    0.000    1.091    2.727    3.818    7.636    0.727 
#    0.000    0.000    0.000    0.000    0.000    0.000 
#    0.000    0.000    0.000    0.000    0.000    0.000 
#
# Total GULP energy -122941.759267 kJ/mol
# GULP energy per Si atom -5588.261785 kJ/mol
# Density = 2.266780 g / cm^3
# Si number density = 22.719508 Si / 1000 Ang^3
#
#
#
# Elastic Constant Matrix: (Units=GPa)
#
#
# Indices 1 2 3 4 5 6 
#
# 1 63.3565 -7.6083 20.7233 0.0004 -14.3168 -0.0010
# 2 -7.6083 56.8401 7.2513 0.0331 -4.9137 0.0024
# 3 20.7233 7.2513 102.9787 0.0295 -18.7580 0.0063
# 4 0.0004 0.0331 0.0295 12.7511 -0.0003 -8.1963
# 5 -14.3168 -4.9137 -18.7580 -0.0003 35.5870 -0.0042
# 6 -0.0010 0.0024 0.0063 -8.1963 -0.0042 28.9484
#
#
#
# Elastic Compliance Matrix: (Units=1/GPa)
#
#
# Indices 1 2 3 4 5 6 
#
# 1 0.018568 0.003401 -0.002799 -0.000002 0.006465 0.000001
# 2 0.003401 0.018503 -0.001408 -0.000055 0.003181 -0.000016
# 3 -0.002799 -0.001408 0.011209 -0.000028 0.004588 -0.000010
# 4 -0.000002 -0.000055 -0.000028 0.095874 -0.000019 0.027145
# 5 0.006465 0.003181 0.004588 -0.000019 0.033558 -0.000002
# 6 0.000001 -0.000016 -0.000010 0.027145 -0.000002 0.042230
#
#
# Mechanical properties :
#
#
# Convention : Reuss Voigt Hill
#
# Bulk Modulus (GPa) = 21.42709 29.32312 25.37510
# Shear Modulus (GPa) = 21.08727 28.97788 25.03258
#
# Velocity S-wave (km/s) = 3.04987 3.57524 3.32295
# Velocity P-wave (km/s) = 4.67482 5.47519 5.09076
#
# Compressibility (1/GPa) = 0.04666990
#
# Stress axis : x y z
#
# Youngs Moduli (GPa) = 53.85496 54.04487 89.21573
#
# Poissons Ratio (x) = -0.18383 0.24968
# Poissons Ratio (y) = -0.18318 0.12561
# Poissons Ratio (z) = 0.15072 0.07609
#
# Static dielectric constant tensor:
#      x y z
#    x 1.912370 -0.000020 0.034690 
#    y -0.000020 1.814360 -0.000040 
#    z 0.034690 -0.000040 1.905700 
# 
# From -- ./inp_files/47013.got.cif
#   From: 2010.05.17/outbox.cif.g08.bks.cpg/sg15_24_cif.got.tgz:47013.got - 2010.06.03 18:47:42.
