data_PCOD9277999
_publ_section_title
;
Structure prediction by ZEFSAII (Michael W. Deem and Ramdas Pophale) SiO2 
 PCOD9277999
Probable space group: C 2/C
;
_chemical_formula_sum "Si O2"
_cell_formula_units_Z 52
_cell_length_a 24.736432
_cell_length_b 10.280985
_cell_length_c 12.450885
_cell_angle_alpha 90.000000
_cell_angle_beta 134.000380
_cell_angle_gamma 90.000000
_cell_volume 2277.735616
_symmetry_space_group_name_H-M "C 2/C"
_symmetry_group_IT_number 15
_symmetry_cell_setting 'monoclinic'
loop_
_space_group_symop_operation_xyz
x,y,z
-x,y,1/2-z
-x,-y,-z
x,-y,1/2+z
1/2+x,1/2+y,z
1/2-x,1/2+y,1/2-z
1/2-x,1/2-y,-z
1/2+x,1/2-y,1/2+z
loop_
_atom_site_type_symbol
_atom_site_label
_atom_site_fract_x
_atom_site_fract_y
_atom_site_fract_z
Si Si1 0.276876 0.376838 0.097983
Si Si2 0.366224 0.961221 0.465735
Si Si3 0.489128 0.428548 0.099019
Si Si4 0.842849 0.201978 0.323144
Si Si5 0.000000 0.683133 0.250000
Si Si6 0.129663 0.087226 0.371182
Si Si7 0.667460 0.758896 0.628594
O O1 0.210929 0.446036 0.073811
O O2 0.309142 0.474093 0.055112
O O3 0.336385 0.328184 0.269716
O O4 0.250000 0.250000 0.000000
O O5 0.365055 0.851450 0.372859
O O6 0.430572 0.910019 0.632743
O O7 0.375856 0.104858 0.433201
O O8 0.514959 0.283368 0.172048
O O9 0.549679 0.516396 0.249259
O O10 0.500000 0.500000 0.000000
O O11 0.398394 0.393472 0.968180
O O12 0.855016 0.168601 0.215999
O O13 0.755578 0.200654 0.236892
O O14 0.140179 0.174148 0.490166
#
# Coordination Sequence:
#
# PCOD9277999 Si02
#       7
#     8   8   8   8   4   8   8
#     4  11  25  38  65  97 133 167 222 274 337 401
#     4  10  22  40  64  92 131 175 219 264 341 393
#     4   9  20  38  64  92 125 173 220 265 339 394
#     4   9  20  40  64  91 129 174 215 274 332 401
#     4  10  20  42  64  90 134 178 212 276 332 396
#     4  11  22  40  67  98 129 168 228 283 329 394
#     4  11  24  40  67 100 128 174 224 277 336 405
#
# _framework density 22.829691
#
# number of rings (size 3 to 8) (size 9 to 14) (size 15 to 20)
#    0.000    1.846    1.538    1.385    4.308    3.692 
#    0.000    5.385    0.000    7.385    0.000    0.000 
#    0.000    0.000    0.000    0.000    0.000    0.000 
#
# Total GULP energy -145099.457114 kJ/mol
# GULP energy per Si atom -5580.748351 kJ/mol
# Density = 2.277773 g / cm^3
# Si number density = 22.829691 Si / 1000 Ang^3
#
#
#
# Elastic Constant Matrix: (Units=GPa)
#
#
# Indices 1 2 3 4 5 6 
#
# 1 30.8342 18.0103 -0.4004 0.0000 8.9379 0.0000
# 2 18.0103 144.9164 50.9444 0.0000 4.1467 0.0000
# 3 -0.4004 50.9444 116.3028 0.0000 4.1393 0.0000
# 4 0.0000 0.0000 0.0000-6370.8111 0.0000 -778.2095
# 5 8.9379 4.1467 4.1393 0.0000 23.9219 0.0000
# 6 0.0000 0.0000 0.0000 -778.2095 0.0000 -58.1245
#
#
#
# Elastic Compliance Matrix: (Units=1/GPa)
#
#
# Indices 1 2 3 4 5 6 
#
# 1 0.039977 -0.005654 0.003130 0.000000 -0.014498 0.000000
# 2 -0.005654 0.008971 -0.003994 0.000000 0.001248 0.000000
# 3 0.003130 -0.003994 0.010440 0.000000 -0.002284 0.000000
# 4 0.000000 0.000000 0.000000 0.000247 0.000000 -0.003307
# 5 -0.014498 0.001248 -0.002284 0.000000 0.047398 0.000000
# 6 0.000000 0.000000 0.000000 -0.003307 0.000000 0.027074
#
#
# Mechanical properties :
#
#
# Convention : Reuss Voigt Hill
#
# Bulk Modulus (GPa) = 21.57336 47.68468 34.62902
# Shear Modulus (GPa) = 30.75151 -1266.10280 -617.67564
#
# Velocity S-wave (km/s) = 3.67413 -23.57520 -16.46649
# Velocity P-wave (km/s) = 5.24110 26.83507 18.60983
#
# Compressibility (1/GPa) = 0.04635346
#
# Stress axis : x y z
#
# Youngs Moduli (GPa) = 25.01429 111.46490 95.78856
#
# Poissons Ratio (x) = 0.63022 -0.29984
# Poissons Ratio (y) = 0.14143 0.38255
# Poissons Ratio (z) = -0.07830 0.44515
#
# Static dielectric constant tensor:
#      x y z
#    x 1.955410 0.000000 -0.040290 
#    y 0.000000 1.824900 0.000000 
#    z -0.040290 0.000000 1.969380 
# 
# From -- ./inp_files/181232.got.cif
#   From: 2010.05.17/outbox.cif.g08.bks.cpg/sg15_91_cif.got.tgz:181232.got - 2010.06.03 18:47:42.
