data_PCOD9277981
_publ_section_title
;
Structure prediction by ZEFSAII (Michael W. Deem and Ramdas Pophale) SiO2 
 PCOD9277981
Probable space group: C 2/C
;
_chemical_formula_sum "Si O2"
_cell_formula_units_Z 60
_cell_length_a 12.175800
_cell_length_b 8.488402
_cell_length_c 26.097167
_cell_angle_alpha 90.000000
_cell_angle_beta 97.186096
_cell_angle_gamma 90.000000
_cell_volume 2676.036271
_symmetry_space_group_name_H-M "C 2/C"
_symmetry_group_IT_number 15
_symmetry_cell_setting 'monoclinic'
loop_
_space_group_symop_operation_xyz
x,y,z
-x,y,1/2-z
-x,-y,-z
x,-y,1/2+z
1/2+x,1/2+y,z
1/2-x,1/2+y,1/2-z
1/2-x,1/2-y,-z
1/2+x,1/2-y,1/2+z
loop_
_atom_site_type_symbol
_atom_site_label
_atom_site_fract_x
_atom_site_fract_y
_atom_site_fract_z
Si Si1 0.464150 0.187587 0.910751
Si Si2 0.959897 0.599320 0.689922
Si Si3 0.136068 0.164285 0.006384
Si Si4 0.428280 0.174386 0.440251
Si Si5 0.570135 0.790665 0.674645
Si Si6 0.000000 0.036333 0.750000
Si Si7 0.190703 0.133243 0.325305
Si Si8 0.317155 0.638259 0.057212
O O1 0.463526 0.182946 0.849070
O O2 0.590027 0.228709 0.933013
O O3 0.438199 0.013040 0.929977
O O4 0.387738 0.316210 0.934423
O O5 0.971134 0.414862 0.678169
O O6 0.000000 0.621051 0.750000
O O7 0.841351 0.681048 0.675714
O O8 0.033046 0.258944 0.976022
O O9 0.144196 0.994474 0.980489
O O10 0.250000 0.250000 0.000000
O O11 0.428338 0.255643 0.384629
O O12 0.308142 0.195454 0.458398
O O13 0.557704 0.647109 0.711572
O O14 0.686360 0.881879 0.689513
O O15 0.904817 0.941756 0.714674
O O16 0.186813 0.071486 0.383770
#
# Coordination Sequence:
#
# PCOD9277981 Si02
#       8
#     8   8   8   8   8   4   8   8
#     4  10  22  40  66  92 119 167 212 246 312 372
#     4  10  20  42  64  85 125 164 199 256 305 359
#     4  12  23  40  66  94 128 163 204 262 317 367
#     4  10  22  44  61  87 129 164 203 260 311 371
#     4  10  23  39  61  88 121 164 208 248 310 370
#     4  12  22  34  60  94 116 156 212 250 304 374
#     4  10  23  39  62  88 123 161 201 257 312 358
#     4  10  22  43  63  88 126 164 204 258 310 371
#
# _framework density 22.421220999999999
#
# number of rings (size 3 to 8) (size 9 to 14) (size 15 to 20)
#    0.000    1.600    2.667    1.600    1.867    0.533 
#    2.400    0.000    5.867    0.000    0.000    0.000 
#    0.000    0.000    0.000    0.000    0.000    0.000 
#
# Total GULP energy -167683.451116 kJ/mol
# GULP energy per Si atom -5589.448371 kJ/mol
# Density = 2.237019 g / cm^3
# Si number density = 22.421221 Si / 1000 Ang^3
#
#
#
# Elastic Constant Matrix: (Units=GPa)
#
#
# Indices 1 2 3 4 5 6 
#
# 1 130.3320 35.4435 40.7966 0.0000 -5.0659 0.0000
# 2 35.4435 62.6306 16.9746 0.0000 -6.2758 0.0000
# 3 40.7966 16.9746 115.0012 0.0000 -5.6276 0.0000
# 4 0.0000 0.0000 0.0000 26.5644 0.0000 1.4644
# 5 -5.0659 -6.2758 -5.6276 0.0000 29.4286 0.0000
# 6 0.0000 0.0000 0.0000 1.4644 0.0000 31.5696
#
#
#
# Elastic Compliance Matrix: (Units=1/GPa)
#
#
# Indices 1 2 3 4 5 6 
#
# 1 0.009856 -0.004811 -0.002780 0.000000 0.000139 0.000000
# 2 -0.004811 0.019266 -0.000986 0.000000 0.003092 0.000000
# 3 -0.002780 -0.000986 0.009886 0.000000 0.001202 0.000000
# 4 0.000000 0.000000 0.000000 0.037741 0.000000 -0.001751
# 5 0.000139 0.003092 0.001202 0.000000 0.034894 0.000000
# 6 0.000000 0.000000 0.000000 -0.001751 0.000000 0.031757
#
#
# Mechanical properties :
#
#
# Convention : Reuss Voigt Hill
#
# Bulk Modulus (GPa) = 45.75371 54.93260 50.34315
# Shear Modulus (GPa) = 29.79064 31.82913 30.80989
#
# Velocity S-wave (km/s) = 3.64906 3.77184 3.71096
# Velocity P-wave (km/s) = 6.18101 6.59716 6.39247
#
# Compressibility (1/GPa) = 0.02185615
#
# Stress axis : x y z
#
# Youngs Moduli (GPa) = 101.45642 51.90484 101.15329
#
# Poissons Ratio (x) = 0.24969 0.28118
# Poissons Ratio (y) = 0.48806 0.09973
# Poissons Ratio (z) = 0.28202 0.05117
#
# Static dielectric constant tensor:
#      x y z
#    x 1.787020 0.000000 -0.015800 
#    y 0.000000 1.829350 0.000000 
#    z -0.015800 0.000000 1.904140 
# 
# From -- ./inp_files/291576.got.cif
#   From: 2010.05.17/outbox.cif.g08.bks.cpg/sg15_146_cif.got.tgz:291576.got - 2010.06.03 18:47:42.
