data_PCOD9277725
_publ_section_title
;
Structure prediction by ZEFSAII (Michael W. Deem and Ramdas Pophale) SiO2 
 PCOD9277725
Probable space group: C 2/C
;
_chemical_formula_sum "Si O2"
_cell_formula_units_Z 52
_cell_length_a 29.913178
_cell_length_b 16.021692
_cell_length_c 17.171726
_cell_angle_alpha 90.000000
_cell_angle_beta 160.429752
_cell_angle_gamma 90.000000
_cell_volume 2756.645172
_symmetry_space_group_name_H-M "C 2/C"
_symmetry_group_IT_number 15
_symmetry_cell_setting 'monoclinic'
loop_
_space_group_symop_operation_xyz
x,y,z
-x,y,1/2-z
-x,-y,-z
x,-y,1/2+z
1/2+x,1/2+y,z
1/2-x,1/2+y,1/2-z
1/2-x,1/2-y,-z
1/2+x,1/2-y,1/2+z
loop_
_atom_site_type_symbol
_atom_site_label
_atom_site_fract_x
_atom_site_fract_y
_atom_site_fract_z
Si Si1 0.761580 0.036706 0.425303
Si Si2 0.154322 0.974663 0.263673
Si Si3 0.411354 0.105103 0.929756
Si Si4 0.567697 0.959611 0.277344
Si Si5 0.430897 0.824868 0.945836
Si Si6 0.331755 0.651410 0.853510
Si Si7 0.000000 0.058484 0.250000
O O1 0.820816 0.053815 0.607199
O O2 0.694391 0.117665 0.281028
O O3 0.656664 0.959899 0.243423
O O4 0.878295 0.002036 0.564420
O O5 0.189691 0.907283 0.256246
O O6 0.272351 0.042912 0.450127
O O7 0.000000 0.000000 0.000000
O O8 0.297636 0.142133 0.801285
O O9 0.484135 0.174439 0.995751
O O10 0.515286 0.044819 0.147254
O O11 0.500000 0.962299 0.250000
O O12 0.515305 0.878511 0.146335
O O13 0.376070 0.740571 0.893158
O O14 0.458056 0.615567 0.109006
#
# Coordination Sequence:
#
# PCOD9277725 Si02
#       7
#     8   8   8   8   8   8   4
#     4  10  20  41  68  88 124 172 219 259 312 393
#     4  12  22  40  65  99 126 172 220 259 322 392
#     4  10  20  43  67  88 128 178 213 261 332 380
#     4  11  21  41  71  93 123 173 228 259 306 406
#     4  11  23  42  66  97 125 169 217 271 326 375
#     4  11  25  40  63  99 135 165 210 276 332 373
#     4  10  22  44  58  88 136 172 200 262 328 384
#
# _framework density 18.863507999999999
#
# number of rings (size 3 to 8) (size 9 to 14) (size 15 to 20)
#    0.000    1.231    6.154    0.923    1.077    0.615 
#    5.538    3.846    0.000    0.000    0.000    0.000 
#    0.000    0.000    0.000    0.000    0.000    0.000 
#
# Total GULP energy -144906.452174 kJ/mol
# GULP energy per Si atom -5573.325084 kJ/mol
# Density = 1.882057 g / cm^3
# Si number density = 18.863508 Si / 1000 Ang^3
#
#
#
# Elastic Constant Matrix: (Units=GPa)
#
#
# Indices 1 2 3 4 5 6 
#
# 1 124.7379 76.2944 45.2570 0.0000 4.5600 0.0000
# 2 76.2944 102.8418 49.0102 0.0000 5.2950 0.0000
# 3 45.2570 49.0102 131.7389 0.0000 3.9190 0.0000
# 4 0.0000 0.0000 0.0000 11.4564 0.0000 9.1655
# 5 4.5600 5.2950 3.9190 0.0000 42.3513 0.0000
# 6 0.0000 0.0000 0.0000 9.1655 0.0000 24.7886
#
#
#
# Elastic Compliance Matrix: (Units=1/GPa)
#
#
# Indices 1 2 3 4 5 6 
#
# 1 0.014837 -0.010418 -0.001216 0.000000 -0.000182 0.000000
# 2 -0.010418 0.019183 -0.003529 0.000000 -0.000950 0.000000
# 3 -0.001216 -0.003529 0.009330 0.000000 -0.000291 0.000000
# 4 0.000000 0.000000 0.000000 0.123955 0.000000 -0.045832
# 5 -0.000182 -0.000950 -0.000291 0.000000 0.023777 0.000000
# 6 0.000000 0.000000 0.000000 -0.045832 0.000000 0.057287
#
#
# Mechanical properties :
#
#
# Convention : Reuss Voigt Hill
#
# Bulk Modulus (GPa) = 76.78299 77.82685 77.30492
# Shear Modulus (GPa) = 17.66555 28.30308 22.98431
#
# Velocity S-wave (km/s) = 3.06354 3.87772 3.49442
# Velocity P-wave (km/s) = 7.30113 7.83559 7.57308
#
# Compressibility (1/GPa) = 0.01302372
#
# Stress axis : x y z
#
# Youngs Moduli (GPa) = 67.40113 52.12888 107.17967
#
# Poissons Ratio (x) = 0.54307 0.13030
# Poissons Ratio (y) = 0.70218 0.37829
# Poissons Ratio (z) = 0.08194 0.18399
#
# Static dielectric constant tensor:
#      x y z
#    x 1.694140 0.000000 0.023890 
#    y 0.000000 1.621340 0.000000 
#    z 0.023890 0.000000 1.700630 
# 
# From -- ./inp_files/225522.got.cif
#   From: 2010.05.17/outbox.cif.g08.bks.cpg/sg15_113_cif.got.tgz:225522.got - 2010.06.03 18:47:42.
