data_PCOD9277357
_publ_section_title
;
Structure prediction by ZEFSAII (Michael W. Deem and Ramdas Pophale) SiO2 
 PCOD9277357
Probable space group: C 2/C
;
_chemical_formula_sum "Si O2"
_cell_formula_units_Z 60
_cell_length_a 20.656774
_cell_length_b 9.067379
_cell_length_c 28.349442
_cell_angle_alpha 90.000000
_cell_angle_beta 26.666294
_cell_angle_gamma 90.000000
_cell_volume 2383.061291
_symmetry_space_group_name_H-M "C 2/C"
_symmetry_group_IT_number 15
_symmetry_cell_setting 'monoclinic'
loop_
_space_group_symop_operation_xyz
x,y,z
-x,y,1/2-z
-x,-y,-z
x,-y,1/2+z
1/2+x,1/2+y,z
1/2-x,1/2+y,1/2-z
1/2-x,1/2-y,-z
1/2+x,1/2-y,1/2+z
loop_
_atom_site_type_symbol
_atom_site_label
_atom_site_fract_x
_atom_site_fract_y
_atom_site_fract_z
Si Si1 0.224448 0.213500 0.836414
Si Si2 0.273231 0.547556 0.240283
Si Si3 0.732235 0.228999 0.823946
Si Si4 0.311044 0.240194 0.040846
Si Si5 0.534481 0.882060 0.641826
Si Si6 0.500000 0.680655 0.750000
Si Si7 0.452459 0.233297 0.852229
Si Si8 0.316635 0.093492 0.551965
O O1 0.164631 0.346060 0.841942
O O2 0.243004 0.072489 0.791262
O O3 0.165966 0.170299 0.926017
O O4 0.381226 0.274119 0.750890
O O5 0.354176 0.682391 0.160475
O O6 0.302032 0.424177 0.261035
O O7 0.645240 0.193436 0.927718
O O8 0.868875 0.334963 0.742136
O O9 0.145910 0.227076 0.128416
O O10 0.366509 0.076515 0.018818
O O11 0.383071 0.296395 0.945653
O O12 0.566933 0.786180 0.666376
O O13 0.625123 0.847173 0.535899
O O14 0.552126 0.054653 0.641189
O O15 0.641889 0.590133 0.670432
#
# Coordination Sequence:
#
# PCOD9277357 Si02
#       8
#     8   8   8   8   8   4   8   8
#     4  11  21  41  63  89 124 164 201 266 302 369
#     4  10  22  38  64  88 122 162 218 250 316 364
#     4  10  20  41  59  89 117 166 200 262 304 369
#     4  10  22  38  62  92 122 161 207 251 310 376
#     4  10  21  38  58  87 122 159 200 245 304 371
#     4  10  22  34  58  86 118 156 188 246 298 362
#     4  10  22  38  62  92 122 161 207 251 310 376
#     4  10  21  38  58  87 122 159 200 245 304 371
#
# _framework density 25.177699
#
# number of rings (size 3 to 8) (size 9 to 14) (size 15 to 20)
#    0.000    1.867    2.667    0.800    3.733    0.000 
#    0.000   12.000    0.000    0.000    0.000    0.000 
#    0.000    0.000    0.000    0.000    0.000    0.000 
#
# Total GULP energy -167002.414066 kJ/mol
# GULP energy per Si atom -5566.747136 kJ/mol
# Density = 2.512039 g / cm^3
# Si number density = 25.177699 Si / 1000 Ang^3
#
#
#
# Elastic Constant Matrix: (Units=GPa)
#
#
# Indices 1 2 3 4 5 6 
#
# 1 86.7078 26.6592 49.6520 0.0003 49.4185 0.0000
# 2 26.6592 122.8317 21.0037 -0.0009 32.8732 -0.0007
# 3 49.6520 21.0037 117.2677 -0.0030 32.8829 -0.0013
# 4 0.0003 -0.0009 -0.0030 15.3872 -0.0007 0.9889
# 5 49.4185 32.8732 32.8829 -0.0007 58.1687 -0.0001
# 6 0.0000 -0.0007 -0.0013 0.9889 -0.0001 29.7818
#
#
#
# Elastic Compliance Matrix: (Units=1/GPa)
#
#
# Indices 1 2 3 4 5 6 
#
# 1 0.025054 0.000433 -0.005524 -0.000002 -0.018407 0.000000
# 2 0.000433 0.009605 -0.000331 0.000000 -0.005609 0.000000
# 3 -0.005524 -0.000331 0.011358 0.000002 -0.001540 0.000000
# 4 -0.000002 0.000000 0.000002 0.065128 0.000001 -0.002163
# 5 -0.018407 -0.005609 -0.001540 0.000001 0.036870 0.000000
# 6 0.000000 0.000000 0.000000 -0.002163 0.000000 0.033649
#
#
# Mechanical properties :
#
#
# Convention : Reuss Voigt Hill
#
# Bulk Modulus (GPa) = 28.43076 57.93744 43.18410
# Shear Modulus (GPa) = 24.48186 35.96702 30.22444
#
# Velocity S-wave (km/s) = 3.12166 3.78369 3.46850
# Velocity P-wave (km/s) = 4.93047 6.49228 5.76452
#
# Compressibility (1/GPa) = 0.03517317
#
# Stress axis : x y z
#
# Youngs Moduli (GPa) = 39.91328 104.11321 88.04624
#
# Poissons Ratio (x) = -0.04510 0.48638
# Poissons Ratio (y) = -0.01729 0.02914
# Poissons Ratio (z) = 0.22049 0.03445
#
# Static dielectric constant tensor:
#      x y z
#    x 2.313860 0.000000 0.033960 
#    y 0.000000 1.937470 0.000000 
#    z 0.033960 0.000000 2.076630 
# 
# From -- ./inp_files/302047.got.cif
#   From: 2010.05.17/outbox.cif.g08.bks.cpg/sg15_152_cif.got.tgz:302047.got - 2010.06.03 18:47:42.
