data_PCOD9277632
_publ_section_title
;
Structure prediction by ZEFSAII (Michael W. Deem and Ramdas Pophale) SiO2 
 PCOD9277632
Probable space group: C 2/C
;
_chemical_formula_sum "Si O2"
_cell_formula_units_Z 48
_cell_length_a 11.763490
_cell_length_b 10.678364
_cell_length_c 20.751894
_cell_angle_alpha 90.000000
_cell_angle_beta 39.979708
_cell_angle_gamma 90.000000
_cell_volume 1674.876447
_symmetry_space_group_name_H-M "C 2/C"
_symmetry_group_IT_number 15
_symmetry_cell_setting 'monoclinic'
loop_
_space_group_symop_operation_xyz
x,y,z
-x,y,1/2-z
-x,-y,-z
x,-y,1/2+z
1/2+x,1/2+y,z
1/2-x,1/2+y,1/2-z
1/2-x,1/2-y,-z
1/2+x,1/2-y,1/2+z
loop_
_atom_site_type_symbol
_atom_site_label
_atom_site_fract_x
_atom_site_fract_y
_atom_site_fract_z
Si Si1 0.000000 0.478563 0.250000
Si Si2 0.778172 0.758514 0.690714
Si Si3 0.436135 0.475962 0.914371
Si Si4 0.500000 0.540299 0.250000
Si Si5 0.719974 0.836386 0.576641
Si Si6 0.936573 0.608457 0.978541
Si Si7 0.282828 0.737926 0.646179
O O1 0.943086 0.567582 0.334995
O O2 0.833730 0.385576 0.312450
O O3 0.714063 0.759558 0.645597
O O4 0.656936 0.748780 0.806346
O O5 0.904265 0.880907 0.643005
O O6 0.909437 0.639949 0.637963
O O7 0.479335 0.533329 0.824952
O O8 0.245988 0.412110 0.980070
O O9 0.387542 0.570007 0.991963
O O10 0.340625 0.638524 0.309740
O O11 0.750000 0.750000 0.500000
O O12 0.916890 0.732480 0.031212
O O13 0.000000 0.500000 0.000000
#
# Coordination Sequence:
#
# PCOD9277632 Si02
#       7
#     4   8   8   4   8   8   8
#     4  11  24  49  74  94 134 191 240 293 352 440
#     4  11  23  40  65  99 136 183 238 290 348 428
#     4  10  20  41  66  94 136 186 234 282 345 435
#     4   7  16  35  64  94 122 163 226 287 326 388
#     4  12  27  43  62  97 140 184 234 299 369 421
#     4  11  22  40  69 104 138 177 227 295 362 425
#     4   9  20  40  69 100 127 173 238 286 339 417
#
# _framework density 28.658829999999998
#
# number of rings (size 3 to 8) (size 9 to 14) (size 15 to 20)
#    0.000    1.667    0.000    5.000    0.000    4.667 
#    0.000    6.667    0.000    0.000    0.000    0.000 
#    0.000    0.000    0.000    0.000    0.000    0.000 
#
# Total GULP energy -134300.659244 kJ/mol
# GULP energy per Si atom -5595.860802 kJ/mol
# Density = 2.859360 g / cm^3
# Si number density = 28.658830 Si / 1000 Ang^3
#
#
#
# Elastic Constant Matrix: (Units=GPa)
#
#
# Indices 1 2 3 4 5 6 
#
# 1 105.8320 74.2397 32.3080 0.0000 30.7790 0.0000
# 2 74.2397 124.0563 37.5306 0.0000 1.7955 0.0000
# 3 32.3080 37.5306 169.7975 0.0000 30.4631 0.0000
# 4 0.0000 0.0000 0.0000 46.5137 0.0000 1.7845
# 5 30.7790 1.7955 30.4631 0.0000 54.1140 0.0000
# 6 0.0000 0.0000 0.0000 1.7845 0.0000 50.5746
#
#
#
# Elastic Compliance Matrix: (Units=1/GPa)
#
#
# Indices 1 2 3 4 5 6 
#
# 1 0.022329 -0.013490 0.001036 0.000000 -0.012836 0.000000
# 2 -0.013490 0.016826 -0.002702 0.000000 0.008635 0.000000
# 3 0.001036 -0.002702 0.007096 0.000000 -0.004494 0.000000
# 4 0.000000 0.000000 0.000000 0.021528 0.000000 -0.000760
# 5 -0.012836 0.008635 -0.004494 0.000000 0.028024 0.000000
# 6 0.000000 0.000000 0.000000 -0.000760 0.000000 0.019800
#
#
# Mechanical properties :
#
#
# Convention : Reuss Voigt Hill
#
# Bulk Modulus (GPa) = 62.73789 76.42693 69.58241
# Shear Modulus (GPa) = 33.06321 47.28097 40.17209
#
# Velocity S-wave (km/s) = 3.40028 4.06616 3.74804
# Velocity P-wave (km/s) = 6.11185 6.98360 6.56221
#
# Compressibility (1/GPa) = 0.01593933
#
# Stress axis : x y z
#
# Youngs Moduli (GPa) = 44.78564 59.43190 140.93143
#
# Poissons Ratio (x) = 0.80173 -0.14600
# Poissons Ratio (y) = 0.60415 0.38073
# Poissons Ratio (z) = -0.04640 0.16056
#
# Static dielectric constant tensor:
#      x y z
#    x 2.457780 0.000000 -0.185700 
#    y 0.000000 2.213190 0.000000 
#    z -0.185700 0.000000 2.437510 
# 
# From -- ./inp_files/237462.got.cif
#   From: 2010.05.17/outbox.cif.g08.bks.cpg/sg15_119_cif.got.tgz:237462.got - 2010.06.03 18:47:42.
