data_PCOD9277519
_publ_section_title
;
Structure prediction by ZEFSAII (Michael W. Deem and Ramdas Pophale) SiO2 
 PCOD9277519
Probable space group: C 2/C
;
_chemical_formula_sum "Si O2"
_cell_formula_units_Z 44
_cell_length_a 28.265046
_cell_length_b 8.917072
_cell_length_c 17.282057
_cell_angle_alpha 90.000000
_cell_angle_beta 25.902899
_cell_angle_gamma 90.000000
_cell_volume 1902.817171
_symmetry_space_group_name_H-M "C 2/C"
_symmetry_group_IT_number 15
_symmetry_cell_setting 'monoclinic'
loop_
_space_group_symop_operation_xyz
x,y,z
-x,y,1/2-z
-x,-y,-z
x,-y,1/2+z
1/2+x,1/2+y,z
1/2-x,1/2+y,1/2-z
1/2-x,1/2-y,-z
1/2+x,1/2-y,1/2+z
loop_
_atom_site_type_symbol
_atom_site_label
_atom_site_fract_x
_atom_site_fract_y
_atom_site_fract_z
Si Si1 0.102454 0.679839 0.460190
Si Si2 0.389949 0.591047 0.759140
Si Si3 0.000000 0.524629 0.750000
Si Si4 0.079397 0.209813 0.372512
Si Si5 0.220823 0.617901 0.777297
Si Si6 0.336760 0.787857 0.969752
O O1 0.068144 0.629576 0.594817
O O2 0.190954 0.554324 0.307391
O O3 0.155370 0.843800 0.386067
O O4 0.999263 0.677715 0.557313
O O5 0.500675 0.646459 0.555982
O O6 0.383756 0.418991 0.741319
O O7 0.377867 0.637229 0.867073
O O8 0.286568 0.676769 0.873237
O O9 0.080858 0.417952 0.679756
O O10 0.180205 0.288846 0.264030
O O11 0.159310 0.683137 0.943906
#
# Coordination Sequence:
#
# PCOD9277519 Si02
#       6
#     8   8   4   8   8   8
#     4  11  24  44  64 100 128 177 221 271 329 393
#     4  10  21  38  66  94 133 166 235 265 321 391
#     4  10  22  42  64  88 140 168 218 270 332 380
#     4  11  22  40  64 101 133 171 212 284 327 383
#     4  11  23  42  70  91 136 175 221 267 332 392
#     4  10  20  41  64  95 124 184 218 268 317 400
#
# _framework density 23.123608000000001
#
# number of rings (size 3 to 8) (size 9 to 14) (size 15 to 20)
#    0.000    1.455    1.818    4.909    2.545    0.000 
#    3.273    1.818    0.000    0.000    0.000    0.000 
#    0.000    0.000    0.000    0.000    0.000    0.000 
#
# Total GULP energy -122873.115609 kJ/mol
# GULP energy per Si atom -5585.141619 kJ/mol
# Density = 2.307098 g / cm^3
# Si number density = 23.123608 Si / 1000 Ang^3
#
#
#
# Elastic Constant Matrix: (Units=GPa)
#
#
# Indices 1 2 3 4 5 6 
#
# 1 71.5265 17.4723 -7.5320 0.0000 -7.5696 0.0000
# 2 17.4723 72.8206 17.4405 -0.0003 16.6481 0.0001
# 3 -7.5320 17.4405 49.6356 -0.0001 -8.8020 0.0001
# 4 0.0000 -0.0003 -0.0001 31.2309 0.0000 -2.1929
# 5 -7.5696 16.6481 -8.8020 0.0000 19.7586 0.0000
# 6 0.0000 0.0001 0.0001 -2.1929 0.0000 38.0955
#
#
#
# Elastic Compliance Matrix: (Units=1/GPa)
#
#
# Indices 1 2 3 4 5 6 
#
# 1 0.021533 -0.014162 0.012837 0.000000 0.025901 0.000000
# 2 -0.014162 0.031401 -0.020452 0.000000 -0.040994 0.000000
# 3 0.012837 -0.020452 0.036057 0.000000 0.038213 0.000000
# 4 0.000000 0.000000 0.000000 0.032150 0.000000 0.001851
# 5 0.025901 -0.040994 0.038213 0.000000 0.112097 0.000000
# 6 0.000000 0.000000 0.000000 0.001851 0.000000 0.026356
#
#
# Mechanical properties :
#
#
# Convention : Reuss Voigt Hill
#
# Bulk Modulus (GPa) = 22.00885 27.63826 24.82356
# Shear Modulus (GPa) = 15.70874 28.92380 22.31627
#
# Velocity S-wave (km/s) = 2.60924 3.54055 3.10995
# Velocity P-wave (km/s) = 4.31464 5.35652 4.86356
#
# Compressibility (1/GPa) = 0.04543627
#
# Stress axis : x y z
#
# Youngs Moduli (GPa) = 46.43989 31.84646 27.73362
#
# Poissons Ratio (x) = 0.45102 -0.35601
# Poissons Ratio (y) = 0.65770 0.56721
# Poissons Ratio (z) = -0.59614 0.65132
#
# Static dielectric constant tensor:
#      x y z
#    x 1.851770 0.000000 0.008480 
#    y 0.000000 1.889210 0.000000 
#    z 0.008480 0.000000 1.895930 
# 
# From -- ./inp_files/224369.got.cif
#   From: 2010.05.17/outbox.cif.g08.bks.cpg/sg15_113_cif.got.tgz:224369.got - 2010.06.03 18:47:42.
