data_PCOD9277590
_publ_section_title
;
Structure prediction by ZEFSAII (Michael W. Deem and Ramdas Pophale) SiO2 
 PCOD9277590
Probable space group: C 2/C
;
_chemical_formula_sum "Si O2"
_cell_formula_units_Z 56
_cell_length_a 13.561445
_cell_length_b 12.138828
_cell_length_c 28.780236
_cell_angle_alpha 90.000000
_cell_angle_beta 29.436428
_cell_angle_gamma 90.000000
_cell_volume 2328.429525
_symmetry_space_group_name_H-M "C 2/C"
_symmetry_group_IT_number 15
_symmetry_cell_setting 'monoclinic'
loop_
_space_group_symop_operation_xyz
x,y,z
-x,y,1/2-z
-x,-y,-z
x,-y,1/2+z
1/2+x,1/2+y,z
1/2-x,1/2+y,1/2-z
1/2-x,1/2-y,-z
1/2+x,1/2-y,1/2+z
loop_
_atom_site_type_symbol
_atom_site_label
_atom_site_fract_x
_atom_site_fract_y
_atom_site_fract_z
Si Si1 0.165525 0.921336 0.627115
Si Si2 0.141432 0.017126 0.896525
Si Si3 0.936224 0.628207 0.932093
Si Si4 0.203346 0.443091 0.830435
Si Si5 0.809475 0.718518 0.294547
Si Si6 0.605900 0.177304 0.648350
Si Si7 0.368453 0.292408 0.165874
O O1 0.290161 0.924858 0.529526
O O2 0.261391 0.984412 0.631101
O O3 0.174919 0.794185 0.639585
O O4 0.929439 0.942184 0.717631
O O5 0.318274 0.081696 0.850600
O O6 0.046043 0.102319 0.897373
O O7 0.228125 0.907006 0.836234
O O8 0.000000 0.000000 0.000000
O O9 0.068392 0.527377 0.858247
O O10 0.103513 0.710569 0.884305
O O11 0.818114 0.673089 0.935988
O O12 0.095773 0.325328 0.873016
O O13 0.894042 0.760837 0.209675
O O14 0.000000 0.735637 0.250000
O O15 0.369204 0.186187 0.740552
#
# Coordination Sequence:
#
# PCOD9277590 Si02
#       7
#     8   8   8   8   8   8   8
#     4  10  20  41  66 100 134 187 244 292 344 431
#     4  12  25  46  76 109 142 188 247 305 360 438
#     4  11  24  42  66 103 144 179 237 301 360 427
#     4  10  22  38  69  99 132 188 237 285 364 423
#     4  11  27  44  70 103 146 189 239 300 376 437
#     4  10  21  43  71  99 129 182 246 287 345 427
#     4  10  23  45  72  96 138 192 243 289 355 442
#
# _framework density 24.050543999999999
#
# number of rings (size 3 to 8) (size 9 to 14) (size 15 to 20)
#    0.000    1.429    1.429    3.000    8.000    2.286 
#    0.000    0.714    0.000    0.000    0.000    0.000 
#    0.000    0.000    0.000    0.000    0.000    0.000 
#
# Total GULP energy -156304.405946 kJ/mol
# GULP energy per Si atom -5582.300212 kJ/mol
# Density = 2.399580 g / cm^3
# Si number density = 24.050544 Si / 1000 Ang^3
#
#
#
# Elastic Constant Matrix: (Units=GPa)
#
#
# Indices 1 2 3 4 5 6 
#
# 1 126.7418 42.9845 24.9303 0.0001 18.2543 0.0003
# 2 42.9845 125.3829 15.7182 0.0003 6.8071 0.0001
# 3 24.9303 15.7182 72.2718 0.0006 18.5836 0.0003
# 4 0.0001 0.0003 0.0006 17.2279 0.0004 11.2856
# 5 18.2543 6.8071 18.5836 0.0004 28.5209 -0.0007
# 6 0.0003 0.0001 0.0003 11.2856 -0.0007 30.0490
#
#
#
# Elastic Compliance Matrix: (Units=1/GPa)
#
#
# Indices 1 2 3 4 5 6 
#
# 1 0.009855 -0.002931 -0.001586 0.000000 -0.004575 0.000000
# 2 -0.002931 0.009093 -0.001070 0.000000 0.000403 0.000000
# 3 -0.001586 -0.001070 0.017166 0.000000 -0.009915 0.000000
# 4 0.000000 0.000000 0.000000 0.076986 -0.000002 -0.028914
# 5 -0.004575 0.000403 -0.009915 -0.000002 0.044354 0.000002
# 6 0.000000 0.000000 0.000000 -0.028914 0.000002 0.044138
#
#
# Mechanical properties :
#
#
# Convention : Reuss Voigt Hill
#
# Bulk Modulus (GPa) = 40.09729 54.62916 47.36323
# Shear Modulus (GPa) = 22.61632 31.21046 26.91339
#
# Velocity S-wave (km/s) = 3.06987 3.60627 3.34883
# Velocity P-wave (km/s) = 5.41052 6.33276 5.88972
#
# Compressibility (1/GPa) = 0.02493934
#
# Stress axis : x y z
#
# Youngs Moduli (GPa) = 101.47092 109.97728 58.25553
#
# Poissons Ratio (x) = 0.32239 0.09237
# Poissons Ratio (y) = 0.29745 0.06234
# Poissons Ratio (z) = 0.16090 0.11768
#
# Static dielectric constant tensor:
#      x y z
#    x 1.911510 0.000000 0.069100 
#    y 0.000000 1.964850 0.000000 
#    z 0.069100 0.000000 2.024970 
# 
# From -- ./inp_files/313736.got.cif
#   From: 2010.05.17/outbox.cif.g08.bks.cpg/sg15_157_cif.got.tgz:313736.got - 2010.06.03 18:47:42.
