data_PCOD9277242
_publ_section_title
;
Structure prediction by ZEFSAII (Michael W. Deem and Ramdas Pophale) SiO2 
 PCOD9277242
Probable space group: C 2/C
;
_chemical_formula_sum "Si O2"
_cell_formula_units_Z 44
_cell_length_a 13.404411
_cell_length_b 4.757789
_cell_length_c 27.462261
_cell_angle_alpha 90.000000
_cell_angle_beta 97.115500
_cell_angle_gamma 90.000000
_cell_volume 1737.926970
_symmetry_space_group_name_H-M "C 2/C"
_symmetry_group_IT_number 15
_symmetry_cell_setting 'monoclinic'
loop_
_space_group_symop_operation_xyz
x,y,z
-x,y,1/2-z
-x,-y,-z
x,-y,1/2+z
1/2+x,1/2+y,z
1/2-x,1/2+y,1/2-z
1/2-x,1/2-y,-z
1/2+x,1/2-y,1/2+z
loop_
_atom_site_type_symbol
_atom_site_label
_atom_site_fract_x
_atom_site_fract_y
_atom_site_fract_z
Si Si1 0.237504 0.893943 0.715823
Si Si2 0.480308 0.214278 0.805859
Si Si3 0.750000 0.250000 0.000000
Si Si4 0.092743 0.183879 0.026495
Si Si5 0.588717 0.093754 0.937976
Si Si6 0.911734 0.783741 0.153819
O O1 0.249717 0.212040 0.733918
O O2 0.129102 0.822960 0.688707
O O3 0.320468 0.797431 0.682957
O O4 0.500000 0.269527 0.750000
O O5 0.494802 0.886505 0.816526
O O6 0.561642 0.389785 0.841803
O O7 0.672984 0.331317 0.948837
O O8 0.813079 0.019636 0.967180
O O9 0.029015 0.319796 0.067045
O O10 0.119821 0.451336 0.993425
O O11 0.000000 0.000000 0.000000
O O12 0.600422 0.858067 0.898814
#
# Coordination Sequence:
#
# PCOD9277242 Si02
#       6
#     8   8   4   8   8   8
#     4  12  23  43  69  97 132 179 227 276 348 410
#     4  12  24  44  71  96 139 185 221 285 359 397
#     4  10  20  40  70  90 134 176 222 274 356 406
#     4   9  20  41  66  91 132 177 214 281 347 412
#     4  10  23  41  65  97 134 175 229 283 347 406
#     4  12  26  43  70 103 138 177 240 286 328 431
#
# _framework density 25.317516999999999
#
# number of rings (size 3 to 8) (size 9 to 14) (size 15 to 20)
#    0.000    1.091    3.636    2.182    5.091    1.455 
#    6.545    0.000    0.000    0.000    0.000    0.000 
#    0.000    0.000    0.000    0.000    0.000    0.000 
#
# Total GULP energy -122630.702662 kJ/mol
# GULP energy per Si atom -5574.122848 kJ/mol
# Density = 2.525989 g / cm^3
# Si number density = 25.317517 Si / 1000 Ang^3
#
#
#
# Elastic Constant Matrix: (Units=GPa)
#
#
# Indices 1 2 3 4 5 6 
#
# 1 142.9119 17.9931 23.4794 0.0000 -5.4979 0.0000
# 2 17.9931 109.7777 11.4266 0.0000 -8.8782 0.0000
# 3 23.4794 11.4266 52.5531 0.0000 -4.7899 0.0000
# 4 0.0000 0.0000 0.0000 50.4025 0.0000 45.9704
# 5 -5.4979 -8.8782 -4.7899 0.0000 34.5213 0.0000
# 6 0.0000 0.0000 0.0000 45.9704 0.0000 105.0775
#
#
#
# Elastic Compliance Matrix: (Units=1/GPa)
#
#
# Indices 1 2 3 4 5 6 
#
# 1 0.007651 -0.000879 -0.003177 0.000000 0.000552 0.000000
# 2 -0.000879 0.009580 -0.001498 0.000000 0.002116 0.000000
# 3 -0.003177 -0.001498 0.020957 0.000000 0.002017 0.000000
# 4 0.000000 0.000000 0.000000 0.033013 0.000000 -0.014443
# 5 0.000552 0.002116 0.002017 0.000000 0.029880 0.000000
# 6 0.000000 0.000000 0.000000 -0.014443 0.000000 0.015835
#
#
# Mechanical properties :
#
#
# Convention : Reuss Voigt Hill
#
# Bulk Modulus (GPa) = 36.92480 45.67122 41.29801
# Shear Modulus (GPa) = 36.48282 54.82317 45.65299
#
# Velocity S-wave (km/s) = 3.80018 4.65846 4.25104
# Velocity P-wave (km/s) = 5.81993 6.85664 6.35944
#
# Compressibility (1/GPa) = 0.02708207
#
# Stress axis : x y z
#
# Youngs Moduli (GPa) = 130.69955 104.38004 47.71633
#
# Poissons Ratio (x) = 0.09172 0.15159
# Poissons Ratio (y) = 0.11485 0.07146
# Poissons Ratio (z) = 0.41523 0.15632
#
# Static dielectric constant tensor:
#      x y z
#    x 1.707020 0.000000 -0.139330 
#    y 0.000000 1.807140 0.000000 
#    z -0.139330 0.000000 1.889150 
# 
# From -- ./inp_files/294256.got.cif
#   From: 2010.05.17/outbox.cif.g08.bks.cpg/sg15_148_cif.got.tgz:294256.got - 2010.06.03 18:47:42.
