data_PCOD9277818
_publ_section_title
;
Structure prediction by ZEFSAII (Michael W. Deem and Ramdas Pophale) SiO2 
 PCOD9277818
Probable space group: C 2/C
;
_chemical_formula_sum "Si O2"
_cell_formula_units_Z 64
_cell_length_a 15.845406
_cell_length_b 21.098464
_cell_length_c 31.870500
_cell_angle_alpha 90.000000
_cell_angle_beta 163.926235
_cell_angle_gamma 90.000000
_cell_volume 2950.029467
_symmetry_space_group_name_H-M "C 2/C"
_symmetry_group_IT_number 15
_symmetry_cell_setting 'monoclinic'
loop_
_space_group_symop_operation_xyz
x,y,z
-x,y,1/2-z
-x,-y,-z
x,-y,1/2+z
1/2+x,1/2+y,z
1/2-x,1/2+y,1/2-z
1/2-x,1/2-y,-z
1/2+x,1/2-y,1/2+z
loop_
_atom_site_type_symbol
_atom_site_label
_atom_site_fract_x
_atom_site_fract_y
_atom_site_fract_z
Si Si1 0.719533 0.736412 0.631588
Si Si2 0.623494 0.844077 0.989827
Si Si3 0.632726 0.874835 0.244815
Si Si4 0.748699 0.779319 0.837584
Si Si5 0.874874 0.619652 0.101999
Si Si6 0.631745 0.069106 0.571869
Si Si7 0.642520 0.845134 0.155872
Si Si8 0.180446 0.497363 0.872398
O O1 0.501195 0.774981 0.558517
O O2 0.917880 0.687271 0.752640
O O3 0.501376 0.703521 0.492939
O O4 0.000000 0.780768 0.750000
O O5 0.515945 0.865581 0.892763
O O6 0.534575 0.888442 0.985925
O O7 0.989692 0.846268 0.164217
O O8 0.526517 0.864748 0.146286
O O9 0.465778 0.934756 0.186100
O O10 0.004195 0.875035 0.425283
O O11 0.500000 0.746185 0.750000
O O12 0.569763 0.834106 0.726270
O O13 0.904530 0.726973 0.882155
O O14 0.889066 0.545948 0.120935
O O15 0.540965 0.105672 0.571345
O O16 0.000000 0.065348 0.750000
O O17 0.500000 0.000000 0.500000
O O18 0.000000 0.461378 0.750000
O O19 0.500000 0.500000 0.000000
#
# Coordination Sequence:
#
# PCOD9277818 Si02
#       8
#     8   8   8   8   8   8   8   8
#     4  12  25  41  68 101 145 185 227 290 359 423
#     4  10  21  43  67 100 138 180 233 289 353 420
#     4  11  24  42  68 102 138 181 236 295 350 411
#     4  12  20  41  72 102 135 183 235 284 354 424
#     4  11  24  40  72 103 131 181 242 290 345 423
#     4  10  21  39  68  95 135 181 225 284 353 418
#     4  10  20  41  71 101 135 176 238 294 345 415
#     4  12  26  46  67  97 142 184 234 286 348 419
#
# _framework density 21.694700000000001
#
# number of rings (size 3 to 8) (size 9 to 14) (size 15 to 20)
#    0.000    1.000    5.000    1.875    1.750    2.500 
#    0.000    3.750    0.000    0.000    0.000    0.000 
#    0.000    0.000    0.000    0.000    0.000    0.000 
#
# Total GULP energy -178269.768327 kJ/mol
# GULP energy per Si atom -5570.930260 kJ/mol
# Density = 2.164532 g / cm^3
# Si number density = 21.694700 Si / 1000 Ang^3
#
#
#
# Elastic Constant Matrix: (Units=GPa)
#
#
# Indices 1 2 3 4 5 6 
#
# 1 150.6849 67.3815 54.6059 0.0001 -37.9803 0.0172
# 2 67.3815 141.3065 37.9702 0.0200 -20.0760 -0.0069
# 3 54.6059 37.9702 70.5794 -0.0763 -10.7440 -0.0084
# 4 0.0001 0.0200 -0.0763 33.9781 0.0292 -6.5784
# 5 -37.9803 -20.0760 -10.7440 0.0292 26.3174 0.0249
# 6 0.0172 -0.0069 -0.0084 -6.5784 0.0249 12.4609
#
#
#
# Elastic Compliance Matrix: (Units=1/GPa)
#
#
# Indices 1 2 3 4 5 6 
#
# 1 0.014508 -0.002683 -0.007363 -0.000044 0.015885 -0.000082
# 2 -0.002683 0.009377 -0.002633 -0.000014 0.002207 -0.000005
# 3 -0.007363 -0.002633 0.020641 0.000064 -0.004209 0.000065
# 4 -0.000044 -0.000014 0.000064 0.032782 -0.000102 0.017306
# 5 0.015885 0.002207 -0.004209 -0.000102 0.060888 -0.000199
# 6 -0.000082 -0.000005 0.000065 0.017306 -0.000199 0.089388
#
#
# Mechanical properties :
#
#
# Convention : Reuss Voigt Hill
#
# Bulk Modulus (GPa) = 52.17006 75.83178 64.00092
# Shear Modulus (GPa) = 19.28021 28.05881 23.66951
#
# Velocity S-wave (km/s) = 2.98435 3.60022 3.30665
# Velocity P-wave (km/s) = 5.99789 7.23271 6.64405
#
# Compressibility (1/GPa) = 0.01916808
#
# Stress axis : x y z
#
# Youngs Moduli (GPa) = 68.92589 106.64213 48.44624
#
# Poissons Ratio (x) = 0.28609 0.35673
# Poissons Ratio (y) = 0.18491 0.12757
# Poissons Ratio (z) = 0.50753 0.28081
#
# Static dielectric constant tensor:
#      x y z
#    x 1.887090 -0.000030 0.041280 
#    y -0.000030 1.863220 -0.000010 
#    z 0.041280 -0.000010 1.865380 
# 
# From -- ./inp_files/314530.got.cif
#   From: 2010.05.17/outbox.cif.g08.bks.cpg/sg15_158_cif.got.tgz:314530.got - 2010.06.03 18:47:42.
