data_PCOD9277388
_publ_section_title
;
Structure prediction by ZEFSAII (Michael W. Deem and Ramdas Pophale) SiO2 
 PCOD9277388
Probable space group: C 2/C
;
_chemical_formula_sum "Si O2"
_cell_formula_units_Z 64
_cell_length_a 27.306869
_cell_length_b 19.738489
_cell_length_c 8.925551
_cell_angle_alpha 90.000000
_cell_angle_beta 45.998996
_cell_angle_gamma 90.000000
_cell_volume 3460.569594
_symmetry_space_group_name_H-M "C 2/C"
_symmetry_group_IT_number 15
_symmetry_cell_setting 'monoclinic'
loop_
_space_group_symop_operation_xyz
x,y,z
-x,y,1/2-z
-x,-y,-z
x,-y,1/2+z
1/2+x,1/2+y,z
1/2-x,1/2+y,1/2-z
1/2-x,1/2-y,-z
1/2+x,1/2-y,1/2+z
loop_
_atom_site_type_symbol
_atom_site_label
_atom_site_fract_x
_atom_site_fract_y
_atom_site_fract_z
Si Si1 0.819192 0.695695 0.173327
Si Si2 0.292138 0.202022 0.589697
Si Si3 0.952152 0.456660 0.707696
Si Si4 0.432586 0.707034 0.487019
Si Si5 0.681701 0.951158 0.951695
Si Si6 0.220768 0.019414 0.000971
Si Si7 0.559695 0.196849 0.243752
Si Si8 0.326093 0.592590 0.664121
O O1 0.749566 0.731968 0.268375
O O2 0.808480 0.701089 0.376133
O O3 0.835004 0.621636 0.081138
O O4 0.883367 0.742148 0.000600
O O5 0.367380 0.199496 0.496083
O O6 0.241539 0.138892 0.714235
O O7 0.940288 0.378886 0.682946
O O8 0.000000 0.449899 0.750000
O O9 0.000000 0.500000 0.500000
O O10 0.882174 0.498685 0.882782
O O11 0.500000 0.694953 0.250000
O O12 0.445549 0.744952 0.618095
O O13 0.386864 0.639692 0.593075
O O14 0.727072 0.939990 0.003736
O O15 0.730798 0.984955 0.725025
O O16 0.188462 0.963548 0.178978
O O17 0.165988 0.059649 0.017396
O O18 0.500000 0.203099 0.250000
#
# Coordination Sequence:
#
# PCOD9277388 Si02
#       8
#     8   8   8   8   8   8   8   8
#     4   9  19  33  61  86 108 157 202 241 291 349
#     4   9  17  36  59  82 119 151 198 243 292 352
#     4  11  25  35  52  85 126 167 203 235 282 357
#     4  10  23  41  62  82 119 159 203 244 295 362
#     4  11  21  36  57  88 119 159 195 248 294 349
#     4  10  21  35  62  88 118 142 195 250 309 354
#     4  10  22  39  56  85 121 165 199 241 291 353
#     4  10  20  41  61  92 116 154 191 254 305 358
#
# _framework density 18.494064999999999
#
# number of rings (size 3 to 8) (size 9 to 14) (size 15 to 20)
#    0.000    2.000    1.250    3.000    7.000    1.000 
#    2.250    1.875    0.000    0.000    0.000    0.000 
#    0.000    0.000    0.000    0.000    0.000    0.000 
#
# Total GULP energy -178284.920705 kJ/mol
# GULP energy per Si atom -5571.403772 kJ/mol
# Density = 1.845197 g / cm^3
# Si number density = 18.494065 Si / 1000 Ang^3
#
#
#
# Elastic Constant Matrix: (Units=GPa)
#
#
# Indices 1 2 3 4 5 6 
#
# 1 96.7391 52.3028 47.4870 0.0000 -13.6372 0.0000
# 2 52.3028 86.2623 32.1896 0.0000 -11.0381 0.0000
# 3 47.4870 32.1896 64.6575 0.0000 -11.9760 0.0000
# 4 0.0000 0.0000 0.0000 19.2205 0.0000 1.1103
# 5 -13.6372 -11.0381 -11.9760 0.0000 28.7119 0.0000
# 6 0.0000 0.0000 0.0000 1.1103 0.0000 35.9896
#
#
#
# Elastic Compliance Matrix: (Units=1/GPa)
#
#
# Indices 1 2 3 4 5 6 
#
# 1 0.020051 -0.008029 -0.010335 0.000000 0.002126 0.000000
# 2 -0.008029 0.017652 -0.002537 0.000000 0.001915 0.000000
# 3 -0.010335 -0.002537 0.025175 0.000000 0.004616 0.000000
# 4 0.000000 0.000000 0.000000 0.052121 0.000000 -0.001608
# 5 0.002126 0.001915 0.004616 0.000000 0.038500 0.000000
# 6 0.000000 0.000000 0.000000 -0.001608 0.000000 0.027835
#
#
# Mechanical properties :
#
#
# Convention : Reuss Voigt Hill
#
# Bulk Modulus (GPa) = 47.44692 56.84642 52.14667
# Shear Modulus (GPa) = 21.72390 24.49637 23.11014
#
# Velocity S-wave (km/s) = 3.43102 3.64339 3.53880
# Velocity P-wave (km/s) = 6.43481 6.96444 6.70486
#
# Compressibility (1/GPa) = 0.02107619
#
# Stress axis : x y z
#
# Youngs Moduli (GPa) = 49.87315 56.65038 39.72213
#
# Poissons Ratio (x) = 0.45482 0.41054
# Poissons Ratio (y) = 0.40041 0.10077
# Poissons Ratio (z) = 0.51546 0.14372
#
# Static dielectric constant tensor:
#      x y z
#    x 1.690180 0.000000 -0.004980 
#    y 0.000000 1.706050 0.000000 
#    z -0.004980 0.000000 1.627710 
# 
# From -- ./inp_files/70584.got.cif
#   From: 2010.05.17/outbox.cif.g08.bks.cpg/sg15_36_cif.got.tgz:70584.got - 2010.06.03 18:47:42.
