data_PCOD9277341
_publ_section_title
;
Structure prediction by ZEFSAII (Michael W. Deem and Ramdas Pophale) SiO2 
 PCOD9277341
Probable space group: C 2/C
;
_chemical_formula_sum "Si O2"
_cell_formula_units_Z 44
_cell_length_a 15.758266
_cell_length_b 8.812526
_cell_length_c 14.577615
_cell_angle_alpha 90.000000
_cell_angle_beta 93.317348
_cell_angle_gamma 90.000000
_cell_volume 2021.003078
_symmetry_space_group_name_H-M "C 2/C"
_symmetry_group_IT_number 15
_symmetry_cell_setting 'monoclinic'
loop_
_space_group_symop_operation_xyz
x,y,z
-x,y,1/2-z
-x,-y,-z
x,-y,1/2+z
1/2+x,1/2+y,z
1/2-x,1/2+y,1/2-z
1/2-x,1/2-y,-z
1/2+x,1/2-y,1/2+z
loop_
_atom_site_type_symbol
_atom_site_label
_atom_site_fract_x
_atom_site_fract_y
_atom_site_fract_z
Si Si1 0.055457 0.625585 0.948133
Si Si2 0.258052 0.198968 0.751755
Si Si3 0.333082 0.065112 0.170695
Si Si4 0.433874 0.334665 0.820256
Si Si5 0.000000 0.300462 0.750000
Si Si6 0.605843 0.349851 0.106767
O O1 0.139026 0.540185 0.911742
O O2 0.987716 0.703857 0.874785
O O3 0.091080 0.764656 0.011129
O O4 0.000000 0.500000 0.000000
O O5 0.276378 0.020772 0.742898
O O6 0.211000 0.270111 0.837571
O O7 0.352246 0.269308 0.760884
O O8 0.190966 0.212092 0.663134
O O9 0.422995 0.094607 0.220259
O O10 0.500000 0.399260 0.750000
O O11 0.399843 0.467275 0.886384
O O12 0.972507 0.204264 0.835168
#
# Coordination Sequence:
#
# PCOD9277341 Si02
#       6
#     8   8   8   8   4   8
#     4  12  26  43  70 102 143 181 228 285 349 405
#     4  11  24  43  71  98 132 181 237 277 339 407
#     4  11  22  43  67 101 132 180 229 281 340 407
#     4  12  24  45  71  99 135 185 233 277 338 417
#     4  10  20  40  76  90 136 184 232 268 346 420
#     4  11  24  43  69 103 135 177 233 289 339 402
#
# _framework density 21.771367999999999
#
# number of rings (size 3 to 8) (size 9 to 14) (size 15 to 20)
#    0.000    0.727    6.364    1.636    2.545    0.727 
#    0.000    0.909    0.000    0.000    0.000    0.000 
#    0.000    0.000    0.000    0.000    0.000    0.000 
#
# Total GULP energy -122479.776137 kJ/mol
# GULP energy per Si atom -5567.262552 kJ/mol
# Density = 2.172182 g / cm^3
# Si number density = 21.771368 Si / 1000 Ang^3
#
#
#
# Elastic Constant Matrix: (Units=GPa)
#
#
# Indices 1 2 3 4 5 6 
#
# 1 110.3262 24.2383 35.6102 0.0000 19.5502 0.0000
# 2 24.2383 78.3340 30.3902 0.0000 -2.9096 0.0000
# 3 35.6102 30.3902 39.5817 0.0000 1.9200 0.0000
# 4 0.0000 0.0000 0.0000 35.6983 0.0000 -6.7747
# 5 19.5502 -2.9096 1.9200 0.0000 32.2496 0.0000
# 6 0.0000 0.0000 0.0000 -6.7747 0.0000 50.0755
#
#
#
# Elastic Compliance Matrix: (Units=1/GPa)
#
#
# Indices 1 2 3 4 5 6 
#
# 1 0.014619 0.000181 -0.012899 0.000000 -0.008078 0.000000
# 2 0.000181 0.018383 -0.014394 0.000000 0.002406 0.000000
# 3 -0.012899 -0.014394 0.047742 0.000000 0.003679 0.000000
# 4 0.000000 0.000000 0.000000 0.028751 0.000000 0.003890
# 5 -0.008078 0.002406 0.003679 0.000000 0.035903 0.000000
# 6 0.000000 0.000000 0.000000 0.003890 0.000000 0.020496
#
#
# Mechanical properties :
#
#
# Convention : Reuss Voigt Hill
#
# Bulk Modulus (GPa) = 37.70733 45.41326 41.56029
# Shear Modulus (GPa) = 21.83781 32.80488 27.32135
#
# Velocity S-wave (km/s) = 3.17054 3.88595 3.54633
# Velocity P-wave (km/s) = 5.54620 6.40614 5.99162
#
# Compressibility (1/GPa) = 0.02652005
#
# Stress axis : x y z
#
# Youngs Moduli (GPa) = 68.40234 54.39666 20.94573
#
# Poissons Ratio (x) = -0.00984 0.27019
# Poissons Ratio (y) = -0.01237 0.30149
# Poissons Ratio (z) = 0.88236 0.78298
#
# Static dielectric constant tensor:
#      x y z
#    x 1.821630 0.000000 -0.045820 
#    y 0.000000 1.881300 0.000000 
#    z -0.045820 0.000000 1.815800 
# 
# From -- ./inp_files/202741.got.cif
#   From: 2010.05.17/outbox.cif.g08.bks.cpg/sg15_102_cif.got.tgz:202741.got - 2010.06.03 18:47:42.
