data_PCOD9277120
_publ_section_title
;
Structure prediction by ZEFSAII (Michael W. Deem and Ramdas Pophale) SiO2 
 PCOD9277120
Probable space group: C 2/C
;
_chemical_formula_sum "Si O2"
_cell_formula_units_Z 60
_cell_length_a 28.642480
_cell_length_b 6.360055
_cell_length_c 17.273457
_cell_angle_alpha 90.000000
_cell_angle_beta 71.832724
_cell_angle_gamma 90.000000
_cell_volume 2989.806320
_symmetry_space_group_name_H-M "C 2/C"
_symmetry_group_IT_number 15
_symmetry_cell_setting 'monoclinic'
loop_
_space_group_symop_operation_xyz
x,y,z
-x,y,1/2-z
-x,-y,-z
x,-y,1/2+z
1/2+x,1/2+y,z
1/2-x,1/2+y,1/2-z
1/2-x,1/2-y,-z
1/2+x,1/2-y,1/2+z
loop_
_atom_site_type_symbol
_atom_site_label
_atom_site_fract_x
_atom_site_fract_y
_atom_site_fract_z
Si Si1 0.723219 0.556435 0.471422
Si Si2 0.683223 0.831759 0.088812
Si Si3 0.564679 0.443568 0.147698
Si Si4 0.566082 0.058208 0.918016
Si Si5 0.135300 0.309150 0.516267
Si Si6 0.911610 0.698173 0.755984
Si Si7 0.530352 0.308885 0.519959
Si Si8 0.000000 0.380646 0.750000
O O1 0.750000 0.750000 0.500000
O O2 0.701338 0.387049 0.543154
O O3 0.767343 0.441381 0.404332
O O4 0.676060 0.660319 0.456006
O O5 0.639401 0.819503 0.172162
O O6 0.661078 0.977255 0.031222
O O7 0.612975 0.308949 0.102717
O O8 0.568097 0.575687 0.225339
O O9 0.558561 0.609101 0.080836
O O10 0.519768 0.279444 0.174232
O O11 0.595626 0.148091 0.830246
O O12 0.510836 0.141242 0.932657
O O13 0.590111 0.152063 0.982902
O O14 0.562952 0.810461 0.938993
O O15 0.953372 0.527344 0.757024
O O16 0.500000 0.500000 0.500000
#
# Coordination Sequence:
#
# PCOD9277120 Si02
#       8
#     8   8   8   8   8   8   8   4
#     4   9  20  39  69  95 114 155 216 270 314 388
#     4  10  20  40  68  92 120 158 212 267 324 375
#     4  12  23  39  64  89 124 177 221 258 314 386
#     4  11  25  37  58  89 132 167 212 261 323 375
#     4  11  21  39  63  91 119 165 213 260 315 385
#     4  12  24  40  60  93 131 166 207 268 320 383
#     4  11  22  40  58  86 126 177 218 259 302 376
#     4  12  24  38  58  92 132 164 218 264 312 372
#
# _framework density 20.068190000000001
#
# number of rings (size 3 to 8) (size 9 to 14) (size 15 to 20)
#    0.000    1.067    4.000    3.600    1.867    0.000 
#    0.000    0.000    8.800    0.000    0.000    0.000 
#    0.000    0.000    0.000    0.000    0.000    0.000 
#
# Total GULP energy -167345.859312 kJ/mol
# GULP energy per Si atom -5578.195310 kJ/mol
# Density = 2.002251 g / cm^3
# Si number density = 20.068190 Si / 1000 Ang^3
#
#
#
# Elastic Constant Matrix: (Units=GPa)
#
#
# Indices 1 2 3 4 5 6 
#
# 1 68.1416 33.5857 21.0351 0.0000 -26.0279 0.0000
# 2 33.5857 113.0459 36.7031 0.0000 -8.6120 0.0000
# 3 21.0351 36.7031 75.4780 0.0000 -14.4674 0.0000
# 4 0.0000 0.0000 0.0000 31.7271 0.0000 -10.7485
# 5 -26.0279 -8.6120 -14.4674 0.0000 35.8226 0.0000
# 6 0.0000 0.0000 0.0000 -10.7485 0.0000 43.0319
#
#
#
# Elastic Compliance Matrix: (Units=1/GPa)
#
#
# Indices 1 2 3 4 5 6 
#
# 1 0.023580 -0.005530 -0.000925 0.000000 0.015430 0.000000
# 2 -0.005530 0.011810 -0.004799 0.000000 -0.003117 0.000000
# 3 -0.000925 -0.004799 0.016790 0.000000 0.004955 0.000000
# 4 0.000000 0.000000 0.000000 0.034432 0.000000 0.008601
# 5 0.015430 -0.003117 0.004955 0.000000 0.040378 0.000000
# 6 0.000000 0.000000 0.000000 0.008601 0.000000 0.025387
#
#
# Mechanical properties :
#
#
# Convention : Reuss Voigt Hill
#
# Bulk Modulus (GPa) = 33.70176 48.81258 41.25717
# Shear Modulus (GPa) = 27.05986 33.13909 30.09947
#
# Velocity S-wave (km/s) = 3.67603 4.06806 3.87700
# Velocity P-wave (km/s) = 5.90320 6.81481 6.37532
#
# Compressibility (1/GPa) = 0.02967204
#
# Stress axis : x y z
#
# Youngs Moduli (GPa) = 42.40859 84.67747 59.55888
#
# Poissons Ratio (x) = 0.46825 0.05510
# Poissons Ratio (y) = 0.23451 0.28582
# Poissons Ratio (z) = 0.03923 0.40637
#
# Static dielectric constant tensor:
#      x y z
#    x 1.727420 0.000000 -0.016400 
#    y 0.000000 1.776100 0.000000 
#    z -0.016400 0.000000 1.734110 
# 
# From -- ./inp_files/223864.got.cif
#   From: 2010.05.17/outbox.cif.g08.bks.cpg/sg15_112_cif.got.tgz:223864.got - 2010.06.03 18:47:42.
