data_PCOD9277344
_publ_section_title
;
Structure prediction by ZEFSAII (Michael W. Deem and Ramdas Pophale) SiO2 
 PCOD9277344
Probable space group: C 2/C
;
_chemical_formula_sum "Si O2"
_cell_formula_units_Z 44
_cell_length_a 26.791236
_cell_length_b 10.649167
_cell_length_c 13.577863
_cell_angle_alpha 90.000000
_cell_angle_beta 151.953242
_cell_angle_gamma 90.000000
_cell_volume 1821.440595
_symmetry_space_group_name_H-M "C 2/C"
_symmetry_group_IT_number 15
_symmetry_cell_setting 'monoclinic'
loop_
_space_group_symop_operation_xyz
x,y,z
-x,y,1/2-z
-x,-y,-z
x,-y,1/2+z
1/2+x,1/2+y,z
1/2-x,1/2+y,1/2-z
1/2-x,1/2-y,-z
1/2+x,1/2-y,1/2+z
loop_
_atom_site_type_symbol
_atom_site_label
_atom_site_fract_x
_atom_site_fract_y
_atom_site_fract_z
Si Si1 0.622923 0.431106 0.635685
Si Si2 0.563681 0.005163 0.266163
Si Si3 0.500000 0.579804 0.250000
Si Si4 0.901989 0.337835 0.352879
Si Si5 0.200165 0.238981 0.606190
Si Si6 0.731140 0.661296 0.875636
O O1 0.570831 0.309755 0.594862
O O2 0.653058 0.544688 0.759977
O O3 0.737750 0.372157 0.800601
O O4 0.593077 0.324299 0.879493
O O5 0.500000 0.958287 0.250000
O O6 0.655862 0.100949 0.455769
O O7 0.604873 0.894683 0.267453
O O8 0.485514 0.085339 0.061525
O O9 0.554407 0.489643 0.427332
O O10 0.789914 0.349309 0.213023
O O11 0.189211 0.229093 0.705096
O O12 0.750000 0.750000 0.000000
#
# Coordination Sequence:
#
# PCOD9277344 Si02
#       6
#     8   8   4   8   8   8
#     4   9  22  45  74 110 158 199 263 329 381 482
#     4  11  21  44  76 108 156 209 264 333 393 477
#     4  10  20  40  82 118 162 214 260 332 402 468
#     4   9  22  43  74 111 154 204 263 323 399 468
#     4   9  21  45  73 114 155 208 261 320 395 477
#     4  11  24  43  73 112 155 207 260 323 402 477
#
# _framework density 24.156701999999999
#
# number of rings (size 3 to 8) (size 9 to 14) (size 15 to 20)
#    1.091    1.091    1.818    0.000    3.818    3.636 
#    1.636    4.545    0.000    1.091    0.000    0.000 
#    0.000    0.000    0.000    0.000    0.000    0.000 
#
# Total GULP energy -122870.434724 kJ/mol
# GULP energy per Si atom -5585.019760 kJ/mol
# Density = 2.410172 g / cm^3
# Si number density = 24.156702 Si / 1000 Ang^3
#
#
#
# Elastic Constant Matrix: (Units=GPa)
#
#
# Indices 1 2 3 4 5 6 
#
# 1 90.2398 57.9987 15.2694 0.0000 -22.2748 0.0000
# 2 57.9987 149.6883 55.3460 0.0000 -18.1041 0.0000
# 3 15.2694 55.3460 129.2678 0.0000 -6.2527 0.0000
# 4 0.0000 0.0000 0.0000 30.8307 0.0000 -15.9194
# 5 -22.2748 -18.1041 -6.2527 0.0000 38.6233 0.0000
# 6 0.0000 0.0000 0.0000 -15.9194 0.0000 32.8575
#
#
#
# Elastic Compliance Matrix: (Units=1/GPa)
#
#
# Indices 1 2 3 4 5 6 
#
# 1 0.016381 -0.005852 0.000902 0.000000 0.006850 0.000000
# 2 -0.005852 0.010439 -0.003734 0.000000 0.000914 0.000000
# 3 0.000902 -0.003734 0.009241 0.000000 0.000266 0.000000
# 4 0.000000 0.000000 0.000000 0.043257 0.000000 0.020958
# 5 0.006850 0.000914 0.000266 0.000000 0.030313 0.000000
# 6 0.000000 0.000000 0.000000 0.020958 0.000000 0.040589
#
#
# Mechanical properties :
#
#
# Convention : Reuss Voigt Hill
#
# Bulk Modulus (GPa) = 53.49648 69.60268 61.54958
# Shear Modulus (GPa) = 28.76555 36.50109 32.63332
#
# Velocity S-wave (km/s) = 3.45453 3.89139 3.67945
# Velocity P-wave (km/s) = 6.17295 7.00472 6.60195
#
# Compressibility (1/GPa) = 0.01869282
#
# Stress axis : x y z
#
# Youngs Moduli (GPa) = 61.04597 95.79323 108.21407
#
# Poissons Ratio (x) = 0.56059 -0.09760
# Poissons Ratio (y) = 0.35724 0.40408
# Poissons Ratio (z) = -0.05506 0.35770
#
# Static dielectric constant tensor:
#      x y z
#    x 1.895220 0.000000 0.033260 
#    y 0.000000 1.941040 0.000000 
#    z 0.033260 0.000000 1.940790 
# 
# From -- ./inp_files/178601.got.cif
#   From: 2010.05.17/outbox.cif.g08.bks.cpg/sg15_90_cif.got.tgz:178601.got - 2010.06.03 18:47:42.
