data_PCOD9277584
_publ_section_title
;
Structure prediction by ZEFSAII (Michael W. Deem and Ramdas Pophale) SiO2 
 PCOD9277584
Probable space group: C 2/C
;
_chemical_formula_sum "Si O2"
_cell_formula_units_Z 40
_cell_length_a 14.072059
_cell_length_b 22.303655
_cell_length_c 8.905095
_cell_angle_alpha 90.000000
_cell_angle_beta 139.519614
_cell_angle_gamma 90.000000
_cell_volume 1814.439645
_symmetry_space_group_name_H-M "C 2/C"
_symmetry_group_IT_number 15
_symmetry_cell_setting 'monoclinic'
loop_
_space_group_symop_operation_xyz
x,y,z
-x,y,1/2-z
-x,-y,-z
x,-y,1/2+z
1/2+x,1/2+y,z
1/2-x,1/2+y,1/2-z
1/2-x,1/2-y,-z
1/2+x,1/2-y,1/2+z
loop_
_atom_site_type_symbol
_atom_site_label
_atom_site_fract_x
_atom_site_fract_y
_atom_site_fract_z
Si Si1 0.034924 0.743049 0.635758
Si Si2 0.236122 0.204301 0.122444
Si Si3 0.840226 0.621000 0.611442
Si Si4 0.378446 0.447210 0.470594
Si Si5 0.135768 0.086518 0.088177
O O1 0.111517 0.776344 0.591629
O O2 0.140055 0.689999 0.819420
O O3 0.000000 0.778236 0.750000
O O4 0.890569 0.711812 0.393912
O O5 0.188108 0.135809 0.029871
O O6 0.250000 0.250000 0.000000
O O7 0.766266 0.588614 0.662454
O O8 0.730222 0.608320 0.343990
O O9 0.000000 0.599657 0.750000
O O10 0.333147 0.516679 0.402729
O O11 0.466026 0.418718 0.435573
O O12 0.500000 0.445561 0.750000
#
# Coordination Sequence:
#
# PCOD9277584 Si02
#       5
#     8   8   8   8   8
#     4  11  24  44  68  97 128 183 234 269 336 422
#     4  12  26  44  66 102 142 178 222 293 355 406
#     4  10  20  41  65  96 126 167 236 281 329 408
#     4   9  21  39  68  97 128 178 228 286 339 403
#     4  10  21  42  65  96 133 175 233 276 340 422
#
# _framework density 22.045373000000001
#
# number of rings (size 3 to 8) (size 9 to 14) (size 15 to 20)
#    0.000    1.600    4.000    1.200    2.800    3.200 
#    7.200    0.000    0.000    0.000    0.000    0.000 
#    0.000    0.000    0.000    0.000    0.000    0.000 
#
# Total GULP energy -111627.740314 kJ/mol
# GULP energy per Si atom -5581.387016 kJ/mol
# Density = 2.199520 g / cm^3
# Si number density = 22.045373 Si / 1000 Ang^3
#
#
#
# Elastic Constant Matrix: (Units=GPa)
#
#
# Indices 1 2 3 4 5 6 
#
# 1 94.2491 47.2345 2.6679 0.0000 13.9530 0.0000
# 2 47.2345 90.4759 41.7902 0.0000 9.8098 0.0000
# 3 2.6679 41.7902 62.9520 0.0000 -6.0287 0.0000
# 4 0.0000 0.0000 0.0000 27.6425 0.0000 3.0040
# 5 13.9530 9.8098 -6.0287 0.0000 35.7966 0.0000
# 6 0.0000 0.0000 0.0000 3.0040 0.0000 42.8402
#
#
#
# Elastic Compliance Matrix: (Units=1/GPa)
#
#
# Indices 1 2 3 4 5 6 
#
# 1 0.016491 -0.011477 0.006714 0.000000 -0.002152 0.000000
# 2 -0.011477 0.025435 -0.016910 0.000000 -0.005344 0.000000
# 3 0.006714 -0.016910 0.027462 0.000000 0.006642 0.000000
# 4 0.000000 0.000000 0.000000 0.036454 0.000000 -0.002556
# 5 -0.002152 -0.005344 0.006642 0.000000 0.031358 0.000000
# 6 0.000000 0.000000 0.000000 -0.002556 0.000000 0.023522
#
#
# Mechanical properties :
#
#
# Convention : Reuss Voigt Hill
#
# Bulk Modulus (GPa) = 38.40045 47.89580 43.14813
# Shear Modulus (GPa) = 23.50208 31.65479 27.57843
#
# Velocity S-wave (km/s) = 3.26863 3.79343 3.54076
# Velocity P-wave (km/s) = 5.63044 6.40000 6.02751
#
# Compressibility (1/GPa) = 0.02604136
#
# Stress axis : x y z
#
# Youngs Moduli (GPa) = 60.64059 39.31666 36.41371
#
# Poissons Ratio (x) = 0.45124 -0.24448
# Poissons Ratio (y) = 0.69597 0.61575
# Poissons Ratio (z) = -0.40714 0.66484
#
# Static dielectric constant tensor:
#      x y z
#    x 1.887210 0.000000 -0.057410 
#    y 0.000000 1.861670 0.000000 
#    z -0.057410 0.000000 1.833740 
# 
# From -- ./inp_files/42426.got.cif
#   From: 2010.05.17/outbox.cif.g08.bks.cpg/sg15_22_cif.got.tgz:42426.got - 2010.06.03 18:47:42.
