data_PCOD9277265
_publ_section_title
;
Structure prediction by ZEFSAII (Michael W. Deem and Ramdas Pophale) SiO2 
 PCOD9277265
Probable space group: C 2/C
;
_chemical_formula_sum "Si O2"
_cell_formula_units_Z 36
_cell_length_a 8.992206
_cell_length_b 10.678517
_cell_length_c 17.431176
_cell_angle_alpha 90.000000
_cell_angle_beta 55.830282
_cell_angle_gamma 90.000000
_cell_volume 1384.865517
_symmetry_space_group_name_H-M "C 2/C"
_symmetry_group_IT_number 15
_symmetry_cell_setting 'monoclinic'
loop_
_space_group_symop_operation_xyz
x,y,z
-x,y,1/2-z
-x,-y,-z
x,-y,1/2+z
1/2+x,1/2+y,z
1/2-x,1/2+y,1/2-z
1/2-x,1/2-y,-z
1/2+x,1/2-y,1/2+z
loop_
_atom_site_type_symbol
_atom_site_label
_atom_site_fract_x
_atom_site_fract_y
_atom_site_fract_z
Si Si1 0.705047 0.993525 0.411623
Si Si2 0.020804 0.854806 0.580609
Si Si3 0.637628 0.252107 0.387063
Si Si4 0.659297 0.223863 0.145271
Si Si5 0.000000 0.289024 0.250000
O O1 0.712826 0.110854 0.351599
O O2 0.852458 0.029047 0.433719
O O3 0.500000 0.000000 0.500000
O O4 0.753494 0.859994 0.363725
O O5 0.819195 0.874721 0.607839
O O6 0.002336 0.779274 0.665853
O O7 0.110914 0.779552 0.484350
O O8 0.443738 0.244802 0.404596
O O9 0.795347 0.342576 0.310502
O O10 0.500000 0.196208 0.250000
#
# Coordination Sequence:
#
# PCOD9277265 Si02
#       5
#     8   8   8   8   4
#     4  11  25  43  72 102 135 181 235 288 351 416
#     4  11  24  45  72 100 142 183 227 292 349 413
#     4  11  24  46  71  98 142 181 230 291 349 415
#     4  12  26  44  70 102 139 187 233 285 353 415
#     4  10  20  40  70  96 132 182 220 282 344 404
#
# _framework density 25.995301999999999
#
# number of rings (size 3 to 8) (size 9 to 14) (size 15 to 20)
#    0.000    0.889    4.444    3.333    6.222    0.889 
#    0.000    0.000    4.889    0.000    0.000    0.000 
#    0.000    0.000    0.000    0.000    0.000    0.000 
#
# Total GULP energy -100475.782876 kJ/mol
# GULP energy per Si atom -5581.987938 kJ/mol
# Density = 2.593614 g / cm^3
# Si number density = 25.995302 Si / 1000 Ang^3
#
#
#
# Elastic Constant Matrix: (Units=GPa)
#
#
# Indices 1 2 3 4 5 6 
#
# 1 232.9385 34.5038 64.4051 0.0000 -26.1711 0.0000
# 2 34.5038 73.0010 -2.8239 0.0000 -1.3080 0.0000
# 3 64.4051 -2.8239 148.8491 0.0000 -7.3115 0.0000
# 4 0.0000 0.0000 0.0000 16.7359 0.0000 0.2861
# 5 -26.1711 -1.3080 -7.3115 0.0000 69.5780 0.0000
# 6 0.0000 0.0000 0.0000 0.2861 0.0000 35.8922
#
#
#
# Elastic Compliance Matrix: (Units=1/GPa)
#
#
# Indices 1 2 3 4 5 6 
#
# 1 0.005544 -0.002680 -0.002362 0.000000 0.001787 0.000000
# 2 -0.002680 0.015009 0.001416 0.000000 -0.000577 0.000000
# 3 -0.002362 0.001416 0.007765 0.000000 -0.000046 0.000000
# 4 0.000000 0.000000 0.000000 0.059760 0.000000 -0.000476
# 5 0.001787 -0.000577 -0.000046 0.000000 0.015029 0.000000
# 6 0.000000 0.000000 0.000000 -0.000476 0.000000 0.027865
#
#
# Mechanical properties :
#
#
# Convention : Reuss Voigt Hill
#
# Bulk Modulus (GPa) = 47.46806 71.88429 59.67618
# Shear Modulus (GPa) = 34.42472 48.35479 41.38975
#
# Velocity S-wave (km/s) = 3.64300 4.31761 3.99457
# Velocity P-wave (km/s) = 5.99959 7.25041 6.65446
#
# Compressibility (1/GPa) = 0.02106680
#
# Stress axis : x y z
#
# Youngs Moduli (GPa) = 180.38809 66.62510 128.78781
#
# Poissons Ratio (x) = 0.17852 0.30416
# Poissons Ratio (y) = 0.48335 -0.18234
# Poissons Ratio (z) = 0.42603 -0.09433
#
# Static dielectric constant tensor:
#      x y z
#    x 2.216310 0.000000 -0.029290 
#    y 0.000000 2.150720 0.000000 
#    z -0.029290 0.000000 2.013280 
# 
# From -- ./inp_files/188321.got.cif
#   From: 2010.05.17/outbox.cif.g08.bks.cpg/sg15_95_cif.got.tgz:188321.got - 2010.06.03 18:47:42.
