data_PCOD9277122
_publ_section_title
;
Structure prediction by ZEFSAII (Michael W. Deem and Ramdas Pophale) SiO2 
 PCOD9277122
Probable space group: C 2/C
;
_chemical_formula_sum "Si O2"
_cell_formula_units_Z 60
_cell_length_a 16.696821
_cell_length_b 9.352886
_cell_length_c 20.775123
_cell_angle_alpha 90.000000
_cell_angle_beta 117.978876
_cell_angle_gamma 90.000000
_cell_volume 2865.121613
_symmetry_space_group_name_H-M "C 2/C"
_symmetry_group_IT_number 15
_symmetry_cell_setting 'monoclinic'
loop_
_space_group_symop_operation_xyz
x,y,z
-x,y,1/2-z
-x,-y,-z
x,-y,1/2+z
1/2+x,1/2+y,z
1/2-x,1/2+y,1/2-z
1/2-x,1/2-y,-z
1/2+x,1/2-y,1/2+z
loop_
_atom_site_type_symbol
_atom_site_label
_atom_site_fract_x
_atom_site_fract_y
_atom_site_fract_z
Si Si1 0.000000 0.354865 0.250000
Si Si2 0.560378 0.662290 0.391482
Si Si3 0.305270 0.199258 0.846060
Si Si4 0.068419 0.448382 0.469183
Si Si5 0.432474 0.971916 0.829175
Si Si6 0.417582 0.473423 0.916812
Si Si7 0.235473 0.970146 0.902967
Si Si8 0.802568 0.239471 0.825981
O O1 0.040878 0.254562 0.320382
O O2 0.071516 0.459754 0.242435
O O3 0.566397 0.778838 0.451603
O O4 0.475081 0.562262 0.374246
O O5 0.650883 0.571939 0.414789
O O6 0.383342 0.084824 0.858078
O O7 0.353300 0.332662 0.899269
O O8 0.264050 0.225620 0.759881
O O9 0.230701 0.116310 0.860355
O O10 0.171121 0.484590 0.523291
O O11 0.000000 0.500000 0.500000
O O12 0.034940 0.528266 0.392469
O O13 0.385928 0.824584 0.825486
O O14 0.347838 0.602807 0.877384
O O15 0.500000 0.500000 0.000000
O O16 0.253827 0.840235 0.859891
#
# Coordination Sequence:
#
# PCOD9277122 Si02
#       8
#     4   8   8   8   8   8   8   8
#     4  10  20  40  68  92 134 166 230 278 334 402
#     4  11  24  40  67 101 132 175 222 285 343 404
#     4  11  22  42  64  95 134 181 222 273 338 414
#     4  11  18  38  67  93 124 169 223 272 328 405
#     4  10  21  39  67  92 123 172 225 268 333 402
#     4  12  25  43  70 100 141 182 228 278 352 417
#     4  11  23  40  69  93 131 166 235 275 330 401
#     4  11  24  39  67  99 133 178 226 277 340 410
#
# _framework density 20.941519
#
# number of rings (size 3 to 8) (size 9 to 14) (size 15 to 20)
#    0.000    1.067    5.333    3.600    3.733    0.000 
#    2.400    2.000    0.000    0.000    0.000    0.000 
#    0.000    0.000    0.000    0.000    0.000    0.000 
#
# Total GULP energy -167280.230352 kJ/mol
# GULP energy per Si atom -5576.007678 kJ/mol
# Density = 2.089386 g / cm^3
# Si number density = 20.941519 Si / 1000 Ang^3
#
#
#
# Elastic Constant Matrix: (Units=GPa)
#
#
# Indices 1 2 3 4 5 6 
#
# 1 84.7642 29.4750 -4.9134 0.0000 -4.3820 0.0000
# 2 29.4750 95.8117 22.4527 0.0000 -2.2818 0.0000
# 3 -4.9134 22.4527 89.7981 0.0000 11.0849 0.0000
# 4 0.0000 0.0000 0.0000 15.0944 0.0000 16.1184
# 5 -4.3820 -2.2818 11.0849 0.0000 27.1879 0.0000
# 6 0.0000 0.0000 0.0000 16.1184 0.0000 8.1311
#
#
#
# Elastic Compliance Matrix: (Units=1/GPa)
#
#
# Indices 1 2 3 4 5 6 
#
# 1 0.013536 -0.004547 0.001743 0.000000 0.001089 0.000000
# 2 -0.004547 0.012737 -0.003659 0.000000 0.001828 0.000000
# 3 0.001743 -0.003659 0.012793 0.000000 -0.005242 0.000000
# 4 0.000000 0.000000 0.000000 -0.059322 0.000000 0.117595
# 5 0.001089 0.001828 -0.005242 0.000000 0.039247 0.000000
# 6 0.000000 0.000000 0.000000 0.117595 0.000000 -0.110124
#
#
# Mechanical properties :
#
#
# Convention : Reuss Voigt Hill
#
# Bulk Modulus (GPa) = 38.25460 40.48918 39.37189
# Shear Modulus (GPa) = -71.94885 24.97332 -23.48776
#
# Velocity S-wave (km/s) = -5.86785 3.45704 -3.35265
# Velocity P-wave (km/s) = 5.25374 5.94233 1.96334
#
# Compressibility (1/GPa) = 0.02614065
#
# Stress axis : x y z
#
# Youngs Moduli (GPa) = 73.87839 78.51240 78.16483
#
# Poissons Ratio (x) = 0.35696 -0.13624
# Poissons Ratio (y) = 0.33589 0.28601
# Poissons Ratio (z) = -0.12877 0.28728
#
# Static dielectric constant tensor:
#      x y z
#    x 1.789160 0.000000 0.028980 
#    y 0.000000 1.808460 0.000000 
#    z 0.028980 0.000000 1.865690 
# 
# From -- ./inp_files/247824.got.cif
#   From: 2010.05.17/outbox.cif.g08.bks.cpg/sg15_124_cif.got.tgz:247824.got - 2010.06.03 18:47:42.
