data_PCOD9277021
_publ_section_title
;
Structure prediction by ZEFSAII (Michael W. Deem and Ramdas Pophale) SiO2 
 PCOD9277021
Probable space group: C 2/C
;
_chemical_formula_sum "Si O2"
_cell_formula_units_Z 64
_cell_length_a 19.939987
_cell_length_b 11.880168
_cell_length_c 27.232253
_cell_angle_alpha 90.000000
_cell_angle_beta 28.508121
_cell_angle_gamma 90.000000
_cell_volume 3078.982928
_symmetry_space_group_name_H-M "C 2/C"
_symmetry_group_IT_number 15
_symmetry_cell_setting 'monoclinic'
loop_
_space_group_symop_operation_xyz
x,y,z
-x,y,1/2-z
-x,-y,-z
x,-y,1/2+z
1/2+x,1/2+y,z
1/2-x,1/2+y,1/2-z
1/2-x,1/2-y,-z
1/2+x,1/2-y,1/2+z
loop_
_atom_site_type_symbol
_atom_site_label
_atom_site_fract_x
_atom_site_fract_y
_atom_site_fract_z
Si Si1 0.137065 0.213550 0.311398
Si Si2 0.097705 0.482926 0.508554
Si Si3 0.712021 0.422948 0.027438
Si Si4 0.472407 0.770533 0.825293
Si Si5 0.219790 0.154853 0.867813
Si Si6 0.016477 0.682767 0.976423
Si Si7 0.310668 0.667378 0.502557
Si Si8 0.167785 0.438838 0.755274
O O1 0.201011 0.268236 0.222251
O O2 0.226020 0.106717 0.271862
O O3 0.136265 0.296602 0.359073
O O4 0.974474 0.192280 0.405259
O O5 0.233779 0.457084 0.453050
O O6 0.093275 0.595071 0.478358
O O7 0.068194 0.377616 0.491971
O O8 0.967710 0.492471 0.630340
O O9 0.572487 0.347771 0.121528
O O10 0.699382 0.538733 0.007167
O O11 0.835029 0.348695 0.923334
O O12 0.500000 0.757517 0.750000
O O13 0.601430 0.835080 0.767652
O O14 0.255039 0.028058 0.829290
O O15 0.058973 0.197941 0.965968
O O16 0.260565 0.177280 0.898046
O O17 0.250000 0.750000 0.500000
#
# Coordination Sequence:
#
# PCOD9277021 Si02
#       8
#     8   8   8   8   8   8   8   8
#     4  11  24  42  65 101 130 172 223 280 333 399
#     4  10  20  40  67  91 129 178 215 269 336 398
#     4  10  22  44  63  94 133 173 224 272 327 408
#     4  10  23  42  66  95 131 180 219 269 340 398
#     4  11  23  43  69  97 133 176 225 280 342 399
#     4  10  21  39  65  94 132 171 213 272 337 398
#     4  11  26  46  67  97 138 179 226 277 340 404
#     4  11  23  41  68 101 131 174 229 281 339 401
#
# _framework density 20.786085
#
# number of rings (size 3 to 8) (size 9 to 14) (size 15 to 20)
#    0.000    1.500    2.500    2.250    3.500    3.500 
#    9.000    0.000    0.000    0.000    0.000    0.000 
#    0.000    0.000    0.000    0.000    0.000    0.000 
#
# Total GULP energy -178727.110138 kJ/mol
# GULP energy per Si atom -5585.222192 kJ/mol
# Density = 2.073877 g / cm^3
# Si number density = 20.786085 Si / 1000 Ang^3
#
#
#
# Elastic Constant Matrix: (Units=GPa)
#
#
# Indices 1 2 3 4 5 6 
#
# 1 85.0687 38.2906 51.0881 -0.0003 15.4790 0.0001
# 2 38.2906 85.6234 33.9797 -0.0020 8.2291 0.0000
# 3 51.0881 33.9797 76.0428 -0.0035 22.7710 -0.0003
# 4 -0.0003 -0.0020 -0.0035 29.1306 0.0004 8.7492
# 5 15.4790 8.2291 22.7710 0.0004 33.9097 0.0001
# 6 0.0001 0.0000 -0.0003 8.7492 0.0001 23.6412
#
#
#
# Elastic Compliance Matrix: (Units=1/GPa)
#
#
# Indices 1 2 3 4 5 6 
#
# 1 0.021124 -0.004650 -0.011972 -0.000002 -0.000475 0.000000
# 2 -0.004650 0.015248 -0.004027 0.000001 0.001126 0.000000
# 3 -0.011972 -0.004027 0.026366 0.000003 -0.011263 -0.000001
# 4 -0.000002 0.000001 0.000003 0.038621 -0.000002 -0.014293
# 5 -0.000475 0.001126 -0.011263 -0.000002 0.036997 0.000000
# 6 0.000000 0.000000 -0.000001 -0.014293 0.000000 0.047589
#
#
# Mechanical properties :
#
#
# Convention : Reuss Voigt Hill
#
# Bulk Modulus (GPa) = 46.64061 54.82798 50.73429
# Shear Modulus (GPa) = 21.33196 25.56141 23.44669
#
# Velocity S-wave (km/s) = 3.20701 3.51056 3.36221
# Velocity P-wave (km/s) = 6.01667 6.54726 6.28756
#
# Compressibility (1/GPa) = 0.02144054
#
# Stress axis : x y z
#
# Youngs Moduli (GPa) = 47.33844 65.58059 37.92794
#
# Poissons Ratio (x) = 0.30495 0.45407
# Poissons Ratio (y) = 0.22013 0.15274
# Poissons Ratio (z) = 0.56674 0.26409
#
# Static dielectric constant tensor:
#      x y z
#    x 1.738300 0.000000 0.006200 
#    y 0.000000 1.777020 0.000000 
#    z 0.006200 0.000000 1.772110 
# 
# From -- ./inp_files/300829.got.cif
#   From: 2010.05.17/outbox.cif.g08.bks.cpg/sg15_151_cif.got.tgz:300829.got - 2010.06.03 18:47:42.
