data_PCOD9277334
_publ_section_title
;
Structure prediction by ZEFSAII (Michael W. Deem and Ramdas Pophale) SiO2 
 PCOD9277334
Probable space group: C 2/C
;
_chemical_formula_sum "Si O2"
_cell_formula_units_Z 48
_cell_length_a 8.696069
_cell_length_b 27.859193
_cell_length_c 8.899089
_cell_angle_alpha 90.000000
_cell_angle_beta 81.012950
_cell_angle_gamma 90.000000
_cell_volume 2129.474882
_symmetry_space_group_name_H-M "C 2/C"
_symmetry_group_IT_number 15
_symmetry_cell_setting 'monoclinic'
loop_
_space_group_symop_operation_xyz
x,y,z
-x,y,1/2-z
-x,-y,-z
x,-y,1/2+z
1/2+x,1/2+y,z
1/2-x,1/2+y,1/2-z
1/2-x,1/2-y,-z
1/2+x,1/2-y,1/2+z
loop_
_atom_site_type_symbol
_atom_site_label
_atom_site_fract_x
_atom_site_fract_y
_atom_site_fract_z
Si Si1 0.721440 0.477465 0.450414
Si Si2 0.317686 0.172441 0.314151
Si Si3 0.000000 0.420279 0.250000
Si Si4 0.318414 0.763666 0.325893
Si Si5 0.233673 0.353238 0.349443
Si Si6 0.500000 0.571828 0.750000
Si Si7 0.688651 0.063085 0.239099
O O1 0.574081 0.458729 0.376077
O O2 0.744299 0.533449 0.411942
O O3 0.742637 0.462411 0.620892
O O4 0.868891 0.452084 0.346595
O O5 0.500000 0.176689 0.250000
O O6 0.232366 0.217079 0.257072
O O7 0.283180 0.174793 0.494960
O O8 0.268381 0.119175 0.267077
O O9 0.077684 0.384694 0.356919
O O10 0.500000 0.770301 0.250000
O O11 0.250000 0.750000 0.500000
O O12 0.245688 0.814660 0.286202
O O13 0.368640 0.392051 0.328201
O O14 0.500000 0.060331 0.250000
#
# Coordination Sequence:
#
# PCOD9277334 Si02
#       7
#     8   8   4   8   8   4   8
#     4  11  24  43  67 104 142 190 244 304 361 444
#     4  11  26  44  71 105 141 184 243 305 368 437
#     4  10  20  40  74  92 134 182 248 296 352 430
#     4  12  28  47  75 108 146 193 247 307 377 444
#     4  11  24  46  72 100 142 188 239 296 370 440
#     4  10  28  42  72 102 146 192 242 294 380 426
#     4  11  24  42  72 104 143 189 249 300 366 435
#
# _framework density 22.540768
#
# number of rings (size 3 to 8) (size 9 to 14) (size 15 to 20)
#    0.000    1.000    1.667    4.000   12.833    0.667 
#    1.500    0.000    0.000    0.000    0.000    0.000 
#    0.000    0.000    0.000    0.000    0.000    0.000 
#
# Total GULP energy -134235.260311 kJ/mol
# GULP energy per Si atom -5593.135846 kJ/mol
# Density = 2.248946 g / cm^3
# Si number density = 22.540768 Si / 1000 Ang^3
#
#
#
# Elastic Constant Matrix: (Units=GPa)
#
#
# Indices 1 2 3 4 5 6 
#
# 1 95.4694 45.1514 31.2586 0.0000 8.5988 0.0000
# 2 45.1514 130.5504 8.9951 0.0000 8.3030 0.0000
# 3 31.2586 8.9951 91.5970 0.0000 -1.5028 0.0000
# 4 0.0000 0.0000 0.0000 56.8509 0.0000 5.1876
# 5 8.5988 8.3030 -1.5028 0.0000 31.0009 0.0000
# 6 0.0000 0.0000 0.0000 5.1876 0.0000 33.2616
#
#
#
# Elastic Compliance Matrix: (Units=1/GPa)
#
#
# Indices 1 2 3 4 5 6 
#
# 1 0.014324 -0.004453 -0.004500 0.000000 -0.002999 0.000000
# 2 -0.004453 0.009236 0.000593 0.000000 -0.001210 0.000000
# 3 -0.004500 0.000593 0.012423 0.000000 0.001692 0.000000
# 4 0.000000 0.000000 0.000000 0.017844 0.000000 -0.002783
# 5 -0.002999 -0.001210 0.001692 0.000000 0.033495 0.000000
# 6 0.000000 0.000000 0.000000 -0.002783 0.000000 0.030499
#
#
# Mechanical properties :
#
#
# Convention : Reuss Voigt Hill
#
# Bulk Modulus (GPa) = 51.91620 54.26968 53.09294
# Shear Modulus (GPa) = 35.47047 39.70347 37.58697
#
# Velocity S-wave (km/s) = 3.97118 4.20147 4.08795
# Velocity P-wave (km/s) = 6.64148 6.90398 6.77400
#
# Compressibility (1/GPa) = 0.01926181
#
# Stress axis : x y z
#
# Youngs Moduli (GPa) = 69.81170 108.27000 80.49798
#
# Poissons Ratio (x) = 0.48216 0.36226
# Poissons Ratio (y) = 0.31089 -0.04773
# Poissons Ratio (z) = 0.31417 -0.06419
#
# Static dielectric constant tensor:
#      x y z
#    x 2.118030 0.000000 -0.162640 
#    y 0.000000 1.790420 0.000000 
#    z -0.162640 0.000000 1.987270 
# 
# From -- ./inp_files/26176.got.cif
#   From: 2010.05.17/outbox.cif.g08.bks.cpg/sg15_14_cif.got.tgz:26176.got - 2010.06.03 18:47:42.
