data_PCOD9277346
_publ_section_title
;
Structure prediction by ZEFSAII (Michael W. Deem and Ramdas Pophale) SiO2 
 PCOD9277346
Probable space group: C 2/C
;
_chemical_formula_sum "Si O2"
_cell_formula_units_Z 56
_cell_length_a 17.559051
_cell_length_b 13.132673
_cell_length_c 15.106860
_cell_angle_alpha 90.000000
_cell_angle_beta 127.020039
_cell_angle_gamma 90.000000
_cell_volume 2781.393853
_symmetry_space_group_name_H-M "C 2/C"
_symmetry_group_IT_number 15
_symmetry_cell_setting 'monoclinic'
loop_
_space_group_symop_operation_xyz
x,y,z
-x,y,1/2-z
-x,-y,-z
x,-y,1/2+z
1/2+x,1/2+y,z
1/2-x,1/2+y,1/2-z
1/2-x,1/2-y,-z
1/2+x,1/2-y,1/2+z
loop_
_atom_site_type_symbol
_atom_site_label
_atom_site_fract_x
_atom_site_fract_y
_atom_site_fract_z
Si Si1 0.321729 0.466168 0.084867
Si Si2 0.548770 0.623974 0.968477
Si Si3 0.154660 0.666680 0.524220
Si Si4 0.171332 0.403992 0.224840
Si Si5 0.689780 0.848194 0.433721
Si Si6 0.867722 0.993479 0.321159
Si Si7 0.026593 0.479308 0.371333
O O1 0.407268 0.448941 0.076783
O O2 0.355301 0.499273 0.206514
O O3 0.254301 0.364682 0.045844
O O4 0.255573 0.554378 0.999488
O O5 0.591330 0.732560 0.970430
O O6 0.435696 0.604419 0.887049
O O7 0.585271 0.585283 0.090075
O O8 0.181542 0.665130 0.646360
O O9 0.087221 0.571717 0.452076
O O10 0.167022 0.345245 0.313902
O O11 0.262696 0.476846 0.287253
O O12 0.072293 0.464013 0.148079
O O13 0.750000 0.750000 0.500000
O O14 0.591768 0.876956 0.415949
O O15 0.000000 0.500605 0.250000
#
# Coordination Sequence:
#
# PCOD9277346 Si02
#       7
#     8   8   8   8   8   8   8
#     4  10  21  42  62  87 126 158 203 252 309 356
#     4  11  22  41  59  90 127 155 211 248 306 374
#     4  10  22  37  65  92 117 162 204 250 312 358
#     4  10  20  41  57  88 123 154 207 251 300 363
#     4  10  21  37  62  88 119 161 201 249 308 366
#     4  10  23  39  60  86 123 168 192 257 308 360
#     4   9  20  39  60  87 122 159 203 257 303 358
#
# _framework density 20.133789
#
# number of rings (size 3 to 8) (size 9 to 14) (size 15 to 20)
#    0.000    2.000    1.429    1.286    2.000    2.286 
#    5.143    1.429    0.000    0.000    0.000    0.000 
#    0.000    0.000    0.000    0.000    0.000    0.000 
#
# Total GULP energy -156089.167714 kJ/mol
# GULP energy per Si atom -5574.613133 kJ/mol
# Density = 2.008796 g / cm^3
# Si number density = 20.133789 Si / 1000 Ang^3
#
#
#
# Elastic Constant Matrix: (Units=GPa)
#
#
# Indices 1 2 3 4 5 6 
#
# 1 69.9539 20.1741 27.3351 0.0000 14.5081 0.0000
# 2 20.1741 71.7010 16.7741 0.0000 2.8899 0.0000
# 3 27.3351 16.7741 77.0699 0.0000 6.8429 0.0000
# 4 0.0000 0.0000 0.0000 18.7340 0.0000 6.0656
# 5 14.5081 2.8899 6.8429 0.0000 33.8443 0.0000
# 6 0.0000 0.0000 0.0000 6.0656 0.0000 13.3694
#
#
#
# Elastic Compliance Matrix: (Units=1/GPa)
#
#
# Indices 1 2 3 4 5 6 
#
# 1 0.018832 -0.003799 -0.005259 0.000000 -0.006685 0.000000
# 2 -0.003799 0.015474 -0.002085 0.000000 0.000729 0.000000
# 3 -0.005259 -0.002085 0.015354 0.000000 -0.000672 0.000000
# 4 0.000000 0.000000 0.000000 0.062570 0.000000 -0.028388
# 5 -0.006685 0.000729 -0.000672 0.000000 0.032486 0.000000
# 6 0.000000 0.000000 0.000000 -0.028388 0.000000 0.087677
#
#
# Mechanical properties :
#
#
# Convention : Reuss Voigt Hill
#
# Bulk Modulus (GPa) = 36.53100 38.58795 37.55947
# Shear Modulus (GPa) = 18.95339 23.48565 21.21952
#
# Velocity S-wave (km/s) = 3.07151 3.41908 3.24994
# Velocity P-wave (km/s) = 5.54639 5.89866 5.72523
#
# Compressibility (1/GPa) = 0.02737401
#
# Stress axis : x y z
#
# Youngs Moduli (GPa) = 53.10065 64.62397 65.12965
#
# Poissons Ratio (x) = 0.24550 0.34252
# Poissons Ratio (y) = 0.20173 0.13581
# Poissons Ratio (z) = 0.27926 0.13475
#
# Static dielectric constant tensor:
#      x y z
#    x 1.745130 0.000000 0.007230 
#    y 0.000000 1.706710 0.000000 
#    z 0.007230 0.000000 1.748960 
# 
# From -- ./inp_files/210697.got.cif
#   From: 2010.05.17/outbox.cif.g08.bks.cpg/sg15_106_cif.got.tgz:210697.got - 2010.06.03 18:47:42.
