data_PCOD9277022
_publ_section_title
;
Structure prediction by ZEFSAII (Michael W. Deem and Ramdas Pophale) SiO2 
 PCOD9277022
Probable space group: C 2/C
;
_chemical_formula_sum "Si O2"
_cell_formula_units_Z 40
_cell_length_a 13.207798
_cell_length_b 14.861875
_cell_length_c 9.847372
_cell_angle_alpha 90.000000
_cell_angle_beta 105.456846
_cell_angle_gamma 90.000000
_cell_volume 1863.054090
_symmetry_space_group_name_H-M "C 2/C"
_symmetry_group_IT_number 15
_symmetry_cell_setting 'monoclinic'
loop_
_space_group_symop_operation_xyz
x,y,z
-x,y,1/2-z
-x,-y,-z
x,-y,1/2+z
1/2+x,1/2+y,z
1/2-x,1/2+y,1/2-z
1/2-x,1/2-y,-z
1/2+x,1/2-y,1/2+z
loop_
_atom_site_type_symbol
_atom_site_label
_atom_site_fract_x
_atom_site_fract_y
_atom_site_fract_z
Si Si1 0.240263 0.151039 0.558134
Si Si2 0.127468 0.384966 0.812491
Si Si3 0.379139 0.026550 0.474658
Si Si4 0.422062 0.504874 0.097820
Si Si5 0.627532 0.320304 0.304388
O O1 0.250000 0.250000 0.500000
O O2 0.353794 0.105601 0.573908
O O3 0.161706 0.084125 0.450015
O O4 0.190202 0.154386 0.689504
O O5 0.159419 0.439545 0.957086
O O6 0.162164 0.436847 0.686040
O O7 0.163615 0.282075 0.843647
O O8 0.000000 0.384015 0.750000
O O9 0.500000 0.000000 0.500000
O O10 0.500000 0.522437 0.250000
O O11 0.368416 0.407520 0.098595
O O12 0.500000 0.500000 0.000000
O O13 0.500000 0.311191 0.250000
#
# Coordination Sequence:
#
# PCOD9277022 Si02
#       5
#     8   8   8   8   8
#     4  12  24  41  71 100 137 188 231 282 360 423
#     4   9  19  38  63  87 128 181 221 279 342 406
#     4  10  22  39  63  97 134 178 228 276 343 417
#     4  11  23  44  72 100 137 184 239 298 349 415
#     4  10  20  40  67  91 136 181 231 279 358 397
#
# _framework density 21.470122
#
# number of rings (size 3 to 8) (size 9 to 14) (size 15 to 20)
#    0.000    1.600    6.000    0.000    2.800    0.000 
#    0.000    6.000    0.000    0.000    0.000    0.000 
#    0.000    0.000    0.000    0.000    0.000    0.000 
#
# Total GULP energy -111404.656440 kJ/mol
# GULP energy per Si atom -5570.232822 kJ/mol
# Density = 2.142125 g / cm^3
# Si number density = 21.470122 Si / 1000 Ang^3
#
#
#
# Elastic Constant Matrix: (Units=GPa)
#
#
# Indices 1 2 3 4 5 6 
#
# 1 107.3919 60.5109 54.8653 0.0000 -33.6134 0.0000
# 2 60.5109 233.0653 77.6649 0.0000 -14.6277 0.0000
# 3 54.8653 77.6649 118.6504 0.0000 -44.0864 0.0000
# 4 0.0000 0.0000 0.0000 38.8086 0.0000 -3.7059
# 5 -33.6134 -14.6277 -44.0864 0.0000 45.2953 0.0000
# 6 0.0000 0.0000 0.0000 -3.7059 0.0000 34.2487
#
#
#
# Elastic Compliance Matrix: (Units=1/GPa)
#
#
# Indices 1 2 3 4 5 6 
#
# 1 0.014195 -0.002520 -0.002041 0.000000 0.007734 0.000000
# 2 -0.002520 0.006154 -0.004417 0.000000 -0.004182 0.000000
# 3 -0.002041 -0.004417 0.017499 0.000000 0.014091 0.000000
# 4 0.000000 0.000000 0.000000 0.026037 0.000000 0.002817
# 5 0.007734 -0.004182 0.014091 0.000000 0.040181 0.000000
# 6 0.000000 0.000000 0.000000 0.002817 0.000000 0.029503
#
#
# Mechanical properties :
#
#
# Convention : Reuss Voigt Hill
#
# Bulk Modulus (GPa) = 50.27012 93.91000 72.09006
# Shear Modulus (GPa) = 31.61472 41.40829 36.51150
#
# Velocity S-wave (km/s) = 3.84148 4.39640 4.12827
# Velocity P-wave (km/s) = 6.56816 8.34302 7.50822
#
# Compressibility (1/GPa) = 0.01989253
#
# Stress axis : x y z
#
# Youngs Moduli (GPa) = 70.44802 162.48757 57.14752
#
# Poissons Ratio (x) = 0.40947 0.11662
# Poissons Ratio (y) = 0.17753 0.25241
# Poissons Ratio (z) = 0.14376 0.71769
#
# Static dielectric constant tensor:
#      x y z
#    x 1.840130 0.000000 -0.001320 
#    y 0.000000 1.814770 0.000000 
#    z -0.001320 0.000000 1.793690 
# 
# From -- ./inp_files/37975.got.cif
#   From: 2010.05.17/outbox.cif.g08.bks.cpg/sg15_19_cif.got.tgz:37975.got - 2010.06.03 18:47:42.
