data_PCOD9277442
_publ_section_title
;
Structure prediction by ZEFSAII (Michael W. Deem and Ramdas Pophale) SiO2 
 PCOD9277442
Probable space group: C 2/C
;
_chemical_formula_sum "Si O2"
_cell_formula_units_Z 48
_cell_length_a 15.403800
_cell_length_b 29.928233
_cell_length_c 9.363938
_cell_angle_alpha 90.000000
_cell_angle_beta 143.781226
_cell_angle_gamma 90.000000
_cell_volume 2550.700427
_symmetry_space_group_name_H-M "C 2/C"
_symmetry_group_IT_number 15
_symmetry_cell_setting 'monoclinic'
loop_
_space_group_symop_operation_xyz
x,y,z
-x,y,1/2-z
-x,-y,-z
x,-y,1/2+z
1/2+x,1/2+y,z
1/2-x,1/2+y,1/2-z
1/2-x,1/2-y,-z
1/2+x,1/2-y,1/2+z
loop_
_atom_site_type_symbol
_atom_site_label
_atom_site_fract_x
_atom_site_fract_y
_atom_site_fract_z
Si Si1 0.421083 0.535963 0.994831
Si Si2 0.067422 0.705581 0.188206
Si Si3 0.933519 0.459937 0.502325
Si Si4 0.608431 0.693964 0.780715
Si Si5 0.441829 0.128134 0.833565
Si Si6 0.382194 0.636902 0.985833
O O1 0.243765 0.533276 0.741245
O O2 0.444116 0.589460 0.010027
O O3 0.500000 0.526366 0.250000
O O4 0.500000 0.500000 0.000000
O O5 0.241942 0.702149 0.435110
O O6 0.036997 0.758603 0.138757
O O7 0.000000 0.690030 0.250000
O O8 0.007235 0.673878 0.985110
O O9 0.979640 0.413775 0.485863
O O10 0.000000 0.500000 0.500000
O O11 0.000000 0.460305 0.750000
O O12 0.500000 0.671147 0.750000
O O13 0.644673 0.666746 0.687639
O O14 0.500000 0.121265 0.750000
O O15 0.265721 0.130279 0.618878
O O16 0.500000 0.657236 0.250000
#
# Coordination Sequence:
#
# PCOD9277442 Si02
#       6
#     8   8   8   8   8   8
#     4  10  22  41  61  86 123 162 197 248 311 365
#     4  10  20  41  63  88 124 159 206 261 310 372
#     4  11  23  40  65  94 123 159 209 262 310 371
#     4  10  22  38  63  92 121 160 205 256 317 376
#     4  11  24  40  63  88 122 169 209 257 313 368
#     4  10  23  41  59  88 126 159 204 258 306 374
#
# _framework density 18.818360999999999
#
# number of rings (size 3 to 8) (size 9 to 14) (size 15 to 20)
#    0.000    1.667    1.667    2.000    4.667    4.000 
#    0.000    1.667    0.000    0.000    0.000    0.000 
#    0.000    0.000    0.000    0.000    0.000    0.000 
#
# Total GULP energy -133769.413456 kJ/mol
# GULP energy per Si atom -5573.725561 kJ/mol
# Density = 1.877553 g / cm^3
# Si number density = 18.818361 Si / 1000 Ang^3
#
#
#
# Elastic Constant Matrix: (Units=GPa)
#
#
# Indices 1 2 3 4 5 6 
#
# 1 117.1649 34.2740 38.1531 0.0000 -14.8409 0.0000
# 2 34.2740 69.7396 29.1553 0.0000 -16.2975 0.0000
# 3 38.1531 29.1553 102.6942 0.0000 -14.2502 0.0000
# 4 0.0000 0.0000 0.0000 15.5655 0.0000 0.5757
# 5 -14.8409 -16.2975 -14.2502 0.0000 32.1983 0.0000
# 6 0.0000 0.0000 0.0000 0.5757 0.0000 22.8647
#
#
#
# Elastic Compliance Matrix: (Units=1/GPa)
#
#
# Indices 1 2 3 4 5 6 
#
# 1 0.010730 -0.003717 -0.002670 0.000000 0.001883 0.000000
# 2 -0.003717 0.018988 -0.003105 0.000000 0.006524 0.000000
# 3 -0.002670 -0.003105 0.011956 0.000000 0.002490 0.000000
# 4 0.000000 0.000000 0.000000 0.064305 0.000000 -0.001619
# 5 0.001883 0.006524 0.002490 0.000000 0.036329 0.000000
# 6 0.000000 0.000000 0.000000 -0.001619 0.000000 0.043776
#
#
# Mechanical properties :
#
#
# Convention : Reuss Voigt Hill
#
# Bulk Modulus (GPa) = 44.06936 54.75152 49.41044
# Shear Modulus (GPa) = 23.51472 26.66011 25.08741
#
# Velocity S-wave (km/s) = 3.53875 3.76800 3.65517
# Velocity P-wave (km/s) = 6.33767 6.93458 6.64283
#
# Compressibility (1/GPa) = 0.02269150
#
# Stress axis : x y z
#
# Youngs Moduli (GPa) = 93.19410 52.66372 83.63685
#
# Poissons Ratio (x) = 0.19577 0.22330
# Poissons Ratio (y) = 0.34643 0.25966
# Poissons Ratio (z) = 0.24882 0.16350
#
# Static dielectric constant tensor:
#      x y z
#    x 1.644010 0.000000 0.014970 
#    y 0.000000 1.667330 0.000000 
#    z 0.014970 0.000000 1.727670 
# 
# From -- ./inp_files/43799.got.cif
#   From: 2010.05.17/outbox.cif.g08.bks.cpg/sg15_22_cif.got.tgz:43799.got - 2010.06.03 18:47:42.
