data_PCOD9277616
_publ_section_title
;
Structure prediction by ZEFSAII (Michael W. Deem and Ramdas Pophale) SiO2 
 PCOD9277616
Probable space group: C 2/C
;
_chemical_formula_sum "Si O2"
_cell_formula_units_Z 48
_cell_length_a 24.674065
_cell_length_b 10.519157
_cell_length_c 22.549478
_cell_angle_alpha 90.000000
_cell_angle_beta 23.067601
_cell_angle_gamma 90.000000
_cell_volume 2293.196785
_symmetry_space_group_name_H-M "C 2/C"
_symmetry_group_IT_number 15
_symmetry_cell_setting 'monoclinic'
loop_
_space_group_symop_operation_xyz
x,y,z
-x,y,1/2-z
-x,-y,-z
x,-y,1/2+z
1/2+x,1/2+y,z
1/2-x,1/2+y,1/2-z
1/2-x,1/2-y,-z
1/2+x,1/2-y,1/2+z
loop_
_atom_site_type_symbol
_atom_site_label
_atom_site_fract_x
_atom_site_fract_y
_atom_site_fract_z
Si Si1 0.167908 0.758988 0.203699
Si Si2 0.571750 0.496971 0.741509
Si Si3 0.723565 0.508854 0.920181
Si Si4 0.905969 0.714552 0.786758
Si Si5 0.465616 0.891914 0.105807
Si Si6 0.087421 0.338426 0.467878
O O1 0.162203 0.883225 0.168801
O O2 0.228994 0.633341 0.111253
O O3 0.017349 0.723097 0.379566
O O4 0.263217 0.790344 0.164171
O O5 0.500000 0.517877 0.750000
O O6 0.642730 0.359622 0.669869
O O7 0.440194 0.486601 0.918354
O O8 0.781776 0.612896 0.908069
O O9 0.813066 0.545330 0.771755
O O10 0.992234 0.681806 0.639999
O O11 0.000000 0.701175 0.750000
O O12 0.569819 0.009114 0.992395
O O13 0.455574 0.811182 0.056368
#
# Coordination Sequence:
#
# PCOD9277616 Si02
#       6
#     8   8   8   8   8   8
#     4  11  22  41  65  95 127 169 213 266 320 379
#     4  11  24  40  61  97 129 165 216 266 316 386
#     4   9  21  42  60  89 131 157 217 261 310 380
#     4   9  21  40  62  88 123 170 206 261 314 381
#     4   8  20  41  62  91 125 167 206 262 317 378
#     4  10  20  41  66  92 127 164 214 267 318 377
#
# _framework density 20.931479
#
# number of rings (size 3 to 8) (size 9 to 14) (size 15 to 20)
#    1.000    1.333    1.667    0.000    0.000    8.000 
#    9.000    1.667    0.000    0.000    0.000    0.000 
#    0.000    0.000    0.000    0.000    0.000    0.000 
#
# Total GULP energy -133809.171291 kJ/mol
# GULP energy per Si atom -5575.382137 kJ/mol
# Density = 2.088384 g / cm^3
# Si number density = 20.931479 Si / 1000 Ang^3
#
#
#
# Elastic Constant Matrix: (Units=GPa)
#
#
# Indices 1 2 3 4 5 6 
#
# 1 76.5844 55.3022 -14.6743 -0.0001 7.5340 0.0001
# 2 55.3022 147.3331 9.0076 0.0001 -8.1809 -0.0002
# 3 -14.6743 9.0076 35.3700 0.0000 -0.0222 -0.0001
# 4 -0.0001 0.0001 0.0000 4.4381 -0.0001 -11.1820
# 5 7.5340 -8.1809 -0.0222 -0.0001 26.2764 0.0000
# 6 0.0001 -0.0002 -0.0001 -11.1820 0.0000 26.7564
#
#
#
# Elastic Compliance Matrix: (Units=1/GPa)
#
#
# Indices 1 2 3 4 5 6 
#
# 1 0.023865 -0.010280 0.012513 -0.000008 -0.010033 -0.000004
# 2 -0.010280 0.011446 -0.007176 0.000004 0.006505 0.000002
# 3 0.012513 -0.007176 0.035288 -0.000006 -0.005792 -0.000002
# 4 -0.000008 0.000004 -0.000006 -4.253955 -0.000003 -1.777806
# 5 -0.010033 0.006505 -0.005792 -0.000003 0.042954 -0.000001
# 6 -0.000004 0.000002 -0.000002 -1.777806 -0.000001 -0.705604
#
#
# Mechanical properties :
#
#
# Convention : Reuss Voigt Hill
#
# Bulk Modulus (GPa) = 16.47087 39.83983 28.15535
# Shear Modulus (GPa) = -1.03823 25.47098 12.21637
#
# Velocity S-wave (km/s) = -0.70505 3.49216 2.41848
# Velocity P-wave (km/s) = 2.68761 5.94432 4.61293
#
# Compressibility (1/GPa) = 0.06071326
#
# Stress axis : x y z
#
# Youngs Moduli (GPa) = 41.90158 87.36718 28.33845
#
# Poissons Ratio (x) = 0.89814 -0.35460
# Poissons Ratio (y) = 0.43075 0.20335
# Poissons Ratio (z) = -0.52431 0.62693
#
# Static dielectric constant tensor:
#      x y z
#    x 1.728200 0.000000 0.040070 
#    y 0.000000 1.760730 0.000000 
#    z 0.040070 0.000000 1.762660 
# 
# From -- ./inp_files/252512.got.cif
#   From: 2010.05.17/outbox.cif.g08.bks.cpg/sg15_127_cif.got.tgz:252512.got - 2010.06.03 18:47:42.
