data_PCOD9277360
_publ_section_title
;
Structure prediction by ZEFSAII (Michael W. Deem and Ramdas Pophale) SiO2 
 PCOD9277360
Probable space group: C 2/C
;
_chemical_formula_sum "Si O2"
_cell_formula_units_Z 56
_cell_length_a 13.072746
_cell_length_b 25.616533
_cell_length_c 10.339080
_cell_angle_alpha 90.000000
_cell_angle_beta 47.672520
_cell_angle_gamma 90.000000
_cell_volume 2559.732637
_symmetry_space_group_name_H-M "C 2/C"
_symmetry_group_IT_number 15
_symmetry_cell_setting 'monoclinic'
loop_
_space_group_symop_operation_xyz
x,y,z
-x,y,1/2-z
-x,-y,-z
x,-y,1/2+z
1/2+x,1/2+y,z
1/2-x,1/2+y,1/2-z
1/2-x,1/2-y,-z
1/2+x,1/2-y,1/2+z
loop_
_atom_site_type_symbol
_atom_site_label
_atom_site_fract_x
_atom_site_fract_y
_atom_site_fract_z
Si Si1 0.404041 0.483918 0.204922
Si Si2 0.195500 0.422582 0.947530
Si Si3 0.313375 0.311597 0.556963
Si Si4 0.946651 0.852106 0.675051
Si Si5 0.723732 0.809610 0.359229
Si Si6 0.789565 0.899125 0.127958
Si Si7 0.041143 0.620547 0.349982
O O1 0.500000 0.474648 0.250000
O O2 0.290678 0.528165 0.331262
O O3 0.315103 0.434000 0.232547
O O4 0.500000 0.500000 0.000000
O O5 0.294761 0.372454 0.837467
O O6 0.072784 0.415075 0.948354
O O7 0.180412 0.420667 0.116043
O O8 0.437769 0.330759 0.539113
O O9 0.290736 0.252582 0.625509
O O10 0.328386 0.317080 0.390780
O O11 0.179031 0.346645 0.701206
O O12 0.000000 0.817771 0.750000
O O13 0.060581 0.897782 0.569851
O O14 0.761182 0.840035 0.196911
O O15 0.578726 0.837644 0.518647
O O16 0.000000 0.592326 0.250000
#
# Coordination Sequence:
#
# PCOD9277360 Si02
#       7
#     8   8   8   8   8   8   8
#     4  12  22  38  64  95 125 159 205 263 322 374
#     4  10  20  41  60  84 129 159 194 265 308 371
#     4   9  20  38  59  85 119 160 202 254 302 364
#     4   9  18  35  56  84 118 152 191 244 314 358
#     4  10  22  37  58  89 121 158 209 248 304 370
#     4  11  23  36  60  97 122 155 207 258 319 368
#     4   9  20  40  62  81 118 170 205 246 310 367
#
# _framework density 21.877285000000001
#
# number of rings (size 3 to 8) (size 9 to 14) (size 15 to 20)
#    0.000    2.000    2.857    0.429    4.000    1.714 
#    2.571    2.857    0.000    0.000    0.000    0.000 
#    0.000    0.000    0.000    0.000    0.000    0.000 
#
# Total GULP energy -155906.856958 kJ/mol
# GULP energy per Si atom -5568.102034 kJ/mol
# Density = 2.182749 g / cm^3
# Si number density = 21.877285 Si / 1000 Ang^3
#
#
#
# Elastic Constant Matrix: (Units=GPa)
#
#
# Indices 1 2 3 4 5 6 
#
# 1 167.5453 36.3009 26.0707 0.0000 53.0115 0.0000
# 2 36.3009 46.1620 8.6317 0.0000 28.7859 0.0000
# 3 26.0707 8.6317 60.4165 0.0000 22.6881 0.0000
# 4 0.0000 0.0000 0.0000 36.7129 0.0000 0.8558
# 5 53.0115 28.7859 22.6881 0.0000 36.1686 0.0000
# 6 0.0000 0.0000 0.0000 0.8558 0.0000 -0.1071
#
#
#
# Elastic Compliance Matrix: (Units=1/GPa)
#
#
# Indices 1 2 3 4 5 6 
#
# 1 0.011602 0.004001 0.002621 0.000000 -0.021833 0.000000
# 2 0.004001 0.048266 0.010472 0.000000 -0.050847 0.000000
# 3 0.002621 0.010472 0.024197 0.000000 -0.027355 0.000000
# 4 0.000000 0.000000 0.000000 0.022963 0.000000 0.183407
# 5 -0.021833 -0.050847 -0.027355 0.000000 0.117276 0.000000
# 6 0.000000 0.000000 0.000000 0.183407 0.000000 -7.868086
#
#
# Mechanical properties :
#
#
# Convention : Reuss Voigt Hill
#
# Bulk Modulus (GPa) = 8.45643 46.23672 27.34657
# Shear Modulus (GPa) = -0.65457 28.09625 13.72084
#
# Velocity S-wave (km/s) = -0.54759 3.58755 2.50706
# Velocity P-wave (km/s) = 1.86386 6.19203 4.57248
#
# Compressibility (1/GPa) = 0.11825323
#
# Stress axis : x y z
#
# Youngs Moduli (GPa) = 86.19365 20.71866 41.32740
#
# Poissons Ratio (x) = -0.08290 -0.10831
# Poissons Ratio (y) = -0.34488 -0.43279
# Poissons Ratio (z) = -0.22590 -0.21697
#
# Static dielectric constant tensor:
#      x y z
#    x 1.886430 0.000000 0.050980 
#    y 0.000000 1.899450 0.000000 
#    z 0.050980 0.000000 1.901760 
# 
# From -- ./inp_files/35571.got.cif
#   From: 2010.05.17/outbox.cif.g08.bks.cpg/sg15_18_cif.got.tgz:35571.got - 2010.06.03 18:47:42.
