data_PCOD9277703
_publ_section_title
;
Structure prediction by ZEFSAII (Michael W. Deem and Ramdas Pophale) SiO2 
 PCOD9277703
Probable space group: C 2/C
;
_chemical_formula_sum "Si O2"
_cell_formula_units_Z 64
_cell_length_a 12.135754
_cell_length_b 10.595181
_cell_length_c 24.289805
_cell_angle_alpha 90.000000
_cell_angle_beta 109.979304
_cell_angle_gamma 90.000000
_cell_volume 2935.229438
_symmetry_space_group_name_H-M "C 2/C"
_symmetry_group_IT_number 15
_symmetry_cell_setting 'monoclinic'
loop_
_space_group_symop_operation_xyz
x,y,z
-x,y,1/2-z
-x,-y,-z
x,-y,1/2+z
1/2+x,1/2+y,z
1/2-x,1/2+y,1/2-z
1/2-x,1/2-y,-z
1/2+x,1/2-y,1/2+z
loop_
_atom_site_type_symbol
_atom_site_label
_atom_site_fract_x
_atom_site_fract_y
_atom_site_fract_z
Si Si1 0.103014 0.276674 0.807918
Si Si2 0.261865 0.139344 0.394541
Si Si3 0.140943 0.623347 0.543978
Si Si4 0.120053 0.264747 0.929137
Si Si5 0.077680 0.130099 0.557231
Si Si6 0.132506 0.990751 0.775205
Si Si7 0.833745 0.058700 0.341878
Si Si8 0.041703 0.205318 0.428516
O O1 0.061066 0.300414 0.862397
O O2 0.127685 0.127630 0.803495
O O3 0.220569 0.354455 0.819980
O O4 0.000000 0.314412 0.750000
O O5 0.367013 0.237200 0.414832
O O6 0.162122 0.206048 0.415393
O O7 0.307246 0.008606 0.428429
O O8 0.211540 0.101245 0.325923
O O9 0.112432 0.629418 0.474376
O O10 0.246294 0.727451 0.563588
O O11 0.029762 0.673010 0.560152
O O12 0.054325 0.140798 0.941390
O O13 0.067126 0.127991 0.489582
O O14 0.156959 0.029316 0.602546
O O15 0.000000 0.940014 0.750000
O O16 0.165151 0.010677 0.716798
O O17 0.950451 0.140620 0.371223
#
# Coordination Sequence:
#
# PCOD9277703 Si02
#       8
#     8   8   8   8   8   8   8   8
#     4  11  24  43  67  96 128 174 226 281 337 403
#     4  12  24  44  67  99 144 181 219 285 354 414
#     4  10  22  42  70 102 129 176 222 284 342 404
#     4  10  20  41  67  98 128 167 230 274 327 402
#     4  11  26  41  67 102 138 175 224 281 350 415
#     4  11  23  42  66  89 125 177 225 268 332 409
#     4  12  24  43  68  95 129 174 229 284 332 406
#     4  11  23  44  69 102 132 179 231 280 340 417
#
# _framework density 21.804088
#
# number of rings (size 3 to 8) (size 9 to 14) (size 15 to 20)
#    0.000    1.000    3.750    3.000    5.250    2.000 
#    2.250    1.875    0.000    0.000    0.000    0.000 
#    0.000    0.000    0.000    0.000    0.000    0.000 
#
# Total GULP energy -178740.513704 kJ/mol
# GULP energy per Si atom -5585.641053 kJ/mol
# Density = 2.175446 g / cm^3
# Si number density = 21.804088 Si / 1000 Ang^3
#
#
#
# Elastic Constant Matrix: (Units=GPa)
#
#
# Indices 1 2 3 4 5 6 
#
# 1 84.1751 21.7060 29.4917 0.0000 6.0716 0.0000
# 2 21.7060 51.9386 17.8429 0.0000 9.7345 0.0000
# 3 29.4917 17.8429 156.4502 0.0000 11.2328 0.0000
# 4 0.0000 0.0000 0.0000 22.7111 0.0000 4.3808
# 5 6.0716 9.7345 11.2328 0.0000 26.5128 0.0000
# 6 0.0000 0.0000 0.0000 4.3808 0.0000 14.4202
#
#
#
# Elastic Compliance Matrix: (Units=1/GPa)
#
#
# Indices 1 2 3 4 5 6 
#
# 1 0.013919 -0.005034 -0.002015 0.000000 -0.000486 0.000000
# 2 -0.005034 0.023041 -0.001190 0.000000 -0.006803 0.000000
# 3 -0.002015 -0.001190 0.007058 0.000000 -0.002092 0.000000
# 4 0.000000 0.000000 0.000000 0.046772 0.000000 -0.014209
# 5 -0.000486 -0.006803 -0.002092 0.000000 0.041213 0.000000
# 6 0.000000 0.000000 0.000000 -0.014209 0.000000 0.073664
#
#
# Mechanical properties :
#
#
# Convention : Reuss Voigt Hill
#
# Bulk Modulus (GPa) = 36.31147 47.84947 42.08047
# Shear Modulus (GPa) = 21.61466 27.63038 24.62252
#
# Velocity S-wave (km/s) = 3.15193 3.56365 3.36409
# Velocity P-wave (km/s) = 5.47137 6.23904 5.86777
#
# Compressibility (1/GPa) = 0.02753951
#
# Stress axis : x y z
#
# Youngs Moduli (GPa) = 71.84421 43.40060 141.69196
#
# Poissons Ratio (x) = 0.21847 0.28549
# Poissons Ratio (y) = 0.36165 0.16868
# Poissons Ratio (z) = 0.14475 0.05167
#
# Static dielectric constant tensor:
#      x y z
#    x 1.867960 0.000000 -0.027250 
#    y 0.000000 1.802050 0.000000 
#    z -0.027250 0.000000 1.820360 
# 
# From -- ./inp_files/269282.got.cif
#   From: 2010.05.17/outbox.cif.g08.bks.cpg/sg15_135_cif.got.tgz:269282.got - 2010.06.03 18:47:42.
