data_PCOD9277997
_publ_section_title
;
Structure prediction by ZEFSAII (Michael W. Deem and Ramdas Pophale) SiO2 
 PCOD9277997
Probable space group: C 2/C
;
_chemical_formula_sum "Si O2"
_cell_formula_units_Z 40
_cell_length_a 16.671189
_cell_length_b 13.494781
_cell_length_c 9.415844
_cell_angle_alpha 90.000000
_cell_angle_beta 79.231347
_cell_angle_gamma 90.000000
_cell_volume 2081.016082
_symmetry_space_group_name_H-M "C 2/C"
_symmetry_group_IT_number 15
_symmetry_cell_setting 'monoclinic'
loop_
_space_group_symop_operation_xyz
x,y,z
-x,y,1/2-z
-x,-y,-z
x,-y,1/2+z
1/2+x,1/2+y,z
1/2-x,1/2+y,1/2-z
1/2-x,1/2-y,-z
1/2+x,1/2-y,1/2+z
loop_
_atom_site_type_symbol
_atom_site_label
_atom_site_fract_x
_atom_site_fract_y
_atom_site_fract_z
Si Si1 0.593235 0.022514 0.006664
Si Si2 0.765888 0.235217 0.660966
Si Si3 0.196628 0.167837 0.430413
Si Si4 0.795332 0.525155 0.804375
Si Si5 0.091422 0.734721 0.167820
O O1 0.656960 0.007953 0.857601
O O2 0.596387 0.132856 0.074238
O O3 0.500000 0.000000 0.000000
O O4 0.630072 0.951372 0.114368
O O5 0.750000 0.250000 0.500000
O O6 0.692741 0.286669 0.774244
O O7 0.762177 0.118841 0.692737
O O8 0.847930 0.272702 0.714881
O O9 0.250000 0.250000 0.500000
O O10 0.117150 0.175098 0.554320
O O11 0.242399 0.064074 0.390443
O O12 0.000000 0.745613 0.250000
#
# Coordination Sequence:
#
# PCOD9277997 Si02
#       5
#     8   8   8   8   8
#     4  12  24  38  64 103 137 166 215 280 354 406
#     4  11  23  39  64  98 131 170 230 275 320 414
#     4  10  20  42  64  90 132 179 220 271 330 405
#     4  12  22  40  66  95 129 176 232 265 335 410
#     4  11  23  45  64  93 140 180 209 280 355 388
#
# _framework density 19.22138
#
# number of rings (size 3 to 8) (size 9 to 14) (size 15 to 20)
#    0.000    0.800    6.000    4.200    2.800    0.000 
#    0.000    2.000    0.000    0.000    0.000    0.000 
#    0.000    0.000    0.000    0.000    0.000    0.000 
#
# Total GULP energy -111410.547535 kJ/mol
# GULP energy per Si atom -5570.527377 kJ/mol
# Density = 1.917763 g / cm^3
# Si number density = 19.221380 Si / 1000 Ang^3
#
#
#
# Elastic Constant Matrix: (Units=GPa)
#
#
# Indices 1 2 3 4 5 6 
#
# 1 97.0865 53.7363 55.7338 0.0000 -14.1328 0.0000
# 2 53.7363 92.2200 15.0171 0.0000 -1.1340 0.0000
# 3 55.7338 15.0171 151.2975 0.0000 -2.3266 0.0000
# 4 0.0000 0.0000 0.0000 36.2459 0.0000 -1.9118
# 5 -14.1328 -1.1340 -2.3266 0.0000 41.2368 0.0000
# 6 0.0000 0.0000 0.0000 -1.9118 0.0000 26.5390
#
#
#
# Elastic Compliance Matrix: (Units=1/GPa)
#
#
# Indices 1 2 3 4 5 6 
#
# 1 0.021290 -0.011246 -0.006625 0.000000 0.006614 0.000000
# 2 -0.011246 0.016964 0.002409 0.000000 -0.003252 0.000000
# 3 -0.006625 0.002409 0.008785 0.000000 -0.001709 0.000000
# 4 0.000000 0.000000 0.000000 0.027695 0.000000 0.001995
# 5 0.006614 -0.003252 -0.001709 0.000000 0.026331 0.000000
# 6 0.000000 0.000000 0.000000 0.001995 0.000000 0.037824
#
#
# Mechanical properties :
#
#
# Convention : Reuss Voigt Hill
#
# Bulk Modulus (GPa) = 62.05169 65.50871 63.78020
# Shear Modulus (GPa) = 28.54144 35.21212 31.87678
#
# Velocity S-wave (km/s) = 3.85759 4.28474 4.07677
# Velocity P-wave (km/s) = 7.22455 7.65727 7.44406
#
# Compressibility (1/GPa) = 0.01611560
#
# Stress axis : x y z
#
# Youngs Moduli (GPa) = 46.96993 58.94772 113.83633
#
# Poissons Ratio (x) = 0.66290 0.75415
# Poissons Ratio (y) = 0.52821 -0.27421
# Poissons Ratio (z) = 0.31117 -0.14199
#
# Static dielectric constant tensor:
#      x y z
#    x 1.732060 0.000000 -0.041750 
#    y 0.000000 1.764960 0.000000 
#    z -0.041750 0.000000 1.855480 
# 
# From -- ./inp_files/46204.got.cif
#   From: 2010.05.17/outbox.cif.g08.bks.cpg/sg15_24_cif.got.tgz:46204.got - 2010.06.03 18:47:42.
