data_PCOD9277217
_publ_section_title
;
Structure prediction by ZEFSAII (Michael W. Deem and Ramdas Pophale) SiO2 
 PCOD9277217
Probable space group: C 2/C
;
_chemical_formula_sum "Si O2"
_cell_formula_units_Z 48
_cell_length_a 11.615962
_cell_length_b 11.398063
_cell_length_c 21.060328
_cell_angle_alpha 90.000000
_cell_angle_beta 51.311243
_cell_angle_gamma 90.000000
_cell_volume 2176.475633
_symmetry_space_group_name_H-M "C 2/C"
_symmetry_group_IT_number 15
_symmetry_cell_setting 'monoclinic'
loop_
_space_group_symop_operation_xyz
x,y,z
-x,y,1/2-z
-x,-y,-z
x,-y,1/2+z
1/2+x,1/2+y,z
1/2-x,1/2+y,1/2-z
1/2-x,1/2-y,-z
1/2+x,1/2-y,1/2+z
loop_
_atom_site_type_symbol
_atom_site_label
_atom_site_fract_x
_atom_site_fract_y
_atom_site_fract_z
Si Si1 0.079995 0.532065 0.154090
Si Si2 0.643937 0.583370 0.744271
Si Si3 0.957298 0.255013 0.611941
Si Si4 0.088106 0.119666 0.455790
Si Si5 0.440164 0.178458 0.630420
Si Si6 0.659939 0.330334 0.723348
O O1 0.245816 0.574556 0.111724
O O2 0.000000 0.513610 0.250000
O O3 0.011607 0.639473 0.137444
O O4 0.057177 0.418307 0.115052
O O5 0.500000 0.588800 0.750000
O O6 0.591612 0.652503 0.823950
O O7 0.788601 0.623669 0.654202
O O8 0.688839 0.452201 0.748713
O O9 0.803269 0.299297 0.632646
O O10 0.071927 0.203788 0.522787
O O11 0.023193 0.205459 0.422875
O O12 0.000000 0.000000 0.500000
O O13 0.369587 0.225743 0.719309
O O14 0.500000 0.347910 0.750000
#
# Coordination Sequence:
#
# PCOD9277217 Si02
#       6
#     8   8   8   8   8   8
#     4  12  26  48  76 103 137 191 243 296 361 432
#     4  10  20  40  70 101 132 182 241 289 346 425
#     4  11  23  44  67  99 145 183 233 300 357 428
#     4  12  29  46  68 106 147 187 236 298 371 427
#     4  11  24  43  70 100 140 186 241 286 357 434
#     4  10  21  39  67 101 132 179 237 293 347 419
#
# _framework density 22.054001
#
# number of rings (size 3 to 8) (size 9 to 14) (size 15 to 20)
#    0.000    1.000    1.667    5.500    7.000    1.333 
#    6.000    0.000    0.000    0.000    0.000    0.000 
#    0.000    0.000    0.000    0.000    0.000    0.000 
#
# Total GULP energy -133641.014143 kJ/mol
# GULP energy per Si atom -5568.375589 kJ/mol
# Density = 2.200381 g / cm^3
# Si number density = 22.054001 Si / 1000 Ang^3
#
#
#
# Elastic Constant Matrix: (Units=GPa)
#
#
# Indices 1 2 3 4 5 6 
#
# 1 74.3800 32.9860 36.9343 0.0000 -10.6829 0.0000
# 2 32.9860 112.3280 41.0134 0.0000 -6.9515 0.0000
# 3 36.9343 41.0134 81.8928 0.0000 -3.9110 0.0000
# 4 0.0000 0.0000 0.0000 42.5109 0.0000 -2.4366
# 5 -10.6829 -6.9515 -3.9110 0.0000 22.4551 0.0000
# 6 0.0000 0.0000 0.0000 -2.4366 0.0000 5.5292
#
#
#
# Elastic Compliance Matrix: (Units=1/GPa)
#
#
# Indices 1 2 3 4 5 6 
#
# 1 0.019073 -0.002627 -0.006950 0.000000 0.007050 0.000000
# 2 -0.002627 0.011391 -0.004448 0.000000 0.001502 0.000000
# 3 -0.006950 -0.004448 0.017495 0.000000 -0.001636 0.000000
# 4 0.000000 0.000000 0.000000 0.024133 0.000000 0.010635
# 5 0.007050 0.001502 -0.001636 0.000000 0.048067 0.000000
# 6 0.000000 0.000000 0.000000 0.010635 0.000000 0.185545
#
#
# Mechanical properties :
#
#
# Convention : Reuss Voigt Hill
#
# Bulk Modulus (GPa) = 50.22849 54.49647 52.36248
# Shear Modulus (GPa) = 14.68897 24.61018 19.64957
#
# Velocity S-wave (km/s) = 2.58359 3.34414 2.98816
# Velocity P-wave (km/s) = 5.63246 6.29882 5.97494
#
# Compressibility (1/GPa) = 0.01990902
#
# Stress axis : x y z
#
# Youngs Moduli (GPa) = 52.42981 87.78799 57.15895
#
# Poissons Ratio (x) = 0.23063 0.39724
# Poissons Ratio (y) = 0.13774 0.25426
# Poissons Ratio (z) = 0.36437 0.39050
#
# Static dielectric constant tensor:
#      x y z
#    x 2.168630 0.000000 -0.142460 
#    y 0.000000 2.014440 0.000000 
#    z -0.142460 0.000000 1.813140 
# 
# From -- ./inp_files/237399.got.cif
#   From: 2010.05.17/outbox.cif.g08.bks.cpg/sg15_119_cif.got.tgz:237399.got - 2010.06.03 18:47:42.
