data_PCOD9277677
_publ_section_title
;
Structure prediction by ZEFSAII (Michael W. Deem and Ramdas Pophale) SiO2 
 PCOD9277677
Probable space group: C 2/C
;
_chemical_formula_sum "Si O2"
_cell_formula_units_Z 64
_cell_length_a 18.531428
_cell_length_b 14.949731
_cell_length_c 16.455433
_cell_angle_alpha 90.000000
_cell_angle_beta 44.834845
_cell_angle_gamma 90.000000
_cell_volume 3214.260808
_symmetry_space_group_name_H-M "C 2/C"
_symmetry_group_IT_number 15
_symmetry_cell_setting 'monoclinic'
loop_
_space_group_symop_operation_xyz
x,y,z
-x,y,1/2-z
-x,-y,-z
x,-y,1/2+z
1/2+x,1/2+y,z
1/2-x,1/2+y,1/2-z
1/2-x,1/2-y,-z
1/2+x,1/2-y,1/2+z
loop_
_atom_site_type_symbol
_atom_site_label
_atom_site_fract_x
_atom_site_fract_y
_atom_site_fract_z
Si Si1 0.037216 0.565881 0.541789
Si Si2 0.470476 0.260526 0.637034
Si Si3 0.017078 0.398819 0.828394
Si Si4 0.229428 0.037774 0.148011
Si Si5 0.804244 0.654520 0.540694
Si Si6 0.155641 0.194993 0.110561
Si Si7 0.912373 0.073697 0.083723
Si Si8 0.760970 0.349422 0.881639
O O1 0.157828 0.580914 0.434312
O O2 0.000000 0.500000 0.500000
O O3 0.984435 0.660581 0.594089
O O4 0.011963 0.503283 0.639465
O O5 0.376289 0.266057 0.775660
O O6 0.565079 0.290875 0.618545
O O7 0.459757 0.331536 0.573568
O O8 0.136226 0.379785 0.747854
O O9 0.000000 0.368961 0.750000
O O10 0.927722 0.349617 0.949721
O O11 0.179248 0.091145 0.112360
O O12 0.158567 0.047826 0.282849
O O13 0.253332 0.933760 0.117200
O O14 0.779414 0.646916 0.463988
O O15 0.762490 0.744802 0.613264
O O16 0.250000 0.250000 0.000000
O O17 0.835255 0.092014 0.070641
O O18 0.000000 0.000000 0.000000
#
# Coordination Sequence:
#
# PCOD9277677 Si02
#       8
#     8   8   8   8   8   8   8   8
#     4  11  22  38  61  95 129 159 205 266 327 376
#     4  10  24  40  64  95 125 169 213 265 323 385
#     4   9  20  37  63  91 121 154 213 265 306 372
#     4  10  22  42  63  93 123 164 216 266 323 381
#     4   9  21  39  68  92 120 169 218 270 315 377
#     4  10  20  41  67  92 125 160 216 266 319 385
#     4  11  26  45  58  93 133 171 215 259 331 397
#     4  10  21  42  63  92 128 170 218 259 323 389
#
# _framework density 19.911265
#
# number of rings (size 3 to 8) (size 9 to 14) (size 15 to 20)
#    0.000    2.000    1.250    0.750    7.000    2.000 
#    4.500    1.250    0.000    0.000    0.000    0.000 
#    0.000    0.000    0.000    0.000    0.000    0.000 
#
# Total GULP energy -178492.348773 kJ/mol
# GULP energy per Si atom -5577.885899 kJ/mol
# Density = 1.986595 g / cm^3
# Si number density = 19.911265 Si / 1000 Ang^3
#
#
#
# Elastic Constant Matrix: (Units=GPa)
#
#
# Indices 1 2 3 4 5 6 
#
# 1 73.2740 12.0591 27.1076 0.0000 -11.6140 0.0000
# 2 12.0591 98.0568 59.9637 0.0000 -18.0439 0.0000
# 3 27.1076 59.9637 109.0936 0.0000 -23.0805 0.0000
# 4 0.0000 0.0000 0.0000 18.5806 0.0000 -2.3755
# 5 -11.6140 -18.0439 -23.0805 0.0000 24.0204 0.0000
# 6 0.0000 0.0000 0.0000 -2.3755 0.0000 33.0769
#
#
#
# Elastic Compliance Matrix: (Units=1/GPa)
#
#
# Indices 1 2 3 4 5 6 
#
# 1 0.015524 0.001095 -0.003386 0.000000 0.005076 0.000000
# 2 0.001095 0.015801 -0.007950 0.000000 0.004760 0.000000
# 3 -0.003386 -0.007950 0.016026 0.000000 0.007789 0.000000
# 4 0.000000 0.000000 0.000000 0.054318 0.000000 0.003901
# 5 0.005076 0.004760 0.007789 0.000000 0.055146 0.000000
# 6 0.000000 0.000000 0.000000 0.003901 0.000000 0.030513
#
#
# Mechanical properties :
#
#
# Convention : Reuss Voigt Hill
#
# Bulk Modulus (GPa) = 37.21690 53.18726 45.20208
# Shear Modulus (GPa) = 23.06644 27.22185 25.14414
#
# Velocity S-wave (km/s) = 3.40731 3.70152 3.55746
# Velocity P-wave (km/s) = 5.84907 6.71107 6.29484
#
# Compressibility (1/GPa) = 0.02686951
#
# Stress axis : x y z
#
# Youngs Moduli (GPa) = 64.41581 63.28673 62.40052
#
# Poissons Ratio (x) = -0.06931 0.21126
# Poissons Ratio (y) = -0.07055 0.49610
# Poissons Ratio (z) = 0.21808 0.50314
#
# Static dielectric constant tensor:
#      x y z
#    x 1.763370 0.000000 0.004000 
#    y 0.000000 1.642900 0.000000 
#    z 0.004000 0.000000 1.712060 
# 
# From -- ./inp_files/211383.got.cif
#   From: 2010.05.17/outbox.cif.g08.bks.cpg/sg15_106_cif.got.tgz:211383.got - 2010.06.03 18:47:42.
