data_PCOD9277555
_publ_section_title
;
Structure prediction by ZEFSAII (Michael W. Deem and Ramdas Pophale) SiO2 
 PCOD9277555
Probable space group: C 2/C
;
_chemical_formula_sum "Si O2"
_cell_formula_units_Z 48
_cell_length_a 8.299972
_cell_length_b 29.261355
_cell_length_c 15.806869
_cell_angle_alpha 90.000000
_cell_angle_beta 28.448890
_cell_angle_gamma 90.000000
_cell_volume 1828.797170
_symmetry_space_group_name_H-M "C 2/C"
_symmetry_group_IT_number 15
_symmetry_cell_setting 'monoclinic'
loop_
_space_group_symop_operation_xyz
x,y,z
-x,y,1/2-z
-x,-y,-z
x,-y,1/2+z
1/2+x,1/2+y,z
1/2-x,1/2+y,1/2-z
1/2-x,1/2-y,-z
1/2+x,1/2-y,1/2+z
loop_
_atom_site_type_symbol
_atom_site_label
_atom_site_fract_x
_atom_site_fract_y
_atom_site_fract_z
Si Si1 0.527896 0.490611 0.138934
Si Si2 0.811462 0.343390 0.925407
Si Si3 0.253168 0.677339 0.442522
Si Si4 0.905288 0.769849 0.041586
Si Si5 0.230310 0.897477 0.230337
Si Si6 0.376978 0.931343 0.710911
O O1 0.500000 0.501117 0.250000
O O2 0.251453 0.450328 0.252315
O O3 0.463040 0.539380 0.127160
O O4 0.869167 0.464287 0.957509
O O5 0.077658 0.379994 0.845979
O O6 0.000000 0.339685 0.750000
O O7 0.636822 0.293194 0.006298
O O8 0.474141 0.372737 0.099944
O O9 0.500000 0.671914 0.250000
O O10 0.002791 0.717597 0.523334
O O11 0.424719 0.700822 0.445397
O O12 0.060773 0.631921 0.559060
O O13 0.500000 0.770890 0.250000
O O14 0.000000 0.895249 0.250000
O O15 0.500000 0.929321 0.750000
#
# Coordination Sequence:
#
# PCOD9277555 Si02
#       6
#     8   8   8   8   8   8
#     4  10  21  41  64  89 127 169 207 259 317 376
#     4  10  22  40  63  90 127 163 207 260 315 378
#     4  10  22  39  64  95 124 164 212 257 315 383
#     4  10  20  41  65  91 127 164 208 262 318 375
#     4  10  22  41  59  90 129 163 208 259 313 376
#     4  10  21  41  63  93 124 162 213 262 317 378
#
# _framework density 26.246758
#
# number of rings (size 3 to 8) (size 9 to 14) (size 15 to 20)
#    0.000    2.000    1.667    1.000    2.333    0.667 
#   12.000    2.500    0.000    0.000    0.000    0.000 
#    0.000    0.000    0.000    0.000    0.000    0.000 
#
# Total GULP energy -133743.384104 kJ/mol
# GULP energy per Si atom -5572.641004 kJ/mol
# Density = 2.618702 g / cm^3
# Si number density = 26.246758 Si / 1000 Ang^3
#
#
#
# Elastic Constant Matrix: (Units=GPa)
#
#
# Indices 1 2 3 4 5 6 
#
# 1 62.0717 38.6230 18.1819 0.0000 5.3668 0.0000
# 2 38.6230 183.3293 24.2667 0.0000 -31.4971 0.0000
# 3 18.1819 24.2667 127.6474 0.0000 16.0810 0.0000
# 4 0.0000 0.0000 0.0000 8.4029 0.0000 6.3837
# 5 5.3668 -31.4971 16.0810 0.0000 24.4708 0.0000
# 6 0.0000 0.0000 0.0000 6.3837 0.0000 15.2712
#
#
#
# Elastic Compliance Matrix: (Units=1/GPa)
#
#
# Indices 1 2 3 4 5 6 
#
# 1 0.021563 -0.006855 -0.000066 0.000000 -0.013509 0.000000
# 2 -0.006855 0.010146 -0.003039 0.000000 0.016559 0.000000
# 3 -0.000066 -0.003039 0.009716 0.000000 -0.010282 0.000000
# 4 0.000000 0.000000 0.000000 0.174387 0.000000 -0.072897
# 5 -0.013509 0.016559 -0.010282 0.000000 0.071898 0.000000
# 6 0.000000 0.000000 0.000000 -0.072897 0.000000 0.095955
#
#
# Mechanical properties :
#
#
# Convention : Reuss Voigt Hill
#
# Bulk Modulus (GPa) = 46.49906 59.46576 52.98241
# Shear Modulus (GPa) = 12.17270 29.09409 20.63339
#
# Velocity S-wave (km/s) = 2.15589 3.33300 2.80684
# Velocity P-wave (km/s) = 4.89405 6.12515 5.54388
#
# Compressibility (1/GPa) = 0.02150581
#
# Stress axis : x y z
#
# Youngs Moduli (GPa) = 46.37543 98.56058 102.91779
#
# Poissons Ratio (x) = 0.67562 0.00684
# Poissons Ratio (y) = 0.31790 0.31273
# Poissons Ratio (z) = 0.00308 0.29949
#
# Static dielectric constant tensor:
#      x y z
#    x 2.195980 0.000000 -0.079670 
#    y 0.000000 2.134910 0.000000 
#    z -0.079670 0.000000 2.092830 
# 
# From -- ./inp_files/241047.got.cif
#   From: 2010.05.17/outbox.cif.g08.bks.cpg/sg15_121_cif.got.tgz:241047.got - 2010.06.03 18:47:42.
