data_PCOD9277757
_publ_section_title
;
Structure prediction by ZEFSAII (Michael W. Deem and Ramdas Pophale) SiO2 
 PCOD9277757
Probable space group: C 2/C
;
_chemical_formula_sum "Si O2"
_cell_formula_units_Z 56
_cell_length_a 8.248907
_cell_length_b 23.324818
_cell_length_c 13.501782
_cell_angle_alpha 90.000000
_cell_angle_beta 119.806186
_cell_angle_gamma 90.000000
_cell_volume 2254.141953
_symmetry_space_group_name_H-M "C 2/C"
_symmetry_group_IT_number 15
_symmetry_cell_setting 'monoclinic'
loop_
_space_group_symop_operation_xyz
x,y,z
-x,y,1/2-z
-x,-y,-z
x,-y,1/2+z
1/2+x,1/2+y,z
1/2-x,1/2+y,1/2-z
1/2-x,1/2-y,-z
1/2+x,1/2-y,1/2+z
loop_
_atom_site_type_symbol
_atom_site_label
_atom_site_fract_x
_atom_site_fract_y
_atom_site_fract_z
Si Si1 0.000000 0.370310 0.250000
Si Si2 0.716970 0.475137 0.832866
Si Si3 0.398009 0.632153 0.914296
Si Si4 0.273569 0.929948 0.499902
Si Si5 0.038883 0.325298 0.058275
Si Si6 0.164359 0.157662 0.372392
Si Si7 0.000000 0.540557 0.250000
Si Si8 0.608804 0.734548 0.867670
O O1 0.790661 0.395233 0.191181
O O2 0.045909 0.334946 0.360944
O O3 0.500000 0.491080 0.750000
O O4 0.785632 0.508540 0.951220
O O5 0.716250 0.406473 0.850035
O O6 0.857821 0.488657 0.785311
O O7 0.559230 0.585616 0.948003
O O8 0.474489 0.686638 0.874867
O O9 0.400246 0.648777 0.032761
O O10 0.377780 0.883335 0.463487
O O11 0.366463 0.925859 0.635171
O O12 0.220049 0.290623 0.142536
O O13 0.862078 0.307397 0.936369
O O14 0.000000 0.179426 0.250000
O O15 0.500000 0.770505 0.750000
O O16 0.750000 0.750000 0.000000
#
# Coordination Sequence:
#
# PCOD9277757 Si02
#       8
#     4   8   8   8   8   8   4   8
#     4  10  20  41  68  98 126 164 212 282 330 388
#     4  11  25  41  60  92 137 179 235 294 334 399
#     4  10  23  41  72  93 132 178 218 283 334 407
#     4  11  24  41  61  94 128 178 232 272 339 395
#     4  10  22  40  70  92 129 171 220 270 326 412
#     4  10  21  41  63  97 134 172 225 278 343 400
#     4  12  24  43  60  86 140 180 222 298 338 400
#     4  11  24  46  71 104 139 172 221 270 338 416
#
# _framework density 24.843154999999999
#
# number of rings (size 3 to 8) (size 9 to 14) (size 15 to 20)
#    0.000    1.429    2.857    2.143    2.000    4.000 
#    2.571    2.857    3.143    0.000    0.000    0.000 
#    0.000    0.000    0.000    0.000    0.000    0.000 
#
# Total GULP energy -155908.052244 kJ/mol
# GULP energy per Si atom -5568.144723 kJ/mol
# Density = 2.478661 g / cm^3
# Si number density = 24.843155 Si / 1000 Ang^3
#
#
#
# Elastic Constant Matrix: (Units=GPa)
#
#
# Indices 1 2 3 4 5 6 
#
# 1 138.1818 -0.0428 56.4724 0.0000 36.5466 0.0000
# 2 -0.0428 33.8265 26.6362 0.0000 -2.9036 0.0000
# 3 56.4724 26.6362 211.0922 0.0000 31.0647 0.0000
# 4 0.0000 0.0000 0.0000 26.6968 0.0000 -16.0001
# 5 36.5466 -2.9036 31.0647 0.0000 75.1771 0.0000
# 6 0.0000 0.0000 0.0000 -16.0001 0.0000 64.6094
#
#
#
# Elastic Compliance Matrix: (Units=1/GPa)
#
#
# Indices 1 2 3 4 5 6 
#
# 1 0.008999 0.001341 -0.002066 0.000000 -0.003469 0.000000
# 2 0.001341 0.033750 -0.005018 0.000000 0.002726 0.000000
# 3 -0.002066 -0.005018 0.006180 0.000000 -0.001743 0.000000
# 4 0.000000 0.000000 0.000000 0.043986 0.000000 0.010893
# 5 -0.003469 0.002726 -0.001743 0.000000 0.015814 0.000000
# 6 0.000000 0.000000 0.000000 0.010893 0.000000 0.018175
#
#
# Mechanical properties :
#
#
# Convention : Reuss Voigt Hill
#
# Bulk Modulus (GPa) = 26.70876 61.02579 43.86728
# Shear Modulus (GPa) = 33.14061 53.29897 43.21979
#
# Velocity S-wave (km/s) = 3.65635 4.63689 4.17550
# Velocity P-wave (km/s) = 5.34785 7.29969 6.39863
#
# Compressibility (1/GPa) = 0.03744090
#
# Stress axis : x y z
#
# Youngs Moduli (GPa) = 111.12073 29.62972 161.81916
#
# Poissons Ratio (x) = -0.03972 0.33434
# Poissons Ratio (y) = -0.14896 0.81207
# Poissons Ratio (z) = 0.22959 0.14869
#
# Static dielectric constant tensor:
#      x y z
#    x 1.842150 0.000000 0.090360 
#    y 0.000000 1.784480 0.000000 
#    z 0.090360 0.000000 1.859230 
# 
# From -- ./inp_files/82737.got.cif
#   From: 2010.05.17/outbox.cif.g08.bks.cpg/sg15_42_cif.got.tgz:82737.got - 2010.06.03 18:47:42.
