data_PCOD9277124
_publ_section_title
;
Structure prediction by ZEFSAII (Michael W. Deem and Ramdas Pophale) SiO2 
 PCOD9277124
Probable space group: C 2/C
;
_chemical_formula_sum "Si O2"
_cell_formula_units_Z 36
_cell_length_a 15.571035
_cell_length_b 9.044609
_cell_length_c 12.057660
_cell_angle_alpha 90.000000
_cell_angle_beta 111.661323
_cell_angle_gamma 90.000000
_cell_volume 1578.209113
_symmetry_space_group_name_H-M "C 2/C"
_symmetry_group_IT_number 15
_symmetry_cell_setting 'monoclinic'
loop_
_space_group_symop_operation_xyz
x,y,z
-x,y,1/2-z
-x,-y,-z
x,-y,1/2+z
1/2+x,1/2+y,z
1/2-x,1/2+y,1/2-z
1/2-x,1/2-y,-z
1/2+x,1/2-y,1/2+z
loop_
_atom_site_type_symbol
_atom_site_label
_atom_site_fract_x
_atom_site_fract_y
_atom_site_fract_z
Si Si1 0.718167 0.364639 0.822654
Si Si2 0.095909 0.121193 0.823294
Si Si3 0.500000 0.913567 0.750000
Si Si4 0.143640 0.389887 0.429941
Si Si5 0.290000 0.632501 0.431841
O O1 0.677818 0.530103 0.807913
O O2 0.653171 0.263762 0.869676
O O3 0.709751 0.315261 0.692852
O O4 0.819619 0.367280 0.927387
O O5 0.000000 0.043870 0.750000
O O6 0.080579 0.288935 0.770626
O O7 0.110701 0.113234 0.962991
O O8 0.451637 0.022031 0.637168
O O9 0.226226 0.488408 0.414323
O O10 0.250000 0.750000 0.500000
#
# Coordination Sequence:
#
# PCOD9277124 Si02
#       5
#     8   8   4   8   8
#     4  10  24  40  66  94 132 171 218 265 318 384
#     4   9  21  40  61  94 127 166 212 261 326 379
#     4  10  20  40  68  92 138 160 214 264 324 392
#     4  10  23  41  63  97 128 170 217 266 320 383
#     4  11  21  40  67  87 130 171 217 260 319 384
#
# _framework density 22.810666999999999
#
# number of rings (size 3 to 8) (size 9 to 14) (size 15 to 20)
#    0.667    1.333    2.222    0.000    7.778    0.889 
#    0.000    6.667    0.000    0.000    0.000    0.000 
#    0.000    0.000    0.000    0.000    0.000    0.000 
#
# Total GULP energy -100218.906297 kJ/mol
# GULP energy per Si atom -5567.717017 kJ/mol
# Density = 2.275875 g / cm^3
# Si number density = 22.810667 Si / 1000 Ang^3
#
#
#
# Elastic Constant Matrix: (Units=GPa)
#
#
# Indices 1 2 3 4 5 6 
#
# 1 24.8579 22.3039 63.5106 0.0000 14.7813 0.0000
# 2 22.3039 112.8767 43.7357 0.0000 8.4066 0.0000
# 3 63.5106 43.7357 225.0525 0.0000 15.7107 0.0000
# 4 0.0000 0.0000 0.0000 31.1449 0.0000 15.4853
# 5 14.7813 8.4066 15.7107 0.0000 34.9984 0.0000
# 6 0.0000 0.0000 0.0000 15.4853 0.0000 27.7273
#
#
#
# Elastic Compliance Matrix: (Units=1/GPa)
#
#
# Indices 1 2 3 4 5 6 
#
# 1 0.321873 -0.025890 -0.079229 0.000000 -0.094156 0.000000
# 2 -0.025890 0.011741 0.004602 0.000000 0.006048 0.000000
# 3 -0.079229 0.004602 0.024414 0.000000 0.021397 0.000000
# 4 0.000000 0.000000 0.000000 0.044451 0.000000 -0.024825
# 5 -0.094156 0.006048 0.021397 0.000000 0.057281 0.000000
# 6 0.000000 0.000000 0.000000 -0.024825 0.000000 0.049930
#
#
# Mechanical properties :
#
#
# Convention : Reuss Voigt Hill
#
# Bulk Modulus (GPa) = 6.36965 69.09862 37.73413
# Shear Modulus (GPa) = 6.55260 34.32324 20.43792
#
# Velocity S-wave (km/s) = 1.69671 3.88326 2.99654
# Velocity P-wave (km/s) = 2.57622 7.10382 5.34327
#
# Compressibility (1/GPa) = 0.15699451
#
# Stress axis : x y z
#
# Youngs Moduli (GPa) = 3.10682 85.16979 40.95983
#
# Poissons Ratio (x) = 2.20500 3.24522
# Poissons Ratio (y) = 0.08043 -0.18850
# Poissons Ratio (z) = 0.24615 -0.39196
#
# Static dielectric constant tensor:
#      x y z
#    x 1.942890 0.000000 0.114300 
#    y 0.000000 1.894380 0.000000 
#    z 0.114300 0.000000 1.965750 
# 
# From -- ./inp_files/109843.got.cif
#   From: 2010.05.17/outbox.cif.g08.bks.cpg/sg15_55_cif.got.tgz:109843.got - 2010.06.03 18:47:42.
