data_PCOD9277320
_publ_section_title
;
Structure prediction by ZEFSAII (Michael W. Deem and Ramdas Pophale) SiO2 
 PCOD9277320
Probable space group: C 2/C
;
_chemical_formula_sum "Si O2"
_cell_formula_units_Z 44
_cell_length_a 18.844244
_cell_length_b 8.485590
_cell_length_c 10.610251
_cell_angle_alpha 90.000000
_cell_angle_beta 107.014302
_cell_angle_gamma 90.000000
_cell_volume 1622.368772
_symmetry_space_group_name_H-M "C 2/C"
_symmetry_group_IT_number 15
_symmetry_cell_setting 'monoclinic'
loop_
_space_group_symop_operation_xyz
x,y,z
-x,y,1/2-z
-x,-y,-z
x,-y,1/2+z
1/2+x,1/2+y,z
1/2-x,1/2+y,1/2-z
1/2-x,1/2-y,-z
1/2+x,1/2-y,1/2+z
loop_
_atom_site_type_symbol
_atom_site_label
_atom_site_fract_x
_atom_site_fract_y
_atom_site_fract_z
Si Si1 0.897032 0.378007 0.869579
Si Si2 0.470791 0.336008 0.577761
Si Si3 0.875207 0.722134 0.904517
Si Si4 0.000000 0.461198 0.250000
Si Si5 0.334372 0.536337 0.577813
Si Si6 0.270789 0.344864 0.309047
O O1 0.907372 0.547483 0.944604
O O2 0.812988 0.323019 0.830076
O O3 0.934934 0.427246 0.760879
O O4 0.937314 0.214733 0.927341
O O5 0.559082 0.340675 0.604645
O O6 0.461195 0.168412 0.641188
O O7 0.418001 0.462019 0.615725
O O8 0.838494 0.796670 0.007726
O O9 0.814813 0.691255 0.764587
O O10 0.287640 0.429229 0.452014
O O11 0.303571 0.564141 0.702146
#
# Coordination Sequence:
#
# PCOD9277320 Si02
#       6
#     8   8   8   4   8   8
#     4  10  24  43  70 102 139 193 250 298 370 449
#     4  10  24  44  67 107 141 188 254 309 373 439
#     4  11  22  45  72 103 146 190 248 313 369 444
#     4  10  20  40  72  98 134 188 242 308 358 446
#     4  11  26  47  74 111 149 200 247 313 380 454
#     4  11  26  48  73 111 150 201 245 311 382 452
#
# _framework density 27.120837000000002
#
# number of rings (size 3 to 8) (size 9 to 14) (size 15 to 20)
#    0.000    1.455    0.000    4.364   10.182    0.000 
#    6.545    2.727    0.000    0.000    0.000    0.000 
#    0.000    0.000    0.000    0.000    0.000    0.000 
#
# Total GULP energy -122911.229374 kJ/mol
# GULP energy per Si atom -5586.874062 kJ/mol
# Density = 2.705911 g / cm^3
# Si number density = 27.120837 Si / 1000 Ang^3
#
#
#
# Elastic Constant Matrix: (Units=GPa)
#
#
# Indices 1 2 3 4 5 6 
#
# 1 125.8491 33.2364 25.5731 0.0000 14.0927 0.0000
# 2 33.2364 111.9805 26.3294 0.0000 -2.2151 0.0000
# 3 25.5731 26.3294 76.6299 0.0000 -4.6113 0.0000
# 4 0.0000 0.0000 0.0000 30.0400 0.0000 -16.9919
# 5 14.0927 -2.2151 -4.6113 0.0000 33.6885 0.0000
# 6 0.0000 0.0000 0.0000 -16.9919 0.0000 55.3202
#
#
#
# Elastic Compliance Matrix: (Units=1/GPa)
#
#
# Indices 1 2 3 4 5 6 
#
# 1 0.009611 -0.002311 -0.002687 0.000000 -0.004540 0.000000
# 2 -0.002311 0.010272 -0.002681 0.000000 0.001275 0.000000
# 3 -0.002687 -0.002681 0.015049 0.000000 0.003007 0.000000
# 4 0.000000 0.000000 0.000000 0.040289 0.000000 0.012375
# 5 -0.004540 0.001275 0.003007 0.000000 0.032078 0.000000
# 6 0.000000 0.000000 0.000000 0.012375 0.000000 0.021878
#
#
# Mechanical properties :
#
#
# Convention : Reuss Voigt Hill
#
# Bulk Modulus (GPa) = 51.08919 53.85969 52.47444
# Shear Modulus (GPa) = 33.10004 39.09778 36.09891
#
# Velocity S-wave (km/s) = 3.49731 3.80098 3.65230
# Velocity P-wave (km/s) = 5.93184 6.25824 6.09722
#
# Compressibility (1/GPa) = 0.01957361
#
# Stress axis : x y z
#
# Youngs Moduli (GPa) = 104.05228 97.35567 66.45143
#
# Poissons Ratio (x) = 0.22495 0.17853
# Poissons Ratio (y) = 0.24042 0.17818
# Poissons Ratio (z) = 0.27954 0.26105
#
# Static dielectric constant tensor:
#      x y z
#    x 1.839120 0.000000 -1.229670 
#    y 0.000000 2.070220 0.000000 
#    z -1.229670 0.000000 -2.903950 
# 
# From -- ./inp_files/110144.got.cif
#   From: 2010.05.17/outbox.cif.g08.bks.cpg/sg15_56_cif.got.tgz:110144.got - 2010.06.03 18:47:42.
