data_PCOD9277559
_publ_section_title
;
Structure prediction by ZEFSAII (Michael W. Deem and Ramdas Pophale) SiO2 
 PCOD9277559
Probable space group: C 2/C
;
_chemical_formula_sum "Si O2"
_cell_formula_units_Z 40
_cell_length_a 9.524120
_cell_length_b 27.443806
_cell_length_c 16.552504
_cell_angle_alpha 90.000000
_cell_angle_beta 28.646361
_cell_angle_gamma 90.000000
_cell_volume 2074.115102
_symmetry_space_group_name_H-M "C 2/C"
_symmetry_group_IT_number 15
_symmetry_cell_setting 'monoclinic'
loop_
_space_group_symop_operation_xyz
x,y,z
-x,y,1/2-z
-x,-y,-z
x,-y,1/2+z
1/2+x,1/2+y,z
1/2-x,1/2+y,1/2-z
1/2-x,1/2-y,-z
1/2+x,1/2-y,1/2+z
loop_
_atom_site_type_symbol
_atom_site_label
_atom_site_fract_x
_atom_site_fract_y
_atom_site_fract_z
Si Si1 0.811718 0.197302 0.928996
Si Si2 0.706086 0.638077 0.221519
Si Si3 0.504795 0.539337 0.566139
Si Si4 0.586775 0.973749 0.874371
Si Si5 0.640740 0.359517 0.934458
O O1 0.000000 0.200192 0.750000
O O2 0.750000 0.250000 0.000000
O O3 0.517721 0.166162 0.056905
O O4 0.939755 0.170945 0.944849
O O5 0.500000 0.649889 0.250000
O O6 0.750669 0.578741 0.200133
O O7 0.575328 0.654646 0.374781
O O8 0.500000 0.500000 0.500000
O O9 0.259506 0.518302 0.747198
O O10 0.481717 0.590155 0.533342
O O11 0.805919 0.539343 0.462956
O O12 0.500000 0.000000 0.000000
O O13 0.000000 0.364647 0.750000
#
# Coordination Sequence:
#
# PCOD9277559 Si02
#       5
#     8   8   8   8   8
#     4  11  24  46  76 102 126 172 220 277 344 403
#     4  11  23  44  65  97 138 176 218 281 332 387
#     4  12  21  39  59  89 130 182 223 265 331 382
#     4  12  25  37  59  93 134 179 228 274 323 390
#     4  10  20  41  65  91 133 173 220 274 326 394
#
# _framework density 19.285333000000001
#
# number of rings (size 3 to 8) (size 9 to 14) (size 15 to 20)
#    0.000    0.800    6.000    4.200    2.800    0.000 
#    0.000    5.000    0.000    0.000    0.000    0.000 
#    0.000    0.000    0.000    0.000    0.000    0.000 
#
# Total GULP energy -111367.282500 kJ/mol
# GULP energy per Si atom -5568.364125 kJ/mol
# Density = 1.924144 g / cm^3
# Si number density = 19.285333 Si / 1000 Ang^3
#
#
#
# Elastic Constant Matrix: (Units=GPa)
#
#
# Indices 1 2 3 4 5 6 
#
# 1 156.2744 28.6310 47.6948 0.0000 32.9039 0.0000
# 2 28.6310 100.3813 27.8625 0.0000 22.9943 0.0000
# 3 47.6948 27.8625 119.1623 0.0000 55.9201 0.0000
# 4 0.0000 0.0000 0.0000 30.8934 0.0000 6.3414
# 5 32.9039 22.9943 55.9201 0.0000 50.7742 0.0000
# 6 0.0000 0.0000 0.0000 6.3414 0.0000 27.5705
#
#
#
# Elastic Compliance Matrix: (Units=1/GPa)
#
#
# Indices 1 2 3 4 5 6 
#
# 1 0.007650 -0.001126 -0.001472 0.000000 -0.002826 0.000000
# 2 -0.001126 0.011295 -0.000274 0.000000 -0.004084 0.000000
# 3 -0.001472 -0.000274 0.017674 0.000000 -0.018387 0.000000
# 4 0.000000 0.000000 0.000000 0.033973 0.000000 -0.007814
# 5 -0.002826 -0.004084 -0.018387 0.000000 0.043626 0.000000
# 6 0.000000 0.000000 0.000000 -0.007814 0.000000 0.038068
#
#
# Mechanical properties :
#
#
# Convention : Reuss Voigt Hill
#
# Bulk Modulus (GPa) = 32.39003 64.91052 48.65027
# Shear Modulus (GPa) = 29.70520 39.95627 34.83073
#
# Velocity S-wave (km/s) = 3.92892 4.55669 4.25440
# Velocity P-wave (km/s) = 6.11666 7.83681 7.02955
#
# Compressibility (1/GPa) = 0.03087370
#
# Stress axis : x y z
#
# Youngs Moduli (GPa) = 130.72532 88.53771 56.58104
#
# Poissons Ratio (x) = 0.09968 0.08332
# Poissons Ratio (y) = 0.14718 0.01549
# Poissons Ratio (z) = 0.19249 0.02424
#
# Static dielectric constant tensor:
#      x y z
#    x 1.613910 0.000000 -0.090430 
#    y 0.000000 1.674800 0.000000 
#    z -0.090430 0.000000 1.567090 
# 
# From -- ./inp_files/25367.got.cif
#   From: 2010.05.17/outbox.cif.g08.bks.cpg/sg15_13_cif.got.tgz:25367.got - 2010.06.03 18:47:42.
