data_PCOD9277858
_publ_section_title
;
Structure prediction by ZEFSAII (Michael W. Deem and Ramdas Pophale) SiO2 
 PCOD9277858
Probable space group: C 2/C
;
_chemical_formula_sum "Si O2"
_cell_formula_units_Z 44
_cell_length_a 11.293725
_cell_length_b 9.853946
_cell_length_c 14.748588
_cell_angle_alpha 90.000000
_cell_angle_beta 102.361031
_cell_angle_gamma 90.000000
_cell_volume 1603.287954
_symmetry_space_group_name_H-M "C 2/C"
_symmetry_group_IT_number 15
_symmetry_cell_setting 'monoclinic'
loop_
_space_group_symop_operation_xyz
x,y,z
-x,y,1/2-z
-x,-y,-z
x,-y,1/2+z
1/2+x,1/2+y,z
1/2-x,1/2+y,1/2-z
1/2-x,1/2-y,-z
1/2+x,1/2-y,1/2+z
loop_
_atom_site_type_symbol
_atom_site_label
_atom_site_fract_x
_atom_site_fract_y
_atom_site_fract_z
Si Si1 0.000000 0.275268 0.750000
Si Si2 0.134515 0.117617 0.437488
Si Si3 0.692902 0.193901 0.399462
Si Si4 0.123121 0.016017 0.135920
Si Si5 0.188007 0.517728 0.188205
Si Si6 0.547958 0.075736 0.918133
O O1 0.081246 0.217171 0.844947
O O2 0.108220 0.357362 0.716384
O O3 0.247197 0.067811 0.394089
O O4 0.015173 0.054013 0.371810
O O5 0.133015 0.063470 0.541431
O O6 0.385765 0.219557 0.563757
O O7 0.750000 0.250000 0.500000
O O8 0.811467 0.161995 0.362321
O O9 0.633676 0.043314 0.394768
O O10 0.205507 0.957615 0.230492
O O11 0.076474 0.414314 0.158476
O O12 0.500000 0.000000 0.000000
#
# Coordination Sequence:
#
# PCOD9277858 Si02
#       6
#     4   8   8   8   8   8
#     4   8  20  42  74 110 146 200 278 330 398 488
#     4  11  24  46  81 114 160 214 268 338 419 496
#     4  10  20  41  75 101 155 203 252 333 409 475
#     4  10  23  45  71 115 160 207 268 329 412 493
#     4  10  22  47  76 118 158 207 270 339 414 491
#     4  11  24  44  75 119 152 207 272 334 410 488
#
# _framework density 27.443605000000002
#
# number of rings (size 3 to 8) (size 9 to 14) (size 15 to 20)
#    0.000    1.818    0.000    2.727    0.000    2.909 
#   22.909    4.545   32.000    0.000    0.000    0.000 
#    0.000    0.000    0.000    0.000    0.000    0.000 
#
# Total GULP energy -122915.142334 kJ/mol
# GULP energy per Si atom -5587.051924 kJ/mol
# Density = 2.738114 g / cm^3
# Si number density = 27.443605 Si / 1000 Ang^3
#
#
#
# Elastic Constant Matrix: (Units=GPa)
#
#
# Indices 1 2 3 4 5 6 
#
# 1 197.7398 68.0808 65.2098 0.0000 18.6242 0.0000
# 2 68.0808 157.6739 42.4227 0.0000 15.3087 0.0000
# 3 65.2098 42.4227 148.5293 0.0000 50.7390 0.0000
# 4 0.0000 0.0000 0.0000 35.5701 0.0000 -20.9965
# 5 18.6242 15.3087 50.7390 0.0000 78.0791 0.0000
# 6 0.0000 0.0000 0.0000 -20.9965 0.0000 2.9334
#
#
#
# Elastic Compliance Matrix: (Units=1/GPa)
#
#
# Indices 1 2 3 4 5 6 
#
# 1 0.006577 -0.002237 -0.002394 0.000000 0.000425 0.000000
# 2 -0.002237 0.007632 -0.001117 0.000000 -0.000237 0.000000
# 3 -0.002394 -0.001117 0.010068 0.000000 -0.005752 0.000000
# 4 0.000000 0.000000 0.000000 -0.008717 0.000000 -0.062394
# 5 0.000425 -0.000237 -0.005752 0.000000 0.016491 0.000000
# 6 0.000000 0.000000 0.000000 -0.062394 0.000000 -0.105702
#
#
# Mechanical properties :
#
#
# Convention : Reuss Voigt Hill
#
# Bulk Modulus (GPa) = 78.24051 95.04109 86.64080
# Shear Modulus (GPa) = -86.36040 45.19848 -20.58096
#
# Velocity S-wave (km/s) = -5.61575 4.06268 -2.74147
# Velocity P-wave (km/s) = 3.67116 7.53085 4.64953
#
# Compressibility (1/GPa) = 0.01278110
#
# Stress axis : x y z
#
# Youngs Moduli (GPa) = 152.05257 131.03546 99.32774
#
# Poissons Ratio (x) = 0.29312 0.23777
# Poissons Ratio (y) = 0.34013 0.11091
# Poissons Ratio (z) = 0.36399 0.14632
#
# Static dielectric constant tensor:
#      x y z
#    x 2.266660 0.000000 -0.090380 
#    y 0.000000 2.311210 0.000000 
#    z -0.090380 0.000000 2.456530 
# 
# From -- ./inp_files/144778.got.cif
#   From: 2010.05.17/outbox.cif.g08.bks.cpg/sg15_73_cif.got.tgz:144778.got - 2010.06.03 18:47:42.
