data_PCOD9277887
_publ_section_title
;
Structure prediction by ZEFSAII (Michael W. Deem and Ramdas Pophale) SiO2 
 PCOD9277887
Probable space group: C 2/C
;
_chemical_formula_sum "Si O2"
_cell_formula_units_Z 36
_cell_length_a 16.330040
_cell_length_b 8.702846
_cell_length_c 11.517528
_cell_angle_alpha 90.000000
_cell_angle_beta 69.499870
_cell_angle_gamma 90.000000
_cell_volume 1533.186834
_symmetry_space_group_name_H-M "C 2/C"
_symmetry_group_IT_number 15
_symmetry_cell_setting 'monoclinic'
loop_
_space_group_symop_operation_xyz
x,y,z
-x,y,1/2-z
-x,-y,-z
x,-y,1/2+z
1/2+x,1/2+y,z
1/2-x,1/2+y,1/2-z
1/2-x,1/2-y,-z
1/2+x,1/2-y,1/2+z
loop_
_atom_site_type_symbol
_atom_site_label
_atom_site_fract_x
_atom_site_fract_y
_atom_site_fract_z
Si Si1 0.897646 0.984039 0.824954
Si Si2 0.656524 0.238358 0.293032
Si Si3 0.364350 0.843351 0.430087
Si Si4 0.276769 0.601634 0.062412
Si Si5 0.500000 0.949288 0.750000
O O1 0.871186 0.806308 0.846274
O O2 0.000000 0.993139 0.750000
O O3 0.850389 0.088015 0.750810
O O4 0.871160 0.057799 0.963895
O O5 0.645681 0.213493 0.433939
O O6 0.745516 0.160605 0.202781
O O7 0.575603 0.152041 0.270352
O O8 0.284650 0.956093 0.437616
O O9 0.451693 0.943012 0.367359
O O10 0.250000 0.750000 0.000000
#
# Coordination Sequence:
#
# PCOD9277887 Si02
#       5
#     8   8   8   8   4
#     4  11  22  42  64  99 138 169 221 280 328 398
#     4  10  22  41  65  92 131 179 219 270 334 396
#     4  11  22  40  66  95 131 177 222 269 339 399
#     4   9  22  42  65  93 134 172 225 279 323 395
#     4  10  20  42  60  96 128 164 224 284 324 392
#
# _framework density 23.480504
#
# number of rings (size 3 to 8) (size 9 to 14) (size 15 to 20)
#    0.000    1.778    2.222    1.333    0.000    4.444 
#    0.000    4.444    0.000    0.000    0.000    0.000 
#    0.000    0.000    0.000    0.000    0.000    0.000 
#
# Total GULP energy -100676.407292 kJ/mol
# GULP energy per Si atom -5593.133738 kJ/mol
# Density = 2.342706 g / cm^3
# Si number density = 23.480504 Si / 1000 Ang^3
#
#
#
# Elastic Constant Matrix: (Units=GPa)
#
#
# Indices 1 2 3 4 5 6 
#
# 1 81.4560 56.8047 69.2405 0.0000 -25.9698 0.0000
# 2 56.8047 194.4134 71.4623 0.0000 -5.2350 0.0000
# 3 69.2405 71.4623 163.4974 0.0000 -23.4694 0.0000
# 4 0.0000 0.0000 0.0000 42.9911 0.0000 -11.1799
# 5 -25.9698 -5.2350 -23.4694 0.0000 49.0595 0.0000
# 6 0.0000 0.0000 0.0000 -11.1799 0.0000 12.7405
#
#
#
# Elastic Compliance Matrix: (Units=1/GPa)
#
#
# Indices 1 2 3 4 5 6 
#
# 1 0.024048 -0.004185 -0.007078 0.000000 0.008898 0.000000
# 2 -0.004185 0.006877 -0.001553 0.000000 -0.002225 0.000000
# 3 -0.007078 -0.001553 0.009912 0.000000 0.000829 0.000000
# 4 0.000000 0.000000 0.000000 0.030138 0.000000 0.026446
# 5 0.008898 -0.002225 0.000829 0.000000 0.025253 0.000000
# 6 0.000000 0.000000 0.000000 0.026446 0.000000 0.101697
#
#
# Mechanical properties :
#
#
# Convention : Reuss Voigt Hill
#
# Bulk Modulus (GPa) = 65.76678 92.70909 79.23793
# Shear Modulus (GPa) = 21.86983 37.08218 29.47601
#
# Velocity S-wave (km/s) = 3.05520 3.97832 3.54692
# Velocity P-wave (km/s) = 6.36519 7.78921 7.11293
#
# Compressibility (1/GPa) = 0.01520524
#
# Stress axis : x y z
#
# Youngs Moduli (GPa) = 41.58281 145.40213 100.89275
#
# Poissons Ratio (x) = 0.60856 0.71410
# Poissons Ratio (y) = 0.17404 0.15668
# Poissons Ratio (z) = 0.29432 0.22579
#
# Static dielectric constant tensor:
#      x y z
#    x 1.871820 0.000000 -0.001650 
#    y 0.000000 1.887390 0.000000 
#    z -0.001650 0.000000 1.894510 
# 
# From -- ./inp_files/102608.got.cif
#   From: 2010.05.17/outbox.cif.g08.bks.cpg/sg15_52_cif.got.tgz:102608.got - 2010.06.03 18:47:42.
