data_PCOD9277645
_publ_section_title
;
Structure prediction by ZEFSAII (Michael W. Deem and Ramdas Pophale) SiO2 
 PCOD9277645
Probable space group: C 2/C
;
_chemical_formula_sum "Si O2"
_cell_formula_units_Z 44
_cell_length_a 6.909520
_cell_length_b 23.519629
_cell_length_c 15.962151
_cell_angle_alpha 90.000000
_cell_angle_beta 45.486303
_cell_angle_gamma 90.000000
_cell_volume 1849.736065
_symmetry_space_group_name_H-M "C 2/C"
_symmetry_group_IT_number 15
_symmetry_cell_setting 'monoclinic'
loop_
_space_group_symop_operation_xyz
x,y,z
-x,y,1/2-z
-x,-y,-z
x,-y,1/2+z
1/2+x,1/2+y,z
1/2-x,1/2+y,1/2-z
1/2-x,1/2-y,-z
1/2+x,1/2-y,1/2+z
loop_
_atom_site_type_symbol
_atom_site_label
_atom_site_fract_x
_atom_site_fract_y
_atom_site_fract_z
Si Si1 0.403257 0.661124 0.655688
Si Si2 0.480480 0.657795 0.071970
Si Si3 0.482191 0.873104 0.515421
Si Si4 0.000000 0.256716 0.750000
Si Si5 0.188867 0.555359 0.814432
Si Si6 0.742174 0.930579 0.765075
O O1 0.397899 0.658053 0.557691
O O2 0.361647 0.719691 0.717436
O O3 0.217370 0.610516 0.747430
O O4 0.718817 0.651219 0.585504
O O5 0.735305 0.665506 0.058306
O O6 0.247202 0.704744 0.143599
O O7 0.340739 0.599888 0.150746
O O8 0.491793 0.928491 0.451266
O O9 0.451441 0.890505 0.621007
O O10 0.500000 0.549427 0.750000
O O11 0.126662 0.494070 0.794661
O O12 0.000000 0.932396 0.750000
#
# Coordination Sequence:
#
# PCOD9277645 Si02
#       6
#     8   8   8   4   8   8
#     4  11  23  45  65  92 131 170 214 265 324 375
#     4  11  25  40  66  96 126 168 218 266 317 383
#     4  10  20  41  66  96 129 169 216 257 320 381
#     4  12  24  48  64  90 134 172 214 272 322 376
#     4   9  18  38  66  95 134 173 205 261 324 380
#     4   9  19  37  64  99 134 167 210 260 320 382
#
# _framework density 23.787178000000001
#
# number of rings (size 3 to 8) (size 9 to 14) (size 15 to 20)
#    0.000    1.818    2.727    2.182    0.000    3.636 
#    0.000    9.091    0.000    0.000    0.000    0.000 
#    0.000    0.000    0.000    0.000    0.000    0.000 
#
# Total GULP energy -122906.432555 kJ/mol
# GULP energy per Si atom -5586.656025 kJ/mol
# Density = 2.373304 g / cm^3
# Si number density = 23.787178 Si / 1000 Ang^3
#
#
#
# Elastic Constant Matrix: (Units=GPa)
#
#
# Indices 1 2 3 4 5 6 
#
# 1 102.4514 26.1762 30.2543 0.0000 27.9554 0.0000
# 2 26.1762 99.3601 29.2739 0.0000 19.4546 0.0000
# 3 30.2543 29.2739 101.3703 0.0001 23.8555 0.0000
# 4 0.0000 0.0000 0.0001 3.3919 0.0000 1.3952
# 5 27.9554 19.4546 23.8555 0.0000 37.7075 0.0000
# 6 0.0000 0.0000 0.0000 1.3952 0.0000 -8.4106
#
#
#
# Elastic Compliance Matrix: (Units=1/GPa)
#
#
# Indices 1 2 3 4 5 6 
#
# 1 0.012675 -0.001368 -0.001577 0.000000 -0.007693 0.000000
# 2 -0.001368 0.011777 -0.002117 0.000000 -0.003723 0.000000
# 3 -0.001577 -0.002117 0.012236 0.000000 -0.005480 0.000000
# 4 0.000000 0.000000 0.000000 0.275989 0.000000 0.045782
# 5 -0.007693 -0.003723 -0.005480 0.000000 0.037611 0.000000
# 6 0.000000 0.000000 0.000000 0.045782 0.000000 -0.111303
#
#
# Mechanical properties :
#
#
# Convention : Reuss Voigt Hill
#
# Bulk Modulus (GPa) = 37.64391 52.73229 45.18810
# Shear Modulus (GPa) = 19.38241 21.03627 20.20934
#
# Velocity S-wave (km/s) = 2.85761 2.97703 2.91793
# Velocity P-wave (km/s) = 5.17181 5.83382 5.51276
#
# Compressibility (1/GPa) = 0.02656472
#
# Stress axis : x y z
#
# Youngs Moduli (GPa) = 78.89320 84.90832 81.72326
#
# Poissons Ratio (x) = 0.11617 0.12891
# Poissons Ratio (y) = 0.10794 0.17298
# Poissons Ratio (z) = 0.12445 0.17972
#
# Static dielectric constant tensor:
#      x y z
#    x 1.953520 0.000000 0.004060 
#    y 0.000000 1.924020 0.000000 
#    z 0.004060 0.000000 1.899110 
# 
# From -- ./inp_files/193135.got.cif
#   From: 2010.05.17/outbox.cif.g08.bks.cpg/sg15_97_cif.got.tgz:193135.got - 2010.06.03 18:47:42.
