data_PCOD9277279
_publ_section_title
;
Structure prediction by ZEFSAII (Michael W. Deem and Ramdas Pophale) SiO2 
 PCOD9277279
Probable space group: C 2/C
;
_chemical_formula_sum "Si O2"
_cell_formula_units_Z 56
_cell_length_a 5.888284
_cell_length_b 16.989020
_cell_length_c 30.319410
_cell_angle_alpha 90.000000
_cell_angle_beta 66.151793
_cell_angle_gamma 90.000000
_cell_volume 2774.076459
_symmetry_space_group_name_H-M "C 2/C"
_symmetry_group_IT_number 15
_symmetry_cell_setting 'monoclinic'
loop_
_space_group_symop_operation_xyz
x,y,z
-x,y,1/2-z
-x,-y,-z
x,-y,1/2+z
1/2+x,1/2+y,z
1/2-x,1/2+y,1/2-z
1/2-x,1/2-y,-z
1/2+x,1/2-y,1/2+z
loop_
_atom_site_type_symbol
_atom_site_label
_atom_site_fract_x
_atom_site_fract_y
_atom_site_fract_z
Si Si1 0.462860 0.219721 0.175296
Si Si2 0.606199 0.821952 0.392225
Si Si3 0.500000 0.201314 0.750000
Si Si4 0.774182 0.832971 0.897755
Si Si5 0.992920 0.705401 0.502403
Si Si6 0.969307 0.429810 0.177920
Si Si7 0.500000 0.521377 0.250000
Si Si8 0.198328 0.922867 0.823756
O O1 0.630897 0.294574 0.148645
O O2 0.366628 0.184362 0.136618
O O3 0.622285 0.150977 0.184213
O O4 0.242558 0.246741 0.224034
O O5 0.430077 0.746826 0.395492
O O6 0.608202 0.832690 0.444565
O O7 0.516609 0.897642 0.372576
O O8 0.507672 0.145105 0.791878
O O9 0.963098 0.903275 0.872913
O O10 0.596558 0.845527 0.953463
O O11 0.750000 0.750000 0.500000
O O12 0.250000 0.750000 0.500000
O O13 0.706165 0.468529 0.210125
O O14 0.170922 0.495865 0.173448
O O15 0.379125 0.571355 0.220832
#
# Coordination Sequence:
#
# PCOD9277279 Si02
#       8
#     8   8   4   8   8   8   4   8
#     4  11  23  43  64  97 129 168 227 285 332 409
#     4  10  22  40  68 101 131 172 226 287 342 404
#     4  12  24  43  66  97 132 170 230 278 343 398
#     4  10  21  41  65 100 130 173 224 284 344 413
#     4  10  20  40  71 104 140 178 228 292 360 417
#     4  12  24  44  63  93 132 181 222 278 342 415
#     4  12  24  45  64  87 132 190 226 260 345 420
#     4  11  26  43  64  90 135 179 226 273 346 419
#
# _framework density 20.186899
#
# number of rings (size 3 to 8) (size 9 to 14) (size 15 to 20)
#    0.000    1.143    4.286    1.714    0.000    3.429 
#    2.571    0.714    0.000    3.429    0.000    0.000 
#    0.000    0.000    0.000    0.000    0.000    0.000 
#
# Total GULP energy -156462.339234 kJ/mol
# GULP energy per Si atom -5587.940687 kJ/mol
# Density = 2.014095 g / cm^3
# Si number density = 20.186899 Si / 1000 Ang^3
#
#
#
# Elastic Constant Matrix: (Units=GPa)
#
#
# Indices 1 2 3 4 5 6 
#
# 1 113.9579 35.5613 73.9620 0.0000 21.3109 0.0000
# 2 35.5613 80.6936 55.7382 0.0000 -0.0957 0.0000
# 3 73.9620 55.7382 179.9468 0.0000 27.4475 0.0000
# 4 0.0000 0.0000 0.0000 5.4376 0.0000 12.0861
# 5 21.3109 -0.0957 27.4475 0.0000 44.1430 0.0000
# 6 0.0000 0.0000 0.0000 12.0861 0.0000 10.4395
#
#
#
# Elastic Compliance Matrix: (Units=1/GPa)
#
#
# Indices 1 2 3 4 5 6 
#
# 1 0.012907 -0.003104 -0.003747 0.000000 -0.003908 0.000000
# 2 -0.003104 0.016986 -0.004662 0.000000 0.004434 0.000000
# 3 -0.003747 -0.004662 0.009133 0.000000 -0.003880 0.000000
# 4 0.000000 0.000000 0.000000 -0.116893 0.000000 0.135330
# 5 -0.003908 0.004434 -0.003880 0.000000 0.026962 0.000000
# 6 0.000000 0.000000 0.000000 0.135330 0.000000 -0.060886
#
#
# Mechanical properties :
#
#
# Convention : Reuss Voigt Hill
#
# Bulk Modulus (GPa) = 62.50310 78.34682 70.42496
# Shear Modulus (GPa) = -59.93022 25.95980 -16.98521
#
# Velocity S-wave (km/s) = -5.45455 3.58994 -2.90383
# Velocity P-wave (km/s) = 2.93940 7.48856 4.87024
#
# Compressibility (1/GPa) = 0.01599921
#
# Stress axis : x y z
#
# Youngs Moduli (GPa) = 77.47871 58.87243 109.48982
#
# Poissons Ratio (x) = 0.18275 0.41031
# Poissons Ratio (y) = 0.24050 0.51042
# Poissons Ratio (z) = 0.29035 0.27445
#
# Static dielectric constant tensor:
#      x y z
#    x 1.791290 0.000000 -0.017290 
#    y 0.000000 1.736180 0.000000 
#    z -0.017290 0.000000 1.713040 
# 
# From -- ./inp_files/305760.got.cif
#   From: 2010.05.17/outbox.cif.g08.bks.cpg/sg15_153_cif.got.tgz:305760.got - 2010.06.03 18:47:42.
