data_PCOD9277923
_publ_section_title
;
Structure prediction by ZEFSAII (Michael W. Deem and Ramdas Pophale) SiO2 
 PCOD9277923
Probable space group: C 2/C
;
_chemical_formula_sum "Si O2"
_cell_formula_units_Z 40
_cell_length_a 17.755966
_cell_length_b 11.508341
_cell_length_c 18.646846
_cell_angle_alpha 90.000000
_cell_angle_beta 31.154405
_cell_angle_gamma 90.000000
_cell_volume 1971.258784
_symmetry_space_group_name_H-M "C 2/C"
_symmetry_group_IT_number 15
_symmetry_cell_setting 'monoclinic'
loop_
_space_group_symop_operation_xyz
x,y,z
-x,y,1/2-z
-x,-y,-z
x,-y,1/2+z
1/2+x,1/2+y,z
1/2-x,1/2+y,1/2-z
1/2-x,1/2-y,-z
1/2+x,1/2-y,1/2+z
loop_
_atom_site_type_symbol
_atom_site_label
_atom_site_fract_x
_atom_site_fract_y
_atom_site_fract_z
Si Si1 0.837762 0.742559 0.102718
Si Si2 0.664518 0.731563 0.390640
Si Si3 0.081201 0.011175 0.009283
Si Si4 0.329258 0.337495 0.382681
Si Si5 0.127968 0.916131 0.690119
O O1 0.748298 0.719802 0.247920
O O2 0.765632 0.656051 0.104256
O O3 0.825435 0.871722 0.078142
O O4 0.004040 0.730307 0.994833
O O5 0.658176 0.614330 0.444821
O O6 0.754810 0.819879 0.365961
O O7 0.960966 0.032470 0.168720
O O8 0.000000 0.000000 0.000000
O O9 0.500000 0.309318 0.250000
O O10 0.250000 0.250000 0.500000
O O11 0.320863 0.476123 0.400958
O O12 0.000000 0.850944 0.750000
#
# Coordination Sequence:
#
# PCOD9277923 Si02
#       5
#     8   8   8   8   8
#     4  11  22  40  64  96 122 172 220 253 326 380
#     4  11  22  40  67  91 129 167 216 269 312 391
#     4  10  20  42  62  90 133 170 207 256 337 377
#     4  11  23  43  65  95 128 169 213 263 334 379
#     4  11  23  42  66  90 133 173 207 268 333 379
#
# _framework density 20.291602000000001
#
# number of rings (size 3 to 8) (size 9 to 14) (size 15 to 20)
#    0.000    1.200    4.000    6.000    0.000    1.600 
#    3.600    1.000    0.000    0.000    0.000    0.000 
#    0.000    0.000    0.000    0.000    0.000    0.000 
#
# Total GULP energy -111416.318626 kJ/mol
# GULP energy per Si atom -5570.815931 kJ/mol
# Density = 2.024542 g / cm^3
# Si number density = 20.291602 Si / 1000 Ang^3
#
#
#
# Elastic Constant Matrix: (Units=GPa)
#
#
# Indices 1 2 3 4 5 6 
#
# 1 132.0814 43.2901 33.2539 0.0000 -35.6806 0.0000
# 2 43.2901 106.0456 35.7631 0.0000 -21.3028 -0.0001
# 3 33.2539 35.7631 95.9212 0.0000 -21.4739 -0.0002
# 4 0.0000 0.0000 0.0000 27.2506 0.0000 -7.0677
# 5 -35.6806 -21.3028 -21.4739 0.0000 36.9926 0.0001
# 6 0.0000 -0.0001 -0.0002 -7.0677 0.0001 42.4719
#
#
#
# Elastic Compliance Matrix: (Units=1/GPa)
#
#
# Indices 1 2 3 4 5 6 
#
# 1 0.010924 -0.002408 -0.000966 0.000000 0.008589 0.000000
# 2 -0.002408 0.011996 -0.003001 0.000000 0.002843 0.000000
# 3 -0.000966 -0.003001 0.012969 0.000000 0.004868 0.000000
# 4 0.000000 0.000000 0.000000 0.038352 0.000000 0.006382
# 5 0.008589 0.002843 0.004868 0.000000 0.039780 0.000000
# 6 0.000000 0.000000 0.000000 0.006382 0.000000 0.024607
#
#
# Mechanical properties :
#
#
# Convention : Reuss Voigt Hill
#
# Bulk Modulus (GPa) = 43.22005 62.07361 52.64683
# Shear Modulus (GPa) = 31.42840 36.12575 33.77707
#
# Velocity S-wave (km/s) = 3.93980 4.22397 4.08436
# Velocity P-wave (km/s) = 6.48396 7.37878 6.94580
#
# Compressibility (1/GPa) = 0.02313741
#
# Stress axis : x y z
#
# Youngs Moduli (GPa) = 91.54308 83.35912 77.10656
#
# Poissons Ratio (x) = 0.20074 0.07452
# Poissons Ratio (y) = 0.22044 0.23142
# Poissons Ratio (z) = 0.08848 0.25019
#
# Static dielectric constant tensor:
#      x y z
#    x 1.635850 0.000000 0.432850 
#    y 0.000000 1.845430 0.000000 
#    z 0.432850 0.000000 0.525250 
# 
# From -- ./inp_files/46182.got.cif
#   From: 2010.05.17/outbox.cif.g08.bks.cpg/sg15_24_cif.got.tgz:46182.got - 2010.06.03 18:47:42.
