data_PCOD9277796
_publ_section_title
;
Structure prediction by ZEFSAII (Michael W. Deem and Ramdas Pophale) SiO2 
 PCOD9277796
Probable space group: C 2/C
;
_chemical_formula_sum "Si O2"
_cell_formula_units_Z 36
_cell_length_a 16.332559
_cell_length_b 7.378150
_cell_length_c 16.066920
_cell_angle_alpha 90.000000
_cell_angle_beta 135.153105
_cell_angle_gamma 90.000000
_cell_volume 1365.386885
_symmetry_space_group_name_H-M "C 2/C"
_symmetry_group_IT_number 15
_symmetry_cell_setting 'monoclinic'
loop_
_space_group_symop_operation_xyz
x,y,z
-x,y,1/2-z
-x,-y,-z
x,-y,1/2+z
1/2+x,1/2+y,z
1/2-x,1/2+y,1/2-z
1/2-x,1/2-y,-z
1/2+x,1/2-y,1/2+z
loop_
_atom_site_type_symbol
_atom_site_label
_atom_site_fract_x
_atom_site_fract_y
_atom_site_fract_z
Si Si1 0.408977 0.947914 0.612970
Si Si2 0.295257 0.522989 0.916763
Si Si3 0.298661 0.244186 0.273551
Si Si4 0.998429 0.959910 0.338787
Si Si5 0.000000 0.500000 0.000000
O O1 0.500000 0.007553 0.750000
O O2 0.284534 0.996486 0.561058
O O3 0.430815 0.730221 0.622845
O O4 0.427531 0.023665 0.535204
O O5 0.246363 0.674427 0.819454
O O6 0.288453 0.340074 0.855901
O O7 0.426959 0.560847 0.037874
O O8 0.372875 0.402437 0.281451
O O9 0.395078 0.099410 0.370351
O O10 0.000000 0.050649 0.250000
#
# Coordination Sequence:
#
# PCOD9277796 Si02
#       5
#     8   8   8   8   4
#     4  10  20  41  70 101 136 189 235 288 361 424
#     4  12  24  42  71 108 138 194 244 284 369 430
#     4  11  26  42  70 105 141 186 236 300 355 431
#     4  10  21  42  66 100 141 191 235 286 350 445
#     4  10  22  44  68  94 144 178 226 306 356 406
#
# _framework density 26.366154999999999
#
# number of rings (size 3 to 8) (size 9 to 14) (size 15 to 20)
#    0.000    1.333    6.667    1.333    6.222    0.889 
#    0.000    1.111    0.000    0.000    0.000    0.000 
#    0.000    0.000    0.000    0.000    0.000    0.000 
#
# Total GULP energy -100370.195188 kJ/mol
# GULP energy per Si atom -5576.121955 kJ/mol
# Density = 2.630614 g / cm^3
# Si number density = 26.366155 Si / 1000 Ang^3
#
#
#
# Elastic Constant Matrix: (Units=GPa)
#
#
# Indices 1 2 3 4 5 6 
#
# 1 130.3785 10.1321 28.8973 0.0000 -43.7834 0.0000
# 2 10.1321 65.1351 19.3907 0.0000 -5.5665 0.0000
# 3 28.8973 19.3907 152.8295 0.0000 -27.5921 0.0000
# 4 0.0000 0.0000 0.0000 26.4565 0.0000 -9.8930
# 5 -43.7834 -5.5665 -27.5921 0.0000 52.4287 0.0000
# 6 0.0000 0.0000 0.0000 -9.8930 0.0000 1.2236
#
#
#
# Elastic Compliance Matrix: (Units=1/GPa)
#
#
# Indices 1 2 3 4 5 6 
#
# 1 0.010730 -0.000821 -0.000357 0.000000 0.008685 0.000000
# 2 -0.000821 0.016041 -0.001874 0.000000 0.000031 0.000000
# 3 -0.000357 -0.001874 0.007468 0.000000 0.003434 0.000000
# 4 0.000000 0.000000 0.000000 -0.018680 0.000000 -0.151037
# 5 0.008685 0.000031 0.003434 0.000000 0.028137 0.000000
# 6 0.000000 0.000000 0.000000 -0.151037 0.000000 -0.403912
#
#
# Mechanical properties :
#
#
# Convention : Reuss Voigt Hill
#
# Bulk Modulus (GPa) = 35.54192 51.68702 43.61447
# Shear Modulus (GPa) = -14.50391 35.34995 10.42302
#
# Velocity S-wave (km/s) = -2.34796 3.66557 1.99042
# Velocity P-wave (km/s) = 2.48171 6.12873 4.67548
#
# Compressibility (1/GPa) = 0.02813579
#
# Stress axis : x y z
#
# Youngs Moduli (GPa) = 93.20093 62.34004 133.89741
#
# Poissons Ratio (x) = 0.05116 0.04774
# Poissons Ratio (y) = 0.07648 0.25098
# Poissons Ratio (z) = 0.03323 0.11685
#
# Static dielectric constant tensor:
#      x y z
#    x 2.023840 0.000000 0.031830 
#    y 0.000000 2.174310 0.000000 
#    z 0.031830 0.000000 2.010320 
# 
# From -- ./inp_files/159555.got.cif
#   From: 2010.05.17/outbox.cif.g08.bks.cpg/sg15_80_cif.got.tgz:159555.got - 2010.06.03 18:47:42.
