data_PCOD9277219
_publ_section_title
;
Structure prediction by ZEFSAII (Michael W. Deem and Ramdas Pophale) SiO2 
 PCOD9277219
Probable space group: C 2/C
;
_chemical_formula_sum "Si O2"
_cell_formula_units_Z 28
_cell_length_a 22.746807
_cell_length_b 7.421480
_cell_length_c 9.174013
_cell_angle_alpha 90.000000
_cell_angle_beta 42.582905
_cell_angle_gamma 90.000000
_cell_volume 1047.944915
_symmetry_space_group_name_H-M "C 2/C"
_symmetry_group_IT_number 15
_symmetry_cell_setting 'monoclinic'
loop_
_space_group_symop_operation_xyz
x,y,z
-x,y,1/2-z
-x,-y,-z
x,-y,1/2+z
1/2+x,1/2+y,z
1/2-x,1/2+y,1/2-z
1/2-x,1/2-y,-z
1/2+x,1/2-y,1/2+z
loop_
_atom_site_type_symbol
_atom_site_label
_atom_site_fract_x
_atom_site_fract_y
_atom_site_fract_z
Si Si1 0.500000 0.500000 0.000000
Si Si2 0.913998 0.625053 0.834095
Si Si3 0.612450 0.493975 0.086103
Si Si4 0.298188 0.094046 0.323109
O O1 0.421098 0.525851 0.013308
O O2 0.566953 0.642136 0.780313
O O3 0.938328 0.832310 0.740820
O O4 0.862409 0.524948 0.803620
O O5 0.000000 0.544702 0.750000
O O6 0.849351 0.653508 0.086714
O O7 0.713924 0.515453 0.919668
O O8 0.250000 0.250000 0.500000
#
# Coordination Sequence:
#
# PCOD9277219 Si02
#       4
#     4   8   8   8
#     4  10  20  40  70 102 128 178 232 288 340 408
#     4  12  25  48  70 105 143 186 240 290 356 416
#     4  11  23  44  73  99 140 182 238 283 351 418
#     4  12  27  46  71 107 143 188 233 294 356 420
#
# _framework density 26.718959000000002
#
# number of rings (size 3 to 8) (size 9 to 14) (size 15 to 20)
#    0.000    0.571    2.857    6.857    0.000    2.286 
#   10.286    0.000    0.000    0.000    0.000    0.000 
#    0.000    0.000    0.000    0.000    0.000    0.000 
#
# Total GULP energy -78047.799549 kJ/mol
# GULP energy per Si atom -5574.842825 kJ/mol
# Density = 2.665815 g / cm^3
# Si number density = 26.718959 Si / 1000 Ang^3
#
#
#
# Elastic Constant Matrix: (Units=GPa)
#
#
# Indices 1 2 3 4 5 6 
#
# 1 295.6320 66.1963 87.3614 0.0000 -7.9284 0.0000
# 2 66.1963 88.2255 18.4373 0.0000 -0.1533 0.0000
# 3 87.3614 18.4373 156.6997 0.0000 12.2784 0.0000
# 4 0.0000 0.0000 0.0000 28.9213 0.0000 2.3768
# 5 -7.9284 -0.1533 12.2784 0.0000 81.1313 0.0000
# 6 0.0000 0.0000 0.0000 2.3768 0.0000 53.5329
#
#
#
# Elastic Compliance Matrix: (Units=1/GPa)
#
#
# Indices 1 2 3 4 5 6 
#
# 1 0.004802 -0.003105 -0.002376 0.000000 0.000823 0.000000
# 2 -0.003105 0.013632 0.000151 0.000000 -0.000300 0.000000
# 3 -0.002376 0.000151 0.007799 0.000000 -0.001412 0.000000
# 4 0.000000 0.000000 0.000000 0.034703 0.000000 -0.001541
# 5 0.000823 -0.000300 -0.001412 0.000000 0.012619 0.000000
# 6 0.000000 0.000000 0.000000 -0.001541 0.000000 0.018749
#
#
# Mechanical properties :
#
#
# Convention : Reuss Voigt Hill
#
# Bulk Modulus (GPa) = 64.21642 98.28301 81.24972
# Shear Modulus (GPa) = 46.22896 57.28791 51.75844
#
# Velocity S-wave (km/s) = 4.16407 4.63546 4.40607
# Velocity P-wave (km/s) = 6.87063 8.09406 7.50731
#
# Compressibility (1/GPa) = 0.01557234
#
# Stress axis : x y z
#
# Youngs Moduli (GPa) = 208.23929 73.35501 128.21447
#
# Poissons Ratio (x) = 0.22777 0.30469
# Poissons Ratio (y) = 0.64659 -0.01932
# Poissons Ratio (z) = 0.49486 -0.01105
#
# Static dielectric constant tensor:
#      x y z
#    x 1.989050 0.000000 -0.018640 
#    y 0.000000 2.745950 0.000000 
#    z -0.018640 0.000000 2.424360 
# 
# From -- ./inp_files/53574.got.cif
#   From: 2010.05.17/outbox.cif.g08.bks.cpg/sg15_27_cif.got.tgz:53574.got - 2010.06.03 18:47:42.
