data_PCOD9277144
_publ_section_title
;
Structure prediction by ZEFSAII (Michael W. Deem and Ramdas Pophale) SiO2 
 PCOD9277144
Probable space group: C 2/C
;
_chemical_formula_sum "Si O2"
_cell_formula_units_Z 40
_cell_length_a 14.490936
_cell_length_b 12.173618
_cell_length_c 8.284829
_cell_angle_alpha 90.000000
_cell_angle_beta 92.887228
_cell_angle_gamma 90.000000
_cell_volume 1459.647601
_symmetry_space_group_name_H-M "C 2/C"
_symmetry_group_IT_number 15
_symmetry_cell_setting 'monoclinic'
loop_
_space_group_symop_operation_xyz
x,y,z
-x,y,1/2-z
-x,-y,-z
x,-y,1/2+z
1/2+x,1/2+y,z
1/2-x,1/2+y,1/2-z
1/2-x,1/2-y,-z
1/2+x,1/2-y,1/2+z
loop_
_atom_site_type_symbol
_atom_site_label
_atom_site_fract_x
_atom_site_fract_y
_atom_site_fract_z
Si Si1 0.337252 0.150080 0.638301
Si Si2 0.410365 0.448596 0.134752
Si Si3 0.542401 0.325564 0.924811
Si Si4 0.304235 0.245860 0.174648
Si Si5 0.601482 0.058447 0.502587
O O1 0.406602 0.215903 0.523171
O O2 0.271432 0.252326 0.689474
O O3 0.324046 0.036082 0.541137
O O4 0.377809 0.107010 0.816473
O O5 0.500000 0.470117 0.250000
O O6 0.390458 0.568575 0.069320
O O7 0.339021 0.370742 0.212681
O O8 0.452238 0.366473 0.008179
O O9 0.500000 0.297546 0.750000
O O10 0.379725 0.152144 0.135779
O O11 0.250000 0.250000 0.000000
O O12 0.500000 0.000000 0.500000
#
# Coordination Sequence:
#
# PCOD9277144 Si02
#       5
#     8   8   8   8   8
#     4  11  24  42  67  96 136 180 226 284 341 404
#     4  10  22  40  67 100 130 172 230 283 331 415
#     4  10  20  40  68  95 131 179 220 274 348 414
#     4  10  23  42  66  95 139 180 220 279 351 407
#     4  11  23  42  69  99 134 184 231 276 343 421
#
# _framework density 27.403877000000001
#
# number of rings (size 3 to 8) (size 9 to 14) (size 15 to 20)
#    0.000    1.600    0.000    5.400    2.800    3.200 
#    7.200    2.000    0.000    0.000    0.000    0.000 
#    0.000    0.000    0.000    0.000    0.000    0.000 
#
# Total GULP energy -111473.092564 kJ/mol
# GULP energy per Si atom -5573.654628 kJ/mol
# Density = 2.734150 g / cm^3
# Si number density = 27.403877 Si / 1000 Ang^3
#
#
#
# Elastic Constant Matrix: (Units=GPa)
#
#
# Indices 1 2 3 4 5 6 
#
# 1 83.5407 34.3795 13.4911 0.0000 -5.7930 0.0000
# 2 34.3795 190.3798 22.9176 0.0000 -17.2637 0.0000
# 3 13.4911 22.9176 92.3011 0.0000 -8.0074 0.0000
# 4 0.0000 0.0000 0.0000 44.5282 0.0000 -33.9314
# 5 -5.7930 -17.2637 -8.0074 0.0000 36.2994 0.0000
# 6 0.0000 0.0000 0.0000 -33.9314 0.0000 42.0603
#
#
#
# Elastic Compliance Matrix: (Units=1/GPa)
#
#
# Indices 1 2 3 4 5 6 
#
# 1 0.013118 -0.002139 -0.001318 0.000000 0.000785 0.000000
# 2 -0.002139 0.005962 -0.000970 0.000000 0.002280 0.000000
# 3 -0.001318 -0.000970 0.011428 0.000000 0.001849 0.000000
# 4 0.000000 0.000000 0.000000 0.058294 0.000000 0.047027
# 5 0.000785 0.002280 0.001849 0.000000 0.029167 0.000000
# 6 0.000000 0.000000 0.000000 0.047027 0.000000 0.061714
#
#
# Mechanical properties :
#
#
# Convention : Reuss Voigt Hill
#
# Bulk Modulus (GPa) = 46.18045 56.42202 51.30123
# Shear Modulus (GPa) = 25.54220 44.27313 34.90766
#
# Velocity S-wave (km/s) = 3.05629 4.02379 3.57294
# Velocity P-wave (km/s) = 5.41691 6.49781 5.98183
#
# Compressibility (1/GPa) = 0.02165419
#
# Stress axis : x y z
#
# Youngs Moduli (GPa) = 76.23233 167.71581 87.50410
#
# Poissons Ratio (x) = 0.35874 0.11534
# Poissons Ratio (y) = 0.16306 0.08488
# Poissons Ratio (z) = 0.10048 0.16268
#
# Static dielectric constant tensor:
#      x y z
#    x 2.135560 0.000000 0.213000 
#    y 0.000000 2.261050 0.000000 
#    z 0.213000 0.000000 1.964120 
# 
# From -- ./inp_files/46073.got.cif
#   From: 2010.05.17/outbox.cif.g08.bks.cpg/sg15_24_cif.got.tgz:46073.got - 2010.06.03 18:47:42.
