data_PCOD9277760
_publ_section_title
;
Structure prediction by ZEFSAII (Michael W. Deem and Ramdas Pophale) SiO2 
 PCOD9277760
Probable space group: C 2/C
;
_chemical_formula_sum "Si O2"
_cell_formula_units_Z 56
_cell_length_a 20.456142
_cell_length_b 19.286293
_cell_length_c 15.664583
_cell_angle_alpha 90.000000
_cell_angle_beta 24.742515
_cell_angle_gamma 90.000000
_cell_volume 2586.600967
_symmetry_space_group_name_H-M "C 2/C"
_symmetry_group_IT_number 15
_symmetry_cell_setting 'monoclinic'
loop_
_space_group_symop_operation_xyz
x,y,z
-x,y,1/2-z
-x,-y,-z
x,-y,1/2+z
1/2+x,1/2+y,z
1/2-x,1/2+y,1/2-z
1/2-x,1/2-y,-z
1/2+x,1/2-y,1/2+z
loop_
_atom_site_type_symbol
_atom_site_label
_atom_site_fract_x
_atom_site_fract_y
_atom_site_fract_z
Si Si1 0.000000 0.832220 0.250000
Si Si2 0.787166 0.340522 0.642612
Si Si3 0.292366 0.003439 0.675989
Si Si4 0.140264 0.485638 0.214081
Si Si5 0.701783 0.422099 0.116712
Si Si6 0.838134 0.706376 0.517489
Si Si7 0.000000 0.374699 0.250000
Si Si8 0.983084 0.251895 0.536196
O O1 0.046651 0.881805 0.271782
O O2 0.864194 0.778651 0.437037
O O3 0.766982 0.420581 0.695243
O O4 0.628892 0.296505 0.839238
O O5 0.857705 0.336419 0.464176
O O6 0.922523 0.306422 0.539575
O O7 0.474174 0.020318 0.437040
O O8 0.273335 0.025641 0.797466
O O9 0.195083 0.039979 0.715817
O O10 0.079377 0.420937 0.230285
O O11 0.244756 0.528635 0.023859
O O12 0.831281 0.361714 0.969925
O O13 0.967166 0.707985 0.437378
O O14 0.670195 0.707546 0.761669
#
# Coordination Sequence:
#
# PCOD9277760 Si02
#       8
#     4   8   8   8   8   8   4   8
#     4  12  28  41  64 101 146 184 220 296 330 428
#     4  10  22  43  69 101 136 177 232 292 344 411
#     4  10  23  39  70 101 137 175 229 287 337 417
#     4  10  21  38  66 103 131 182 218 284 340 411
#     4  12  24  42  68 101 135 184 231 277 357 401
#     4  11  25  42  64 105 138 181 228 275 349 426
#     4  10  20  41  68  99 136 168 244 280 338 402
#     4  10  24  42  66  94 140 182 223 285 350 417
#
# _framework density 21.650033000000001
#
# number of rings (size 3 to 8) (size 9 to 14) (size 15 to 20)
#    0.000    1.429    4.286    0.429   12.000    0.571 
#    0.000    2.857    0.000    0.000    0.000    0.000 
#    0.000    0.000    0.000    0.000    0.000    0.000 
#
# Total GULP energy -156340.331614 kJ/mol
# GULP energy per Si atom -5583.583272 kJ/mol
# Density = 2.160076 g / cm^3
# Si number density = 21.650033 Si / 1000 Ang^3
#
#
#
# Elastic Constant Matrix: (Units=GPa)
#
#
# Indices 1 2 3 4 5 6 
#
# 1 169.5151 63.3279 29.0976 0.0040 13.2385 0.0028
# 2 63.3279 99.9770 29.8680 0.0042 -3.7978 -0.0012
# 3 29.0976 29.8680 69.1874 0.0071 10.4918 0.0017
# 4 0.0040 0.0042 0.0071 19.7144 -0.0037 1.2470
# 5 13.2385 -3.7978 10.4918 -0.0037 30.8647 -0.0031
# 6 0.0028 -0.0012 0.0017 1.2470 -0.0031 23.7126
#
#
#
# Elastic Compliance Matrix: (Units=1/GPa)
#
#
# Indices 1 2 3 4 5 6 
#
# 1 0.008257 -0.005193 -0.000629 -0.000001 -0.003967 -0.000002
# 2 -0.005193 0.015070 -0.005209 0.000001 0.005852 0.000002
# 3 -0.000629 -0.005209 0.017949 -0.000006 -0.006472 -0.000002
# 4 -0.000001 0.000001 -0.000006 0.050894 0.000008 -0.002676
# 5 -0.003967 0.005852 -0.006472 0.000008 0.037021 0.000006
# 6 -0.000002 0.000002 -0.000002 -0.002676 0.000006 0.042312
#
#
# Mechanical properties :
#
#
# Convention : Reuss Voigt Hill
#
# Bulk Modulus (GPa) = 52.04901 64.80740 58.42821
# Shear Modulus (GPa) = 25.00377 29.28407 27.14392
#
# Velocity S-wave (km/s) = 3.40208 3.68178 3.54469
# Velocity P-wave (km/s) = 6.28693 6.93347 6.61810
#
# Compressibility (1/GPa) = 0.01921266
#
# Stress axis : x y z
#
# Youngs Moduli (GPa) = 121.11053 66.35631 55.71490
#
# Poissons Ratio (x) = 0.34458 0.03506
# Poissons Ratio (y) = 0.62890 0.29024
# Poissons Ratio (z) = 0.07622 0.34567
#
# Static dielectric constant tensor:
#      x y z
#    x 1.828000 0.000000 0.029290 
#    y 0.000000 1.821310 0.000000 
#    z 0.029290 0.000000 1.846730 
# 
# From -- ./inp_files/163793.got.cif
#   From: 2010.05.17/outbox.cif.g08.bks.cpg/sg15_82_cif.got.tgz:163793.got - 2010.06.03 18:47:42.
