data_PCOD9277935
_publ_section_title
;
Structure prediction by ZEFSAII (Michael W. Deem and Ramdas Pophale) SiO2 
 PCOD9277935
Probable space group: C 2/C
;
_chemical_formula_sum "Si O2"
_cell_formula_units_Z 52
_cell_length_a 11.507069
_cell_length_b 8.500175
_cell_length_c 24.980093
_cell_angle_alpha 90.000000
_cell_angle_beta 95.368892
_cell_angle_gamma 90.000000
_cell_volume 2432.636147
_symmetry_space_group_name_H-M "C 2/C"
_symmetry_group_IT_number 15
_symmetry_cell_setting 'monoclinic'
loop_
_space_group_symop_operation_xyz
x,y,z
-x,y,1/2-z
-x,-y,-z
x,-y,1/2+z
1/2+x,1/2+y,z
1/2-x,1/2+y,1/2-z
1/2-x,1/2-y,-z
1/2+x,1/2-y,1/2+z
loop_
_atom_site_type_symbol
_atom_site_label
_atom_site_fract_x
_atom_site_fract_y
_atom_site_fract_z
Si Si1 0.156424 0.394517 0.004194
Si Si2 0.000000 0.580940 0.750000
Si Si3 0.930897 0.325818 0.939241
Si Si4 0.232778 0.591887 0.906273
Si Si5 0.287008 0.741105 0.198877
Si Si6 0.130908 0.076718 0.763739
Si Si7 0.907801 0.354565 0.657187
O O1 0.175603 0.524459 0.957886
O O2 0.028102 0.320616 0.990181
O O3 0.250000 0.250000 0.000000
O O4 0.144453 0.512533 0.054904
O O5 0.114040 0.687664 0.758146
O O6 0.019238 0.469779 0.801465
O O7 0.850939 0.172415 0.931263
O O8 0.009873 0.327849 0.889731
O O9 0.184748 0.724696 0.862231
O O10 0.211698 0.440028 0.867297
O O11 0.172234 0.834973 0.211829
O O12 0.283038 0.560524 0.214391
O O13 0.124062 0.203648 0.810344
O O14 0.000000 0.015036 0.750000
#
# Coordination Sequence:
#
# PCOD9277935 Si02
#       7
#     8   4   8   8   8   8   8
#     4  10  23  45  69  96 127 168 217 273 342 407
#     4  10  20  42  62  94 134 176 216 270 326 388
#     4  10  22  43  67  94 129 168 208 277 334 388
#     4  10  22  40  64  97 126 167 215 270 329 392
#     4  11  24  41  65  95 135 176 223 277 328 395
#     4  12  24  42  63  93 132 182 228 271 328 391
#     4  10  22  40  64  93 135 170 220 269 320 390
#
# _framework density 21.375988
#
# number of rings (size 3 to 8) (size 9 to 14) (size 15 to 20)
#    0.000    1.538    1.538    3.231    2.154    3.077 
#    2.769    6.154    0.000    0.000    0.000    0.000 
#    0.000    0.000    0.000    0.000    0.000    0.000 
#
# Total GULP energy -144761.674752 kJ/mol
# GULP energy per Si atom -5567.756721 kJ/mol
# Density = 2.132734 g / cm^3
# Si number density = 21.375988 Si / 1000 Ang^3
#
#
#
# Elastic Constant Matrix: (Units=GPa)
#
#
# Indices 1 2 3 4 5 6 
#
# 1 96.9725 47.7266 13.4032 0.0000 2.5152 0.0000
# 2 47.7266 100.8547 33.9414 0.0000 -7.6723 0.0000
# 3 13.4032 33.9414 68.0132 0.0000 -9.8998 0.0000
# 4 0.0000 0.0000 0.0000 -94.9068 0.0000 33.3273
# 5 2.5152 -7.6723 -9.8998 0.0000 25.9271 0.0000
# 6 0.0000 0.0000 0.0000 33.3273 0.0000 27.5500
#
#
#
# Elastic Compliance Matrix: (Units=1/GPa)
#
#
# Indices 1 2 3 4 5 6 
#
# 1 0.013721 -0.006816 0.000223 0.000000 -0.003263 0.000000
# 2 -0.006816 0.015346 -0.005885 0.000000 0.002955 0.000000
# 3 0.000223 -0.005885 0.018360 0.000000 0.005247 0.000000
# 4 0.000000 0.000000 0.000000 -0.007395 0.000000 0.008946
# 5 -0.003263 0.002955 0.005247 0.000000 0.041764 0.000000
# 6 0.000000 0.000000 0.000000 0.008946 0.000000 0.025476
#
#
# Mechanical properties :
#
#
# Convention : Reuss Voigt Hill
#
# Bulk Modulus (GPa) = 44.50417 50.66476 47.58446
# Shear Modulus (GPa) = 35.78632 3.09867 19.44249
#
# Velocity S-wave (km/s) = 4.09606 1.20530 3.01914
# Velocity P-wave (km/s) = 6.57535 5.06855 5.87049
#
# Compressibility (1/GPa) = 0.02246981
#
# Stress axis : x y z
#
# Youngs Moduli (GPa) = 72.88251 65.16314 54.46697
#
# Poissons Ratio (x) = 0.44416 -0.01213
# Poissons Ratio (y) = 0.49677 0.32053
# Poissons Ratio (z) = -0.01623 0.38348
#
# Static dielectric constant tensor:
#      x y z
#    x 1.829260 0.000000 0.008010 
#    y 0.000000 1.786700 0.000000 
#    z 0.008010 0.000000 1.813330 
# 
# From -- ./inp_files/291205.got.cif
#   From: 2010.05.17/outbox.cif.g08.bks.cpg/sg15_146_cif.got.tgz:291205.got - 2010.06.03 18:47:42.
