data_PCOD9277954
_publ_section_title
;
Structure prediction by ZEFSAII (Michael W. Deem and Ramdas Pophale) SiO2 
 PCOD9277954
Probable space group: C 2/C
;
_chemical_formula_sum "Si O2"
_cell_formula_units_Z 56
_cell_length_a 14.334167
_cell_length_b 5.148105
_cell_length_c 29.556616
_cell_angle_alpha 90.000000
_cell_angle_beta 92.592204
_cell_angle_gamma 90.000000
_cell_volume 2178.863073
_symmetry_space_group_name_H-M "C 2/C"
_symmetry_group_IT_number 15
_symmetry_cell_setting 'monoclinic'
loop_
_space_group_symop_operation_xyz
x,y,z
-x,y,1/2-z
-x,-y,-z
x,-y,1/2+z
1/2+x,1/2+y,z
1/2-x,1/2+y,1/2-z
1/2-x,1/2-y,-z
1/2+x,1/2-y,1/2+z
loop_
_atom_site_type_symbol
_atom_site_label
_atom_site_fract_x
_atom_site_fract_y
_atom_site_fract_z
Si Si1 0.200084 0.279094 0.266962
Si Si2 0.096353 0.415439 0.478854
Si Si3 0.825674 0.464564 0.924680
Si Si4 0.184864 0.892347 0.154190
Si Si5 0.882069 0.909942 0.080101
Si Si6 0.468590 0.251448 0.868607
Si Si7 0.953917 0.447989 0.788742
O O1 0.269508 0.484844 0.242746
O O2 0.216801 0.359510 0.319597
O O3 0.099710 0.347852 0.244944
O O4 0.170281 0.448582 0.521294
O O5 0.103822 0.123719 0.459892
O O6 0.000000 0.500000 0.500000
O O7 0.108047 0.620286 0.438540
O O8 0.823730 0.191008 0.898162
O O9 0.725809 0.577755 0.906950
O O10 0.920495 0.605678 0.909905
O O11 0.121566 0.705430 0.183584
O O12 0.128485 0.155632 0.156552
O O13 0.961498 0.016655 0.116159
O O14 0.512514 0.072367 0.831010
O O15 0.000000 0.276460 0.750000
#
# Coordination Sequence:
#
# PCOD9277954 Si02
#       7
#     8   8   8   8   8   8   8
#     4  10  20  42  63  90 125 173 222 272 344 406
#     4  12  25  49  74 104 147 190 231 292 356 425
#     4  11  26  44  72 103 141 187 237 293 351 428
#     4  10  23  43  66  96 137 183 227 297 348 417
#     4  12  28  45  74 108 142 190 239 288 357 428
#     4  11  24  46  68 103 144 182 237 302 358 417
#     4  10  23  42  65  97 134 180 232 291 354 427
#
# _framework density 25.701478999999999
#
# number of rings (size 3 to 8) (size 9 to 14) (size 15 to 20)
#    0.000    1.143    2.857    2.143    8.000    0.571 
#    2.571    0.000    0.000    0.000    0.000    0.000 
#    0.000    0.000    0.000    0.000    0.000    0.000 
#
# Total GULP energy -156310.395493 kJ/mol
# GULP energy per Si atom -5582.514125 kJ/mol
# Density = 2.564298 g / cm^3
# Si number density = 25.701479 Si / 1000 Ang^3
#
#
#
# Elastic Constant Matrix: (Units=GPa)
#
#
# Indices 1 2 3 4 5 6 
#
# 1 127.1298 5.6640 22.0289 0.0000 0.9031 0.0000
# 2 5.6640 47.7293 12.1922 0.0000 2.4930 0.0000
# 3 22.0289 12.1922 98.6759 0.0000 24.6204 0.0000
# 4 0.0000 0.0000 0.0000 28.3714 0.0000 10.1598
# 5 0.9031 2.4930 24.6204 0.0000 39.5072 0.0000
# 6 0.0000 0.0000 0.0000 10.1598 0.0000 22.8832
#
#
#
# Elastic Compliance Matrix: (Units=1/GPa)
#
#
# Indices 1 2 3 4 5 6 
#
# 1 0.008237 -0.000511 -0.002057 0.000000 0.001126 0.000000
# 2 -0.000511 0.021670 -0.002635 0.000000 0.000286 0.000000
# 3 -0.002057 -0.002635 0.012866 0.000000 -0.007805 0.000000
# 4 0.000000 0.000000 0.000000 0.041910 0.000000 -0.018607
# 5 0.001126 0.000286 -0.007805 0.000000 0.030132 0.000000
# 6 0.000000 0.000000 0.000000 -0.018607 0.000000 0.051962
#
#
# Mechanical properties :
#
#
# Convention : Reuss Voigt Hill
#
# Bulk Modulus (GPa) = 30.89402 39.25612 35.07507
# Shear Modulus (GPa) = 26.59977 33.72902 30.16440
#
# Velocity S-wave (km/s) = 3.22056 3.62655 3.42957
# Velocity P-wave (km/s) = 5.08682 5.73087 5.41842
#
# Compressibility (1/GPa) = 0.03236873
#
# Stress axis : x y z
#
# Youngs Moduli (GPa) = 121.40179 46.14626 77.72281
#
# Poissons Ratio (x) = 0.02358 0.15985
# Poissons Ratio (y) = 0.06203 0.20479
# Poissons Ratio (z) = 0.24968 0.12159
#
# Static dielectric constant tensor:
#      x y z
#    x 2.127020 0.000000 -0.004320 
#    y 0.000000 2.049860 0.000000 
#    z -0.004320 0.000000 2.160020 
# 
# From -- ./inp_files/312341.got.cif
#   From: 2010.05.17/outbox.cif.g08.bks.cpg/sg15_157_cif.got.tgz:312341.got - 2010.06.03 18:47:42.
