data_PCOD9277802
_publ_section_title
;
Structure prediction by ZEFSAII (Michael W. Deem and Ramdas Pophale) SiO2 
 PCOD9277802
Probable space group: C 2/C
;
_chemical_formula_sum "Si O2"
_cell_formula_units_Z 44
_cell_length_a 23.888057
_cell_length_b 14.164339
_cell_length_c 10.455485
_cell_angle_alpha 90.000000
_cell_angle_beta 33.501836
_cell_angle_gamma 90.000000
_cell_volume 1952.683446
_symmetry_space_group_name_H-M "C 2/C"
_symmetry_group_IT_number 15
_symmetry_cell_setting 'monoclinic'
loop_
_space_group_symop_operation_xyz
x,y,z
-x,y,1/2-z
-x,-y,-z
x,-y,1/2+z
1/2+x,1/2+y,z
1/2-x,1/2+y,1/2-z
1/2-x,1/2-y,-z
1/2+x,1/2-y,1/2+z
loop_
_atom_site_type_symbol
_atom_site_label
_atom_site_fract_x
_atom_site_fract_y
_atom_site_fract_z
Si Si1 0.445727 0.599704 0.106949
Si Si2 0.740592 0.853215 0.082279
Si Si3 0.298289 0.735918 0.717339
Si Si4 0.396090 0.721546 0.798267
Si Si5 0.486735 0.083073 0.424213
Si Si6 0.500000 0.729573 0.250000
O O1 0.324227 0.588150 0.343437
O O2 0.474857 0.662696 0.176994
O O3 0.500000 0.500000 0.000000
O O4 0.502300 0.660404 0.890052
O O5 0.780696 0.847635 0.151375
O O6 0.624353 0.879234 0.323051
O O7 0.750000 0.750000 0.000000
O O8 0.332848 0.699271 0.789455
O O9 0.398654 0.788267 0.473435
O O10 0.191374 0.788695 0.929463
O O11 0.433896 0.829739 0.716546
O O12 0.500000 0.053158 0.250000
O O13 0.500000 0.000000 0.500000
#
# Coordination Sequence:
#
# PCOD9277802 Si02
#       6
#     8   8   8   8   8   4
#     4  10  21  40  64  97 128 171 228 281 353 414
#     4  11  22  42  68  99 143 180 227 296 354 425
#     4   9  19  36  68  91 127 178 220 281 351 409
#     4  10  20  41  70  93 132 179 234 289 350 420
#     4  12  27  47  70 105 147 192 247 298 358 436
#     4   8  18  36  56  88 132 162 216 282 324 420
#
# _framework density 22.533093999999998
#
# number of rings (size 3 to 8) (size 9 to 14) (size 15 to 20)
#    0.000    1.818    3.636    0.000    0.000    5.818 
#    6.545    0.000    0.000    0.000    0.000    0.000 
#    0.000    0.000    0.000    0.000    0.000    0.000 
#
# Total GULP energy -122545.370254 kJ/mol
# GULP energy per Si atom -5570.244102 kJ/mol
# Density = 2.248181 g / cm^3
# Si number density = 22.533094 Si / 1000 Ang^3
#
#
#
# Elastic Constant Matrix: (Units=GPa)
#
#
# Indices 1 2 3 4 5 6 
#
# 1 76.8173 27.3792 35.0584 0.0000 5.5034 0.0000
# 2 27.3792 74.5243 50.1794 0.0000 9.4952 0.0000
# 3 35.0584 50.1794 264.8324 0.0000 -20.0908 0.0000
# 4 0.0000 0.0000 0.0000 18.2207 0.0000 -10.7609
# 5 5.5034 9.4952 -20.0908 0.0000 37.9325 0.0000
# 6 0.0000 0.0000 0.0000 -10.7609 0.0000 18.7862
#
#
#
# Elastic Compliance Matrix: (Units=1/GPa)
#
#
# Indices 1 2 3 4 5 6 
#
# 1 0.015359 -0.004533 -0.001310 0.000000 -0.001788 0.000000
# 2 -0.004533 0.017961 -0.003224 0.000000 -0.005546 0.000000
# 3 -0.001310 -0.003224 0.004830 0.000000 0.003555 0.000000
# 4 0.000000 0.000000 0.000000 0.082942 0.000000 0.047510
# 5 -0.001788 -0.005546 0.003555 0.000000 0.029893 0.000000
# 6 0.000000 0.000000 0.000000 0.047510 0.000000 0.080445
#
#
# Mechanical properties :
#
#
# Convention : Reuss Voigt Hill
#
# Bulk Modulus (GPa) = 49.95806 71.26755 60.61280
# Shear Modulus (GPa) = 19.51327 35.22500 27.36914
#
# Velocity S-wave (km/s) = 2.94595 3.95809 3.48892
# Velocity P-wave (km/s) = 5.81297 7.25157 6.57175
#
# Compressibility (1/GPa) = 0.02001679
#
# Stress axis : x y z
#
# Youngs Moduli (GPa) = 65.10630 55.67578 207.04213
#
# Poissons Ratio (x) = 0.25238 0.27122
# Poissons Ratio (y) = 0.29513 0.66747
# Poissons Ratio (z) = 0.08529 0.17949
#
# Static dielectric constant tensor:
#      x y z
#    x 1.906860 0.000000 -0.013460 
#    y 0.000000 1.821520 0.000000 
#    z -0.013460 0.000000 1.971960 
# 
# From -- ./inp_files/86168.got.cif
#   From: 2010.05.17/outbox.cif.g08.bks.cpg/sg15_44_cif.got.tgz:86168.got - 2010.06.03 18:47:42.
