data_PCOD9277526
_publ_section_title
;
Structure prediction by ZEFSAII (Michael W. Deem and Ramdas Pophale) SiO2 
 PCOD9277526
Probable space group: C 2/C
;
_chemical_formula_sum "Si O2"
_cell_formula_units_Z 56
_cell_length_a 18.543552
_cell_length_b 19.018159
_cell_length_c 14.518109
_cell_angle_alpha 90.000000
_cell_angle_beta 29.232303
_cell_angle_gamma 90.000000
_cell_volume 2500.369446
_symmetry_space_group_name_H-M "C 2/C"
_symmetry_group_IT_number 15
_symmetry_cell_setting 'monoclinic'
loop_
_space_group_symop_operation_xyz
x,y,z
-x,y,1/2-z
-x,-y,-z
x,-y,1/2+z
1/2+x,1/2+y,z
1/2-x,1/2+y,1/2-z
1/2-x,1/2-y,-z
1/2+x,1/2-y,1/2+z
loop_
_atom_site_type_symbol
_atom_site_label
_atom_site_fract_x
_atom_site_fract_y
_atom_site_fract_z
Si Si1 0.735627 0.317240 0.744857
Si Si2 0.733404 0.052512 0.841941
Si Si3 0.740334 0.393216 0.912527
Si Si4 0.500000 0.066890 0.250000
Si Si5 0.000000 0.214565 0.750000
Si Si6 0.103614 0.799850 0.325165
Si Si7 0.827492 0.949116 0.033891
Si Si8 0.837713 0.085089 0.320782
O O1 0.800189 0.373792 0.745308
O O2 0.806734 0.244980 0.699634
O O3 0.746092 0.350109 0.632777
O O4 0.559415 0.313652 0.955485
O O5 0.812350 0.126010 0.784369
O O6 0.730843 0.058843 0.733861
O O7 0.825840 0.984448 0.769950
O O8 0.583219 0.037183 0.066274
O O9 0.655198 0.467047 0.999619
O O10 0.865050 0.395913 0.849997
O O11 0.625871 0.333796 0.067120
O O12 0.923338 0.243139 0.741404
O O13 0.770238 0.926392 0.997404
O O14 0.983999 0.909551 0.870777
#
# Coordination Sequence:
#
# PCOD9277526 Si02
#       8
#     8   8   8   4   4   8   8   8
#     4  11  25  42  68 102 139 182 229 285 345 416
#     4  12  23  43  68 103 141 183 223 285 345 417
#     4  11  22  39  65 104 138 183 219 283 348 420
#     4  12  26  39  64 108 154 173 220 284 354 409
#     4  10  20  41  64  96 140 179 230 272 350 421
#     4  11  24  42  68 101 141 182 231 282 352 411
#     4  11  21  39  76 100 130 179 237 285 335 407
#     4  11  21  43  73 105 131 176 244 288 333 409
#
# _framework density 22.396688999999999
#
# number of rings (size 3 to 8) (size 9 to 14) (size 15 to 20)
#    0.000    0.857    5.714    3.000    2.000    3.429 
#    0.000    0.714    0.000    0.000    0.000    0.000 
#    0.000    0.000    0.000    0.000    0.000    0.000 
#
# Total GULP energy -156048.523593 kJ/mol
# GULP energy per Si atom -5573.161557 kJ/mol
# Density = 2.234571 g / cm^3
# Si number density = 22.396689 Si / 1000 Ang^3
#
#
#
# Elastic Constant Matrix: (Units=GPa)
#
#
# Indices 1 2 3 4 5 6 
#
# 1 130.4962 40.3687 37.6188 0.0003 30.4652 -0.0104
# 2 40.3687 58.5635 -2.6318 0.0003 -3.7915 -0.0046
# 3 37.6188 -2.6318 72.5307 0.0001 25.2682 -0.0010
# 4 0.0003 0.0003 0.0001 10.4426 -0.0002 1.4549
# 5 30.4652 -3.7915 25.2682 -0.0002 48.4353 0.0058
# 6 -0.0104 -0.0046 -0.0010 1.4549 0.0058 328.3422
#
#
#
# Elastic Compliance Matrix: (Units=1/GPa)
#
#
# Indices 1 2 3 4 5 6 
#
# 1 0.013956 -0.010299 -0.005222 0.000000 -0.006860 0.000000
# 2 -0.010299 0.024765 0.004043 0.000000 0.006307 0.000000
# 3 -0.005222 0.004043 0.018806 0.000000 -0.006210 0.000000
# 4 0.000000 0.000000 0.000000 0.095821 0.000001 -0.000425
# 5 -0.006860 0.006307 -0.006210 0.000001 0.028694 -0.000001
# 6 0.000000 0.000000 0.000000 -0.000425 -0.000001 0.003047
#
#
# Mechanical properties :
#
#
# Convention : Reuss Voigt Hill
#
# Bulk Modulus (GPa) = 28.92683 45.81130 37.36907
# Shear Modulus (GPa) = 22.77194 89.85967 56.31580
#
# Velocity S-wave (km/s) = 3.19212 6.34105 5.01989
# Velocity P-wave (km/s) = 5.15072 8.60877 7.09368
#
# Compressibility (1/GPa) = 0.03456998
#
# Stress axis : x y z
#
# Youngs Moduli (GPa) = 71.65424 40.38013 53.17503
#
# Poissons Ratio (x) = 0.41587 0.27769
# Poissons Ratio (y) = 0.73795 -0.21498
# Poissons Ratio (z) = 0.37419 -0.16325
#
# Static dielectric constant tensor:
#      x y z
#    x 1.921030 0.000000 0.032960 
#    y 0.000000 1.880060 0.000000 
#    z 0.032960 0.000000 1.879570 
# 
# From -- ./inp_files/163787.got.cif
#   From: 2010.05.17/outbox.cif.g08.bks.cpg/sg15_82_cif.got.tgz:163787.got - 2010.06.03 18:47:42.
