data_PCOD9277869
_publ_section_title
;
Structure prediction by ZEFSAII (Michael W. Deem and Ramdas Pophale) SiO2 
 PCOD9277869
Probable space group: C 2/C
;
_chemical_formula_sum "Si O2"
_cell_formula_units_Z 40
_cell_length_a 8.477173
_cell_length_b 10.657571
_cell_length_c 19.554647
_cell_angle_alpha 90.000000
_cell_angle_beta 86.576090
_cell_angle_gamma 90.000000
_cell_volume 1763.532020
_symmetry_space_group_name_H-M "C 2/C"
_symmetry_group_IT_number 15
_symmetry_cell_setting 'monoclinic'
loop_
_space_group_symop_operation_xyz
x,y,z
-x,y,1/2-z
-x,-y,-z
x,-y,1/2+z
1/2+x,1/2+y,z
1/2-x,1/2+y,1/2-z
1/2-x,1/2-y,-z
1/2+x,1/2-y,1/2+z
loop_
_atom_site_type_symbol
_atom_site_label
_atom_site_fract_x
_atom_site_fract_y
_atom_site_fract_z
Si Si1 0.108540 0.116739 0.023150
Si Si2 0.680725 0.704865 0.393979
Si Si3 0.672744 0.949058 0.096518
Si Si4 0.333032 0.516267 0.223805
Si Si5 0.303627 0.023812 0.630891
O O1 0.976309 0.210962 0.055469
O O2 0.212817 0.069383 0.083769
O O3 0.233246 0.137854 0.958942
O O4 0.000000 0.000000 0.000000
O O5 0.786222 0.594643 0.423843
O O6 0.639963 0.644538 0.320376
O O7 0.765234 0.836288 0.380312
O O8 0.486425 0.954210 0.109378
O O9 0.755048 0.928968 0.168073
O O10 0.500000 0.473927 0.250000
O O11 0.218476 0.522533 0.291349
#
# Coordination Sequence:
#
# PCOD9277869 Si02
#       5
#     8   8   8   8   8
#     4  10  20  42  63  91 132 156 201 258 302 367
#     4   9  23  40  62  89 119 167 198 246 315 358
#     4   9  22  39  60  95 122 153 207 256 293 366
#     4  10  20  42  58  88 125 158 205 254 303 361
#     4  12  21  41  67  87 123 165 205 254 305 362
#
# _framework density 22.681756
#
# number of rings (size 3 to 8) (size 9 to 14) (size 15 to 20)
#    1.200    0.800    2.000    1.200    0.000    5.600 
#    3.600    4.000    0.000    0.000    0.000    0.000 
#    0.000    0.000    0.000    0.000    0.000    0.000 
#
# Total GULP energy -111521.296808 kJ/mol
# GULP energy per Si atom -5576.064840 kJ/mol
# Density = 2.263013 g / cm^3
# Si number density = 22.681756 Si / 1000 Ang^3
#
#
#
# Elastic Constant Matrix: (Units=GPa)
#
#
# Indices 1 2 3 4 5 6 
#
# 1 70.8048 -1.6182 14.5396 0.0000 -21.2159 0.0000
# 2 -1.6182 29.8545 4.1099 0.0000 -0.1819 0.0000
# 3 14.5396 4.1099 135.2732 0.0000 -17.0345 0.0000
# 4 0.0000 0.0000 0.0000 11.0366 0.0000 -3.5872
# 5 -21.2159 -0.1819 -17.0345 0.0000 35.8519 0.0000
# 6 0.0000 0.0000 0.0000 -3.5872 0.0000 16.2596
#
#
#
# Elastic Compliance Matrix: (Units=1/GPa)
#
#
# Indices 1 2 3 4 5 6 
#
# 1 0.017248 0.001083 -0.000639 0.000000 0.009909 0.000000
# 2 0.001083 0.033708 -0.001104 0.000000 0.000287 0.000000
# 3 -0.000639 -0.001104 0.007920 0.000000 0.003379 0.000000
# 4 0.000000 0.000000 0.000000 0.097607 0.000000 0.021534
# 5 0.009909 0.000287 0.003379 0.000000 0.035363 0.000000
# 6 0.000000 0.000000 0.000000 0.021534 0.000000 0.066253
#
#
# Mechanical properties :
#
#
# Convention : Reuss Voigt Hill
#
# Bulk Modulus (GPa) = 17.37418 29.99944 23.68681
# Shear Modulus (GPa) = 17.94647 27.22303 22.58475
#
# Velocity S-wave (km/s) = 2.81593 3.46817 3.15893
# Velocity P-wave (km/s) = 4.27191 5.41226 4.87554
#
# Compressibility (1/GPa) = 0.05755669
#
# Stress axis : x y z
#
# Youngs Moduli (GPa) = 57.97629 29.66632 126.25873
#
# Poissons Ratio (x) = -0.03214 0.08068
# Poissons Ratio (y) = -0.06280 0.13944
# Poissons Ratio (z) = 0.03705 0.03276
#
# Static dielectric constant tensor:
#      x y z
#    x 1.839590 0.000000 -0.015710 
#    y 0.000000 1.877560 0.000000 
#    z -0.015710 0.000000 1.840310 
# 
# From -- ./inp_files/229913.got.cif
#   From: 2010.05.17/outbox.cif.g08.bks.cpg/sg15_115_cif.got.tgz:229913.got - 2010.06.03 18:47:42.
