data_PCOD9277444
_publ_section_title
;
Structure prediction by ZEFSAII (Michael W. Deem and Ramdas Pophale) SiO2 
 PCOD9277444
Probable space group: C 2/C
;
_chemical_formula_sum "Si O2"
_cell_formula_units_Z 40
_cell_length_a 14.128420
_cell_length_b 11.982201
_cell_length_c 14.767594
_cell_angle_alpha 90.000000
_cell_angle_beta 49.352319
_cell_angle_gamma 90.000000
_cell_volume 1896.823397
_symmetry_space_group_name_H-M "C 2/C"
_symmetry_group_IT_number 15
_symmetry_cell_setting 'monoclinic'
loop_
_space_group_symop_operation_xyz
x,y,z
-x,y,1/2-z
-x,-y,-z
x,-y,1/2+z
1/2+x,1/2+y,z
1/2-x,1/2+y,1/2-z
1/2-x,1/2-y,-z
1/2+x,1/2-y,1/2+z
loop_
_atom_site_type_symbol
_atom_site_label
_atom_site_fract_x
_atom_site_fract_y
_atom_site_fract_z
Si Si1 0.744685 0.955336 0.659743
Si Si2 0.290555 0.376111 0.986062
Si Si3 0.500000 0.829703 0.750000
Si Si4 0.633477 0.253494 0.002878
Si Si5 0.234771 0.466160 0.366056
Si Si6 0.500000 0.517306 0.250000
O O1 0.619646 0.906038 0.693765
O O2 0.852135 0.867362 0.562300
O O3 0.773160 0.073720 0.596008
O O4 0.723497 0.970887 0.778780
O O5 0.209492 0.451898 0.966501
O O6 0.431776 0.403697 0.865776
O O7 0.250000 0.250000 0.000000
O O8 0.521023 0.762796 0.642957
O O9 0.655158 0.145774 0.925957
O O10 0.750000 0.250000 0.000000
O O11 0.384015 0.446034 0.285569
#
# Coordination Sequence:
#
# PCOD9277444 Si02
#       6
#     8   8   4   8   8   4
#     4  11  24  39  63  91 122 161 200 252 301 361
#     4  10  22  42  57  88 126 156 200 248 297 367
#     4  10  20  42  64  88 124 163 195 262 302 346
#     4  10  20  41  63  89 121 157 208 256 294 358
#     4  10  22  41  60  91 118 156 209 240 302 361
#     4   8  20  42  58  84 120 157 195 250 290 350
#
# _framework density 21.087888
#
# number of rings (size 3 to 8) (size 9 to 14) (size 15 to 20)
#    1.200    0.800    4.000    0.000    2.800    9.600 
#    3.600    0.000    0.000    0.000    0.000    0.000 
#    0.000    0.000    0.000    0.000    0.000    0.000 
#
# Total GULP energy -111457.991438 kJ/mol
# GULP energy per Si atom -5572.899572 kJ/mol
# Density = 2.103989 g / cm^3
# Si number density = 21.087888 Si / 1000 Ang^3
#
#
#
# Elastic Constant Matrix: (Units=GPa)
#
#
# Indices 1 2 3 4 5 6 
#
# 1 24.2211 5.7887 13.7978 0.0000 5.1265 0.0000
# 2 5.7887 120.4266 33.6890 0.0000 -4.0546 0.0000
# 3 13.7978 33.6890 99.3311 0.0000 0.6699 0.0000
# 4 0.0000 0.0000 0.0000 57.2703 0.0000 2.1948
# 5 5.1265 -4.0546 0.6699 0.0000 37.4743 0.0000
# 6 0.0000 0.0000 0.0000 2.1948 0.0000 16.0875
#
#
#
# Elastic Compliance Matrix: (Units=1/GPa)
#
#
# Indices 1 2 3 4 5 6 
#
# 1 0.046292 -0.000719 -0.006144 0.000000 -0.006301 0.000000
# 2 -0.000719 0.009227 -0.003037 0.000000 0.001151 0.000000
# 3 -0.006144 -0.003037 0.011949 0.000000 0.000298 0.000000
# 4 0.000000 0.000000 0.000000 0.017553 0.000000 -0.002395
# 5 -0.006301 0.001151 0.000298 0.000000 0.027666 0.000000
# 6 0.000000 0.000000 0.000000 -0.002395 0.000000 0.062487
#
#
# Mechanical properties :
#
#
# Convention : Reuss Voigt Hill
#
# Bulk Modulus (GPa) = 20.97865 38.94778 29.96321
# Shear Modulus (GPa) = 23.71219 34.87995 29.29607
#
# Velocity S-wave (km/s) = 3.35691 4.07139 3.73129
# Velocity P-wave (km/s) = 4.99950 6.37267 5.72739
#
# Compressibility (1/GPa) = 0.04766751
#
# Stress axis : x y z
#
# Youngs Moduli (GPa) = 21.60221 108.38019 83.68967
#
# Poissons Ratio (x) = 0.07787 0.51419
# Poissons Ratio (y) = 0.01552 0.25419
# Poissons Ratio (z) = 0.13272 0.32918
#
# Static dielectric constant tensor:
#      x y z
#    x 1.772840 0.000000 -0.016560 
#    y 0.000000 1.782000 0.000000 
#    z -0.016560 0.000000 1.831280 
# 
# From -- ./inp_files/160218.got.cif
#   From: 2010.05.17/outbox.cif.g08.bks.cpg/sg15_81_cif.got.tgz:160218.got - 2010.06.03 18:47:42.
