data_PCOD9277671
_publ_section_title
;
Structure prediction by ZEFSAII (Michael W. Deem and Ramdas Pophale) SiO2 
 PCOD9277671
Probable space group: C 2/C
;
_chemical_formula_sum "Si O2"
_cell_formula_units_Z 48
_cell_length_a 10.868286
_cell_length_b 18.475593
_cell_length_c 11.830159
_cell_angle_alpha 90.000000
_cell_angle_beta 63.439298
_cell_angle_gamma 90.000000
_cell_volume 2124.767925
_symmetry_space_group_name_H-M "C 2/C"
_symmetry_group_IT_number 15
_symmetry_cell_setting 'monoclinic'
loop_
_space_group_symop_operation_xyz
x,y,z
-x,y,1/2-z
-x,-y,-z
x,-y,1/2+z
1/2+x,1/2+y,z
1/2-x,1/2+y,1/2-z
1/2-x,1/2-y,-z
1/2+x,1/2-y,1/2+z
loop_
_atom_site_type_symbol
_atom_site_label
_atom_site_fract_x
_atom_site_fract_y
_atom_site_fract_z
Si Si1 0.756849 0.583384 0.831070
Si Si2 0.110695 0.942084 0.856415
Si Si3 0.500000 0.257258 0.750000
Si Si4 0.680991 0.615236 0.100615
Si Si5 0.217384 0.288410 0.334551
Si Si6 0.000000 0.519249 0.250000
Si Si7 0.301667 0.145152 0.411355
O O1 0.637199 0.524568 0.870658
O O2 0.714997 0.651692 0.773619
O O3 0.891524 0.537256 0.739152
O O4 0.778583 0.606765 0.953178
O O5 0.212274 0.918719 0.709915
O O6 0.156051 0.892112 0.941574
O O7 0.959059 0.924616 0.879852
O O8 0.373796 0.304712 0.851339
O O9 0.427117 0.221734 0.672609
O O10 0.302070 0.214086 0.324140
O O11 0.191066 0.322331 0.467692
O O12 0.093258 0.577582 0.143386
#
# Coordination Sequence:
#
# PCOD9277671 Si02
#       7
#     8   8   4   8   8   4   8
#     4  11  24  39  65 100 127 177 227 270 332 406
#     4   9  20  42  65  93 127 170 216 281 333 384
#     4  10  21  44  66  97 130 170 218 282 327 390
#     4  10  20  41  67  90 123 172 218 275 324 387
#     4  11  23  42  67  99 131 175 229 270 330 411
#     4  10  25  46  64  99 140 180 214 278 351 394
#     4  10  22  45  64  90 141 177 213 276 342 395
#
# _framework density 22.590702
#
# number of rings (size 3 to 8) (size 9 to 14) (size 15 to 20)
#    0.000    2.000    3.333    1.000    4.667    2.667 
#    9.000    0.000    0.000    0.000    0.000    0.000 
#    0.000    0.000    0.000    0.000    0.000    0.000 
#
# Total GULP energy -133693.604775 kJ/mol
# GULP energy per Si atom -5570.566866 kJ/mol
# Density = 2.253928 g / cm^3
# Si number density = 22.590702 Si / 1000 Ang^3
#
#
#
# Elastic Constant Matrix: (Units=GPa)
#
#
# Indices 1 2 3 4 5 6 
#
# 1 67.1397 17.8693 28.4112 0.0000 20.2981 0.0000
# 2 17.8693 121.3884 49.6519 0.0000 13.8377 0.0000
# 3 28.4112 49.6519 86.4822 0.0000 36.2028 0.0000
# 4 0.0000 0.0000 0.0000 11.1881 0.0000 3.3459
# 5 20.2981 13.8377 36.2028 0.0000 33.6439 0.0000
# 6 0.0000 0.0000 0.0000 3.3459 0.0000 31.6246
#
#
#
# Elastic Compliance Matrix: (Units=1/GPa)
#
#
# Indices 1 2 3 4 5 6 
#
# 1 0.018608 -0.000972 -0.001861 0.000000 -0.008824 0.000000
# 2 -0.000972 0.011129 -0.008005 0.000000 0.004624 0.000000
# 3 -0.001861 -0.008005 0.027154 0.000000 -0.024804 0.000000
# 4 0.000000 0.000000 0.000000 0.092301 0.000000 -0.009766
# 5 -0.008824 0.004624 -0.024804 0.000000 0.059835 0.000000
# 6 0.000000 0.000000 0.000000 -0.009766 0.000000 0.032654
#
#
# Mechanical properties :
#
#
# Convention : Reuss Voigt Hill
#
# Bulk Modulus (GPa) = 28.39815 51.87504 40.13660
# Shear Modulus (GPa) = 18.17543 27.22983 22.70263
#
# Velocity S-wave (km/s) = 2.83954 3.47559 3.17354
# Velocity P-wave (km/s) = 4.83205 6.25453 5.58873
#
# Compressibility (1/GPa) = 0.03521356
#
# Stress axis : x y z
#
# Youngs Moduli (GPa) = 53.73906 89.85931 36.82724
#
# Poissons Ratio (x) = 0.08735 0.06854
# Poissons Ratio (y) = 0.05224 0.29481
# Poissons Ratio (z) = 0.10002 0.71935
#
# Static dielectric constant tensor:
#      x y z
#    x 1.936820 0.000000 -0.035010 
#    y 0.000000 1.875890 0.000000 
#    z -0.035010 0.000000 1.910630 
# 
# From -- ./inp_files/87829.got.cif
#   From: 2010.05.17/outbox.cif.g08.bks.cpg/sg15_44_cif.got.tgz:87829.got - 2010.06.03 18:47:42.
