data_PCOD9277286
_publ_section_title
;
Structure prediction by ZEFSAII (Michael W. Deem and Ramdas Pophale) SiO2 
 PCOD9277286
Probable space group: C 2/C
;
_chemical_formula_sum "Si O2"
_cell_formula_units_Z 44
_cell_length_a 17.776357
_cell_length_b 13.713580
_cell_length_c 7.860237
_cell_angle_alpha 90.000000
_cell_angle_beta 110.874996
_cell_angle_gamma 90.000000
_cell_volume 1790.372992
_symmetry_space_group_name_H-M "C 2/C"
_symmetry_group_IT_number 15
_symmetry_cell_setting 'monoclinic'
loop_
_space_group_symop_operation_xyz
x,y,z
-x,y,1/2-z
-x,-y,-z
x,-y,1/2+z
1/2+x,1/2+y,z
1/2-x,1/2+y,1/2-z
1/2-x,1/2-y,-z
1/2+x,1/2-y,1/2+z
loop_
_atom_site_type_symbol
_atom_site_label
_atom_site_fract_x
_atom_site_fract_y
_atom_site_fract_z
Si Si1 0.673459 0.680521 0.378876
Si Si2 0.169035 0.535693 0.531368
Si Si3 0.452864 0.825571 0.376521
Si Si4 0.500000 0.300633 0.250000
Si Si5 0.696209 0.141137 0.220926
Si Si6 0.839924 0.867973 0.266823
O O1 0.750000 0.750000 0.500000
O O2 0.599992 0.743443 0.259147
O O3 0.708856 0.632341 0.237674
O O4 0.650328 0.615986 0.521767
O O5 0.103429 0.592588 0.587072
O O6 0.161153 0.573833 0.336419
O O7 0.163251 0.418910 0.532925
O O8 0.259586 0.573898 0.651172
O O9 0.500000 0.866667 0.250000
O O10 0.492539 0.768965 0.573456
O O11 0.421988 0.369109 0.224859
O O12 0.679458 0.251351 0.255994
#
# Coordination Sequence:
#
# PCOD9277286 Si02
#       6
#     8   8   8   4   8   8
#     4  10  20  40  71  93 126 175 227 272 329 389
#     4  12  24  42  68  96 132 176 229 274 332 401
#     4  12  24  41  67  99 135 180 219 275 335 399
#     4  12  24  40  68 100 136 180 218 270 340 396
#     4  11  23  39  68  97 127 175 227 278 329 394
#     4  11  22  43  69  95 133 172 224 276 334 396
#
# _framework density 24.575886000000001
#
# number of rings (size 3 to 8) (size 9 to 14) (size 15 to 20)
#    0.000    0.727    7.273    2.727    2.545    0.000 
#    1.636    1.818    2.000    3.273    0.000    0.000 
#    0.000    0.000    0.000    0.000    0.000    0.000 
#
# Total GULP energy -122717.638367 kJ/mol
# GULP energy per Si atom -5578.074471 kJ/mol
# Density = 2.451995 g / cm^3
# Si number density = 24.575886 Si / 1000 Ang^3
#
#
#
# Elastic Constant Matrix: (Units=GPa)
#
#
# Indices 1 2 3 4 5 6 
#
# 1 131.4319 17.7963 38.1710 0.0000 -29.8217 0.0000
# 2 17.7963 52.9453 6.7970 0.0000 7.0533 0.0000
# 3 38.1710 6.7970 91.3431 0.0000 -14.0510 0.0000
# 4 0.0000 0.0000 0.0000 26.3114 0.0000 6.6535
# 5 -29.8217 7.0533 -14.0510 0.0000 56.6606 0.0000
# 6 0.0000 0.0000 0.0000 6.6535 0.0000 0.3006
#
#
#
# Elastic Compliance Matrix: (Units=1/GPa)
#
#
# Indices 1 2 3 4 5 6 
#
# 1 0.010177 -0.003677 -0.003207 0.000000 0.005019 0.000000
# 2 -0.003677 0.020846 -0.000740 0.000000 -0.004714 0.000000
# 3 -0.003207 -0.000740 0.012577 0.000000 0.001523 0.000000
# 4 0.000000 0.000000 0.000000 -0.008268 0.000000 0.182993
# 5 0.005019 -0.004714 0.001523 0.000000 0.021255 0.000000
# 6 0.000000 0.000000 0.000000 0.182993 0.000000 -0.723645
#
#
# Mechanical properties :
#
#
# Convention : Reuss Voigt Hill
#
# Bulk Modulus (GPa) = 35.27075 44.58322 39.92699
# Shear Modulus (GPa) = -7.78381 30.85160 11.53389
#
# Velocity S-wave (km/s) = -1.78161 3.54695 2.16872
# Velocity P-wave (km/s) = 3.18603 5.91227 4.74898
#
# Compressibility (1/GPa) = 0.02835210
#
# Stress axis : x y z
#
# Youngs Moduli (GPa) = 98.26504 47.96981 79.50883
#
# Poissons Ratio (x) = 0.17641 0.25498
# Poissons Ratio (y) = 0.36137 0.05880
# Poissons Ratio (z) = 0.31514 0.03548
#
# Static dielectric constant tensor:
#      x y z
#    x 2.151200 0.000000 -0.123820 
#    y 0.000000 1.989600 0.000000 
#    z -0.123820 0.000000 2.193580 
# 
# From -- ./inp_files/47146.got.cif
#   From: 2010.05.17/outbox.cif.g08.bks.cpg/sg15_24_cif.got.tgz:47146.got - 2010.06.03 18:47:42.
