data_PCOD9277069
_publ_section_title
;
Structure prediction by ZEFSAII (Michael W. Deem and Ramdas Pophale) SiO2 
 PCOD9277069
Probable space group: C 2/C
;
_chemical_formula_sum "Si O2"
_cell_formula_units_Z 60
_cell_length_a 8.648389
_cell_length_b 20.809994
_cell_length_c 16.256711
_cell_angle_alpha 90.000000
_cell_angle_beta 82.950815
_cell_angle_gamma 90.000000
_cell_volume 2903.652414
_symmetry_space_group_name_H-M "C 2/C"
_symmetry_group_IT_number 15
_symmetry_cell_setting 'monoclinic'
loop_
_space_group_symop_operation_xyz
x,y,z
-x,y,1/2-z
-x,-y,-z
x,-y,1/2+z
1/2+x,1/2+y,z
1/2-x,1/2+y,1/2-z
1/2-x,1/2-y,-z
1/2+x,1/2-y,1/2+z
loop_
_atom_site_type_symbol
_atom_site_label
_atom_site_fract_x
_atom_site_fract_y
_atom_site_fract_z
Si Si1 0.500000 0.047415 0.250000
Si Si2 0.326735 0.514627 0.762011
Si Si3 0.420205 0.629833 0.632952
Si Si4 0.596627 0.183655 0.824755
Si Si5 0.761286 0.924863 0.425845
Si Si6 0.663240 0.187511 0.536377
Si Si7 0.103798 0.740688 0.173468
Si Si8 0.451687 0.879058 0.921070
O O1 0.495805 0.085697 0.164452
O O2 0.332859 0.010849 0.267342
O O3 0.500000 0.482203 0.750000
O O4 0.365624 0.582655 0.711039
O O5 0.281364 0.516791 0.861738
O O6 0.560704 0.596985 0.573533
O O7 0.274220 0.645315 0.586457
O O8 0.499868 0.697373 0.654542
O O9 0.500000 0.165388 0.750000
O O10 0.673706 0.125271 0.870119
O O11 0.476849 0.212377 0.897596
O O12 0.736045 0.232905 0.799730
O O13 0.662154 0.922701 0.515149
O O14 0.750000 0.250000 0.500000
O O15 0.593803 0.144417 0.468290
O O16 0.129986 0.688570 0.100553
O O17 0.000000 0.708131 0.250000
#
# Coordination Sequence:
#
# PCOD9277069 Si02
#       8
#     4   8   8   8   8   8   8   8
#     4  12  28  48  68  88 142 184 218 278 334 394
#     4  10  23  47  71  96 122 171 236 282 327 383
#     4  10  20  40  67  99 126 167 212 287 328 375
#     4  10  21  32  58  95 125 167 210 259 324 385
#     4   9  21  39  66  93 125 160 222 272 330 380
#     4  11  22  36  61  97 138 165 213 263 328 406
#     4  11  20  37  62  86 138 172 207 262 332 405
#     4  11  25  42  60  95 132 178 213 258 341 409
#
# _framework density 20.663630000000001
#
# number of rings (size 3 to 8) (size 9 to 14) (size 15 to 20)
#    0.000    1.600    2.000    3.600    6.533    2.133 
#    2.400    2.000    0.000    0.000    0.000    0.000 
#    0.000    0.000    0.000    0.000    0.000    0.000 
#
# Total GULP energy -167159.758557 kJ/mol
# GULP energy per Si atom -5571.991952 kJ/mol
# Density = 2.061660 g / cm^3
# Si number density = 20.663630 Si / 1000 Ang^3
#
#
#
# Elastic Constant Matrix: (Units=GPa)
#
#
# Indices 1 2 3 4 5 6 
#
# 1 142.3701 32.3143 49.3308 0.0000 -1.0041 0.0000
# 2 32.3143 37.6151 27.0774 0.0000 -4.7902 0.0000
# 3 49.3308 27.0774 121.6013 0.0000 -15.1602 0.0000
# 4 0.0000 0.0000 0.0000 13.0504 0.0000 -0.4278
# 5 -1.0041 -4.7902 -15.1602 0.0000 38.0693 0.0000
# 6 0.0000 0.0000 0.0000 -0.4278 0.0000 14.0968
#
#
#
# Elastic Compliance Matrix: (Units=1/GPa)
#
#
# Indices 1 2 3 4 5 6 
#
# 1 0.009353 -0.006386 -0.002569 0.000000 -0.001580 0.000000
# 2 -0.006386 0.036077 -0.005153 0.000000 0.002319 0.000000
# 3 -0.002569 -0.005153 0.010863 0.000000 0.003610 0.000000
# 4 0.000000 0.000000 0.000000 0.076702 0.000000 0.002328
# 5 -0.001580 0.002319 0.003610 0.000000 0.027956 0.000000
# 6 0.000000 0.000000 0.000000 0.002328 0.000000 0.071009
#
#
# Mechanical properties :
#
#
# Convention : Reuss Voigt Hill
#
# Bulk Modulus (GPa) = 35.61917 57.67018 46.64467
# Shear Modulus (GPa) = 18.55049 25.90090 22.22569
#
# Velocity S-wave (km/s) = 2.99947 3.54426 3.28318
# Velocity P-wave (km/s) = 5.41025 6.68720 6.08233
#
# Compressibility (1/GPa) = 0.02807477
#
# Stress axis : x y z
#
# Youngs Moduli (GPa) = 106.92323 27.71884 92.05278
#
# Poissons Ratio (x) = 0.17703 0.23648
# Poissons Ratio (y) = 0.68286 0.47438
# Poissons Ratio (z) = 0.27468 0.14285
#
# Static dielectric constant tensor:
#      x y z
#    x 1.695230 0.000000 0.057290 
#    y 0.000000 1.776920 0.000000 
#    z 0.057290 0.000000 1.684150 
# 
# From -- ./inp_files/137355.got.cif
#   From: 2010.05.17/outbox.cif.g08.bks.cpg/sg15_69_cif.got.tgz:137355.got - 2010.06.03 18:47:42.
