data_PCOD9277345
_publ_section_title
;
Structure prediction by ZEFSAII (Michael W. Deem and Ramdas Pophale) SiO2 
 PCOD9277345
Probable space group: C 2/C
;
_chemical_formula_sum "Si O2"
_cell_formula_units_Z 60
_cell_length_a 14.517013
_cell_length_b 16.186005
_cell_length_c 20.359831
_cell_angle_alpha 90.000000
_cell_angle_beta 37.915709
_cell_angle_gamma 90.000000
_cell_volume 2939.774838
_symmetry_space_group_name_H-M "C 2/C"
_symmetry_group_IT_number 15
_symmetry_cell_setting 'monoclinic'
loop_
_space_group_symop_operation_xyz
x,y,z
-x,y,1/2-z
-x,-y,-z
x,-y,1/2+z
1/2+x,1/2+y,z
1/2-x,1/2+y,1/2-z
1/2-x,1/2-y,-z
1/2+x,1/2-y,1/2+z
loop_
_atom_site_type_symbol
_atom_site_label
_atom_site_fract_x
_atom_site_fract_y
_atom_site_fract_z
Si Si1 0.115054 0.595177 0.547054
Si Si2 0.617352 0.455832 0.887099
Si Si3 0.500000 0.819471 0.750000
Si Si4 0.892974 0.723770 0.713518
Si Si5 0.181779 0.767181 0.890097
Si Si6 0.570428 0.939111 0.825176
Si Si7 0.463395 0.403277 0.846650
Si Si8 0.613027 0.191583 0.411042
O O1 0.289977 0.588411 0.464189
O O2 0.114220 0.644569 0.479099
O O3 0.009003 0.648824 0.655153
O O4 0.040725 0.505627 0.582189
O O5 0.635979 0.361768 0.901749
O O6 0.789235 0.485953 0.787698
O O7 0.555284 0.455852 0.847899
O O8 0.500000 0.500000 0.000000
O O9 0.348564 0.767545 0.824885
O O10 0.489650 0.880671 0.817982
O O11 0.829787 0.722927 0.674251
O O12 0.741946 0.738642 0.840072
O O13 0.986909 0.807906 0.671768
O O14 0.051566 0.728504 0.007414
O O15 0.639866 0.876312 0.839720
O O16 0.500000 0.424700 0.750000
#
# Coordination Sequence:
#
# PCOD9277345 Si02
#       8
#     8   8   4   8   8   8   8   8
#     4  11  24  36  64  93 120 161 212 255 314 378
#     4  10  22  40  61  89 128 167 199 255 323 374
#     4  10  20  42  58  88 126 152 208 260 298 366
#     4  10  20  41  56  91 124 159 202 253 318 369
#     4   9  21  37  65  82 116 164 208 249 312 369
#     4  11  23  41  60  88 125 160 203 260 314 368
#     4  11  20  40  63  89 124 166 210 261 308 373
#     4  11  20  42  65  85 122 168 201 257 316 370
#
# _framework density 20.409725999999999
#
# number of rings (size 3 to 8) (size 9 to 14) (size 15 to 20)
#    0.000    1.600    5.333    0.800    5.600    0.533 
#    1.200    0.000    4.400    0.000    0.000    0.000 
#    0.000    0.000    0.000    0.000    0.000    0.000 
#
# Total GULP energy -167390.192150 kJ/mol
# GULP energy per Si atom -5579.673072 kJ/mol
# Density = 2.036327 g / cm^3
# Si number density = 20.409726 Si / 1000 Ang^3
#
#
#
# Elastic Constant Matrix: (Units=GPa)
#
#
# Indices 1 2 3 4 5 6 
#
# 1 65.8971 1.1390 33.1683 -0.0001 -11.9350 0.0000
# 2 1.1390 15.3824 33.6837 -0.0001 -4.4914 0.0000
# 3 33.1683 33.6837 143.1612 -0.0003 -28.2063 0.0001
# 4 -0.0001 -0.0001 -0.0003 40.3143 0.0001 2.4620
# 5 -11.9350 -4.4914 -28.2063 0.0001 38.8558 0.0000
# 6 0.0000 0.0000 0.0001 2.4620 0.0000 3.3315
#
#
#
# Elastic Compliance Matrix: (Units=1/GPa)
#
#
# Indices 1 2 3 4 5 6 
#
# 1 0.019274 0.016636 -0.007975 0.000000 0.002054 0.000000
# 2 0.016636 0.150990 -0.040765 0.000000 -0.007029 0.000000
# 3 -0.007975 -0.040765 0.019853 0.000000 0.007250 0.000000
# 4 0.000000 0.000000 0.000000 0.025978 0.000000 -0.019198
# 5 0.002054 -0.007029 0.007250 0.000000 0.030817 0.000000
# 6 0.000000 0.000000 0.000000 -0.019198 0.000000 0.314355
#
#
# Mechanical properties :
#
#
# Convention : Reuss Voigt Hill
#
# Bulk Modulus (GPa) = 7.94231 40.04698 23.99464
# Shear Modulus (GPa) = 7.49127 26.93030 17.21078
#
# Velocity S-wave (km/s) = 1.91792 3.63641 2.90705
# Velocity P-wave (km/s) = 2.96723 6.10700 4.80103
#
# Compressibility (1/GPa) = 0.12590796
#
# Stress axis : x y z
#
# Youngs Moduli (GPa) = 51.88427 6.62295 50.37143
#
# Poissons Ratio (x) = -0.11018 0.40170
# Poissons Ratio (y) = -0.86312 2.05338
# Poissons Ratio (z) = 0.41377 0.26998
#
# Static dielectric constant tensor:
#      x y z
#    x 1.758760 0.000000 0.003570 
#    y 0.000000 1.712310 0.000000 
#    z 0.003570 0.000000 1.792100 
# 
# From -- ./inp_files/274708.got.cif
#   From: 2010.05.17/outbox.cif.g08.bks.cpg/sg15_138_cif.got.tgz:274708.got - 2010.06.03 18:47:42.
