data_PCOD9277787
_publ_section_title
;
Structure prediction by ZEFSAII (Michael W. Deem and Ramdas Pophale) SiO2 
 PCOD9277787
Probable space group: C 2/C
;
_chemical_formula_sum "Si O2"
_cell_formula_units_Z 44
_cell_length_a 12.917038
_cell_length_b 8.933533
_cell_length_c 28.135906
_cell_angle_alpha 90.000000
_cell_angle_beta 149.103045
_cell_angle_gamma 90.000000
_cell_volume 1667.185237
_symmetry_space_group_name_H-M "C 2/C"
_symmetry_group_IT_number 15
_symmetry_cell_setting 'monoclinic'
loop_
_space_group_symop_operation_xyz
x,y,z
-x,y,1/2-z
-x,-y,-z
x,-y,1/2+z
1/2+x,1/2+y,z
1/2-x,1/2+y,1/2-z
1/2-x,1/2-y,-z
1/2+x,1/2-y,1/2+z
loop_
_atom_site_type_symbol
_atom_site_label
_atom_site_fract_x
_atom_site_fract_y
_atom_site_fract_z
Si Si1 0.500000 0.724655 0.250000
Si Si2 0.377775 0.688265 0.854167
Si Si3 0.608982 0.968219 0.171266
Si Si4 0.315406 0.462488 0.601699
Si Si5 0.845584 0.960203 0.502473
Si Si6 0.906467 0.696142 0.936381
O O1 0.303522 0.819892 0.180005
O O2 0.515153 0.614366 0.300595
O O3 0.289063 0.584578 0.776716
O O4 0.573830 0.628484 0.958592
O O5 0.403632 0.855984 0.845688
O O6 0.631310 0.878520 0.130465
O O7 0.384235 0.936024 0.104624
O O8 0.335635 0.419924 0.554857
O O9 0.272965 0.634270 0.600538
O O10 0.110635 0.378387 0.536744
O O11 0.979199 0.135395 0.453926
#
# Coordination Sequence:
#
# PCOD9277787 Si02
#       6
#     4   8   8   8   8   8
#     4  12  22  42  62  98 136 176 240 290 342 436
#     4  12  25  43  69  97 136 185 228 292 363 416
#     4  11  22  44  68  97 137 179 231 288 352 432
#     4  10  21  39  69  94 129 186 227 284 353 419
#     4  11  24  44  69 104 138 181 238 296 358 426
#     4  10  20  41  69  96 132 177 237 284 350 429
#
# _framework density 26.391788999999999
#
# number of rings (size 3 to 8) (size 9 to 14) (size 15 to 20)
#    0.000    1.091    1.818    7.091    0.000    0.000 
#    3.273    1.818    0.000    0.000    0.000    0.000 
#    0.000    0.000    0.000    0.000    0.000    0.000 
#
# Total GULP energy -123070.868255 kJ/mol
# GULP energy per Si atom -5594.130375 kJ/mol
# Density = 2.633172 g / cm^3
# Si number density = 26.391789 Si / 1000 Ang^3
#
#
#
# Elastic Constant Matrix: (Units=GPa)
#
#
# Indices 1 2 3 4 5 6 
#
# 1 60.2671 15.9928 13.0929 0.0000 -9.1292 0.0000
# 2 15.9928 138.0780 10.8166 0.0000 -3.0744 0.0000
# 3 13.0929 10.8166 86.9957 -0.0001 -2.4866 0.0000
# 4 0.0000 0.0000 -0.0001 40.1582 0.0000 -3.6912
# 5 -9.1292 -3.0744 -2.4866 0.0000 39.9238 0.0000
# 6 0.0000 0.0000 0.0000 -3.6912 0.0000 45.5045
#
#
#
# Elastic Compliance Matrix: (Units=1/GPa)
#
#
# Indices 1 2 3 4 5 6 
#
# 1 0.018186 -0.001832 -0.002399 0.000000 0.003868 0.000000
# 2 -0.001832 0.007508 -0.000654 0.000000 0.000118 0.000000
# 3 -0.002399 -0.000654 0.011941 0.000000 0.000145 0.000000
# 4 0.000000 0.000000 0.000000 0.025089 0.000000 0.002035
# 5 0.003868 0.000118 0.000145 0.000000 0.025950 0.000000
# 6 0.000000 0.000000 0.000000 0.002035 0.000000 0.022141
#
#
# Mechanical properties :
#
#
# Convention : Reuss Voigt Hill
#
# Bulk Modulus (GPa) = 35.88728 40.57171 38.22950
# Shear Modulus (GPa) = 38.49861 41.47986 39.98924
#
# Velocity S-wave (km/s) = 3.82348 3.96876 3.89680
# Velocity P-wave (km/s) = 5.75495 6.03388 5.89606
#
# Compressibility (1/GPa) = 0.02786502
#
# Stress axis : x y z
#
# Youngs Moduli (GPa) = 54.98714 133.18391 83.74278
#
# Poissons Ratio (x) = 0.24404 0.20087
# Poissons Ratio (y) = 0.10076 0.05480
# Poissons Ratio (z) = 0.13189 0.08716
#
# Static dielectric constant tensor:
#      x y z
#    x 2.172310 0.000000 -0.008310 
#    y 0.000000 2.195400 0.000000 
#    z -0.008310 0.000000 2.026050 
# 
# From -- ./inp_files/295325.got.cif
#   From: 2010.05.17/outbox.cif.g08.bks.cpg/sg15_148_cif.got.tgz:295325.got - 2010.06.03 18:47:42.
