data_PCOD9277202
_publ_section_title
;
Structure prediction by ZEFSAII (Michael W. Deem and Ramdas Pophale) SiO2 
 PCOD9277202
Probable space group: C 2/C
;
_chemical_formula_sum "Si O2"
_cell_formula_units_Z 56
_cell_length_a 20.345650
_cell_length_b 15.388322
_cell_length_c 9.998220
_cell_angle_alpha 90.000000
_cell_angle_beta 133.072948
_cell_angle_gamma 90.000000
_cell_volume 2286.634265
_symmetry_space_group_name_H-M "C 2/C"
_symmetry_group_IT_number 15
_symmetry_cell_setting 'monoclinic'
loop_
_space_group_symop_operation_xyz
x,y,z
-x,y,1/2-z
-x,-y,-z
x,-y,1/2+z
1/2+x,1/2+y,z
1/2-x,1/2+y,1/2-z
1/2-x,1/2-y,-z
1/2+x,1/2-y,1/2+z
loop_
_atom_site_type_symbol
_atom_site_label
_atom_site_fract_x
_atom_site_fract_y
_atom_site_fract_z
Si Si1 0.686449 0.922790 0.465953
Si Si2 0.725673 0.323760 0.359730
Si Si3 0.370124 0.940676 0.414137
Si Si4 0.956117 0.115354 0.822714
Si Si5 0.383819 0.631724 0.274870
Si Si6 0.613073 0.252313 0.961099
Si Si7 0.523647 0.215332 0.502890
O O1 0.671040 0.954403 0.292124
O O2 0.790875 0.918799 0.656688
O O3 0.653858 0.823597 0.428237
O O4 0.627330 0.973033 0.494337
O O5 0.750000 0.250000 0.500000
O O6 0.808055 0.379499 0.420210
O O7 0.649737 0.392676 0.306275
O O8 0.682732 0.275726 0.173583
O O9 0.458929 0.882279 0.515208
O O10 0.000000 0.079053 0.750000
O O11 0.024161 0.091683 0.038102
O O12 0.962759 0.222083 0.827558
O O13 0.395267 0.660808 0.138114
O O14 0.386921 0.723577 0.361972
O O15 0.474703 0.221858 0.578738
#
# Coordination Sequence:
#
# PCOD9277202 Si02
#       7
#     8   8   8   8   8   8   8
#     4  12  26  41  63  96 139 184 219 277 343 415
#     4  11  24  39  70 102 130 171 229 285 341 397
#     4  12  26  43  61  99 143 180 220 275 347 419
#     4   9  20  36  64 100 127 161 218 287 334 382
#     4  10  20  40  69  94 125 169 234 277 328 394
#     4  11  21  41  73  98 120 179 232 288 330 397
#     4   9  21  39  68  95 127 164 227 284 329 397
#
# _framework density 24.490141999999999
#
# number of rings (size 3 to 8) (size 9 to 14) (size 15 to 20)
#    0.857    0.571    2.857    2.571    4.000    0.571 
#    0.000    0.714    0.000    0.000    0.000    0.000 
#    0.000    0.000    0.000    0.000    0.000    0.000 
#
# Total GULP energy -156276.353445 kJ/mol
# GULP energy per Si atom -5581.298337 kJ/mol
# Density = 2.443440 g / cm^3
# Si number density = 24.490142 Si / 1000 Ang^3
#
#
#
# Elastic Constant Matrix: (Units=GPa)
#
#
# Indices 1 2 3 4 5 6 
#
# 1 85.4550 5.0381 3.2575 0.0000 -9.2621 0.0000
# 2 5.0381 70.5354 12.3355 0.0000 -1.5068 0.0000
# 3 3.2575 12.3355 91.0516 0.0000 -18.1293 0.0000
# 4 0.0000 0.0000 0.0000 10.2423 0.0000 -5.6489
# 5 -9.2621 -1.5068 -18.1293 0.0000 42.6086 0.0000
# 6 0.0000 0.0000 0.0000 -5.6489 0.0000 40.5160
#
#
#
# Elastic Compliance Matrix: (Units=1/GPa)
#
#
# Indices 1 2 3 4 5 6 
#
# 1 0.012034 -0.000840 0.000217 0.000000 0.002678 0.000000
# 2 -0.000840 0.014585 -0.002054 0.000000 -0.000541 0.000000
# 3 0.000217 -0.002054 0.012289 0.000000 0.005203 0.000000
# 4 0.000000 0.000000 0.000000 0.105767 0.000000 0.014747
# 5 0.002678 -0.000541 0.005203 0.000000 0.026246 0.000000
# 6 0.000000 0.000000 0.000000 0.014747 0.000000 0.026738
#
#
# Mechanical properties :
#
#
# Convention : Reuss Voigt Hill
#
# Bulk Modulus (GPa) = 29.80310 32.03379 30.91844
# Shear Modulus (GPa) = 23.34290 33.76743 28.55516
#
# Velocity S-wave (km/s) = 3.09067 3.71727 3.41836
# Velocity P-wave (km/s) = 4.99321 5.61541 5.31343
#
# Compressibility (1/GPa) = 0.03355356
#
# Stress axis : x y z
#
# Youngs Moduli (GPa) = 83.10049 68.56418 81.37166
#
# Poissons Ratio (x) = 0.05761 -0.01762
# Poissons Ratio (y) = 0.06982 0.16710
# Poissons Ratio (z) = -0.01800 0.14080
#
# Static dielectric constant tensor:
#      x y z
#    x 2.023040 0.000000 0.031270 
#    y 0.000000 1.996320 0.000000 
#    z 0.031270 0.000000 1.986200 
# 
# From -- ./inp_files/62795.got.cif
#   From: 2010.05.17/outbox.cif.g08.bks.cpg/sg15_32_cif.got.tgz:62795.got - 2010.06.03 18:47:42.
