data_PCOD9277708
_publ_section_title
;
Structure prediction by ZEFSAII (Michael W. Deem and Ramdas Pophale) SiO2 
 PCOD9277708
Probable space group: C 2/C
;
_chemical_formula_sum "Si O2"
_cell_formula_units_Z 60
_cell_length_a 12.392959
_cell_length_b 16.303953
_cell_length_c 15.570124
_cell_angle_alpha 90.000000
_cell_angle_beta 118.025790
_cell_angle_gamma 90.000000
_cell_volume 2777.096226
_symmetry_space_group_name_H-M "C 2/C"
_symmetry_group_IT_number 15
_symmetry_cell_setting 'monoclinic'
loop_
_space_group_symop_operation_xyz
x,y,z
-x,y,1/2-z
-x,-y,-z
x,-y,1/2+z
1/2+x,1/2+y,z
1/2-x,1/2+y,1/2-z
1/2-x,1/2-y,-z
1/2+x,1/2-y,1/2+z
loop_
_atom_site_type_symbol
_atom_site_label
_atom_site_fract_x
_atom_site_fract_y
_atom_site_fract_z
Si Si1 0.300779 0.464036 0.955885
Si Si2 0.206097 0.687125 0.148309
Si Si3 0.913547 0.297133 0.138349
Si Si4 0.983241 0.232822 0.484456
Si Si5 0.445658 0.572361 0.889058
Si Si6 0.725725 0.213806 0.358212
Si Si7 0.383170 0.051134 0.492836
Si Si8 0.500000 0.677106 0.750000
O O1 0.333876 0.519771 0.884504
O O2 0.255908 0.374781 0.908870
O O3 0.195020 0.491489 0.978577
O O4 0.425499 0.474873 0.058593
O O5 0.291492 0.751647 0.127435
O O6 0.229438 0.700112 0.256877
O O7 0.203533 0.594113 0.112136
O O8 0.067147 0.710822 0.074562
O O9 0.904615 0.374432 0.070424
O O10 0.000000 0.318262 0.250000
O O11 0.979337 0.232526 0.101029
O O12 0.018390 0.143526 0.530606
O O13 0.844404 0.262759 0.434808
O O14 0.433100 0.618995 0.794275
O O15 0.602554 0.264053 0.330575
O O16 0.500000 0.000000 0.500000
#
# Coordination Sequence:
#
# PCOD9277708 Si02
#       8
#     8   8   8   8   8   8   8   4
#     4  10  24  45  64  97 142 186 227 289 364 418
#     4  11  22  43  68 101 134 182 235 289 344 420
#     4  11  22  40  71 103 131 182 238 290 340 422
#     4  10  20  41  67  98 135 175 233 288 347 408
#     4  10  22  43  70  96 135 187 229 292 349 426
#     4  11  25  40  70 102 136 180 232 298 353 422
#     4  11  26  41  65  96 142 188 222 287 360 427
#     4  12  26  42  72 108 134 182 244 298 354 428
#
# _framework density 21.605298999999999
#
# number of rings (size 3 to 8) (size 9 to 14) (size 15 to 20)
#    0.000    1.333    2.667    3.200    1.867    6.400 
#    0.000    0.000    0.000    0.000    0.000    0.000 
#    0.000    0.000    0.000    0.000    0.000    0.000 
#
# Total GULP energy -167177.299849 kJ/mol
# GULP energy per Si atom -5572.576662 kJ/mol
# Density = 2.155612 g / cm^3
# Si number density = 21.605299 Si / 1000 Ang^3
#
#
#
# Elastic Constant Matrix: (Units=GPa)
#
#
# Indices 1 2 3 4 5 6 
#
# 1 122.5006 31.6704 17.6702 0.0000 -11.1578 0.0000
# 2 31.6704 53.3528 12.6362 0.0000 -13.6639 0.0000
# 3 17.6702 12.6362 72.6124 0.0000 -2.0189 0.0000
# 4 0.0000 0.0000 0.0000 9.8421 0.0000 8.6802
# 5 -11.1578 -13.6639 -2.0189 0.0000 31.2403 0.0000
# 6 0.0000 0.0000 0.0000 8.6802 0.0000 20.2267
#
#
#
# Elastic Compliance Matrix: (Units=1/GPa)
#
#
# Indices 1 2 3 4 5 6 
#
# 1 0.009819 -0.005192 -0.001454 0.000000 0.001142 0.000000
# 2 -0.005192 0.024737 -0.002797 0.000000 0.008785 0.000000
# 3 -0.001454 -0.002797 0.014590 0.000000 -0.000800 0.000000
# 4 0.000000 0.000000 0.000000 0.163477 0.000000 -0.070155
# 5 0.001142 0.008785 -0.000800 0.000000 0.036208 0.000000
# 6 0.000000 0.000000 0.000000 -0.070155 0.000000 0.079546
#
#
# Mechanical properties :
#
#
# Convention : Reuss Voigt Hill
#
# Bulk Modulus (GPa) = 33.04665 41.37996 37.21330
# Shear Modulus (GPa) = 13.99182 24.69441 19.34311
#
# Velocity S-wave (km/s) = 2.54758 3.38447 2.99539
# Velocity P-wave (km/s) = 4.89718 5.87087 5.40599
#
# Compressibility (1/GPa) = 0.03026025
#
# Stress axis : x y z
#
# Youngs Moduli (GPa) = 101.84034 40.42483 68.53926
#
# Poissons Ratio (x) = 0.20988 0.09967
# Poissons Ratio (y) = 0.52873 0.19172
# Poissons Ratio (z) = 0.14810 0.11308
#
# Static dielectric constant tensor:
#      x y z
#    x 1.924280 0.000000 0.011330 
#    y 0.000000 2.051720 0.000000 
#    z 0.011330 0.000000 1.788470 
# 
# From -- ./inp_files/146115.got.cif
#   From: 2010.05.17/outbox.cif.g08.bks.cpg/sg15_74_cif.got.tgz:146115.got - 2010.06.03 18:47:42.
