data_PCOD9277036
_publ_section_title
;
Structure prediction by ZEFSAII (Michael W. Deem and Ramdas Pophale) SiO2 
 PCOD9277036
Probable space group: C 2/C
;
_chemical_formula_sum "Si O2"
_cell_formula_units_Z 48
_cell_length_a 21.868834
_cell_length_b 12.026655
_cell_length_c 20.052312
_cell_angle_alpha 90.000000
_cell_angle_beta 152.240120
_cell_angle_gamma 90.000000
_cell_volume 2456.426425
_symmetry_space_group_name_H-M "C 2/C"
_symmetry_group_IT_number 15
_symmetry_cell_setting 'monoclinic'
loop_
_space_group_symop_operation_xyz
x,y,z
-x,y,1/2-z
-x,-y,-z
x,-y,1/2+z
1/2+x,1/2+y,z
1/2-x,1/2+y,1/2-z
1/2-x,1/2-y,-z
1/2+x,1/2-y,1/2+z
loop_
_atom_site_type_symbol
_atom_site_label
_atom_site_fract_x
_atom_site_fract_y
_atom_site_fract_z
Si Si1 0.506052 0.731746 0.357233
Si Si2 0.558845 0.938815 0.493021
Si Si3 0.276502 0.872618 0.065077
Si Si4 0.136185 0.801893 0.342151
Si Si5 0.922459 0.572302 0.245901
Si Si6 0.804279 0.957739 0.657228
O O1 0.520235 0.812119 0.435537
O O2 0.406583 0.804760 0.213998
O O3 0.647562 0.692135 0.465689
O O4 0.432598 0.614823 0.294466
O O5 0.714679 0.944745 0.635741
O O6 0.500000 0.000000 0.500000
O O7 0.511440 0.014418 0.385822
O O8 0.295181 0.994341 0.115607
O O9 0.262158 0.901795 0.973027
O O10 0.250000 0.750000 0.500000
O O11 0.108067 0.698693 0.266274
O O12 0.000000 0.823542 0.250000
O O13 0.175161 0.914912 0.343642
O O14 0.000000 0.571687 0.250000
#
# Coordination Sequence:
#
# PCOD9277036 Si02
#       6
#     8   8   8   8   8   8
#     4  11  24  38  65  99 136 165 212 275 336 391
#     4  11  25  46  64  88 133 182 215 264 341 404
#     4  11  21  36  64 103 135 161 208 277 336 392
#     4  11  21  38  62  97 137 168 213 268 329 389
#     4  10  20  40  67  93 127 174 220 265 325 397
#     4  12  22  38  65 100 132 168 221 272 334 387
#
# _framework density 19.540581
#
# number of rings (size 3 to 8) (size 9 to 14) (size 15 to 20)
#    0.000    1.000    5.000    3.000    2.333    0.000 
#    3.000    0.000    0.000    5.000    0.000    0.000 
#    0.000    0.000    0.000    0.000    0.000    0.000 
#
# Total GULP energy -133788.047091 kJ/mol
# GULP energy per Si atom -5574.501962 kJ/mol
# Density = 1.949611 g / cm^3
# Si number density = 19.540581 Si / 1000 Ang^3
#
#
#
# Elastic Constant Matrix: (Units=GPa)
#
#
# Indices 1 2 3 4 5 6 
#
# 1 96.5412 40.7942 39.2912 0.0000 17.5728 0.0000
# 2 40.7942 184.1653 41.2056 0.0000 15.1424 0.0000
# 3 39.2912 41.2056 75.1639 0.0000 30.9304 0.0000
# 4 0.0000 0.0000 0.0000 30.5298 0.0000 6.8917
# 5 17.5728 15.1424 30.9304 0.0000 25.9403 0.0000
# 6 0.0000 0.0000 0.0000 6.8917 0.0000 30.5041
#
#
#
# Elastic Compliance Matrix: (Units=1/GPa)
#
#
# Indices 1 2 3 4 5 6 
#
# 1 0.013604 -0.001640 -0.005525 0.000000 -0.001671 0.000000
# 2 -0.001640 0.006396 -0.003082 0.000000 0.001052 0.000000
# 3 -0.005525 -0.003082 0.030631 0.000000 -0.030982 0.000000
# 4 0.000000 0.000000 0.000000 0.034515 0.000000 -0.007798
# 5 -0.001671 0.001052 -0.030982 0.000000 0.076009 0.000000
# 6 0.000000 0.000000 0.000000 -0.007798 0.000000 0.034544
#
#
# Mechanical properties :
#
#
# Convention : Reuss Voigt Hill
#
# Bulk Modulus (GPa) = 33.18127 66.49472 49.83799
# Shear Modulus (GPa) = 22.10048 33.03347 27.56698
#
# Velocity S-wave (km/s) = 3.36669 4.11604 3.76008
# Velocity P-wave (km/s) = 5.66836 7.52940 6.66417
#
# Compressibility (1/GPa) = 0.03013748
#
# Stress axis : x y z
#
# Youngs Moduli (GPa) = 73.50864 156.34106 32.64653
#
# Poissons Ratio (x) = 0.25638 0.18036
# Poissons Ratio (y) = 0.12055 0.10063
# Poissons Ratio (z) = 0.40611 0.48190
#
# Static dielectric constant tensor:
#      x y z
#    x 1.728570 0.000000 0.077690 
#    y 0.000000 1.746390 0.000000 
#    z 0.077690 0.000000 1.809750 
# 
# From -- ./inp_files/252623.got.cif
#   From: 2010.05.17/outbox.cif.g08.bks.cpg/sg15_127_cif.got.tgz:252623.got - 2010.06.03 18:47:42.
