data_PCOD9277960
_publ_section_title
;
Structure prediction by ZEFSAII (Michael W. Deem and Ramdas Pophale) SiO2 
 PCOD9277960
Probable space group: C 2/C
;
_chemical_formula_sum "Si O2"
_cell_formula_units_Z 44
_cell_length_a 16.897084
_cell_length_b 9.730158
_cell_length_c 27.605884
_cell_angle_alpha 90.000000
_cell_angle_beta 153.895379
_cell_angle_gamma 90.000000
_cell_volume 1997.089076
_symmetry_space_group_name_H-M "C 2/C"
_symmetry_group_IT_number 15
_symmetry_cell_setting 'monoclinic'
loop_
_space_group_symop_operation_xyz
x,y,z
-x,y,1/2-z
-x,-y,-z
x,-y,1/2+z
1/2+x,1/2+y,z
1/2-x,1/2+y,1/2-z
1/2-x,1/2-y,-z
1/2+x,1/2-y,1/2+z
loop_
_atom_site_type_symbol
_atom_site_label
_atom_site_fract_x
_atom_site_fract_y
_atom_site_fract_z
Si Si1 0.406450 0.573529 0.509911
Si Si2 0.291716 0.231692 0.281576
Si Si3 0.459656 0.274468 0.945802
Si Si4 0.500000 0.356397 0.250000
Si Si5 0.317250 0.627322 0.174310
Si Si6 0.904156 0.660117 0.109988
O O1 0.575108 0.642698 0.630731
O O2 0.468814 0.426437 0.527130
O O3 0.365624 0.687088 0.445535
O O4 0.219416 0.544728 0.434655
O O5 0.195849 0.170927 0.276427
O O6 0.434396 0.123264 0.336718
O O7 0.158480 0.269618 0.164839
O O8 0.630953 0.179003 0.049322
O O9 0.342031 0.465342 0.176971
O O10 0.477670 0.259931 0.191711
O O11 0.500000 0.687388 0.250000
O O12 0.750000 0.750000 0.000000
#
# Coordination Sequence:
#
# PCOD9277960 Si02
#       6
#     8   8   8   4   8   8
#     4   9  21  40  60  93 130 164 207 264 314 376
#     4  10  21  39  64  95 122 166 215 253 313 386
#     4  10  20  42  63  91 130 162 212 263 315 380
#     4  10  22  44  64  90 136 162 210 266 312 380
#     4   9  23  43  63  93 129 169 207 264 324 372
#     4  10  21  40  64  94 125 170 211 255 318 377
#
# _framework density 22.032064999999999
#
# number of rings (size 3 to 8) (size 9 to 14) (size 15 to 20)
#    0.545    1.818    0.000    1.091    5.091    0.727 
#   18.000    5.455    0.000    0.000    0.000    0.000 
#    0.000    0.000    0.000    0.000    0.000    0.000 
#
# Total GULP energy -122630.491066 kJ/mol
# GULP energy per Si atom -5574.113230 kJ/mol
# Density = 2.198192 g / cm^3
# Si number density = 22.032065 Si / 1000 Ang^3
#
#
#
# Elastic Constant Matrix: (Units=GPa)
#
#
# Indices 1 2 3 4 5 6 
#
# 1 142.8112 -0.8471 61.7604 0.0002 14.0888 0.0000
# 2 -0.8471 39.4101 7.2898 0.0008 -4.7263 -0.0001
# 3 61.7604 7.2898 110.9589 0.0041 -20.7425 -0.0012
# 4 0.0002 0.0008 0.0041 31.1203 -0.0001 -3.2569
# 5 14.0888 -4.7263 -20.7425 -0.0001 53.8968 0.0000
# 6 0.0000 -0.0001 -0.0012 -3.2569 0.0000 31.8172
#
#
#
# Elastic Compliance Matrix: (Units=1/GPa)
#
#
# Indices 1 2 3 4 5 6 
#
# 1 0.010522 0.000865 -0.006911 0.000001 -0.005334 0.000000
# 2 0.000865 0.025908 -0.001941 0.000000 0.001299 0.000000
# 3 -0.006911 -0.001941 0.014323 -0.000002 0.007149 0.000000
# 4 0.000001 0.000000 -0.000002 0.032481 -0.000001 0.003325
# 5 -0.005334 0.001299 0.007149 -0.000001 0.022813 0.000000
# 6 0.000000 0.000000 0.000000 0.003325 0.000000 0.031770
#
#
# Mechanical properties :
#
#
# Convention : Reuss Voigt Hill
#
# Bulk Modulus (GPa) = 28.75266 47.73182 38.24224
# Shear Modulus (GPa) = 30.23273 38.36532 34.29903
#
# Velocity S-wave (km/s) = 3.70836 4.17746 3.94988
# Velocity P-wave (km/s) = 5.60487 6.70671 6.18040
#
# Compressibility (1/GPa) = 0.03477939
#
# Stress axis : x y z
#
# Youngs Moduli (GPa) = 95.03628 38.59878 69.81890
#
# Poissons Ratio (x) = -0.03338 0.48250
# Poissons Ratio (y) = -0.08218 0.13549
# Poissons Ratio (z) = 0.65678 0.07490
#
# Static dielectric constant tensor:
#      x y z
#    x 2.072720 0.000000 -0.005270 
#    y 0.000000 1.798660 0.000000 
#    z -0.005270 0.000000 1.809750 
# 
# From -- ./inp_files/316274.got.cif
#   From: 2010.05.17/outbox.cif.g08.bks.cpg/sg15_159_cif.got.tgz:316274.got - 2010.06.03 18:47:42.
