data_PCOD9277380
_publ_section_title
;
Structure prediction by ZEFSAII (Michael W. Deem and Ramdas Pophale) SiO2 
 PCOD9277380
Probable space group: C 2/C
;
_chemical_formula_sum "Si O2"
_cell_formula_units_Z 56
_cell_length_a 26.923262
_cell_length_b 14.464304
_cell_length_c 15.748753
_cell_angle_alpha 90.000000
_cell_angle_beta 151.867418
_cell_angle_gamma 90.000000
_cell_volume 2891.781431
_symmetry_space_group_name_H-M "C 2/C"
_symmetry_group_IT_number 15
_symmetry_cell_setting 'monoclinic'
loop_
_space_group_symop_operation_xyz
x,y,z
-x,y,1/2-z
-x,-y,-z
x,-y,1/2+z
1/2+x,1/2+y,z
1/2-x,1/2+y,1/2-z
1/2-x,1/2-y,-z
1/2+x,1/2-y,1/2+z
loop_
_atom_site_type_symbol
_atom_site_label
_atom_site_fract_x
_atom_site_fract_y
_atom_site_fract_z
Si Si1 0.490897 0.873070 0.059623
Si Si2 0.656011 0.733536 0.248272
Si Si3 0.861399 0.941657 0.107440
Si Si4 0.879793 0.440882 0.722189
Si Si5 0.000000 0.699669 0.750000
Si Si6 0.921834 0.840002 0.036043
Si Si7 0.000000 0.335888 0.750000
Si Si8 0.667640 0.347123 0.940449
O O1 0.546440 0.779646 0.110710
O O2 0.452227 0.856042 0.097891
O O3 0.577008 0.954527 0.203500
O O4 0.414261 0.899032 0.866205
O O5 0.699059 0.671790 0.390218
O O6 0.732396 0.821516 0.351075
O O7 0.638165 0.670606 0.141249
O O8 0.859990 0.900843 0.010635
O O9 0.961511 0.886591 0.297994
O O10 0.878832 0.051189 0.125187
O O11 0.746440 0.931425 0.976053
O O12 0.936325 0.394568 0.725051
O O13 0.086980 0.767864 0.844204
O O14 0.932512 0.737255 0.092292
#
# Coordination Sequence:
#
# PCOD9277380 Si02
#       8
#     8   8   8   8   4   8   4   8
#     4  10  21  37  60  89 121 158 210 264 310 375
#     4  10  20  41  61  86 123 160 208 261 315 367
#     4  10  22  40  62  91 127 167 203 258 315 378
#     4  11  21  38  62  89 124 164 208 258 315 371
#     4  10  21  37  62  90 116 156 210 257 311 378
#     4  10  23  40  62  90 130 165 209 259 314 381
#     4  10  21  39  58  84 126 166 204 261 307 372
#     4  10  21  39  64  86 123 162 203 264 314 372
#
# _framework density 19.365226
#
# number of rings (size 3 to 8) (size 9 to 14) (size 15 to 20)
#    0.000    2.000    2.857    1.286    2.000    2.857 
#    0.000    1.429    0.000    0.000    0.000    0.000 
#    0.000    0.000    0.000    0.000    0.000    0.000 
#
# Total GULP energy -155879.496354 kJ/mol
# GULP energy per Si atom -5567.124870 kJ/mol
# Density = 1.932115 g / cm^3
# Si number density = 19.365226 Si / 1000 Ang^3
#
#
#
# Elastic Constant Matrix: (Units=GPa)
#
#
# Indices 1 2 3 4 5 6 
#
# 1 88.5092 32.6124 43.8615 0.0000 -7.9209 0.0000
# 2 32.6124 84.0065 23.9410 0.0000 -5.3319 0.0000
# 3 43.8615 23.9410 71.4281 0.0000 -13.3164 0.0000
# 4 0.0000 0.0000 0.0000 -0.5728 0.0000 12.2321
# 5 -7.9209 -5.3319 -13.3164 0.0000 29.9541 0.0000
# 6 0.0000 0.0000 0.0000 12.2321 0.0000 18.3572
#
#
#
# Elastic Compliance Matrix: (Units=1/GPa)
#
#
# Indices 1 2 3 4 5 6 
#
# 1 0.017438 -0.004114 -0.009384 0.000000 -0.000293 0.000000
# 2 -0.004114 0.014136 -0.002121 0.000000 0.000485 0.000000
# 3 -0.009384 -0.002121 0.021742 0.000000 0.006807 0.000000
# 4 0.000000 0.000000 0.000000 -0.114634 0.000000 0.076385
# 5 -0.000293 0.000485 0.006807 0.000000 0.036419 0.000000
# 6 0.000000 0.000000 0.000000 0.076385 0.000000 0.003577
#
#
# Mechanical properties :
#
#
# Convention : Reuss Voigt Hill
#
# Bulk Modulus (GPa) = 45.29308 49.41927 47.35618
# Shear Modulus (GPa) = 289.40413 19.11631 154.26022
#
# Velocity S-wave (km/s) = 12.23804 3.14530 8.93484
# Velocity P-wave (km/s) = 14.93762 6.22620 11.44330
#
# Compressibility (1/GPa) = 0.02207843
#
# Stress axis : x y z
#
# Youngs Moduli (GPa) = 57.34543 70.73971 45.99306
#
# Poissons Ratio (x) = 0.29102 0.43159
# Poissons Ratio (y) = 0.23592 0.09757
# Poissons Ratio (z) = 0.53812 0.15007
#
# Static dielectric constant tensor:
#      x y z
#    x 1.726950 0.000000 0.012490 
#    y 0.000000 1.683710 0.000000 
#    z 0.012490 0.000000 1.711670 
# 
# From -- ./inp_files/178466.got.cif
#   From: 2010.05.17/outbox.cif.g08.bks.cpg/sg15_90_cif.got.tgz:178466.got - 2010.06.03 18:47:42.
