data_PCOD9277198
_publ_section_title
;
Structure prediction by ZEFSAII (Michael W. Deem and Ramdas Pophale) SiO2 
 PCOD9277198
Probable space group: C 2/C
;
_chemical_formula_sum "Si O2"
_cell_formula_units_Z 32
_cell_length_a 17.112122
_cell_length_b 7.857605
_cell_length_c 10.407408
_cell_angle_alpha 90.000000
_cell_angle_beta 54.753939
_cell_angle_gamma 90.000000
_cell_volume 1142.849957
_symmetry_space_group_name_H-M "C 2/C"
_symmetry_group_IT_number 15
_symmetry_cell_setting 'monoclinic'
loop_
_space_group_symop_operation_xyz
x,y,z
-x,y,1/2-z
-x,-y,-z
x,-y,1/2+z
1/2+x,1/2+y,z
1/2-x,1/2+y,1/2-z
1/2-x,1/2-y,-z
1/2+x,1/2-y,1/2+z
loop_
_atom_site_type_symbol
_atom_site_label
_atom_site_fract_x
_atom_site_fract_y
_atom_site_fract_z
Si Si1 0.907487 0.328847 0.431710
Si Si2 0.229206 0.575837 0.615855
Si Si3 0.853045 0.101509 0.173511
Si Si4 0.464782 0.712535 0.646951
O O1 0.165647 0.472752 0.053029
O O2 0.000000 0.308797 0.250000
O O3 0.831258 0.170544 0.497479
O O4 0.938772 0.333786 0.550871
O O5 0.256846 0.429478 0.685327
O O6 0.164177 0.718083 0.745041
O O7 0.883386 0.936135 0.229822
O O8 0.940296 0.119717 0.993572
O O9 0.500000 0.785274 0.750000
#
# Coordination Sequence:
#
# PCOD9277198 Si02
#       4
#     8   8   8   8
#     4  10  20  40  69  93 125 176 222 256 319 391
#     4  10  22  38  69  96 131 170 217 269 322 384
#     4  10  22  38  65  99 129 168 218 267 319 383
#     4  10  22  36  68  96 125 169 229 264 302 390
#
# _framework density 28.000174000000001
#
# number of rings (size 3 to 8) (size 9 to 14) (size 15 to 20)
#    0.000    2.000    2.500    0.000   14.000    0.000 
#    0.000    6.250    0.000    0.000    0.000    0.000 
#    0.000    0.000    0.000    0.000    0.000    0.000 
#
# Total GULP energy -89401.423092 kJ/mol
# GULP energy per Si atom -5587.588943 kJ/mol
# Density = 2.793644 g / cm^3
# Si number density = 28.000174 Si / 1000 Ang^3
#
#
#
# Elastic Constant Matrix: (Units=GPa)
#
#
# Indices 1 2 3 4 5 6 
#
# 1 294.1006 44.6325 69.4402 0.0000 23.4516 0.0000
# 2 44.6325 56.4148 17.7848 0.0000 -11.6646 0.0000
# 3 69.4402 17.7848 119.6990 0.0000 -14.8623 0.0000
# 4 0.0000 0.0000 0.0000 31.5094 0.0000 -23.2639
# 5 23.4516 -11.6646 -14.8623 0.0000 59.1790 0.0000
# 6 0.0000 0.0000 0.0000 -23.2639 0.0000 37.0369
#
#
#
# Elastic Compliance Matrix: (Units=1/GPa)
#
#
# Indices 1 2 3 4 5 6 
#
# 1 0.004858 -0.003685 -0.002684 0.000000 -0.003326 0.000000
# 2 -0.003685 0.021948 -0.000418 0.000000 0.005682 0.000000
# 3 -0.002684 -0.000418 0.010420 0.000000 0.003598 0.000000
# 4 0.000000 0.000000 0.000000 0.059183 0.000000 0.037174
# 5 -0.003326 0.005682 0.003598 0.000000 0.020239 0.000000
# 6 0.000000 0.000000 0.000000 0.037174 0.000000 0.050350
#
#
# Mechanical properties :
#
#
# Convention : Reuss Voigt Hill
#
# Bulk Modulus (GPa) = 42.27831 81.54772 61.91301
# Shear Modulus (GPa) = 26.53135 48.10220 37.31677
#
# Velocity S-wave (km/s) = 3.08156 4.14928 3.65462
# Velocity P-wave (km/s) = 5.27195 7.22098 6.32203
#
# Compressibility (1/GPa) = 0.02365279
#
# Stress axis : x y z
#
# Youngs Moduli (GPa) = 205.83226 45.56263 95.96891
#
# Poissons Ratio (x) = 0.16791 0.25756
# Poissons Ratio (y) = 0.75854 0.04008
# Poissons Ratio (z) = 0.55241 0.01903
#
# Static dielectric constant tensor:
#      x y z
#    x 2.368260 0.000000 0.190810 
#    y 0.000000 2.264430 0.000000 
#    z 0.190810 0.000000 2.274000 
# 
# From -- ./inp_files/103422.got.cif
#   From: 2010.05.17/outbox.cif.g08.bks.cpg/sg15_52_cif.got.tgz:103422.got - 2010.06.03 18:47:42.
