data_PCOD9277007
_publ_section_title
;
Structure prediction by ZEFSAII (Michael W. Deem and Ramdas Pophale) SiO2 
 PCOD9277007
Probable space group: C 2/C
;
_chemical_formula_sum "Si O2"
_cell_formula_units_Z 56
_cell_length_a 5.046013
_cell_length_b 20.995322
_cell_length_c 28.307039
_cell_angle_alpha 90.000000
_cell_angle_beta 115.786409
_cell_angle_gamma 90.000000
_cell_volume 2700.296409
_symmetry_space_group_name_H-M "C 2/C"
_symmetry_group_IT_number 15
_symmetry_cell_setting 'monoclinic'
loop_
_space_group_symop_operation_xyz
x,y,z
-x,y,1/2-z
-x,-y,-z
x,-y,1/2+z
1/2+x,1/2+y,z
1/2-x,1/2+y,1/2-z
1/2-x,1/2-y,-z
1/2+x,1/2-y,1/2+z
loop_
_atom_site_type_symbol
_atom_site_label
_atom_site_fract_x
_atom_site_fract_y
_atom_site_fract_z
Si Si1 0.386071 0.857367 0.011100
Si Si2 0.200887 0.352454 0.939228
Si Si3 0.394269 0.286495 0.094307
Si Si4 0.694410 0.902588 0.398488
Si Si5 0.636596 0.034165 0.362962
Si Si6 0.401575 0.356752 0.190589
Si Si7 0.471370 0.501272 0.803463
O O1 0.537795 0.876430 0.973808
O O2 0.045265 0.842924 0.976708
O O3 0.570463 0.799092 0.047870
O O4 0.416375 0.907593 0.056235
O O5 0.042051 0.286180 0.912891
O O6 0.195910 0.402675 0.896455
O O7 0.586180 0.342879 0.086086
O O8 0.425731 0.303415 0.152118
O O9 0.432386 0.881913 0.342524
O O10 0.814697 0.971589 0.394348
O O11 0.297060 0.016774 0.346236
O O12 0.729804 0.035978 0.315235
O O13 0.500000 0.334848 0.250000
O O14 0.581662 0.422433 0.195665
O O15 0.500000 0.488325 0.750000
#
# Coordination Sequence:
#
# PCOD9277007 Si02
#       7
#     8   8   8   8   8   8   8
#     4  11  24  42  62  91 118 175 212 252 302 377
#     4  12  26  39  64  87 131 165 211 249 316 372
#     4  11  22  41  63  91 123 164 207 263 304 375
#     4  10  22  39  66  88 131 155 215 260 309 363
#     4  11  23  41  59  97 125 161 203 265 314 372
#     4   9  20  37  64  96 121 157 205 262 315 364
#     4  10  20  40  67  89 120 163 210 252 308 379
#
# _framework density 20.738464
#
# number of rings (size 3 to 8) (size 9 to 14) (size 15 to 20)
#    0.000    1.429    2.857    2.143    4.000    1.714 
#    0.000    1.429    0.000    0.000    0.000    0.000 
#    0.000    0.000    0.000    0.000    0.000    0.000 
#
# Total GULP energy -156154.950888 kJ/mol
# GULP energy per Si atom -5576.962532 kJ/mol
# Density = 2.069126 g / cm^3
# Si number density = 20.738464 Si / 1000 Ang^3
#
#
#
# Elastic Constant Matrix: (Units=GPa)
#
#
# Indices 1 2 3 4 5 6 
#
# 1 127.0821 25.4937 31.8899 0.0000 -9.8682 0.0000
# 2 25.4937 90.4520 46.3225 0.0000 -9.2940 0.0000
# 3 31.8899 46.3225 107.0985 0.0000 -16.2699 0.0000
# 4 0.0000 0.0000 0.0000 -34.9229 0.0000 14.8514
# 5 -9.8682 -9.2940 -16.2699 0.0000 37.3283 0.0000
# 6 0.0000 0.0000 0.0000 14.8514 0.0000 10.3736
#
#
#
# Elastic Compliance Matrix: (Units=1/GPa)
#
#
# Indices 1 2 3 4 5 6 
#
# 1 0.008694 -0.001407 -0.001804 0.000000 0.001162 0.000000
# 2 -0.001407 0.014459 -0.005723 0.000000 0.000733 0.000000
# 3 -0.001804 -0.005723 0.012916 0.000000 0.003728 0.000000
# 4 0.000000 0.000000 0.000000 -0.017798 0.000000 0.025481
# 5 0.001162 0.000733 0.003728 0.000000 0.028904 0.000000
# 6 0.000000 0.000000 0.000000 0.025481 0.000000 0.059919
#
#
# Mechanical properties :
#
#
# Convention : Reuss Voigt Hill
#
# Bulk Modulus (GPa) = 54.94391 59.11608 57.03000
# Shear Modulus (GPa) = 38.15990 17.28423 27.72207
#
# Velocity S-wave (km/s) = 4.29424 2.89007 3.66012
# Velocity P-wave (km/s) = 7.15112 6.30111 6.73953
#
# Compressibility (1/GPa) = 0.01820038
#
# Stress axis : x y z
#
# Youngs Moduli (GPa) = 115.02098 69.16304 77.42374
#
# Poissons Ratio (x) = 0.09734 0.13964
# Poissons Ratio (y) = 0.16188 0.44311
# Poissons Ratio (z) = 0.20744 0.39583
#
# Static dielectric constant tensor:
#      x y z
#    x 1.843150 0.000000 -0.028570 
#    y 0.000000 1.748400 0.000000 
#    z -0.028570 0.000000 1.784780 
# 
# From -- ./inp_files/286448.got.cif
#   From: 2010.05.17/outbox.cif.g08.bks.cpg/sg15_144_cif.got.tgz:286448.got - 2010.06.03 18:47:42.
