data_PCOD9277728
_publ_section_title
;
Structure prediction by ZEFSAII (Michael W. Deem and Ramdas Pophale) SiO2 
 PCOD9277728
Probable space group: C 2/C
;
_chemical_formula_sum "Si O2"
_cell_formula_units_Z 48
_cell_length_a 9.893258
_cell_length_b 14.706764
_cell_length_c 17.526185
_cell_angle_alpha 90.000000
_cell_angle_beta 78.823792
_cell_angle_gamma 90.000000
_cell_volume 2501.662239
_symmetry_space_group_name_H-M "C 2/C"
_symmetry_group_IT_number 15
_symmetry_cell_setting 'monoclinic'
loop_
_space_group_symop_operation_xyz
x,y,z
-x,y,1/2-z
-x,-y,-z
x,-y,1/2+z
1/2+x,1/2+y,z
1/2-x,1/2+y,1/2-z
1/2-x,1/2-y,-z
1/2+x,1/2-y,1/2+z
loop_
_atom_site_type_symbol
_atom_site_label
_atom_site_fract_x
_atom_site_fract_y
_atom_site_fract_z
Si Si1 0.920680 0.376277 0.185373
Si Si2 0.991014 0.709262 0.336064
Si Si3 0.125559 0.103520 0.794027
Si Si4 0.191269 0.240056 0.419968
Si Si5 0.122824 0.964426 0.933272
Si Si6 0.056366 0.530191 0.074563
O O1 0.769839 0.400176 0.234111
O O2 0.901703 0.314896 0.111619
O O3 0.000000 0.334300 0.250000
O O4 0.005122 0.463280 0.146873
O O5 0.093185 0.795184 0.331692
O O6 0.000000 0.669399 0.250000
O O7 0.833880 0.742967 0.357836
O O8 0.999142 0.630179 0.397183
O O9 0.000000 0.088318 0.750000
O O10 0.121095 0.026611 0.858610
O O11 0.250000 0.250000 0.500000
O O12 0.114025 0.143791 0.420871
O O13 0.278127 0.972086 0.948799
O O14 0.000000 0.000000 0.000000
O O15 0.000000 0.500000 0.000000
#
# Coordination Sequence:
#
# PCOD9277728 Si02
#       6
#     8   8   8   8   8   8
#     4  12  23  42  66 102 136 166 228 285 331 389
#     4  10  20  41  68  90 120 177 224 250 321 410
#     4  11  23  41  69  96 129 175 218 275 328 394
#     4  11  23  43  70  94 133 181 219 261 337 412
#     4  11  25  44  65  97 130 169 224 272 327 400
#     4  11  25  42  66  93 131 178 215 272 337 400
#
# _framework density 19.187242000000001
#
# number of rings (size 3 to 8) (size 9 to 14) (size 15 to 20)
#    0.000    1.000    5.000    3.500    4.667    0.667 
#    3.000    1.667    0.000    0.000    0.000    0.000 
#    0.000    0.000    0.000    0.000    0.000    0.000 
#
# Total GULP energy -133878.182756 kJ/mol
# GULP energy per Si atom -5578.257615 kJ/mol
# Density = 1.914357 g / cm^3
# Si number density = 19.187242 Si / 1000 Ang^3
#
#
#
# Elastic Constant Matrix: (Units=GPa)
#
#
# Indices 1 2 3 4 5 6 
#
# 1 89.3884 18.2308 31.6166 0.0000 -13.6867 0.0000
# 2 18.2308 109.4938 36.9961 0.0000 3.5914 0.0000
# 3 31.6166 36.9961 109.3503 0.0000 9.2370 0.0000
# 4 0.0000 0.0000 0.0000 33.8305 0.0000 6.9716
# 5 -13.6867 3.5914 9.2370 0.0000 48.7737 0.0000
# 6 0.0000 0.0000 0.0000 6.9716 0.0000 28.2886
#
#
#
# Elastic Compliance Matrix: (Units=1/GPa)
#
#
# Indices 1 2 3 4 5 6 
#
# 1 0.013502 -0.001071 -0.003931 0.000000 0.004612 0.000000
# 2 -0.001071 0.010397 -0.003169 0.000000 -0.000466 0.000000
# 3 -0.003931 -0.003169 0.011613 0.000000 -0.003069 0.000000
# 4 0.000000 0.000000 0.000000 0.031141 0.000000 -0.007674
# 5 0.004612 -0.000466 -0.003069 0.000000 0.022413 0.000000
# 6 0.000000 0.000000 0.000000 -0.007674 0.000000 0.037241
#
#
# Mechanical properties :
#
#
# Convention : Reuss Voigt Hill
#
# Bulk Modulus (GPa) = 52.16342 53.54660 52.85501
# Shear Modulus (GPa) = 33.54833 36.93784 35.24308
#
# Velocity S-wave (km/s) = 4.18601 4.39238 4.29044
# Velocity P-wave (km/s) = 7.11401 7.32749 7.22153
#
# Compressibility (1/GPa) = 0.01917052
#
# Stress axis : x y z
#
# Youngs Moduli (GPa) = 74.06170 96.18003 86.11190
#
# Poissons Ratio (x) = 0.10302 0.33852
# Poissons Ratio (y) = 0.07933 0.27285
# Poissons Ratio (z) = 0.29115 0.30475
#
# Static dielectric constant tensor:
#      x y z
#    x 1.683540 0.000000 -0.041070 
#    y 0.000000 1.709770 0.000000 
#    z -0.041070 0.000000 1.753830 
# 
# From -- ./inp_files/182513.got.cif
#   From: 2010.05.17/outbox.cif.g08.bks.cpg/sg15_92_cif.got.tgz:182513.got - 2010.06.03 18:47:42.
