data_PCOD9277610
_publ_section_title
;
Structure prediction by ZEFSAII (Michael W. Deem and Ramdas Pophale) SiO2 
 PCOD9277610
Probable space group: C 2/C
;
_chemical_formula_sum "Si O2"
_cell_formula_units_Z 48
_cell_length_a 15.058288
_cell_length_b 12.387635
_cell_length_c 13.313655
_cell_angle_alpha 90.000000
_cell_angle_beta 111.647622
_cell_angle_gamma 90.000000
_cell_volume 2308.323994
_symmetry_space_group_name_H-M "C 2/C"
_symmetry_group_IT_number 15
_symmetry_cell_setting 'monoclinic'
loop_
_space_group_symop_operation_xyz
x,y,z
-x,y,1/2-z
-x,-y,-z
x,-y,1/2+z
1/2+x,1/2+y,z
1/2-x,1/2+y,1/2-z
1/2-x,1/2-y,-z
1/2+x,1/2-y,1/2+z
loop_
_atom_site_type_symbol
_atom_site_label
_atom_site_fract_x
_atom_site_fract_y
_atom_site_fract_z
Si Si1 0.204879 0.100187 0.197273
Si Si2 0.545635 0.118593 0.873683
Si Si3 0.438357 0.756025 0.488387
Si Si4 0.825103 0.821664 0.591478
Si Si5 0.911377 0.922893 0.443981
Si Si6 0.897284 0.603038 0.151561
O O1 0.133391 0.180715 0.106077
O O2 0.205403 0.135981 0.313323
O O3 0.309880 0.103195 0.193057
O O4 0.158760 0.980608 0.163694
O O5 0.500000 0.087360 0.750000
O O6 0.474093 0.144823 0.933775
O O7 0.591155 0.234004 0.865684
O O8 0.608255 0.010881 0.913781
O O9 0.536158 0.690374 0.557296
O O10 0.389637 0.801583 0.567240
O O11 0.750000 0.750000 0.500000
O O12 0.857303 0.912795 0.527415
O O13 0.000000 0.000000 0.500000
O O14 0.000000 0.620047 0.250000
#
# Coordination Sequence:
#
# PCOD9277610 Si02
#       6
#     8   8   8   8   8   8
#     4  11  23  45  65  97 133 172 222 275 329 394
#     4  10  20  41  66  91 125 170 216 262 327 397
#     4  10  21  43  69  92 131 175 223 273 330 391
#     4  11  23  41  68  96 128 173 220 264 325 402
#     4   9  22  42  67  97 127 167 223 271 329 389
#     4  11  25  41  60 100 134 173 219 275 335 384
#
# _framework density 20.794308000000001
#
# number of rings (size 3 to 8) (size 9 to 14) (size 15 to 20)
#    0.000    1.667    1.667    2.000    4.667    0.000 
#   12.000    0.000    0.000    0.000    0.000    0.000 
#    0.000    0.000    0.000    0.000    0.000    0.000 
#
# Total GULP energy -133759.534992 kJ/mol
# GULP energy per Si atom -5573.313958 kJ/mol
# Density = 2.074698 g / cm^3
# Si number density = 20.794308 Si / 1000 Ang^3
#
#
#
# Elastic Constant Matrix: (Units=GPa)
#
#
# Indices 1 2 3 4 5 6 
#
# 1 126.9946 25.6361 45.4747 0.0000 -11.5029 0.0000
# 2 25.6361 65.8165 41.9456 0.0000 -14.4917 0.0000
# 3 45.4747 41.9456 90.6274 0.0000 -6.1296 0.0000
# 4 0.0000 0.0000 0.0000 39.3956 0.0000 -4.1974
# 5 -11.5029 -14.4917 -6.1296 0.0000 26.6953 0.0000
# 6 0.0000 0.0000 0.0000 -4.1974 0.0000 33.2192
#
#
#
# Elastic Compliance Matrix: (Units=1/GPa)
#
#
# Indices 1 2 3 4 5 6 
#
# 1 0.009856 -0.000204 -0.004644 0.000000 0.003070 0.000000
# 2 -0.000204 0.024256 -0.010401 0.000000 0.010691 0.000000
# 3 -0.004644 -0.010401 0.017940 0.000000 -0.003528 0.000000
# 4 0.000000 0.000000 0.000000 0.025730 0.000000 0.003251
# 5 0.003070 0.010691 -0.003528 0.000000 0.043776 0.000000
# 6 0.000000 0.000000 0.000000 0.003251 0.000000 0.030514
#
#
# Mechanical properties :
#
#
# Convention : Reuss Voigt Hill
#
# Bulk Modulus (GPa) = 46.39325 56.61681 51.50503
# Shear Modulus (GPa) = 26.34980 31.22084 28.78532
#
# Velocity S-wave (km/s) = 3.56359 3.87901 3.72464
# Velocity P-wave (km/s) = 6.26827 6.88102 6.58178
#
# Compressibility (1/GPa) = 0.02155486
#
# Stress axis : x y z
#
# Youngs Moduli (GPa) = 101.45664 41.22695 55.74201
#
# Poissons Ratio (x) = 0.00839 0.25886
# Poissons Ratio (y) = 0.02065 0.57979
# Poissons Ratio (z) = 0.47115 0.42881
#
# Static dielectric constant tensor:
#      x y z
#    x 1.722680 0.000000 0.043420 
#    y 0.000000 1.911440 0.000000 
#    z 0.043420 0.000000 1.725720 
# 
# From -- ./inp_files/96531.got.cif
#   From: 2010.05.17/outbox.cif.g08.bks.cpg/sg15_49_cif.got.tgz:96531.got - 2010.06.03 18:47:42.
