data_PCOD9277851
_publ_section_title
;
Structure prediction by ZEFSAII (Michael W. Deem and Ramdas Pophale) SiO2 
 PCOD9277851
Probable space group: C 2/C
;
_chemical_formula_sum "Si O2"
_cell_formula_units_Z 64
_cell_length_a 11.601821
_cell_length_b 16.159905
_cell_length_c 25.879591
_cell_angle_alpha 90.000000
_cell_angle_beta 39.565312
_cell_angle_gamma 90.000000
_cell_volume 3090.528497
_symmetry_space_group_name_H-M "C 2/C"
_symmetry_group_IT_number 15
_symmetry_cell_setting 'monoclinic'
loop_
_space_group_symop_operation_xyz
x,y,z
-x,y,1/2-z
-x,-y,-z
x,-y,1/2+z
1/2+x,1/2+y,z
1/2-x,1/2+y,1/2-z
1/2-x,1/2-y,-z
1/2+x,1/2-y,1/2+z
loop_
_atom_site_type_symbol
_atom_site_label
_atom_site_fract_x
_atom_site_fract_y
_atom_site_fract_z
Si Si1 0.320510 0.045443 0.344316
Si Si2 0.379136 0.682158 0.832833
Si Si3 0.800146 0.355018 0.342506
Si Si4 0.895168 0.305808 0.422307
Si Si5 0.534774 0.747766 0.586971
Si Si6 0.701637 0.676504 0.322261
Si Si7 0.081517 0.581991 0.343346
Si Si8 0.917540 0.445185 0.074418
O O1 0.500000 0.071946 0.250000
O O2 0.162946 0.106031 0.379154
O O3 0.398944 0.054699 0.374950
O O4 0.279027 0.953005 0.341116
O O5 0.500000 0.633491 0.750000
O O6 0.472848 0.719822 0.850412
O O7 0.310868 0.758610 0.821221
O O8 0.229006 0.616278 0.900053
O O9 0.819998 0.343441 0.396299
O O10 0.618624 0.308181 0.387094
O O11 0.000000 0.331215 0.250000
O O12 0.750000 0.250000 0.500000
O O13 0.956347 0.378949 0.439305
O O14 0.051652 0.239707 0.353953
O O15 0.750000 0.750000 0.500000
O O16 0.470567 0.841509 0.602706
O O17 0.782833 0.623987 0.245841
O O18 0.146456 0.506800 0.356956
O O19 0.000000 0.500000 0.000000
#
# Coordination Sequence:
#
# PCOD9277851 Si02
#       8
#     8   8   8   8   8   8   8   8
#     4   9  18  37  67 100 129 163 226 294 346 402
#     4  11  22  43  72 100 134 185 238 289 354 428
#     4  11  25  45  70 104 138 183 240 296 352 425
#     4  11  26  46  67  96 144 192 232 289 368 432
#     4  12  26  42  69 102 142 183 237 289 357 432
#     4  10  20  41  73 100 132 179 238 289 353 423
#     4  11  20  42  69  98 134 179 232 290 347 423
#     4  11  26  46  68  98 147 187 228 297 371 422
#
# _framework density 20.708431999999998
#
# number of rings (size 3 to 8) (size 9 to 14) (size 15 to 20)
#    0.000    1.250    3.750    1.875    7.000    0.000 
#    6.750    1.875    0.000    0.000    0.000    0.000 
#    0.000    0.000    0.000    0.000    0.000    0.000 
#
# Total GULP energy -178139.456368 kJ/mol
# GULP energy per Si atom -5566.858011 kJ/mol
# Density = 2.066130 g / cm^3
# Si number density = 20.708432 Si / 1000 Ang^3
#
#
#
# Elastic Constant Matrix: (Units=GPa)
#
#
# Indices 1 2 3 4 5 6 
#
# 1 69.9450 31.3176 17.4302 0.0000 1.7758 0.0001
# 2 31.3176 119.9973 31.2972 0.0002 -9.4913 0.0001
# 3 17.4302 31.2972 57.6457 0.0008 5.0220 0.0008
# 4 0.0000 0.0002 0.0008 23.1369 0.0000 8.2100
# 5 1.7758 -9.4913 5.0220 0.0000 24.6532 -0.0001
# 6 0.0001 0.0001 0.0008 8.2100 -0.0001 21.4851
#
#
#
# Elastic Compliance Matrix: (Units=1/GPa)
#
#
# Indices 1 2 3 4 5 6 
#
# 1 0.016756 -0.003804 -0.002819 0.000000 -0.002097 0.000000
# 2 -0.003804 0.011190 -0.005420 0.000000 0.005686 0.000000
# 3 -0.002819 -0.005420 0.021692 0.000000 -0.006302 -0.000001
# 4 0.000000 0.000000 0.000000 0.050001 0.000000 -0.019106
# 5 -0.002097 0.005686 -0.006302 0.000000 0.044187 0.000000
# 6 0.000000 0.000000 -0.000001 -0.019106 0.000000 0.053845
#
#
# Mechanical properties :
#
#
# Convention : Reuss Voigt Hill
#
# Bulk Modulus (GPa) = 39.13655 45.29755 42.21705
# Shear Modulus (GPa) = 21.71347 25.02457 23.36902
#
# Velocity S-wave (km/s) = 3.24162 3.48001 3.36293
# Velocity P-wave (km/s) = 5.74027 6.16999 5.95900
#
# Compressibility (1/GPa) = 0.02555156
#
# Stress axis : x y z
#
# Youngs Moduli (GPa) = 59.68126 89.36767 46.10098
#
# Poissons Ratio (x) = 0.33993 0.12994
# Poissons Ratio (y) = 0.22701 0.24989
# Poissons Ratio (z) = 0.16821 0.48441
#
# Static dielectric constant tensor:
#      x y z
#    x 1.757520 0.000000 -0.059560 
#    y 0.000000 1.700870 0.000000 
#    z -0.059560 0.000000 1.768030 
# 
# From -- ./inp_files/293042.got.cif
#   From: 2010.05.17/outbox.cif.g08.bks.cpg/sg15_147_cif.got.tgz:293042.got - 2010.06.03 18:47:42.
