data_PCOD9277224
_publ_section_title
;
Structure prediction by ZEFSAII (Michael W. Deem and Ramdas Pophale) SiO2 
 PCOD9277224
Probable space group: C 2/C
;
_chemical_formula_sum "Si O2"
_cell_formula_units_Z 60
_cell_length_a 23.531538
_cell_length_b 8.868286
_cell_length_c 14.508652
_cell_angle_alpha 90.000000
_cell_angle_beta 118.988988
_cell_angle_gamma 90.000000
_cell_volume 2648.393930
_symmetry_space_group_name_H-M "C 2/C"
_symmetry_group_IT_number 15
_symmetry_cell_setting 'monoclinic'
loop_
_space_group_symop_operation_xyz
x,y,z
-x,y,1/2-z
-x,-y,-z
x,-y,1/2+z
1/2+x,1/2+y,z
1/2-x,1/2+y,1/2-z
1/2-x,1/2-y,-z
1/2+x,1/2-y,1/2+z
loop_
_atom_site_type_symbol
_atom_site_label
_atom_site_fract_x
_atom_site_fract_y
_atom_site_fract_z
Si Si1 0.922281 0.074733 0.529784
Si Si2 0.318573 0.850298 0.276490
Si Si3 0.500000 0.590521 0.250000
Si Si4 0.892865 0.263073 0.980381
Si Si5 0.963051 0.278066 0.398571
Si Si6 0.819479 0.175590 0.573382
Si Si7 0.315925 0.683328 0.090079
Si Si8 0.800313 0.682445 0.238987
O O1 0.960221 0.156693 0.478886
O O2 0.868474 0.189785 0.526643
O O3 0.896839 0.918145 0.466537
O O4 0.958965 0.018056 0.650613
O O5 0.395785 0.870025 0.357518
O O6 0.320741 0.724779 0.199378
O O7 0.265021 0.782273 0.303872
O O8 0.288894 0.005466 0.213560
O O9 0.465062 0.695506 0.299642
O O10 0.839642 0.317170 0.866051
O O11 0.869026 0.264239 0.067219
O O12 0.963554 0.341005 0.032374
O O13 0.750000 0.250000 0.500000
O O14 0.841532 0.248570 0.687267
O O15 0.815004 0.995715 0.579521
O O16 0.250000 0.750000 0.000000
#
# Coordination Sequence:
#
# PCOD9277224 Si02
#       8
#     8   8   4   8   8   8   8   8
#     4  10  23  38  69 102 138 175 226 282 344 410
#     4  12  26  44  70 101 135 185 232 287 358 412
#     4  10  20  40  70 104 130 184 228 282 340 418
#     4  10  23  42  69  99 134 180 228 281 343 421
#     4  11  23  42  70 100 138 183 230 283 346 418
#     4  11  24  41  66 100 140 175 229 286 340 415
#     4  11  22  43  70 100 137 182 229 282 348 413
#     4  12  27  43  71 100 137 180 232 293 347 420
#
# _framework density 22.655241
#
# number of rings (size 3 to 8) (size 9 to 14) (size 15 to 20)
#    0.000    1.067    1.333    6.400    9.333    0.533 
#    2.400    0.000    5.867    0.000    0.000    0.000 
#    0.000    0.000    0.000    0.000    0.000    0.000 
#
# Total GULP energy -167417.264013 kJ/mol
# GULP energy per Si atom -5580.575467 kJ/mol
# Density = 2.260368 g / cm^3
# Si number density = 22.655241 Si / 1000 Ang^3
#
#
#
# Elastic Constant Matrix: (Units=GPa)
#
#
# Indices 1 2 3 4 5 6 
#
# 1 124.3661 26.2863 9.7207 0.0000 -7.8257 0.0000
# 2 26.2863 60.5750 6.3205 0.0000 -5.4190 0.0000
# 3 9.7207 6.3205 87.3974 0.0000 -9.0810 0.0000
# 4 0.0000 0.0000 0.0000 27.4404 0.0000 0.5495
# 5 -7.8257 -5.4190 -9.0810 0.0000 41.4255 0.0000
# 6 0.0000 0.0000 0.0000 0.5495 0.0000 25.5395
#
#
#
# Elastic Compliance Matrix: (Units=1/GPa)
#
#
# Indices 1 2 3 4 5 6 
#
# 1 0.008942 -0.003721 -0.000615 0.000000 0.001068 0.000000
# 2 -0.003721 0.018339 -0.000753 0.000000 0.001531 0.000000
# 3 -0.000615 -0.000753 0.011812 0.000000 0.002375 0.000000
# 4 0.000000 0.000000 0.000000 0.036458 0.000000 -0.000784
# 5 0.001068 0.001531 0.002375 0.000000 0.025062 0.000000
# 6 0.000000 0.000000 0.000000 -0.000784 0.000000 0.039172
#
#
# Mechanical properties :
#
#
# Convention : Reuss Voigt Hill
#
# Bulk Modulus (GPa) = 34.58397 39.66595 37.12496
# Shear Modulus (GPa) = 31.32809 34.21514 32.77161
#
# Velocity S-wave (km/s) = 3.72266 3.89041 3.80746
# Velocity P-wave (km/s) = 5.81172 6.14223 5.97926
#
# Compressibility (1/GPa) = 0.02891513
#
# Stress axis : x y z
#
# Youngs Moduli (GPa) = 111.82607 54.52958 84.66285
#
# Poissons Ratio (x) = 0.20290 0.05203
# Poissons Ratio (y) = 0.41609 0.06378
# Poissons Ratio (z) = 0.06872 0.04108
#
# Static dielectric constant tensor:
#      x y z
#    x 1.982750 0.000000 0.041150 
#    y 0.000000 1.812460 0.000000 
#    z 0.041150 0.000000 1.880630 
# 
# From -- ./inp_files/172442.got.cif
#   From: 2010.05.17/outbox.cif.g08.bks.cpg/sg15_87_cif.got.tgz:172442.got - 2010.06.03 18:47:42.
