data_PCOD9277737
_publ_section_title
;
Structure prediction by ZEFSAII (Michael W. Deem and Ramdas Pophale) SiO2 
 PCOD9277737
Probable space group: C 2/C
;
_chemical_formula_sum "Si O2"
_cell_formula_units_Z 32
_cell_length_a 6.909154
_cell_length_b 9.328494
_cell_length_c 18.400314
_cell_angle_alpha 90.000000
_cell_angle_beta 78.353305
_cell_angle_gamma 90.000000
_cell_volume 1161.519868
_symmetry_space_group_name_H-M "C 2/C"
_symmetry_group_IT_number 15
_symmetry_cell_setting 'monoclinic'
loop_
_space_group_symop_operation_xyz
x,y,z
-x,y,1/2-z
-x,-y,-z
x,-y,1/2+z
1/2+x,1/2+y,z
1/2-x,1/2+y,1/2-z
1/2-x,1/2-y,-z
1/2+x,1/2-y,1/2+z
loop_
_atom_site_type_symbol
_atom_site_label
_atom_site_fract_x
_atom_site_fract_y
_atom_site_fract_z
Si Si1 0.282145 0.078468 0.507844
Si Si2 0.259378 0.331248 0.775378
Si Si3 0.224080 0.672144 0.579980
Si Si4 0.221825 0.623545 0.840693
O O1 0.250000 0.250000 0.500000
O O2 0.183160 0.057105 0.594255
O O3 0.500000 0.000000 0.500000
O O4 0.206076 0.989295 0.444524
O O5 0.500000 0.324428 0.750000
O O6 0.192216 0.252443 0.855395
O O7 0.204384 0.496416 0.784601
O O8 0.186699 0.256012 0.707663
O O9 0.250000 0.750000 0.500000
O O10 0.992777 0.669138 0.615768
#
# Coordination Sequence:
#
# PCOD9277737 Si02
#       4
#     8   8   8   8
#     4  10  22  42  67  99 132 176 236 292 356 421
#     4  10  22  41  59  93 132 177 227 282 356 423
#     4  10  20  41  68  92 133 174 230 294 347 431
#     4  10  22  41  63  94 132 174 230 281 356 432
#
# _framework density 27.55011
#
# number of rings (size 3 to 8) (size 9 to 14) (size 15 to 20)
#    0.000    2.000    2.500    0.000    3.500    0.000 
#    9.000    5.000    0.000    0.000    0.000    0.000 
#    0.000    0.000    0.000    0.000    0.000    0.000 
#
# Total GULP energy -89415.722008 kJ/mol
# GULP energy per Si atom -5588.482625 kJ/mol
# Density = 2.748740 g / cm^3
# Si number density = 27.550110 Si / 1000 Ang^3
#
#
#
# Elastic Constant Matrix: (Units=GPa)
#
#
# Indices 1 2 3 4 5 6 
#
# 1 130.6221 7.1512 27.5642 0.0000 -7.9417 0.0000
# 2 7.1512 169.9468 68.3103 0.0000 -7.1413 0.0000
# 3 27.5642 68.3103 173.1855 0.0000 -16.3100 0.0000
# 4 0.0000 0.0000 0.0000 84.1619 0.0000 -3.4880
# 5 -7.9417 -7.1413 -16.3100 0.0000 43.9165 0.0000
# 6 0.0000 0.0000 0.0000 -3.4880 0.0000 27.0486
#
#
#
# Elastic Compliance Matrix: (Units=1/GPa)
#
#
# Indices 1 2 3 4 5 6 
#
# 1 0.007971 0.000212 -0.001257 0.000000 0.001009 0.000000
# 2 0.000212 0.006999 -0.002781 0.000000 0.000144 0.000000
# 3 -0.001257 -0.002781 0.007261 0.000000 0.002017 0.000000
# 4 0.000000 0.000000 0.000000 0.011946 0.000000 0.001540
# 5 0.001009 0.000144 0.002017 0.000000 0.023725 0.000000
# 6 0.000000 0.000000 0.000000 0.001540 0.000000 0.037169
#
#
# Mechanical properties :
#
#
# Convention : Reuss Voigt Hill
#
# Bulk Modulus (GPa) = 68.59132 75.53399 72.06266
# Shear Modulus (GPa) = 46.47581 55.74063 51.10822
#
# Velocity S-wave (km/s) = 4.11171 4.50293 4.31176
# Velocity P-wave (km/s) = 6.89148 7.38320 7.14157
#
# Compressibility (1/GPa) = 0.01457910
#
# Stress axis : x y z
#
# Youngs Moduli (GPa) = 125.45913 142.87541 137.71919
#
# Poissons Ratio (x) = -0.03035 0.17317
# Poissons Ratio (y) = -0.02665 0.38299
# Poissons Ratio (z) = 0.15775 0.39733
#
# Static dielectric constant tensor:
#      x y z
#    x 2.389020 0.000000 0.090580 
#    y 0.000000 2.219750 0.000000 
#    z 0.090580 0.000000 2.119090 
# 
# From -- ./inp_files/194715.got.cif
#   From: 2010.05.17/outbox.cif.g08.bks.cpg/sg15_98_cif.got.tgz:194715.got - 2010.06.03 18:47:42.
