data_PCOD9277967
_publ_section_title
;
Structure prediction by ZEFSAII (Michael W. Deem and Ramdas Pophale) SiO2 
 PCOD9277967
Probable space group: C 2/C
;
_chemical_formula_sum "Si O2"
_cell_formula_units_Z 52
_cell_length_a 17.285172
_cell_length_b 8.223072
_cell_length_c 14.456642
_cell_angle_alpha 90.000000
_cell_angle_beta 80.103133
_cell_angle_gamma 90.000000
_cell_volume 2024.248375
_symmetry_space_group_name_H-M "C 2/C"
_symmetry_group_IT_number 15
_symmetry_cell_setting 'monoclinic'
loop_
_space_group_symop_operation_xyz
x,y,z
-x,y,1/2-z
-x,-y,-z
x,-y,1/2+z
1/2+x,1/2+y,z
1/2-x,1/2+y,1/2-z
1/2-x,1/2-y,-z
1/2+x,1/2-y,1/2+z
loop_
_atom_site_type_symbol
_atom_site_label
_atom_site_fract_x
_atom_site_fract_y
_atom_site_fract_z
Si Si1 0.694289 0.098667 0.029858
Si Si2 0.546953 0.349398 0.154478
Si Si3 0.000000 0.478732 0.750000
Si Si4 0.881454 0.551106 0.629212
Si Si5 0.101186 0.176271 0.921339
Si Si6 0.677582 0.597088 0.093434
Si Si7 0.734524 0.096784 0.692115
O O1 0.621301 0.123919 0.973910
O O2 0.741670 0.948140 0.973980
O O3 0.750000 0.250000 0.000000
O O4 0.697071 0.043800 0.135464
O O5 0.500000 0.425535 0.250000
O O6 0.486634 0.378528 0.083698
O O7 0.630410 0.434966 0.131573
O O8 0.548360 0.156464 0.179468
O O9 0.948813 0.588927 0.690974
O O10 0.894780 0.360404 0.613763
O O11 0.798353 0.579690 0.697937
O O12 0.172359 0.091059 0.848989
O O13 0.121883 0.168136 0.024424
O O14 0.698939 0.731761 0.163948
#
# Coordination Sequence:
#
# PCOD9277967 Si02
#       7
#     8   8   4   8   8   8   8
#     4  11  25  40  66 101 130 170 232 270 339 408
#     4   9  21  35  67  93 130 172 225 261 337 413
#     4   8  22  42  60  98 136 184 218 276 354 396
#     4  11  22  43  66  90 139 173 223 279 332 410
#     4  10  20  42  63  94 131 175 217 273 342 393
#     4  11  21  43  63  95 133 170 222 282 333 400
#     4  11  24  39  69  96 126 180 217 284 345 387
#
# _framework density 25.688548000000001
#
# number of rings (size 3 to 8) (size 9 to 14) (size 15 to 20)
#    0.462    1.231    3.077    1.385    6.462    0.000 
#    4.154    2.308    0.000    0.000    0.000    0.000 
#    0.000    0.000    0.000    0.000    0.000    0.000 
#
# Total GULP energy -145255.658961 kJ/mol
# GULP energy per Si atom -5586.756114 kJ/mol
# Density = 2.563008 g / cm^3
# Si number density = 25.688548 Si / 1000 Ang^3
#
#
#
# Elastic Constant Matrix: (Units=GPa)
#
#
# Indices 1 2 3 4 5 6 
#
# 1 126.6427 19.8021 4.4678 0.0000 18.7790 0.0000
# 2 19.8021 45.2348 -7.6888 0.0000 0.0230 0.0000
# 3 4.4678 -7.6888 73.9156 0.0000 16.3246 0.0000
# 4 0.0000 0.0000 0.0000 30.6604 0.0000 -8.4057
# 5 18.7790 0.0230 16.3246 0.0000 53.8880 0.0000
# 6 0.0000 0.0000 0.0000 -8.4057 0.0000 35.8875
#
#
#
# Elastic Compliance Matrix: (Units=1/GPa)
#
#
# Indices 1 2 3 4 5 6 
#
# 1 0.008979 -0.003978 -0.000285 0.000000 -0.003041 0.000000
# 2 -0.003978 0.024297 0.002641 0.000000 0.000576 0.000000
# 3 -0.000285 0.002641 0.014789 0.000000 -0.004382 0.000000
# 4 0.000000 0.000000 0.000000 0.034853 0.000000 0.008163
# 5 -0.003041 0.000576 -0.004382 0.000000 0.020944 0.000000
# 6 0.000000 0.000000 0.000000 0.008163 0.000000 0.029777
#
#
# Mechanical properties :
#
#
# Convention : Reuss Voigt Hill
#
# Bulk Modulus (GPa) = 22.31109 30.99502 26.65306
# Shear Modulus (GPa) = 32.93318 39.36800 36.15059
#
# Velocity S-wave (km/s) = 3.58441 3.91898 3.75542
# Velocity P-wave (km/s) = 5.08279 5.70699 5.40391
#
# Compressibility (1/GPa) = 0.04482075
#
# Stress axis : x y z
#
# Youngs Moduli (GPa) = 111.36885 41.15791 67.61964
#
# Poissons Ratio (x) = 0.16371 0.01926
# Poissons Ratio (y) = 0.44298 -0.17856
# Poissons Ratio (z) = 0.03172 -0.10868
#
# Static dielectric constant tensor:
#      x y z
#    x 2.149430 0.000000 0.009130 
#    y 0.000000 2.001520 0.000000 
#    z 0.009130 0.000000 2.087440 
# 
# From -- ./inp_files/166206.got.cif
#   From: 2010.05.17/outbox.cif.g08.bks.cpg/sg15_84_cif.got.tgz:166206.got - 2010.06.03 18:47:42.
