data_PCOD9277946
_publ_section_title
;
Structure prediction by ZEFSAII (Michael W. Deem and Ramdas Pophale) SiO2 
 PCOD9277946
Probable space group: C 2/C
;
_chemical_formula_sum "Si O2"
_cell_formula_units_Z 52
_cell_length_a 12.017835
_cell_length_b 9.579543
_cell_length_c 18.219556
_cell_angle_alpha 90.000000
_cell_angle_beta 66.530163
_cell_angle_gamma 90.000000
_cell_volume 1924.003882
_symmetry_space_group_name_H-M "C 2/C"
_symmetry_group_IT_number 15
_symmetry_cell_setting 'monoclinic'
loop_
_space_group_symop_operation_xyz
x,y,z
-x,y,1/2-z
-x,-y,-z
x,-y,1/2+z
1/2+x,1/2+y,z
1/2-x,1/2+y,1/2-z
1/2-x,1/2-y,-z
1/2+x,1/2-y,1/2+z
loop_
_atom_site_type_symbol
_atom_site_label
_atom_site_fract_x
_atom_site_fract_y
_atom_site_fract_z
Si Si1 0.533376 0.004908 0.860068
Si Si2 0.484498 0.577739 0.596816
Si Si3 0.707026 0.911410 0.143610
Si Si4 0.090180 0.678415 0.979921
Si Si5 0.774033 0.955193 0.963037
Si Si6 0.000000 0.080612 0.750000
Si Si7 0.227649 0.124763 0.193519
O O1 0.423531 0.017956 0.832359
O O2 0.483088 0.912684 0.941055
O O3 0.656103 0.935483 0.795640
O O4 0.567639 0.143385 0.899909
O O5 0.344298 0.535683 0.624927
O O6 0.543437 0.669854 0.516458
O O7 0.580990 0.453783 0.578443
O O8 0.500153 0.656906 0.671675
O O9 0.691236 0.785386 0.206334
O O10 0.726760 0.889904 0.049837
O O11 0.224656 0.614823 0.962570
O O12 0.728426 0.879111 0.902874
O O13 0.116420 0.980038 0.727247
#
# Coordination Sequence:
#
# PCOD9277946 Si02
#       7
#     8   8   8   8   8   4   8
#     4   9  19  35  58  98 125 149 202 256 321 385
#     4  11  21  38  60  87 125 170 206 255 317 379
#     4  11  21  35  65  97 120 160 204 266 329 375
#     4   9  17  33  61  92 127 161 189 254 328 373
#     4   9  20  34  61  95 125 150 201 259 323 387
#     4  10  26  46  58  78 122 176 212 244 308 384
#     4  10  20  42  63  82 127 168 197 256 316 368
#
# _framework density 27.026973000000002
#
# number of rings (size 3 to 8) (size 9 to 14) (size 15 to 20)
#    0.000    2.154    1.538    2.308    2.154    0.000 
#    2.769    3.077    0.000    0.000    0.000    0.000 
#    0.000    0.000    0.000    0.000    0.000    0.000 
#
# Total GULP energy -144963.023279 kJ/mol
# GULP energy per Si atom -5575.500895 kJ/mol
# Density = 2.696546 g / cm^3
# Si number density = 27.026973 Si / 1000 Ang^3
#
#
#
# Elastic Constant Matrix: (Units=GPa)
#
#
# Indices 1 2 3 4 5 6 
#
# 1 257.1499 47.2435 33.7352 0.0000 -11.5777 0.0000
# 2 47.2435 49.4628 5.7841 0.0000 7.7749 0.0000
# 3 33.7352 5.7841 101.3613 0.0000 16.0164 0.0000
# 4 0.0000 0.0000 0.0000 15.6245 0.0000 4.7397
# 5 -11.5777 7.7749 16.0164 0.0000 48.4647 0.0000
# 6 0.0000 0.0000 0.0000 4.7397 0.0000 23.3886
#
#
#
# Elastic Compliance Matrix: (Units=1/GPa)
#
#
# Indices 1 2 3 4 5 6 
#
# 1 0.005205 -0.005177 -0.001862 0.000000 0.002689 0.000000
# 2 -0.005177 0.025935 0.001156 0.000000 -0.005779 0.000000
# 3 -0.001862 0.001156 0.011099 0.000000 -0.004298 0.000000
# 4 0.000000 0.000000 0.000000 0.068194 0.000000 -0.013820
# 5 0.002689 -0.005779 -0.004298 0.000000 0.023624 0.000000
# 6 0.000000 0.000000 0.000000 -0.013820 0.000000 0.045556
#
#
# Mechanical properties :
#
#
# Convention : Reuss Voigt Hill
#
# Bulk Modulus (GPa) = 32.81511 64.61104 48.71308
# Shear Modulus (GPa) = 24.80952 38.90964 31.85958
#
# Velocity S-wave (km/s) = 3.03306 3.79840 3.43710
# Velocity P-wave (km/s) = 4.94307 6.57230 5.81503
#
# Compressibility (1/GPa) = 0.03047377
#
# Stress axis : x y z
#
# Youngs Moduli (GPa) = 192.11669 38.55824 90.10170
#
# Poissons Ratio (x) = 0.19960 0.16776
# Poissons Ratio (y) = 0.99451 -0.10417
# Poissons Ratio (z) = 0.35771 -0.04458
#
# Static dielectric constant tensor:
#      x y z
#    x 2.130430 0.000000 0.016030 
#    y 0.000000 2.353360 0.000000 
#    z 0.016030 0.000000 2.194900 
# 
# From -- ./inp_files/236887.got.cif
#   From: 2010.05.17/outbox.cif.g08.bks.cpg/sg15_119_cif.got.tgz:236887.got - 2010.06.03 18:47:42.
