data_PCOD9277693
_publ_section_title
;
Structure prediction by ZEFSAII (Michael W. Deem and Ramdas Pophale) SiO2 
 PCOD9277693
Probable space group: C 2/C
;
_chemical_formula_sum "Si O2"
_cell_formula_units_Z 52
_cell_length_a 16.051373
_cell_length_b 15.182780
_cell_length_c 11.341661
_cell_angle_alpha 90.000000
_cell_angle_beta 122.726166
_cell_angle_gamma 90.000000
_cell_volume 2325.264923
_symmetry_space_group_name_H-M "C 2/C"
_symmetry_group_IT_number 15
_symmetry_cell_setting 'monoclinic'
loop_
_space_group_symop_operation_xyz
x,y,z
-x,y,1/2-z
-x,-y,-z
x,-y,1/2+z
1/2+x,1/2+y,z
1/2-x,1/2+y,1/2-z
1/2-x,1/2-y,-z
1/2+x,1/2-y,1/2+z
loop_
_atom_site_type_symbol
_atom_site_label
_atom_site_fract_x
_atom_site_fract_y
_atom_site_fract_z
Si Si1 0.118382 0.786870 0.507066
Si Si2 0.504712 0.190141 0.612906
Si Si3 0.500000 0.418874 0.250000
Si Si4 0.293775 0.837359 0.976387
Si Si5 0.317782 0.127647 0.098359
Si Si6 0.299921 0.494101 0.180770
Si Si7 0.644572 0.959717 0.257691
O O1 0.070741 0.759438 0.593610
O O2 0.054119 0.858645 0.388698
O O3 0.231385 0.820627 0.602115
O O4 0.122216 0.699742 0.428170
O O5 0.500000 0.209854 0.750000
O O6 0.392418 0.188614 0.481130
O O7 0.555091 0.094342 0.631500
O O8 0.414849 0.473694 0.251178
O O9 0.332260 0.899917 0.111521
O O10 0.250000 0.750000 0.000000
O O11 0.220749 0.902627 0.853303
O O12 0.379354 0.059058 0.223177
O O13 0.257699 0.064991 0.960907
O O14 0.244730 0.465269 0.257886
#
# Coordination Sequence:
#
# PCOD9277693 Si02
#       7
#     8   8   4   8   8   8   8
#     4  10  20  41  67  95 130 162 223 265 313 398
#     4  10  22  41  64  97 128 170 214 269 324 386
#     4  10  24  40  66 100 120 180 216 256 330 374
#     4  10  24  43  61  91 128 173 217 261 326 380
#     4   9  20  40  66  92 126 169 206 273 324 368
#     4  10  21  44  62  90 132 165 215 268 314 387
#     4  10  21  40  63  93 129 164 211 266 327 384
#
# _framework density 22.363042
#
# number of rings (size 3 to 8) (size 9 to 14) (size 15 to 20)
#    0.000    2.154    1.538    0.000    2.154    4.308 
#   19.385    2.308    0.000    0.000    0.000    0.000 
#    0.000    0.000    0.000    0.000    0.000    0.000 
#
# Total GULP energy -145283.446245 kJ/mol
# GULP energy per Si atom -5587.824856 kJ/mol
# Density = 2.231214 g / cm^3
# Si number density = 22.363042 Si / 1000 Ang^3
#
#
#
# Elastic Constant Matrix: (Units=GPa)
#
#
# Indices 1 2 3 4 5 6 
#
# 1 123.6780 25.1235 17.5078 0.0000 -16.4672 0.0000
# 2 25.1235 77.9298 8.2179 0.0000 -3.6180 0.0000
# 3 17.5078 8.2179 24.0519 0.0000 -6.6261 0.0000
# 4 0.0000 0.0000 0.0000 10.8712 0.0000 -10.2918
# 5 -16.4672 -3.6180 -6.6261 0.0000 33.6955 0.0000
# 6 0.0000 0.0000 0.0000 -10.2918 0.0000 28.8750
#
#
#
# Elastic Compliance Matrix: (Units=1/GPa)
#
#
# Indices 1 2 3 4 5 6 
#
# 1 0.009799 -0.002434 -0.005344 0.000000 0.003477 0.000000
# 2 -0.002434 0.013927 -0.003068 0.000000 -0.000298 0.000000
# 3 -0.005344 -0.003068 0.048322 0.000000 0.006562 0.000000
# 4 0.000000 0.000000 0.000000 0.138832 0.000000 0.049483
# 5 0.003477 -0.000298 0.006562 0.000000 0.032635 0.000000
# 6 0.000000 0.000000 0.000000 0.049483 0.000000 0.052269
#
#
# Mechanical properties :
#
#
# Convention : Reuss Voigt Hill
#
# Bulk Modulus (GPa) = 19.85862 36.37312 28.11587
# Shear Modulus (GPa) = 14.95832 26.34238 20.65035
#
# Velocity S-wave (km/s) = 2.58909 3.43584 3.04207
# Velocity P-wave (km/s) = 4.22341 5.66040 4.99386
#
# Compressibility (1/GPa) = 0.05035596
#
# Stress axis : x y z
#
# Youngs Moduli (GPa) = 102.04755 71.80509 20.69432
#
# Poissons Ratio (x) = 0.17479 0.11058
# Poissons Ratio (y) = 0.24841 0.06350
# Poissons Ratio (z) = 0.54530 0.22033
#
# Static dielectric constant tensor:
#      x y z
#    x 1.817540 0.000000 0.010080 
#    y 0.000000 1.805220 0.000000 
#    z 0.010080 0.000000 1.904830 
# 
# From -- ./inp_files/97136.got.cif
#   From: 2010.05.17/outbox.cif.g08.bks.cpg/sg15_49_cif.got.tgz:97136.got - 2010.06.03 18:47:42.
