data_PCOD9277156
_publ_section_title
;
Structure prediction by ZEFSAII (Michael W. Deem and Ramdas Pophale) SiO2 
 PCOD9277156
Probable space group: C 2/C
;
_chemical_formula_sum "Si O2"
_cell_formula_units_Z 40
_cell_length_a 7.208947
_cell_length_b 22.422024
_cell_length_c 13.765913
_cell_angle_alpha 90.000000
_cell_angle_beta 134.765974
_cell_angle_gamma 90.000000
_cell_volume 1579.804436
_symmetry_space_group_name_H-M "C 2/C"
_symmetry_group_IT_number 15
_symmetry_cell_setting 'monoclinic'
loop_
_space_group_symop_operation_xyz
x,y,z
-x,y,1/2-z
-x,-y,-z
x,-y,1/2+z
1/2+x,1/2+y,z
1/2-x,1/2+y,1/2-z
1/2-x,1/2-y,-z
1/2+x,1/2-y,1/2+z
loop_
_atom_site_type_symbol
_atom_site_label
_atom_site_fract_x
_atom_site_fract_y
_atom_site_fract_z
Si Si1 0.000000 0.108078 0.750000
Si Si2 0.500000 0.104332 0.750000
Si Si3 0.407758 0.675765 0.981647
Si Si4 0.472521 0.809003 0.493206
Si Si5 0.774444 0.111457 0.248515
Si Si6 0.924398 0.514105 0.861568
O O1 0.218148 0.150771 0.879186
O O2 0.175064 0.057819 0.759198
O O3 0.256423 0.150248 0.668961
O O4 0.613806 0.058235 0.873095
O O5 0.546903 0.737875 0.008813
O O6 0.612335 0.632487 0.107890
O O7 0.180855 0.682966 0.980978
O O8 0.606561 0.835954 0.638244
O O9 0.000000 0.100310 0.250000
O O10 0.625015 0.049756 0.200787
O O11 0.000000 0.500000 0.000000
#
# Coordination Sequence:
#
# PCOD9277156 Si02
#       6
#     4   4   8   8   8   8
#     4  12  22  42  74 104 140 188 238 298 360 420
#     4  12  26  44  70 106 138 190 246 292 360 436
#     4  10  23  41  65 101 138 187 244 289 357 435
#     4  10  22  40  69  97 139 188 238 291 360 431
#     4  10  20  40  68  96 135 189 231 290 358 428
#     4  12  24  45  71 101 145 187 237 295 366 432
#
# _framework density 25.319590000000002
#
# number of rings (size 3 to 8) (size 9 to 14) (size 15 to 20)
#    0.000    1.200    5.000    1.200    7.000    0.800 
#    0.000    5.000    0.000    0.000    0.000    0.000 
#    0.000    0.000    0.000    0.000    0.000    0.000 
#
# Total GULP energy -111758.594263 kJ/mol
# GULP energy per Si atom -5587.929713 kJ/mol
# Density = 2.526196 g / cm^3
# Si number density = 25.319590 Si / 1000 Ang^3
#
#
#
# Elastic Constant Matrix: (Units=GPa)
#
#
# Indices 1 2 3 4 5 6 
#
# 1 81.1696 25.7702 21.5864 0.0000 0.7111 0.0000
# 2 25.7702 201.8020 68.5349 0.0000 -3.5244 0.0000
# 3 21.5864 68.5349 135.2404 0.0000 -4.5428 0.0000
# 4 0.0000 0.0000 0.0000 43.8815 0.0000 9.4527
# 5 0.7111 -3.5244 -4.5428 0.0000 22.2904 0.0000
# 6 0.0000 0.0000 0.0000 9.4527 0.0000 20.3180
#
#
#
# Elastic Compliance Matrix: (Units=1/GPa)
#
#
# Indices 1 2 3 4 5 6 
#
# 1 0.013106 -0.001170 -0.001530 0.000000 -0.000915 0.000000
# 2 -0.001170 0.006092 -0.002887 0.000000 0.000412 0.000000
# 3 -0.001530 -0.002887 0.009150 0.000000 0.001457 0.000000
# 4 0.000000 0.000000 0.000000 0.025327 0.000000 -0.011783
# 5 -0.000915 0.000412 0.001457 0.000000 0.045254 0.000000
# 6 0.000000 0.000000 0.000000 -0.011783 0.000000 0.054699
#
#
# Mechanical properties :
#
#
# Convention : Reuss Voigt Hill
#
# Bulk Modulus (GPa) = 58.22203 72.22168 65.22185
# Shear Modulus (GPa) = 29.32084 37.45268 33.38676
#
# Velocity S-wave (km/s) = 3.40668 3.85021 3.63521
# Velocity P-wave (km/s) = 6.20634 6.95352 6.59053
#
# Compressibility (1/GPa) = 0.01717563
#
# Stress axis : x y z
#
# Youngs Moduli (GPa) = 76.29963 164.13979 109.28650
#
# Poissons Ratio (x) = 0.19207 0.16718
# Poissons Ratio (y) = 0.08928 0.31548
# Poissons Ratio (z) = 0.11672 0.47383
#
# Static dielectric constant tensor:
#      x y z
#    x 4.747390 0.000000 -0.366400 
#    y 0.000000 1.895380 0.000000 
#    z -0.366400 0.000000 2.003130 
# 
# From -- ./inp_files/77983.got.cif
#   From: 2010.05.17/outbox.cif.g08.bks.cpg/sg15_39_cif.got.tgz:77983.got - 2010.06.03 18:47:42.
