data_PCOD9277142
_publ_section_title
;
Structure prediction by ZEFSAII (Michael W. Deem and Ramdas Pophale) SiO2 
 PCOD9277142
Probable space group: C 2/C
;
_chemical_formula_sum "Si O2"
_cell_formula_units_Z 56
_cell_length_a 25.401694
_cell_length_b 8.135527
_cell_length_c 9.671080
_cell_angle_alpha 90.000000
_cell_angle_beta 91.881444
_cell_angle_gamma 90.000000
_cell_volume 1997.510891
_symmetry_space_group_name_H-M "C 2/C"
_symmetry_group_IT_number 15
_symmetry_cell_setting 'monoclinic'
loop_
_space_group_symop_operation_xyz
x,y,z
-x,y,1/2-z
-x,-y,-z
x,-y,1/2+z
1/2+x,1/2+y,z
1/2-x,1/2+y,1/2-z
1/2-x,1/2-y,-z
1/2+x,1/2-y,1/2+z
loop_
_atom_site_type_symbol
_atom_site_label
_atom_site_fract_x
_atom_site_fract_y
_atom_site_fract_z
Si Si1 0.301635 0.996610 0.645813
Si Si2 0.051896 0.802400 0.844398
Si Si3 0.086939 0.486896 0.000608
Si Si4 0.857791 0.724548 0.321753
Si Si5 0.836526 0.184685 0.289979
Si Si6 0.449563 0.335615 0.143667
Si Si7 0.806069 0.025566 0.021925
O O1 0.355923 0.982746 0.566444
O O2 0.306255 0.150412 0.748668
O O3 0.253126 0.021335 0.539847
O O4 0.305502 0.833254 0.738269
O O5 0.054995 0.641271 0.937668
O O6 0.103367 0.799307 0.751820
O O7 0.000000 0.795429 0.750000
O O8 0.050633 0.980372 0.919678
O O9 0.058047 0.316866 0.962071
O O10 0.105801 0.560945 0.148782
O O11 0.898168 0.831945 0.237572
O O12 0.838626 0.821353 0.456466
O O13 0.831265 0.131233 0.447544
O O14 0.810650 0.048352 0.185481
O O15 0.500000 0.315564 0.250000
#
# Coordination Sequence:
#
# PCOD9277142 Si02
#       7
#     8   8   8   8   8   8   8
#     4  10  23  39  64  92 128 178 220 279 346 405
#     4  10  20  40  68  95 130 176 222 277 347 404
#     4  10  22  41  63  94 132 171 226 278 341 405
#     4  11  22  41  64  91 132 174 226 285 336 414
#     4  11  24  43  65  98 132 177 227 285 341 411
#     4  10  22  41  62  93 133 169 225 283 336 411
#     4  12  23  43  68  95 137 175 231 283 344 409
#
# _framework density 28.034890999999998
#
# number of rings (size 3 to 8) (size 9 to 14) (size 15 to 20)
#    0.000    1.429    4.286    1.714    2.000    1.714 
#    0.000    7.857    0.000    0.000    0.000    0.000 
#    0.000    0.000    0.000    0.000    0.000    0.000 
#
# Total GULP energy -157123.108034 kJ/mol
# GULP energy per Si atom -5611.539573 kJ/mol
# Density = 2.797108 g / cm^3
# Si number density = 28.034891 Si / 1000 Ang^3
#
#
#
# Elastic Constant Matrix: (Units=GPa)
#
#
# Indices 1 2 3 4 5 6 
#
# 1 149.3783 42.4490 31.6619 0.0000 30.9061 0.0000
# 2 42.4490 189.4139 54.2382 0.0000 29.2948 0.0000
# 3 31.6619 54.2382 109.0432 0.0000 24.8110 0.0000
# 4 0.0000 0.0000 0.0000 49.1620 0.0000 23.6322
# 5 30.9061 29.2948 24.8110 0.0000 55.9903 0.0000
# 6 0.0000 0.0000 0.0000 23.6322 0.0000 26.5655
#
#
#
# Elastic Compliance Matrix: (Units=1/GPa)
#
#
# Indices 1 2 3 4 5 6 
#
# 1 0.007887 -0.000942 -0.001049 0.000000 -0.003396 0.000000
# 2 -0.000942 0.006493 -0.002560 0.000000 -0.001743 0.000000
# 3 -0.001049 -0.002560 0.011468 0.000000 -0.003164 0.000000
# 4 0.000000 0.000000 0.000000 0.035538 0.000000 -0.031614
# 5 -0.003396 -0.001743 -0.003164 0.000000 0.022049 0.000000
# 6 0.000000 0.000000 0.000000 -0.031614 0.000000 0.065766
#
#
# Mechanical properties :
#
#
# Convention : Reuss Voigt Hill
#
# Bulk Modulus (GPa) = 59.71027 78.28151 68.99589
# Shear Modulus (GPa) = 30.50938 47.64263 39.07600
#
# Velocity S-wave (km/s) = 3.30246 4.12686 3.73746
# Velocity P-wave (km/s) = 5.99053 7.11979 6.57943
#
# Compressibility (1/GPa) = 0.01674754
#
# Stress axis : x y z
#
# Youngs Moduli (GPa) = 126.79058 154.01096 87.19770
#
# Poissons Ratio (x) = 0.14508 0.09146
# Poissons Ratio (y) = 0.11943 0.22318
# Poissons Ratio (z) = 0.13298 0.39419
#
# Static dielectric constant tensor:
#      x y z
#    x 2.117620 0.000000 -0.000920 
#    y 0.000000 2.277240 0.000000 
#    z -0.000920 0.000000 2.218610 
# 
# From -- ./inp_files/122011.got.cif
#   From: 2010.05.17/outbox.cif.g08.bks.cpg/sg15_62_cif.got.tgz:122011.got - 2010.06.03 18:47:42.
