data_PCOD9277129
_publ_section_title
;
Structure prediction by ZEFSAII (Michael W. Deem and Ramdas Pophale) SiO2 
 PCOD9277129
Probable space group: C 2/C
;
_chemical_formula_sum "Si O2"
_cell_formula_units_Z 44
_cell_length_a 29.609905
_cell_length_b 9.057486
_cell_length_c 9.063231
_cell_angle_alpha 90.000000
_cell_angle_beta 66.423398
_cell_angle_gamma 90.000000
_cell_volume 2227.781498
_symmetry_space_group_name_H-M "C 2/C"
_symmetry_group_IT_number 15
_symmetry_cell_setting 'monoclinic'
loop_
_space_group_symop_operation_xyz
x,y,z
-x,y,1/2-z
-x,-y,-z
x,-y,1/2+z
1/2+x,1/2+y,z
1/2-x,1/2+y,1/2-z
1/2-x,1/2-y,-z
1/2+x,1/2-y,1/2+z
loop_
_atom_site_type_symbol
_atom_site_label
_atom_site_fract_x
_atom_site_fract_y
_atom_site_fract_z
Si Si1 0.568636 0.408222 0.910955
Si Si2 0.000000 0.980546 0.250000
Si Si3 0.155101 0.727447 0.665702
Si Si4 0.698444 0.907218 0.642494
Si Si5 0.356264 0.666575 0.642771
Si Si6 0.268515 0.540809 0.315639
O O1 0.531510 0.421644 0.822473
O O2 0.610816 0.290091 0.822552
O O3 0.596342 0.566755 0.887611
O O4 0.537530 0.387718 0.100110
O O5 0.169497 0.561663 0.685405
O O6 0.139395 0.744933 0.515505
O O7 0.202670 0.832236 0.632745
O O8 0.660366 0.772290 0.701118
O O9 0.736066 0.930631 0.458577
O O10 0.731997 0.891423 0.743926
O O11 0.311311 0.551967 0.681879
#
# Coordination Sequence:
#
# PCOD9277129 Si02
#       6
#     8   4   8   8   8   8
#     4  10  22  39  67  90 111 145 183 248 293 350
#     4  10  20  40  68  94 104 136 196 236 300 362
#     4  11  22  39  56  86 124 149 196 246 280 329
#     4  12  22  36  57  81 123 166 193 229 284 328
#     4  11  22  38  57  87 120 153 197 240 283 331
#     4  11  22  36  57  81 117 166 206 236 262 322
#
# _framework density 19.750589999999999
#
# number of rings (size 3 to 8) (size 9 to 14) (size 15 to 20)
#    0.000    1.091    5.455    2.182    0.000    1.455 
#    0.000    0.000    0.000    6.545    0.000    0.000 
#    0.000    0.000    0.000    0.000    0.000    0.000 
#
# Total GULP energy -122941.234081 kJ/mol
# GULP energy per Si atom -5588.237913 kJ/mol
# Density = 1.970564 g / cm^3
# Si number density = 19.750590 Si / 1000 Ang^3
#
#
#
# Elastic Constant Matrix: (Units=GPa)
#
#
# Indices 1 2 3 4 5 6 
#
# 1 82.3043 25.9818 34.9044 0.0000 -8.1908 0.0000
# 2 25.9818 62.8499 -2.3272 0.0000 -12.9306 0.0000
# 3 34.9044 -2.3272 95.5309 0.0000 -25.8029 0.0000
# 4 0.0000 0.0000 0.0000 25.0605 0.0000 -3.0578
# 5 -8.1908 -12.9306 -25.8029 0.0000 36.9483 0.0000
# 6 0.0000 0.0000 0.0000 -3.0578 0.0000 7.7729
#
#
#
# Elastic Compliance Matrix: (Units=1/GPa)
#
#
# Indices 1 2 3 4 5 6 
#
# 1 0.017775 -0.008593 -0.007952 0.000000 -0.004620 0.000000
# 2 -0.008593 0.021803 0.006430 0.000000 0.010216 0.000000
# 3 -0.007952 0.006430 0.016837 0.000000 0.012246 0.000000
# 4 0.000000 0.000000 0.000000 0.041915 0.000000 0.016489
# 5 -0.004620 0.010216 0.012246 0.000000 0.038168 0.000000
# 6 0.000000 0.000000 0.000000 0.016489 0.000000 0.135138
#
#
# Mechanical properties :
#
#
# Convention : Reuss Voigt Hill
#
# Bulk Modulus (GPa) = 27.63473 39.75592 33.69533
# Shear Modulus (GPa) = 16.45123 26.09808 21.27465
#
# Velocity S-wave (km/s) = 2.88922 3.63903 3.28558
# Velocity P-wave (km/s) = 5.01521 6.15056 5.61167
#
# Compressibility (1/GPa) = 0.03618634
#
# Stress axis : x y z
#
# Youngs Moduli (GPa) = 56.25816 45.86488 59.39135
#
# Poissons Ratio (x) = 0.39412 0.47227
# Poissons Ratio (y) = 0.48343 -0.38189
# Poissons Ratio (z) = 0.44735 -0.29492
#
# Static dielectric constant tensor:
#      x y z
#    x 1.682960 0.000000 -0.013010 
#    y 0.000000 1.672800 0.000000 
#    z -0.013010 0.000000 1.738430 
# 
# From -- ./inp_files/61035.got.cif
#   From: 2010.05.17/outbox.cif.g08.bks.cpg/sg15_31_cif.got.tgz:61035.got - 2010.06.03 18:47:42.
