data_PCOD9277864
_publ_section_title
;
Structure prediction by ZEFSAII (Michael W. Deem and Ramdas Pophale) SiO2 
 PCOD9277864
Probable space group: C 2/C
;
_chemical_formula_sum "Si O2"
_cell_formula_units_Z 56
_cell_length_a 17.765043
_cell_length_b 15.395818
_cell_length_c 19.326527
_cell_angle_alpha 90.000000
_cell_angle_beta 25.952557
_cell_angle_gamma 90.000000
_cell_volume 2313.272111
_symmetry_space_group_name_H-M "C 2/C"
_symmetry_group_IT_number 15
_symmetry_cell_setting 'monoclinic'
loop_
_space_group_symop_operation_xyz
x,y,z
-x,y,1/2-z
-x,-y,-z
x,-y,1/2+z
1/2+x,1/2+y,z
1/2-x,1/2+y,1/2-z
1/2-x,1/2-y,-z
1/2+x,1/2-y,1/2+z
loop_
_atom_site_type_symbol
_atom_site_label
_atom_site_fract_x
_atom_site_fract_y
_atom_site_fract_z
Si Si1 0.217941 0.704075 0.077185
Si Si2 0.843098 0.545327 0.212819
Si Si3 0.273068 0.020213 0.622122
Si Si4 0.502830 0.627183 0.321937
Si Si5 0.173234 0.188835 0.750408
Si Si6 0.304924 0.998540 0.392697
Si Si7 0.073062 0.801313 0.912925
O O1 0.204603 0.739715 0.164198
O O2 0.207891 0.601623 0.079522
O O3 0.883880 0.750917 0.402264
O O4 0.819005 0.490206 0.164458
O O5 0.766441 0.498336 0.342645
O O6 0.735467 0.631914 0.284391
O O7 0.047343 0.549620 0.060724
O O8 0.147650 0.102069 0.726947
O O9 0.174306 0.933651 0.682196
O O10 0.500000 0.675656 0.250000
O O11 0.340744 0.561460 0.454828
O O12 0.496926 0.679908 0.399332
O O13 0.355313 0.203652 0.640052
O O14 0.044221 0.186809 0.921950
O O15 0.500000 0.971022 0.250000
#
# Coordination Sequence:
#
# PCOD9277864 Si02
#       7
#     8   8   8   8   8   8   8
#     4  11  26  37  56  92 137 172 213 260 334 403
#     4  10  20  42  57  97 126 170 218 280 318 405
#     4  10  23  36  71  91 129 169 223 270 339 390
#     4  11  25  45  69 100 132 179 230 280 341 401
#     4  12  23  40  65  96 130 181 217 277 334 400
#     4  11  23  39  62  90 136 174 217 274 328 401
#     4  11  24  43  68  97 136 175 230 281 337 404
#
# _framework density 24.208133
#
# number of rings (size 3 to 8) (size 9 to 14) (size 15 to 20)
#    0.000    1.143    1.429    4.286    8.000    2.286 
#    0.000    2.143    0.000    0.857    0.000    0.000 
#    0.000    0.000    0.000    0.000    0.000    0.000 
#
# Total GULP energy -155879.979025 kJ/mol
# GULP energy per Si atom -5567.142108 kJ/mol
# Density = 2.415303 g / cm^3
# Si number density = 24.208133 Si / 1000 Ang^3
#
#
#
# Elastic Constant Matrix: (Units=GPa)
#
#
# Indices 1 2 3 4 5 6 
#
# 1 119.5738 10.8727 48.4361 -0.0034 25.5259 0.0007
# 2 10.8727 34.3789 3.4811 -0.0170 12.2283 0.0261
# 3 48.4361 3.4811 84.5943 -0.0044 27.2347 0.0186
# 4 -0.0034 -0.0170 -0.0044 22.0395 -0.0017 -11.1323
# 5 25.5259 12.2283 27.2347 -0.0017 44.1351 -0.0052
# 6 0.0007 0.0261 0.0186 -11.1323 -0.0052 92.4282
#
#
#
# Elastic Compliance Matrix: (Units=1/GPa)
#
#
# Indices 1 2 3 4 5 6 
#
# 1 0.011367 -0.002130 -0.005608 0.000000 -0.002523 0.000001
# 2 -0.002130 0.032922 0.003001 0.000021 -0.009742 -0.000008
# 3 -0.005608 0.003001 0.017636 0.000002 -0.008470 -0.000005
# 4 0.000000 0.000021 0.000002 0.048312 -0.000004 0.005819
# 5 -0.002523 -0.009742 -0.008470 -0.000004 0.032043 0.000006
# 6 0.000001 -0.000008 -0.000005 0.005819 0.000006 0.011520
#
#
# Mechanical properties :
#
#
# Convention : Reuss Voigt Hill
#
# Bulk Modulus (GPa) = 19.06541 40.45854 29.76197
# Shear Modulus (GPa) = 27.66118 43.43771 35.54944
#
# Velocity S-wave (km/s) = 3.38396 4.24056 3.83625
# Velocity P-wave (km/s) = 4.81259 6.38166 5.65184
#
# Compressibility (1/GPa) = 0.05245102
#
# Stress axis : x y z
#
# Youngs Moduli (GPa) = 87.97245 30.37455 56.70267
#
# Poissons Ratio (x) = 0.06468 0.31801
# Poissons Ratio (y) = 0.18734 -0.17016
# Poissons Ratio (z) = 0.49339 -0.09115
#
# Static dielectric constant tensor:
#      x y z
#    x 1.978570 -0.000010 -0.054890 
#    y -0.000010 4.727860 0.000080 
#    z -0.054890 0.000080 2.037410 
# 
# From -- ./inp_files/253349.got.cif
#   From: 2010.05.17/outbox.cif.g08.bks.cpg/sg15_127_cif.got.tgz:253349.got - 2010.06.03 18:47:42.
