data_PCOD9277448
_publ_section_title
;
Structure prediction by ZEFSAII (Michael W. Deem and Ramdas Pophale) SiO2 
 PCOD9277448
Probable space group: C 2/C
;
_chemical_formula_sum "Si O2"
_cell_formula_units_Z 52
_cell_length_a 9.109755
_cell_length_b 13.407325
_cell_length_c 29.096251
_cell_angle_alpha 90.000000
_cell_angle_beta 127.050646
_cell_angle_gamma 90.000000
_cell_volume 2836.252797
_symmetry_space_group_name_H-M "C 2/C"
_symmetry_group_IT_number 15
_symmetry_cell_setting 'monoclinic'
loop_
_space_group_symop_operation_xyz
x,y,z
-x,y,1/2-z
-x,-y,-z
x,-y,1/2+z
1/2+x,1/2+y,z
1/2-x,1/2+y,1/2-z
1/2-x,1/2-y,-z
1/2+x,1/2-y,1/2+z
loop_
_atom_site_type_symbol
_atom_site_label
_atom_site_fract_x
_atom_site_fract_y
_atom_site_fract_z
Si Si1 0.473138 0.254740 0.673042
Si Si2 0.729857 0.817762 0.451479
Si Si3 0.841593 0.382450 0.751106
Si Si4 0.500000 0.923169 0.250000
Si Si5 0.593265 0.837406 0.633664
Si Si6 0.585338 0.321743 0.452385
Si Si7 0.877863 0.477961 0.521593
O O1 0.422149 0.227446 0.611391
O O2 0.657373 0.318661 0.712943
O O3 0.476363 0.151923 0.702896
O O4 0.304927 0.320101 0.660718
O O5 0.750000 0.750000 0.500000
O O6 0.918997 0.822200 0.457718
O O7 0.671225 0.925017 0.458625
O O8 0.913002 0.381637 0.816814
O O9 0.000000 0.332962 0.750000
O O10 0.837934 0.496629 0.731114
O O11 0.497167 0.728816 0.609005
O O12 0.493223 0.906312 0.577345
O O13 0.750000 0.250000 0.500000
O O14 0.687566 0.426857 0.469124
O O15 0.000000 0.500000 0.500000
#
# Coordination Sequence:
#
# PCOD9277448 Si02
#       7
#     8   8   8   4   8   8   8
#     4  11  21  44  67  88 133 169 207 279 320 383
#     4  11  23  40  62  93 126 169 214 263 330 381
#     4  10  23  39  65  96 120 168 223 260 326 393
#     4  10  22  42  66  90 128 164 218 256 336 368
#     4  10  20  41  63  89 127 165 208 268 322 379
#     4   9  20  37  62  87 122 168 203 260 321 372
#     4  11  22  39  59  93 130 165 219 257 319 395
#
# _framework density 18.334050000000001
#
# number of rings (size 3 to 8) (size 9 to 14) (size 15 to 20)
#    0.462    1.231    1.538    4.154    0.000    3.692 
#   11.077    3.077    0.000    0.000    0.000    0.000 
#    0.000    0.000    0.000    0.000    0.000    0.000 
#
# Total GULP energy -144915.163703 kJ/mol
# GULP energy per Si atom -5573.660142 kJ/mol
# Density = 1.829232 g / cm^3
# Si number density = 18.334050 Si / 1000 Ang^3
#
#
#
# Elastic Constant Matrix: (Units=GPa)
#
#
# Indices 1 2 3 4 5 6 
#
# 1 90.0512 52.0854 47.6259 0.0000 9.6416 0.0000
# 2 52.0854 105.1594 53.8470 0.0000 -3.5388 0.0000
# 3 47.6259 53.8470 122.2806 0.0000 -6.4608 0.0000
# 4 0.0000 0.0000 0.0000 30.4828 0.0000 -6.0853
# 5 9.6416 -3.5388 -6.4608 0.0000 29.2103 0.0000
# 6 0.0000 0.0000 0.0000 -6.0853 0.0000 37.8903
#
#
#
# Elastic Compliance Matrix: (Units=1/GPa)
#
#
# Indices 1 2 3 4 5 6 
#
# 1 0.018426 -0.007106 -0.004466 0.000000 -0.007931 0.000000
# 2 -0.007106 0.015021 -0.003670 0.000000 0.003354 0.000000
# 3 -0.004466 -0.003670 0.011725 0.000000 0.003623 0.000000
# 4 0.000000 0.000000 0.000000 0.033892 0.000000 0.005443
# 5 -0.007931 0.003354 0.003623 0.000000 0.038060 0.000000
# 6 0.000000 0.000000 0.000000 0.005443 0.000000 0.027266
#
#
# Mechanical properties :
#
#
# Convention : Reuss Voigt Hill
#
# Bulk Modulus (GPa) = 68.08536 69.40088 68.74312
# Shear Modulus (GPa) = 27.81311 30.44553 29.12932
#
# Velocity S-wave (km/s) = 3.89912 4.07947 3.99031
# Velocity P-wave (km/s) = 7.58205 7.75404 7.66853
#
# Compressibility (1/GPa) = 0.01468745
#
# Stress axis : x y z
#
# Youngs Moduli (GPa) = 54.26967 66.57300 85.28888
#
# Poissons Ratio (x) = 0.47310 0.38094
# Poissons Ratio (y) = 0.38567 0.31298
# Poissons Ratio (z) = 0.24239 0.24430
#
# Static dielectric constant tensor:
#      x y z
#    x 1.622330 0.000000 0.005480 
#    y 0.000000 1.599240 0.000000 
#    z 0.005480 0.000000 1.615500 
# 
# From -- ./inp_files/264466.got.cif
#   From: 2010.05.17/outbox.cif.g08.bks.cpg/sg15_133_cif.got.tgz:264466.got - 2010.06.03 18:47:42.
