data_PCOD9277512
_publ_section_title
;
Structure prediction by ZEFSAII (Michael W. Deem and Ramdas Pophale) SiO2 
 PCOD9277512
Probable space group: C 2/C
;
_chemical_formula_sum "Si O2"
_cell_formula_units_Z 56
_cell_length_a 15.983455
_cell_length_b 18.303286
_cell_length_c 9.664254
_cell_angle_alpha 90.000000
_cell_angle_beta 75.153973
_cell_angle_gamma 90.000000
_cell_volume 2732.894613
_symmetry_space_group_name_H-M "C 2/C"
_symmetry_group_IT_number 15
_symmetry_cell_setting 'monoclinic'
loop_
_space_group_symop_operation_xyz
x,y,z
-x,y,1/2-z
-x,-y,-z
x,-y,1/2+z
1/2+x,1/2+y,z
1/2-x,1/2+y,1/2-z
1/2-x,1/2-y,-z
1/2+x,1/2-y,1/2+z
loop_
_atom_site_type_symbol
_atom_site_label
_atom_site_fract_x
_atom_site_fract_y
_atom_site_fract_z
Si Si1 0.291177 0.830096 0.587283
Si Si2 0.943255 0.582277 0.156546
Si Si3 0.827880 0.828851 0.604887
Si Si4 0.330136 0.333951 0.088133
Si Si5 0.000573 0.922069 0.580277
Si Si6 0.437631 0.919198 0.162020
Si Si7 0.220182 0.334616 0.399113
O O1 0.359591 0.877542 0.639162
O O2 0.210219 0.823317 0.725048
O O3 0.333926 0.751220 0.541781
O O4 0.252542 0.863092 0.463828
O O5 0.918699 0.501570 0.220485
O O6 0.000000 0.621004 0.250000
O O7 0.004761 0.576205 0.998973
O O8 0.916565 0.873646 0.573017
O O9 0.826851 0.743859 0.557521
O O10 0.758040 0.863383 0.527938
O O11 0.302718 0.330786 0.260350
O O12 0.414380 0.378514 0.009031
O O13 0.000000 0.930268 0.750000
O O14 0.000000 0.000000 0.500000
O O15 0.500000 0.882340 0.250000
O O16 0.350474 0.881918 0.149884
#
# Coordination Sequence:
#
# PCOD9277512 Si02
#       7
#     8   8   8   8   8   8   8
#     4  10  20  41  64  93 123 168 212 263 318 381
#     4  10  21  35  56  89 126 159 200 249 316 382
#     4  10  23  42  64  93 131 164 221 269 320 387
#     4  10  23  41  65  93 123 161 224 264 314 389
#     4  12  28  47  68  97 134 178 223 276 338 399
#     4  10  21  36  57  91 124 159 204 252 313 384
#     4  10  22  40  65  98 127 169 215 268 324 379
#
# _framework density 20.491094
#
# number of rings (size 3 to 8) (size 9 to 14) (size 15 to 20)
#    0.000    1.714    1.429    1.714    4.000    2.857 
#    0.000    0.000    0.000    0.000    0.000    0.000 
#    0.000    0.000    0.000    0.000    0.000    0.000 
#
# Total GULP energy -156131.516530 kJ/mol
# GULP energy per Si atom -5576.125590 kJ/mol
# Density = 2.044446 g / cm^3
# Si number density = 20.491094 Si / 1000 Ang^3
#
#
#
# Elastic Constant Matrix: (Units=GPa)
#
#
# Indices 1 2 3 4 5 6 
#
# 1 129.0995 79.1067 36.2241 0.0000 18.2692 0.0000
# 2 79.1067 86.7525 23.7477 0.0000 2.5667 0.0000
# 3 36.2241 23.7477 108.9953 0.0000 15.3448 0.0000
# 4 0.0000 0.0000 0.0000 32.2455 0.0000 -4.2230
# 5 18.2692 2.5667 15.3448 0.0000 42.1690 0.0000
# 6 0.0000 0.0000 0.0000 -4.2230 0.0000 48.6355
#
#
#
# Elastic Compliance Matrix: (Units=1/GPa)
#
#
# Indices 1 2 3 4 5 6 
#
# 1 0.019960 -0.017490 -0.001850 0.000000 -0.006910 0.000000
# 2 -0.017490 0.027586 -0.001084 0.000000 0.006292 0.000000
# 3 -0.001850 -0.001084 0.010438 0.000000 -0.002931 0.000000
# 4 0.000000 0.000000 0.000000 0.031369 0.000000 0.002724
# 5 -0.006910 0.006292 -0.002931 0.000000 0.027391 0.000000
# 6 0.000000 0.000000 0.000000 0.002724 0.000000 0.020798
#
#
# Mechanical properties :
#
#
# Convention : Reuss Voigt Hill
#
# Bulk Modulus (GPa) = 58.35360 67.00051 62.67706
# Shear Modulus (GPa) = 27.15892 36.99458 32.07675
#
# Velocity S-wave (km/s) = 3.64456 4.25361 3.96081
# Velocity P-wave (km/s) = 6.80072 7.54272 7.18131
#
# Compressibility (1/GPa) = 0.01713690
#
# Stress axis : x y z
#
# Youngs Moduli (GPa) = 50.10020 36.25027 95.80100
#
# Poissons Ratio (x) = 0.63402 0.17725
# Poissons Ratio (y) = 0.87625 0.10381
# Poissons Ratio (z) = 0.09269 0.03928
#
# Static dielectric constant tensor:
#      x y z
#    x 1.727450 0.000000 0.022050 
#    y 0.000000 1.760020 0.000000 
#    z 0.022050 0.000000 1.761700 
# 
# From -- ./inp_files/41234.got.cif
#   From: 2010.05.17/outbox.cif.g08.bks.cpg/sg15_21_cif.got.tgz:41234.got - 2010.06.03 18:47:42.
