data_PCOD9277088
_publ_section_title
;
Structure prediction by ZEFSAII (Michael W. Deem and Ramdas Pophale) SiO2 
 PCOD9277088
Probable space group: C 2/C
;
_chemical_formula_sum "Si O2"
_cell_formula_units_Z 48
_cell_length_a 12.221253
_cell_length_b 8.302913
_cell_length_c 23.477228
_cell_angle_alpha 90.000000
_cell_angle_beta 51.589547
_cell_angle_gamma 90.000000
_cell_volume 1866.708265
_symmetry_space_group_name_H-M "C 2/C"
_symmetry_group_IT_number 15
_symmetry_cell_setting 'monoclinic'
loop_
_space_group_symop_operation_xyz
x,y,z
-x,y,1/2-z
-x,-y,-z
x,-y,1/2+z
1/2+x,1/2+y,z
1/2-x,1/2+y,1/2-z
1/2-x,1/2-y,-z
1/2+x,1/2-y,1/2+z
loop_
_atom_site_type_symbol
_atom_site_label
_atom_site_fract_x
_atom_site_fract_y
_atom_site_fract_z
Si Si1 0.444155 0.738768 0.501237
Si Si2 0.691341 0.962706 0.113268
Si Si3 0.320818 0.070602 0.511224
Si Si4 0.323435 0.567266 0.758946
Si Si5 0.403786 0.293506 0.347460
Si Si6 0.454429 0.252154 0.661572
O O1 0.349824 0.598918 0.559101
O O2 0.576218 0.799536 0.493932
O O3 0.489726 0.709707 0.420738
O O4 0.346666 0.897983 0.531839
O O5 0.583533 0.817588 0.156503
O O6 0.654834 0.028298 0.061807
O O7 0.656960 0.125553 0.157588
O O8 0.169218 0.139833 0.572666
O O9 0.430678 0.702571 0.699589
O O10 0.356676 0.577077 0.815200
O O11 0.377602 0.404804 0.713127
O O12 0.163334 0.613071 0.802748
#
# Coordination Sequence:
#
# PCOD9277088 Si02
#       6
#     8   8   8   8   8   8
#     4  10  21  40  70 101 135 173 230 286 353 419
#     4  11  23  41  70 105 138 174 228 289 352 422
#     4  10  20  40  68 102 137 174 219 287 357 410
#     4  11  24  43  68  89 137 184 226 280 330 412
#     4  11  23  43  64  99 136 174 227 278 339 413
#     4  11  22  45  67  98 133 180 231 274 342 408
#
# _framework density 25.713712999999998
#
# number of rings (size 3 to 8) (size 9 to 14) (size 15 to 20)
#    0.000    1.333    1.667    5.500    0.000    0.667 
#    3.000   10.000    0.000    0.000    0.000    0.000 
#    0.000    0.000    0.000    0.000    0.000    0.000 
#
# Total GULP energy -134363.152423 kJ/mol
# GULP energy per Si atom -5598.464684 kJ/mol
# Density = 2.565519 g / cm^3
# Si number density = 25.713713 Si / 1000 Ang^3
#
#
#
# Elastic Constant Matrix: (Units=GPa)
#
#
# Indices 1 2 3 4 5 6 
#
# 1 34.6818 14.3019 15.1947 0.0000 -4.0357 0.0000
# 2 14.3019 112.9806 56.1274 0.0000 1.9606 0.0000
# 3 15.1947 56.1274 113.8632 0.0000 -27.9871 0.0000
# 4 0.0000 0.0000 0.0000 48.5274 0.0000 -4.7950
# 5 -4.0357 1.9606 -27.9871 0.0000 35.0724 0.0000
# 6 0.0000 0.0000 0.0000 -4.7950 0.0000 34.8206
#
#
#
# Elastic Compliance Matrix: (Units=1/GPa)
#
#
# Indices 1 2 3 4 5 6 
#
# 1 0.031236 -0.002850 -0.002290 0.000000 0.001926 0.000000
# 2 -0.002850 0.013331 -0.008030 0.000000 -0.007481 0.000000
# 3 -0.002290 -0.008030 0.016286 0.000000 0.013181 0.000000
# 4 0.000000 0.000000 0.000000 0.020891 0.000000 0.002877
# 5 0.001926 -0.007481 0.013181 0.000000 0.039671 0.000000
# 6 0.000000 0.000000 0.000000 0.002877 0.000000 0.029115
#
#
# Mechanical properties :
#
#
# Convention : Reuss Voigt Hill
#
# Bulk Modulus (GPa) = 28.97390 48.08595 38.52993
# Shear Modulus (GPa) = 26.54306 35.41086 30.97696
#
# Velocity S-wave (km/s) = 3.21636 3.71498 3.47462
# Velocity P-wave (km/s) = 5.00855 6.09447 5.57800
#
# Compressibility (1/GPa) = 0.03451382
#
# Stress axis : x y z
#
# Youngs Moduli (GPa) = 32.01413 75.01528 61.40222
#
# Poissons Ratio (x) = 0.21378 0.14062
# Poissons Ratio (y) = 0.09123 0.49303
# Poissons Ratio (z) = 0.07332 0.60234
#
# Static dielectric constant tensor:
#      x y z
#    x 2.022870 0.000000 0.031370 
#    y 0.000000 2.143750 0.000000 
#    z 0.031370 0.000000 2.058180 
# 
# From -- ./inp_files/312797.got.cif
#   From: 2010.05.17/outbox.cif.g08.bks.cpg/sg15_157_cif.got.tgz:312797.got - 2010.06.03 18:47:42.
