data_PCOD9277653
_publ_section_title
;
Structure prediction by ZEFSAII (Michael W. Deem and Ramdas Pophale) SiO2 
 PCOD9277653
Probable space group: C 2/C
;
_chemical_formula_sum "Si O2"
_cell_formula_units_Z 40
_cell_length_a 11.648288
_cell_length_b 12.652336
_cell_length_c 18.865166
_cell_angle_alpha 90.000000
_cell_angle_beta 139.884331
_cell_angle_gamma 90.000000
_cell_volume 1791.445839
_symmetry_space_group_name_H-M "C 2/C"
_symmetry_group_IT_number 15
_symmetry_cell_setting 'monoclinic'
loop_
_space_group_symop_operation_xyz
x,y,z
-x,y,1/2-z
-x,-y,-z
x,-y,1/2+z
1/2+x,1/2+y,z
1/2-x,1/2+y,1/2-z
1/2-x,1/2-y,-z
1/2+x,1/2-y,1/2+z
loop_
_atom_site_type_symbol
_atom_site_label
_atom_site_fract_x
_atom_site_fract_y
_atom_site_fract_z
Si Si1 0.006105 0.643184 0.408907
Si Si2 0.027016 0.992246 0.095791
Si Si3 0.934509 0.432294 0.299438
Si Si4 0.866185 0.168937 0.624366
Si Si5 0.411825 0.308730 0.783577
O O1 0.007400 0.520850 0.386846
O O2 0.802844 0.678790 0.326233
O O3 0.074030 0.716611 0.375849
O O4 0.154852 0.665212 0.539452
O O5 0.223036 0.946702 0.201241
O O6 0.896560 0.913045 0.074659
O O7 0.022378 0.107306 0.128236
O O8 0.000000 0.000000 0.000000
O O9 0.968810 0.309759 0.330965
O O10 0.000000 0.454161 0.250000
O O11 0.000000 0.138366 0.750000
O O12 0.500000 0.334031 0.750000
#
# Coordination Sequence:
#
# PCOD9277653 Si02
#       5
#     8   8   8   8   8
#     4  10  22  42  71 100 134 185 223 284 343 410
#     4  11  23  42  66  96 138 182 227 283 346 406
#     4  10  20  41  66  98 134 177 226 279 342 409
#     4  11  23  43  70 102 134 179 240 283 336 411
#     4  10  22  44  71 101 141 176 231 284 346 413
#
# _framework density 22.328333000000001
#
# number of rings (size 3 to 8) (size 9 to 14) (size 15 to 20)
#    0.000    1.600    2.000    2.400    0.000    4.800 
#    0.000   22.000    0.000    0.000    0.000    0.000 
#    0.000    0.000    0.000    0.000    0.000    0.000 
#
# Total GULP energy -111877.468296 kJ/mol
# GULP energy per Si atom -5593.873415 kJ/mol
# Density = 2.227751 g / cm^3
# Si number density = 22.328333 Si / 1000 Ang^3
#
#
#
# Elastic Constant Matrix: (Units=GPa)
#
#
# Indices 1 2 3 4 5 6 
#
# 1 85.2733 44.4037 43.8582 0.0000 8.4795 0.0000
# 2 44.4037 123.9821 47.7523 0.0000 -10.1287 0.0000
# 3 43.8582 47.7523 107.1763 0.0000 -1.9633 0.0000
# 4 0.0000 0.0000 0.0000 -42.0782 0.0000 22.5884
# 5 8.4795 -10.1287 -1.9633 0.0000 38.6598 0.0000
# 6 0.0000 0.0000 0.0000 22.5884 0.0000 21.7738
#
#
#
# Elastic Compliance Matrix: (Units=1/GPa)
#
#
# Indices 1 2 3 4 5 6 
#
# 1 0.017303 -0.004664 -0.005099 0.000000 -0.005276 0.000000
# 2 -0.004664 0.011209 -0.003016 0.000000 0.003806 0.000000
# 3 -0.005099 -0.003016 0.012779 0.000000 0.000977 0.000000
# 4 0.000000 0.000000 0.000000 -0.015264 0.000000 0.015836
# 5 -0.005276 0.003806 0.000977 0.000000 0.028071 0.000000
# 6 0.000000 0.000000 0.000000 0.015836 0.000000 0.029499
#
#
# Mechanical properties :
#
#
# Convention : Reuss Voigt Hill
#
# Bulk Modulus (GPa) = 63.56337 65.38447 64.47392
# Shear Modulus (GPa) = 43.70741 15.69893 29.70317
#
# Velocity S-wave (km/s) = 4.42915 2.65447 3.65127
# Velocity P-wave (km/s) = 7.39499 6.22428 6.83475
#
# Compressibility (1/GPa) = 0.01573233
#
# Stress axis : x y z
#
# Youngs Moduli (GPa) = 57.79358 89.21777 78.25570
#
# Poissons Ratio (x) = 0.41611 0.39904
# Poissons Ratio (y) = 0.26955 0.23599
# Poissons Ratio (z) = 0.29470 0.26905
#
# Static dielectric constant tensor:
#      x y z
#    x 1.589480 0.000000 -0.019330 
#    y 0.000000 1.816050 0.000000 
#    z -0.019330 0.000000 1.855200 
# 
# From -- ./inp_files/237812.got.cif
#   From: 2010.05.17/outbox.cif.g08.bks.cpg/sg15_119_cif.got.tgz:237812.got - 2010.06.03 18:47:42.
