data_PCOD9277576
_publ_section_title
;
Structure prediction by ZEFSAII (Michael W. Deem and Ramdas Pophale) SiO2 
 PCOD9277576
Probable space group: C 2/C
;
_chemical_formula_sum "Si O2"
_cell_formula_units_Z 64
_cell_length_a 13.533496
_cell_length_b 9.130330
_cell_length_c 29.266357
_cell_angle_alpha 90.000000
_cell_angle_beta 124.507536
_cell_angle_gamma 90.000000
_cell_volume 2980.022824
_symmetry_space_group_name_H-M "C 2/C"
_symmetry_group_IT_number 15
_symmetry_cell_setting 'monoclinic'
loop_
_space_group_symop_operation_xyz
x,y,z
-x,y,1/2-z
-x,-y,-z
x,-y,1/2+z
1/2+x,1/2+y,z
1/2-x,1/2+y,1/2-z
1/2-x,1/2-y,-z
1/2+x,1/2-y,1/2+z
loop_
_atom_site_type_symbol
_atom_site_label
_atom_site_fract_x
_atom_site_fract_y
_atom_site_fract_z
Si Si1 0.040214 0.611196 0.136101
Si Si2 0.738803 0.387615 0.640109
Si Si3 0.734840 0.770812 0.942037
Si Si4 0.139583 0.891849 0.866189
Si Si5 0.911135 0.932935 0.331049
Si Si6 0.464783 0.097321 0.690379
Si Si7 0.623419 0.008992 0.060069
Si Si8 0.859929 0.898473 0.215653
O O1 0.079220 0.525699 0.100805
O O2 0.901830 0.669364 0.098108
O O3 0.051588 0.505897 0.183033
O O4 0.106840 0.765582 0.158377
O O5 0.699732 0.380176 0.576630
O O6 0.640755 0.455888 0.646465
O O7 0.850822 0.495880 0.670077
O O8 0.783213 0.233380 0.673839
O O9 0.791892 0.624379 0.934449
O O10 0.750000 0.750000 0.000000
O O11 0.069249 0.740359 0.847098
O O12 0.274094 0.866895 0.920433
O O13 0.050350 0.016264 0.863123
O O14 0.156483 0.957926 0.819627
O O15 0.846942 0.940614 0.265019
O O16 0.500000 0.147322 0.750000
O O17 0.500000 0.000000 0.000000
O O18 0.000000 0.849807 0.250000
#
# Coordination Sequence:
#
# PCOD9277576 Si02
#       8
#     8   8   8   8   8   8   8   8
#     4  11  24  43  72  98 141 183 226 291 348 416
#     4  11  23  40  66  98 140 182 231 280 342 421
#     4  11  22  46  71  97 131 177 235 297 348 406
#     4  11  23  41  65 101 142 178 231 286 339 421
#     4  11  23  40  65 100 144 182 223 278 352 419
#     4  11  23  41  67 103 143 181 229 279 342 423
#     4  12  24  44  75  98 127 183 235 290 361 408
#     4  10  20  41  65  94 140 193 222 276 347 413
#
# _framework density 21.476344000000001
#
# number of rings (size 3 to 8) (size 9 to 14) (size 15 to 20)
#    0.000    1.000    3.750    5.250    1.750    4.000 
#    0.000    1.250    5.500    0.000    0.000    0.000 
#    0.000    0.000    0.000    0.000    0.000    0.000 
#
# Total GULP energy -178231.320979 kJ/mol
# GULP energy per Si atom -5569.728781 kJ/mol
# Density = 2.142746 g / cm^3
# Si number density = 21.476344 Si / 1000 Ang^3
#
#
#
# Elastic Constant Matrix: (Units=GPa)
#
#
# Indices 1 2 3 4 5 6 
#
# 1 117.9823 37.3415 64.0577 0.0000 -16.9797 0.0000
# 2 37.3415 80.1171 15.0224 0.0000 1.9816 0.0000
# 3 64.0577 15.0224 85.3043 0.0000 -12.0628 0.0000
# 4 0.0000 0.0000 0.0000 11.8962 0.0000 -12.2841
# 5 -16.9797 1.9816 -12.0628 0.0000 36.4785 0.0000
# 6 0.0000 0.0000 0.0000 -12.2841 0.0000 39.5464
#
#
#
# Elastic Compliance Matrix: (Units=1/GPa)
#
#
# Indices 1 2 3 4 5 6 
#
# 1 0.017062 -0.005983 -0.011109 0.000000 0.004593 0.000000
# 2 -0.005983 0.015087 0.001391 0.000000 -0.003144 0.000000
# 3 -0.011109 0.001391 0.020014 0.000000 0.001372 0.000000
# 4 0.000000 0.000000 0.000000 0.123755 0.000000 0.038442
# 5 0.004593 -0.003144 0.001372 0.000000 0.030176 0.000000
# 6 0.000000 0.000000 0.000000 0.038442 0.000000 0.037228
#
#
# Mechanical properties :
#
#
# Convention : Reuss Voigt Hill
#
# Bulk Modulus (GPa) = 48.16664 57.36077 52.76371
# Shear Modulus (GPa) = 17.75281 28.71635 23.23458
#
# Velocity S-wave (km/s) = 2.87822 3.66063 3.29275
# Velocity P-wave (km/s) = 5.78982 6.68085 6.25123
#
# Compressibility (1/GPa) = 0.02076126
#
# Stress axis : x y z
#
# Youngs Moduli (GPa) = 58.60847 66.28109 49.96467
#
# Poissons Ratio (x) = 0.39656 0.55508
# Poissons Ratio (y) = 0.35066 -0.06952
# Poissons Ratio (z) = 0.65111 -0.09222
#
# Static dielectric constant tensor:
#      x y z
#    x 1.799770 0.000000 -0.009540 
#    y 0.000000 1.813940 0.000000 
#    z -0.009540 0.000000 1.814030 
# 
# From -- ./inp_files/312934.got.cif
#   From: 2010.05.17/outbox.cif.g08.bks.cpg/sg15_157_cif.got.tgz:312934.got - 2010.06.03 18:47:42.
