data_PCOD9277220
_publ_section_title
;
Structure prediction by ZEFSAII (Michael W. Deem and Ramdas Pophale) SiO2 
 PCOD9277220
Probable space group: C 2/C
;
_chemical_formula_sum "Si O2"
_cell_formula_units_Z 56
_cell_length_a 33.177186
_cell_length_b 11.106745
_cell_length_c 14.652782
_cell_angle_alpha 90.000000
_cell_angle_beta 28.376989
_cell_angle_gamma 90.000000
_cell_volume 2566.183157
_symmetry_space_group_name_H-M "C 2/C"
_symmetry_group_IT_number 15
_symmetry_cell_setting 'monoclinic'
loop_
_space_group_symop_operation_xyz
x,y,z
-x,y,1/2-z
-x,-y,-z
x,-y,1/2+z
1/2+x,1/2+y,z
1/2-x,1/2+y,1/2-z
1/2-x,1/2-y,-z
1/2+x,1/2-y,1/2+z
loop_
_atom_site_type_symbol
_atom_site_label
_atom_site_fract_x
_atom_site_fract_y
_atom_site_fract_z
Si Si1 0.116922 0.038698 0.100930
Si Si2 0.767115 0.367050 0.747790
Si Si3 0.401680 0.009262 0.266848
Si Si4 0.805149 0.718785 0.976558
Si Si5 0.943718 0.603462 0.983898
Si Si6 0.733781 0.342994 0.114350
Si Si7 0.442011 0.608488 0.483986
O O1 0.089512 0.064348 0.051678
O O2 0.027027 0.032109 0.333695
O O3 0.159946 0.157326 0.054458
O O4 0.187969 0.935641 0.951132
O O5 0.761986 0.347674 0.649618
O O6 0.857913 0.423243 0.598056
O O7 0.771812 0.236287 0.783853
O O8 0.314130 0.072524 0.467553
O O9 0.376889 0.871351 0.296923
O O10 0.477695 0.988060 0.187379
O O11 0.427030 0.079387 0.124586
O O12 0.750000 0.750000 0.000000
O O13 0.962515 0.746833 0.934859
O O14 0.641170 0.402714 0.286411
O O15 0.750000 0.250000 0.000000
#
# Coordination Sequence:
#
# PCOD9277220 Si02
#       7
#     8   8   8   8   8   8   8
#     4  11  22  43  70  98 135 185 232 283 349 434
#     4  11  24  44  71  99 143 182 234 287 359 429
#     4  11  22  39  71 104 139 171 234 296 350 413
#     4  12  25  39  68 105 139 181 237 298 353 412
#     4  10  20  40  70 102 129 178 231 289 337 421
#     4  11  21  41  71 104 138 185 230 286 356 429
#     4  10  20  41  71  93 132 183 231 269 347 433
#
# _framework density 21.822292000000001
#
# number of rings (size 3 to 8) (size 9 to 14) (size 15 to 20)
#    0.000    1.143    7.143    1.714    0.000    0.571 
#    0.000    0.714   31.429    0.000    0.000    0.000 
#    0.000    0.000    0.000    0.000    0.000    0.000 
#
# Total GULP energy -156166.194033 kJ/mol
# GULP energy per Si atom -5577.364073 kJ/mol
# Density = 2.177262 g / cm^3
# Si number density = 21.822292 Si / 1000 Ang^3
#
#
#
# Elastic Constant Matrix: (Units=GPa)
#
#
# Indices 1 2 3 4 5 6 
#
# 1 101.9688 21.3979 52.6816 0.0000 -18.9061 0.0000
# 2 21.3979 44.5828 34.3674 0.0000 -24.2763 0.0000
# 3 52.6816 34.3674 175.9692 0.0000 -34.4178 0.0000
# 4 0.0000 0.0000 0.0000 45.2083 0.0000 -11.0629
# 5 -18.9061 -24.2763 -34.4178 0.0000 37.0535 0.0000
# 6 0.0000 0.0000 0.0000 -11.0629 0.0000 30.0041
#
#
#
# Elastic Compliance Matrix: (Units=1/GPa)
#
#
# Indices 1 2 3 4 5 6 
#
# 1 0.012136 -0.002684 -0.002740 0.000000 0.001889 0.000000
# 2 -0.002684 0.036685 -0.002356 0.000000 0.020477 0.000000
# 3 -0.002740 -0.002356 0.007806 0.000000 0.004309 0.000000
# 4 0.000000 0.000000 0.000000 0.024314 0.000000 0.008965
# 5 0.001889 0.020477 0.004309 0.000000 0.045370 0.000000
# 6 0.000000 0.000000 0.000000 0.008965 0.000000 0.036634
#
#
# Mechanical properties :
#
#
# Convention : Reuss Voigt Hill
#
# Bulk Modulus (GPa) = 24.35066 59.93496 42.14281
# Shear Modulus (GPa) = 26.01551 36.72478 31.37015
#
# Velocity S-wave (km/s) = 3.45650 4.10677 3.79559
# Velocity P-wave (km/s) = 5.20699 7.07192 6.20986
#
# Compressibility (1/GPa) = 0.04106664
#
# Stress axis : x y z
#
# Youngs Moduli (GPa) = 82.40092 27.25935 128.10721
#
# Poissons Ratio (x) = 0.07317 0.35095
# Poissons Ratio (y) = 0.22120 0.30182
# Poissons Ratio (z) = 0.22574 0.06422
#
# Static dielectric constant tensor:
#      x y z
#    x 1.810870 0.000000 -0.002100 
#    y 0.000000 1.780530 0.000000 
#    z -0.002100 0.000000 1.960490 
# 
# From -- ./inp_files/181879.got.cif
#   From: 2010.05.17/outbox.cif.g08.bks.cpg/sg15_91_cif.got.tgz:181879.got - 2010.06.03 18:47:42.
