data_PCOD9277331
_publ_section_title
;
Structure prediction by ZEFSAII (Michael W. Deem and Ramdas Pophale) SiO2 
 PCOD9277331
Probable space group: C 2/C
;
_chemical_formula_sum "Si O2"
_cell_formula_units_Z 40
_cell_length_a 6.699602
_cell_length_b 14.117025
_cell_length_c 16.185744
_cell_angle_alpha 90.000000
_cell_angle_beta 96.281884
_cell_angle_gamma 90.000000
_cell_volume 1521.630894
_symmetry_space_group_name_H-M "C 2/C"
_symmetry_group_IT_number 15
_symmetry_cell_setting 'monoclinic'
loop_
_space_group_symop_operation_xyz
x,y,z
-x,y,1/2-z
-x,-y,-z
x,-y,1/2+z
1/2+x,1/2+y,z
1/2-x,1/2+y,1/2-z
1/2-x,1/2-y,-z
1/2+x,1/2-y,1/2+z
loop_
_atom_site_type_symbol
_atom_site_label
_atom_site_fract_x
_atom_site_fract_y
_atom_site_fract_z
Si Si1 0.957490 0.361197 0.053878
Si Si2 0.493671 0.880259 0.637592
Si Si3 0.874729 0.988700 0.908837
Si Si4 0.266805 0.560344 0.680354
Si Si5 0.196124 0.734014 0.802547
O O1 0.811953 0.443781 0.079195
O O2 0.872307 0.276435 0.104751
O O3 0.179535 0.382143 0.097262
O O4 0.956779 0.365883 0.956803
O O5 0.253116 0.896463 0.625827
O O6 0.599193 0.790859 0.683858
O O7 0.622484 0.968621 0.679985
O O8 0.019548 0.021668 0.841387
O O9 0.000000 0.000000 0.000000
O O10 0.766228 0.635747 0.746994
O O11 0.000000 0.777508 0.750000
#
# Coordination Sequence:
#
# PCOD9277331 Si02
#       5
#     8   8   8   8   8
#     4  10  20  40  74 109 147 199 261 322 390 475
#     4  11  21  42  76 114 148 205 271 312 390 490
#     4  11  19  39  74 110 145 205 264 318 384 464
#     4  10  21  43  73 107 159 204 252 326 396 463
#     4  10  24  45  70 112 164 208 255 334 400 466
#
# _framework density 26.287583000000001
#
# number of rings (size 3 to 8) (size 9 to 14) (size 15 to 20)
#    0.000    1.600    4.000    1.800    0.000    0.800 
#    3.600   11.000   13.200    0.000    0.000    0.000 
#    0.000   13.000    0.000    0.000    0.000    0.000 
#
# Total GULP energy -111755.079526 kJ/mol
# GULP energy per Si atom -5587.753976 kJ/mol
# Density = 2.622775 g / cm^3
# Si number density = 26.287583 Si / 1000 Ang^3
#
#
#
# Elastic Constant Matrix: (Units=GPa)
#
#
# Indices 1 2 3 4 5 6 
#
# 1 201.1115 62.8328 85.4676 0.0000 -11.9408 0.0000
# 2 62.8328 82.8746 73.1251 0.0000 7.5650 0.0000
# 3 85.4676 73.1251 175.2868 0.0000 -20.7356 0.0000
# 4 0.0000 0.0000 0.0000 7.4237 0.0000 24.4511
# 5 -11.9408 7.5650 -20.7356 0.0000 53.7523 0.0000
# 6 0.0000 0.0000 0.0000 24.4511 0.0000 41.3954
#
#
#
# Elastic Compliance Matrix: (Units=1/GPa)
#
#
# Indices 1 2 3 4 5 6 
#
# 1 0.006990 -0.004107 -0.001512 0.000000 0.001547 0.000000
# 2 -0.004107 0.023580 -0.008734 0.000000 -0.007600 0.000000
# 3 -0.001512 -0.008734 0.010679 0.000000 0.005013 0.000000
# 4 0.000000 0.000000 0.000000 -0.142473 0.000000 0.084155
# 5 0.001547 -0.007600 0.005013 0.000000 0.021951 0.000000
# 6 0.000000 0.000000 0.000000 0.084155 0.000000 -0.025550
#
#
# Mechanical properties :
#
#
# Convention : Reuss Voigt Hill
#
# Bulk Modulus (GPa) = 79.72009 100.23600 89.97804
# Shear Modulus (GPa) = -69.50338 36.37077 -16.56630
#
# Velocity S-wave (km/s) = -5.14753 3.72368 -2.51309
# Velocity P-wave (km/s) = 2.22202 7.53001 5.08742
#
# Compressibility (1/GPa) = 0.01254389
#
# Stress axis : x y z
#
# Youngs Moduli (GPa) = 143.06565 42.40907 93.64610
#
# Poissons Ratio (x) = 0.17416 0.14158
# Poissons Ratio (y) = 0.58753 0.81787
# Poissons Ratio (z) = 0.21630 0.37038
#
# Static dielectric constant tensor:
#      x y z
#    x 2.042420 0.000000 0.063250 
#    y 0.000000 2.270770 0.000000 
#    z 0.063250 0.000000 2.133500 
# 
# From -- ./inp_files/260459.got.cif
#   From: 2010.05.17/outbox.cif.g08.bks.cpg/sg15_131_cif.got.tgz:260459.got - 2010.06.03 18:47:42.
