data_PCOD9277593
_publ_section_title
;
Structure prediction by ZEFSAII (Michael W. Deem and Ramdas Pophale) SiO2 
 PCOD9277593
Probable space group: C 2/C
;
_chemical_formula_sum "Si O2"
_cell_formula_units_Z 40
_cell_length_a 12.413714
_cell_length_b 13.281430
_cell_length_c 12.081308
_cell_angle_alpha 90.000000
_cell_angle_beta 92.812212
_cell_angle_gamma 90.000000
_cell_volume 1989.469084
_symmetry_space_group_name_H-M "C 2/C"
_symmetry_group_IT_number 15
_symmetry_cell_setting 'monoclinic'
loop_
_space_group_symop_operation_xyz
x,y,z
-x,y,1/2-z
-x,-y,-z
x,-y,1/2+z
1/2+x,1/2+y,z
1/2-x,1/2+y,1/2-z
1/2-x,1/2-y,-z
1/2+x,1/2-y,1/2+z
loop_
_atom_site_type_symbol
_atom_site_label
_atom_site_fract_x
_atom_site_fract_y
_atom_site_fract_z
Si Si1 0.977838 0.336550 0.127267
Si Si2 0.354763 0.358234 0.702395
Si Si3 0.715073 0.202349 0.613041
Si Si4 0.744981 0.131052 0.979081
Si Si5 0.379667 0.579419 0.767931
O O1 0.939694 0.219074 0.147081
O O2 0.877633 0.390023 0.063702
O O3 0.000000 0.380205 0.250000
O O4 0.095263 0.339359 0.081198
O O5 0.298881 0.285477 0.789472
O O6 0.281560 0.404777 0.600723
O O7 0.390169 0.458651 0.766057
O O8 0.750000 0.250000 0.500000
O O9 0.799130 0.124319 0.670909
O O10 0.826625 0.105630 0.883949
O O11 0.750000 0.250000 0.000000
O O12 0.500000 0.620789 0.750000
#
# Coordination Sequence:
#
# PCOD9277593 Si02
#       5
#     8   8   8   8   8
#     4   9  17  41  65  83 122 170 203 241 317 369
#     4  10  23  42  64  95 123 166 209 257 313 369
#     4  11  24  39  63  93 130 160 208 264 307 366
#     4  10  20  41  66  85 126 171 203 247 317 382
#     4  12  25  39  66  98 122 157 215 264 309 362
#
# _framework density 20.105867
#
# number of rings (size 3 to 8) (size 9 to 14) (size 15 to 20)
#    0.000    1.600    6.000    1.800    8.400    0.800 
#    0.000    1.000    8.800    0.000    0.000    0.000 
#    0.000    0.000    0.000    0.000    0.000    0.000 
#
# Total GULP energy -111344.398173 kJ/mol
# GULP energy per Si atom -5567.219909 kJ/mol
# Density = 2.006010 g / cm^3
# Si number density = 20.105867 Si / 1000 Ang^3
#
#
#
# Elastic Constant Matrix: (Units=GPa)
#
#
# Indices 1 2 3 4 5 6 
#
# 1 154.5773 12.1629 38.3836 0.0000 -1.3114 0.0000
# 2 12.1629 73.1192 2.9058 0.0000 -5.3495 0.0000
# 3 38.3836 2.9058 73.4120 0.0000 5.0646 0.0000
# 4 0.0000 0.0000 0.0000 -65.8097 0.0000 27.7036
# 5 -1.3114 -5.3495 5.0646 0.0000 33.4102 0.0000
# 6 0.0000 0.0000 0.0000 27.7036 0.0000 7.7208
#
#
#
# Elastic Compliance Matrix: (Units=1/GPa)
#
#
# Indices 1 2 3 4 5 6 
#
# 1 0.007538 -0.001044 -0.003950 0.000000 0.000728 0.000000
# 2 -0.001044 0.014019 -0.000163 0.000000 0.002228 0.000000
# 3 -0.003950 -0.000163 0.015872 0.000000 -0.002587 0.000000
# 4 0.000000 0.000000 0.000000 -0.006053 0.000000 0.021718
# 5 0.000728 0.002228 -0.002587 0.000000 0.030709 0.000000
# 6 0.000000 0.000000 0.000000 0.021718 0.000000 0.051591
#
#
# Mechanical properties :
#
#
# Convention : Reuss Voigt Hill
#
# Bulk Modulus (GPa) = 36.87869 45.33478 41.10674
# Shear Modulus (GPa) = 37.58551 11.57468 24.58009
#
# Velocity S-wave (km/s) = 4.32832 2.40195 3.50027
# Velocity P-wave (km/s) = 6.58493 5.50359 6.06839
#
# Compressibility (1/GPa) = 0.02711593
#
# Stress axis : x y z
#
# Youngs Moduli (GPa) = 132.65258 71.32957 63.00338
#
# Poissons Ratio (x) = 0.07445 0.24889
# Poissons Ratio (y) = 0.13846 0.01026
# Poissons Ratio (z) = 0.52403 0.01162
#
# Static dielectric constant tensor:
#      x y z
#    x 1.928840 0.000000 0.133460 
#    y 0.000000 1.661000 0.000000 
#    z 0.133460 0.000000 1.859390 
# 
# From -- ./inp_files/85530.got.cif
#   From: 2010.05.17/outbox.cif.g08.bks.cpg/sg15_43_cif.got.tgz:85530.got - 2010.06.03 18:47:42.
