data_PCOD9277068
_publ_section_title
;
Structure prediction by ZEFSAII (Michael W. Deem and Ramdas Pophale) SiO2 
 PCOD9277068
Probable space group: C 2/C
;
_chemical_formula_sum "Si O2"
_cell_formula_units_Z 64
_cell_length_a 28.883979
_cell_length_b 13.646448
_cell_length_c 8.636191
_cell_angle_alpha 90.000000
_cell_angle_beta 50.167024
_cell_angle_gamma 90.000000
_cell_volume 2614.038791
_symmetry_space_group_name_H-M "C 2/C"
_symmetry_group_IT_number 15
_symmetry_cell_setting 'monoclinic'
loop_
_space_group_symop_operation_xyz
x,y,z
-x,y,1/2-z
-x,-y,-z
x,-y,1/2+z
1/2+x,1/2+y,z
1/2-x,1/2+y,1/2-z
1/2-x,1/2-y,-z
1/2+x,1/2-y,1/2+z
loop_
_atom_site_type_symbol
_atom_site_label
_atom_site_fract_x
_atom_site_fract_y
_atom_site_fract_z
Si Si1 0.114905 0.643909 0.786914
Si Si2 0.342230 0.399870 0.153990
Si Si3 0.559538 0.558280 0.519690
Si Si4 0.831828 0.795524 0.628640
Si Si5 0.867025 0.474733 0.562692
Si Si6 0.271305 0.534263 0.102841
Si Si7 0.382587 0.783204 0.716158
Si Si8 0.489101 0.290616 0.591675
O O1 0.166406 0.720478 0.732745
O O2 0.099321 0.575048 0.967844
O O3 0.128991 0.571061 0.615773
O O4 0.059085 0.709659 0.854685
O O5 0.315275 0.445221 0.056498
O O6 0.293837 0.426055 0.390381
O O7 0.355734 0.285715 0.136626
O O8 0.403393 0.457781 0.067537
O O9 0.500000 0.553892 0.750000
O O10 0.608826 0.635332 0.480442
O O11 0.537366 0.605615 0.406693
O O12 0.780739 0.876108 0.704732
O O13 0.839730 0.731983 0.455209
O O14 0.797217 0.496394 0.748402
O O15 0.887862 0.390418 0.636592
O O16 0.447475 0.739011 0.619522
O O17 0.500000 0.288139 0.750000
#
# Coordination Sequence:
#
# PCOD9277068 Si02
#       8
#     8   8   8   8   8   8   8   8
#     4  11  25  43  67  95 126 168 227 274 332 388
#     4  10  24  40  65 101 134 172 216 267 330 396
#     4  10  20  40  67  98 135 177 207 258 333 403
#     4   9  21  42  63  95 131 167 212 268 329 392
#     4  12  25  43  67  93 124 177 228 273 325 385
#     4  10  23  43  64  95 135 171 218 271 327 386
#     4  11  23  41  64  95 131 174 219 265 327 395
#     4  11  23  42  65  99 137 169 216 279 328 392
#
# _framework density 24.483187000000001
#
# number of rings (size 3 to 8) (size 9 to 14) (size 15 to 20)
#    0.000    1.500    2.500    1.500    1.750    6.000 
#    0.000    0.000    0.000    0.000    0.000    0.000 
#    0.000    0.000    0.000    0.000    0.000    0.000 
#
# Total GULP energy -179242.184083 kJ/mol
# GULP energy per Si atom -5601.318253 kJ/mol
# Density = 2.442746 g / cm^3
# Si number density = 24.483187 Si / 1000 Ang^3
#
#
#
# Elastic Constant Matrix: (Units=GPa)
#
#
# Indices 1 2 3 4 5 6 
#
# 1 66.5459 19.9104 12.0624 0.0000 10.4067 0.0000
# 2 19.9104 108.0824 8.3456 0.0000 17.5391 0.0000
# 3 12.0624 8.3456 49.0025 0.0000 -2.0101 0.0000
# 4 0.0000 0.0000 0.0000 105.7487 0.0000 9.0738
# 5 10.4067 17.5391 -2.0101 0.0000 25.8582 0.0000
# 6 0.0000 0.0000 0.0000 9.0738 0.0000 31.4215
#
#
#
# Elastic Compliance Matrix: (Units=1/GPa)
#
#
# Indices 1 2 3 4 5 6 
#
# 1 0.017288 -0.001888 -0.004180 0.000000 -0.006002 0.000000
# 2 -0.001888 0.010816 -0.001652 0.000000 -0.006705 0.000000
# 3 -0.004180 -0.001652 0.021902 0.000000 0.004506 0.000000
# 4 0.000000 0.000000 0.000000 0.009697 0.000000 -0.002800
# 5 -0.006002 -0.006705 0.004506 0.000000 0.045986 0.000000
# 6 0.000000 0.000000 0.000000 -0.002800 0.000000 0.032634
#
#
# Mechanical properties :
#
#
# Convention : Reuss Voigt Hill
#
# Bulk Modulus (GPa) = 28.93091 33.80752 31.36921
# Shear Modulus (GPa) = 30.25060 44.82651 37.53855
#
# Velocity S-wave (km/s) = 3.51888 4.28356 3.91991
# Velocity P-wave (km/s) = 5.32469 6.18899 5.77303
#
# Compressibility (1/GPa) = 0.03456511
#
# Stress axis : x y z
#
# Youngs Moduli (GPa) = 57.84192 92.45935 45.65712
#
# Poissons Ratio (x) = 0.17456 0.19086
# Poissons Ratio (y) = 0.10921 0.07544
# Poissons Ratio (z) = 0.24180 0.15277
#
# Static dielectric constant tensor:
#      x y z
#    x 1.930490 0.000000 0.044650 
#    y 0.000000 1.945780 0.000000 
#    z 0.044650 0.000000 1.953820 
# 
# From -- ./inp_files/70132.got.cif
#   From: 2010.05.17/outbox.cif.g08.bks.cpg/sg15_36_cif.got.tgz:70132.got - 2010.06.03 18:47:42.
