data_PCOD9277919
_publ_section_title
;
Structure prediction by ZEFSAII (Michael W. Deem and Ramdas Pophale) SiO2 
 PCOD9277919
Probable space group: C 2/C
;
_chemical_formula_sum "Si O2"
_cell_formula_units_Z 56
_cell_length_a 26.235097
_cell_length_b 9.359094
_cell_length_c 18.346704
_cell_angle_alpha 90.000000
_cell_angle_beta 44.651625
_cell_angle_gamma 90.000000
_cell_volume 3165.940743
_symmetry_space_group_name_H-M "C 2/C"
_symmetry_group_IT_number 15
_symmetry_cell_setting 'monoclinic'
loop_
_space_group_symop_operation_xyz
x,y,z
-x,y,1/2-z
-x,-y,-z
x,-y,1/2+z
1/2+x,1/2+y,z
1/2-x,1/2+y,1/2-z
1/2-x,1/2-y,-z
1/2+x,1/2-y,1/2+z
loop_
_atom_site_type_symbol
_atom_site_label
_atom_site_fract_x
_atom_site_fract_y
_atom_site_fract_z
Si Si1 0.536123 0.057664 0.388470
Si Si2 0.254978 0.993529 0.669369
Si Si3 0.423865 0.887252 0.288825
Si Si4 0.690368 0.644095 0.092670
Si Si5 0.209699 0.856544 0.985548
Si Si6 0.809042 0.305762 0.747993
Si Si7 0.107183 0.615072 0.056319
O O1 0.604820 0.161206 0.333854
O O2 0.470216 0.116655 0.405230
O O3 0.500000 0.000000 0.500000
O O4 0.568254 0.934719 0.302962
O O5 0.211400 0.909416 0.651525
O O6 0.275293 0.889671 0.714273
O O7 0.211054 0.137524 0.734901
O O8 0.331451 0.043769 0.556814
O O9 0.500000 0.861434 0.250000
O O10 0.380064 0.741554 0.337115
O O11 0.393287 0.019902 0.369009
O O12 0.750000 0.750000 0.000000
O O13 0.690996 0.504832 0.041696
O O14 0.265319 0.867532 0.862050
O O15 0.250000 0.750000 0.000000
O O16 0.136371 0.773659 0.039620
#
# Coordination Sequence:
#
# PCOD9277919 Si02
#       7
#     8   8   8   8   8   8   8
#     4  11  22  39  67  87 124 168 207 245 306 380
#     4  11  24  38  64  92 125 159 209 255 312 366
#     4  10  23  39  61  92 122 163 205 250 311 374
#     4  12  22  39  67  91 126 160 206 266 311 363
#     4  11  21  40  64  94 121 158 212 262 307 370
#     4  11  24  40  61  96 122 161 211 255 311 367
#     4  10  20  42  62  90 121 159 211 252 307 374
#
# _framework density 17.688265000000001
#
# number of rings (size 3 to 8) (size 9 to 14) (size 15 to 20)
#    0.000    1.143    5.714    1.714    4.000    0.000 
#    2.571    0.000    0.000    4.286    0.000    0.000 
#    0.000    0.000    0.000    0.000    0.000    0.000 
#
# Total GULP energy -156242.930557 kJ/mol
# GULP energy per Si atom -5580.104663 kJ/mol
# Density = 1.764801 g / cm^3
# Si number density = 17.688265 Si / 1000 Ang^3
#
#
#
# Elastic Constant Matrix: (Units=GPa)
#
#
# Indices 1 2 3 4 5 6 
#
# 1 89.5339 68.5639 48.0663 -0.0011 3.3542 0.0013
# 2 68.5639 128.7589 76.3633 -0.0028 0.9597 0.0037
# 3 48.0663 76.3633 108.1510 -0.0011 9.9433 0.0018
# 4 -0.0011 -0.0028 -0.0011 37.7459 0.0002 0.8243
# 5 3.3542 0.9597 9.9433 0.0002 38.7871 -0.0004
# 6 0.0013 0.0037 0.0018 0.8243 -0.0004 32.2375
#
#
#
# Elastic Compliance Matrix: (Units=1/GPa)
#
#
# Indices 1 2 3 4 5 6 
#
# 1 0.019205 -0.008957 -0.002128 0.000000 -0.000894 0.000000
# 2 -0.008957 0.017715 -0.008765 0.000001 0.002583 -0.000001
# 3 -0.002128 -0.008765 0.016739 0.000000 -0.003890 0.000000
# 4 0.000000 0.000001 0.000000 0.026508 0.000000 -0.000678
# 5 -0.000894 0.002583 -0.003890 0.000000 0.026792 0.000000
# 6 0.000000 -0.000001 0.000000 -0.000678 0.000000 0.031037
#
#
# Mechanical properties :
#
#
# Convention : Reuss Voigt Hill
#
# Bulk Modulus (GPa) = 71.64855 79.15896 75.40376
# Shear Modulus (GPa) = 27.41991 30.65078 29.03534
#
# Velocity S-wave (km/s) = 3.94150 4.16725 4.05594
# Velocity P-wave (km/s) = 7.82995 8.24645 8.04090
#
# Compressibility (1/GPa) = 0.01395702
#
# Stress axis : x y z
#
# Youngs Moduli (GPa) = 52.07109 56.44866 59.74211
#
# Poissons Ratio (x) = 0.50563 0.12715
# Poissons Ratio (y) = 0.46642 0.52363
# Poissons Ratio (z) = 0.11083 0.49476
#
# Static dielectric constant tensor:
#      x y z
#    x 1.618480 0.000000 0.010910 
#    y 0.000000 1.620660 0.000000 
#    z 0.010910 0.000000 1.587570 
# 
# From -- ./inp_files/218524.got.cif
#   From: 2010.05.17/outbox.cif.g08.bks.cpg/sg15_110_cif.got.tgz:218524.got - 2010.06.03 18:47:42.
