data_PCOD9277961
_publ_section_title
;
Structure prediction by ZEFSAII (Michael W. Deem and Ramdas Pophale) SiO2 
 PCOD9277961
Probable space group: C 2/C
;
_chemical_formula_sum "Si O2"
_cell_formula_units_Z 60
_cell_length_a 9.498541
_cell_length_b 10.638807
_cell_length_c 31.032862
_cell_angle_alpha 90.000000
_cell_angle_beta 93.967500
_cell_angle_gamma 90.000000
_cell_volume 3128.452807
_symmetry_space_group_name_H-M "C 2/C"
_symmetry_group_IT_number 15
_symmetry_cell_setting 'monoclinic'
loop_
_space_group_symop_operation_xyz
x,y,z
-x,y,1/2-z
-x,-y,-z
x,-y,1/2+z
1/2+x,1/2+y,z
1/2-x,1/2+y,1/2-z
1/2-x,1/2-y,-z
1/2+x,1/2-y,1/2+z
loop_
_atom_site_type_symbol
_atom_site_label
_atom_site_fract_x
_atom_site_fract_y
_atom_site_fract_z
Si Si1 0.024448 0.537491 0.549889
Si Si2 0.500000 0.570658 0.250000
Si Si3 0.060538 0.335405 0.690413
Si Si4 0.202386 0.959397 0.323665
Si Si5 0.650532 0.542148 0.923556
Si Si6 0.824258 0.771263 0.547957
Si Si7 0.038708 0.274569 0.593255
Si Si8 0.279923 0.791208 0.724657
O O1 0.189081 0.567769 0.558952
O O2 0.989211 0.413900 0.577575
O O3 0.000000 0.500000 0.500000
O O4 0.932640 0.659268 0.558238
O O5 0.572692 0.494992 0.290050
O O6 0.368969 0.647703 0.267276
O O7 0.164259 0.451336 0.683300
O O8 0.036126 0.266496 0.644759
O O9 0.145691 0.254645 0.728113
O O10 0.907219 0.372801 0.706179
O O11 0.159601 0.975382 0.372161
O O12 0.242796 0.820507 0.309339
O O13 0.609594 0.410665 0.945560
O O14 0.551278 0.661799 0.929211
O O15 0.750000 0.750000 0.500000
O O16 0.698211 0.765879 0.579804
#
# Coordination Sequence:
#
# PCOD9277961 Si02
#       8
#     8   4   8   8   8   8   8   8
#     4  11  23  46  67  94 138 173 212 277 338 392
#     4  10  24  38  62  96 124 170 220 262 314 394
#     4  10  20  42  63  91 133 174 211 267 330 380
#     4  11  21  42  63  92 134 169 216 270 326 380
#     4  11  24  41  70  98 133 171 221 277 321 401
#     4  11  23  46  67  95 135 174 214 276 337 390
#     4  11  23  43  67 101 131 175 221 272 329 395
#     4  10  22  39  66  89 128 171 214 265 323 380
#
# _framework density 19.178809000000001
#
# number of rings (size 3 to 8) (size 9 to 14) (size 15 to 20)
#    0.000    1.333    6.667    0.800    0.000    5.333 
#    2.400    1.333    0.000    0.000    0.000    0.000 
#    0.000    0.000    0.000    0.000    0.000    0.000 
#
# Total GULP energy -167362.788261 kJ/mol
# GULP energy per Si atom -5578.759609 kJ/mol
# Density = 1.913516 g / cm^3
# Si number density = 19.178809 Si / 1000 Ang^3
#
#
#
# Elastic Constant Matrix: (Units=GPa)
#
#
# Indices 1 2 3 4 5 6 
#
# 1 93.2216 32.9768 -3.9872 0.0000 9.2076 0.0000
# 2 32.9768 86.5042 -20.1274 0.0000 11.2901 0.0000
# 3 -3.9872 -20.1274 63.0960 0.0000 6.8667 0.0000
# 4 0.0000 0.0000 0.0000 27.0632 0.0000 7.3288
# 5 9.2076 11.2901 6.8667 0.0000 27.5304 0.0000
# 6 0.0000 0.0000 0.0000 7.3288 0.0000 28.8714
#
#
#
# Elastic Compliance Matrix: (Units=1/GPa)
#
#
# Indices 1 2 3 4 5 6 
#
# 1 0.012553 -0.004599 -0.000434 0.000000 -0.002204 0.000000
# 2 -0.004599 0.015328 0.005258 0.000000 -0.006059 0.000000
# 3 -0.000434 0.005258 0.018212 0.000000 -0.006554 0.000000
# 4 0.000000 0.000000 0.000000 0.039678 0.000000 -0.010072
# 5 -0.002204 -0.006059 -0.006554 0.000000 0.041180 0.000000
# 6 0.000000 0.000000 0.000000 -0.010072 0.000000 0.037193
#
#
# Mechanical properties :
#
#
# Convention : Reuss Voigt Hill
#
# Bulk Modulus (GPa) = 21.48499 28.94958 25.21729
# Shear Modulus (GPa) = 27.90065 32.29030 30.09547
#
# Velocity S-wave (km/s) = 3.81828 4.10768 3.96562
# Velocity P-wave (km/s) = 5.53767 6.13389 5.84339
#
# Compressibility (1/GPa) = 0.04654411
#
# Stress axis : x y z
#
# Youngs Moduli (GPa) = 79.66185 65.24219 54.90873
#
# Poissons Ratio (x) = 0.30003 0.02382
# Poissons Ratio (y) = 0.36634 -0.28872
# Poissons Ratio (z) = 0.03456 -0.34306
#
# Static dielectric constant tensor:
#      x y z
#    x 1.645420 0.000000 -0.005400 
#    y 0.000000 1.698130 0.000000 
#    z -0.005400 0.000000 1.683950 
# 
# From -- ./inp_files/307217.got.cif
#   From: 2010.05.17/outbox.cif.g08.bks.cpg/sg15_154_cif.got.tgz:307217.got - 2010.06.03 18:47:42.
