data_PCOD9277615
_publ_section_title
;
Structure prediction by ZEFSAII (Michael W. Deem and Ramdas Pophale) SiO2 
 PCOD9277615
Probable space group: C 2/C
;
_chemical_formula_sum "Si O2"
_cell_formula_units_Z 48
_cell_length_a 7.033800
_cell_length_b 28.628575
_cell_length_c 15.639583
_cell_angle_alpha 90.000000
_cell_angle_beta 52.625727
_cell_angle_gamma 90.000000
_cell_volume 2502.713690
_symmetry_space_group_name_H-M "C 2/C"
_symmetry_group_IT_number 15
_symmetry_cell_setting 'monoclinic'
loop_
_space_group_symop_operation_xyz
x,y,z
-x,y,1/2-z
-x,-y,-z
x,-y,1/2+z
1/2+x,1/2+y,z
1/2-x,1/2+y,1/2-z
1/2-x,1/2-y,-z
1/2+x,1/2-y,1/2+z
loop_
_atom_site_type_symbol
_atom_site_label
_atom_site_fract_x
_atom_site_fract_y
_atom_site_fract_z
Si Si1 0.500000 0.465840 0.250000
Si Si2 0.876693 0.233596 0.054033
Si Si3 0.261640 0.030683 0.058865
Si Si4 0.768045 0.628562 0.149179
Si Si5 0.496221 0.079866 0.848955
Si Si6 0.000000 0.668246 0.250000
Si Si7 0.635424 0.180847 0.553893
O O1 0.544953 0.499631 0.155183
O O2 0.740404 0.434989 0.189398
O O3 0.708048 0.200862 0.156438
O O4 0.943364 0.278453 0.093162
O O5 0.750000 0.250000 0.000000
O O6 0.124728 0.204660 0.973462
O O7 0.287053 0.075553 0.112725
O O8 0.284644 0.053015 0.958199
O O9 0.500000 0.000000 0.000000
O O10 0.500000 0.638343 0.250000
O O11 0.924979 0.637816 0.189305
O O12 0.822748 0.661806 0.054099
O O13 0.500000 0.066398 0.750000
O O14 0.449927 0.135084 0.872558
#
# Coordination Sequence:
#
# PCOD9277615 Si02
#       7
#     4   8   8   8   8   4   8
#     4  10  20  41  66  92 126 168 210 259 318 378
#     4  11  23  40  62  92 124 162 215 254 308 379
#     4   9  20  41  64  91 127 163 205 267 313 372
#     4  11  20  40  63  88 127 159 210 262 317 370
#     4  10  23  41  62  94 128 168 209 254 322 381
#     4  12  24  37  64  96 116 170 216 257 316 382
#     4  10  23  41  61  88 130 165 200 267 313 367
#
# _framework density 19.179181
#
# number of rings (size 3 to 8) (size 9 to 14) (size 15 to 20)
#    0.000    1.667    4.167    0.000    0.000    4.000 
#    9.000    0.000    0.000    0.000    0.000    0.000 
#    0.000    0.000    0.000    0.000    0.000    0.000 
#
# Total GULP energy -133802.136515 kJ/mol
# GULP energy per Si atom -5575.089021 kJ/mol
# Density = 1.913553 g / cm^3
# Si number density = 19.179181 Si / 1000 Ang^3
#
#
#
# Elastic Constant Matrix: (Units=GPa)
#
#
# Indices 1 2 3 4 5 6 
#
# 1 78.3390 16.5946 14.9494 0.0000 11.8248 0.0000
# 2 16.5946 61.9983 2.1607 0.0000 4.7855 0.0000
# 3 14.9494 2.1607 72.3289 0.0000 9.9098 0.0000
# 4 0.0000 0.0000 0.0000 29.5340 0.0000 -15.4130
# 5 11.8248 4.7855 9.9098 0.0000 27.5702 0.0000
# 6 0.0000 0.0000 0.0000 -15.4130 0.0000 15.7600
#
#
#
# Elastic Compliance Matrix: (Units=1/GPa)
#
#
# Indices 1 2 3 4 5 6 
#
# 1 0.014668 -0.003471 -0.002260 0.000000 -0.004876 0.000000
# 2 -0.003471 0.017171 0.000430 0.000000 -0.001646 0.000000
# 3 -0.002260 0.000430 0.014891 0.000000 -0.004458 0.000000
# 4 0.000000 0.000000 0.000000 0.069155 0.000000 0.067632
# 5 -0.004876 -0.001646 -0.004458 0.000000 0.040250 0.000000
# 6 0.000000 0.000000 0.000000 0.067632 0.000000 0.129595
#
#
# Mechanical properties :
#
#
# Convention : Reuss Voigt Hill
#
# Bulk Modulus (GPa) = 27.67968 31.11949 29.39958
# Shear Modulus (GPa) = 16.21413 26.50361 21.35887
#
# Velocity S-wave (km/s) = 2.91073 3.72142 3.34076
# Velocity P-wave (km/s) = 5.07543 5.89289 5.49937
#
# Compressibility (1/GPa) = 0.03612759
#
# Stress axis : x y z
#
# Youngs Moduli (GPa) = 68.17787 58.23918 67.15596
#
# Poissons Ratio (x) = 0.20214 0.15176
# Poissons Ratio (y) = 0.23663 -0.02888
# Poissons Ratio (z) = 0.15407 -0.02504
#
# Static dielectric constant tensor:
#      x y z
#    x 1.688310 0.000000 0.021140 
#    y 0.000000 1.658390 0.000000 
#    z 0.021140 0.000000 1.698880 
# 
# From -- ./inp_files/130648.got.cif
#   From: 2010.05.17/outbox.cif.g08.bks.cpg/sg15_66_cif.got.tgz:130648.got - 2010.06.03 18:47:42.
