data_PCOD9277256
_publ_section_title
;
Structure prediction by ZEFSAII (Michael W. Deem and Ramdas Pophale) SiO2 
 PCOD9277256
Probable space group: C 2/C
;
_chemical_formula_sum "Si O2"
_cell_formula_units_Z 40
_cell_length_a 13.593481
_cell_length_b 18.270773
_cell_length_c 9.961920
_cell_angle_alpha 90.000000
_cell_angle_beta 135.379774
_cell_angle_gamma 90.000000
_cell_volume 1737.872280
_symmetry_space_group_name_H-M "C 2/C"
_symmetry_group_IT_number 15
_symmetry_cell_setting 'monoclinic'
loop_
_space_group_symop_operation_xyz
x,y,z
-x,y,1/2-z
-x,-y,-z
x,-y,1/2+z
1/2+x,1/2+y,z
1/2-x,1/2+y,1/2-z
1/2-x,1/2-y,-z
1/2+x,1/2-y,1/2+z
loop_
_atom_site_type_symbol
_atom_site_label
_atom_site_fract_x
_atom_site_fract_y
_atom_site_fract_z
Si Si1 0.000000 0.914907 0.750000
Si Si2 0.715669 0.462890 0.374407
Si Si3 0.500000 0.339359 0.250000
Si Si4 0.959434 0.285228 0.495324
Si Si5 0.000000 0.590439 0.250000
Si Si6 0.240479 0.872758 0.151872
Si Si7 0.000000 0.330582 0.250000
O O1 0.911894 0.868578 0.559001
O O2 0.116901 0.967501 0.797638
O O3 0.628165 0.393329 0.344526
O O4 0.864231 0.458324 0.591396
O O5 0.741234 0.445430 0.242937
O O6 0.529301 0.286431 0.404423
O O7 0.014387 0.353974 0.637293
O O8 0.797877 0.307077 0.302099
O O9 0.028870 0.287210 0.415879
O O10 0.360212 0.873908 0.154465
#
# Coordination Sequence:
#
# PCOD9277256 Si02
#       7
#     4   8   4   8   4   8   4
#     4  11  22  41  63  94 130 165 212 276 316 373
#     4  10  22  40  65  99 123 171 213 263 318 384
#     4  10  20  40  70  93 133 163 214 263 318 384
#     4   8  18  37  66  87 125 166 212 256 317 377
#     4   9  18  38  62  90 126 163 221 247 312 383
#     4   9  20  41  63  89 130 166 219 256 323 379
#     4   8  18  41  61  91 129 167 213 256 326 386
#
# _framework density 23.016652000000001
#
# number of rings (size 3 to 8) (size 9 to 14) (size 15 to 20)
#    1.200    1.600    0.000    0.600    0.000    8.000 
#   10.800    5.000    4.400    0.000    0.000    0.000 
#    0.000    3.200    0.000    0.000    0.000    0.000 
#
# Total GULP energy -111614.254438 kJ/mol
# GULP energy per Si atom -5580.712722 kJ/mol
# Density = 2.296427 g / cm^3
# Si number density = 23.016652 Si / 1000 Ang^3
#
#
#
# Elastic Constant Matrix: (Units=GPa)
#
#
# Indices 1 2 3 4 5 6 
#
# 1 141.4399 51.9231 56.8893 0.0000 -10.1668 0.0000
# 2 51.9231 92.8056 51.1775 0.0000 1.2760 0.0000
# 3 56.8893 51.1775 203.3275 0.0000 12.0588 0.0000
# 4 0.0000 0.0000 0.0000 9.8077 0.0000 -11.6288
# 5 -10.1668 1.2760 12.0588 0.0000 48.3595 0.0000
# 6 0.0000 0.0000 0.0000 -11.6288 0.0000 -9.7677
#
#
#
# Elastic Compliance Matrix: (Units=1/GPa)
#
#
# Indices 1 2 3 4 5 6 
#
# 1 0.009575 -0.004449 -0.001711 0.000000 0.002557 0.000000
# 2 -0.004449 0.014589 -0.002384 0.000000 -0.000726 0.000000
# 3 -0.001711 -0.002384 0.006105 0.000000 -0.001819 0.000000
# 4 0.000000 0.000000 0.000000 0.042280 0.000000 -0.050335
# 5 0.002557 -0.000726 -0.001819 0.000000 0.021689 0.000000
# 6 0.000000 0.000000 0.000000 -0.050335 0.000000 -0.042453
#
#
# Mechanical properties :
#
#
# Convention : Reuss Voigt Hill
#
# Bulk Modulus (GPa) = 75.86646 84.17254 80.01950
# Shear Modulus (GPa) = 68.24373 28.18543 48.21458
#
# Velocity S-wave (km/s) = 5.45106 3.50318 4.58183
# Velocity P-wave (km/s) = 8.52361 7.28098 7.92668
#
# Compressibility (1/GPa) = 0.01318106
#
# Stress axis : x y z
#
# Youngs Moduli (GPa) = 104.43508 68.54456 163.80299
#
# Poissons Ratio (x) = 0.30495 0.28026
# Poissons Ratio (y) = 0.46462 0.39055
# Poissons Ratio (z) = 0.17869 0.16343
#
# Static dielectric constant tensor:
#      x y z
#    x 1.898850 0.000000 -0.023970 
#    y 0.000000 1.859910 0.000000 
#    z -0.023970 0.000000 1.866450 
# 
# From -- ./inp_files/99572.got.cif
#   From: 2010.05.17/outbox.cif.g08.bks.cpg/sg15_50_cif.got.tgz:99572.got - 2010.06.03 18:47:42.
