data_PCOD9277729
_publ_section_title
;
Structure prediction by ZEFSAII (Michael W. Deem and Ramdas Pophale) SiO2 
 PCOD9277729
Probable space group: C 2/C
;
_chemical_formula_sum "Si O2"
_cell_formula_units_Z 40
_cell_length_a 9.066923
_cell_length_b 29.504060
_cell_length_c 12.261464
_cell_angle_alpha 90.000000
_cell_angle_beta 144.758306
_cell_angle_gamma 90.000000
_cell_volume 1892.692322
_symmetry_space_group_name_H-M "C 2/C"
_symmetry_group_IT_number 15
_symmetry_cell_setting 'monoclinic'
loop_
_space_group_symop_operation_xyz
x,y,z
-x,y,1/2-z
-x,-y,-z
x,-y,1/2+z
1/2+x,1/2+y,z
1/2-x,1/2+y,1/2-z
1/2-x,1/2-y,-z
1/2+x,1/2-y,1/2+z
loop_
_atom_site_type_symbol
_atom_site_label
_atom_site_fract_x
_atom_site_fract_y
_atom_site_fract_z
Si Si1 0.084522 0.194541 0.483554
Si Si2 0.087604 0.360254 0.676976
Si Si3 0.653039 0.521531 0.934017
Si Si4 0.460085 0.202644 0.907496
Si Si5 0.799698 0.539895 0.262380
O O1 0.256287 0.188243 0.694070
O O2 0.265209 0.196197 0.486296
O O3 0.944008 0.243118 0.411918
O O4 0.879202 0.155829 0.349721
O O5 0.943837 0.326142 0.507901
O O6 0.090804 0.411756 0.636117
O O7 0.000000 0.357904 0.750000
O O8 0.500000 0.549752 0.750000
O O9 0.445297 0.481674 0.827893
O O10 0.698813 0.545589 0.077176
O O11 0.945547 0.508280 0.082206
#
# Coordination Sequence:
#
# PCOD9277729 Si02
#       5
#     8   8   8   8   8
#     4  10  21  41  66  90 119 172 218 263 312 370
#     4  12  24  40  61  95 138 164 208 267 322 385
#     4  10  20  41  68  90 123 171 210 267 322 383
#     4  10  21  41  66  89 122 169 220 263 311 372
#     4  10  23  42  63  97 128 169 215 263 323 388
#
# _framework density 21.133915999999999
#
# number of rings (size 3 to 8) (size 9 to 14) (size 15 to 20)
#    0.000    1.600    4.000    1.200    0.000    4.800 
#    0.000    8.000    0.000    0.000    0.000    0.000 
#    0.000    0.000    0.000    0.000    0.000    0.000 
#
# Total GULP energy -111535.066516 kJ/mol
# GULP energy per Si atom -5576.753326 kJ/mol
# Density = 2.108581 g / cm^3
# Si number density = 21.133916 Si / 1000 Ang^3
#
#
#
# Elastic Constant Matrix: (Units=GPa)
#
#
# Indices 1 2 3 4 5 6 
#
# 1 69.1626 33.2004 20.6672 0.0000 -1.0738 0.0000
# 2 33.2004 51.5585 0.2063 0.0000 2.5453 0.0000
# 3 20.6672 0.2063 105.9067 0.0000 -2.3875 0.0000
# 4 0.0000 0.0000 0.0000 13.4406 0.0000 4.4621
# 5 -1.0738 2.5453 -2.3875 0.0000 30.8332 0.0000
# 6 0.0000 0.0000 0.0000 4.4621 0.0000 19.8704
#
#
#
# Elastic Compliance Matrix: (Units=1/GPa)
#
#
# Indices 1 2 3 4 5 6 
#
# 1 0.022916 -0.014822 -0.004405 0.000000 0.001681 0.000000
# 2 -0.014822 0.029062 0.002775 0.000000 -0.002700 0.000000
# 3 -0.004405 0.002775 0.010306 0.000000 0.000416 0.000000
# 4 0.000000 0.000000 0.000000 0.080395 0.000000 -0.018053
# 5 0.001681 -0.002700 0.000416 0.000000 0.032746 0.000000
# 6 0.000000 0.000000 0.000000 -0.018053 0.000000 0.054380
#
#
# Mechanical properties :
#
#
# Convention : Reuss Voigt Hill
#
# Bulk Modulus (GPa) = 34.03709 37.19728 35.61719
# Shear Modulus (GPa) = 18.34843 24.33244 21.34044
#
# Velocity S-wave (km/s) = 2.94972 3.39683 3.18114
# Velocity P-wave (km/s) = 5.26702 5.74661 5.51204
#
# Compressibility (1/GPa) = 0.02937971
#
# Stress axis : x y z
#
# Youngs Moduli (GPa) = 43.63742 34.40920 97.03189
#
# Poissons Ratio (x) = 0.51001 0.42745
# Poissons Ratio (y) = 0.64679 -0.26926
# Poissons Ratio (z) = 0.19223 -0.09548
#
# Static dielectric constant tensor:
#      x y z
#    x 1.848310 0.000000 -0.054480 
#    y 0.000000 1.738410 0.000000 
#    z -0.054480 0.000000 1.781210 
# 
# From -- ./inp_files/82378.got.cif
#   From: 2010.05.17/outbox.cif.g08.bks.cpg/sg15_42_cif.got.tgz:82378.got - 2010.06.03 18:47:42.
