data_PCOD9277672
_publ_section_title
;
Structure prediction by ZEFSAII (Michael W. Deem and Ramdas Pophale) SiO2 
 PCOD9277672
Probable space group: C 2/C
;
_chemical_formula_sum "Si O2"
_cell_formula_units_Z 40
_cell_length_a 10.678684
_cell_length_b 9.464134
_cell_length_c 20.255611
_cell_angle_alpha 90.000000
_cell_angle_beta 57.989894
_cell_angle_gamma 90.000000
_cell_volume 1735.867498
_symmetry_space_group_name_H-M "C 2/C"
_symmetry_group_IT_number 15
_symmetry_cell_setting 'monoclinic'
loop_
_space_group_symop_operation_xyz
x,y,z
-x,y,1/2-z
-x,-y,-z
x,-y,1/2+z
1/2+x,1/2+y,z
1/2-x,1/2+y,1/2-z
1/2-x,1/2-y,-z
1/2+x,1/2-y,1/2+z
loop_
_atom_site_type_symbol
_atom_site_label
_atom_site_fract_x
_atom_site_fract_y
_atom_site_fract_z
Si Si1 0.158566 0.451373 0.422505
Si Si2 0.623125 0.116261 0.668318
Si Si3 0.672315 0.625784 0.388883
Si Si4 0.874137 0.844672 0.934812
Si Si5 0.327161 0.611115 0.270492
O O1 0.189283 0.284614 0.410369
O O2 0.289738 0.527431 0.425435
O O3 0.200023 0.512878 0.338285
O O4 0.000000 0.500000 0.500000
O O5 0.500000 0.052271 0.750000
O O6 0.556116 0.223263 0.632953
O O7 0.706446 0.232173 0.690885
O O8 0.721212 0.992543 0.611519
O O9 0.499513 0.601345 0.446646
O O10 0.688145 0.606363 0.304234
O O11 0.750000 0.750000 0.000000
O O12 0.500000 0.577548 0.250000
#
# Coordination Sequence:
#
# PCOD9277672 Si02
#       5
#     8   8   8   8   8
#     4  11  23  40  67 100 127 172 217 265 329 378
#     4  10  22  42  62  96 123 163 218 260 318 385
#     4  12  22  40  69  90 127 170 213 269 314 379
#     4  11  23  45  65  87 133 171 207 263 330 388
#     4  10  20  41  67  90 129 177 212 256 332 386
#
# _framework density 23.043233000000001
#
# number of rings (size 3 to 8) (size 9 to 14) (size 15 to 20)
#    0.000    1.200    8.000    1.200    0.000    1.600 
#    3.600    1.000    0.000    0.000    0.000    0.000 
#    0.000    0.000    0.000    0.000    0.000    0.000 
#
# Total GULP energy -111395.651214 kJ/mol
# GULP energy per Si atom -5569.782561 kJ/mol
# Density = 2.299079 g / cm^3
# Si number density = 23.043233 Si / 1000 Ang^3
#
#
#
# Elastic Constant Matrix: (Units=GPa)
#
#
# Indices 1 2 3 4 5 6 
#
# 1 57.7372 75.3260 14.1669 0.0000 -16.8087 0.0000
# 2 75.3260 149.5883 50.9167 0.0000 -20.9467 0.0000
# 3 14.1669 50.9167 107.1282 0.0000 -23.5640 0.0000
# 4 0.0000 0.0000 0.0000 41.1525 0.0000 -6.1440
# 5 -16.8087 -20.9467 -23.5640 0.0000 39.1668 0.0000
# 6 0.0000 0.0000 0.0000 -6.1440 0.0000 36.9418
#
#
#
# Elastic Compliance Matrix: (Units=1/GPa)
#
#
# Indices 1 2 3 4 5 6 
#
# 1 0.061588 -0.032487 0.010705 0.000000 0.015497 0.000000
# 2 -0.032487 0.025293 -0.009009 0.000000 -0.005835 0.000000
# 3 0.010705 -0.009009 0.014005 0.000000 0.008202 0.000000
# 4 0.000000 0.000000 0.000000 0.024919 0.000000 0.004144
# 5 0.015497 -0.005835 0.008202 0.000000 0.033997 0.000000
# 6 0.000000 0.000000 0.000000 0.004144 0.000000 0.027759
#
#
# Mechanical properties :
#
#
# Convention : Reuss Voigt Hill
#
# Bulk Modulus (GPa) = 25.44232 66.14145 45.79188
# Shear Modulus (GPa) = 19.06625 35.05514 27.06070
#
# Velocity S-wave (km/s) = 2.87960 3.90459 3.43059
# Velocity P-wave (km/s) = 4.70332 7.00666 5.96718
#
# Compressibility (1/GPa) = 0.03930459
#
# Stress axis : x y z
#
# Youngs Moduli (GPa) = 16.23690 39.53628 71.40368
#
# Poissons Ratio (x) = 1.28440 -0.76436
# Poissons Ratio (y) = 0.52748 0.64327
# Poissons Ratio (z) = -0.17381 0.35618
#
# Static dielectric constant tensor:
#      x y z
#    x 1.912170 0.000000 0.048320 
#    y 0.000000 1.815980 0.000000 
#    z 0.048320 0.000000 2.090070 
# 
# From -- ./inp_files/235707.got.cif
#   From: 2010.05.17/outbox.cif.g08.bks.cpg/sg15_118_cif.got.tgz:235707.got - 2010.06.03 18:47:42.
