data_PCOD9277188
_publ_section_title
;
Structure prediction by ZEFSAII (Michael W. Deem and Ramdas Pophale) SiO2 
 PCOD9277188
Probable space group: C 2/C
;
_chemical_formula_sum "Si O2"
_cell_formula_units_Z 60
_cell_length_a 20.251421
_cell_length_b 21.530220
_cell_length_c 9.533033
_cell_angle_alpha 90.000000
_cell_angle_beta 141.692522
_cell_angle_gamma 90.000000
_cell_volume 2576.580454
_symmetry_space_group_name_H-M "C 2/C"
_symmetry_group_IT_number 15
_symmetry_cell_setting 'monoclinic'
loop_
_space_group_symop_operation_xyz
x,y,z
-x,y,1/2-z
-x,-y,-z
x,-y,1/2+z
1/2+x,1/2+y,z
1/2-x,1/2+y,1/2-z
1/2-x,1/2-y,-z
1/2+x,1/2-y,1/2+z
loop_
_atom_site_type_symbol
_atom_site_label
_atom_site_fract_x
_atom_site_fract_y
_atom_site_fract_z
Si Si1 0.026630 0.062361 0.957752
Si Si2 0.251267 0.524310 0.215527
Si Si3 0.805288 0.273626 0.419565
Si Si4 0.379316 0.019619 0.769535
Si Si5 0.948355 0.359219 0.512187
Si Si6 0.152553 0.112795 0.658760
Si Si7 0.096464 0.721361 0.122438
Si Si8 0.500000 0.313784 0.750000
O O1 0.000000 0.053808 0.750000
O O2 0.945744 0.110526 0.894789
O O3 0.154407 0.071043 0.170665
O O4 0.000000 0.000000 0.000000
O O5 0.204479 0.526197 0.293987
O O6 0.304138 0.456037 0.288303
O O7 0.153396 0.526066 0.945260
O O8 0.883134 0.295519 0.427333
O O9 0.742859 0.338235 0.352430
O O10 0.873707 0.256724 0.670006
O O11 0.710961 0.224969 0.235849
O O12 0.373619 0.086643 0.834044
O O13 0.500000 0.000000 0.000000
O O14 0.040203 0.344210 0.553287
O O15 0.000000 0.375082 0.750000
O O16 0.101106 0.140550 0.430243
O O17 0.019167 0.767323 0.910947
#
# Coordination Sequence:
#
# PCOD9277188 Si02
#       8
#     8   8   8   8   8   8   8   4
#     4  10  22  39  62  97 134 173 222 279 330 397
#     4  11  23  39  64  94 133 178 226 272 329 396
#     4   9  18  39  68  90 118 173 222 273 336 419
#     4  12  25  41  64  97 135 180 233 273 328 413
#     4  10  20  40  69  88 126 180 219 275 350 406
#     4  10  21  37  68  93 132 177 222 263 346 404
#     4   9  20  38  62  95 120 160 225 276 333 401
#     4  10  22  40  64  96 134 172 216 284 344 398
#
# _framework density 23.286677999999998
#
# number of rings (size 3 to 8) (size 9 to 14) (size 15 to 20)
#    0.000    1.867    1.333    2.800    7.467    0.000 
#    2.400   13.333    0.000    0.000    0.000    0.000 
#    0.000    0.000    0.000    0.000    0.000    0.000 
#
# Total GULP energy -167415.778411 kJ/mol
# GULP energy per Si atom -5580.525947 kJ/mol
# Density = 2.323368 g / cm^3
# Si number density = 23.286678 Si / 1000 Ang^3
#
#
#
# Elastic Constant Matrix: (Units=GPa)
#
#
# Indices 1 2 3 4 5 6 
#
# 1 77.3726 13.9264 15.2134 0.0000 15.6837 0.0000
# 2 13.9264 43.8867 23.8610 0.0000 1.2765 0.0000
# 3 15.2134 23.8610 109.4454 0.0000 -1.8740 0.0000
# 4 0.0000 0.0000 0.0000 35.2847 0.0000 9.7608
# 5 15.6837 1.2765 -1.8740 0.0000 32.9314 0.0000
# 6 0.0000 0.0000 0.0000 9.7608 0.0000 34.4030
#
#
#
# Elastic Compliance Matrix: (Units=1/GPa)
#
#
# Indices 1 2 3 4 5 6 
#
# 1 0.015374 -0.003901 -0.001411 0.000000 -0.007251 0.000000
# 2 -0.003901 0.026898 -0.005313 0.000000 0.000513 0.000000
# 3 -0.001411 -0.005313 0.010517 0.000000 0.001476 0.000000
# 4 0.000000 0.000000 0.000000 0.030755 0.000000 -0.008726
# 5 -0.007251 0.000513 0.001476 0.000000 0.033884 0.000000
# 6 0.000000 0.000000 0.000000 -0.008726 0.000000 0.031543
#
#
# Mechanical properties :
#
#
# Convention : Reuss Voigt Hill
#
# Bulk Modulus (GPa) = 31.70679 37.41180 34.55930
# Shear Modulus (GPa) = 27.66541 32.37074 30.01808
#
# Velocity S-wave (km/s) = 3.45053 3.73245 3.59425
# Velocity P-wave (km/s) = 5.43326 5.88859 5.66550
#
# Compressibility (1/GPa) = 0.03153898
#
# Stress axis : x y z
#
# Youngs Moduli (GPa) = 65.04607 37.17815 95.08671
#
# Poissons Ratio (x) = 0.14502 0.13415
# Poissons Ratio (y) = 0.25372 0.50521
# Poissons Ratio (z) = 0.09177 0.19753
#
# Static dielectric constant tensor:
#      x y z
#    x 1.972770 0.000000 0.064150 
#    y 0.000000 1.913510 0.000000 
#    z 0.064150 0.000000 1.881400 
# 
# From -- ./inp_files/59152.got.cif
#   From: 2010.05.17/outbox.cif.g08.bks.cpg/sg15_30_cif.got.tgz:59152.got - 2010.06.03 18:47:42.
