data_PCOD9277146
_publ_section_title
;
Structure prediction by ZEFSAII (Michael W. Deem and Ramdas Pophale) SiO2 
 PCOD9277146
Probable space group: C 2/C
;
_chemical_formula_sum "Si O2"
_cell_formula_units_Z 56
_cell_length_a 18.356060
_cell_length_b 8.225979
_cell_length_c 17.194645
_cell_angle_alpha 90.000000
_cell_angle_beta 117.228128
_cell_angle_gamma 90.000000
_cell_volume 2308.637573
_symmetry_space_group_name_H-M "C 2/C"
_symmetry_group_IT_number 15
_symmetry_cell_setting 'monoclinic'
loop_
_space_group_symop_operation_xyz
x,y,z
-x,y,1/2-z
-x,-y,-z
x,-y,1/2+z
1/2+x,1/2+y,z
1/2-x,1/2+y,1/2-z
1/2-x,1/2-y,-z
1/2+x,1/2-y,1/2+z
loop_
_atom_site_type_symbol
_atom_site_label
_atom_site_fract_x
_atom_site_fract_y
_atom_site_fract_z
Si Si1 0.860431 0.001954 0.759633
Si Si2 0.371309 0.172587 0.520852
Si Si3 0.609953 0.940101 0.303840
Si Si4 0.366155 0.713985 0.626645
Si Si5 0.172705 0.310698 0.048547
Si Si6 0.766113 0.206148 0.833270
Si Si7 0.949935 0.273143 0.374544
O O1 0.891885 0.066578 0.692809
O O2 0.826897 0.151618 0.794580
O O3 0.787007 0.869589 0.709888
O O4 0.932646 0.909725 0.839431
O O5 0.377333 0.184414 0.617354
O O6 0.314146 0.280539 0.438449
O O7 0.465376 0.193457 0.541148
O O8 0.337705 0.991705 0.490007
O O9 0.699650 0.936022 0.308743
O O10 0.552963 0.878916 0.206142
O O11 0.592170 0.118811 0.326395
O O12 0.268248 0.729675 0.596343
O O13 0.371230 0.695805 0.536472
O O14 0.126569 0.310927 0.107236
#
# Coordination Sequence:
#
# PCOD9277146 Si02
#       7
#     8   8   8   8   8   8   8
#     4  11  23  39  66  99 130 170 217 282 326 389
#     4  11  23  40  65  95 132 174 215 264 330 395
#     4  10  22  40  69  93 124 172 224 273 319 387
#     4  10  20  40  68  96 124 163 224 276 323 374
#     4  10  21  38  65  98 127 165 216 272 323 394
#     4  11  22  39  68  94 128 165 226 273 330 373
#     4  11  24  42  64  94 135 178 213 262 330 398
#
# _framework density 24.256730999999998
#
# number of rings (size 3 to 8) (size 9 to 14) (size 15 to 20)
#    0.000    1.429    1.429    4.714    2.000    0.571 
#    5.143    0.000    6.286    0.000    0.000    0.000 
#    0.000    0.000    0.000    0.000    0.000    0.000 
#
# Total GULP energy -156589.875614 kJ/mol
# GULP energy per Si atom -5592.495558 kJ/mol
# Density = 2.420152 g / cm^3
# Si number density = 24.256731 Si / 1000 Ang^3
#
#
#
# Elastic Constant Matrix: (Units=GPa)
#
#
# Indices 1 2 3 4 5 6 
#
# 1 59.2632 -1.5799 30.8893 0.0000 3.2899 0.0000
# 2 -1.5799 74.5211 27.7133 0.0000 -0.3704 0.0000
# 3 30.8893 27.7133 104.8967 0.0000 5.2948 0.0000
# 4 0.0000 0.0000 0.0000 29.3313 0.0000 -8.8734
# 5 3.2899 -0.3704 5.2948 0.0000 48.8656 0.0000
# 6 0.0000 0.0000 0.0000 -8.8734 0.0000 17.6874
#
#
#
# Elastic Compliance Matrix: (Units=1/GPa)
#
#
# Indices 1 2 3 4 5 6 
#
# 1 0.020529 0.002959 -0.006796 0.000000 -0.000623 0.000000
# 2 0.002959 0.015322 -0.004942 0.000000 0.000452 0.000000
# 3 -0.006796 -0.004942 0.012889 0.000000 -0.000977 0.000000
# 4 0.000000 0.000000 0.000000 0.040193 0.000000 0.020164
# 5 -0.000623 0.000452 -0.000977 0.000000 0.020616 0.000000
# 6 0.000000 0.000000 0.000000 0.020164 0.000000 0.066654
#
#
# Mechanical properties :
#
#
# Convention : Reuss Voigt Hill
#
# Bulk Modulus (GPa) = 32.06825 39.19180 35.63003
# Shear Modulus (GPa) = 24.49116 31.28741 27.88928
#
# Velocity S-wave (km/s) = 3.18097 3.59534 3.39448
# Velocity P-wave (km/s) = 5.17112 5.78165 5.48488
#
# Compressibility (1/GPa) = 0.03118349
#
# Stress axis : x y z
#
# Youngs Moduli (GPa) = 48.71041 65.26571 77.58314
#
# Poissons Ratio (x) = -0.19315 0.52724
# Poissons Ratio (y) = -0.14415 0.38344
# Poissons Ratio (z) = 0.33103 0.32256
#
# Static dielectric constant tensor:
#      x y z
#    x 1.950460 0.000000 -0.011170 
#    y 0.000000 1.909170 0.000000 
#    z -0.011170 0.000000 1.960120 
# 
# From -- ./inp_files/214017.got.cif
#   From: 2010.05.17/outbox.cif.g08.bks.cpg/sg15_108_cif.got.tgz:214017.got - 2010.06.03 18:47:42.
