data_PCOD9277992
_publ_section_title
;
Structure prediction by ZEFSAII (Michael W. Deem and Ramdas Pophale) SiO2 
 PCOD9277992
Probable space group: C 2/C
;
_chemical_formula_sum "Si O2"
_cell_formula_units_Z 48
_cell_length_a 6.405929
_cell_length_b 25.912115
_cell_length_c 17.566125
_cell_angle_alpha 90.000000
_cell_angle_beta 130.226514
_cell_angle_gamma 90.000000
_cell_volume 2226.221811
_symmetry_space_group_name_H-M "C 2/C"
_symmetry_group_IT_number 15
_symmetry_cell_setting 'monoclinic'
loop_
_space_group_symop_operation_xyz
x,y,z
-x,y,1/2-z
-x,-y,-z
x,-y,1/2+z
1/2+x,1/2+y,z
1/2-x,1/2+y,1/2-z
1/2-x,1/2-y,-z
1/2+x,1/2-y,1/2+z
loop_
_atom_site_type_symbol
_atom_site_label
_atom_site_fract_x
_atom_site_fract_y
_atom_site_fract_z
Si Si1 0.734209 0.870180 0.494003
Si Si2 0.132064 0.110435 0.862588
Si Si3 0.504828 0.212404 0.337725
Si Si4 0.047460 0.797439 0.065773
Si Si5 0.366859 0.446550 0.992565
Si Si6 0.794759 0.607152 0.342524
O O1 0.448653 0.898827 0.419163
O O2 0.752149 0.863440 0.588090
O O3 0.724187 0.822102 0.434574
O O4 0.987488 0.903607 0.525208
O O5 0.076253 0.161252 0.902015
O O6 0.000000 0.114877 0.750000
O O7 0.047274 0.065128 0.900073
O O8 0.500000 0.231308 0.250000
O O9 0.805255 0.213887 0.447990
O O10 0.349823 0.249997 0.359901
O O11 0.393446 0.154032 0.312536
O O12 0.041443 0.434384 0.908465
O O13 0.500000 0.500000 0.000000
O O14 0.500000 0.585152 0.250000
#
# Coordination Sequence:
#
# PCOD9277992 Si02
#       6
#     8   8   8   8   8   8
#     4  10  20  42  64  88 130 174 216 279 333 395
#     4  10  21  41  65  93 130 174 221 277 336 402
#     4  11  21  39  61  93 136 177 228 275 329 407
#     4  10  21  39  61  92 132 180 221 274 328 398
#     4  10  23  44  67  93 128 172 217 284 343 404
#     4  11  23  40  65  97 133 178 217 280 340 402
#
# _framework density 21.561194
#
# number of rings (size 3 to 8) (size 9 to 14) (size 15 to 20)
#    0.000    1.667    5.000    1.500    0.000    6.000 
#    6.000    5.000    0.000    0.000    0.000    0.000 
#    0.000    0.000    0.000    0.000    0.000    0.000 
#
# Total GULP energy -133815.638183 kJ/mol
# GULP energy per Si atom -5575.651591 kJ/mol
# Density = 2.151212 g / cm^3
# Si number density = 21.561194 Si / 1000 Ang^3
#
#
#
# Elastic Constant Matrix: (Units=GPa)
#
#
# Indices 1 2 3 4 5 6 
#
# 1 97.7495 27.8658 48.0455 0.0000 -16.9414 0.0000
# 2 27.8658 84.4636 35.6745 0.0000 -9.9121 0.0000
# 3 48.0455 35.6745 140.0789 0.0000 -20.4539 0.0000
# 4 0.0000 0.0000 0.0000 16.7386 0.0000 -9.7932
# 5 -16.9414 -9.9121 -20.4539 0.0000 35.9564 0.0000
# 6 0.0000 0.0000 0.0000 -9.7932 0.0000 25.6613
#
#
#
# Elastic Compliance Matrix: (Units=1/GPa)
#
#
# Indices 1 2 3 4 5 6 
#
# 1 0.013231 -0.002517 -0.003368 0.000000 0.003624 0.000000
# 2 -0.002517 0.013865 -0.002489 0.000000 0.001220 0.000000
# 3 -0.003368 -0.002489 0.009375 0.000000 0.003060 0.000000
# 4 0.000000 0.000000 0.000000 0.076916 0.000000 0.029354
# 5 0.003624 0.001220 0.003060 0.000000 0.031596 0.000000
# 6 0.000000 0.000000 0.000000 0.029354 0.000000 0.050172
#
#
# Mechanical properties :
#
#
# Convention : Reuss Voigt Hill
#
# Bulk Modulus (GPa) = 50.70657 60.60707 55.65682
# Shear Modulus (GPa) = 22.88567 29.71833 26.30200
#
# Velocity S-wave (km/s) = 3.26149 3.71661 3.49646
# Velocity P-wave (km/s) = 6.14424 6.82553 6.49383
#
# Compressibility (1/GPa) = 0.01972131
#
# Stress axis : x y z
#
# Youngs Moduli (GPa) = 75.57767 72.12648 106.66967
#
# Poissons Ratio (x) = 0.18157 0.35925
# Poissons Ratio (y) = 0.19026 0.26554
# Poissons Ratio (z) = 0.25454 0.17955
#
# Static dielectric constant tensor:
#      x y z
#    x 1.807060 0.000000 0.011990 
#    y 0.000000 1.874370 0.000000 
#    z 0.011990 0.000000 1.819490 
# 
# From -- ./inp_files/130941.got.cif
#   From: 2010.05.17/outbox.cif.g08.bks.cpg/sg15_66_cif.got.tgz:130941.got - 2010.06.03 18:47:42.
