data_PCOD9277673
_publ_section_title
;
Structure prediction by ZEFSAII (Michael W. Deem and Ramdas Pophale) SiO2 
 PCOD9277673
Probable space group: C 2/C
;
_chemical_formula_sum "Si O2"
_cell_formula_units_Z 48
_cell_length_a 9.219440
_cell_length_b 10.593486
_cell_length_c 22.773736
_cell_angle_alpha 90.000000
_cell_angle_beta 99.711048
_cell_angle_gamma 90.000000
_cell_volume 2192.348964
_symmetry_space_group_name_H-M "C 2/C"
_symmetry_group_IT_number 15
_symmetry_cell_setting 'monoclinic'
loop_
_space_group_symop_operation_xyz
x,y,z
-x,y,1/2-z
-x,-y,-z
x,-y,1/2+z
1/2+x,1/2+y,z
1/2-x,1/2+y,1/2-z
1/2-x,1/2-y,-z
1/2+x,1/2-y,1/2+z
loop_
_atom_site_type_symbol
_atom_site_label
_atom_site_fract_x
_atom_site_fract_y
_atom_site_fract_z
Si Si1 0.735655 0.441964 0.383626
Si Si2 0.427612 0.457263 0.911277
Si Si3 0.332343 0.701802 0.948127
Si Si4 0.900917 0.705884 0.981873
Si Si5 0.667563 0.709746 0.187580
Si Si6 0.311692 0.702149 0.177019
O O1 0.576587 0.471046 0.401913
O O2 0.860459 0.417614 0.441737
O O3 0.753149 0.316224 0.345920
O O4 0.746605 0.562333 0.342713
O O5 0.357336 0.551866 0.953170
O O6 0.452313 0.320271 0.942157
O O7 0.325503 0.422329 0.848158
O O8 0.256368 0.717069 0.880137
O O9 0.250000 0.750000 0.000000
O O10 0.478044 0.788316 0.959567
O O11 0.750000 0.750000 0.000000
O O12 0.488682 0.718925 0.181939
O O13 0.726020 0.721747 0.257632
#
# Coordination Sequence:
#
# PCOD9277673 Si02
#       6
#     8   8   8   8   8   8
#     4  10  20  41  67  91 126 173 216 265 332 393
#     4  10  22  41  67  93 126 178 222 265 322 404
#     4  12  24  39  64  99 134 168 217 271 333 398
#     4  11  23  41  65  93 132 174 216 268 326 398
#     4   9  21  44  68  91 128 173 222 274 332 386
#     4  10  23  41  65  98 129 171 216 275 335 394
#
# _framework density 21.894326
#
# number of rings (size 3 to 8) (size 9 to 14) (size 15 to 20)
#    0.000    1.667    1.667    3.500    4.667    0.667 
#    3.000    0.000    0.000    0.000    0.000    0.000 
#    0.000    0.000    0.000    0.000    0.000    0.000 
#
# Total GULP energy -133763.422210 kJ/mol
# GULP energy per Si atom -5573.475925 kJ/mol
# Density = 2.184449 g / cm^3
# Si number density = 21.894326 Si / 1000 Ang^3
#
#
#
# Elastic Constant Matrix: (Units=GPa)
#
#
# Indices 1 2 3 4 5 6 
#
# 1 62.6888 32.1291 23.8369 0.0000 -1.3747 0.0000
# 2 32.1291 110.4155 29.3425 0.0000 -3.8217 0.0000
# 3 23.8369 29.3425 124.2351 0.0000 6.1290 0.0000
# 4 0.0000 0.0000 0.0000 35.8264 0.0000 -6.0855
# 5 -1.3747 -3.8217 6.1290 0.0000 33.5834 0.0000
# 6 0.0000 0.0000 0.0000 -6.0855 0.0000 35.7177
#
#
#
# Elastic Compliance Matrix: (Units=1/GPa)
#
#
# Indices 1 2 3 4 5 6 
#
# 1 0.019499 -0.004957 -0.002605 0.000000 0.000710 0.000000
# 2 -0.004957 0.011002 -0.001715 0.000000 0.001362 0.000000
# 3 -0.002605 -0.001715 0.009050 0.000000 -0.001953 0.000000
# 4 0.000000 0.000000 0.000000 0.028744 0.000000 0.004897
# 5 0.000710 0.001362 -0.001953 0.000000 0.030317 0.000000
# 6 0.000000 0.000000 0.000000 0.004897 0.000000 0.028832
#
#
# Mechanical properties :
#
#
# Convention : Reuss Voigt Hill
#
# Bulk Modulus (GPa) = 47.62552 51.99515 49.81034
# Shear Modulus (GPa) = 32.68044 35.16090 33.92067
#
# Velocity S-wave (km/s) = 3.86767 4.01176 3.94037
# Velocity P-wave (km/s) = 6.46102 6.72746 6.59559
#
# Compressibility (1/GPa) = 0.02099714
#
# Stress axis : x y z
#
# Youngs Moduli (GPa) = 51.28598 90.89396 110.49114
#
# Poissons Ratio (x) = 0.45054 0.28788
# Poissons Ratio (y) = 0.25421 0.18945
# Poissons Ratio (z) = 0.13362 0.15585
#
# Static dielectric constant tensor:
#      x y z
#    x 1.906280 0.000000 0.076260 
#    y 0.000000 1.785930 0.000000 
#    z 0.076260 0.000000 1.948510 
# 
# From -- ./inp_files/263539.got.cif
#   From: 2010.05.17/outbox.cif.g08.bks.cpg/sg15_132_cif.got.tgz:263539.got - 2010.06.03 18:47:42.
