data_PCOD9277195
_publ_section_title
;
Structure prediction by ZEFSAII (Michael W. Deem and Ramdas Pophale) SiO2 
 PCOD9277195
Probable space group: C 2/C
;
_chemical_formula_sum "Si O2"
_cell_formula_units_Z 44
_cell_length_a 12.249184
_cell_length_b 18.458585
_cell_length_c 8.346709
_cell_angle_alpha 90.000000
_cell_angle_beta 88.713448
_cell_angle_gamma 90.000000
_cell_volume 1886.736887
_symmetry_space_group_name_H-M "C 2/C"
_symmetry_group_IT_number 15
_symmetry_cell_setting 'monoclinic'
loop_
_space_group_symop_operation_xyz
x,y,z
-x,y,1/2-z
-x,-y,-z
x,-y,1/2+z
1/2+x,1/2+y,z
1/2-x,1/2+y,1/2-z
1/2-x,1/2-y,-z
1/2+x,1/2-y,1/2+z
loop_
_atom_site_type_symbol
_atom_site_label
_atom_site_fract_x
_atom_site_fract_y
_atom_site_fract_z
Si Si1 0.733450 0.893235 0.788671
Si Si2 0.813162 0.259725 0.229283
Si Si3 0.500000 0.877938 0.750000
Si Si4 0.341938 0.623935 0.634625
Si Si5 0.418235 0.526496 0.139646
Si Si6 0.993295 0.751121 0.002406
O O1 0.732443 0.806737 0.765356
O O2 0.611546 0.921854 0.769067
O O3 0.810150 0.926334 0.647672
O O4 0.786021 0.900764 0.965561
O O5 0.743462 0.332100 0.254270
O O6 0.903752 0.260731 0.366604
O O7 0.885095 0.241260 0.072103
O O8 0.500689 0.822412 0.601850
O O9 0.379088 0.549953 0.715289
O O10 0.442864 0.678163 0.591725
O O11 0.500000 0.571373 0.250000
O O12 0.500000 0.500000 0.000000
#
# Coordination Sequence:
#
# PCOD9277195 Si02
#       6
#     8   8   4   8   8   8
#     4  11  23  43  65  97 137 180 212 280 340 388
#     4  10  20  40  69  92 130 175 220 270 339 394
#     4  12  22  40  64  98 140 168 218 272 338 396
#     4  11  21  44  67  99 134 174 219 276 341 389
#     4  12  26  43  69  98 133 177 225 274 332 397
#     4  10  21  36  65 101 127 169 217 278 330 390
#
# _framework density 23.320687
#
# number of rings (size 3 to 8) (size 9 to 14) (size 15 to 20)
#    0.000    1.091    5.455    2.182    3.818    2.182 
#    0.000    2.727    0.000    0.000    0.000    0.000 
#    0.000    0.000    0.000    0.000    0.000    0.000 
#
# Total GULP energy -122821.060279 kJ/mol
# GULP energy per Si atom -5582.775467 kJ/mol
# Density = 2.326761 g / cm^3
# Si number density = 23.320687 Si / 1000 Ang^3
#
#
#
# Elastic Constant Matrix: (Units=GPa)
#
#
# Indices 1 2 3 4 5 6 
#
# 1 151.1693 18.5184 45.2060 0.0000 -18.7091 0.0000
# 2 18.5184 68.0034 -5.1262 0.0000 -7.4610 0.0000
# 3 45.2060 -5.1262 54.8962 0.0000 -3.8747 0.0000
# 4 0.0000 0.0000 0.0000 24.6687 0.0000 -11.1872
# 5 -18.7091 -7.4610 -3.8747 0.0000 29.3788 0.0000
# 6 0.0000 0.0000 0.0000 -11.1872 0.0000 37.4510
#
#
#
# Elastic Compliance Matrix: (Units=1/GPa)
#
#
# Indices 1 2 3 4 5 6 
#
# 1 0.009960 -0.002827 -0.008145 0.000000 0.004551 0.000000
# 2 -0.002827 0.016088 0.004029 0.000000 0.002817 0.000000
# 3 -0.008145 0.004029 0.025241 0.000000 -0.000835 0.000000
# 4 0.000000 0.000000 0.000000 0.046889 0.000000 0.014007
# 5 0.004551 0.002817 -0.000835 0.000000 0.037541 0.000000
# 6 0.000000 0.000000 0.000000 0.014007 0.000000 0.030886
#
#
# Mechanical properties :
#
#
# Convention : Reuss Voigt Hill
#
# Bulk Modulus (GPa) = 26.73580 43.47390 35.10485
# Shear Modulus (GPa) = 25.91237 32.66444 29.28840
#
# Velocity S-wave (km/s) = 3.33698 3.74660 3.54771
# Velocity P-wave (km/s) = 5.13192 6.11542 5.64512
#
# Compressibility (1/GPa) = 0.03740303
#
# Stress axis : x y z
#
# Youngs Moduli (GPa) = 100.39859 62.15916 39.61859
#
# Poissons Ratio (x) = 0.17573 0.32269
# Poissons Ratio (y) = 0.28383 -0.15963
# Poissons Ratio (z) = 0.81774 -0.25044
#
# Static dielectric constant tensor:
#      x y z
#    x 1.939170 0.000000 0.044330 
#    y 0.000000 1.811250 0.000000 
#    z 0.044330 0.000000 2.065250 
# 
# From -- ./inp_files/30818.got.cif
#   From: 2010.05.17/outbox.cif.g08.bks.cpg/sg15_16_cif.got.tgz:30818.got - 2010.06.03 18:47:42.
