data_PCOD9277033
_publ_section_title
;
Structure prediction by ZEFSAII (Michael W. Deem and Ramdas Pophale) SiO2 
 PCOD9277033
Probable space group: C 2/C
;
_chemical_formula_sum "Si O2"
_cell_formula_units_Z 48
_cell_length_a 18.422180
_cell_length_b 10.788186
_cell_length_c 13.048124
_cell_angle_alpha 90.000000
_cell_angle_beta 62.804870
_cell_angle_gamma 90.000000
_cell_volume 2306.543298
_symmetry_space_group_name_H-M "C 2/C"
_symmetry_group_IT_number 15
_symmetry_cell_setting 'monoclinic'
loop_
_space_group_symop_operation_xyz
x,y,z
-x,y,1/2-z
-x,-y,-z
x,-y,1/2+z
1/2+x,1/2+y,z
1/2-x,1/2+y,1/2-z
1/2-x,1/2-y,-z
1/2+x,1/2-y,1/2+z
loop_
_atom_site_type_symbol
_atom_site_label
_atom_site_fract_x
_atom_site_fract_y
_atom_site_fract_z
Si Si1 0.715408 0.755299 0.635797
Si Si2 0.925262 0.933485 0.236693
Si Si3 0.530827 0.291782 0.476680
Si Si4 0.631633 0.806962 0.321827
Si Si5 0.411752 0.294519 0.841060
Si Si6 0.428615 0.071376 0.208159
O O1 0.750000 0.750000 0.500000
O O2 0.655798 0.640656 0.692104
O O3 0.789668 0.731301 0.664996
O O4 0.656244 0.874056 0.690306
O O5 0.950849 0.913701 0.102633
O O6 0.000000 0.872283 0.250000
O O7 0.913942 0.066857 0.294825
O O8 0.440931 0.277209 0.582617
O O9 0.591020 0.288407 0.535728
O O10 0.543664 0.175872 0.391826
O O11 0.650532 0.776960 0.190281
O O12 0.595516 0.946374 0.338201
O O13 0.500000 0.239440 0.750000
O O14 0.500000 0.055958 0.250000
#
# Coordination Sequence:
#
# PCOD9277033 Si02
#       6
#     8   8   8   8   8   8
#     4  11  24  40  62  93 130 171 213 274 331 381
#     4  10  21  39  62  89 125 166 215 257 324 392
#     4  10  20  40  67  93 124 172 219 267 318 395
#     4  11  23  39  65  95 130 164 221 273 324 383
#     4   9  21  37  60  92 122 161 209 260 320 383
#     4  11  23  43  69  94 130 175 224 266 325 402
#
# _framework density 20.810359999999999
#
# number of rings (size 3 to 8) (size 9 to 14) (size 15 to 20)
#    0.000    1.667    0.000    6.000    2.333    8.667 
#    3.000    3.333    0.000    0.000    0.000    0.000 
#    0.000    0.000    0.000    0.000    0.000    0.000 
#
# Total GULP energy -133769.663466 kJ/mol
# GULP energy per Si atom -5573.735978 kJ/mol
# Density = 2.076300 g / cm^3
# Si number density = 20.810360 Si / 1000 Ang^3
#
#
#
# Elastic Constant Matrix: (Units=GPa)
#
#
# Indices 1 2 3 4 5 6 
#
# 1 152.1333 33.5470 60.9830 0.0000 25.4742 0.0000
# 2 33.5470 85.3708 23.5357 0.0000 7.8662 0.0000
# 3 60.9830 23.5357 129.0726 0.0000 25.0506 0.0000
# 4 0.0000 0.0000 0.0000 23.9754 0.0000 7.2540
# 5 25.4742 7.8662 25.0506 0.0000 45.0207 0.0000
# 6 0.0000 0.0000 0.0000 7.2540 0.0000 18.6829
#
#
#
# Elastic Compliance Matrix: (Units=1/GPa)
#
#
# Indices 1 2 3 4 5 6 
#
# 1 0.008844 -0.002332 -0.003208 0.000000 -0.002812 0.000000
# 2 -0.002332 0.012990 -0.001213 0.000000 -0.000275 0.000000
# 3 -0.003208 -0.001213 0.010192 0.000000 -0.003644 0.000000
# 4 0.000000 0.000000 0.000000 0.047262 0.000000 -0.018350
# 5 -0.002812 -0.000275 -0.003644 0.000000 0.025879 0.000000
# 6 0.000000 0.000000 0.000000 -0.018350 0.000000 0.060650
#
#
# Mechanical properties :
#
#
# Convention : Reuss Voigt Hill
#
# Bulk Modulus (GPa) = 53.99736 66.96755 60.48246
# Shear Modulus (GPa) = 26.95499 34.10320 30.52910
#
# Velocity S-wave (km/s) = 3.60289 4.05255 3.83432
# Velocity P-wave (km/s) = 6.58114 7.35849 6.98064
#
# Compressibility (1/GPa) = 0.01851942
#
# Stress axis : x y z
#
# Youngs Moduli (GPa) = 113.07072 76.98326 98.12071
#
# Poissons Ratio (x) = 0.17952 0.31473
# Poissons Ratio (y) = 0.26367 0.11907
# Poissons Ratio (z) = 0.36268 0.09342
#
# Static dielectric constant tensor:
#      x y z
#    x 1.727940 0.000000 0.002560 
#    y 0.000000 1.834180 0.000000 
#    z 0.002560 0.000000 1.738590 
# 
# From -- ./inp_files/104163.got.cif
#   From: 2010.05.17/outbox.cif.g08.bks.cpg/sg15_53_cif.got.tgz:104163.got - 2010.06.03 18:47:42.
