data_PCOD9277086
_publ_section_title
;
Structure prediction by ZEFSAII (Michael W. Deem and Ramdas Pophale) SiO2 
 PCOD9277086
Probable space group: C 2/C
;
_chemical_formula_sum "Si O2"
_cell_formula_units_Z 52
_cell_length_a 5.444015
_cell_length_b 21.170970
_cell_length_c 19.721727
_cell_angle_alpha 90.000000
_cell_angle_beta 115.640803
_cell_angle_gamma 90.000000
_cell_volume 2049.191706
_symmetry_space_group_name_H-M "C 2/C"
_symmetry_group_IT_number 15
_symmetry_cell_setting 'monoclinic'
loop_
_space_group_symop_operation_xyz
x,y,z
-x,y,1/2-z
-x,-y,-z
x,-y,1/2+z
1/2+x,1/2+y,z
1/2-x,1/2+y,1/2-z
1/2-x,1/2-y,-z
1/2+x,1/2-y,1/2+z
loop_
_atom_site_type_symbol
_atom_site_label
_atom_site_fract_x
_atom_site_fract_y
_atom_site_fract_z
Si Si1 0.987235 0.390484 0.359495
Si Si2 0.814729 0.663185 0.367153
Si Si3 0.644953 0.287437 0.054559
Si Si4 0.553854 0.503316 0.605093
Si Si5 0.500000 0.454637 0.250000
Si Si6 0.780393 0.612630 0.183736
Si Si7 0.208224 0.600732 0.508982
O O1 0.757757 0.408679 0.278949
O O2 0.858332 0.388520 0.419392
O O3 0.125843 0.322812 0.374083
O O4 0.212050 0.445025 0.379281
O O5 0.930990 0.728893 0.408314
O O6 0.491045 0.649950 0.325560
O O7 0.975428 0.654686 0.316706
O O8 0.935908 0.611654 0.434082
O O9 0.424724 0.343098 0.015417
O O10 0.750000 0.250000 0.000000
O O11 0.476467 0.506201 0.677119
O O12 0.662096 0.432901 0.610735
O O13 0.319064 0.529238 0.528124
O O14 0.000000 0.566937 0.250000
#
# Coordination Sequence:
#
# PCOD9277086 Si02
#       7
#     8   8   8   8   4   8   8
#     4  10  21  39  68 103 131 173 237 293 357 407
#     4  12  27  45  73 104 143 190 234 288 351 430
#     4  11  22  43  72  99 140 185 229 290 358 423
#     4  10  24  43  73  97 137 179 238 293 358 415
#     4  10  20  40  68 102 128 176 238 300 352 408
#     4  12  29  49  69  98 146 198 238 276 350 435
#     4  10  23  42  74 106 131 173 236 304 356 406
#
# _framework density 25.375857
#
# number of rings (size 3 to 8) (size 9 to 14) (size 15 to 20)
#    0.000    1.231    1.538    3.231   10.769    1.231 
#    1.385    4.615    0.000    0.000    0.000    0.000 
#    0.000    0.000    0.000    0.000    0.000    0.000 
#
# Total GULP energy -145113.263165 kJ/mol
# GULP energy per Si atom -5581.279352 kJ/mol
# Density = 2.531810 g / cm^3
# Si number density = 25.375857 Si / 1000 Ang^3
#
#
#
# Elastic Constant Matrix: (Units=GPa)
#
#
# Indices 1 2 3 4 5 6 
#
# 1 110.2756 31.4226 29.3048 0.0000 14.1015 0.0000
# 2 31.4226 76.3671 8.3581 0.0000 4.7055 0.0000
# 3 29.3048 8.3581 88.6045 0.0000 29.2694 0.0000
# 4 0.0000 0.0000 0.0000 18.1870 0.0000 6.2410
# 5 14.1015 4.7055 29.2694 0.0000 47.9969 0.0000
# 6 0.0000 0.0000 0.0000 6.2410 0.0000 36.0628
#
#
#
# Elastic Compliance Matrix: (Units=1/GPa)
#
#
# Indices 1 2 3 4 5 6 
#
# 1 0.011190 -0.004216 -0.002948 0.000000 -0.001077 0.000000
# 2 -0.004216 0.014837 0.000083 0.000000 -0.000266 0.000000
# 3 -0.002948 0.000083 0.014989 0.000000 -0.008283 0.000000
# 4 0.000000 0.000000 0.000000 0.058456 0.000000 -0.010116
# 5 -0.001077 -0.000266 -0.008283 0.000000 0.026228 0.000000
# 6 0.000000 0.000000 0.000000 -0.010116 0.000000 0.029480
#
#
# Mechanical properties :
#
#
# Convention : Reuss Voigt Hill
#
# Bulk Modulus (GPa) = 37.23654 45.93536 41.58595
# Shear Modulus (GPa) = 28.04367 34.19345 31.11856
#
# Velocity S-wave (km/s) = 3.32796 3.67479 3.50566
# Velocity P-wave (km/s) = 5.42890 6.01221 5.72799
#
# Compressibility (1/GPa) = 0.02685535
#
# Stress axis : x y z
#
# Youngs Moduli (GPa) = 89.36215 67.40106 66.71395
#
# Poissons Ratio (x) = 0.28413 0.19665
# Poissons Ratio (y) = 0.37671 -0.00552
# Poissons Ratio (z) = 0.26341 -0.00558
#
# Static dielectric constant tensor:
#      x y z
#    x 2.242080 0.000000 -0.847310 
#    y 0.000000 2.034480 0.000000 
#    z -0.847310 0.000000 11.380270 
# 
# From -- ./inp_files/228221.got.cif
#   From: 2010.05.17/outbox.cif.g08.bks.cpg/sg15_115_cif.got.tgz:228221.got - 2010.06.03 18:47:42.
