data_PCOD9277636
_publ_section_title
;
Structure prediction by ZEFSAII (Michael W. Deem and Ramdas Pophale) SiO2 
 PCOD9277636
Probable space group: C 2/C
;
_chemical_formula_sum "Si O2"
_cell_formula_units_Z 40
_cell_length_a 6.465942
_cell_length_b 29.911435
_cell_length_c 13.622163
_cell_angle_alpha 90.000000
_cell_angle_beta 135.204611
_cell_angle_gamma 90.000000
_cell_volume 1856.280711
_symmetry_space_group_name_H-M "C 2/C"
_symmetry_group_IT_number 15
_symmetry_cell_setting 'monoclinic'
loop_
_space_group_symop_operation_xyz
x,y,z
-x,y,1/2-z
-x,-y,-z
x,-y,1/2+z
1/2+x,1/2+y,z
1/2-x,1/2+y,1/2-z
1/2-x,1/2-y,-z
1/2+x,1/2-y,1/2+z
loop_
_atom_site_type_symbol
_atom_site_label
_atom_site_fract_x
_atom_site_fract_y
_atom_site_fract_z
Si Si1 0.336410 0.515470 0.095893
Si Si2 0.842407 0.858703 0.098274
Si Si3 0.833125 0.066932 0.897322
Si Si4 0.257551 0.683211 0.089713
Si Si5 0.667876 0.284915 0.102402
O O1 0.500000 0.530133 0.250000
O O2 0.529796 0.474269 0.118393
O O3 0.331811 0.552541 0.009760
O O4 0.000000 0.500000 0.000000
O O5 0.000000 0.874735 0.250000
O O6 0.952932 0.891820 0.051679
O O7 0.965506 0.810037 0.111250
O O8 0.499848 0.852842 0.999510
O O9 0.500000 0.076253 0.750000
O O10 0.500000 0.669755 0.250000
O O11 0.136458 0.731665 0.085369
O O12 0.373935 0.694336 0.020026
O O13 0.000000 0.293662 0.250000
#
# Coordination Sequence:
#
# PCOD9277636 Si02
#       5
#     8   8   8   8   8
#     4  11  23  46  74 102 135 176 218 268 333 405
#     4  12  24  40  69  98 131 178 226 275 336 400
#     4  11  25  42  73 104 132 172 228 273 329 407
#     4  10  23  41  65  94 136 174 224 283 330 387
#     4  10  20  41  66  95 127 181 231 267 330 404
#
# _framework density 21.548465
#
# number of rings (size 3 to 8) (size 9 to 14) (size 15 to 20)
#    0.000    1.200    4.000    1.800    0.000    0.800 
#    0.000    6.000    0.000    0.000    0.000    0.000 
#    0.000    0.000    0.000    0.000    0.000    0.000 
#
# Total GULP energy -111892.196422 kJ/mol
# GULP energy per Si atom -5594.609821 kJ/mol
# Density = 2.149942 g / cm^3
# Si number density = 21.548465 Si / 1000 Ang^3
#
#
#
# Elastic Constant Matrix: (Units=GPa)
#
#
# Indices 1 2 3 4 5 6 
#
# 1 72.0466 21.7444 41.3671 0.0000 1.9762 0.0000
# 2 21.7444 41.9349 22.6766 0.0000 -0.6804 0.0000
# 3 41.3671 22.6766 157.8008 0.0000 -4.7862 0.0000
# 4 0.0000 0.0000 0.0000 13.9142 0.0000 -4.8552
# 5 1.9762 -0.6804 -4.7862 0.0000 39.2724 0.0000
# 6 0.0000 0.0000 0.0000 -4.8552 0.0000 49.4239
#
#
#
# Elastic Compliance Matrix: (Units=1/GPa)
#
#
# Indices 1 2 3 4 5 6 
#
# 1 0.018355 -0.007498 -0.003780 0.000000 -0.001514 0.000000
# 2 -0.007498 0.028919 -0.002172 0.000000 0.000614 0.000000
# 3 -0.003780 -0.002172 0.007673 0.000000 0.001088 0.000000
# 4 0.000000 0.000000 0.000000 0.074420 0.000000 0.007311
# 5 -0.001514 0.000614 0.001088 0.000000 0.025683 0.000000
# 6 0.000000 0.000000 0.000000 0.007311 0.000000 0.020951
#
#
# Mechanical properties :
#
#
# Convention : Reuss Voigt Hill
#
# Bulk Modulus (GPa) = 35.65398 49.26206 42.45802
# Shear Modulus (GPa) = 23.55726 32.92170 28.23948
#
# Velocity S-wave (km/s) = 3.30998 3.91295 3.62402
# Velocity P-wave (km/s) = 5.58478 6.58221 6.10391
#
# Compressibility (1/GPa) = 0.02804736
#
# Stress axis : x y z
#
# Youngs Moduli (GPa) = 54.48160 34.57988 130.32529
#
# Poissons Ratio (x) = 0.25928 0.49265
# Poissons Ratio (y) = 0.40850 0.28301
# Poissons Ratio (z) = 0.20595 0.07509
#
# Static dielectric constant tensor:
#      x y z
#    x 1.784850 0.000000 0.011970 
#    y 0.000000 1.799950 0.000000 
#    z 0.011970 0.000000 1.747130 
# 
# From -- ./inp_files/130539.got.cif
#   From: 2010.05.17/outbox.cif.g08.bks.cpg/sg15_66_cif.got.tgz:130539.got - 2010.06.03 18:47:42.
