data_PCOD9277617
_publ_section_title
;
Structure prediction by ZEFSAII (Michael W. Deem and Ramdas Pophale) SiO2 
 PCOD9277617
Probable space group: C 2/C
;
_chemical_formula_sum "Si O2"
_cell_formula_units_Z 56
_cell_length_a 27.513200
_cell_length_b 13.088524
_cell_length_c 12.593816
_cell_angle_alpha 90.000000
_cell_angle_beta 32.590417
_cell_angle_gamma 90.000000
_cell_volume 2442.753021
_symmetry_space_group_name_H-M "C 2/C"
_symmetry_group_IT_number 15
_symmetry_cell_setting 'monoclinic'
loop_
_space_group_symop_operation_xyz
x,y,z
-x,y,1/2-z
-x,-y,-z
x,-y,1/2+z
1/2+x,1/2+y,z
1/2-x,1/2+y,1/2-z
1/2-x,1/2-y,-z
1/2+x,1/2-y,1/2+z
loop_
_atom_site_type_symbol
_atom_site_label
_atom_site_fract_x
_atom_site_fract_y
_atom_site_fract_z
Si Si1 0.375527 0.782678 0.375887
Si Si2 0.914913 0.056475 0.602654
Si Si3 0.963456 0.560002 0.967984
Si Si4 0.628000 0.290391 0.042566
Si Si5 0.675256 0.643560 0.214094
Si Si6 0.000000 0.388579 0.750000
Si Si7 0.164714 0.736043 0.302284
Si Si8 0.500000 0.532488 0.750000
O O1 0.458269 0.861186 0.213863
O O2 0.381661 0.691736 0.278543
O O3 0.281006 0.833273 0.514745
O O4 0.361214 0.751304 0.524469
O O5 0.882411 0.171955 0.674620
O O6 0.834557 0.977647 0.771345
O O7 0.000000 0.000000 0.500000
O O8 0.940863 0.039008 0.432209
O O9 0.943375 0.468295 0.923889
O O10 0.877952 0.628401 0.150343
O O11 0.000000 0.500000 0.000000
O O12 0.639187 0.309677 0.892958
O O13 0.727767 0.273108 0.902530
O O14 0.569278 0.190240 0.175552
O O15 0.569338 0.390003 0.182370
#
# Coordination Sequence:
#
# PCOD9277617 Si02
#       8
#     8   8   8   8   8   4   8   4
#     4  10  20  41  66  92 128 171 224 263 325 385
#     4  11  24  38  64  95 131 166 219 267 327 377
#     4  12  25  41  64  93 131 172 225 267 327 379
#     4   9  21  42  64  94 131 169 212 261 329 385
#     4   9  20  39  63  95 130 168 211 274 323 388
#     4  11  22  39  68  92 130 173 206 273 330 380
#     4  11  24  41  68  95 127 170 224 268 310 399
#     4   9  22  43  62  90 132 173 196 269 332 376
#
# _framework density 22.924954
#
# number of rings (size 3 to 8) (size 9 to 14) (size 15 to 20)
#    0.000    1.714    1.429    1.714    6.000    3.429 
#    2.571    1.429    0.000    0.000    0.000    0.000 
#    0.000    0.000    0.000    0.000    0.000    0.000 
#
# Total GULP energy -156417.371086 kJ/mol
# GULP energy per Si atom -5586.334682 kJ/mol
# Density = 2.287278 g / cm^3
# Si number density = 22.924954 Si / 1000 Ang^3
#
#
#
# Elastic Constant Matrix: (Units=GPa)
#
#
# Indices 1 2 3 4 5 6 
#
# 1 71.2703 26.8371 9.3734 0.0000 -19.4876 0.0000
# 2 26.8371 138.2179 43.9141 0.0000 -22.5082 0.0000
# 3 9.3734 43.9141 91.0156 0.0000 -33.4087 0.0000
# 4 0.0000 0.0000 0.0000 17.8308 0.0000 -0.2624
# 5 -19.4876 -22.5082 -33.4087 0.0000 37.4223 0.0000
# 6 0.0000 0.0000 0.0000 -0.2624 0.0000 23.8689
#
#
#
# Elastic Compliance Matrix: (Units=1/GPa)
#
#
# Indices 1 2 3 4 5 6 
#
# 1 0.017486 -0.002764 0.003369 0.000000 0.010451 0.000000
# 2 -0.002764 0.009102 -0.003906 0.000000 0.000549 0.000000
# 3 0.003369 -0.003906 0.018305 0.000000 0.015747 0.000000
# 4 0.000000 0.000000 0.000000 0.056092 0.000000 0.000617
# 5 0.010451 0.000549 0.015747 0.000000 0.046552 0.000000
# 6 0.000000 0.000000 0.000000 0.000617 0.000000 0.041902
#
#
# Mechanical properties :
#
#
# Convention : Reuss Voigt Hill
#
# Bulk Modulus (GPa) = 26.11492 51.19477 38.65485
# Shear Modulus (GPa) = 23.94591 30.51636 27.23113
#
# Velocity S-wave (km/s) = 3.23543 3.65244 3.45024
# Velocity P-wave (km/s) = 5.03722 6.33775 5.72453
#
# Compressibility (1/GPa) = 0.03829228
#
# Stress axis : x y z
#
# Youngs Moduli (GPa) = 57.18726 109.86918 54.63097
#
# Poissons Ratio (x) = 0.30364 -0.18405
# Poissons Ratio (y) = 0.15805 0.21336
# Poissons Ratio (z) = -0.19266 0.42909
#
# Static dielectric constant tensor:
#      x y z
#    x 1.957910 0.000000 0.092370 
#    y 0.000000 1.819700 0.000000 
#    z 0.092370 0.000000 1.885150 
# 
# From -- ./inp_files/181948.got.cif
#   From: 2010.05.17/outbox.cif.g08.bks.cpg/sg15_91_cif.got.tgz:181948.got - 2010.06.03 18:47:42.
