data_PCOD9277302
_publ_section_title
;
Structure prediction by ZEFSAII (Michael W. Deem and Ramdas Pophale) SiO2 
 PCOD9277302
Probable space group: C 2/C
;
_chemical_formula_sum "Si O2"
_cell_formula_units_Z 40
_cell_length_a 11.466993
_cell_length_b 12.703259
_cell_length_c 10.441456
_cell_angle_alpha 90.000000
_cell_angle_beta 77.058862
_cell_angle_gamma 90.000000
_cell_volume 1482.355810
_symmetry_space_group_name_H-M "C 2/C"
_symmetry_group_IT_number 15
_symmetry_cell_setting 'monoclinic'
loop_
_space_group_symop_operation_xyz
x,y,z
-x,y,1/2-z
-x,-y,-z
x,-y,1/2+z
1/2+x,1/2+y,z
1/2-x,1/2+y,1/2-z
1/2-x,1/2-y,-z
1/2+x,1/2-y,1/2+z
loop_
_atom_site_type_symbol
_atom_site_label
_atom_site_fract_x
_atom_site_fract_y
_atom_site_fract_z
Si Si1 0.055648 0.070559 0.875442
Si Si2 0.678620 0.956316 0.147361
Si Si3 0.358193 0.267248 0.764468
Si Si4 0.414813 0.815314 0.643464
Si Si5 0.892769 0.590142 0.569360
O O1 0.189898 0.033506 0.829478
O O2 0.000000 0.058617 0.750000
O O3 0.062634 0.194026 0.905730
O O4 0.000000 0.000000 0.000000
O O5 0.677440 0.034203 0.027555
O O6 0.658908 0.830642 0.132649
O O7 0.398139 0.970897 0.203492
O O8 0.500000 0.303848 0.750000
O O9 0.230233 0.328073 0.806235
O O10 0.348637 0.204987 0.630083
O O11 0.500000 0.822372 0.750000
O O12 0.479619 0.888250 0.524062
#
# Coordination Sequence:
#
# PCOD9277302 Si02
#       5
#     8   8   8   8   8
#     4  10  20  40  72 108 152 202 254 319 390 468
#     4   9  21  41  70 112 150 195 261 317 385 457
#     4   9  22  44  72 110 154 192 256 320 387 457
#     4  10  23  44  72 115 153 200 260 318 389 462
#     4  10  22  45  76 111 153 202 259 320 382 462
#
# _framework density 26.984076000000002
#
# number of rings (size 3 to 8) (size 9 to 14) (size 15 to 20)
#    1.200    1.200    0.000    1.200    2.800    3.200 
#    3.600    1.000    0.000    0.000    0.000    1.400 
#    0.000    0.000    0.000    0.000    0.000    0.000 
#
# Total GULP energy -111589.577283 kJ/mol
# GULP energy per Si atom -5579.478864 kJ/mol
# Density = 2.692266 g / cm^3
# Si number density = 26.984076 Si / 1000 Ang^3
#
#
#
# Elastic Constant Matrix: (Units=GPa)
#
#
# Indices 1 2 3 4 5 6 
#
# 1 233.0496 63.9322 85.6603 0.0000 6.7333 0.0000
# 2 63.9322 94.6281 49.9113 0.0000 -3.3719 0.0000
# 3 85.6603 49.9113 150.9818 0.0000 0.8571 0.0000
# 4 0.0000 0.0000 0.0000 57.1751 0.0000 -22.3320
# 5 6.7333 -3.3719 0.8571 0.0000 52.4522 0.0000
# 6 0.0000 0.0000 0.0000 -22.3320 0.0000 37.8263
#
#
#
# Elastic Compliance Matrix: (Units=1/GPa)
#
#
# Indices 1 2 3 4 5 6 
#
# 1 0.005987 -0.002772 -0.002476 0.000000 -0.000906 0.000000
# 2 -0.002772 0.014124 -0.003104 0.000000 0.001315 0.000000
# 3 -0.002476 -0.003104 0.009054 0.000000 -0.000030 0.000000
# 4 0.000000 0.000000 0.000000 0.022732 0.000000 0.013421
# 5 -0.000906 0.001315 -0.000030 0.000000 0.019266 0.000000
# 6 0.000000 0.000000 0.000000 0.013421 0.000000 0.034360
#
#
# Mechanical properties :
#
#
# Convention : Reuss Voigt Hill
#
# Bulk Modulus (GPa) = 80.23670 97.51856 88.87763
# Shear Modulus (GPa) = 39.56270 48.10111 43.83190
#
# Velocity S-wave (km/s) = 3.83319 4.22663 4.03471
# Velocity P-wave (km/s) = 7.02784 7.74835 7.39687
#
# Compressibility (1/GPa) = 0.01246312
#
# Stress axis : x y z
#
# Youngs Moduli (GPa) = 167.01704 70.79935 110.44654
#
# Poissons Ratio (x) = 0.19624 0.27342
# Poissons Ratio (y) = 0.46293 0.34284
# Poissons Ratio (z) = 0.41346 0.21977
#
# Static dielectric constant tensor:
#      x y z
#    x 2.131340 0.000000 0.033470 
#    y 0.000000 2.267940 0.000000 
#    z 0.033470 0.000000 2.141710 
# 
# From -- ./inp_files/85525.got.cif
#   From: 2010.05.17/outbox.cif.g08.bks.cpg/sg15_43_cif.got.tgz:85525.got - 2010.06.03 18:47:42.
