data_PCOD9277077
_publ_section_title
;
Structure prediction by ZEFSAII (Michael W. Deem and Ramdas Pophale) SiO2 
 PCOD9277077
Probable space group: C 2/C
;
_chemical_formula_sum "Si O2"
_cell_formula_units_Z 48
_cell_length_a 13.173725
_cell_length_b 13.107281
_cell_length_c 13.761050
_cell_angle_alpha 90.000000
_cell_angle_beta 118.070830
_cell_angle_gamma 90.000000
_cell_volume 2096.630079
_symmetry_space_group_name_H-M "C 2/C"
_symmetry_group_IT_number 15
_symmetry_cell_setting 'monoclinic'
loop_
_space_group_symop_operation_xyz
x,y,z
-x,y,1/2-z
-x,-y,-z
x,-y,1/2+z
1/2+x,1/2+y,z
1/2-x,1/2+y,1/2-z
1/2-x,1/2-y,-z
1/2+x,1/2-y,1/2+z
loop_
_atom_site_type_symbol
_atom_site_label
_atom_site_fract_x
_atom_site_fract_y
_atom_site_fract_z
Si Si1 0.850313 0.404495 0.222649
Si Si2 0.584646 0.712125 0.908483
Si Si3 0.878353 0.707214 0.539879
Si Si4 0.918792 0.094779 0.943681
Si Si5 0.734179 0.248158 0.658418
Si Si6 0.914428 0.613295 0.348914
O O1 0.903493 0.353751 0.149698
O O2 0.716043 0.428794 0.131706
O O3 0.838729 0.320616 0.302176
O O4 0.907356 0.502677 0.298275
O O5 0.472380 0.644048 0.870564
O O6 0.671605 0.686771 0.862456
O O7 0.533121 0.826975 0.877062
O O8 0.656935 0.702764 0.039894
O O9 0.750000 0.750000 0.500000
O O10 0.934589 0.814497 0.530652
O O11 0.896302 0.630449 0.456618
O O12 0.000000 0.000000 0.000000
O O13 0.806653 0.327192 0.753823
#
# Coordination Sequence:
#
# PCOD9277077 Si02
#       6
#     8   8   8   8   8   8
#     4  11  23  40  72  99 136 192 233 285 372 413
#     4  10  23  41  65  97 140 177 235 299 336 431
#     4   9  19  41  65  96 145 178 227 305 342 425
#     4  10  20  40  68 100 135 176 233 295 351 413
#     4  11  22  42  67  94 136 188 232 289 356 422
#     4  11  22  41  69  99 143 183 235 293 360 426
#
# _framework density 22.893882000000001
#
# number of rings (size 3 to 8) (size 9 to 14) (size 15 to 20)
#    0.000    1.667    5.000    1.500    0.000    6.000 
#    0.000    8.333    3.667    0.000    0.000    0.000 
#    0.000    0.000    0.000    0.000    0.000    0.000 
#
# Total GULP energy -134049.621963 kJ/mol
# GULP energy per Si atom -5585.400915 kJ/mol
# Density = 2.284177 g / cm^3
# Si number density = 22.893882 Si / 1000 Ang^3
#
#
#
# Elastic Constant Matrix: (Units=GPa)
#
#
# Indices 1 2 3 4 5 6 
#
# 1 115.7740 26.4509 34.5438 0.0000 -26.3805 0.0000
# 2 26.4509 105.6551 42.7707 0.0000 -16.6438 0.0000
# 3 34.5438 42.7707 163.8925 0.0000 -16.9944 0.0000
# 4 0.0000 0.0000 0.0000 45.4488 0.0000 13.6671
# 5 -26.3805 -16.6438 -16.9944 0.0000 50.0611 0.0000
# 6 0.0000 0.0000 0.0000 13.6671 0.0000 27.0493
#
#
#
# Elastic Compliance Matrix: (Units=1/GPa)
#
#
# Indices 1 2 3 4 5 6 
#
# 1 0.010391 -0.001327 -0.001370 0.000000 0.004569 0.000000
# 2 -0.001327 0.011110 -0.002393 0.000000 0.002182 0.000000
# 3 -0.001370 -0.002393 0.007108 0.000000 0.000895 0.000000
# 4 0.000000 0.000000 0.000000 0.025945 0.000000 -0.013109
# 5 0.004569 0.002182 0.000895 0.000000 0.023413 0.000000
# 6 0.000000 0.000000 0.000000 -0.013109 0.000000 0.043593
#
#
# Mechanical properties :
#
#
# Convention : Reuss Voigt Hill
#
# Bulk Modulus (GPa) = 54.26686 65.87247 60.06967
# Shear Modulus (GPa) = 36.26305 43.28225 39.77265
#
# Velocity S-wave (km/s) = 3.98422 4.35277 4.17257
# Velocity P-wave (km/s) = 6.70227 7.35511 7.03627
#
# Compressibility (1/GPa) = 0.01842745
#
# Stress axis : x y z
#
# Youngs Moduli (GPa) = 96.24081 90.01296 140.69214
#
# Poissons Ratio (x) = 0.11944 0.19274
# Poissons Ratio (y) = 0.12770 0.33672
# Poissons Ratio (z) = 0.13185 0.21543
#
# Static dielectric constant tensor:
#      x y z
#    x 1.916200 0.000000 0.036330 
#    y 0.000000 1.900300 0.000000 
#    z 0.036330 0.000000 1.917500 
# 
# From -- ./inp_files/152741.got.cif
#   From: 2010.05.17/outbox.cif.g08.bks.cpg/sg15_77_cif.got.tgz:152741.got - 2010.06.03 18:47:42.
