data_PCOD9277931
_publ_section_title
;
Structure prediction by ZEFSAII (Michael W. Deem and Ramdas Pophale) SiO2 
 PCOD9277931
Probable space group: C 2/C
;
_chemical_formula_sum "Si O2"
_cell_formula_units_Z 48
_cell_length_a 29.884891
_cell_length_b 9.455072
_cell_length_c 21.571280
_cell_angle_alpha 90.000000
_cell_angle_beta 17.156906
_cell_angle_gamma 90.000000
_cell_volume 1798.038338
_symmetry_space_group_name_H-M "C 2/C"
_symmetry_group_IT_number 15
_symmetry_cell_setting 'monoclinic'
loop_
_space_group_symop_operation_xyz
x,y,z
-x,y,1/2-z
-x,-y,-z
x,-y,1/2+z
1/2+x,1/2+y,z
1/2-x,1/2+y,1/2-z
1/2-x,1/2-y,-z
1/2+x,1/2-y,1/2+z
loop_
_atom_site_type_symbol
_atom_site_label
_atom_site_fract_x
_atom_site_fract_y
_atom_site_fract_z
Si Si1 0.500000 0.500000 0.000000
Si Si2 0.801153 0.771610 0.692298
Si Si3 0.330605 0.970477 0.250250
Si Si4 0.025288 0.725259 0.853454
Si Si5 0.500000 0.127356 0.750000
Si Si6 0.958917 0.180068 0.871043
Si Si7 0.818300 0.977683 0.338534
O O1 0.625951 0.410769 0.874202
O O2 0.635206 0.598116 0.786269
O O3 0.780947 0.651682 0.769350
O O4 0.908666 0.721645 0.494254
O O5 0.628353 0.808392 0.907327
O O6 0.353202 0.892068 0.286773
O O7 0.190254 0.079650 0.438505
O O8 0.500000 0.000000 0.000000
O O9 0.076827 0.879506 0.810270
O O10 0.001219 0.718733 0.811610
O O11 0.649410 0.032201 0.560086
O O12 0.000000 0.239385 0.750000
O O13 0.108071 0.098737 0.700236
#
# Coordination Sequence:
#
# PCOD9277931 Si02
#       7
#     4   8   8   8   4   8   8
#     4  10  20  42  62  94 128 190 230 282 356 440
#     4  11  23  44  70 100 142 191 240 291 373 431
#     4  12  24  44  73 106 138 189 253 300 357 442
#     4  12  22  40  65 101 139 182 227 299 360 436
#     4  12  24  38  62 104 140 178 224 308 368 420
#     4  11  25  45  72 106 147 194 240 307 366 434
#     4  11  23  38  67  95 145 178 238 290 364 426
#
# _framework density 26.69576
#
# number of rings (size 3 to 8) (size 9 to 14) (size 15 to 20)
#    0.000    0.667    6.667    1.500    1.167    0.000 
#    0.000    0.833    1.833    0.000    0.000    0.000 
#    0.000    0.000    0.000    0.000    0.000    0.000 
#
# Total GULP energy -133895.165000 kJ/mol
# GULP energy per Si atom -5578.965208 kJ/mol
# Density = 2.663500 g / cm^3
# Si number density = 26.695760 Si / 1000 Ang^3
#
#
#
# Elastic Constant Matrix: (Units=GPa)
#
#
# Indices 1 2 3 4 5 6 
#
# 1 120.0497 17.3181 34.1413 -0.0001 22.5525 0.0000
# 2 17.3181 53.6669 25.3850 -0.0001 -17.1703 0.0000
# 3 34.1413 25.3850 138.9816 -0.0001 -14.4258 0.0001
# 4 -0.0001 -0.0001 -0.0001 35.6688 0.0001 -16.0115
# 5 22.5525 -17.1703 -14.4258 0.0001 58.6380 0.0000
# 6 0.0000 0.0000 0.0001 -16.0115 0.0000 27.4138
#
#
#
# Elastic Compliance Matrix: (Units=1/GPa)
#
#
# Indices 1 2 3 4 5 6 
#
# 1 0.010774 -0.004211 -0.002499 0.000000 -0.005992 0.000000
# 2 -0.004211 0.023705 -0.002470 0.000000 0.007954 0.000000
# 3 -0.002499 -0.002470 0.008502 0.000000 0.002330 0.000000
# 4 0.000000 0.000000 0.000000 0.037998 0.000000 0.022193
# 5 -0.005992 0.007954 0.002330 0.000000 0.022260 0.000000
# 6 0.000000 0.000000 0.000000 0.022193 0.000000 0.049440
#
#
# Mechanical properties :
#
#
# Convention : Reuss Voigt Hill
#
# Bulk Modulus (GPa) = 40.61690 51.82077 46.21883
# Shear Modulus (GPa) = 27.89434 40.06771 33.98102
#
# Velocity S-wave (km/s) = 3.23599 3.87835 3.57164
# Velocity P-wave (km/s) = 5.40463 6.28564 5.86171
#
# Compressibility (1/GPa) = 0.02462029
#
# Stress axis : x y z
#
# Youngs Moduli (GPa) = 92.81765 42.18461 117.61853
#
# Poissons Ratio (x) = 0.17766 0.29397
# Poissons Ratio (y) = 0.39090 0.29048
# Poissons Ratio (z) = 0.23198 0.10418
#
# Static dielectric constant tensor:
#      x y z
#    x 1.883720 0.000000 -0.296710 
#    y 0.000000 2.028390 0.000000 
#    z -0.296710 0.000000 2.120850 
# 
# From -- ./inp_files/259225.got.cif
#   From: 2010.05.17/outbox.cif.g08.bks.cpg/sg15_130_cif.got.tgz:259225.got - 2010.06.03 18:47:42.
