data_PCOD9277914
_publ_section_title
;
Structure prediction by ZEFSAII (Michael W. Deem and Ramdas Pophale) SiO2 
 PCOD9277914
Probable space group: C 2/C
;
_chemical_formula_sum "Si O2"
_cell_formula_units_Z 60
_cell_length_a 14.869631
_cell_length_b 23.458199
_cell_length_c 8.673819
_cell_angle_alpha 90.000000
_cell_angle_beta 101.862531
_cell_angle_gamma 90.000000
_cell_volume 2960.941207
_symmetry_space_group_name_H-M "C 2/C"
_symmetry_group_IT_number 15
_symmetry_cell_setting 'monoclinic'
loop_
_space_group_symop_operation_xyz
x,y,z
-x,y,1/2-z
-x,-y,-z
x,-y,1/2+z
1/2+x,1/2+y,z
1/2-x,1/2+y,1/2-z
1/2-x,1/2-y,-z
1/2+x,1/2-y,1/2+z
loop_
_atom_site_type_symbol
_atom_site_label
_atom_site_fract_x
_atom_site_fract_y
_atom_site_fract_z
Si Si1 0.816871 0.048940 0.165636
Si Si2 0.903071 0.681400 0.304882
Si Si3 0.892747 0.444619 0.927965
Si Si4 0.696561 0.673617 0.179421
Si Si5 0.927066 0.042666 0.903898
Si Si6 0.580911 0.743521 0.384408
Si Si7 0.523302 0.336757 0.424080
Si Si8 0.500000 0.031475 0.750000
O O1 0.711121 0.034197 0.107148
O O2 0.817523 0.108498 0.261368
O O3 0.873011 0.995820 0.259227
O O4 0.856608 0.060182 0.011449
O O5 0.903221 0.614799 0.345609
O O6 0.803528 0.688375 0.185621
O O7 0.894177 0.715304 0.464607
O O8 0.000000 0.692236 0.250000
O O9 0.945628 0.491358 0.847821
O O10 0.931161 0.435708 0.113711
O O11 0.657720 0.717625 0.296327
O O12 0.628999 0.673579 0.007952
O O13 0.986970 0.098955 0.896163
O O14 0.000000 0.000000 0.000000
O O15 0.500000 0.769973 0.250000
O O16 0.533357 0.690677 0.456029
O O17 0.500000 0.310461 0.250000
#
# Coordination Sequence:
#
# PCOD9277914 Si02
#       8
#     8   8   8   8   8   8   8   4
#     4  11  22  37  56  93 124 168 202 256 304 388
#     4  11  23  43  66  98 125 167 217 271 309 368
#     4  10  22  39  64  88 127 161 213 254 320 362
#     4  10  22  42  65  89 132 169 207 256 326 376
#     4  12  22  34  59  88 127 162 209 246 310 379
#     4  10  22  42  69  90 125 165 212 265 320 382
#     4  11  22  40  60  94 126 168 204 260 324 383
#     4  10  20  42  62  86 124 168 202 266 308 372
#
# _framework density 20.263828
#
# number of rings (size 3 to 8) (size 9 to 14) (size 15 to 20)
#    0.000    1.333    3.333    2.800    0.933    0.000 
#    0.000    8.667    0.000    0.000    0.000    0.000 
#    0.000    0.000    0.000    0.000    0.000    0.000 
#
# Total GULP energy -167191.758568 kJ/mol
# GULP energy per Si atom -5573.058619 kJ/mol
# Density = 2.021771 g / cm^3
# Si number density = 20.263828 Si / 1000 Ang^3
#
#
#
# Elastic Constant Matrix: (Units=GPa)
#
#
# Indices 1 2 3 4 5 6 
#
# 1 152.9266 27.6205 65.2651 0.0000 18.9774 0.0000
# 2 27.6205 48.0888 -2.4428 0.0000 6.8382 0.0000
# 3 65.2651 -2.4428 107.8433 0.0000 15.5626 0.0000
# 4 0.0000 0.0000 0.0000 31.6123 0.0000 4.5064
# 5 18.9774 6.8382 15.5626 0.0000 27.5428 0.0000
# 6 0.0000 0.0000 0.0000 4.5064 0.0000 10.2997
#
#
#
# Elastic Compliance Matrix: (Units=1/GPa)
#
#
# Indices 1 2 3 4 5 6 
#
# 1 0.010562 -0.006059 -0.006202 0.000000 -0.002269 0.000000
# 2 -0.006059 0.025220 0.004942 0.000000 -0.004879 0.000000
# 3 -0.006202 0.004942 0.013825 0.000000 -0.004766 0.000000
# 4 0.000000 0.000000 0.000000 0.033737 0.000000 -0.014761
# 5 -0.002269 -0.004879 -0.004766 0.000000 0.041775 0.000000
# 6 0.000000 0.000000 0.000000 -0.014761 0.000000 0.103548
#
#
# Mechanical properties :
#
#
# Convention : Reuss Voigt Hill
#
# Bulk Modulus (GPa) = 28.59570 54.41604 41.50587
# Shear Modulus (GPa) = 19.61093 28.45203 24.03148
#
# Velocity S-wave (km/s) = 3.11429 3.75117 3.44747
# Velocity P-wave (km/s) = 5.20328 6.75824 6.03108
#
# Compressibility (1/GPa) = 0.03497030
#
# Stress axis : x y z
#
# Youngs Moduli (GPa) = 94.68333 39.65177 72.33033
#
# Poissons Ratio (x) = 0.24023 0.44856
# Poissons Ratio (y) = 0.57364 -0.35745
# Poissons Ratio (z) = 0.58718 -0.19596
#
# Static dielectric constant tensor:
#      x y z
#    x 1.781030 0.000000 -0.024650 
#    y 0.000000 1.835120 0.000000 
#    z -0.024650 0.000000 1.809390 
# 
# From -- ./inp_files/42247.got.cif
#   From: 2010.05.17/outbox.cif.g08.bks.cpg/sg15_22_cif.got.tgz:42247.got - 2010.06.03 18:47:42.
