data_PCOD9277634
_publ_section_title
;
Structure prediction by ZEFSAII (Michael W. Deem and Ramdas Pophale) SiO2 
 PCOD9277634
Probable space group: C 2/C
;
_chemical_formula_sum "Si O2"
_cell_formula_units_Z 56
_cell_length_a 9.115468
_cell_length_b 17.621771
_cell_length_c 17.463803
_cell_angle_alpha 90.000000
_cell_angle_beta 105.128847
_cell_angle_gamma 90.000000
_cell_volume 2707.997490
_symmetry_space_group_name_H-M "C 2/C"
_symmetry_group_IT_number 15
_symmetry_cell_setting 'monoclinic'
loop_
_space_group_symop_operation_xyz
x,y,z
-x,y,1/2-z
-x,-y,-z
x,-y,1/2+z
1/2+x,1/2+y,z
1/2-x,1/2+y,1/2-z
1/2-x,1/2-y,-z
1/2+x,1/2-y,1/2+z
loop_
_atom_site_type_symbol
_atom_site_label
_atom_site_fract_x
_atom_site_fract_y
_atom_site_fract_z
Si Si1 0.070836 0.089064 0.102524
Si Si2 0.852822 0.147109 0.771116
Si Si3 0.104145 0.531371 0.694189
Si Si4 0.086640 0.570448 0.971327
Si Si5 0.595896 0.419615 0.071552
Si Si6 0.754202 0.615800 0.368943
Si Si7 0.178794 0.686307 0.275759
O O1 0.216168 0.135597 0.153770
O O2 0.916661 0.115480 0.122996
O O3 0.075901 0.998159 0.115274
O O4 0.039505 0.096000 0.006967
O O5 0.716414 0.089838 0.747248
O O6 0.886100 0.149438 0.866709
O O7 0.817596 0.222729 0.717479
O O8 0.000000 0.113333 0.750000
O O9 0.194118 0.463761 0.663807
O O10 0.000000 0.502137 0.750000
O O11 0.012540 0.579567 0.618020
O O12 0.255742 0.560814 0.959585
O O13 0.124058 0.627987 0.045768
O O14 0.000000 0.500000 0.000000
O O15 0.762282 0.674073 0.301828
O O16 0.000000 0.665708 0.250000
#
# Coordination Sequence:
#
# PCOD9277634 Si02
#       7
#     8   8   8   8   8   8   8
#     4  10  22  40  68  93 122 164 206 265 325 373
#     4  11  24  42  59  89 128 171 214 255 312 381
#     4  11  20  36  65  92 123 161 205 258 315 369
#     4   9  20  35  59  99 123 150 200 257 318 367
#     4  10  20  41  66  95 126 159 210 268 318 378
#     4  10  21  39  61  93 122 158 208 261 311 376
#     4  11  25  42  59  89 127 169 215 260 311 377
#
# _framework density 20.679487000000002
#
# number of rings (size 3 to 8) (size 9 to 14) (size 15 to 20)
#    0.000    1.714    1.429    2.571    4.000    2.286 
#    2.571    2.857    0.000    0.000    0.000    0.000 
#    0.000    0.000    0.000    0.000    0.000    0.000 
#
# Total GULP energy -155917.727570 kJ/mol
# GULP energy per Si atom -5568.490270 kJ/mol
# Density = 2.063242 g / cm^3
# Si number density = 20.679487 Si / 1000 Ang^3
#
#
#
# Elastic Constant Matrix: (Units=GPa)
#
#
# Indices 1 2 3 4 5 6 
#
# 1 83.8412 19.0169 26.9593 0.0000 6.2420 0.0000
# 2 19.0169 44.6426 23.9992 0.0000 8.4781 0.0000
# 3 26.9593 23.9992 128.7004 0.0000 19.4237 0.0000
# 4 0.0000 0.0000 0.0000 20.3453 0.0000 2.9979
# 5 6.2420 8.4781 19.4237 0.0000 30.9944 0.0000
# 6 0.0000 0.0000 0.0000 2.9979 0.0000 -11.4780
#
#
#
# Elastic Compliance Matrix: (Units=1/GPa)
#
#
# Indices 1 2 3 4 5 6 
#
# 1 0.013640 -0.004722 -0.001941 0.000000 -0.000239 0.000000
# 2 -0.004722 0.027062 -0.003406 0.000000 -0.004317 0.000000
# 3 -0.001941 -0.003406 0.009512 0.000000 -0.004638 0.000000
# 4 0.000000 0.000000 0.000000 0.047330 0.000000 0.012362
# 5 -0.000239 -0.004317 -0.004638 0.000000 0.036400 0.000000
# 6 0.000000 0.000000 0.000000 0.012362 0.000000 -0.083894
#
#
# Mechanical properties :
#
#
# Convention : Reuss Voigt Hill
#
# Bulk Modulus (GPa) = 33.24717 44.12612 38.68665
# Shear Modulus (GPa) = 62.33497 20.45291 41.39394
#
# Velocity S-wave (km/s) = 5.49626 3.14832 4.47888
# Velocity P-wave (km/s) = 7.50937 5.88220 6.74504
#
# Compressibility (1/GPa) = 0.03007775
#
# Stress axis : x y z
#
# Youngs Moduli (GPa) = 73.31300 36.95177 105.13468
#
# Poissons Ratio (x) = 0.17448 0.20403
# Poissons Ratio (y) = 0.34617 0.35806
# Poissons Ratio (z) = 0.14228 0.12585
#
# Static dielectric constant tensor:
#      x y z
#    x 1.725770 0.000000 -0.016660 
#    y 0.000000 1.754820 0.000000 
#    z -0.016660 0.000000 1.780380 
# 
# From -- ./inp_files/191040.got.cif
#   From: 2010.05.17/outbox.cif.g08.bks.cpg/sg15_96_cif.got.tgz:191040.got - 2010.06.03 18:47:42.
