data_PCOD9277490
_publ_section_title
;
Structure prediction by ZEFSAII (Michael W. Deem and Ramdas Pophale) SiO2 
 PCOD9277490
Probable space group: C 2/C
;
_chemical_formula_sum "Si O2"
_cell_formula_units_Z 60
_cell_length_a 18.006347
_cell_length_b 14.804412
_cell_length_c 11.812974
_cell_angle_alpha 90.000000
_cell_angle_beta 110.834919
_cell_angle_gamma 90.000000
_cell_volume 2943.106807
_symmetry_space_group_name_H-M "C 2/C"
_symmetry_group_IT_number 15
_symmetry_cell_setting 'monoclinic'
loop_
_space_group_symop_operation_xyz
x,y,z
-x,y,1/2-z
-x,-y,-z
x,-y,1/2+z
1/2+x,1/2+y,z
1/2-x,1/2+y,1/2-z
1/2-x,1/2-y,-z
1/2+x,1/2-y,1/2+z
loop_
_atom_site_type_symbol
_atom_site_label
_atom_site_fract_x
_atom_site_fract_y
_atom_site_fract_z
Si Si1 0.809405 0.664407 0.542429
Si Si2 0.725034 0.168308 0.725831
Si Si3 0.178247 0.141061 0.129292
Si Si4 0.263253 0.520401 0.150522
Si Si5 0.999704 0.107285 0.381474
Si Si6 0.897849 0.762385 0.405067
Si Si7 0.398164 0.438293 0.109147
Si Si8 0.000000 0.775237 0.250000
O O1 0.750000 0.750000 0.500000
O O2 0.825372 0.661783 0.684743
O O3 0.766609 0.574345 0.475077
O O4 0.876677 0.686252 0.486471
O O5 0.696346 0.253128 0.636468
O O6 0.816124 0.193483 0.811848
O O7 0.721663 0.072542 0.661897
O O8 0.237514 0.093560 0.249090
O O9 0.087941 0.126220 0.121129
O O10 0.175265 0.086743 0.011511
O O11 0.355621 0.492732 0.185655
O O12 0.058089 0.161938 0.495965
O O13 0.000000 0.137644 0.250000
O O14 0.033633 0.004844 0.398896
O O15 0.953659 0.730646 0.330659
O O16 0.435757 0.343918 0.162666
#
# Coordination Sequence:
#
# PCOD9277490 Si02
#       8
#     8   8   8   8   8   8   8   4
#     4  10  20  41  64  88 126 180 220 262 328 391
#     4  11  24  41  64  94 135 175 228 269 331 406
#     4  12  23  39  60  95 132 175 223 272 334 402
#     4  12  21  39  64  94 133 168 218 279 328 400
#     4  12  22  35  62  96 130 173 219 269 337 408
#     4  11  22  41  61  89 132 178 213 266 333 400
#     4  12  23  35  57  97 139 166 210 271 348 410
#     4  12  22  38  54  94 134 172 200 270 338 410
#
# _framework density 20.386617999999999
#
# number of rings (size 3 to 8) (size 9 to 14) (size 15 to 20)
#    0.000    0.533    7.333    4.400    0.000    0.533 
#    0.000    0.000    0.000    0.800    1.733    0.000 
#    0.000    0.000    0.000    0.000    0.000    0.000 
#
# Total GULP energy -167414.949089 kJ/mol
# GULP energy per Si atom -5580.498303 kJ/mol
# Density = 2.034022 g / cm^3
# Si number density = 20.386618 Si / 1000 Ang^3
#
#
#
# Elastic Constant Matrix: (Units=GPa)
#
#
# Indices 1 2 3 4 5 6 
#
# 1 77.9042 29.0157 14.8743 0.0000 -26.7657 0.0000
# 2 29.0157 117.1091 17.0022 0.0000 -1.5349 0.0000
# 3 14.8743 17.0022 59.8347 0.0000 -3.8864 0.0000
# 4 0.0000 0.0000 0.0000 37.7926 0.0000 -4.7188
# 5 -26.7657 -1.5349 -3.8864 0.0000 34.7501 0.0000
# 6 0.0000 0.0000 0.0000 -4.7188 0.0000 30.1044
#
#
#
# Elastic Compliance Matrix: (Units=1/GPa)
#
#
# Indices 1 2 3 4 5 6 
#
# 1 0.020169 -0.004395 -0.002789 0.000000 0.015029 0.000000
# 2 -0.004395 0.009865 -0.001916 0.000000 -0.003164 0.000000
# 3 -0.002789 -0.001916 0.017936 0.000000 -0.000227 0.000000
# 4 0.000000 0.000000 0.000000 0.026988 0.000000 0.004230
# 5 0.015029 -0.003164 -0.000227 0.000000 0.040188 0.000000
# 6 0.000000 0.000000 0.000000 0.004230 0.000000 0.033881
#
#
# Mechanical properties :
#
#
# Convention : Reuss Voigt Hill
#
# Bulk Modulus (GPa) = 33.59135 41.84803 37.71969
# Shear Modulus (GPa) = 28.22458 33.45980 30.84219
#
# Velocity S-wave (km/s) = 3.72488 4.05565 3.89378
# Velocity P-wave (km/s) = 5.91714 6.51942 6.22557
#
# Compressibility (1/GPa) = 0.02976957
#
# Stress axis : x y z
#
# Youngs Moduli (GPa) = 49.57987 101.37063 55.75478
#
# Poissons Ratio (x) = 0.44557 0.15549
# Poissons Ratio (y) = 0.21793 0.10682
# Poissons Ratio (z) = 0.13827 0.19422
#
# Static dielectric constant tensor:
#      x y z
#    x 1.845830 0.000000 -0.079260 
#    y 0.000000 1.708720 0.000000 
#    z -0.079260 0.000000 1.897200 
# 
# From -- ./inp_files/105780.got.cif
#   From: 2010.05.17/outbox.cif.g08.bks.cpg/sg15_53_cif.got.tgz:105780.got - 2010.06.03 18:47:42.
