data_PCOD9277837
_publ_section_title
;
Structure prediction by ZEFSAII (Michael W. Deem and Ramdas Pophale) SiO2 
 PCOD9277837
Probable space group: C 2/C
;
_chemical_formula_sum "Si O2"
_cell_formula_units_Z 48
_cell_length_a 9.136376
_cell_length_b 18.417858
_cell_length_c 28.388278
_cell_angle_alpha 90.000000
_cell_angle_beta 150.616258
_cell_angle_gamma 90.000000
_cell_volume 2343.849436
_symmetry_space_group_name_H-M "C 2/C"
_symmetry_group_IT_number 15
_symmetry_cell_setting 'monoclinic'
loop_
_space_group_symop_operation_xyz
x,y,z
-x,y,1/2-z
-x,-y,-z
x,-y,1/2+z
1/2+x,1/2+y,z
1/2-x,1/2+y,1/2-z
1/2-x,1/2-y,-z
1/2+x,1/2-y,1/2+z
loop_
_atom_site_type_symbol
_atom_site_label
_atom_site_fract_x
_atom_site_fract_y
_atom_site_fract_z
Si Si1 0.255661 0.679998 0.035734
Si Si2 0.647622 0.435550 0.157381
Si Si3 0.721753 0.246880 0.267072
Si Si4 0.241225 0.409683 0.212102
Si Si5 0.182779 0.966231 0.007054
Si Si6 0.845224 0.212992 0.575705
O O1 0.512452 0.691928 0.146748
O O2 0.336969 0.613065 0.023946
O O3 0.250000 0.750000 0.000000
O O4 0.937312 0.679849 0.973955
O O5 0.610136 0.447593 0.201970
O O6 0.420605 0.481729 0.063511
O O7 0.566606 0.352424 0.124559
O O8 0.000000 0.450259 0.250000
O O9 0.500000 0.241566 0.250000
O O10 0.868884 0.328382 0.305029
O O11 0.526183 0.238386 0.164767
O O12 0.500000 0.391092 0.250000
O O13 0.007404 0.460028 0.120827
O O14 0.000000 0.000000 0.000000
O O15 0.750000 0.250000 0.500000
#
# Coordination Sequence:
#
# PCOD9277837 Si02
#       6
#     8   8   8   8   8   8
#     4  12  24  44  73 103 141 188 241 304 366 437
#     4  11  25  45  68  98 141 188 233 293 374 443
#     4  10  20  41  71  99 137 186 237 293 364 446
#     4  10  21  42  70  96 135 188 229 286 368 436
#     4  12  25  43  72 104 138 188 246 298 362 447
#     4  11  27  43  71 108 143 193 245 302 380 447
#
# _framework density 20.479130999999999
#
# number of rings (size 3 to 8) (size 9 to 14) (size 15 to 20)
#    0.000    1.000    5.000    2.000    7.000    3.333 
#    3.000    0.000    0.000    0.000    0.000    0.000 
#    0.000    0.000    0.000    0.000    0.000    0.000 
#
# Total GULP energy -133659.901929 kJ/mol
# GULP energy per Si atom -5569.162580 kJ/mol
# Density = 2.043252 g / cm^3
# Si number density = 20.479131 Si / 1000 Ang^3
#
#
#
# Elastic Constant Matrix: (Units=GPa)
#
#
# Indices 1 2 3 4 5 6 
#
# 1 69.2254 32.1917 32.2103 0.0003 -22.8614 -0.0001
# 2 32.1917 53.7775 34.1751 -0.0028 -24.2761 -0.0010
# 3 32.2103 34.1751 163.3158 -0.0013 -47.1658 -0.0002
# 4 0.0003 -0.0028 -0.0013 52.8803 0.0006 -9.3462
# 5 -22.8614 -24.2761 -47.1658 0.0006 51.2844 0.0004
# 6 -0.0001 -0.0010 -0.0002 -9.3462 0.0004 25.8144
#
#
#
# Elastic Compliance Matrix: (Units=1/GPa)
#
#
# Indices 1 2 3 4 5 6 
#
# 1 0.020832 -0.010268 -0.000928 -0.000001 0.003572 -0.000001
# 2 -0.010268 0.029382 -0.001945 0.000002 0.007543 0.000002
# 3 -0.000928 -0.001945 0.008616 0.000000 0.006590 0.000000
# 4 -0.000001 0.000002 0.000000 0.020203 0.000000 0.007315
# 5 0.003572 0.007543 0.006590 0.000000 0.030722 0.000000
# 6 -0.000001 0.000002 0.000000 0.007315 0.000000 0.041386
#
#
# Mechanical properties :
#
#
# Convention : Reuss Voigt Hill
#
# Bulk Modulus (GPa) = 30.72346 53.71922 42.22134
# Shear Modulus (GPa) = 26.55691 38.51194 32.53442
#
# Velocity S-wave (km/s) = 3.60499 4.34123 3.99013
# Velocity P-wave (km/s) = 5.68883 7.17053 6.47222
#
# Compressibility (1/GPa) = 0.03254842
#
# Stress axis : x y z
#
# Youngs Moduli (GPa) = 48.00303 34.03394 116.05789
#
# Poissons Ratio (x) = 0.34945 0.10774
# Poissons Ratio (y) = 0.49288 0.22575
# Poissons Ratio (z) = 0.04456 0.06620
#
# Static dielectric constant tensor:
#      x y z
#    x 1.779450 0.000010 -0.006700 
#    y 0.000010 1.956460 0.000020 
#    z -0.006700 0.000020 1.731780 
# 
# From -- ./inp_files/290158.got.cif
#   From: 2010.05.17/outbox.cif.g08.bks.cpg/sg15_146_cif.got.tgz:290158.got - 2010.06.03 18:47:42.
