data_PCOD9277495
_publ_section_title
;
Structure prediction by ZEFSAII (Michael W. Deem and Ramdas Pophale) SiO2 
 PCOD9277495
Probable space group: C 2/C
;
_chemical_formula_sum "Si O2"
_cell_formula_units_Z 40
_cell_length_a 17.365191
_cell_length_b 24.381417
_cell_length_c 9.321026
_cell_angle_alpha 90.000000
_cell_angle_beta 31.307299
_cell_angle_gamma 90.000000
_cell_volume 2050.665082
_symmetry_space_group_name_H-M "C 2/C"
_symmetry_group_IT_number 15
_symmetry_cell_setting 'monoclinic'
loop_
_space_group_symop_operation_xyz
x,y,z
-x,y,1/2-z
-x,-y,-z
x,-y,1/2+z
1/2+x,1/2+y,z
1/2-x,1/2+y,1/2-z
1/2-x,1/2-y,-z
1/2+x,1/2-y,1/2+z
loop_
_atom_site_type_symbol
_atom_site_label
_atom_site_fract_x
_atom_site_fract_y
_atom_site_fract_z
Si Si1 0.346210 0.025277 0.192001
Si Si2 0.078004 0.854166 0.973555
Si Si3 0.400793 0.148054 0.048560
Si Si4 0.926932 0.254364 0.709050
Si Si5 0.152062 0.031237 0.228131
O O1 0.365291 0.090667 0.184940
O O2 0.289535 0.021144 0.118797
O O3 0.216352 0.992893 0.480041
O O4 0.500000 0.000000 0.000000
O O5 0.239995 0.831423 0.754210
O O6 0.107985 0.905316 0.822020
O O7 0.000000 0.871626 0.250000
O O8 0.983984 0.804283 0.060846
O O9 0.467928 0.194156 0.044430
O O10 0.500000 0.137331 0.750000
O O11 0.000000 0.260482 0.750000
O O12 0.750000 0.250000 0.000000
O O13 0.000000 0.000000 0.500000
#
# Coordination Sequence:
#
# PCOD9277495 Si02
#       5
#     8   8   8   8   8
#     4  11  23  42  63  93 130 166 214 265 327 379
#     4  10  20  41  64  88 133 170 214 258 337 379
#     4  11  23  42  66  95 132 175 211 270 331 381
#     4  11  22  42  70  96 128 172 219 266 323 394
#     4  11  22  38  65  90 125 171 213 261 319 389
#
# _framework density 19.505866999999999
#
# number of rings (size 3 to 8) (size 9 to 14) (size 15 to 20)
#    0.000    1.200    4.000    6.000    0.000    2.400 
#    0.000    2.000    0.000    0.000    0.000    0.000 
#    0.000    0.000    0.000    0.000    0.000    0.000 
#
# Total GULP energy -111509.704726 kJ/mol
# GULP energy per Si atom -5575.485236 kJ/mol
# Density = 1.946147 g / cm^3
# Si number density = 19.505867 Si / 1000 Ang^3
#
#
#
# Elastic Constant Matrix: (Units=GPa)
#
#
# Indices 1 2 3 4 5 6 
#
# 1 63.8022 39.4347 8.4795 -0.0001 -19.0762 0.0001
# 2 39.4347 132.1609 27.8477 -0.0001 12.1360 0.0000
# 3 8.4795 27.8477 94.5659 -0.0006 -7.9860 0.0003
# 4 -0.0001 -0.0001 -0.0006 35.6698 0.0003 -7.9408
# 5 -19.0762 12.1360 -7.9860 0.0003 43.3871 -0.0001
# 6 0.0001 0.0000 0.0003 -7.9408 -0.0001 37.8232
#
#
#
# Elastic Compliance Matrix: (Units=1/GPa)
#
#
# Indices 1 2 3 4 5 6 
#
# 1 0.025317 -0.009180 0.001615 0.000000 0.013996 0.000000
# 2 -0.009180 0.011729 -0.003300 0.000000 -0.007924 0.000000
# 3 0.001615 -0.003300 0.011722 0.000000 0.003791 0.000000
# 4 0.000000 0.000000 0.000000 0.029409 0.000000 0.006174
# 5 0.013996 -0.007924 0.003791 0.000000 0.032116 0.000000
# 6 0.000000 0.000000 0.000000 0.006174 0.000000 0.027735
#
#
# Mechanical properties :
#
#
# Convention : Reuss Voigt Hill
#
# Bulk Modulus (GPa) = 36.98443 49.11698 43.05071
# Shear Modulus (GPa) = 29.62600 37.69385 33.65992
#
# Velocity S-wave (km/s) = 3.90144 4.40072 4.15858
# Velocity P-wave (km/s) = 6.26872 7.14542 6.72138
#
# Compressibility (1/GPa) = 0.02703841
#
# Stress axis : x y z
#
# Youngs Moduli (GPa) = 39.49852 85.26144 85.31199
#
# Poissons Ratio (x) = 0.78269 -0.13779
# Poissons Ratio (y) = 0.36259 0.28152
# Poissons Ratio (z) = -0.06379 0.28135
#
# Static dielectric constant tensor:
#      x y z
#    x 1.681370 0.000000 0.012420 
#    y 0.000000 1.920980 0.000000 
#    z 0.012420 0.000000 1.700790 
# 
# From -- ./inp_files/51649.got.cif
#   From: 2010.05.17/outbox.cif.g08.bks.cpg/sg15_26_cif.got.tgz:51649.got - 2010.06.03 18:47:42.
