data_PCOD9277505
_publ_section_title
;
Structure prediction by ZEFSAII (Michael W. Deem and Ramdas Pophale) SiO2 
 PCOD9277505
Probable space group: C 2/C
;
_chemical_formula_sum "Si O2"
_cell_formula_units_Z 60
_cell_length_a 18.532458
_cell_length_b 8.848652
_cell_length_c 13.057394
_cell_angle_alpha 90.000000
_cell_angle_beta 90.078469
_cell_angle_gamma 90.000000
_cell_volume 2141.244407
_symmetry_space_group_name_H-M "C 2/C"
_symmetry_group_IT_number 15
_symmetry_cell_setting 'monoclinic'
loop_
_space_group_symop_operation_xyz
x,y,z
-x,y,1/2-z
-x,-y,-z
x,-y,1/2+z
1/2+x,1/2+y,z
1/2-x,1/2+y,1/2-z
1/2-x,1/2-y,-z
1/2+x,1/2-y,1/2+z
loop_
_atom_site_type_symbol
_atom_site_label
_atom_site_fract_x
_atom_site_fract_y
_atom_site_fract_z
Si Si1 0.229032 0.262106 0.801354
Si Si2 0.554924 0.136671 0.520220
Si Si3 0.000000 0.660745 0.750000
Si Si4 0.651763 0.942715 0.268450
Si Si5 0.681446 0.516502 0.947585
Si Si6 0.836398 0.408780 0.943933
Si Si7 0.624884 0.609957 0.632666
Si Si8 0.469985 0.428826 0.104585
O O1 0.209530 0.437185 0.813014
O O2 0.216808 0.167547 0.903542
O O3 0.174234 0.178345 0.721004
O O4 0.306093 0.212812 0.754825
O O5 0.538233 0.207810 0.635972
O O6 0.548266 0.259281 0.430521
O O7 0.500000 0.000000 0.500000
O O8 0.630742 0.050315 0.497345
O O9 0.928741 0.590499 0.697425
O O10 0.636427 0.035276 0.165459
O O11 0.749891 0.403537 0.942889
O O12 0.607869 0.491168 0.880852
O O13 0.656015 0.526326 0.065148
O O14 0.872002 0.244793 0.954466
O O15 0.544166 0.578001 0.669548
O O16 0.500000 0.500000 0.000000
#
# Coordination Sequence:
#
# PCOD9277505 Si02
#       8
#     8   8   4   8   8   8   8   8
#     4  10  22  42  66  93 133 172 214 281 321 392
#     4  11  22  41  70  96 133 166 224 272 314 392
#     4  10  24  44  70 102 128 182 220 266 332 392
#     4   9  21  42  65  97 131 170 226 263 325 396
#     4  10  22  39  62  93 129 167 216 265 331 382
#     4   9  19  39  66  93 124 171 219 268 317 392
#     4  10  20  41  64  91 130 171 219 261 328 401
#     4  10  23  43  59  93 131 165 215 274 322 390
#
# _framework density 28.021090999999998
#
# number of rings (size 3 to 8) (size 9 to 14) (size 15 to 20)
#    0.000    2.133    1.333    0.400    1.867    2.133 
#   28.800    0.000    0.000    0.800    0.000    0.000 
#    0.000    0.000    0.000    0.000    0.000    0.000 
#
# Total GULP energy -167125.015662 kJ/mol
# GULP energy per Si atom -5570.833855 kJ/mol
# Density = 2.795731 g / cm^3
# Si number density = 28.021091 Si / 1000 Ang^3
#
#
#
# Elastic Constant Matrix: (Units=GPa)
#
#
# Indices 1 2 3 4 5 6 
#
# 1 231.7370 54.0553 13.9438 0.0000 -14.0625 0.0000
# 2 54.0553 90.1009 20.9270 0.0000 -11.8425 0.0000
# 3 13.9438 20.9270 67.5397 0.0000 -4.9901 0.0000
# 4 0.0000 0.0000 0.0000 29.0899 0.0000 8.3665
# 5 -14.0625 -11.8425 -4.9901 0.0000 53.2437 0.0000
# 6 0.0000 0.0000 0.0000 8.3665 0.0000 31.4686
#
#
#
# Elastic Compliance Matrix: (Units=1/GPa)
#
#
# Indices 1 2 3 4 5 6 
#
# 1 0.005042 -0.002916 -0.000088 0.000000 0.000675 0.000000
# 2 -0.002916 0.013939 -0.003570 0.000000 0.001996 0.000000
# 3 -0.000088 -0.003570 0.015981 0.000000 0.000681 0.000000
# 4 0.000000 0.000000 0.000000 0.037222 0.000000 -0.009896
# 5 0.000675 0.001996 0.000681 0.000000 0.019468 0.000000
# 6 0.000000 0.000000 0.000000 -0.009896 0.000000 0.034409
#
#
# Mechanical properties :
#
#
# Convention : Reuss Voigt Hill
#
# Bulk Modulus (GPa) = 45.83864 63.02554 54.43209
# Shear Modulus (GPa) = 34.13489 42.79053 38.46271
#
# Velocity S-wave (km/s) = 3.49404 3.91203 3.70893
# Velocity P-wave (km/s) = 5.71593 6.55334 6.14891
#
# Compressibility (1/GPa) = 0.02181565
#
# Stress axis : x y z
#
# Youngs Moduli (GPa) = 198.35147 71.73982 62.57616
#
# Poissons Ratio (x) = 0.20916 0.00548
# Poissons Ratio (y) = 0.57831 0.22338
# Poissons Ratio (z) = 0.01737 0.25609
#
# Static dielectric constant tensor:
#      x y z
#    x 2.303550 0.000000 0.130840 
#    y 0.000000 2.259480 0.000000 
#    z 0.130840 0.000000 2.376720 
# 
# From -- ./inp_files/209573.got.cif
#   From: 2010.05.17/outbox.cif.g08.bks.cpg/sg15_105_cif.got.tgz:209573.got - 2010.06.03 18:47:42.
