data_PCOD9277667
_publ_section_title
;
Structure prediction by ZEFSAII (Michael W. Deem and Ramdas Pophale) SiO2 
 PCOD9277667
Probable space group: C 2/C
;
_chemical_formula_sum "Si O2"
_cell_formula_units_Z 56
_cell_length_a 8.222418
_cell_length_b 24.330197
_cell_length_c 14.802636
_cell_angle_alpha 90.000000
_cell_angle_beta 71.123105
_cell_angle_gamma 90.000000
_cell_volume 2802.040963
_symmetry_space_group_name_H-M "C 2/C"
_symmetry_group_IT_number 15
_symmetry_cell_setting 'monoclinic'
loop_
_space_group_symop_operation_xyz
x,y,z
-x,y,1/2-z
-x,-y,-z
x,-y,1/2+z
1/2+x,1/2+y,z
1/2-x,1/2+y,1/2-z
1/2-x,1/2-y,-z
1/2+x,1/2-y,1/2+z
loop_
_atom_site_type_symbol
_atom_site_label
_atom_site_fract_x
_atom_site_fract_y
_atom_site_fract_z
Si Si1 0.850084 0.227030 0.201910
Si Si2 0.263560 0.910727 0.538351
Si Si3 0.148715 0.832266 0.294031
Si Si4 0.605312 0.295537 0.502088
Si Si5 0.330019 0.884717 0.726847
Si Si6 0.836160 0.439995 0.336481
Si Si7 0.057270 0.973725 0.836161
O O1 0.766921 0.286477 0.226226
O O2 0.715892 0.178965 0.249316
O O3 0.000000 0.222139 0.250000
O O4 0.935477 0.218792 0.088891
O O5 0.173571 0.853661 0.527041
O O6 0.352286 0.900084 0.618039
O O7 0.379600 0.928040 0.433075
O O8 0.112398 0.955086 0.581086
O O9 0.081421 0.803982 0.399256
O O10 0.260433 0.884545 0.305015
O O11 0.000000 0.847384 0.250000
O O12 0.750000 0.250000 0.500000
O O13 0.500000 0.899427 0.750000
O O14 0.167159 0.919304 0.792022
O O15 0.684373 0.484397 0.361033
O O16 0.000000 0.458607 0.250000
O O17 0.000000 0.998219 0.750000
#
# Coordination Sequence:
#
# PCOD9277667 Si02
#       7
#     8   8   8   8   8   8   8
#     4  12  20  39  65  89 122 164 208 253 308 358
#     4  10  21  40  64  91 120 168 206 247 310 366
#     4  11  25  41  58  91 129 163 203 251 310 371
#     4  11  21  37  66  91 122 165 208 246 305 371
#     4  11  21  38  63  96 122 153 207 268 303 355
#     4  11  24  42  62  89 126 166 204 251 309 373
#     4  10  20  41  67  89 119 162 207 256 306 361
#
# _framework density 19.985430999999998
#
# number of rings (size 3 to 8) (size 9 to 14) (size 15 to 20)
#    0.000    1.143    4.286    2.571    2.000    0.571 
#    2.571    7.857    0.000    0.000    0.000    0.000 
#    0.000    0.000    0.000    0.000    0.000    0.000 
#
# Total GULP energy -156501.351148 kJ/mol
# GULP energy per Si atom -5589.333970 kJ/mol
# Density = 1.993994 g / cm^3
# Si number density = 19.985431 Si / 1000 Ang^3
#
#
#
# Elastic Constant Matrix: (Units=GPa)
#
#
# Indices 1 2 3 4 5 6 
#
# 1 80.0515 -1.2125 44.6312 0.0000 15.9742 0.0000
# 2 -1.2125 69.5373 13.5558 0.0000 3.1795 0.0000
# 3 44.6312 13.5558 121.3304 0.0000 7.0072 0.0000
# 4 0.0000 0.0000 0.0000 9.9001 0.0000 -1.5725
# 5 15.9742 3.1795 7.0072 0.0000 22.1806 0.0000
# 6 0.0000 0.0000 0.0000 -1.5725 0.0000 7.2097
#
#
#
# Elastic Compliance Matrix: (Units=1/GPa)
#
#
# Indices 1 2 3 4 5 6 
#
# 1 0.018341 0.002077 -0.006314 0.000000 -0.011512 0.000000
# 2 0.002077 0.014993 -0.002270 0.000000 -0.002928 0.000000
# 3 -0.006314 -0.002270 0.010733 0.000000 0.001482 0.000000
# 4 0.000000 0.000000 0.000000 0.104634 0.000000 0.022822
# 5 -0.011512 -0.002928 0.001482 0.000000 0.053327 0.000000
# 6 0.000000 0.000000 0.000000 0.022822 0.000000 0.143679
#
#
# Mechanical properties :
#
#
# Convention : Reuss Voigt Hill
#
# Bulk Modulus (GPa) = 32.20314 42.76314 37.48314
# Shear Modulus (GPa) = 13.54749 22.12105 17.83427
#
# Velocity S-wave (km/s) = 2.60642 3.33056 2.99049
# Velocity P-wave (km/s) = 5.02057 6.01945 5.54256
#
# Compressibility (1/GPa) = 0.03105287
#
# Stress axis : x y z
#
# Youngs Moduli (GPa) = 54.52332 66.69598 93.17461
#
# Poissons Ratio (x) = -0.13853 0.58829
# Poissons Ratio (y) = -0.11325 0.21151
# Poissons Ratio (z) = 0.34425 0.15141
#
# Static dielectric constant tensor:
#      x y z
#    x 1.684200 0.000000 0.004950 
#    y 0.000000 1.699100 0.000000 
#    z 0.004950 0.000000 1.714440 
# 
# From -- ./inp_files/137274.got.cif
#   From: 2010.05.17/outbox.cif.g08.bks.cpg/sg15_69_cif.got.tgz:137274.got - 2010.06.03 18:47:42.
