data_PCOD9277081
_publ_section_title
;
Structure prediction by ZEFSAII (Michael W. Deem and Ramdas Pophale) SiO2 
 PCOD9277081
Probable space group: C 2/C
;
_chemical_formula_sum "Si O2"
_cell_formula_units_Z 44
_cell_length_a 13.301613
_cell_length_b 12.415417
_cell_length_c 11.780515
_cell_angle_alpha 90.000000
_cell_angle_beta 72.715148
_cell_angle_gamma 90.000000
_cell_volume 1857.634298
_symmetry_space_group_name_H-M "C 2/C"
_symmetry_group_IT_number 15
_symmetry_cell_setting 'monoclinic'
loop_
_space_group_symop_operation_xyz
x,y,z
-x,y,1/2-z
-x,-y,-z
x,-y,1/2+z
1/2+x,1/2+y,z
1/2-x,1/2+y,1/2-z
1/2-x,1/2-y,-z
1/2+x,1/2-y,1/2+z
loop_
_atom_site_type_symbol
_atom_site_label
_atom_site_fract_x
_atom_site_fract_y
_atom_site_fract_z
Si Si1 0.830007 0.195780 0.387626
Si Si2 0.500000 0.839219 0.250000
Si Si3 0.104963 0.454341 0.404092
Si Si4 0.941157 0.975431 0.397209
Si Si5 0.085443 0.730028 0.075117
Si Si6 0.845717 0.674927 0.199978
O O1 0.750000 0.250000 0.500000
O O2 0.769615 0.220814 0.289107
O O3 0.938103 0.261896 0.354473
O O4 0.862547 0.075104 0.407691
O O5 0.578616 0.915775 0.287679
O O6 0.133122 0.347888 0.463988
O O7 0.169622 0.561555 0.359948
O O8 0.000000 0.500000 0.500000
O O9 0.891527 0.856967 0.430975
O O10 0.000000 0.970736 0.250000
O O11 0.000000 0.000000 0.500000
O O12 0.128051 0.677026 0.176846
O O13 0.956039 0.724804 0.115664
#
# Coordination Sequence:
#
# PCOD9277081 Si02
#       6
#     8   4   8   8   8   8
#     4  12  27  46  73 109 147 199 260 326 392 480
#     4  12  24  44  70  98 142 188 246 306 386 460
#     4  10  20  40  68 101 136 191 240 309 381 456
#     4  12  25  48  79 112 159 212 263 330 411 470
#     4  10  21  43  75 102 153 199 257 327 392 473
#     4  10  21  42  67 102 144 194 247 313 390 459
#
# _framework density 23.686042
#
# number of rings (size 3 to 8) (size 9 to 14) (size 15 to 20)
#    0.000    1.091    2.727    6.545    0.000    1.455 
#    3.273    1.818    0.000    0.000    0.000    0.000 
#    0.000    0.000    0.000    0.000    0.000    0.000 
#
# Total GULP energy -122611.511081 kJ/mol
# GULP energy per Si atom -5573.250504 kJ/mol
# Density = 2.363213 g / cm^3
# Si number density = 23.686042 Si / 1000 Ang^3
#
#
#
# Elastic Constant Matrix: (Units=GPa)
#
#
# Indices 1 2 3 4 5 6 
#
# 1 90.2225 19.3483 13.1890 0.0000 20.3646 0.0000
# 2 19.3483 129.2692 31.1338 0.0000 -16.6467 0.0000
# 3 13.1890 31.1338 103.4958 0.0000 17.1602 0.0000
# 4 0.0000 0.0000 0.0000 42.4255 0.0000 0.5615
# 5 20.3646 -16.6467 17.1602 0.0000 31.7475 0.0000
# 6 0.0000 0.0000 0.0000 0.5615 0.0000 22.4940
#
#
#
# Elastic Compliance Matrix: (Units=1/GPa)
#
#
# Indices 1 2 3 4 5 6 
#
# 1 0.014509 -0.004081 0.001402 0.000000 -0.012204 0.000000
# 2 -0.004081 0.010815 -0.004512 0.000000 0.010727 0.000000
# 3 0.001402 -0.004512 0.012503 0.000000 -0.010023 0.000000
# 4 0.000000 0.000000 0.000000 0.023579 0.000000 -0.000589
# 5 -0.012204 0.010727 -0.010023 0.000000 0.050369 0.000000
# 6 0.000000 0.000000 0.000000 -0.000589 0.000000 0.044471
#
#
# Mechanical properties :
#
#
# Convention : Reuss Voigt Hill
#
# Bulk Modulus (GPa) = 42.65307 50.03661 46.34484
# Shear Modulus (GPa) = 28.02048 36.62116 32.32082
#
# Velocity S-wave (km/s) = 3.44320 3.93632 3.69799
# Velocity P-wave (km/s) = 5.81844 6.46764 6.15161
#
# Compressibility (1/GPa) = 0.02344497
#
# Stress axis : x y z
#
# Youngs Moduli (GPa) = 68.92474 92.46728 79.98271
#
# Poissons Ratio (x) = 0.37735 -0.11216
# Poissons Ratio (y) = 0.28128 0.36087
# Poissons Ratio (z) = -0.09665 0.41720
#
# Static dielectric constant tensor:
#      x y z
#    x 1.901320 0.000000 0.050920 
#    y 0.000000 1.865900 0.000000 
#    z 0.050920 0.000000 1.979090 
# 
# From -- ./inp_files/94969.got.cif
#   From: 2010.05.17/outbox.cif.g08.bks.cpg/sg15_48_cif.got.tgz:94969.got - 2010.06.03 18:47:42.
