data_PCOD9277009
_publ_section_title
;
Structure prediction by ZEFSAII (Michael W. Deem and Ramdas Pophale) SiO2 
 PCOD9277009
Probable space group: C 2/C
;
_chemical_formula_sum "Si O2"
_cell_formula_units_Z 40
_cell_length_a 8.187810
_cell_length_b 20.461977
_cell_length_c 10.437612
_cell_angle_alpha 90.000000
_cell_angle_beta 82.882013
_cell_angle_gamma 90.000000
_cell_volume 1735.227663
_symmetry_space_group_name_H-M "C 2/C"
_symmetry_group_IT_number 15
_symmetry_cell_setting 'monoclinic'
loop_
_space_group_symop_operation_xyz
x,y,z
-x,y,1/2-z
-x,-y,-z
x,-y,1/2+z
1/2+x,1/2+y,z
1/2-x,1/2+y,1/2-z
1/2-x,1/2-y,-z
1/2+x,1/2-y,1/2+z
loop_
_atom_site_type_symbol
_atom_site_label
_atom_site_fract_x
_atom_site_fract_y
_atom_site_fract_z
Si Si1 0.551235 0.304649 0.607764
Si Si2 0.890685 0.940845 0.960756
Si Si3 0.688801 0.381700 0.270072
Si Si4 0.607374 0.988615 0.363254
Si Si5 0.605069 0.237245 0.355130
O O1 0.500000 0.278846 0.750000
O O2 0.499489 0.379322 0.592687
O O3 0.503705 0.262922 0.488239
O O4 0.750039 0.305765 0.600374
O O5 0.769148 0.966605 0.863693
O O6 0.788376 0.914468 0.093220
O O7 0.000000 0.000000 0.000000
O O8 0.500000 0.397663 0.250000
O O9 0.819343 0.415191 0.163550
O O10 0.686479 0.303670 0.288217
O O11 0.500000 0.005069 0.250000
O O12 0.500000 0.000000 0.500000
O O13 0.500000 0.207566 0.250000
#
# Coordination Sequence:
#
# PCOD9277009 Si02
#       5
#     8   8   8   8   8
#     4  10  23  40  66  99 126 169 222 277 319 388
#     4  11  23  40  65  92 132 174 218 267 326 406
#     4  10  20  40  67  89 124 183 219 260 326 407
#     4  12  25  39  59  99 134 167 215 276 341 387
#     4   9  21  44  65  93 131 170 222 270 333 386
#
# _framework density 23.051731
#
# number of rings (size 3 to 8) (size 9 to 14) (size 15 to 20)
#    0.000    1.600    4.000    0.000    2.800    2.400 
#    3.600    0.000    0.000    0.000    0.000    0.000 
#    0.000    0.000    0.000    0.000    0.000    0.000 
#
# Total GULP energy -111717.303685 kJ/mol
# GULP energy per Si atom -5585.865184 kJ/mol
# Density = 2.299926 g / cm^3
# Si number density = 23.051731 Si / 1000 Ang^3
#
#
#
# Elastic Constant Matrix: (Units=GPa)
#
#
# Indices 1 2 3 4 5 6 
#
# 1 63.6358 12.9595 37.6847 0.0000 23.9751 0.0000
# 2 12.9595 39.8792 8.1364 0.0000 2.1135 0.0000
# 3 37.6847 8.1364 144.6196 0.0000 11.8903 0.0000
# 4 0.0000 0.0000 0.0000 9.6373 0.0000 20.1611
# 5 23.9751 2.1135 11.8903 0.0000 55.8942 0.0000
# 6 0.0000 0.0000 0.0000 20.1611 0.0000 16.9248
#
#
#
# Elastic Compliance Matrix: (Units=1/GPa)
#
#
# Indices 1 2 3 4 5 6 
#
# 1 0.023153 -0.006049 -0.004982 0.000000 -0.008643 0.000000
# 2 -0.006049 0.026972 -0.000072 0.000000 0.001590 0.000000
# 3 -0.004982 -0.000072 0.008184 0.000000 0.000399 0.000000
# 4 0.000000 0.000000 0.000000 -0.069545 0.000000 0.082844
# 5 -0.008643 0.001590 0.000399 0.000000 0.021453 0.000000
# 6 0.000000 0.000000 0.000000 0.082844 0.000000 -0.039600
#
#
# Mechanical properties :
#
#
# Convention : Reuss Voigt Hill
#
# Bulk Modulus (GPa) = 27.69924 40.63286 34.16605
# Shear Modulus (GPa) = 1029.32966 29.11485 529.22225
#
# Velocity S-wave (km/s) = 21.15419 3.55776 15.16834
# Velocity P-wave (km/s) = 24.67202 5.87724 17.93391
#
# Compressibility (1/GPa) = 0.03610207
#
# Stress axis : x y z
#
# Youngs Moduli (GPa) = 43.19096 37.07551 122.18646
#
# Poissons Ratio (x) = 0.22429 0.60876
# Poissons Ratio (y) = 0.26128 0.00878
# Poissons Ratio (z) = 0.21519 0.00266
#
# Static dielectric constant tensor:
#      x y z
#    x 1.898520 0.000000 -0.032020 
#    y 0.000000 1.869140 0.000000 
#    z -0.032020 0.000000 1.882270 
# 
# From -- ./inp_files/23642.got.cif
#   From: 2010.05.17/outbox.cif.g08.bks.cpg/sg15_12_cif.got.tgz:23642.got - 2010.06.03 18:47:42.
