data_PCOD9277855
_publ_section_title
;
Structure prediction by ZEFSAII (Michael W. Deem and Ramdas Pophale) SiO2 
 PCOD9277855
Probable space group: C 2/C
;
_chemical_formula_sum "Si O2"
_cell_formula_units_Z 20
_cell_length_a 11.318431
_cell_length_b 13.557938
_cell_length_c 10.196572
_cell_angle_alpha 90.000000
_cell_angle_beta 27.053558
_cell_angle_gamma 90.000000
_cell_volume 711.666714
_symmetry_space_group_name_H-M "C 2/C"
_symmetry_group_IT_number 15
_symmetry_cell_setting 'monoclinic'
loop_
_space_group_symop_operation_xyz
x,y,z
-x,y,1/2-z
-x,-y,-z
x,-y,1/2+z
1/2+x,1/2+y,z
1/2-x,1/2+y,1/2-z
1/2-x,1/2-y,-z
1/2+x,1/2-y,1/2+z
loop_
_atom_site_type_symbol
_atom_site_label
_atom_site_fract_x
_atom_site_fract_y
_atom_site_fract_z
Si Si1 0.191701 0.489048 0.933881
Si Si2 0.202318 0.207154 0.693233
Si Si3 0.500000 0.678619 0.250000
O O1 0.000000 0.483251 0.250000
O O2 0.343102 0.592707 0.780178
O O3 0.401787 0.401677 0.737645
O O4 0.000000 0.500000 0.000000
O O5 0.250000 0.250000 0.500000
O O6 0.479551 0.230676 0.482943
O O7 0.250000 0.750000 0.500000
#
# Coordination Sequence:
#
# PCOD9277855 Si02
#       3
#     8   8   4
#     4  12  28  51  83 120 167 216 281 340 419 497
#     4  10  20  41  73 108 146 190 261 326 391 460
#     4  12  28  56  78 120 174 226 272 342 428 498
#
# _framework density 28.103041000000001
#
# number of rings (size 3 to 8) (size 9 to 14) (size 15 to 20)
#    0.000    0.800    6.000    2.400    0.000    4.800 
#    0.000    0.000    0.000    0.000    0.000    0.000 
#    0.000    0.000    0.000    0.000    0.000    0.000 
#
# Total GULP energy -56000.682645 kJ/mol
# GULP energy per Si atom -5600.068264 kJ/mol
# Density = 2.803908 g / cm^3
# Si number density = 28.103041 Si / 1000 Ang^3
#
#
#
# Elastic Constant Matrix: (Units=GPa)
#
#
# Indices 1 2 3 4 5 6 
#
# 1 215.2007 51.9530 57.8056 -0.0102 -16.9957 0.0047
# 2 51.9530 307.8354 60.1869 -0.0117 -35.1708 0.0094
# 3 57.8056 60.1869 175.8615 -0.0202 -33.4425 0.0138
# 4 -0.0102 -0.0117 -0.0202 55.5632 0.0101 -25.2791
# 5 -16.9957 -35.1708 -33.4425 0.0101 75.5862 -0.0061
# 6 0.0047 0.0094 0.0138 -25.2791 -0.0061 45.1714
#
#
#
# Elastic Compliance Matrix: (Units=1/GPa)
#
#
# Indices 1 2 3 4 5 6 
#
# 1 0.005197 -0.000561 -0.001467 0.000000 0.000258 0.000000
# 2 -0.000561 0.003643 -0.000834 0.000000 0.001200 0.000000
# 3 -0.001467 -0.000834 0.006898 0.000001 0.002334 -0.000001
# 4 0.000000 0.000000 0.000001 0.024145 -0.000001 0.013512
# 5 0.000258 0.001200 0.002334 -0.000001 0.014879 0.000000
# 6 0.000000 0.000000 -0.000001 0.013512 0.000000 0.029700
#
#
# Mechanical properties :
#
#
# Convention : Reuss Voigt Hill
#
# Bulk Modulus (GPa) = 99.86447 115.42097 107.64272
# Shear Modulus (GPa) = 53.46227 70.52764 61.99495
#
# Velocity S-wave (km/s) = 4.36634 5.01503 4.70189
# Velocity P-wave (km/s) = 7.81231 8.64256 8.23790
#
# Compressibility (1/GPa) = 0.01001357
#
# Stress axis : x y z
#
# Youngs Moduli (GPa) = 192.43068 274.47205 144.97167
#
# Poissons Ratio (x) = 0.15389 0.21269
# Poissons Ratio (y) = 0.10789 0.12097
# Poissons Ratio (z) = 0.28232 0.22902
#
# Static dielectric constant tensor:
#      x y z
#    x 1.821980 -0.000020 0.423580 
#    y -0.000020 2.098670 0.000020 
#    z 0.423580 0.000020 1.834560 
# 
# From -- ./inp_files/85274.got.cif
#   From: 2010.05.17/outbox.cif.g08.bks.cpg/sg15_43_cif.got.tgz:85274.got - 2010.06.03 18:47:42.
