data_PCOD9277047
_publ_section_title
;
Structure prediction by ZEFSAII (Michael W. Deem and Ramdas Pophale) SiO2 
 PCOD9277047
Probable space group: C 2/C
;
_chemical_formula_sum "Si O2"
_cell_formula_units_Z 40
_cell_length_a 26.971036
_cell_length_b 9.717677
_cell_length_c 17.495848
_cell_angle_alpha 90.000000
_cell_angle_beta 23.248807
_cell_angle_gamma 90.000000
_cell_volume 1810.045186
_symmetry_space_group_name_H-M "C 2/C"
_symmetry_group_IT_number 15
_symmetry_cell_setting 'monoclinic'
loop_
_space_group_symop_operation_xyz
x,y,z
-x,y,1/2-z
-x,-y,-z
x,-y,1/2+z
1/2+x,1/2+y,z
1/2-x,1/2+y,1/2-z
1/2-x,1/2-y,-z
1/2+x,1/2-y,1/2+z
loop_
_atom_site_type_symbol
_atom_site_label
_atom_site_fract_x
_atom_site_fract_y
_atom_site_fract_z
Si Si1 0.261746 0.802100 0.160029
Si Si2 0.349316 0.638633 0.828099
Si Si3 0.176538 0.391835 0.115270
Si Si4 0.500000 0.460837 0.250000
Si Si5 0.500000 0.033882 0.250000
Si Si6 0.750158 0.528857 0.831224
O O1 0.142235 0.835074 0.273794
O O2 0.254921 0.636156 0.176374
O O3 0.259981 0.879295 0.242785
O O4 0.384979 0.870409 0.944001
O O5 0.461216 0.628230 0.730172
O O6 0.250000 0.750000 0.000000
O O7 0.279866 0.496185 0.936449
O O8 0.054044 0.434279 0.240109
O O9 0.155278 0.428867 0.234779
O O10 0.250000 0.250000 0.000000
O O11 0.385271 0.553586 0.438653
#
# Coordination Sequence:
#
# PCOD9277047 Si02
#       6
#     8   8   8   4   4   8
#     4  11  24  43  66 102 135 173 232 278 334 405
#     4  10  20  40  67  95 124 175 229 270 323 408
#     4  10  23  42  68 101 136 173 229 277 332 406
#     4  10  21  43  70  90 129 183 216 276 341 383
#     4  10  25  45  78  90 135 195 214 276 357 391
#     4  11  25  42  67 101 138 173 229 283 328 407
#
# _framework density 22.098896
#
# number of rings (size 3 to 8) (size 9 to 14) (size 15 to 20)
#    0.000    1.600    4.000    0.600    8.400    4.800 
#    0.000    0.000    0.000    0.000    0.000    0.000 
#    0.000    0.000    0.000    0.000    0.000    0.000 
#
# Total GULP energy -111457.318314 kJ/mol
# GULP energy per Si atom -5572.865916 kJ/mol
# Density = 2.204860 g / cm^3
# Si number density = 22.098896 Si / 1000 Ang^3
#
#
#
# Elastic Constant Matrix: (Units=GPa)
#
#
# Indices 1 2 3 4 5 6 
#
# 1 252.6976 65.4626 38.7241 0.0001 4.7512 0.0000
# 2 65.4626 169.7027 13.0493 0.0002 8.3352 0.0000
# 3 38.7241 13.0493 35.1657 0.0001 7.9343 0.0000
# 4 0.0001 0.0002 0.0001 -81.8951 0.0000 17.0679
# 5 4.7512 8.3352 7.9343 0.0000 40.6026 0.0000
# 6 0.0000 0.0000 0.0000 17.0679 0.0000 36.0270
#
#
#
# Elastic Compliance Matrix: (Units=1/GPa)
#
#
# Indices 1 2 3 4 5 6 
#
# 1 0.005171 -0.001627 -0.005261 0.000000 0.000757 0.000000
# 2 -0.001627 0.006606 -0.000415 0.000000 -0.001085 0.000000
# 3 -0.005261 -0.000415 0.035804 0.000000 -0.006296 0.000000
# 4 0.000000 0.000000 0.000000 -0.011113 0.000000 0.005265
# 5 0.000757 -0.001085 -0.006296 0.000000 0.025993 0.000000
# 6 0.000000 0.000000 0.000000 0.005265 0.000000 0.025263
#
#
# Mechanical properties :
#
#
# Convention : Reuss Voigt Hill
#
# Bulk Modulus (GPa) = 30.32581 76.89312 53.60947
# Shear Modulus (GPa) = 44.12252 21.63556 32.87904
#
# Velocity S-wave (km/s) = 4.47317 3.13235 3.86140
# Velocity P-wave (km/s) = 6.35859 6.92479 6.64772
#
# Compressibility (1/GPa) = 0.03297521
#
# Stress axis : x y z
#
# Youngs Moduli (GPa) = 193.39254 151.38842 27.92945
#
# Poissons Ratio (x) = 0.24635 0.14694
# Poissons Ratio (y) = 0.31470 0.01158
# Poissons Ratio (z) = 1.01744 0.06276
#
# Static dielectric constant tensor:
#      x y z
#    x 1.955800 0.000000 -0.040800 
#    y 0.000000 1.774280 0.000000 
#    z -0.040800 0.000000 1.823260 
# 
# From -- ./inp_files/221816.got.cif
#   From: 2010.05.17/outbox.cif.g08.bks.cpg/sg15_111_cif.got.tgz:221816.got - 2010.06.03 18:47:42.
