data_PCOD9277767
_publ_section_title
;
Structure prediction by ZEFSAII (Michael W. Deem and Ramdas Pophale) SiO2 
 PCOD9277767
Probable space group: C 2/C
;
_chemical_formula_sum "Si O2"
_cell_formula_units_Z 52
_cell_length_a 18.182250
_cell_length_b 17.960163
_cell_length_c 13.671957
_cell_angle_alpha 90.000000
_cell_angle_beta 29.364194
_cell_angle_gamma 90.000000
_cell_volume 2189.288105
_symmetry_space_group_name_H-M "C 2/C"
_symmetry_group_IT_number 15
_symmetry_cell_setting 'monoclinic'
loop_
_space_group_symop_operation_xyz
x,y,z
-x,y,1/2-z
-x,-y,-z
x,-y,1/2+z
1/2+x,1/2+y,z
1/2-x,1/2+y,1/2-z
1/2-x,1/2-y,-z
1/2+x,1/2-y,1/2+z
loop_
_atom_site_type_symbol
_atom_site_label
_atom_site_fract_x
_atom_site_fract_y
_atom_site_fract_z
Si Si1 0.762599 0.522251 0.231820
Si Si2 0.545358 0.270137 0.497069
Si Si3 0.409430 0.942009 0.231131
Si Si4 0.000000 0.575442 0.250000
Si Si5 0.500000 0.807553 0.250000
Si Si6 0.200941 0.892794 0.187093
Si Si7 0.500000 0.329067 0.250000
Si Si8 0.200887 0.182284 0.352191
O O1 0.804097 0.458388 0.261852
O O2 0.677672 0.478269 0.245824
O O3 0.682682 0.593500 0.369210
O O4 0.918788 0.554174 0.006880
O O5 0.553389 0.246224 0.600540
O O6 0.639230 0.339409 0.344707
O O7 0.625959 0.202777 0.346237
O O8 0.377639 0.284263 0.653325
O O9 0.393431 0.867812 0.315314
O O10 0.398550 0.017973 0.305565
O O11 0.878819 0.615932 0.458151
O O12 0.109214 0.872843 0.196503
O O13 0.387873 0.286828 0.452294
#
# Coordination Sequence:
#
# PCOD9277767 Si02
#       8
#     8   8   8   4   4   8   4   8
#     4  10  20  41  69 104 142 178 245 295 359 407
#     4  11  27  43  69  99 151 191 232 293 365 431
#     4   9  19  36  72 105 132 184 232 318 328 421
#     4   9  18  37  68 106 132 174 254 286 365 391
#     4  11  22  46  67 109 143 192 248 276 365 442
#     4  10  23  42  68 106 138 187 230 306 351 431
#     4  10  24  43  65  93 139 186 232 288 362 417
#     4  11  25  47  67 102 144 189 235 305 352 443
#
# _framework density 23.752013000000002
#
# number of rings (size 3 to 8) (size 9 to 14) (size 15 to 20)
#    0.000    1.846    1.538    0.923    2.154    8.615 
#    0.000    1.538    0.000    0.923    0.000    0.000 
#    0.000    0.000    0.000    0.000    0.000    0.000 
#
# Total GULP energy -145075.458072 kJ/mol
# GULP energy per Si atom -5579.825310 kJ/mol
# Density = 2.369795 g / cm^3
# Si number density = 23.752013 Si / 1000 Ang^3
#
#
#
# Elastic Constant Matrix: (Units=GPa)
#
#
# Indices 1 2 3 4 5 6 
#
# 1 108.7979 44.7523 36.3932 0.0006 18.9775 -0.0003
# 2 44.7523 118.6178 31.0554 0.0004 4.3039 -0.0002
# 3 36.3932 31.0554 93.0105 -0.0004 19.9247 0.0003
# 4 0.0006 0.0004 -0.0004 28.0414 -0.0005 7.4204
# 5 18.9775 4.3039 19.9247 -0.0005 28.5208 0.0000
# 6 -0.0003 -0.0002 0.0003 7.4204 0.0000 24.2606
#
#
#
# Elastic Compliance Matrix: (Units=1/GPa)
#
#
# Indices 1 2 3 4 5 6 
#
# 1 0.012674 -0.003952 -0.002306 0.000000 -0.006226 0.000000
# 2 -0.003952 0.010490 -0.002564 0.000000 0.002838 0.000000
# 3 -0.002306 -0.002564 0.014227 0.000000 -0.008018 0.000000
# 4 0.000000 0.000000 0.000000 0.038802 0.000001 -0.011868
# 5 -0.006226 0.002838 -0.008018 0.000001 0.044378 0.000000
# 6 0.000000 0.000000 0.000000 -0.011868 0.000000 0.044849
#
#
# Mechanical properties :
#
#
# Convention : Reuss Voigt Hill
#
# Bulk Modulus (GPa) = 50.63928 60.53643 55.58785
# Shear Modulus (GPa) = 26.36470 30.04626 28.20548
#
# Velocity S-wave (km/s) = 3.33528 3.56054 3.44975
# Velocity P-wave (km/s) = 6.01651 6.51502 6.27072
#
# Compressibility (1/GPa) = 0.01974752
#
# Stress axis : x y z
#
# Youngs Moduli (GPa) = 78.89934 95.33034 70.28668
#
# Poissons Ratio (x) = 0.37676 0.16207
# Poissons Ratio (y) = 0.31183 0.18022
# Poissons Ratio (z) = 0.18193 0.24443
#
# Static dielectric constant tensor:
#      x y z
#    x 1.938930 0.000000 0.024370 
#    y 0.000000 1.954750 0.000000 
#    z 0.024370 0.000000 1.952820 
# 
# From -- ./inp_files/168999.got.cif
#   From: 2010.05.17/outbox.cif.g08.bks.cpg/sg15_85_cif.got.tgz:168999.got - 2010.06.03 18:47:42.
