data_PCOD9277294
_publ_section_title
;
Structure prediction by ZEFSAII (Michael W. Deem and Ramdas Pophale) SiO2 
 PCOD9277294
Probable space group: C 2/C
;
_chemical_formula_sum "Si O2"
_cell_formula_units_Z 60
_cell_length_a 5.631210
_cell_length_b 17.304492
_cell_length_c 28.944603
_cell_angle_alpha 90.000000
_cell_angle_beta 77.537069
_cell_angle_gamma 90.000000
_cell_volume 2754.050403
_symmetry_space_group_name_H-M "C 2/C"
_symmetry_group_IT_number 15
_symmetry_cell_setting 'monoclinic'
loop_
_space_group_symop_operation_xyz
x,y,z
-x,y,1/2-z
-x,-y,-z
x,-y,1/2+z
1/2+x,1/2+y,z
1/2-x,1/2+y,1/2-z
1/2-x,1/2-y,-z
1/2+x,1/2-y,1/2+z
loop_
_atom_site_type_symbol
_atom_site_label
_atom_site_fract_x
_atom_site_fract_y
_atom_site_fract_z
Si Si1 0.905286 0.115816 0.912948
Si Si2 0.321075 0.910997 0.927778
Si Si3 0.642442 0.774781 0.884122
Si Si4 0.326144 0.641524 0.297294
Si Si5 0.373178 0.687180 0.461791
Si Si6 0.000000 0.469628 0.750000
Si Si7 0.647642 0.925617 0.034670
Si Si8 0.618934 0.512887 0.341436
O O1 0.624535 0.102188 0.939683
O O2 0.958422 0.204854 0.898504
O O3 0.122447 0.098769 0.941521
O O4 0.961375 0.058633 0.867452
O O5 0.539700 0.858788 0.901596
O O6 0.229538 0.950748 0.883837
O O7 0.140879 0.846383 0.956401
O O8 0.347586 0.982107 0.961395
O O9 0.725607 0.785757 0.828879
O O10 0.857444 0.772323 0.912598
O O11 0.500000 0.670101 0.250000
O O12 0.133577 0.586889 0.280232
O O13 0.469654 0.583113 0.325030
O O14 0.250000 0.750000 0.500000
O O15 0.218334 0.611242 0.482642
O O16 0.807998 0.511686 0.792521
#
# Coordination Sequence:
#
# PCOD9277294 Si02
#       8
#     8   8   8   8   8   4   8   8
#     4  11  26  44  70  99 145 182 223 288 350 418
#     4  11  24  41  71  97 136 186 243 286 346 412
#     4  12  24  42  70  99 140 187 228 291 360 420
#     4  10  21  40  70  99 130 172 231 286 349 427
#     4  12  25  43  66 102 143 190 235 293 353 417
#     4  10  20  40  72 100 126 168 226 296 344 420
#     4  11  26  46  67 101 138 188 241 287 335 413
#     4  10  21  42  69  99 130 175 232 279 350 412
#
# _framework density 21.786093999999999
#
# number of rings (size 3 to 8) (size 9 to 14) (size 15 to 20)
#    0.000    1.067    4.000    2.000    5.600    1.600 
#    1.200    0.000    4.400    0.000    0.000    0.000 
#    0.000    0.000    0.000    0.000    0.000    0.000 
#
# Total GULP energy -167322.133675 kJ/mol
# GULP energy per Si atom -5577.404456 kJ/mol
# Density = 2.173651 g / cm^3
# Si number density = 21.786094 Si / 1000 Ang^3
#
#
#
# Elastic Constant Matrix: (Units=GPa)
#
#
# Indices 1 2 3 4 5 6 
#
# 1 71.3806 4.7947 23.7149 0.0000 -15.5298 0.0000
# 2 4.7947 61.2674 6.4307 0.0000 2.0244 0.0000
# 3 23.7149 6.4307 93.9973 0.0000 -12.2338 0.0000
# 4 0.0000 0.0000 0.0000 37.7640 0.0000 -13.0565
# 5 -15.5298 2.0244 -12.2338 0.0000 38.0524 0.0000
# 6 0.0000 0.0000 0.0000 -13.0565 0.0000 33.6372
#
#
#
# Elastic Compliance Matrix: (Units=1/GPa)
#
#
# Indices 1 2 3 4 5 6 
#
# 1 0.016429 -0.001125 -0.003327 0.000000 0.005695 0.000000
# 2 -0.001125 0.016578 -0.001070 0.000000 -0.001685 0.000000
# 3 -0.003327 -0.001070 0.011879 0.000000 0.002518 0.000000
# 4 0.000000 0.000000 0.000000 0.030585 0.000000 0.011872
# 5 0.005695 -0.001685 0.002518 0.000000 0.029503 0.000000
# 6 0.000000 0.000000 0.000000 0.011872 0.000000 0.034337
#
#
# Mechanical properties :
#
#
# Convention : Reuss Voigt Hill
#
# Bulk Modulus (GPa) = 29.54768 32.94732 31.24750
# Shear Modulus (GPa) = 30.93397 34.67106 32.80252
#
# Velocity S-wave (km/s) = 3.77224 3.99360 3.88450
# Velocity P-wave (km/s) = 5.70659 6.03499 5.87308
#
# Compressibility (1/GPa) = 0.03384361
#
# Stress axis : x y z
#
# Youngs Moduli (GPa) = 60.86678 60.32139 84.18312
#
# Poissons Ratio (x) = 0.06785 0.28006
# Poissons Ratio (y) = 0.06846 0.09005
# Poissons Ratio (z) = 0.20249 0.06452
#
# Static dielectric constant tensor:
#      x y z
#    x 1.542020 0.000000 -0.437340 
#    y 0.000000 1.783150 0.000000 
#    z -0.437340 0.000000 1.277280 
# 
# From -- ./inp_files/305789.got.cif
#   From: 2010.05.17/outbox.cif.g08.bks.cpg/sg15_153_cif.got.tgz:305789.got - 2010.06.03 18:47:42.
