data_PCOD9277543
_publ_section_title
;
Structure prediction by ZEFSAII (Michael W. Deem and Ramdas Pophale) SiO2 
 PCOD9277543
Probable space group: C 2/C
;
_chemical_formula_sum "Si O2"
_cell_formula_units_Z 56
_cell_length_a 9.710754
_cell_length_b 11.851823
_cell_length_c 24.567122
_cell_angle_alpha 90.000000
_cell_angle_beta 127.261935
_cell_angle_gamma 90.000000
_cell_volume 2250.286141
_symmetry_space_group_name_H-M "C 2/C"
_symmetry_group_IT_number 15
_symmetry_cell_setting 'monoclinic'
loop_
_space_group_symop_operation_xyz
x,y,z
-x,y,1/2-z
-x,-y,-z
x,-y,1/2+z
1/2+x,1/2+y,z
1/2-x,1/2+y,1/2-z
1/2-x,1/2-y,-z
1/2+x,1/2-y,1/2+z
loop_
_atom_site_type_symbol
_atom_site_label
_atom_site_fract_x
_atom_site_fract_y
_atom_site_fract_z
Si Si1 0.157638 0.088639 0.544480
Si Si2 0.170908 0.693780 0.117980
Si Si3 0.698911 0.342889 0.224437
Si Si4 0.377247 0.578459 0.079120
Si Si5 0.835542 0.650493 0.985643
Si Si6 0.810089 0.209725 0.657548
Si Si7 0.284006 0.963262 0.665915
O O1 0.116324 0.188722 0.575935
O O2 0.188502 0.135516 0.492310
O O3 0.305841 0.022875 0.612632
O O4 0.000000 0.000000 0.500000
O O5 0.212087 0.731213 0.189141
O O6 0.328383 0.641518 0.122543
O O7 0.008292 0.618433 0.060082
O O8 0.758348 0.331431 0.300668
O O9 0.488154 0.353828 0.181763
O O10 0.801523 0.443758 0.218087
O O11 0.281054 0.459312 0.049233
O O12 0.581267 0.565194 0.125012
O O13 0.834286 0.698693 0.923743
O O14 0.750000 0.750000 0.000000
O O15 0.864600 0.340175 0.679523
#
# Coordination Sequence:
#
# PCOD9277543 Si02
#       7
#     8   8   8   8   8   8   8
#     4   9  18  34  57  85 118 163 203 242 308 377
#     4  11  22  37  59  92 132 156 209 268 314 371
#     4  10  23  43  63  93 120 166 215 257 309 383
#     4  11  21  35  59  96 127 165 201 267 325 360
#     4  12  20  37  61  91 119 163 216 251 306 386
#     4  11  22  40  69  88 121 167 215 256 311 378
#     4  10  20  41  65  88 120 172 214 249 315 385
#
# _framework density 24.885722999999999
#
# number of rings (size 3 to 8) (size 9 to 14) (size 15 to 20)
#    0.000    1.429    2.857    5.143    0.000    1.143 
#    0.000    0.000   12.571    0.000    0.000    0.000 
#    0.000    0.000    0.000    0.000    0.000    0.000 
#
# Total GULP energy -156289.542954 kJ/mol
# GULP energy per Si atom -5581.769391 kJ/mol
# Density = 2.482908 g / cm^3
# Si number density = 24.885723 Si / 1000 Ang^3
#
#
#
# Elastic Constant Matrix: (Units=GPa)
#
#
# Indices 1 2 3 4 5 6 
#
# 1 60.8305 11.5155 31.3968 0.0000 -19.2900 0.0000
# 2 11.5155 75.8739 0.0839 0.0000 -4.2796 0.0000
# 3 31.3968 0.0839 115.1271 0.0000 -38.9962 0.0000
# 4 0.0000 0.0000 0.0000 16.5033 0.0000 -12.6708
# 5 -19.2900 -4.2796 -38.9962 0.0000 42.1428 0.0000
# 6 0.0000 0.0000 0.0000 -12.6708 0.0000 37.8250
#
#
#
# Elastic Compliance Matrix: (Units=1/GPa)
#
#
# Indices 1 2 3 4 5 6 
#
# 1 0.020708 -0.002813 -0.003687 0.000000 0.005781 0.000000
# 2 -0.002813 0.013671 0.001152 0.000000 0.001167 0.000000
# 3 -0.003687 0.001152 0.013340 0.000000 0.010773 0.000000
# 4 0.000000 0.000000 0.000000 0.081574 0.000000 0.027326
# 5 0.005781 0.001167 0.010773 0.000000 0.036462 0.000000
# 6 0.000000 0.000000 0.000000 0.027326 0.000000 0.035591
#
#
# Mechanical properties :
#
#
# Convention : Reuss Voigt Hill
#
# Bulk Modulus (GPa) = 27.00917 37.53597 32.27257
# Shear Modulus (GPa) = 22.28330 33.21657 27.74994
#
# Velocity S-wave (km/s) = 2.99561 3.65741 3.34293
# Velocity P-wave (km/s) = 4.77931 5.74035 5.28173
#
# Compressibility (1/GPa) = 0.03702447
#
# Stress axis : x y z
#
# Youngs Moduli (GPa) = 48.29077 73.14636 74.96334
#
# Poissons Ratio (x) = 0.20574 0.27639
# Poissons Ratio (y) = 0.13583 -0.08640
# Poissons Ratio (z) = 0.17805 -0.08430
#
# Static dielectric constant tensor:
#      x y z
#    x 2.063290 0.000000 0.065390 
#    y 0.000000 2.036260 0.000000 
#    z 0.065390 0.000000 2.159160 
# 
# From -- ./inp_files/268981.got.cif
#   From: 2010.05.17/outbox.cif.g08.bks.cpg/sg15_135_cif.got.tgz:268981.got - 2010.06.03 18:47:42.
