data_PCOD9277903
_publ_section_title
;
Structure prediction by ZEFSAII (Michael W. Deem and Ramdas Pophale) SiO2 
 PCOD9277903
Probable space group: C 2/C
;
_chemical_formula_sum "Si O2"
_cell_formula_units_Z 44
_cell_length_a 14.245495
_cell_length_b 4.798035
_cell_length_c 23.591886
_cell_angle_alpha 90.000000
_cell_angle_beta 84.428935
_cell_angle_gamma 90.000000
_cell_volume 1604.897832
_symmetry_space_group_name_H-M "C 2/C"
_symmetry_group_IT_number 15
_symmetry_cell_setting 'monoclinic'
loop_
_space_group_symop_operation_xyz
x,y,z
-x,y,1/2-z
-x,-y,-z
x,-y,1/2+z
1/2+x,1/2+y,z
1/2-x,1/2+y,1/2-z
1/2-x,1/2-y,-z
1/2+x,1/2-y,1/2+z
loop_
_atom_site_type_symbol
_atom_site_label
_atom_site_fract_x
_atom_site_fract_y
_atom_site_fract_z
Si Si1 0.549353 0.755531 0.527774
Si Si2 0.500000 0.633474 0.750000
Si Si3 0.212498 0.005232 0.563482
Si Si4 0.811894 0.979451 0.106511
Si Si5 0.302023 0.151374 0.224645
Si Si6 0.980623 0.052598 0.374001
O O1 0.500000 0.500000 0.500000
O O2 0.659615 0.686876 0.516985
O O3 0.525619 0.757661 0.596273
O O4 0.500000 0.000000 0.500000
O O5 0.591704 0.812682 0.759922
O O6 0.522033 0.453752 0.692835
O O7 0.244885 0.256665 0.601928
O O8 0.118302 0.843214 0.593764
O O9 0.290666 0.760256 0.559143
O O10 0.795796 0.792221 0.163437
O O11 0.914980 0.122484 0.109965
O O12 0.233486 0.338264 0.268012
#
# Coordination Sequence:
#
# PCOD9277903 Si02
#       6
#     8   4   8   8   8   8
#     4  10  22  44  67  90 125 169 210 263 320 369
#     4  10  20  42  62 102 122 178 200 264 322 372
#     4  10  23  40  67  89 130 164 206 265 317 370
#     4  11  21  40  61  96 123 166 212 254 318 378
#     4  11  23  38  60  89 132 167 213 252 307 382
#     4   9  23  38  69  90 137 158 219 258 315 381
#
# _framework density 27.416077000000001
#
# number of rings (size 3 to 8) (size 9 to 14) (size 15 to 20)
#    1.091    0.727    0.000    4.364    0.000    3.636 
#    0.000   10.909    0.000    0.000    0.000    0.000 
#    0.000    0.000    0.000    0.000    0.000    0.000 
#
# Total GULP energy -122876.540415 kJ/mol
# GULP energy per Si atom -5585.297292 kJ/mol
# Density = 2.735368 g / cm^3
# Si number density = 27.416077 Si / 1000 Ang^3
#
#
#
# Elastic Constant Matrix: (Units=GPa)
#
#
# Indices 1 2 3 4 5 6 
#
# 1 174.1184 30.9440 19.5869 0.0000 39.3097 0.0000
# 2 30.9440 128.1005 1.9410 0.0000 31.6084 0.0000
# 3 19.5869 1.9410 89.7929 0.0000 19.2265 0.0000
# 4 0.0000 0.0000 0.0000 30.8580 0.0000 3.7310
# 5 39.3097 31.6084 19.2265 0.0000 47.1351 0.0000
# 6 0.0000 0.0000 0.0000 3.7310 0.0000 32.2183
#
#
#
# Elastic Compliance Matrix: (Units=1/GPa)
#
#
# Indices 1 2 3 4 5 6 
#
# 1 0.007095 -0.000340 -0.000353 0.000000 -0.005545 0.000000
# 2 -0.000340 0.009500 0.001284 0.000000 -0.006611 0.000000
# 3 -0.000353 0.001284 0.012389 0.000000 -0.005621 0.000000
# 4 0.000000 0.000000 0.000000 0.032867 0.000000 -0.003806
# 5 -0.005545 -0.006611 -0.005621 0.000000 0.032566 0.000000
# 6 0.000000 0.000000 0.000000 -0.003806 0.000000 0.031479
#
#
# Mechanical properties :
#
#
# Convention : Reuss Voigt Hill
#
# Bulk Modulus (GPa) = 33.14870 55.21731 44.18300
# Shear Modulus (GPa) = 37.10010 44.67826 40.88918
#
# Velocity S-wave (km/s) = 3.68261 4.04126 3.86609
# Velocity P-wave (km/s) = 5.49540 6.47764 6.00663
#
# Compressibility (1/GPa) = 0.03016709
#
# Stress axis : x y z
#
# Youngs Moduli (GPa) = 140.93824 105.25937 80.71376
#
# Poissons Ratio (x) = 0.03583 0.02850
# Poissons Ratio (y) = 0.04797 -0.10367
# Poissons Ratio (z) = 0.04976 -0.13520
#
# Static dielectric constant tensor:
#      x y z
#    x 2.156700 0.000000 -0.075080 
#    y 0.000000 2.068890 0.000000 
#    z -0.075080 0.000000 2.309930 
# 
# From -- ./inp_files/294270.got.cif
#   From: 2010.05.17/outbox.cif.g08.bks.cpg/sg15_148_cif.got.tgz:294270.got - 2010.06.03 18:47:42.
