data_PCOD9277649
_publ_section_title
;
Structure prediction by ZEFSAII (Michael W. Deem and Ramdas Pophale) SiO2 
 PCOD9277649
Probable space group: C 2/C
;
_chemical_formula_sum "Si O2"
_cell_formula_units_Z 56
_cell_length_a 5.833905
_cell_length_b 20.686030
_cell_length_c 19.736967
_cell_angle_alpha 90.000000
_cell_angle_beta 87.848502
_cell_angle_gamma 90.000000
_cell_volume 2380.184682
_symmetry_space_group_name_H-M "C 2/C"
_symmetry_group_IT_number 15
_symmetry_cell_setting 'monoclinic'
loop_
_space_group_symop_operation_xyz
x,y,z
-x,y,1/2-z
-x,-y,-z
x,-y,1/2+z
1/2+x,1/2+y,z
1/2-x,1/2+y,1/2-z
1/2-x,1/2-y,-z
1/2+x,1/2-y,1/2+z
loop_
_atom_site_type_symbol
_atom_site_label
_atom_site_fract_x
_atom_site_fract_y
_atom_site_fract_z
Si Si1 0.655394 0.296572 0.654402
Si Si2 0.865824 0.993604 0.429676
Si Si3 0.659698 0.589505 0.350006
Si Si4 0.000000 0.522367 0.250000
Si Si5 0.200259 0.911277 0.189189
Si Si6 0.495955 0.773974 0.029124
Si Si7 0.472535 0.886205 0.557227
Si Si8 0.000000 0.697304 0.750000
O O1 0.494035 0.355006 0.677668
O O2 0.506617 0.254428 0.603441
O O3 0.853560 0.335101 0.611276
O O4 0.688578 0.245086 0.713501
O O5 0.649665 0.043690 0.440325
O O6 0.015345 0.027524 0.369820
O O7 0.842820 0.924138 0.391401
O O8 0.000000 0.000000 0.500000
O O9 0.859184 0.568523 0.299498
O O10 0.769191 0.609229 0.420194
O O11 0.157900 0.474920 0.291203
O O12 0.365162 0.850294 0.200807
O O13 0.000000 0.906246 0.250000
O O14 0.750000 0.750000 0.000000
O O15 0.522972 0.850303 0.014456
O O16 0.250000 0.750000 0.000000
#
# Coordination Sequence:
#
# PCOD9277649 Si02
#       8
#     8   8   8   4   8   8   8   4
#     4  10  24  42  63 100 133 174 235 281 352 437
#     4  11  25  43  68 107 136 181 244 297 358 442
#     4  11  22  39  72 102 130 174 229 298 357 418
#     4  11  22  40  72  96 130 177 226 292 366 417
#     4  11  24  47  65  90 141 184 225 289 363 432
#     4  10  20  41  66  96 143 184 223 290 363 434
#     4  10  22  41  68  99 134 175 227 296 357 415
#     4  11  28  44  64  96 134 187 234 276 364 447
#
# _framework density 23.527584000000001
#
# number of rings (size 3 to 8) (size 9 to 14) (size 15 to 20)
#    0.000    1.429    4.286    0.000    2.000    4.000 
#    0.000    0.000    0.000    0.000    0.000    0.000 
#    0.000    0.000    0.000    0.000    0.000    0.000 
#
# Total GULP energy -155989.736778 kJ/mol
# GULP energy per Si atom -5571.062028 kJ/mol
# Density = 2.347403 g / cm^3
# Si number density = 23.527584 Si / 1000 Ang^3
#
#
#
# Elastic Constant Matrix: (Units=GPa)
#
#
# Indices 1 2 3 4 5 6 
#
# 1 69.5394 16.4026 16.1177 0.0000 -2.1983 0.0000
# 2 16.4026 87.9641 36.2662 0.0000 -12.8615 0.0000
# 3 16.1177 36.2662 83.3433 0.0000 1.4911 0.0000
# 4 0.0000 0.0000 0.0000 31.5453 0.0000 9.1013
# 5 -2.1983 -12.8615 1.4911 0.0000 37.0138 0.0000
# 6 0.0000 0.0000 0.0000 9.1013 0.0000 11.2915
#
#
#
# Elastic Compliance Matrix: (Units=1/GPa)
#
#
# Indices 1 2 3 4 5 6 
#
# 1 0.015341 -0.001935 -0.002131 0.000000 0.000325 0.000000
# 2 -0.001935 0.015114 -0.006299 0.000000 0.005391 0.000000
# 3 -0.002131 -0.006299 0.015204 0.000000 -0.002928 0.000000
# 4 0.000000 0.000000 0.000000 0.041306 0.000000 -0.033294
# 5 0.000325 0.005391 -0.002928 0.000000 0.029027 0.000000
# 6 0.000000 0.000000 0.000000 -0.033294 0.000000 0.115398
#
#
# Mechanical properties :
#
#
# Convention : Reuss Voigt Hill
#
# Bulk Modulus (GPa) = 40.11222 42.04663 41.07942
# Shear Modulus (GPa) = 19.19906 27.44081 23.31994
#
# Velocity S-wave (km/s) = 2.85971 3.41886 3.15171
# Velocity P-wave (km/s) = 5.29055 5.78747 5.54458
#
# Compressibility (1/GPa) = 0.02493006
#
# Stress axis : x y z
#
# Youngs Moduli (GPa) = 65.18568 66.16270 65.77199
#
# Poissons Ratio (x) = 0.12800 0.14014
# Poissons Ratio (y) = 0.12611 0.41431
# Poissons Ratio (z) = 0.13889 0.41677
#
# Static dielectric constant tensor:
#      x y z
#    x 1.913870 0.000000 0.080970 
#    y 0.000000 2.150100 0.000000 
#    z 0.080970 0.000000 1.921420 
# 
# From -- ./inp_files/261164.got.cif
#   From: 2010.05.17/outbox.cif.g08.bks.cpg/sg15_131_cif.got.tgz:261164.got - 2010.06.03 18:47:42.
