data_PCOD9277131
_publ_section_title
;
Structure prediction by ZEFSAII (Michael W. Deem and Ramdas Pophale) SiO2 
 PCOD9277131
Probable space group: C 2/C
;
_chemical_formula_sum "Si O2"
_cell_formula_units_Z 52
_cell_length_a 12.356896
_cell_length_b 25.117966
_cell_length_c 9.415697
_cell_angle_alpha 90.000000
_cell_angle_beta 70.375080
_cell_angle_gamma 90.000000
_cell_volume 2752.684369
_symmetry_space_group_name_H-M "C 2/C"
_symmetry_group_IT_number 15
_symmetry_cell_setting 'monoclinic'
loop_
_space_group_symop_operation_xyz
x,y,z
-x,y,1/2-z
-x,-y,-z
x,-y,1/2+z
1/2+x,1/2+y,z
1/2-x,1/2+y,1/2-z
1/2-x,1/2-y,-z
1/2+x,1/2-y,1/2+z
loop_
_atom_site_type_symbol
_atom_site_label
_atom_site_fract_x
_atom_site_fract_y
_atom_site_fract_z
Si Si1 0.124901 0.034073 0.247512
Si Si2 0.198793 0.847812 0.762437
Si Si3 0.380820 0.107226 0.386297
Si Si4 0.377558 0.112780 0.727165
Si Si5 0.500000 0.732622 0.250000
Si Si6 0.230918 0.508036 0.584204
Si Si7 0.171033 0.301508 0.046480
O O1 0.132999 0.097126 0.265944
O O2 0.154141 0.005615 0.380595
O O3 0.000000 0.018555 0.250000
O O4 0.227725 0.020124 0.092935
O O5 0.275406 0.856949 0.870238
O O6 0.295716 0.838402 0.599204
O O7 0.101223 0.802764 0.776988
O O8 0.500000 0.118201 0.250000
O O9 0.389048 0.113444 0.552733
O O10 0.346746 0.045027 0.375075
O O11 0.500000 0.116430 0.750000
O O12 0.309435 0.163413 0.821136
O O13 0.323988 0.058478 0.813055
O O14 0.548181 0.773123 0.109979
O O15 0.250000 0.250000 0.000000
#
# Coordination Sequence:
#
# PCOD9277131 Si02
#       7
#     8   8   8   8   4   8   8
#     4  11  21  38  60  90 126 168 203 253 308 380
#     4  10  21  40  65  92 127 160 210 260 313 376
#     4  11  25  40  63  97 132 167 207 263 324 378
#     4  12  23  39  66  90 126 166 211 261 316 384
#     4  10  20  40  68  94 118 166 212 260 320 372
#     4  11  23  38  60  94 129 164 210 250 317 384
#     4  10  21  38  66  92 120 162 214 257 314 383
#
# _framework density 18.890653
#
# number of rings (size 3 to 8) (size 9 to 14) (size 15 to 20)
#    0.000    1.231    4.615    1.846    2.154    1.231 
#    0.000    3.077    3.385    0.000    0.000    0.000 
#    0.000    0.000    0.000    0.000    0.000    0.000 
#
# Total GULP energy -144864.826912 kJ/mol
# GULP energy per Si atom -5571.724112 kJ/mol
# Density = 1.884766 g / cm^3
# Si number density = 18.890653 Si / 1000 Ang^3
#
#
#
# Elastic Constant Matrix: (Units=GPa)
#
#
# Indices 1 2 3 4 5 6 
#
# 1 91.5182 32.2776 30.9423 0.0000 8.6580 0.0000
# 2 32.2776 90.0160 26.7163 0.0000 5.2258 0.0000
# 3 30.9423 26.7163 105.9442 0.0000 13.8264 0.0000
# 4 0.0000 0.0000 0.0000 16.4430 0.0000 -4.3222
# 5 8.6580 5.2258 13.8264 0.0000 30.3904 0.0000
# 6 0.0000 0.0000 0.0000 -4.3222 0.0000 23.7968
#
#
#
# Elastic Compliance Matrix: (Units=1/GPa)
#
#
# Indices 1 2 3 4 5 6 
#
# 1 0.013387 -0.003894 -0.002677 0.000000 -0.001927 0.000000
# 2 -0.003894 0.013156 -0.002158 0.000000 -0.000171 0.000000
# 3 -0.002677 -0.002158 0.011287 0.000000 -0.004002 0.000000
# 4 0.000000 0.000000 0.000000 0.063865 0.000000 0.011600
# 5 -0.001927 -0.000171 -0.004002 0.000000 0.035304 0.000000
# 6 0.000000 0.000000 0.000000 0.011600 0.000000 0.044129
#
#
# Mechanical properties :
#
#
# Convention : Reuss Voigt Hill
#
# Bulk Modulus (GPa) = 49.08422 51.92788 50.50605
# Shear Modulus (GPa) = 24.34547 27.29552 25.82049
#
# Velocity S-wave (km/s) = 3.59382 3.80534 3.70109
# Velocity P-wave (km/s) = 6.57727 6.84513 6.71254
#
# Compressibility (1/GPa) = 0.02037315
#
# Stress axis : x y z
#
# Youngs Moduli (GPa) = 74.69686 76.01161 88.59729
#
# Poissons Ratio (x) = 0.29600 0.23713
# Poissons Ratio (y) = 0.29088 0.19118
# Poissons Ratio (z) = 0.19993 0.16402
#
# Static dielectric constant tensor:
#      x y z
#    x 1.700670 0.000000 -0.037060 
#    y 0.000000 1.666260 0.000000 
#    z -0.037060 0.000000 1.669640 
# 
# From -- ./inp_files/33478.got.cif
#   From: 2010.05.17/outbox.cif.g08.bks.cpg/sg15_17_cif.got.tgz:33478.got - 2010.06.03 18:47:42.
