data_PCOD9277740
_publ_section_title
;
Structure prediction by ZEFSAII (Michael W. Deem and Ramdas Pophale) SiO2 
 PCOD9277740
Probable space group: C 2/C
;
_chemical_formula_sum "Si O2"
_cell_formula_units_Z 56
_cell_length_a 18.117199
_cell_length_b 16.422237
_cell_length_c 10.397139
_cell_angle_alpha 90.000000
_cell_angle_beta 125.672905
_cell_angle_gamma 90.000000
_cell_volume 2512.959131
_symmetry_space_group_name_H-M "C 2/C"
_symmetry_group_IT_number 15
_symmetry_cell_setting 'monoclinic'
loop_
_space_group_symop_operation_xyz
x,y,z
-x,y,1/2-z
-x,-y,-z
x,-y,1/2+z
1/2+x,1/2+y,z
1/2-x,1/2+y,1/2-z
1/2-x,1/2-y,-z
1/2+x,1/2-y,1/2+z
loop_
_atom_site_type_symbol
_atom_site_label
_atom_site_fract_x
_atom_site_fract_y
_atom_site_fract_z
Si Si1 0.775457 0.180957 0.425344
Si Si2 0.480482 0.653718 0.589858
Si Si3 0.362490 0.262532 0.386576
Si Si4 0.287945 0.100699 0.718180
Si Si5 0.749825 0.517340 0.939834
Si Si6 0.643303 0.754305 0.346746
Si Si7 0.568868 0.575721 0.204628
O O1 0.750000 0.250000 0.500000
O O2 0.879626 0.189376 0.493167
O O3 0.708095 0.196233 0.238424
O O4 0.762607 0.096322 0.484092
O O5 0.500000 0.620514 0.750000
O O6 0.557760 0.717971 0.631283
O O7 0.480256 0.585300 0.481227
O O8 0.305259 0.347183 0.348594
O O9 0.404044 0.233221 0.563385
O O10 0.301775 0.045943 0.861047
O O11 0.359642 0.172720 0.758257
O O12 0.282728 0.049541 0.579288
O O13 0.653288 0.484569 0.791539
O O14 0.750000 0.750000 0.500000
O O15 0.610154 0.666710 0.268002
O O16 0.500000 0.561123 0.250000
#
# Coordination Sequence:
#
# PCOD9277740 Si02
#       7
#     8   8   8   8   8   8   8
#     4  12  25  43  68  99 149 196 246 303 368 443
#     4  12  23  40  69 103 143 194 243 301 365 433
#     4  11  22  44  67 103 137 194 257 292 361 449
#     4  11  23  39  66 100 142 187 242 298 361 436
#     4  12  25  41  65 107 146 192 238 305 376 441
#     4  10  20  41  68  92 139 189 250 292 342 450
#     4  12  24  43  70 110 150 195 236 300 385 455
#
# _framework density 22.284486000000001
#
# number of rings (size 3 to 8) (size 9 to 14) (size 15 to 20)
#    0.000    0.571    7.143    2.571    2.000    1.714 
#    0.000    5.000    0.000    0.000    3.714    4.000 
#    0.000    0.000    0.000    0.000    0.000    0.000 
#
# Total GULP energy -156548.440195 kJ/mol
# GULP energy per Si atom -5591.015721 kJ/mol
# Density = 2.223377 g / cm^3
# Si number density = 22.284486 Si / 1000 Ang^3
#
#
#
# Elastic Constant Matrix: (Units=GPa)
#
#
# Indices 1 2 3 4 5 6 
#
# 1 103.1452 42.7834 37.1106 0.0000 -23.9423 0.0000
# 2 42.7834 108.3465 43.2185 0.0000 -5.0208 0.0000
# 3 37.1106 43.2185 130.0910 0.0000 -34.4100 0.0000
# 4 0.0000 0.0000 0.0000 22.4196 0.0000 2.5257
# 5 -23.9423 -5.0208 -34.4100 0.0000 42.8070 0.0000
# 6 0.0000 0.0000 0.0000 2.5257 0.0000 26.2284
#
#
#
# Elastic Compliance Matrix: (Units=1/GPa)
#
#
# Indices 1 2 3 4 5 6 
#
# 1 0.013369 -0.004776 -0.000505 0.000000 0.006512 0.000000
# 2 -0.004776 0.012486 -0.003943 0.000000 -0.004377 0.000000
# 3 -0.000505 -0.003943 0.011359 0.000000 0.008386 0.000000
# 4 0.000000 0.000000 0.000000 0.045093 0.000000 -0.004342
# 5 0.006512 -0.004377 0.008386 0.000000 0.033230 0.000000
# 6 0.000000 0.000000 0.000000 -0.004342 0.000000 0.038545
#
#
# Mechanical properties :
#
#
# Convention : Reuss Voigt Hill
#
# Bulk Modulus (GPa) = 53.28761 65.31197 59.29979
# Shear Modulus (GPa) = 27.96648 32.85567 30.41108
#
# Velocity S-wave (km/s) = 3.54641 3.84392 3.69816
# Velocity P-wave (km/s) = 6.38229 7.00520 6.70099
#
# Compressibility (1/GPa) = 0.01876609
#
# Stress axis : x y z
#
# Youngs Moduli (GPa) = 74.79865 80.09175 88.03545
#
# Poissons Ratio (x) = 0.38253 0.04443
# Poissons Ratio (y) = 0.35725 0.34713
# Poissons Ratio (z) = 0.03775 0.31581
#
# Static dielectric constant tensor:
#      x y z
#    x 1.880370 0.000000 -0.008690 
#    y 0.000000 1.847260 0.000000 
#    z -0.008690 0.000000 2.066220 
# 
# From -- ./inp_files/105799.got.cif
#   From: 2010.05.17/outbox.cif.g08.bks.cpg/sg15_53_cif.got.tgz:105799.got - 2010.06.03 18:47:42.
