data_PCOD9277530
_publ_section_title
;
Structure prediction by ZEFSAII (Michael W. Deem and Ramdas Pophale) SiO2 
 PCOD9277530
Probable space group: C 2/C
;
_chemical_formula_sum "Si O2"
_cell_formula_units_Z 56
_cell_length_a 12.812361
_cell_length_b 24.393090
_cell_length_c 8.131664
_cell_angle_alpha 90.000000
_cell_angle_beta 78.460254
_cell_angle_gamma 90.000000
_cell_volume 2490.042239
_symmetry_space_group_name_H-M "C 2/C"
_symmetry_group_IT_number 15
_symmetry_cell_setting 'monoclinic'
loop_
_space_group_symop_operation_xyz
x,y,z
-x,y,1/2-z
-x,-y,-z
x,-y,1/2+z
1/2+x,1/2+y,z
1/2-x,1/2+y,1/2-z
1/2-x,1/2-y,-z
1/2+x,1/2-y,1/2+z
loop_
_atom_site_type_symbol
_atom_site_label
_atom_site_fract_x
_atom_site_fract_y
_atom_site_fract_z
Si Si1 0.000000 0.716123 0.250000
Si Si2 0.774496 0.767745 0.309010
Si Si3 0.248816 0.128143 0.872016
Si Si4 0.268359 0.415142 0.667345
Si Si5 0.000000 0.500000 0.000000
Si Si6 0.067235 0.377347 0.934476
Si Si7 0.762590 0.523108 0.667298
Si Si8 0.623099 0.679147 0.210003
O O1 0.102634 0.752223 0.252599
O O2 0.996506 0.674169 0.405414
O O3 0.750000 0.750000 0.500000
O O4 0.754630 0.830942 0.279511
O O5 0.699435 0.730929 0.216268
O O6 0.234480 0.066262 0.817359
O O7 0.363110 0.132046 0.925048
O O8 0.162695 0.150110 0.029972
O O9 0.158464 0.386910 0.765185
O O10 0.293707 0.464774 0.786755
O O11 0.256534 0.446393 0.498919
O O12 0.353132 0.366475 0.656561
O O13 0.995489 0.566495 0.026993
O O14 0.887475 0.493077 0.140095
O O15 0.500000 0.694278 0.250000
#
# Coordination Sequence:
#
# PCOD9277530 Si02
#       8
#     4   8   8   8   4   8   8   8
#     4  12  24  44  72  96 146 182 238 300 358 424
#     4  12  28  46  71 103 137 190 242 304 364 426
#     4  11  25  45  65 101 140 186 238 294 363 433
#     4  10  20  41  64  98 136 177 223 286 352 422
#     4  10  22  36  66 110 136 188 214 284 366 436
#     4  10  22  39  67  99 143 178 227 288 360 431
#     4  11  22  40  67 100 150 176 234 284 355 440
#     4  11  25  48  72  98 135 185 242 301 356 431
#
# _framework density 22.489578000000002
#
# number of rings (size 3 to 8) (size 9 to 14) (size 15 to 20)
#    0.000    1.143    2.857    4.714    4.000    5.714 
#    0.000    2.857    0.000    0.000    0.000    0.000 
#    0.000    0.000    0.000    0.000    0.000    0.000 
#
# Total GULP energy -156144.058807 kJ/mol
# GULP energy per Si atom -5576.573529 kJ/mol
# Density = 2.243839 g / cm^3
# Si number density = 22.489578 Si / 1000 Ang^3
#
#
#
# Elastic Constant Matrix: (Units=GPa)
#
#
# Indices 1 2 3 4 5 6 
#
# 1 96.1653 25.9333 -3.2800 0.0000 -1.8969 0.0000
# 2 25.9333 83.9725 -6.7778 0.0000 6.3448 0.0000
# 3 -3.2800 -6.7778 54.3822 0.0000 10.0068 0.0000
# 4 0.0000 0.0000 0.0000 32.8508 0.0000 0.4714
# 5 -1.8969 6.3448 10.0068 0.0000 21.5272 0.0000
# 6 0.0000 0.0000 0.0000 0.4714 0.0000 11.6842
#
#
#
# Elastic Compliance Matrix: (Units=1/GPa)
#
#
# Indices 1 2 3 4 5 6 
#
# 1 0.011437 -0.003711 -0.000174 0.000000 0.002183 0.000000
# 2 -0.003711 0.013673 0.002495 0.000000 -0.005517 0.000000
# 3 -0.000174 0.002495 0.020588 0.000000 -0.010321 0.000000
# 4 0.000000 0.000000 0.000000 0.030458 0.000000 -0.001229
# 5 0.002183 -0.005517 -0.010321 0.000000 0.053069 0.000000
# 6 0.000000 0.000000 0.000000 -0.001229 0.000000 0.085635
#
#
# Mechanical properties :
#
#
# Convention : Reuss Voigt Hill
#
# Bulk Modulus (GPa) = 23.30028 29.58565 26.44296
# Shear Modulus (GPa) = 21.55676 27.78874 24.67275
#
# Velocity S-wave (km/s) = 3.09936 3.51896 3.31581
# Velocity P-wave (km/s) = 4.81570 5.44928 5.14226
#
# Compressibility (1/GPa) = 0.04291794
#
# Stress axis : x y z
#
# Youngs Moduli (GPa) = 87.43843 73.13692 48.57190
#
# Poissons Ratio (x) = 0.27141 0.00847
# Poissons Ratio (y) = 0.32448 -0.12121
# Poissons Ratio (z) = 0.01524 -0.18251
#
# Static dielectric constant tensor:
#      x y z
#    x 1.824930 0.000000 0.080640 
#    y 0.000000 1.785040 0.000000 
#    z 0.080640 0.000000 1.862430 
# 
# From -- ./inp_files/42148.got.cif
#   From: 2010.05.17/outbox.cif.g08.bks.cpg/sg15_22_cif.got.tgz:42148.got - 2010.06.03 18:47:42.
