data_PCOD9277761
_publ_section_title
;
Structure prediction by ZEFSAII (Michael W. Deem and Ramdas Pophale) SiO2 
 PCOD9277761
Probable space group: C 2/C
;
_chemical_formula_sum "Si O2"
_cell_formula_units_Z 52
_cell_length_a 16.142131
_cell_length_b 15.867426
_cell_length_c 14.542122
_cell_angle_alpha 90.000000
_cell_angle_beta 42.585268
_cell_angle_gamma 90.000000
_cell_volume 2520.477130
_symmetry_space_group_name_H-M "C 2/C"
_symmetry_group_IT_number 15
_symmetry_cell_setting 'monoclinic'
loop_
_space_group_symop_operation_xyz
x,y,z
-x,y,1/2-z
-x,-y,-z
x,-y,1/2+z
1/2+x,1/2+y,z
1/2-x,1/2+y,1/2-z
1/2-x,1/2-y,-z
1/2+x,1/2-y,1/2+z
loop_
_atom_site_type_symbol
_atom_site_label
_atom_site_fract_x
_atom_site_fract_y
_atom_site_fract_z
Si Si1 0.500000 0.415884 0.250000
Si Si2 0.748346 0.998723 0.914525
Si Si3 0.721264 0.108785 0.263029
Si Si4 0.663892 0.727064 0.932391
Si Si5 0.364685 0.152435 0.879826
Si Si6 0.452285 0.681636 0.973884
Si Si7 0.534183 0.133857 0.116200
O O1 0.621671 0.470840 0.155917
O O2 0.500204 0.359829 0.158327
O O3 0.753839 0.967479 0.804458
O O4 0.647035 0.070594 0.012965
O O5 0.707198 0.917751 0.005632
O O6 0.700443 0.193528 0.340024
O O7 0.590235 0.093818 0.323080
O O8 0.830068 0.133371 0.105212
O O9 0.785711 0.674658 0.854932
O O10 0.554839 0.679078 0.970078
O O11 0.622764 0.765333 0.064616
O O12 0.500000 0.120895 0.750000
O O13 0.433163 0.780179 0.964830
O O14 0.500000 0.153172 0.250000
#
# Coordination Sequence:
#
# PCOD9277761 Si02
#       7
#     4   8   8   8   8   8   8
#     4  12  28  46  62  96 132 178 218 272 342 400
#     4  11  26  43  64  98 136 171 218 276 336 397
#     4  10  23  43  67  99 130 172 220 273 332 391
#     4   9  21  39  67 104 129 174 220 270 322 394
#     4  10  20  41  68  99 136 173 219 270 330 392
#     4  11  24  43  69  95 131 176 225 270 332 400
#     4  11  23  43  71  97 129 173 223 275 324 400
#
# _framework density 20.631014
#
# number of rings (size 3 to 8) (size 9 to 14) (size 15 to 20)
#    0.000    1.538    0.769    2.769    6.462    1.846 
#    8.308    0.000    0.000    0.000    0.000    0.000 
#    0.000    0.000    0.000    0.000    0.000    0.000 
#
# Total GULP energy -145359.422888 kJ/mol
# GULP energy per Si atom -5590.747034 kJ/mol
# Density = 2.058406 g / cm^3
# Si number density = 20.631014 Si / 1000 Ang^3
#
#
#
# Elastic Constant Matrix: (Units=GPa)
#
#
# Indices 1 2 3 4 5 6 
#
# 1 146.8679 43.2815 46.2436 0.0000 -30.5372 0.0000
# 2 43.2815 53.1941 28.1597 0.0000 -22.3136 0.0000
# 3 46.2436 28.1597 88.1340 0.0000 -20.3995 0.0000
# 4 0.0000 0.0000 0.0000 13.7176 0.0000 20.2043
# 5 -30.5372 -22.3136 -20.3995 0.0000 36.3006 0.0000
# 6 0.0000 0.0000 0.0000 20.2043 0.0000 -1.1812
#
#
#
# Elastic Compliance Matrix: (Units=1/GPa)
#
#
# Indices 1 2 3 4 5 6 
#
# 1 0.009937 -0.005088 -0.002733 0.000000 0.003696 0.000000
# 2 -0.005088 0.030157 -0.004214 0.000000 0.011889 0.000000
# 3 -0.002733 -0.004214 0.014938 0.000000 0.003505 0.000000
# 4 0.000000 0.000000 0.000000 0.002783 0.000000 0.047605
# 5 0.003696 0.011889 0.003505 0.000000 0.039935 0.000000
# 6 0.000000 0.000000 0.000000 0.047605 0.000000 -0.032321
#
#
# Mechanical properties :
#
#
# Convention : Reuss Voigt Hill
#
# Bulk Modulus (GPa) = 32.29746 58.17395 45.23571
# Shear Modulus (GPa) = 50.09017 21.13481 35.61249
#
# Velocity S-wave (km/s) = 4.93272 3.20413 4.15922
# Velocity P-wave (km/s) = 6.93766 6.47666 6.71112
#
# Compressibility (1/GPa) = 0.03096219
#
# Stress axis : x y z
#
# Youngs Moduli (GPa) = 100.63048 33.15978 66.94345
#
# Poissons Ratio (x) = 0.16873 0.18294
# Poissons Ratio (y) = 0.51205 0.28209
# Poissons Ratio (z) = 0.27500 0.13973
#
# Static dielectric constant tensor:
#      x y z
#    x 1.740280 0.000000 0.015810 
#    y 0.000000 1.717080 0.000000 
#    z 0.015810 0.000000 1.724760 
# 
# From -- ./inp_files/155428.got.cif
#   From: 2010.05.17/outbox.cif.g08.bks.cpg/sg15_78_cif.got.tgz:155428.got - 2010.06.03 18:47:42.
