data_PCOD9277523
_publ_section_title
;
Structure prediction by ZEFSAII (Michael W. Deem and Ramdas Pophale) SiO2 
 PCOD9277523
Probable space group: C 2/C
;
_chemical_formula_sum "Si O2"
_cell_formula_units_Z 64
_cell_length_a 9.712112
_cell_length_b 29.856577
_cell_length_c 16.900355
_cell_angle_alpha 90.000000
_cell_angle_beta 39.127309
_cell_angle_gamma 90.000000
_cell_volume 3092.504101
_symmetry_space_group_name_H-M "C 2/C"
_symmetry_group_IT_number 15
_symmetry_cell_setting 'monoclinic'
loop_
_space_group_symop_operation_xyz
x,y,z
-x,y,1/2-z
-x,-y,-z
x,-y,1/2+z
1/2+x,1/2+y,z
1/2-x,1/2+y,1/2-z
1/2-x,1/2-y,-z
1/2+x,1/2-y,1/2+z
loop_
_atom_site_type_symbol
_atom_site_label
_atom_site_fract_x
_atom_site_fract_y
_atom_site_fract_z
Si Si1 0.835520 0.911372 0.256953
Si Si2 0.683967 0.186830 0.503734
Si Si3 0.158558 0.193479 0.752326
Si Si4 0.343551 0.413672 0.962418
Si Si5 0.939788 0.448050 0.530689
Si Si6 0.346181 0.065930 0.249546
Si Si7 0.700378 0.527411 0.874194
Si Si8 0.249598 0.763225 0.371367
O O1 0.881110 0.859500 0.218461
O O2 0.603189 0.920499 0.401318
O O3 0.866494 0.939195 0.164551
O O4 0.000000 0.927850 0.250000
O O5 0.421052 0.194710 0.620713
O O6 0.753330 0.135882 0.486811
O O7 0.809647 0.212322 0.519827
O O8 0.749241 0.210732 0.392575
O O9 0.124180 0.221179 0.848949
O O10 0.000000 0.207543 0.750000
O O11 0.294608 0.441660 0.905235
O O12 0.602211 0.414401 0.863229
O O13 0.223316 0.440385 0.087996
O O14 0.940633 0.429779 0.619368
O O15 0.000000 0.500000 0.500000
O O16 0.500000 0.084800 0.250000
O O17 0.332682 0.012308 0.272585
O O18 0.500000 0.500000 0.000000
O O19 0.500000 0.777983 0.250000
#
# Coordination Sequence:
#
# PCOD9277523 Si02
#       8
#     8   8   8   8   8   8   8   8
#     4  11  24  38  62  90 130 173 220 269 319 379
#     4  10  20  41  64  96 119 166 209 258 326 378
#     4  10  21  40  62  99 130 164 208 259 323 390
#     4  11  24  41  64  92 127 168 221 272 319 387
#     4  12  24  39  62  89 126 177 221 269 320 374
#     4  11  25  41  60  87 128 172 221 272 326 377
#     4  10  23  38  60  87 126 172 224 272 317 367
#     4   9  20  38  69  91 127 158 204 262 317 395
#
# _framework density 20.695201999999998
#
# number of rings (size 3 to 8) (size 9 to 14) (size 15 to 20)
#    0.000    1.500    2.500    1.875    7.000    1.500 
#    0.000    0.000    0.000    7.500    0.000    0.000 
#    0.000    0.000    0.000    0.000    0.000    0.000 
#
# Total GULP energy -178431.413828 kJ/mol
# GULP energy per Si atom -5575.981682 kJ/mol
# Density = 2.064810 g / cm^3
# Si number density = 20.695202 Si / 1000 Ang^3
#
#
#
# Elastic Constant Matrix: (Units=GPa)
#
#
# Indices 1 2 3 4 5 6 
#
# 1 195.6839 53.8037 50.5629 0.0000 11.5076 0.0000
# 2 53.8037 97.2635 19.5977 0.0000 13.4637 0.0000
# 3 50.5629 19.5977 57.3274 0.0000 13.9341 0.0000
# 4 0.0000 0.0000 0.0000 4.7743 0.0000 9.9597
# 5 11.5076 13.4637 13.9341 0.0000 41.4154 0.0000
# 6 0.0000 0.0000 0.0000 9.9597 0.0000 29.1716
#
#
#
# Elastic Compliance Matrix: (Units=1/GPa)
#
#
# Indices 1 2 3 4 5 6 
#
# 1 0.007360 -0.003049 -0.005656 0.000000 0.000849 0.000000
# 2 -0.003049 0.012553 -0.000889 0.000000 -0.002935 0.000000
# 3 -0.005656 -0.000889 0.024268 0.000000 -0.006305 0.000000
# 4 0.000000 0.000000 0.000000 0.727858 0.000000 -0.248503
# 5 0.000849 -0.002935 -0.006305 0.000000 0.026985 0.000000
# 6 0.000000 0.000000 0.000000 -0.248503 0.000000 0.119123
#
#
# Mechanical properties :
#
#
# Convention : Reuss Voigt Hill
#
# Bulk Modulus (GPa) = 40.00865 66.46704 53.23785
# Shear Modulus (GPa) = 5.28728 30.15962 17.72345
#
# Velocity S-wave (km/s) = 1.60012 3.82163 2.92961
# Velocity P-wave (km/s) = 4.77369 7.18749 6.10115
#
# Compressibility (1/GPa) = 0.02499459
#
# Stress axis : x y z
#
# Youngs Moduli (GPa) = 135.86679 79.65906 41.20636
#
# Poissons Ratio (x) = 0.24291 0.23305
# Poissons Ratio (y) = 0.41432 0.03661
# Poissons Ratio (z) = 0.76841 0.07078
#
# Static dielectric constant tensor:
#      x y z
#    x 1.807240 0.000000 -0.034240 
#    y 0.000000 1.759360 0.000000 
#    z -0.034240 0.000000 1.907760 
# 
# From -- ./inp_files/194225.got.cif
#   From: 2010.05.17/outbox.cif.g08.bks.cpg/sg15_98_cif.got.tgz:194225.got - 2010.06.03 18:47:42.
