data_PCOD9277480
_publ_section_title
;
Structure prediction by ZEFSAII (Michael W. Deem and Ramdas Pophale) SiO2 
 PCOD9277480
Probable space group: C 2/C
;
_chemical_formula_sum "Si O2"
_cell_formula_units_Z 52
_cell_length_a 20.058247
_cell_length_b 10.160179
_cell_length_c 22.335064
_cell_angle_alpha 90.000000
_cell_angle_beta 41.701480
_cell_angle_gamma 90.000000
_cell_volume 3028.071908
_symmetry_space_group_name_H-M "C 2/C"
_symmetry_group_IT_number 15
_symmetry_cell_setting 'monoclinic'
loop_
_space_group_symop_operation_xyz
x,y,z
-x,y,1/2-z
-x,-y,-z
x,-y,1/2+z
1/2+x,1/2+y,z
1/2-x,1/2+y,1/2-z
1/2-x,1/2-y,-z
1/2+x,1/2-y,1/2+z
loop_
_atom_site_type_symbol
_atom_site_label
_atom_site_fract_x
_atom_site_fract_y
_atom_site_fract_z
Si Si1 0.603047 0.562761 0.409001
Si Si2 0.304007 0.198649 0.024694
Si Si3 0.738319 0.647429 0.420087
Si Si4 0.000000 0.080003 0.250000
Si Si5 0.714940 0.096395 0.680389
Si Si6 0.199154 0.070107 0.582904
Si Si7 0.963581 0.243316 0.154601
O O1 0.500000 0.500000 0.500000
O O2 0.646278 0.648833 0.435175
O O3 0.308774 0.545918 0.657443
O O4 0.581810 0.645788 0.364425
O O5 0.257445 0.286898 0.109393
O O6 0.277084 0.044871 0.048092
O O7 0.250000 0.250000 0.000000
O O8 0.423436 0.218227 0.939840
O O9 0.807163 0.531208 0.346473
O O10 0.783505 0.791555 0.396127
O O11 0.706403 0.598831 0.507152
O O12 0.027169 0.170264 0.288098
O O13 0.092586 0.990324 0.169758
O O14 0.617143 0.141417 0.781174
#
# Coordination Sequence:
#
# PCOD9277480 Si02
#       7
#     8   8   8   4   8   8   8
#     4  10  20  41  64  85 128 167 204 251 320 371
#     4  12  19  38  64  91 123 159 208 257 305 366
#     4   9  22  42  59  87 128 163 199 257 316 366
#     4  12  22  34  62  94 118 158 214 252 310 370
#     4  10  21  40  61  93 120 161 209 259 299 373
#     4  11  21  40  62  91 125 162 206 259 310 369
#     4  12  22  37  67  94 119 166 214 258 307 369
#
# _framework density 17.172643999999998
#
# number of rings (size 3 to 8) (size 9 to 14) (size 15 to 20)
#    0.923    0.308    6.154    0.923    0.000    1.231 
#    5.538    2.308    0.000    0.000    0.000    0.000 
#    0.000    0.000    0.000    0.000    0.000    0.000 
#
# Total GULP energy -144907.364477 kJ/mol
# GULP energy per Si atom -5573.360172 kJ/mol
# Density = 1.713356 g / cm^3
# Si number density = 17.172644 Si / 1000 Ang^3
#
#
#
# Elastic Constant Matrix: (Units=GPa)
#
#
# Indices 1 2 3 4 5 6 
#
# 1 103.0738 44.1111 30.5872 0.0000 -3.9838 0.0000
# 2 44.1111 111.9311 45.8709 0.0000 -1.1353 0.0000
# 3 30.5872 45.8709 73.5426 0.0000 -23.8746 0.0000
# 4 0.0000 0.0000 0.0000 25.5184 0.0000 7.6297
# 5 -3.9838 -1.1353 -23.8746 0.0000 29.2621 0.0000
# 6 0.0000 0.0000 0.0000 7.6297 0.0000 29.2345
#
#
#
# Elastic Compliance Matrix: (Units=1/GPa)
#
#
# Indices 1 2 3 4 5 6 
#
# 1 0.012098 -0.003446 -0.003252 0.000000 -0.001140 0.000000
# 2 -0.003446 0.014400 -0.010229 0.000000 -0.008256 0.000000
# 3 -0.003252 -0.010229 0.028645 0.000000 0.022531 0.000000
# 4 0.000000 0.000000 0.000000 0.042504 0.000000 -0.011093
# 5 -0.001140 -0.008256 0.022531 0.000000 0.052081 0.000000
# 6 0.000000 0.000000 0.000000 -0.011093 0.000000 0.037101
#
#
# Mechanical properties :
#
#
# Convention : Reuss Voigt Hill
#
# Bulk Modulus (GPa) = 46.97432 58.85397 52.91415
# Shear Modulus (GPa) = 21.95101 28.00156 24.97628
#
# Velocity S-wave (km/s) = 3.57915 4.04244 3.81783
# Velocity P-wave (km/s) = 6.67038 7.49231 7.09326
#
# Compressibility (1/GPa) = 0.02128823
#
# Stress axis : x y z
#
# Youngs Moduli (GPa) = 82.66043 69.44217 34.91054
#
# Poissons Ratio (x) = 0.23933 0.11353
# Poissons Ratio (y) = 0.28489 0.35710
# Poissons Ratio (z) = 0.26881 0.71031
#
# Static dielectric constant tensor:
#      x y z
#    x 1.583470 0.000000 0.000300 
#    y 0.000000 1.586380 0.000000 
#    z 0.000300 0.000000 1.569920 
# 
# From -- ./inp_files/279514.got.cif
#   From: 2010.05.17/outbox.cif.g08.bks.cpg/sg15_140_cif.got.tgz:279514.got - 2010.06.03 18:47:42.
