data_PCOD9277247
_publ_section_title
;
Structure prediction by ZEFSAII (Michael W. Deem and Ramdas Pophale) SiO2 
 PCOD9277247
Probable space group: C 2/C
;
_chemical_formula_sum "Si O2"
_cell_formula_units_Z 36
_cell_length_a 8.444666
_cell_length_b 16.678992
_cell_length_c 17.727949
_cell_angle_alpha 90.000000
_cell_angle_beta 139.932027
_cell_angle_gamma 90.000000
_cell_volume 1607.280042
_symmetry_space_group_name_H-M "C 2/C"
_symmetry_group_IT_number 15
_symmetry_cell_setting 'monoclinic'
loop_
_space_group_symop_operation_xyz
x,y,z
-x,y,1/2-z
-x,-y,-z
x,-y,1/2+z
1/2+x,1/2+y,z
1/2-x,1/2+y,1/2-z
1/2-x,1/2-y,-z
1/2+x,1/2-y,1/2+z
loop_
_atom_site_type_symbol
_atom_site_label
_atom_site_fract_x
_atom_site_fract_y
_atom_site_fract_z
Si Si1 0.500000 0.655681 0.250000
Si Si2 0.362516 0.893544 0.379388
Si Si3 0.502283 0.245649 0.459652
Si Si4 0.851500 0.023787 0.078875
Si Si5 0.785821 0.903105 0.339404
O O1 0.464795 0.596929 0.166674
O O2 0.752776 0.705502 0.334404
O O3 0.431527 0.810798 0.445694
O O4 0.612210 0.941939 0.450577
O O5 0.212771 0.876207 0.249041
O O6 0.240072 0.955267 0.394795
O O7 0.750000 0.250000 0.500000
O O8 0.413965 0.336602 0.438107
O O9 0.056732 0.983251 0.103235
O O10 0.500000 0.912243 0.250000
#
# Coordination Sequence:
#
# PCOD9277247 Si02
#       5
#     4   8   8   8   8
#     4  10  20  42  66  96 128 176 216 262 328 414
#     4  10  22  41  69  93 129 177 226 268 328 403
#     4  11  23  39  66  98 132 168 223 270 333 399
#     4  10  20  40  70  92 122 178 229 261 325 402
#     4  12  24  40  65  99 140 171 219 283 332 385
#
# _framework density 22.398088999999999
#
# number of rings (size 3 to 8) (size 9 to 14) (size 15 to 20)
#    0.000    1.333    5.556    0.000    0.000    1.778 
#    0.000    0.000    0.000    0.000    0.000    0.000 
#    0.000    0.000    0.000    0.000    0.000    0.000 
#
# Total GULP energy -100557.827747 kJ/mol
# GULP energy per Si atom -5586.545986 kJ/mol
# Density = 2.234711 g / cm^3
# Si number density = 22.398089 Si / 1000 Ang^3
#
#
#
# Elastic Constant Matrix: (Units=GPa)
#
#
# Indices 1 2 3 4 5 6 
#
# 1 88.5577 45.4517 40.2454 -0.0001 37.5949 0.0000
# 2 45.4517 103.7646 26.0949 0.0000 23.4969 0.0000
# 3 40.2454 26.0949 92.9037 -0.0003 16.2499 -0.0001
# 4 -0.0001 0.0000 -0.0003 24.9573 -0.0001 13.0908
# 5 37.5949 23.4969 16.2499 -0.0001 60.4188 0.0000
# 6 0.0000 0.0000 -0.0001 13.0908 0.0000 39.9214
#
#
#
# Elastic Compliance Matrix: (Units=1/GPa)
#
#
# Indices 1 2 3 4 5 6 
#
# 1 0.020632 -0.005512 -0.005791 0.000000 -0.009137 0.000000
# 2 -0.005512 0.012558 -0.000929 0.000000 -0.001204 0.000000
# 3 -0.005791 -0.000929 0.013474 0.000000 0.000341 0.000000
# 4 0.000000 0.000000 0.000000 0.048392 0.000000 -0.015868
# 5 -0.009137 -0.001204 0.000341 0.000000 0.022613 0.000000
# 6 0.000000 0.000000 0.000000 -0.015868 0.000000 0.030253
#
#
# Mechanical properties :
#
#
# Convention : Reuss Voigt Hill
#
# Bulk Modulus (GPa) = 45.04657 56.53445 50.79051
# Shear Modulus (GPa) = 27.81107 36.62176 32.21641
#
# Velocity S-wave (km/s) = 3.52756 4.04795 3.79668
# Velocity P-wave (km/s) = 6.06193 6.86610 6.47651
#
# Compressibility (1/GPa) = 0.02219925
#
# Stress axis : x y z
#
# Youngs Moduli (GPa) = 48.46939 79.63148 74.21791
#
# Poissons Ratio (x) = 0.43892 0.42981
# Poissons Ratio (y) = 0.26716 0.06894
# Poissons Ratio (z) = 0.28070 0.07397
#
# Static dielectric constant tensor:
#      x y z
#    x 1.881850 0.000000 -0.005430 
#    y 0.000000 1.793630 0.000000 
#    z -0.005430 0.000000 1.824270 
# 
# From -- ./inp_files/76301.got.cif
#   From: 2010.05.17/outbox.cif.g08.bks.cpg/sg15_39_cif.got.tgz:76301.got - 2010.06.03 18:47:42.
