data_PCOD9277608
_publ_section_title
;
Structure prediction by ZEFSAII (Michael W. Deem and Ramdas Pophale) SiO2 
 PCOD9277608
Probable space group: C 2/C
;
_chemical_formula_sum "Si O2"
_cell_formula_units_Z 48
_cell_length_a 22.579720
_cell_length_b 13.616520
_cell_length_c 19.066922
_cell_angle_alpha 90.000000
_cell_angle_beta 19.762164
_cell_angle_gamma 90.000000
_cell_volume 1982.127859
_symmetry_space_group_name_H-M "C 2/C"
_symmetry_group_IT_number 15
_symmetry_cell_setting 'monoclinic'
loop_
_space_group_symop_operation_xyz
x,y,z
-x,y,1/2-z
-x,-y,-z
x,-y,1/2+z
1/2+x,1/2+y,z
1/2-x,1/2+y,1/2-z
1/2-x,1/2-y,-z
1/2+x,1/2-y,1/2+z
loop_
_atom_site_type_symbol
_atom_site_label
_atom_site_fract_x
_atom_site_fract_y
_atom_site_fract_z
Si Si1 0.000000 0.062000 0.750000
Si Si2 0.569221 0.104458 0.069160
Si Si3 0.107500 0.674347 0.889539
Si Si4 0.514947 0.317875 0.582831
Si Si5 0.766808 0.564440 0.037496
Si Si6 0.944864 0.202594 0.689451
Si Si7 0.000000 0.737568 0.750000
O O1 0.035585 0.129859 0.642797
O O2 0.159641 0.996572 0.599555
O O3 0.538479 0.091938 0.019917
O O4 0.760691 0.156032 0.870569
O O5 0.586334 0.003435 0.090039
O O6 0.431358 0.190157 0.242555
O O7 0.307673 0.649793 0.651421
O O8 0.030877 0.713751 0.902485
O O9 0.064961 0.769137 0.988322
O O10 0.360355 0.397780 0.757531
O O11 0.541424 0.298329 0.635174
O O12 0.840969 0.661319 0.919343
#
# Coordination Sequence:
#
# PCOD9277608 Si02
#       7
#     4   8   8   8   8   8   4
#     4  10  23  41  64  96 130 168 206 261 301 388
#     4   9  20  40  63  95 122 162 206 254 311 373
#     4  10  20  41  66  91 119 170 206 254 321 374
#     4  12  23  43  67  85 128 168 215 256 316 379
#     4  11  25  41  62  97 124 163 219 260 306 367
#     4   9  19  39  62  95 124 166 203 242 333 360
#     4  12  27  43  62  92 124 174 208 263 319 364
#
# _framework density 24.2164
#
# number of rings (size 3 to 8) (size 9 to 14) (size 15 to 20)
#    1.000    0.667    3.333    1.000    2.333    5.333 
#    0.000    0.833    0.000    0.000    0.000    0.000 
#    0.000    0.000    0.000    0.000    0.000    0.000 
#
# Total GULP energy -133856.290132 kJ/mol
# GULP energy per Si atom -5577.345422 kJ/mol
# Density = 2.416128 g / cm^3
# Si number density = 24.216400 Si / 1000 Ang^3
#
#
#
# Elastic Constant Matrix: (Units=GPa)
#
#
# Indices 1 2 3 4 5 6 
#
# 1 108.7458 19.4869 -3.6301 0.0015 11.8951 -0.0005
# 2 19.4869 77.6107 -1.6486 -0.0003 4.1056 -0.0025
# 3 -3.6301 -1.6486 51.1128 -0.0006 16.5533 -0.0053
# 4 0.0015 -0.0003 -0.0006 33.7301 0.0006 1.2738
# 5 11.8951 4.1056 16.5533 0.0006 31.5913 0.0025
# 6 -0.0005 -0.0025 -0.0053 1.2738 0.0025 30.1028
#
#
#
# Elastic Compliance Matrix: (Units=1/GPa)
#
#
# Indices 1 2 3 4 5 6 
#
# 1 0.010185 -0.002264 0.002164 0.000000 -0.004675 0.000001
# 2 -0.002264 0.013535 0.000686 0.000000 -0.001266 0.000001
# 3 0.002164 0.000686 0.024128 0.000000 -0.013547 0.000005
# 4 0.000000 0.000000 0.000000 0.029695 -0.000001 -0.001257
# 5 -0.004675 -0.001266 -0.013547 -0.000001 0.040677 -0.000006
# 6 0.000001 0.000001 0.000005 -0.001257 -0.000006 0.033273
#
#
# Mechanical properties :
#
#
# Convention : Reuss Voigt Hill
#
# Bulk Modulus (GPa) = 20.40011 29.54287 24.97149
# Shear Modulus (GPa) = 30.00124 33.96890 31.98507
#
# Velocity S-wave (km/s) = 3.52359 3.74936 3.63823
# Velocity P-wave (km/s) = 4.99966 5.56503 5.28991
#
# Compressibility (1/GPa) = 0.04901935
#
# Stress axis : x y z
#
# Youngs Moduli (GPa) = 98.18290 73.88354 41.44640
#
# Poissons Ratio (x) = 0.16728 -0.08970
# Poissons Ratio (y) = 0.22229 -0.02842
# Poissons Ratio (z) = -0.21250 -0.05066
#
# Static dielectric constant tensor:
#      x y z
#    x 1.960100 0.000000 -0.037520 
#    y 0.000000 1.981860 0.000000 
#    z -0.037520 0.000000 2.029780 
# 
# From -- ./inp_files/255707.got.cif
#   From: 2010.05.17/outbox.cif.g08.bks.cpg/sg15_128_cif.got.tgz:255707.got - 2010.06.03 18:47:42.
