data_PCOD9277452
_publ_section_title
;
Structure prediction by ZEFSAII (Michael W. Deem and Ramdas Pophale) SiO2 
 PCOD9277452
Probable space group: C 2/C
;
_chemical_formula_sum "Si O2"
_cell_formula_units_Z 56
_cell_length_a 17.697411
_cell_length_b 9.252163
_cell_length_c 17.923684
_cell_angle_alpha 90.000000
_cell_angle_beta 105.246591
_cell_angle_gamma 90.000000
_cell_volume 2831.515371
_symmetry_space_group_name_H-M "C 2/C"
_symmetry_group_IT_number 15
_symmetry_cell_setting 'monoclinic'
loop_
_space_group_symop_operation_xyz
x,y,z
-x,y,1/2-z
-x,-y,-z
x,-y,1/2+z
1/2+x,1/2+y,z
1/2-x,1/2+y,1/2-z
1/2-x,1/2-y,-z
1/2+x,1/2-y,1/2+z
loop_
_atom_site_type_symbol
_atom_site_label
_atom_site_fract_x
_atom_site_fract_y
_atom_site_fract_z
Si Si1 0.659281 0.688567 0.412703
Si Si2 0.933764 0.437358 0.170431
Si Si3 0.385294 0.135422 0.456478
Si Si4 0.185330 0.878197 0.493735
Si Si5 0.280722 0.757757 0.808959
Si Si6 0.060269 0.357071 0.969685
Si Si7 0.241063 0.542042 0.330849
O O1 0.581501 0.771314 0.360285
O O2 0.663805 0.781834 0.491725
O O3 0.672678 0.521377 0.439483
O O4 0.718425 0.712902 0.359227
O O5 0.954280 0.545257 0.107625
O O6 0.848699 0.496796 0.175078
O O7 0.000000 0.443389 0.250000
O O8 0.358051 0.179166 0.367397
O O9 0.477362 0.170190 0.486941
O O10 0.382839 0.963245 0.468047
O O11 0.250000 0.750000 0.500000
O O12 0.104493 0.790970 0.468069
O O13 0.211215 0.936256 0.581139
O O14 0.283251 0.587850 0.799503
O O15 0.259965 0.825487 0.725154
#
# Coordination Sequence:
#
# PCOD9277452 Si02
#       7
#     8   8   8   8   8   8   8
#     4  10  23  41  66  90 127 170 212 267 321 377
#     4  10  21  43  64  93 127 169 214 264 327 389
#     4  10  20  41  63  90 124 169 212 255 317 383
#     4  12  23  42  66  96 127 168 218 266 317 389
#     4  11  23  40  61  91 126 167 209 267 316 382
#     4  10  22  36  67  95 123 167 213 262 313 384
#     4  11  25  39  64  94 128 166 213 265 321 383
#
# _framework density 19.777396
#
# number of rings (size 3 to 8) (size 9 to 14) (size 15 to 20)
#    0.000    1.429    2.857    2.143    6.000    0.571 
#    5.143    0.714    0.000    0.000    0.000    0.000 
#    0.000    0.000    0.000    0.000    0.000    0.000 
#
# Total GULP energy -155942.502395 kJ/mol
# GULP energy per Si atom -5569.375086 kJ/mol
# Density = 1.973238 g / cm^3
# Si number density = 19.777396 Si / 1000 Ang^3
#
#
#
# Elastic Constant Matrix: (Units=GPa)
#
#
# Indices 1 2 3 4 5 6 
#
# 1 70.7933 26.1491 14.8970 0.0000 1.1020 0.0000
# 2 26.1491 102.7758 17.5540 0.0000 5.0470 0.0000
# 3 14.8970 17.5540 80.3162 0.0000 17.1604 0.0000
# 4 0.0000 0.0000 0.0000 38.4457 0.0000 -7.1816
# 5 1.1020 5.0470 17.1604 0.0000 18.9331 0.0000
# 6 0.0000 0.0000 0.0000 -7.1816 0.0000 28.5707
#
#
#
# Elastic Compliance Matrix: (Units=1/GPa)
#
#
# Indices 1 2 3 4 5 6 
#
# 1 0.016036 -0.003743 -0.002691 0.000000 0.002504 0.000000
# 2 -0.003743 0.010992 -0.001400 0.000000 -0.001444 0.000000
# 3 -0.002691 -0.001400 0.016299 0.000000 -0.014243 0.000000
# 4 0.000000 0.000000 0.000000 0.027292 0.000000 0.006860
# 5 0.002504 -0.001444 -0.014243 0.000000 0.065966 0.000000
# 6 0.000000 0.000000 0.000000 0.006860 0.000000 0.036725
#
#
# Mechanical properties :
#
#
# Convention : Reuss Voigt Hill
#
# Bulk Modulus (GPa) = 36.15477 41.23175 38.69326
# Shear Modulus (GPa) = 25.22722 30.20891 27.71807
#
# Velocity S-wave (km/s) = 3.57537 3.91250 3.74773
# Velocity P-wave (km/s) = 5.94684 6.42677 6.19146
#
# Compressibility (1/GPa) = 0.02765887
#
# Stress axis : x y z
#
# Youngs Moduli (GPa) = 62.36129 90.97304 61.35309
#
# Poissons Ratio (x) = 0.34053 0.16511
# Poissons Ratio (y) = 0.23343 0.08588
# Poissons Ratio (z) = 0.16782 0.12734
#
# Static dielectric constant tensor:
#      x y z
#    x 1.755980 0.000000 -0.011510 
#    y 0.000000 1.607100 0.000000 
#    z -0.011510 0.000000 1.616220 
# 
# From -- ./inp_files/214004.got.cif
#   From: 2010.05.17/outbox.cif.g08.bks.cpg/sg15_108_cif.got.tgz:214004.got - 2010.06.03 18:47:42.
