data_PCOD9277852
_publ_section_title
;
Structure prediction by ZEFSAII (Michael W. Deem and Ramdas Pophale) SiO2 
 PCOD9277852
Probable space group: C 2/C
;
_chemical_formula_sum "Si O2"
_cell_formula_units_Z 40
_cell_length_a 21.737637
_cell_length_b 9.788586
_cell_length_c 18.024963
_cell_angle_alpha 90.000000
_cell_angle_beta 26.916101
_cell_angle_gamma 90.000000
_cell_volume 1736.213253
_symmetry_space_group_name_H-M "C 2/C"
_symmetry_group_IT_number 15
_symmetry_cell_setting 'monoclinic'
loop_
_space_group_symop_operation_xyz
x,y,z
-x,y,1/2-z
-x,-y,-z
x,-y,1/2+z
1/2+x,1/2+y,z
1/2-x,1/2+y,1/2-z
1/2-x,1/2-y,-z
1/2+x,1/2-y,1/2+z
loop_
_atom_site_type_symbol
_atom_site_label
_atom_site_fract_x
_atom_site_fract_y
_atom_site_fract_z
Si Si1 0.155701 0.370140 0.573807
Si Si2 0.523312 0.576421 0.303771
Si Si3 0.721641 0.516849 0.703504
Si Si4 0.381642 0.141846 0.813950
Si Si5 0.761767 0.805987 0.167500
O O1 0.250000 0.250000 0.500000
O O2 0.177496 0.419997 0.466039
O O3 0.189201 0.500584 0.589070
O O4 0.000000 0.330938 0.750000
O O5 0.500000 0.506558 0.250000
O O6 0.580215 0.486609 0.309252
O O7 0.638318 0.693091 0.161175
O O8 0.390749 0.656544 0.476229
O O9 0.753691 0.357714 0.686989
O O10 0.720328 0.611172 0.776449
O O11 0.500000 0.132458 0.750000
O O12 0.371201 0.140149 0.734777
#
# Coordination Sequence:
#
# PCOD9277852 Si02
#       5
#     8   8   8   8   8
#     4  11  25  46  69 102 139 186 243 293 352 423
#     4  10  20  41  73 103 133 184 245 294 340 424
#     4  11  25  44  68 106 141 189 229 291 364 416
#     4   9  20  40  66  95 129 176 236 281 342 410
#     4  11  23  42  71 101 150 181 232 294 355 424
#
# _framework density 23.038644999999999
#
# number of rings (size 3 to 8) (size 9 to 14) (size 15 to 20)
#    0.000    1.600    0.000    5.400    2.800    8.000 
#    7.200    8.000    0.000    0.000    0.000    0.000 
#    0.000    0.000    0.000    0.000    0.000    0.000 
#
# Total GULP energy -111399.335573 kJ/mol
# GULP energy per Si atom -5569.966779 kJ/mol
# Density = 2.298621 g / cm^3
# Si number density = 23.038645 Si / 1000 Ang^3
#
#
#
# Elastic Constant Matrix: (Units=GPa)
#
#
# Indices 1 2 3 4 5 6 
#
# 1 187.6499 85.0499 32.5259 0.0000 39.2934 0.0000
# 2 85.0499 158.3605 46.7743 0.0000 25.1139 0.0000
# 3 32.5259 46.7743 73.9052 0.0000 17.0849 0.0000
# 4 0.0000 0.0000 0.0000 26.2362 0.0000 1.4216
# 5 39.2934 25.1139 17.0849 0.0000 48.7404 0.0000
# 6 0.0000 0.0000 0.0000 1.4216 0.0000 47.1843
#
#
#
# Elastic Compliance Matrix: (Units=1/GPa)
#
#
# Indices 1 2 3 4 5 6 
#
# 1 0.007872 -0.003443 -0.000249 0.000000 -0.004485 0.000000
# 2 -0.003443 0.009558 -0.004393 0.000000 -0.000609 0.000000
# 3 -0.000249 -0.004393 0.017249 0.000000 -0.003582 0.000000
# 4 0.000000 0.000000 0.000000 0.038178 0.000000 -0.001150
# 5 -0.004485 -0.000609 -0.003582 0.000000 0.025702 0.000000
# 6 0.000000 0.000000 0.000000 -0.001150 0.000000 0.021228
#
#
# Mechanical properties :
#
#
# Convention : Reuss Voigt Hill
#
# Bulk Modulus (GPa) = 54.02718 83.17954 68.60336
# Shear Modulus (GPa) = 35.18020 41.46987 38.32503
#
# Velocity S-wave (km/s) = 3.91193 4.24726 4.08304
# Velocity P-wave (km/s) = 6.62615 7.76112 7.21599
#
# Compressibility (1/GPa) = 0.01850920
#
# Stress axis : x y z
#
# Youngs Moduli (GPa) = 127.03616 104.62420 57.97534
#
# Poissons Ratio (x) = 0.36022 0.01441
# Poissons Ratio (y) = 0.43739 0.25469
# Poissons Ratio (z) = 0.03157 0.45962
#
# Static dielectric constant tensor:
#      x y z
#    x 1.912870 0.000000 -0.158920 
#    y 0.000000 1.865040 0.000000 
#    z -0.158920 0.000000 2.293190 
# 
# From -- ./inp_files/218781.got.cif
#   From: 2010.05.17/outbox.cif.g08.bks.cpg/sg15_110_cif.got.tgz:218781.got - 2010.06.03 18:47:42.
