data_PCOD9277435
_publ_section_title
;
Structure prediction by ZEFSAII (Michael W. Deem and Ramdas Pophale) SiO2 
 PCOD9277435
Probable space group: C 2/C
;
_chemical_formula_sum "Si O2"
_cell_formula_units_Z 48
_cell_length_a 9.107835
_cell_length_b 29.856229
_cell_length_c 13.510422
_cell_angle_alpha 90.000000
_cell_angle_beta 42.475910
_cell_angle_gamma 90.000000
_cell_volume 2480.864313
_symmetry_space_group_name_H-M "C 2/C"
_symmetry_group_IT_number 15
_symmetry_cell_setting 'monoclinic'
loop_
_space_group_symop_operation_xyz
x,y,z
-x,y,1/2-z
-x,-y,-z
x,-y,1/2+z
1/2+x,1/2+y,z
1/2-x,1/2+y,1/2-z
1/2-x,1/2-y,-z
1/2+x,1/2-y,1/2+z
loop_
_atom_site_type_symbol
_atom_site_label
_atom_site_fract_x
_atom_site_fract_y
_atom_site_fract_z
Si Si1 0.989627 0.206581 0.870742
Si Si2 0.107981 0.870934 0.803114
Si Si3 0.077539 0.047203 0.825922
Si Si4 0.748239 0.636247 0.845722
Si Si5 0.980969 0.307138 0.876594
Si Si6 0.738291 0.038466 0.173005
O O1 0.000000 0.213254 0.750000
O O2 0.194682 0.180280 0.809319
O O3 0.978698 0.256576 0.922457
O O4 0.769328 0.177045 0.990184
O O5 0.313679 0.836882 0.694291
O O6 0.197467 0.918661 0.794442
O O7 0.000000 0.873661 0.750000
O O8 0.918731 0.860039 0.977947
O O9 0.184842 0.093411 0.810040
O O10 0.000000 0.048697 0.750000
O O11 0.235178 0.005517 0.772240
O O12 0.885457 0.037794 0.000605
O O13 0.000000 0.633284 0.750000
O O14 0.000000 0.304032 0.750000
O O15 0.500000 0.043079 0.250000
#
# Coordination Sequence:
#
# PCOD9277435 Si02
#       6
#     8   8   8   8   8   8
#     4  10  22  38  64  91 116 159 203 251 309 362
#     4  11  24  39  61  88 122 164 203 250 306 359
#     4  10  22  40  62  90 124 159 201 248 303 357
#     4  11  24  40  58  89 126 159 203 253 302 363
#     4  10  20  41  63  87 121 155 206 256 300 363
#     4  10  22  39  63  91 121 159 203 250 297 359
#
# _framework density 19.348096999999999
#
# number of rings (size 3 to 8) (size 9 to 14) (size 15 to 20)
#    0.000    1.667    1.667    2.000    4.667    2.667 
#    0.000    1.667    0.000    0.000    0.000    0.000 
#    0.000    0.000    0.000    0.000    0.000    0.000 
#
# Total GULP energy -133767.707882 kJ/mol
# GULP energy per Si atom -5573.654495 kJ/mol
# Density = 1.930406 g / cm^3
# Si number density = 19.348097 Si / 1000 Ang^3
#
#
#
# Elastic Constant Matrix: (Units=GPa)
#
#
# Indices 1 2 3 4 5 6 
#
# 1 147.4122 33.5381 30.5582 0.0000 11.4154 0.0000
# 2 33.5381 55.8566 3.5409 0.0000 11.2585 0.0000
# 3 30.5582 3.5409 48.8989 0.0000 -5.1663 0.0000
# 4 0.0000 0.0000 0.0000 20.9096 0.0000 -2.2812
# 5 11.4154 11.2585 -5.1663 0.0000 26.2640 0.0000
# 6 0.0000 0.0000 0.0000 -2.2812 0.0000 43.5984
#
#
#
# Elastic Compliance Matrix: (Units=1/GPa)
#
#
# Indices 1 2 3 4 5 6 
#
# 1 0.009272 -0.004550 -0.005805 0.000000 -0.003221 0.000000
# 2 -0.004550 0.022098 0.000461 0.000000 -0.007405 0.000000
# 3 -0.005805 0.000461 0.024806 0.000000 0.007205 0.000000
# 4 0.000000 0.000000 0.000000 0.048099 0.000000 0.002517
# 5 -0.003221 -0.007405 0.007205 0.000000 0.044066 0.000000
# 6 0.000000 0.000000 0.000000 0.002517 0.000000 0.023068
#
#
# Mechanical properties :
#
#
# Convention : Reuss Voigt Hill
#
# Bulk Modulus (GPa) = 27.48182 43.04913 35.26547
# Shear Modulus (GPa) = 24.59095 30.45644 27.52369
#
# Velocity S-wave (km/s) = 3.56894 3.97184 3.77577
# Velocity P-wave (km/s) = 5.58729 6.58271 6.10532
#
# Compressibility (1/GPa) = 0.03638769
#
# Stress axis : x y z
#
# Youngs Moduli (GPa) = 107.85594 45.25294 40.31296
#
# Poissons Ratio (x) = 0.20589 0.23402
# Poissons Ratio (y) = 0.49071 -0.01857
# Poissons Ratio (z) = 0.62610 -0.02085
#
# Static dielectric constant tensor:
#      x y z
#    x 1.624520 0.000000 0.053670 
#    y 0.000000 1.703760 0.000000 
#    z 0.053670 0.000000 -0.379120 
# 
# From -- ./inp_files/139370.got.cif
#   From: 2010.05.17/outbox.cif.g08.bks.cpg/sg15_70_cif.got.tgz:139370.got - 2010.06.03 18:47:42.
