data_PCOD9277803
_publ_section_title
;
Structure prediction by ZEFSAII (Michael W. Deem and Ramdas Pophale) SiO2 
 PCOD9277803
Probable space group: C 2/C
;
_chemical_formula_sum "Si O2"
_cell_formula_units_Z 40
_cell_length_a 9.688761
_cell_length_b 7.464285
_cell_length_c 22.595123
_cell_angle_alpha 90.000000
_cell_angle_beta 87.805308
_cell_angle_gamma 90.000000
_cell_volume 1632.873273
_symmetry_space_group_name_H-M "C 2/C"
_symmetry_group_IT_number 15
_symmetry_cell_setting 'monoclinic'
loop_
_space_group_symop_operation_xyz
x,y,z
-x,y,1/2-z
-x,-y,-z
x,-y,1/2+z
1/2+x,1/2+y,z
1/2-x,1/2+y,1/2-z
1/2-x,1/2-y,-z
1/2+x,1/2-y,1/2+z
loop_
_atom_site_type_symbol
_atom_site_label
_atom_site_fract_x
_atom_site_fract_y
_atom_site_fract_z
Si Si1 0.246314 0.562739 0.678256
Si Si2 0.536099 0.418625 0.142128
Si Si3 0.806578 0.352934 0.196163
Si Si4 0.974714 0.673467 0.900847
Si Si5 0.085610 0.807124 0.013141
O O1 0.397536 0.649612 0.675166
O O2 0.157716 0.624044 0.735931
O O3 0.270581 0.353669 0.685911
O O4 0.173078 0.604970 0.617674
O O5 0.660420 0.443877 0.185410
O O6 0.513997 0.618103 0.117670
O O7 0.570032 0.298276 0.084236
O O8 0.913038 0.416421 0.144409
O O9 0.008086 0.674290 0.969218
O O10 0.250000 0.750000 0.000000
O O11 0.000000 0.000000 0.000000
#
# Coordination Sequence:
#
# PCOD9277803 Si02
#       5
#     8   8   8   8   8
#     4  11  24  38  61  94 122 167 214 266 326 395
#     4  10  22  40  63  88 128 163 214 269 329 394
#     4  11  22  40  60  88 128 163 212 265 325 398
#     4  10  22  40  63  89 123 167 214 263 333 396
#     4  10  20  41  70  94 128 178 223 277 346 412
#
# _framework density 24.496694999999999
#
# number of rings (size 3 to 8) (size 9 to 14) (size 15 to 20)
#    0.000    1.600    2.000    2.400    0.000    8.800 
#    0.000    1.000    0.000    0.000    0.000    0.000 
#    0.000    0.000    0.000    0.000    0.000    0.000 
#
# Total GULP energy -111542.325409 kJ/mol
# GULP energy per Si atom -5577.116270 kJ/mol
# Density = 2.444094 g / cm^3
# Si number density = 24.496695 Si / 1000 Ang^3
#
#
#
# Elastic Constant Matrix: (Units=GPa)
#
#
# Indices 1 2 3 4 5 6 
#
# 1 102.2208 4.7067 6.1308 0.0000 -1.7017 0.0000
# 2 4.7067 64.6492 28.5252 0.0000 -6.9587 0.0000
# 3 6.1308 28.5252 76.8169 0.0000 10.3740 0.0000
# 4 0.0000 0.0000 0.0000 32.7919 0.0000 7.2640
# 5 -1.7017 -6.9587 10.3740 0.0000 46.1625 0.0000
# 6 0.0000 0.0000 0.0000 7.2640 0.0000 17.0672
#
#
#
# Elastic Compliance Matrix: (Units=1/GPa)
#
#
# Indices 1 2 3 4 5 6 
#
# 1 0.009850 -0.000348 -0.000721 0.000000 0.000473 0.000000
# 2 -0.000348 0.019450 -0.007827 0.000000 0.004678 0.000000
# 3 -0.000721 -0.007827 0.016650 0.000000 -0.004948 0.000000
# 4 0.000000 0.000000 0.000000 0.033670 0.000000 -0.014330
# 5 0.000473 0.004678 -0.004948 0.000000 0.023497 0.000000
# 6 0.000000 0.000000 0.000000 -0.014330 0.000000 0.064691
#
#
# Mechanical properties :
#
#
# Convention : Reuss Voigt Hill
#
# Bulk Modulus (GPa) = 35.51240 35.82358 35.66799
# Shear Modulus (GPa) = 25.64290 32.82593 29.23442
#
# Velocity S-wave (km/s) = 3.23892 3.66459 3.45831
# Velocity P-wave (km/s) = 5.34002 5.70625 5.52617
#
# Compressibility (1/GPa) = 0.02815918
#
# Stress axis : x y z
#
# Youngs Moduli (GPa) = 101.52422 51.41294 60.05980
#
# Poissons Ratio (x) = 0.01791 0.04328
# Poissons Ratio (y) = 0.03536 0.47007
# Poissons Ratio (z) = 0.07316 0.40239
#
# Static dielectric constant tensor:
#      x y z
#    x 2.040650 0.000000 -0.001760 
#    y 0.000000 2.048200 0.000000 
#    z -0.001760 0.000000 1.899310 
# 
# From -- ./inp_files/262525.got.cif
#   From: 2010.05.17/outbox.cif.g08.bks.cpg/sg15_132_cif.got.tgz:262525.got - 2010.06.03 18:47:42.
