data_PCOD9277323
_publ_section_title
;
Structure prediction by ZEFSAII (Michael W. Deem and Ramdas Pophale) SiO2 
 PCOD9277323
Probable space group: C 2/C
;
_chemical_formula_sum "Si O2"
_cell_formula_units_Z 56
_cell_length_a 7.498742
_cell_length_b 12.245710
_cell_length_c 23.272169
_cell_angle_alpha 90.000000
_cell_angle_beta 91.434134
_cell_angle_gamma 90.000000
_cell_volume 2136.353827
_symmetry_space_group_name_H-M "C 2/C"
_symmetry_group_IT_number 15
_symmetry_cell_setting 'monoclinic'
loop_
_space_group_symop_operation_xyz
x,y,z
-x,y,1/2-z
-x,-y,-z
x,-y,1/2+z
1/2+x,1/2+y,z
1/2-x,1/2+y,1/2-z
1/2-x,1/2-y,-z
1/2+x,1/2-y,1/2+z
loop_
_atom_site_type_symbol
_atom_site_label
_atom_site_fract_x
_atom_site_fract_y
_atom_site_fract_z
Si Si1 0.485990 0.378514 0.161929
Si Si2 0.248123 0.384922 0.565687
Si Si3 0.899155 0.859513 0.456501
Si Si4 0.612289 0.134899 0.180017
Si Si5 0.554634 0.971277 0.402050
Si Si6 0.671758 0.418083 0.710108
Si Si7 0.890840 0.321882 0.308785
O O1 0.457675 0.379375 0.092508
O O2 0.569835 0.262544 0.180591
O O3 0.629766 0.471211 0.176438
O O4 0.701984 0.386066 0.307156
O O5 0.149788 0.269428 0.550261
O O6 0.415681 0.386901 0.524153
O O7 0.273225 0.381402 0.634647
O O8 0.104717 0.482985 0.558898
O O9 0.728323 0.933132 0.436941
O O10 0.671562 0.092923 0.241856
O O11 0.452999 0.068613 0.146548
O O12 0.497860 0.868941 0.363097
O O13 0.500000 0.412546 0.750000
O O14 0.660901 0.302054 0.678659
O O15 0.000000 0.331696 0.250000
#
# Coordination Sequence:
#
# PCOD9277323 Si02
#       7
#     8   8   8   8   8   8   8
#     4  11  26  45  69 102 146 184 239 292 358 428
#     4   8  20  40  68 104 139 179 237 288 364 420
#     4  10  20  40  73 102 135 184 234 300 356 426
#     4   9  23  41  69 105 138 184 233 289 349 426
#     4  10  22  41  69  98 138 178 237 287 350 424
#     4  11  26  43  68  98 142 194 230 292 354 428
#     4  11  28  48  66 100 144 191 237 294 359 431
#
# _framework density 26.212885
#
# number of rings (size 3 to 8) (size 9 to 14) (size 15 to 20)
#    0.857    1.143    0.000    1.286   14.000    0.000 
#    2.571    0.714    0.000    8.571    0.000    0.000 
#    0.000    0.000    0.000    0.000    0.000    0.000 
#
# Total GULP energy -156574.802402 kJ/mol
# GULP energy per Si atom -5591.957229 kJ/mol
# Density = 2.615322 g / cm^3
# Si number density = 26.212885 Si / 1000 Ang^3
#
#
#
# Elastic Constant Matrix: (Units=GPa)
#
#
# Indices 1 2 3 4 5 6 
#
# 1 116.0160 38.6608 30.8282 0.0000 -12.0893 0.0000
# 2 38.6608 166.1740 22.7184 0.0000 4.4101 0.0000
# 3 30.8282 22.7184 117.8475 0.0000 -21.5240 0.0000
# 4 0.0000 0.0000 0.0000 21.5886 0.0000 -9.4021
# 5 -12.0893 4.4101 -21.5240 0.0000 37.4996 0.0000
# 6 0.0000 0.0000 0.0000 -9.4021 0.0000 32.0929
#
#
#
# Elastic Compliance Matrix: (Units=1/GPa)
#
#
# Indices 1 2 3 4 5 6 
#
# 1 0.010069 -0.002168 -0.001761 0.000000 0.002490 0.000000
# 2 -0.002168 0.006732 -0.001120 0.000000 -0.002134 0.000000
# 3 -0.001761 -0.001120 0.010146 0.000000 0.005388 0.000000
# 4 0.000000 0.000000 0.000000 0.053095 0.000000 0.015555
# 5 0.002490 -0.002134 0.005388 0.000000 0.030813 0.000000
# 6 0.000000 0.000000 0.000000 0.015555 0.000000 0.035717
#
#
# Mechanical properties :
#
#
# Convention : Reuss Voigt Hill
#
# Bulk Modulus (GPa) = 59.35284 64.93915 62.14600
# Shear Modulus (GPa) = 30.80938 38.75823 34.78381
#
# Velocity S-wave (km/s) = 3.43206 3.84942 3.64672
# Velocity P-wave (km/s) = 6.19654 6.67719 6.44135
#
# Compressibility (1/GPa) = 0.01684839
#
# Stress axis : x y z
#
# Youngs Moduli (GPa) = 99.31007 148.54495 98.55803
#
# Poissons Ratio (x) = 0.32204 0.17360
# Poissons Ratio (y) = 0.21530 0.11042
# Poissons Ratio (z) = 0.17492 0.16642
#
# Static dielectric constant tensor:
#      x y z
#    x 2.268950 0.000000 -0.124830 
#    y 0.000000 2.090210 0.000000 
#    z -0.124830 0.000000 2.149790 
# 
# From -- ./inp_files/291845.got.cif
#   From: 2010.05.17/outbox.cif.g08.bks.cpg/sg15_146_cif.got.tgz:291845.got - 2010.06.03 18:47:42.
