data_PCOD9277370
_publ_section_title
;
Structure prediction by ZEFSAII (Michael W. Deem and Ramdas Pophale) SiO2 
 PCOD9277370
Probable space group: C 2/C
;
_chemical_formula_sum "Si O2"
_cell_formula_units_Z 56
_cell_length_a 13.674475
_cell_length_b 23.894578
_cell_length_c 15.708748
_cell_angle_alpha 90.000000
_cell_angle_beta 153.882719
_cell_angle_gamma 90.000000
_cell_volume 2259.495639
_symmetry_space_group_name_H-M "C 2/C"
_symmetry_group_IT_number 15
_symmetry_cell_setting 'monoclinic'
loop_
_space_group_symop_operation_xyz
x,y,z
-x,y,1/2-z
-x,-y,-z
x,-y,1/2+z
1/2+x,1/2+y,z
1/2-x,1/2+y,1/2-z
1/2-x,1/2-y,-z
1/2+x,1/2-y,1/2+z
loop_
_atom_site_type_symbol
_atom_site_label
_atom_site_fract_x
_atom_site_fract_y
_atom_site_fract_z
Si Si1 0.710419 0.682174 0.140229
Si Si2 0.710965 0.190672 0.628450
Si Si3 0.500000 0.394380 0.750000
Si Si4 0.760170 0.440279 0.605154
Si Si5 0.500000 0.605620 0.750000
Si Si6 0.289039 0.190672 0.371553
Si Si7 0.210416 0.182174 0.640226
Si Si8 0.760170 0.440279 0.105154
O O1 0.758173 0.744447 0.139922
O O2 0.752887 0.617882 0.148587
O O3 0.929645 0.686362 0.383271
O O4 0.566625 0.683256 0.121024
O O5 0.807160 0.145684 0.636521
O O6 0.570358 0.186362 0.616731
O O7 0.933378 0.183256 0.878979
O O8 0.307160 0.354315 0.636521
O O9 0.415582 0.432442 0.607501
O O10 0.584418 0.432442 0.392499
O O11 0.726518 0.500000 0.624655
O O12 0.000000 0.442242 0.750000
O O13 0.241830 0.255553 0.360080
O O14 0.252885 0.117882 0.648586
O O15 0.000000 0.442242 0.250000
#
# Coordination Sequence:
#
# PCOD9277370 Si02
#       8
#     8   8   4   8   4   8   8   8
#     4  10  20  41  60  90 129 163 209 264 319 383
#     4  10  22  38  64  98 128 158 211 271 317 386
#     4  12  23  42  70  96 127 174 210 266 332 370
#     4  11  25  43  64  93 130 172 221 264 309 385
#     4  12  23  42  70  96 127 174 210 266 332 370
#     4  10  22  38  64  98 128 158 211 271 317 386
#     4  10  20  41  60  90 129 163 209 264 319 383
#     4  11  25  43  64  93 130 172 221 264 309 385
#
# _framework density 24.784293000000002
#
# number of rings (size 3 to 8) (size 9 to 14) (size 15 to 20)
#    0.000    1.429    2.857    2.143    2.000    1.714 
#    0.000    0.000    0.000    6.000    0.000    0.000 
#    0.000    0.000    0.000    0.000    0.000    0.000 
#
# Total GULP energy -155941.327264 kJ/mol
# GULP energy per Si atom -5569.333117 kJ/mol
# Density = 2.472788 g / cm^3
# Si number density = 24.784293 Si / 1000 Ang^3
#
#
#
# Elastic Constant Matrix: (Units=GPa)
#
#
# Indices 1 2 3 4 5 6 
#
# 1 33.4633 45.5397 17.0419 0.0003 17.1240 0.0002
# 2 45.5397 284.1634 51.6824 0.0003 0.3572 0.0002
# 3 17.0419 51.6824 175.8385 -0.0011 6.0870 0.0005
# 4 0.0003 0.0003 -0.0011 39.2177 0.0001 -5.3509
# 5 17.1240 0.3572 6.0870 0.0001 61.6643 0.0002
# 6 0.0002 0.0002 0.0005 -5.3509 0.0002 22.1435
#
#
#
# Elastic Compliance Matrix: (Units=1/GPa)
#
#
# Indices 1 2 3 4 5 6 
#
# 1 0.047307 -0.007197 -0.002023 0.000000 -0.012896 0.000000
# 2 -0.007197 0.004813 -0.000788 0.000000 0.002049 0.000000
# 3 -0.002023 -0.000788 0.006116 0.000000 -0.000037 0.000000
# 4 0.000000 0.000000 0.000000 0.026368 0.000000 0.006372
# 5 -0.012896 0.002049 -0.000037 0.000000 0.019790 0.000000
# 6 0.000000 0.000000 0.000000 0.006372 0.000000 0.046700
#
#
# Mechanical properties :
#
#
# Convention : Reuss Voigt Hill
#
# Bulk Modulus (GPa) = 26.16440 80.22148 53.19294
# Shear Modulus (GPa) = 27.19590 49.88518 38.54054
#
# Velocity S-wave (km/s) = 3.31615 4.49126 3.94768
# Velocity P-wave (km/s) = 5.02417 7.70282 6.50291
#
# Compressibility (1/GPa) = 0.03821986
#
# Stress axis : x y z
#
# Youngs Moduli (GPa) = 21.13830 207.75804 163.50448
#
# Poissons Ratio (x) = 1.49529 0.33079
# Poissons Ratio (y) = 0.15214 0.12886
# Poissons Ratio (z) = 0.04276 0.16373
#
# Static dielectric constant tensor:
#      x y z
#    x 1.987350 0.000000 -0.054250 
#    y 0.000000 1.786810 0.000000 
#    z -0.054250 0.000000 2.467250 
# 
# From -- ./inp_files/192032.got.cif
#   From: 2010.05.17/outbox.cif.g08.bks.cpg/sg15_97_cif.got.tgz:192032.got - 2010.06.03 18:47:42.
