data_PCOD9277856
_publ_section_title
;
Structure prediction by ZEFSAII (Michael W. Deem and Ramdas Pophale) SiO2 
 PCOD9277856
Probable space group: C 2/C
;
_chemical_formula_sum "Si O2"
_cell_formula_units_Z 48
_cell_length_a 25.080409
_cell_length_b 11.287801
_cell_length_c 14.876143
_cell_angle_alpha 90.000000
_cell_angle_beta 151.038638
_cell_angle_gamma 90.000000
_cell_volume 2039.279525
_symmetry_space_group_name_H-M "C 2/C"
_symmetry_group_IT_number 15
_symmetry_cell_setting 'monoclinic'
loop_
_space_group_symop_operation_xyz
x,y,z
-x,y,1/2-z
-x,-y,-z
x,-y,1/2+z
1/2+x,1/2+y,z
1/2-x,1/2+y,1/2-z
1/2-x,1/2-y,-z
1/2+x,1/2-y,1/2+z
loop_
_atom_site_type_symbol
_atom_site_label
_atom_site_fract_x
_atom_site_fract_y
_atom_site_fract_z
Si Si1 0.240125 0.471472 0.745242
Si Si2 0.492870 0.913660 0.642884
Si Si3 0.375551 0.491182 0.280846
Si Si4 0.084274 0.328369 0.257294
Si Si5 0.315618 0.377783 0.509757
Si Si6 0.386700 0.225442 0.338430
O O1 0.130697 0.549806 0.566380
O O2 0.297703 0.440819 0.736735
O O3 0.204792 0.358002 0.751301
O O4 0.320097 0.551676 0.924115
O O5 0.500000 0.852503 0.750000
O O6 0.556175 0.841491 0.660473
O O7 0.553463 0.040127 0.740437
O O8 0.500000 0.500000 0.500000
O O9 0.357653 0.542629 0.155434
O O10 0.344852 0.352665 0.245074
O O11 0.189588 0.344021 0.347583
O O12 0.118711 0.244264 0.389280
O O13 0.984771 0.269203 0.056113
#
# Coordination Sequence:
#
# PCOD9277856 Si02
#       6
#     8   8   8   8   8   8
#     4  11  25  45  72 103 137 188 247 285 351 426
#     4  11  22  44  74 108 135 187 240 288 354 427
#     4  12  28  47  66 104 148 184 233 296 363 417
#     4  10  20  41  73  97 137 177 231 292 333 420
#     4  11  22  43  71 103 136 181 237 287 351 412
#     4  11  23  48  72 102 148 181 229 299 356 428
#
# _framework density 23.537724000000001
#
# number of rings (size 3 to 8) (size 9 to 14) (size 15 to 20)
#    0.000    1.000    5.000    2.000    0.000    8.000 
#    3.000    0.000    0.000    0.000    0.000    0.000 
#    0.000    0.000    0.000    0.000    0.000    0.000 
#
# Total GULP energy -134542.831289 kJ/mol
# GULP energy per Si atom -5605.951304 kJ/mol
# Density = 2.348415 g / cm^3
# Si number density = 23.537724 Si / 1000 Ang^3
#
#
#
# Elastic Constant Matrix: (Units=GPa)
#
#
# Indices 1 2 3 4 5 6 
#
# 1 102.1863 22.8040 25.7914 0.0000 -2.7707 0.0000
# 2 22.8040 78.2326 32.5387 0.0000 -8.5063 0.0000
# 3 25.7914 32.5387 72.4011 0.0000 -14.1057 0.0000
# 4 0.0000 0.0000 0.0000 25.5685 0.0000 -4.4411
# 5 -2.7707 -8.5063 -14.1057 0.0000 35.0309 0.0000
# 6 0.0000 0.0000 0.0000 -4.4411 0.0000 -10.1043
#
#
#
# Elastic Compliance Matrix: (Units=1/GPa)
#
#
# Indices 1 2 3 4 5 6 
#
# 1 0.011012 -0.001972 -0.003212 0.000000 -0.000901 0.000000
# 2 -0.001972 0.016110 -0.006300 0.000000 0.001219 0.000000
# 3 -0.003212 -0.006300 0.018925 0.000000 0.005836 0.000000
# 4 0.000000 0.000000 0.000000 0.036337 0.000000 -0.015971
# 5 -0.000901 0.001219 0.005836 0.000000 0.031121 0.000000
# 6 0.000000 0.000000 0.000000 -0.015971 0.000000 -0.091948
#
#
# Mechanical properties :
#
#
# Convention : Reuss Voigt Hill
#
# Bulk Modulus (GPa) = 43.33068 46.12092 44.72580
# Shear Modulus (GPa) = 95.75087 21.54474 58.64781
#
# Velocity S-wave (km/s) = 6.38499 3.02872 4.99706
# Velocity P-wave (km/s) = 8.53267 5.64516 7.23444
#
# Compressibility (1/GPa) = 0.02307834
#
# Stress axis : x y z
#
# Youngs Moduli (GPa) = 90.80638 62.07247 52.84050
#
# Poissons Ratio (x) = 0.12240 0.16974
# Poissons Ratio (y) = 0.17907 0.33291
# Poissons Ratio (z) = 0.29170 0.39108
#
# Static dielectric constant tensor:
#      x y z
#    x 1.916980 0.000000 0.006950 
#    y 0.000000 1.874820 0.000000 
#    z 0.006950 0.000000 1.888280 
# 
# From -- ./inp_files/152468.got.cif
#   From: 2010.05.17/outbox.cif.g08.bks.cpg/sg15_77_cif.got.tgz:152468.got - 2010.06.03 18:47:42.
