data_PCOD9277580
_publ_section_title
;
Structure prediction by ZEFSAII (Michael W. Deem and Ramdas Pophale) SiO2 
 PCOD9277580
Probable space group: C 2/C
;
_chemical_formula_sum "Si O2"
_cell_formula_units_Z 56
_cell_length_a 13.993764
_cell_length_b 19.806741
_cell_length_c 17.815861
_cell_angle_alpha 90.000000
_cell_angle_beta 148.510495
_cell_angle_gamma 90.000000
_cell_volume 2579.346240
_symmetry_space_group_name_H-M "C 2/C"
_symmetry_group_IT_number 15
_symmetry_cell_setting 'monoclinic'
loop_
_space_group_symop_operation_xyz
x,y,z
-x,y,1/2-z
-x,-y,-z
x,-y,1/2+z
1/2+x,1/2+y,z
1/2-x,1/2+y,1/2-z
1/2-x,1/2-y,-z
1/2+x,1/2-y,1/2+z
loop_
_atom_site_type_symbol
_atom_site_label
_atom_site_fract_x
_atom_site_fract_y
_atom_site_fract_z
Si Si1 0.404231 0.206804 0.261628
Si Si2 0.922929 0.426322 0.961477
Si Si3 0.789675 0.712234 0.619229
Si Si4 0.038600 0.714234 0.515343
Si Si5 0.763409 0.071652 0.318451
Si Si6 0.333242 0.608555 0.080449
Si Si7 0.318118 0.427615 0.407885
O O1 0.500000 0.231774 0.250000
O O2 0.520292 0.220450 0.413559
O O3 0.361353 0.127055 0.225284
O O4 0.210145 0.240798 0.151335
O O5 0.064490 0.364973 0.048428
O O6 0.774719 0.414620 0.795237
O O7 0.831844 0.418121 0.980611
O O8 0.000000 0.500000 0.000000
O O9 0.645338 0.761351 0.563834
O O10 0.791147 0.819352 0.512537
O O11 0.790400 0.642542 0.669720
O O12 0.000000 0.732521 0.750000
O O13 0.975164 0.082488 0.482949
O O14 0.726981 0.993321 0.311802
O O15 0.500000 0.611135 0.250000
O O16 0.350398 0.561295 0.018893
#
# Coordination Sequence:
#
# PCOD9277580 Si02
#       7
#     8   8   8   8   8   8   8
#     4  11  24  45  71  95 133 182 235 280 342 401
#     4  11  25  40  65  92 137 172 219 279 346 398
#     4  10  23  41  69 106 134 180 220 280 341 424
#     4  11  26  46  66 101 138 175 228 287 342 408
#     4  10  20  41  65  95 130 181 220 283 335 398
#     4  10  21  41  66 101 136 171 225 273 343 411
#     4   9  20  37  67  92 134 172 227 267 338 404
#
# _framework density 21.710927999999999
#
# number of rings (size 3 to 8) (size 9 to 14) (size 15 to 20)
#    0.857    0.857    2.857    0.429    6.000    4.000 
#    0.000    0.714    0.000    0.000    0.000    0.000 
#    0.000    0.000    0.000    0.000    0.000    0.000 
#
# Total GULP energy -156313.384349 kJ/mol
# GULP energy per Si atom -5582.620870 kJ/mol
# Density = 2.166151 g / cm^3
# Si number density = 21.710928 Si / 1000 Ang^3
#
#
#
# Elastic Constant Matrix: (Units=GPa)
#
#
# Indices 1 2 3 4 5 6 
#
# 1 102.8558 8.1171 5.1554 -0.0006 -2.5125 0.0011
# 2 8.1171 93.6928 -4.1325 -0.0023 6.8163 0.0022
# 3 5.1554 -4.1325 48.4646 0.0074 -2.7544 0.0048
# 4 -0.0006 -0.0023 0.0074 20.1337 0.0033 -12.9137
# 5 -2.5125 6.8163 -2.7544 0.0033 30.4631 0.0017
# 6 0.0011 0.0022 0.0048 -12.9137 0.0017 19.1046
#
#
#
# Elastic Compliance Matrix: (Units=1/GPa)
#
#
# Indices 1 2 3 4 5 6 
#
# 1 0.009876 -0.000971 -0.001080 0.000000 0.000934 0.000000
# 2 -0.000971 0.010976 0.000900 0.000001 -0.002455 -0.000001
# 3 -0.001080 0.000900 0.020916 -0.000020 0.001601 -0.000019
# 4 0.000000 0.000001 -0.000020 0.087682 -0.000015 0.059269
# 5 0.000934 -0.002455 0.001601 -0.000015 0.033598 -0.000013
# 6 0.000000 -0.000001 -0.000019 0.059269 -0.000013 0.092406
#
#
# Mechanical properties :
#
#
# Convention : Reuss Voigt Hill
#
# Bulk Modulus (GPa) = 25.33945 29.25480 27.29712
# Shear Modulus (GPa) = 18.45616 29.66515 24.06066
#
# Velocity S-wave (km/s) = 2.91879 3.70045 3.33262
# Velocity P-wave (km/s) = 4.80164 5.63576 5.23534
#
# Compressibility (1/GPa) = 0.03946416
#
# Stress axis : x y z
#
# Youngs Moduli (GPa) = 101.25591 91.11138 47.80975
#
# Poissons Ratio (x) = 0.08849 0.05165
# Poissons Ratio (y) = 0.09834 -0.04301
# Poissons Ratio (z) = 0.10938 -0.08197
#
# Static dielectric constant tensor:
#      x y z
#    x 1.798450 0.000000 -0.012100 
#    y 0.000000 1.822030 0.000000 
#    z -0.012100 0.000000 1.807260 
# 
# From -- ./inp_files/245107.got.cif
#   From: 2010.05.17/outbox.cif.g08.bks.cpg/sg15_123_cif.got.tgz:245107.got - 2010.06.03 18:47:42.
