data_PCOD9277070
_publ_section_title
;
Structure prediction by ZEFSAII (Michael W. Deem and Ramdas Pophale) SiO2 
 PCOD9277070
Probable space group: C 2/C
;
_chemical_formula_sum "Si O2"
_cell_formula_units_Z 52
_cell_length_a 12.669831
_cell_length_b 26.780613
_cell_length_c 8.801298
_cell_angle_alpha 90.000000
_cell_angle_beta 125.657753
_cell_angle_gamma 90.000000
_cell_volume 2426.435156
_symmetry_space_group_name_H-M "C 2/C"
_symmetry_group_IT_number 15
_symmetry_cell_setting 'monoclinic'
loop_
_space_group_symop_operation_xyz
x,y,z
-x,y,1/2-z
-x,-y,-z
x,-y,1/2+z
1/2+x,1/2+y,z
1/2-x,1/2+y,1/2-z
1/2-x,1/2-y,-z
1/2+x,1/2-y,1/2+z
loop_
_atom_site_type_symbol
_atom_site_label
_atom_site_fract_x
_atom_site_fract_y
_atom_site_fract_z
Si Si1 0.859051 0.017459 0.184398
Si Si2 0.778763 0.221664 0.864417
Si Si3 0.613652 0.121999 0.095276
Si Si4 0.474018 0.777475 0.547661
Si Si5 0.301013 0.035465 0.158442
Si Si6 0.848529 0.870356 0.596390
Si Si7 0.500000 0.046780 0.750000
O O1 0.817748 0.030868 0.320435
O O2 0.157941 0.069511 0.423741
O O3 0.000000 0.000614 0.250000
O O4 0.759946 0.974531 0.054984
O O5 0.667897 0.231854 0.644889
O O6 0.919935 0.240099 0.932634
O O7 0.750000 0.250000 0.000000
O O8 0.790391 0.162823 0.913051
O O9 0.516528 0.167183 0.030715
O O10 0.633837 0.088401 0.260232
O O11 0.754873 0.141709 0.160333
O O12 0.568748 0.082746 0.928860
O O13 0.500000 0.775122 0.750000
O O14 0.403781 0.990558 0.258425
O O15 0.000000 0.858067 0.750000
#
# Coordination Sequence:
#
# PCOD9277070 Si02
#       7
#     8   8   8   8   8   8   4
#     4  10  22  40  64  91 130 176 227 281 337 399
#     4  12  24  45  76 102 129 183 234 280 343 429
#     4  11  24  40  66  98 137 177 228 275 345 404
#     4  12  28  46  71 104 147 174 221 296 363 411
#     4  11  22  38  62  92 134 178 221 282 332 400
#     4  10  20  40  67  99 128 171 237 287 323 406
#     4  12  22  40  62 100 134 178 234 278 330 410
#
# _framework density 21.430616000000001
#
# number of rings (size 3 to 8) (size 9 to 14) (size 15 to 20)
#    0.000    0.923    4.615    3.692    1.077    0.000 
#    0.000    0.000    0.000    0.000    0.000    0.000 
#    0.000    0.000    0.000    0.000    0.000    0.000 
#
# Total GULP energy -145087.612920 kJ/mol
# GULP energy per Si atom -5580.292805 kJ/mol
# Density = 2.138184 g / cm^3
# Si number density = 21.430616 Si / 1000 Ang^3
#
#
#
# Elastic Constant Matrix: (Units=GPa)
#
#
# Indices 1 2 3 4 5 6 
#
# 1 83.4509 5.1559 10.1307 0.0000 8.7411 0.0000
# 2 5.1559 74.3964 22.5853 0.0000 -4.6800 0.0000
# 3 10.1307 22.5853 82.0196 0.0000 22.9383 0.0000
# 4 0.0000 0.0000 0.0000 30.2303 0.0000 -5.0284
# 5 8.7411 -4.6800 22.9383 0.0000 24.2490 0.0000
# 6 0.0000 0.0000 0.0000 -5.0284 0.0000 23.9388
#
#
#
# Elastic Compliance Matrix: (Units=1/GPa)
#
#
# Indices 1 2 3 4 5 6 
#
# 1 0.012554 -0.001229 0.000163 0.000000 -0.004917 0.000000
# 2 -0.001229 0.016408 -0.007310 0.000000 0.010524 0.000000
# 3 0.000163 -0.007310 0.019846 0.000000 -0.020243 0.000000
# 4 0.000000 0.000000 0.000000 0.034277 0.000000 0.007200
# 5 -0.004917 0.010524 -0.020243 0.000000 0.064191 0.000000
# 6 0.000000 0.000000 0.000000 0.007200 0.000000 0.043286
#
#
# Mechanical properties :
#
#
# Convention : Reuss Voigt Hill
#
# Bulk Modulus (GPa) = 31.19448 35.06786 33.13117
# Shear Modulus (GPa) = 22.93591 29.14996 26.04293
#
# Velocity S-wave (km/s) = 3.27500 3.69209 3.48978
# Velocity P-wave (km/s) = 5.37480 5.88000 5.63306
#
# Compressibility (1/GPa) = 0.03205695
#
# Stress axis : x y z
#
# Youngs Moduli (GPa) = 79.65430 60.94679 50.38744
#
# Poissons Ratio (x) = 0.07489 -0.00820
# Poissons Ratio (y) = 0.09787 0.36831
# Poissons Ratio (z) = -0.01296 0.44550
#
# Static dielectric constant tensor:
#      x y z
#    x 1.808290 0.000000 0.020750 
#    y 0.000000 1.776750 0.000000 
#    z 0.020750 0.000000 1.818510 
# 
# From -- ./inp_files/34449.got.cif
#   From: 2010.05.17/outbox.cif.g08.bks.cpg/sg15_18_cif.got.tgz:34449.got - 2010.06.03 18:47:42.
