data_PCOD9277061
_publ_section_title
;
Structure prediction by ZEFSAII (Michael W. Deem and Ramdas Pophale) SiO2 
 PCOD9277061
Probable space group: C 2/C
;
_chemical_formula_sum "Si O2"
_cell_formula_units_Z 56
_cell_length_a 14.786764
_cell_length_b 19.783260
_cell_length_c 9.331260
_cell_angle_alpha 90.000000
_cell_angle_beta 64.202932
_cell_angle_gamma 90.000000
_cell_volume 2457.640407
_symmetry_space_group_name_H-M "C 2/C"
_symmetry_group_IT_number 15
_symmetry_cell_setting 'monoclinic'
loop_
_space_group_symop_operation_xyz
x,y,z
-x,y,1/2-z
-x,-y,-z
x,-y,1/2+z
1/2+x,1/2+y,z
1/2-x,1/2+y,1/2-z
1/2-x,1/2-y,-z
1/2+x,1/2-y,1/2+z
loop_
_atom_site_type_symbol
_atom_site_label
_atom_site_fract_x
_atom_site_fract_y
_atom_site_fract_z
Si Si1 0.243310 0.442282 0.469712
Si Si2 0.147051 0.252851 0.243117
Si Si3 0.277451 0.620129 0.651895
Si Si4 0.402496 0.056761 0.907603
Si Si5 0.784339 0.696178 0.351671
Si Si6 0.928724 0.033129 0.433182
Si Si7 0.937290 0.297451 0.505411
O O1 0.293070 0.414424 0.292419
O O2 0.151269 0.491500 0.489784
O O3 0.206088 0.377723 0.584251
O O4 0.331101 0.485089 0.484686
O O5 0.237698 0.305436 0.201391
O O6 0.198296 0.189006 0.284944
O O7 0.051914 0.275176 0.403704
O O8 0.116427 0.262049 0.097530
O O9 0.182967 0.586086 0.638322
O O10 0.379750 0.606214 0.498014
O O11 0.500000 0.037515 0.750000
O O12 0.429810 0.878662 0.485825
O O13 0.750000 0.750000 0.500000
O O14 0.885571 0.715237 0.194064
O O15 0.000000 0.038505 0.250000
O O16 0.000000 0.000000 0.500000
#
# Coordination Sequence:
#
# PCOD9277061 Si02
#       7
#     8   8   8   8   8   8   8
#     4  11  25  40  66 102 138 183 222 287 359 408
#     4  10  21  47  71  97 137 178 234 288 330 427
#     4  10  20  40  67  97 133 173 226 283 350 405
#     4  10  21  40  71 103 136 170 228 293 352 416
#     4  12  26  44  66 100 144 183 223 283 344 416
#     4  11  23  42  66  92 133 178 233 289 342 415
#     4  10  22  44  76 101 130 184 236 286 350 408
#
# _framework density 22.786083999999999
#
# number of rings (size 3 to 8) (size 9 to 14) (size 15 to 20)
#    0.000    1.429    5.714    0.429    4.000    3.429 
#    5.143    0.000    3.143    0.000    0.000    0.000 
#    0.000    0.000    0.000    0.000    0.000    0.000 
#
# Total GULP energy -156329.475585 kJ/mol
# GULP energy per Si atom -5583.195557 kJ/mol
# Density = 2.273422 g / cm^3
# Si number density = 22.786084 Si / 1000 Ang^3
#
#
#
# Elastic Constant Matrix: (Units=GPa)
#
#
# Indices 1 2 3 4 5 6 
#
# 1 57.0572 5.8686 19.7446 0.0000 -25.6779 0.0000
# 2 5.8686 56.3077 17.3039 0.0000 -9.6099 0.0000
# 3 19.7446 17.3039 162.3434 0.0000 -31.1009 0.0000
# 4 0.0000 0.0000 0.0000 21.3382 0.0000 1.5144
# 5 -25.6779 -9.6099 -31.1009 0.0000 32.7647 0.0000
# 6 0.0000 0.0000 0.0000 1.5144 0.0000 22.0337
#
#
#
# Elastic Compliance Matrix: (Units=1/GPa)
#
#
# Indices 1 2 3 4 5 6 
#
# 1 0.027221 0.000708 0.000905 0.000000 0.022400 0.000000
# 2 0.000708 0.018892 -0.001139 0.000000 0.005014 0.000000
# 3 0.000905 -0.001139 0.007631 0.000000 0.007618 0.000000
# 4 0.000000 0.000000 0.000000 0.047094 0.000000 -0.003237
# 5 0.022400 0.005014 0.007618 0.000000 0.056778 0.000000
# 6 0.000000 0.000000 0.000000 -0.003237 0.000000 0.045607
#
#
# Mechanical properties :
#
#
# Convention : Reuss Voigt Hill
#
# Bulk Modulus (GPa) = 18.28452 40.17139 29.22795
# Shear Modulus (GPa) = 22.67515 30.74674 26.71095
#
# Velocity S-wave (km/s) = 3.15799 3.67736 3.42753
# Velocity P-wave (km/s) = 4.61942 5.97483 5.34031
#
# Compressibility (1/GPa) = 0.05469106
#
# Stress axis : x y z
#
# Youngs Moduli (GPa) = 36.73610 52.93353 131.05113
#
# Poissons Ratio (x) = -0.03746 -0.11863
# Poissons Ratio (y) = -0.02600 0.14928
# Poissons Ratio (z) = -0.03325 0.06030
#
# Static dielectric constant tensor:
#      x y z
#    x 1.814520 0.000000 0.021120 
#    y 0.000000 1.969720 0.000000 
#    z 0.021120 0.000000 1.867550 
# 
# From -- ./inp_files/42537.got.cif
#   From: 2010.05.17/outbox.cif.g08.bks.cpg/sg15_22_cif.got.tgz:42537.got - 2010.06.03 18:47:42.
