data_PCOD9277612
_publ_section_title
;
Structure prediction by ZEFSAII (Michael W. Deem and Ramdas Pophale) SiO2 
 PCOD9277612
Probable space group: C 2/C
;
_chemical_formula_sum "Si O2"
_cell_formula_units_Z 52
_cell_length_a 30.063010
_cell_length_b 11.291949
_cell_length_c 12.801340
_cell_angle_alpha 90.000000
_cell_angle_beta 143.210869
_cell_angle_gamma 90.000000
_cell_volume 2602.499080
_symmetry_space_group_name_H-M "C 2/C"
_symmetry_group_IT_number 15
_symmetry_cell_setting 'monoclinic'
loop_
_space_group_symop_operation_xyz
x,y,z
-x,y,1/2-z
-x,-y,-z
x,-y,1/2+z
1/2+x,1/2+y,z
1/2-x,1/2+y,1/2-z
1/2-x,1/2-y,-z
1/2+x,1/2-y,1/2+z
loop_
_atom_site_type_symbol
_atom_site_label
_atom_site_fract_x
_atom_site_fract_y
_atom_site_fract_z
Si Si1 0.348940 0.099604 0.993992
Si Si2 0.436529 0.443688 0.717950
Si Si3 0.719078 0.650054 0.590934
Si Si4 0.537272 0.201733 0.617137
Si Si5 0.000000 0.452165 0.250000
Si Si6 0.804439 0.608376 0.549759
Si Si7 0.550642 0.288754 0.241150
O O1 0.373349 0.226271 0.083610
O O2 0.425379 0.031468 0.106419
O O3 0.313094 0.018572 0.015621
O O4 0.289049 0.115556 0.791323
O O5 0.500000 0.436863 0.750000
O O6 0.355936 0.415665 0.517208
O O7 0.449635 0.336871 0.822664
O O8 0.438659 0.574736 0.770026
O O9 0.738383 0.616174 0.507807
O O10 0.706099 0.791600 0.559634
O O11 0.504452 0.129145 0.654148
O O12 0.617861 0.144132 0.748774
O O13 0.487040 0.209926 0.420166
O O14 0.500000 0.289346 0.250000
#
# Coordination Sequence:
#
# PCOD9277612 Si02
#       7
#     8   8   8   8   4   8   8
#     4  11  23  38  62  97 123 163 202 258 311 363
#     4  10  22  43  65  91 119 168 209 257 311 365
#     4  10  22  43  62  86 127 161 208 252 308 378
#     4  10  20  41  66  92 125 162 212 251 307 376
#     4  10  22  38  66  94 124 168 206 252 314 364
#     4   9  22  40  64  88 120 170 200 250 318 363
#     4  11  23  38  62  97 126 161 208 258 309 364
#
# _framework density 19.980795000000001
#
# number of rings (size 3 to 8) (size 9 to 14) (size 15 to 20)
#    0.000    1.846    1.538    1.385    4.308    1.231 
#    8.308    0.769    0.000    0.000    0.000    0.000 
#    0.000    0.000    0.000    0.000    0.000    0.000 
#
# Total GULP energy -145217.010010 kJ/mol
# GULP energy per Si atom -5585.269616 kJ/mol
# Density = 1.993532 g / cm^3
# Si number density = 19.980795 Si / 1000 Ang^3
#
#
#
# Elastic Constant Matrix: (Units=GPa)
#
#
# Indices 1 2 3 4 5 6 
#
# 1 63.6332 11.2867 21.7443 0.0000 12.2091 0.0000
# 2 11.2867 61.6177 12.3982 0.0000 4.1066 0.0000
# 3 21.7443 12.3982 121.4361 0.0000 6.0410 0.0000
# 4 0.0000 0.0000 0.0000 9.4764 0.0000 -6.9089
# 5 12.2091 4.1066 6.0410 0.0000 21.0021 0.0000
# 6 0.0000 0.0000 0.0000 -6.9089 0.0000 3.3095
#
#
#
# Elastic Compliance Matrix: (Units=1/GPa)
#
#
# Indices 1 2 3 4 5 6 
#
# 1 0.018906 -0.002275 -0.002667 0.000000 -0.009779 0.000000
# 2 -0.002275 0.017006 -0.001247 0.000000 -0.001644 0.000000
# 3 -0.002667 -0.001247 0.008877 0.000000 -0.000759 0.000000
# 4 0.000000 0.000000 0.000000 -0.202170 0.000000 -0.422044
# 5 -0.009779 -0.001644 -0.000759 0.000000 0.053839 0.000000
# 6 0.000000 0.000000 0.000000 -0.422044 0.000000 -0.578887
#
#
# Mechanical properties :
#
#
# Convention : Reuss Voigt Hill
#
# Bulk Modulus (GPa) = 30.85227 37.50505 34.17866
# Shear Modulus (GPa) = -7.58441 20.17479 6.29519
#
# Velocity S-wave (km/s) = -1.95041 3.18104 1.77692
# Velocity P-wave (km/s) = 3.22527 5.68360 4.62091
#
# Compressibility (1/GPa) = 0.03241253
#
# Stress axis : x y z
#
# Youngs Moduli (GPa) = 52.89338 58.80170 112.64601
#
# Poissons Ratio (x) = 0.13376 0.30038
# Poissons Ratio (y) = 0.12032 0.14049
# Poissons Ratio (z) = 0.14104 0.07334
#
# Static dielectric constant tensor:
#      x y z
#    x 1.704400 0.000000 0.010230 
#    y 0.000000 1.718410 0.000000 
#    z 0.010230 0.000000 1.705490 
# 
# From -- ./inp_files/126405.got.cif
#   From: 2010.05.17/outbox.cif.g08.bks.cpg/sg15_64_cif.got.tgz:126405.got - 2010.06.03 18:47:42.
