data_PCOD9277354
_publ_section_title
;
Structure prediction by ZEFSAII (Michael W. Deem and Ramdas Pophale) SiO2 
 PCOD9277354
Probable space group: C 2/C
;
_chemical_formula_sum "Si O2"
_cell_formula_units_Z 56
_cell_length_a 7.965769
_cell_length_b 40.496274
_cell_length_c 13.465405
_cell_angle_alpha 90.000000
_cell_angle_beta 140.800212
_cell_angle_gamma 90.000000
_cell_volume 2745.348220
_symmetry_space_group_name_H-M "C 2/C"
_symmetry_group_IT_number 15
_symmetry_cell_setting 'monoclinic'
loop_
_space_group_symop_operation_xyz
x,y,z
-x,y,1/2-z
-x,-y,-z
x,-y,1/2+z
1/2+x,1/2+y,z
1/2-x,1/2+y,1/2-z
1/2-x,1/2-y,-z
1/2+x,1/2-y,1/2+z
loop_
_atom_site_type_symbol
_atom_site_label
_atom_site_fract_x
_atom_site_fract_y
_atom_site_fract_z
Si Si1 0.727344 0.307601 0.558532
Si Si2 0.487103 0.538744 0.864774
Si Si3 0.423600 0.987250 0.074618
Si Si4 0.777277 0.756634 0.396666
Si Si5 0.776917 0.079884 0.932161
Si Si6 0.875161 0.317728 0.911920
Si Si7 0.556655 0.350662 0.922753
O O1 0.541286 0.275529 0.484522
O O2 0.542579 0.336199 0.518674
O O3 0.000000 0.304281 0.750000
O O4 0.829432 0.316570 0.495612
O O5 0.500000 0.544848 0.750000
O O6 0.468633 0.569960 0.928655
O O7 0.208479 0.519405 0.754771
O O8 0.724242 0.516115 0.012343
O O9 0.274770 0.952098 0.021109
O O10 0.500000 0.000000 0.000000
O O11 0.750000 0.750000 0.500000
O O12 0.778999 0.719944 0.350665
O O13 0.801969 0.670026 0.488269
O O14 0.500000 0.088008 0.750000
O O15 0.876385 0.111191 0.038134
O O16 0.500000 0.225176 0.750000
O O17 0.694251 0.342049 0.762675
#
# Coordination Sequence:
#
# PCOD9277354 Si02
#       7
#     8   8   8   8   8   8   8
#     4  10  21  39  65  94 125 162 213 267 321 382
#     4   9  18  36  60  89 127 156 203 258 308 362
#     4   9  18  36  59  91 124 155 202 256 302 362
#     4  12  21  39  69  95 126 166 208 266 336 381
#     4  10  21  38  63  85 123 174 203 253 317 373
#     4  10  20  41  61  85 128 164 201 265 311 372
#     4  10  20  41  59  85 128 166 208 252 318 377
#
# _framework density 20.398140999999999
#
# number of rings (size 3 to 8) (size 9 to 14) (size 15 to 20)
#    0.000    2.000    2.857    1.714    0.000    0.571 
#   15.429    2.857    0.000    0.000    0.000    0.000 
#    0.000    0.000    0.000    0.000    0.000    0.000 
#
# Total GULP energy -155915.025982 kJ/mol
# GULP energy per Si atom -5568.393785 kJ/mol
# Density = 2.035171 g / cm^3
# Si number density = 20.398141 Si / 1000 Ang^3
#
#
#
# Elastic Constant Matrix: (Units=GPa)
#
#
# Indices 1 2 3 4 5 6 
#
# 1 158.9771 51.7374 25.9739 0.0000 28.7500 0.0000
# 2 51.7374 112.1948 24.0881 0.0000 6.2572 0.0000
# 3 25.9739 24.0881 35.0527 0.0000 7.6035 0.0000
# 4 0.0000 0.0000 0.0000 29.0361 0.0000 -1.6506
# 5 28.7500 6.2572 7.6035 0.0000 26.8245 0.0000
# 6 0.0000 0.0000 0.0000 -1.6506 0.0000 15.5005
#
#
#
# Elastic Compliance Matrix: (Units=1/GPa)
#
#
# Indices 1 2 3 4 5 6 
#
# 1 0.009332 -0.003216 -0.002875 0.000000 -0.008437 0.000000
# 2 -0.003216 0.011568 -0.006105 0.000000 0.002478 0.000000
# 3 -0.002875 -0.006105 0.036096 0.000000 -0.005726 0.000000
# 4 0.000000 0.000000 0.000000 0.034650 0.000000 0.003690
# 5 -0.008437 0.002478 -0.005726 0.000000 0.047367 0.000000
# 6 0.000000 0.000000 0.000000 0.003690 0.000000 0.064907
#
#
# Mechanical properties :
#
#
# Convention : Reuss Voigt Hill
#
# Bulk Modulus (GPa) = 30.66933 56.64702 43.65818
# Shear Modulus (GPa) = 20.90480 27.90059 24.40269
#
# Velocity S-wave (km/s) = 3.20478 3.70239 3.46254
# Velocity P-wave (km/s) = 5.36304 6.79028 6.11842
#
# Compressibility (1/GPa) = 0.03260586
#
# Stress axis : x y z
#
# Youngs Moduli (GPa) = 107.15523 86.44286 27.70378
#
# Poissons Ratio (x) = 0.27797 0.07966
# Poissons Ratio (y) = 0.34457 0.16912
# Poissons Ratio (z) = 0.30810 0.52770
#
# Static dielectric constant tensor:
#      x y z
#    x 1.822170 0.000000 0.029040 
#    y 0.000000 1.718510 0.000000 
#    z 0.029040 0.000000 1.679390 
# 
# From -- ./inp_files/193895.got.cif
#   From: 2010.05.17/outbox.cif.g08.bks.cpg/sg15_97_cif.got.tgz:193895.got - 2010.06.03 18:47:42.
