data_PCOD9277382
_publ_section_title
;
Structure prediction by ZEFSAII (Michael W. Deem and Ramdas Pophale) SiO2 
 PCOD9277382
Probable space group: C 2/C
;
_chemical_formula_sum "Si O2"
_cell_formula_units_Z 36
_cell_length_a 14.053205
_cell_length_b 7.667366
_cell_length_c 13.504375
_cell_angle_alpha 90.000000
_cell_angle_beta 98.082744
_cell_angle_gamma 90.000000
_cell_volume 1440.655805
_symmetry_space_group_name_H-M "C 2/C"
_symmetry_group_IT_number 15
_symmetry_cell_setting 'monoclinic'
loop_
_space_group_symop_operation_xyz
x,y,z
-x,y,1/2-z
-x,-y,-z
x,-y,1/2+z
1/2+x,1/2+y,z
1/2-x,1/2+y,1/2-z
1/2-x,1/2-y,-z
1/2+x,1/2-y,1/2+z
loop_
_atom_site_type_symbol
_atom_site_label
_atom_site_fract_x
_atom_site_fract_y
_atom_site_fract_z
Si Si1 0.016536 0.706180 0.420425
Si Si2 0.333317 0.984193 0.185877
Si Si3 0.370335 0.908693 0.404055
Si Si4 0.000000 0.030363 0.750000
Si Si5 0.297249 0.382814 0.668361
O O1 0.093563 0.595430 0.366856
O O2 0.080677 0.745025 0.527048
O O3 0.928677 0.584580 0.440347
O O4 0.974704 0.849181 0.340947
O O5 0.386791 0.899514 0.289155
O O6 0.287998 0.814242 0.128321
O O7 0.255424 0.104102 0.231154
O O8 0.259549 0.965628 0.400041
O O9 0.092945 0.931603 0.802236
#
# Coordination Sequence:
#
# PCOD9277382 Si02
#       5
#     8   8   8   4   8
#     4  11  20  40  67  82 125 151 199 242 306 336
#     4  10  20  41  61  87 118 158 188 255 287 355
#     4   9  22  38  62  92 112 159 198 241 294 360
#     4  12  22  38  58  90 116 168 190 246 288 358
#     4  10  23  37  62  87 121 154 208 230 304 342
#
# _framework density 24.988620999999998
#
# number of rings (size 3 to 8) (size 9 to 14) (size 15 to 20)
#    1.333    0.444    2.222    2.667    3.111    1.778 
#    0.000    1.111    0.000    0.000    0.000    0.000 
#    0.000    0.000    0.000    0.000    0.000    0.000 
#
# Total GULP energy -100411.446007 kJ/mol
# GULP energy per Si atom -5578.413667 kJ/mol
# Density = 2.493175 g / cm^3
# Si number density = 24.988621 Si / 1000 Ang^3
#
#
#
# Elastic Constant Matrix: (Units=GPa)
#
#
# Indices 1 2 3 4 5 6 
#
# 1 105.1143 5.7528 -9.4773 0.0000 11.3515 0.0000
# 2 5.7528 49.7834 -18.5108 0.0000 1.1233 0.0000
# 3 -9.4773 -18.5108 68.7617 0.0000 4.4868 0.0000
# 4 0.0000 0.0000 0.0000 0.0373 0.0000 -0.6217
# 5 11.3515 1.1233 4.4868 0.0000 30.9312 0.0000
# 6 0.0000 0.0000 0.0000 -0.6217 0.0000 28.3482
#
#
#
# Elastic Compliance Matrix: (Units=1/GPa)
#
#
# Indices 1 2 3 4 5 6 
#
# 1 0.010100 -0.000518 0.001507 0.000000 -0.003906 0.000000
# 2 -0.000518 0.022437 0.006067 0.000000 -0.001505 0.000000
# 3 0.001507 0.006067 0.016591 0.000000 -0.003180 0.000000
# 4 0.000000 0.000000 0.000000 42.205391 0.000000 0.925545
# 5 -0.003906 -0.001505 -0.003180 0.000000 0.034279 0.000000
# 6 0.000000 0.000000 0.000000 0.925545 0.000000 0.055572
#
#
# Mechanical properties :
#
#
# Convention : Reuss Voigt Hill
#
# Bulk Modulus (GPa) = 15.81310 19.90988 17.86149
# Shear Modulus (GPa) = 0.11806 28.25633 14.18719
#
# Velocity S-wave (km/s) = 0.21760 3.36634 2.38533
# Velocity P-wave (km/s) = 2.53081 4.80567 3.84054
#
# Compressibility (1/GPa) = 0.06323869
#
# Stress axis : x y z
#
# Youngs Moduli (GPa) = 99.01401 44.56998 60.27219
#
# Poissons Ratio (x) = 0.02311 -0.09085
# Poissons Ratio (y) = 0.05134 -0.36565
# Poissons Ratio (z) = -0.14925 -0.27039
#
# Static dielectric constant tensor:
#      x y z
#    x 1.959480 0.000000 0.061420 
#    y 0.000000 2.071500 0.000000 
#    z 0.061420 0.000000 2.114250 
# 
# From -- ./inp_files/150137.got.cif
#   From: 2010.05.17/outbox.cif.g08.bks.cpg/sg15_76_cif.got.tgz:150137.got - 2010.06.03 18:47:42.
