data_PCOD9277082
_publ_section_title
;
Structure prediction by ZEFSAII (Michael W. Deem and Ramdas Pophale) SiO2 
 PCOD9277082
Probable space group: C 2/C
;
_chemical_formula_sum "Si O2"
_cell_formula_units_Z 56
_cell_length_a 14.402297
_cell_length_b 14.667176
_cell_length_c 19.269427
_cell_angle_alpha 90.000000
_cell_angle_beta 143.599126
_cell_angle_gamma 90.000000
_cell_volume 2415.557703
_symmetry_space_group_name_H-M "C 2/C"
_symmetry_group_IT_number 15
_symmetry_cell_setting 'monoclinic'
loop_
_space_group_symop_operation_xyz
x,y,z
-x,y,1/2-z
-x,-y,-z
x,-y,1/2+z
1/2+x,1/2+y,z
1/2-x,1/2+y,1/2-z
1/2-x,1/2-y,-z
1/2+x,1/2-y,1/2+z
loop_
_atom_site_type_symbol
_atom_site_label
_atom_site_fract_x
_atom_site_fract_y
_atom_site_fract_z
Si Si1 0.203649 0.735357 0.705339
Si Si2 0.173911 0.941592 0.274234
Si Si3 0.412221 0.515448 0.020116
Si Si4 0.818094 0.680427 0.648407
Si Si5 0.636927 0.842425 0.514227
Si Si6 0.138415 0.412691 0.671976
Si Si7 0.693638 0.964463 0.992729
O O1 0.321076 0.666074 0.737131
O O2 0.216045 0.707531 0.792947
O O3 0.249760 0.840789 0.722748
O O4 0.023336 0.714350 0.580907
O O5 0.311725 0.982092 0.307052
O O6 0.793585 0.951562 0.124195
O O7 0.034674 0.002793 0.157857
O O8 0.313566 0.607299 0.950733
O O9 0.500000 0.500000 0.000000
O O10 0.280472 0.447106 0.972341
O O11 0.783275 0.776200 0.589384
O O12 0.000000 0.653702 0.750000
O O13 0.644006 0.884006 0.595153
O O14 0.644507 0.928728 0.468282
O O15 0.964093 0.407501 0.595125
#
# Coordination Sequence:
#
# PCOD9277082 Si02
#       7
#     8   8   8   8   8   8   8
#     4  11  20  38  68  97 140 180 227 287 344 403
#     4  11  21  43  68  99 134 183 232 281 340 414
#     4  12  26  42  65  98 140 182 221 281 347 401
#     4  11  25  40  64 102 143 179 223 287 355 417
#     4  10  20  40  68 101 137 175 225 285 351 409
#     4  10  21  37  68 103 134 176 226 285 344 402
#     4  11  22  42  71 100 134 179 236 277 337 413
#
# _framework density 23.183053000000001
#
# number of rings (size 3 to 8) (size 9 to 14) (size 15 to 20)
#    0.000    1.143    4.286    3.000    0.000    5.714 
#    0.000    0.714    0.000    1.714    0.000    0.000 
#    0.000    0.000    0.000    0.000    0.000    0.000 
#
# Total GULP energy -156151.533741 kJ/mol
# GULP energy per Si atom -5576.840491 kJ/mol
# Density = 2.313029 g / cm^3
# Si number density = 23.183053 Si / 1000 Ang^3
#
#
#
# Elastic Constant Matrix: (Units=GPa)
#
#
# Indices 1 2 3 4 5 6 
#
# 1 118.2596 25.5867 -3.8524 0.0000 7.1648 0.0000
# 2 25.5867 81.9550 20.6420 0.0001 0.9853 0.0000
# 3 -3.8524 20.6420 51.0199 0.0001 16.4696 0.0001
# 4 0.0000 0.0001 0.0001 38.6642 0.0001 13.7222
# 5 7.1648 0.9853 16.4696 0.0001 22.8842 0.0001
# 6 0.0000 0.0000 0.0001 13.7222 0.0001 19.1640
#
#
#
# Elastic Compliance Matrix: (Units=1/GPa)
#
#
# Indices 1 2 3 4 5 6 
#
# 1 0.009850 -0.004099 0.004352 0.000000 -0.006040 0.000000
# 2 -0.004099 0.015639 -0.008902 0.000000 0.007017 0.000000
# 3 0.004352 -0.008902 0.031063 0.000000 -0.023335 0.000000
# 4 0.000000 0.000000 0.000000 0.034676 0.000000 -0.024829
# 5 -0.006040 0.007017 -0.023335 0.000000 0.062081 0.000000
# 6 0.000000 0.000000 0.000000 -0.024829 0.000000 0.069960
#
#
# Mechanical properties :
#
#
# Convention : Reuss Voigt Hill
#
# Bulk Modulus (GPa) = 25.47457 37.33191 31.40324
# Shear Modulus (GPa) = 19.71196 30.06635 24.88916
#
# Velocity S-wave (km/s) = 2.91911 3.60517 3.28013
# Velocity P-wave (km/s) = 4.73011 5.78513 5.28402
#
# Compressibility (1/GPa) = 0.03925483
#
# Stress axis : x y z
#
# Youngs Moduli (GPa) = 101.51804 63.94163 32.19241
#
# Poissons Ratio (x) = 0.26209 -0.14009
# Poissons Ratio (y) = 0.41610 0.28658
# Poissons Ratio (z) = -0.44178 0.56921
#
# Static dielectric constant tensor:
#      x y z
#    x 1.886330 0.000000 0.026740 
#    y 0.000000 1.950540 0.000000 
#    z 0.026740 0.000000 1.973090 
# 
# From -- ./inp_files/244572.got.cif
#   From: 2010.05.17/outbox.cif.g08.bks.cpg/sg15_123_cif.got.tgz:244572.got - 2010.06.03 18:47:42.
