data_PCOD9277658
_publ_section_title
;
Structure prediction by ZEFSAII (Michael W. Deem and Ramdas Pophale) SiO2 
 PCOD9277658
Probable space group: C 2/C
;
_chemical_formula_sum "Si O2"
_cell_formula_units_Z 60
_cell_length_a 17.329944
_cell_length_b 21.721569
_cell_length_c 7.642723
_cell_angle_alpha 90.000000
_cell_angle_beta 60.550067
_cell_angle_gamma 90.000000
_cell_volume 2505.230783
_symmetry_space_group_name_H-M "C 2/C"
_symmetry_group_IT_number 15
_symmetry_cell_setting 'monoclinic'
loop_
_space_group_symop_operation_xyz
x,y,z
-x,y,1/2-z
-x,-y,-z
x,-y,1/2+z
1/2+x,1/2+y,z
1/2-x,1/2+y,1/2-z
1/2-x,1/2-y,-z
1/2+x,1/2-y,1/2+z
loop_
_atom_site_type_symbol
_atom_site_label
_atom_site_fract_x
_atom_site_fract_y
_atom_site_fract_z
Si Si1 0.454982 0.438171 0.110524
Si Si2 0.463741 0.814587 0.983760
Si Si3 0.744635 0.201149 0.794657
Si Si4 0.231706 0.068873 0.840700
Si Si5 0.472434 0.683168 0.986787
Si Si6 0.686668 0.956293 0.906693
Si Si7 0.731455 0.665843 0.335316
Si Si8 0.500000 0.089949 0.750000
O O1 0.500000 0.429855 0.250000
O O2 0.351874 0.444807 0.187648
O O3 0.476467 0.374237 0.990544
O O4 0.500000 0.500000 0.000000
O O5 0.500000 0.829778 0.750000
O O6 0.499751 0.750281 0.022794
O O7 0.361247 0.797569 0.069114
O O8 0.476721 0.867910 0.108496
O O9 0.759790 0.142442 0.656741
O O10 0.774720 0.270321 0.714180
O O11 0.779266 0.180462 0.946171
O O12 0.235608 0.047253 0.034982
O O13 0.308177 0.024905 0.676140
O O14 0.500000 0.689725 0.750000
O O15 0.369292 0.664577 0.120096
O O16 0.589384 0.945708 0.095411
O O17 0.713034 0.896792 0.756364
#
# Coordination Sequence:
#
# PCOD9277658 Si02
#       8
#     8   8   8   8   8   8   8   4
#     4  11  22  39  63  93 130 172 222 274 344 421
#     4  10  21  42  68  99 140 179 232 293 355 415
#     4  10  20  41  67 101 130 183 226 276 358 416
#     4  12  25  44  66  96 137 180 229 287 347 420
#     4   9  19  38  65 100 136 182 222 269 353 427
#     4  12  27  46  68  99 139 184 238 293 355 410
#     4  10  21  40  71 101 142 180 227 284 351 426
#     4  12  26  48  68 104 136 180 248 306 346 422
#
# _framework density 23.949888000000001
#
# number of rings (size 3 to 8) (size 9 to 14) (size 15 to 20)
#    0.000    1.333    1.333    4.800    0.000    4.267 
#    7.200    0.000    0.000    0.000    0.000    0.000 
#    0.000    0.000    0.000    0.000    0.000    0.000 
#
# Total GULP energy -167401.664204 kJ/mol
# GULP energy per Si atom -5580.055473 kJ/mol
# Density = 2.389538 g / cm^3
# Si number density = 23.949888 Si / 1000 Ang^3
#
#
#
# Elastic Constant Matrix: (Units=GPa)
#
#
# Indices 1 2 3 4 5 6 
#
# 1 82.5689 22.5418 21.3157 0.0000 -12.7264 0.0000
# 2 22.5418 103.8649 25.8481 0.0000 -11.4407 0.0000
# 3 21.3157 25.8481 44.1016 0.0000 -9.9735 0.0000
# 4 0.0000 0.0000 0.0000 35.2292 0.0000 2.4907
# 5 -12.7264 -11.4407 -9.9735 0.0000 39.0979 0.0000
# 6 0.0000 0.0000 0.0000 2.4907 0.0000 22.8475
#
#
#
# Elastic Compliance Matrix: (Units=1/GPa)
#
#
# Indices 1 2 3 4 5 6 
#
# 1 0.014352 -0.001445 -0.005443 0.000000 0.002860 0.000000
# 2 -0.001445 0.011527 -0.005732 0.000000 0.001440 0.000000
# 3 -0.005443 -0.005732 0.029592 0.000000 0.004100 0.000000
# 4 0.000000 0.000000 0.000000 0.028606 0.000000 -0.003119
# 5 0.002860 0.001440 0.004100 0.000000 0.027975 0.000000
# 6 0.000000 0.000000 0.000000 -0.003119 0.000000 0.044108
#
#
# Mechanical properties :
#
#
# Convention : Reuss Voigt Hill
#
# Bulk Modulus (GPa) = 33.07833 41.10518 37.09176
# Shear Modulus (GPa) = 26.11300 30.15692 28.13496
#
# Velocity S-wave (km/s) = 3.30558 3.55232 3.43117
# Velocity P-wave (km/s) = 5.33016 5.83315 5.58732
#
# Compressibility (1/GPa) = 0.03023127
#
# Stress axis : x y z
#
# Youngs Moduli (GPa) = 69.67882 86.75617 33.79293
#
# Poissons Ratio (x) = 0.12538 0.18393
# Poissons Ratio (y) = 0.10070 0.19368
# Poissons Ratio (z) = 0.37924 0.49724
#
# Static dielectric constant tensor:
#      x y z
#    x 1.883310 0.000000 -0.024400 
#    y 0.000000 1.959840 0.000000 
#    z -0.024400 0.000000 1.955220 
# 
# From -- ./inp_files/50634.got.cif
#   From: 2010.05.17/outbox.cif.g08.bks.cpg/sg15_26_cif.got.tgz:50634.got - 2010.06.03 18:47:42.
