data_PCOD9277846
_publ_section_title
;
Structure prediction by ZEFSAII (Michael W. Deem and Ramdas Pophale) SiO2 
 PCOD9277846
Probable space group: C 2/C
;
_chemical_formula_sum "Si O2"
_cell_formula_units_Z 48
_cell_length_a 15.238679
_cell_length_b 12.069950
_cell_length_c 18.747531
_cell_angle_alpha 90.000000
_cell_angle_beta 143.806646
_cell_angle_gamma 90.000000
_cell_volume 2036.224433
_symmetry_space_group_name_H-M "C 2/C"
_symmetry_group_IT_number 15
_symmetry_cell_setting 'monoclinic'
loop_
_space_group_symop_operation_xyz
x,y,z
-x,y,1/2-z
-x,-y,-z
x,-y,1/2+z
1/2+x,1/2+y,z
1/2-x,1/2+y,1/2-z
1/2-x,1/2-y,-z
1/2+x,1/2-y,1/2+z
loop_
_atom_site_type_symbol
_atom_site_label
_atom_site_fract_x
_atom_site_fract_y
_atom_site_fract_z
Si Si1 0.252167 0.016993 0.019298
Si Si2 0.287598 0.482447 0.294167
Si Si3 0.513458 0.681797 0.896159
Si Si4 0.157928 0.655451 0.814350
Si Si5 0.786407 0.317413 0.652561
Si Si6 0.171069 0.088284 0.331426
O O1 0.217691 0.092658 0.161966
O O2 0.233613 0.915860 0.062980
O O3 0.346959 0.107452 0.125925
O O4 0.280388 0.960492 0.963218
O O5 0.420131 0.393486 0.389713
O O6 0.151860 0.408956 0.235346
O O7 0.300388 0.520177 0.221468
O O8 0.402951 0.746947 0.772798
O O9 0.606472 0.592113 0.912239
O O10 0.645040 0.746068 0.024505
O O11 0.202023 0.782523 0.836884
O O12 0.000000 0.649021 0.750000
O O13 0.000000 0.085947 0.250000
#
# Coordination Sequence:
#
# PCOD9277846 Si02
#       6
#     8   8   8   8   8   8
#     4   9  21  41  73  98 149 191 252 307 379 445
#     4  11  21  41  70 103 154 193 252 310 378 448
#     4  10  20  41  72 105 148 198 246 306 383 447
#     4  10  23  41  70 106 146 196 252 312 372 452
#     4   9  21  39  69 107 147 199 246 305 377 453
#     4  11  20  40  71 107 140 194 248 303 383 461
#
# _framework density 23.573039000000001
#
# number of rings (size 3 to 8) (size 9 to 14) (size 15 to 20)
#    1.000    1.000    1.667    2.000    0.000    0.000 
#    0.000    9.167   22.000    0.000    0.000    0.000 
#    0.000    0.000    0.000    0.000    0.000    0.000 
#
# Total GULP energy -133751.762757 kJ/mol
# GULP energy per Si atom -5572.990115 kJ/mol
# Density = 2.351939 g / cm^3
# Si number density = 23.573039 Si / 1000 Ang^3
#
#
#
# Elastic Constant Matrix: (Units=GPa)
#
#
# Indices 1 2 3 4 5 6 
#
# 1 110.5927 61.5276 53.5265 0.0000 -25.2067 0.0000
# 2 61.5276 129.5197 91.4473 0.0000 -4.2515 0.0000
# 3 53.5265 91.4473 158.7076 0.0000 -14.0222 0.0000
# 4 0.0000 0.0000 0.0000 12.9131 0.0000 14.7231
# 5 -25.2067 -4.2515 -14.0222 0.0000 27.2091 0.0000
# 6 0.0000 0.0000 0.0000 14.7231 0.0000 30.5898
#
#
#
# Elastic Compliance Matrix: (Units=1/GPa)
#
#
# Indices 1 2 3 4 5 6 
#
# 1 0.016261 -0.007186 -0.000117 0.000000 0.013881 0.000000
# 2 -0.007186 0.016288 -0.007674 0.000000 -0.008067 0.000000
# 3 -0.000117 -0.007674 0.011155 0.000000 0.004441 0.000000
# 4 0.000000 0.000000 0.000000 0.171620 0.000000 -0.082602
# 5 0.013881 -0.008067 0.004441 0.000000 0.050640 0.000000
# 6 0.000000 0.000000 0.000000 -0.082602 0.000000 0.072447
#
#
# Mechanical properties :
#
#
# Convention : Reuss Voigt Hill
#
# Bulk Modulus (GPa) = 72.73632 90.20252 81.46942
# Shear Modulus (GPa) = 13.40666 26.96365 20.18516
#
# Velocity S-wave (km/s) = 2.38739 3.38573 2.92940
# Velocity P-wave (km/s) = 6.20663 7.32342 6.78803
#
# Compressibility (1/GPa) = 0.01374829
#
# Stress axis : x y z
#
# Youngs Moduli (GPa) = 61.49832 61.39362 89.64792
#
# Poissons Ratio (x) = 0.44119 0.01049
# Poissons Ratio (y) = 0.44194 0.68800
# Poissons Ratio (z) = 0.00720 0.47116
#
# Static dielectric constant tensor:
#      x y z
#    x 1.994950 0.000000 0.050920 
#    y 0.000000 1.886860 0.000000 
#    z 0.050920 0.000000 1.944650 
# 
# From -- ./inp_files/279920.got.cif
#   From: 2010.05.17/outbox.cif.g08.bks.cpg/sg15_140_cif.got.tgz:279920.got - 2010.06.03 18:47:42.
