data_PCOD9277660
_publ_section_title
;
Structure prediction by ZEFSAII (Michael W. Deem and Ramdas Pophale) SiO2 
 PCOD9277660
Probable space group: C 2/C
;
_chemical_formula_sum "Si O2"
_cell_formula_units_Z 56
_cell_length_a 19.326036
_cell_length_b 6.623510
_cell_length_c 16.593093
_cell_angle_alpha 90.000000
_cell_angle_beta 98.977586
_cell_angle_gamma 90.000000
_cell_volume 2097.998289
_symmetry_space_group_name_H-M "C 2/C"
_symmetry_group_IT_number 15
_symmetry_cell_setting 'monoclinic'
loop_
_space_group_symop_operation_xyz
x,y,z
-x,y,1/2-z
-x,-y,-z
x,-y,1/2+z
1/2+x,1/2+y,z
1/2-x,1/2+y,1/2-z
1/2-x,1/2-y,-z
1/2+x,1/2-y,1/2+z
loop_
_atom_site_type_symbol
_atom_site_label
_atom_site_fract_x
_atom_site_fract_y
_atom_site_fract_z
Si Si1 0.826845 0.580613 0.514326
Si Si2 0.759962 0.328752 0.380437
Si Si3 0.908303 0.349580 0.331325
Si Si4 0.189872 0.127423 0.639315
Si Si5 0.172233 0.168089 0.321595
Si Si6 0.537641 0.295550 0.173635
Si Si7 0.454274 0.802655 0.509067
O O1 0.764110 0.442645 0.467877
O O2 0.829939 0.755789 0.446852
O O3 0.831827 0.707764 0.596325
O O4 0.884553 0.405506 0.530438
O O5 0.831299 0.411636 0.350458
O O6 0.724369 0.408395 0.626291
O O7 0.688921 0.431148 0.335068
O O8 0.891255 0.234122 0.246173
O O9 0.951645 0.551177 0.322175
O O10 0.939389 0.231010 0.414697
O O11 0.252605 0.244849 0.696412
O O12 0.116274 0.124925 0.672106
O O13 0.500000 0.358188 0.250000
O O14 0.489925 0.328962 0.084718
O O15 0.500000 0.000000 0.500000
#
# Coordination Sequence:
#
# PCOD9277660 Si02
#       7
#     8   8   8   8   8   8   8
#     4  10  20  41  67 103 142 190 254 303 377 451
#     4  10  22  40  65  99 141 191 238 300 385 441
#     4  10  21  41  65 105 141 198 243 302 388 441
#     4  11  22  40  69  99 146 199 240 316 387 443
#     4  11  23  39  68 103 146 190 252 309 371 465
#     4  11  21  41  77 110 146 203 262 316 371 456
#     4   9  17  39  70 100 150 201 251 306 380 449
#
# _framework density 26.692108999999999
#
# number of rings (size 3 to 8) (size 9 to 14) (size 15 to 20)
#    0.000    1.714    5.714    2.571    2.000    2.286 
#    0.000    3.571    6.286    0.857    0.000    1.000 
#    0.000    0.000    0.000    0.000    0.000    0.000 
#
# Total GULP energy -156294.657382 kJ/mol
# GULP energy per Si atom -5581.952049 kJ/mol
# Density = 2.663136 g / cm^3
# Si number density = 26.692109 Si / 1000 Ang^3
#
#
#
# Elastic Constant Matrix: (Units=GPa)
#
#
# Indices 1 2 3 4 5 6 
#
# 1 44.4701 31.2729 49.1881 0.0000 19.7571 0.0000
# 2 31.2729 159.6436 65.2934 0.0000 4.2161 0.0000
# 3 49.1881 65.2934 220.5425 0.0000 23.9403 0.0000
# 4 0.0000 0.0000 0.0000 32.8167 0.0000 8.8680
# 5 19.7571 4.2161 23.9403 0.0000 45.5411 0.0000
# 6 0.0000 0.0000 0.0000 8.8680 0.0000 38.1245
#
#
#
# Elastic Compliance Matrix: (Units=1/GPa)
#
#
# Indices 1 2 3 4 5 6 
#
# 1 0.037836 -0.004773 -0.005612 0.000000 -0.013023 0.000000
# 2 -0.004773 0.007739 -0.001457 0.000000 0.002120 0.000000
# 3 -0.005612 -0.001457 0.006298 0.000000 -0.000741 0.000000
# 4 0.000000 0.000000 0.000000 0.032516 0.000000 -0.007563
# 5 -0.013023 0.002120 -0.000741 0.000000 0.027801 0.000000
# 6 0.000000 0.000000 0.000000 -0.007563 0.000000 0.027989
#
#
# Mechanical properties :
#
#
# Convention : Reuss Voigt Hill
#
# Bulk Modulus (GPa) = 35.47384 79.57387 57.52385
# Shear Modulus (GPa) = 28.85857 41.88993 35.37425
#
# Velocity S-wave (km/s) = 3.29167 3.96583 3.64438
# Velocity P-wave (km/s) = 5.26932 7.13070 6.26947
#
# Compressibility (1/GPa) = 0.02818979
#
# Stress axis : x y z
#
# Youngs Moduli (GPa) = 26.42952 129.22077 158.78820
#
# Poissons Ratio (x) = 0.61672 0.89115
# Poissons Ratio (y) = 0.12614 0.23132
# Poissons Ratio (z) = 0.14833 0.18825
#
# Static dielectric constant tensor:
#      x y z
#    x 2.017600 0.000000 -0.091750 
#    y 0.000000 2.168330 0.000000 
#    z -0.091750 0.000000 2.255590 
# 
# From -- ./inp_files/161707.got.cif
#   From: 2010.05.17/outbox.cif.g08.bks.cpg/sg15_81_cif.got.tgz:161707.got - 2010.06.03 18:47:42.
