data_PCOD9277849
_publ_section_title
;
Structure prediction by ZEFSAII (Michael W. Deem and Ramdas Pophale) SiO2 
 PCOD9277849
Probable space group: C 2/C
;
_chemical_formula_sum "Si O2"
_cell_formula_units_Z 28
_cell_length_a 17.907287
_cell_length_b 5.010051
_cell_length_c 17.117846
_cell_angle_alpha 90.000000
_cell_angle_beta 138.265550
_cell_angle_gamma 90.000000
_cell_volume 1022.318026
_symmetry_space_group_name_H-M "C 2/C"
_symmetry_group_IT_number 15
_symmetry_cell_setting 'monoclinic'
loop_
_space_group_symop_operation_xyz
x,y,z
-x,y,1/2-z
-x,-y,-z
x,-y,1/2+z
1/2+x,1/2+y,z
1/2-x,1/2+y,1/2-z
1/2-x,1/2-y,-z
1/2+x,1/2-y,1/2+z
loop_
_atom_site_type_symbol
_atom_site_label
_atom_site_fract_x
_atom_site_fract_y
_atom_site_fract_z
Si Si1 0.500000 0.743705 0.750000
Si Si2 0.351412 0.352974 0.525888
Si Si3 0.080647 0.421486 0.183390
Si Si4 0.873632 0.065414 0.875979
O O1 0.427282 0.558813 0.635306
O O2 0.416290 0.936290 0.730947
O O3 0.250000 0.250000 0.500000
O O4 0.312062 0.466865 0.410860
O O5 0.444828 0.130755 0.574313
O O6 0.141032 0.146706 0.205960
O O7 0.123150 0.638544 0.155111
O O8 0.000000 0.000000 0.000000
#
# Coordination Sequence:
#
# PCOD9277849 Si02
#       4
#     4   8   8   8
#     4  12  24  42  74 108 150 184 252 302 354 428
#     4  11  25  45  76 107 143 189 243 299 358 426
#     4  11  22  43  72  98 137 192 233 285 369 421
#     4  10  20  41  72  95 136 192 229 282 365 435
#
# _framework density 27.388736999999999
#
# number of rings (size 3 to 8) (size 9 to 14) (size 15 to 20)
#    0.000    1.143    5.714    4.286    0.000    1.143 
#    0.000    0.000   18.857    0.000    0.000    0.000 
#    0.000    0.000    0.000    0.000    0.000    0.000 
#
# Total GULP energy -78382.660556 kJ/mol
# GULP energy per Si atom -5598.761468 kJ/mol
# Density = 2.732640 g / cm^3
# Si number density = 27.388737 Si / 1000 Ang^3
#
#
#
# Elastic Constant Matrix: (Units=GPa)
#
#
# Indices 1 2 3 4 5 6 
#
# 1 310.0668 79.8462 61.0595 0.0011 -6.1911 0.0010
# 2 79.8462 156.6552 39.0770 0.0054 -9.6918 0.0075
# 3 61.0595 39.0770 98.3431 0.0001 -15.7513 0.0008
# 4 0.0011 0.0054 0.0001 35.4452 0.0000 -23.9567
# 5 -6.1911 -9.6918 -15.7513 0.0000 61.7333 0.0002
# 6 0.0010 0.0075 0.0008 -23.9567 0.0002 47.4040
#
#
#
# Elastic Compliance Matrix: (Units=1/GPa)
#
#
# Indices 1 2 3 4 5 6 
#
# 1 0.004002 -0.001584 -0.001909 0.000000 -0.000334 0.000000
# 2 -0.001584 0.007723 -0.001998 -0.000003 0.000544 -0.000003
# 3 -0.001909 -0.001998 0.012581 0.000001 0.002705 0.000000
# 4 0.000000 -0.000003 0.000001 0.042848 0.000000 0.021654
# 5 -0.000334 0.000544 0.002705 0.000000 0.016941 0.000000
# 6 0.000000 -0.000003 0.000000 0.021654 0.000000 0.032039
#
#
# Mechanical properties :
#
#
# Convention : Reuss Voigt Hill
#
# Bulk Modulus (GPa) = 75.05513 102.78118 88.91815
# Shear Modulus (GPa) = 38.00608 54.58867 46.29737
#
# Velocity S-wave (km/s) = 3.72916 4.46927 4.11588
# Velocity P-wave (km/s) = 6.78272 8.01503 7.42449
#
# Compressibility (1/GPa) = 0.01332354
#
# Stress axis : x y z
#
# Youngs Moduli (GPa) = 249.85116 129.48227 79.48599
#
# Poissons Ratio (x) = 0.20516 0.15174
# Poissons Ratio (y) = 0.39589 0.15881
# Poissons Ratio (z) = 0.47696 0.25869
#
# Static dielectric constant tensor:
#      x y z
#    x 2.409580 -0.000020 0.362320 
#    y -0.000020 2.213160 -0.000020 
#    z 0.362320 -0.000020 2.741330 
# 
# From -- ./inp_files/207781.got.cif
#   From: 2010.05.17/outbox.cif.g08.bks.cpg/sg15_104_cif.got.tgz:207781.got - 2010.06.03 18:47:42.
