data_PCOD9277221
_publ_section_title
;
Structure prediction by ZEFSAII (Michael W. Deem and Ramdas Pophale) SiO2 
 PCOD9277221
Probable space group: C 2/C
;
_chemical_formula_sum "Si O2"
_cell_formula_units_Z 48
_cell_length_a 31.479658
_cell_length_b 8.885802
_cell_length_c 14.977029
_cell_angle_alpha 90.000000
_cell_angle_beta 148.893413
_cell_angle_gamma 90.000000
_cell_volume 2164.379511
_symmetry_space_group_name_H-M "C 2/C"
_symmetry_group_IT_number 15
_symmetry_cell_setting 'monoclinic'
loop_
_space_group_symop_operation_xyz
x,y,z
-x,y,1/2-z
-x,-y,-z
x,-y,1/2+z
1/2+x,1/2+y,z
1/2-x,1/2+y,1/2-z
1/2-x,1/2-y,-z
1/2+x,1/2-y,1/2+z
loop_
_atom_site_type_symbol
_atom_site_label
_atom_site_fract_x
_atom_site_fract_y
_atom_site_fract_z
Si Si1 0.658350 0.891505 0.116544
Si Si2 0.884008 0.990188 0.612942
Si Si3 0.092723 0.062010 0.658359
Si Si4 0.939853 0.600163 0.453108
Si Si5 0.713641 0.571558 0.231283
Si Si6 0.500000 0.768099 0.250000
Si Si7 0.500000 0.268265 0.250000
O O1 0.714135 0.749743 0.244967
O O2 0.638119 0.998710 0.162445
O O3 0.700696 0.983912 0.112297
O O4 0.571319 0.824179 0.926556
O O5 0.925848 0.840683 0.649069
O O6 0.859655 0.991805 0.671553
O O7 0.814560 0.045054 0.421345
O O8 0.954451 0.119518 0.735715
O O9 0.084969 0.242164 0.636755
O O10 0.142382 0.002018 0.662366
O O11 0.000000 0.000000 0.500000
O O12 0.000000 0.500000 0.500000
O O13 0.976359 0.642586 0.617415
#
# Coordination Sequence:
#
# PCOD9277221 Si02
#       7
#     8   8   8   8   8   4   4
#     4  11  24  44  67 100 144 185 230 292 356 420
#     4  10  20  40  70 102 131 181 235 291 357 421
#     4  12  21  40  70 102 137 183 239 291 348 430
#     4  12  24  39  67 107 138 183 241 290 345 425
#     4  11  24  44  68 100 143 186 229 294 367 419
#     4  11  21  40  70 100 142 176 238 286 350 416
#     4   9  19  42  68 100 132 186 234 286 350 428
#
# _framework density 22.177256
#
# number of rings (size 3 to 8) (size 9 to 14) (size 15 to 20)
#    0.000    1.000    3.333    5.500    0.000    1.333 
#    0.000   11.667    0.000    0.000    0.000    0.000 
#    0.000    0.000    0.000    0.000    0.000    0.000 
#
# Total GULP energy -134126.930654 kJ/mol
# GULP energy per Si atom -5588.622111 kJ/mol
# Density = 2.212678 g / cm^3
# Si number density = 22.177256 Si / 1000 Ang^3
#
#
#
# Elastic Constant Matrix: (Units=GPa)
#
#
# Indices 1 2 3 4 5 6 
#
# 1 131.3544 57.4483 28.9590 0.0000 4.8866 0.0000
# 2 57.4483 160.9537 5.8335 0.0000 19.0277 0.0000
# 3 28.9590 5.8335 45.3852 0.0000 -3.1577 0.0000
# 4 0.0000 0.0000 0.0000 10.5696 0.0000 -19.1502
# 5 4.8866 19.0277 -3.1577 0.0000 50.6556 0.0000
# 6 0.0000 0.0000 0.0000 -19.1502 0.0000 22.2887
#
#
#
# Elastic Compliance Matrix: (Units=1/GPa)
#
#
# Indices 1 2 3 4 5 6 
#
# 1 0.010542 -0.003525 -0.006279 0.000000 -0.000084 0.000000
# 2 -0.003525 0.007727 0.001083 0.000000 -0.002495 0.000000
# 3 -0.006279 0.001083 0.026028 0.000000 0.001822 0.000000
# 4 0.000000 0.000000 0.000000 -0.169951 0.000000 -0.146020
# 5 -0.000084 -0.002495 0.001822 0.000000 0.020800 0.000000
# 6 0.000000 0.000000 0.000000 -0.146020 0.000000 -0.080593
#
#
# Mechanical properties :
#
#
# Convention : Reuss Voigt Hill
#
# Bulk Modulus (GPa) = 37.23992 58.01943 47.62967
# Shear Modulus (GPa) = -31.43642 33.06627 0.81492
#
# Velocity S-wave (km/s) = -3.76906 3.86554 0.60684
# Velocity P-wave (km/s) = 1.45352 6.79276 4.69196
#
# Compressibility (1/GPa) = 0.02685290
#
# Stress axis : x y z
#
# Youngs Moduli (GPa) = 94.85579 129.41758 38.42026
#
# Poissons Ratio (x) = 0.45623 0.24126
# Poissons Ratio (y) = 0.33439 -0.04159
# Poissons Ratio (z) = 0.59565 -0.14011
#
# Static dielectric constant tensor:
#      x y z
#    x 1.842860 0.000000 -0.041780 
#    y 0.000000 1.855100 0.000000 
#    z -0.041780 0.000000 1.957810 
# 
# From -- ./inp_files/166195.got.cif
#   From: 2010.05.17/outbox.cif.g08.bks.cpg/sg15_84_cif.got.tgz:166195.got - 2010.06.03 18:47:42.
