data_PCOD9277706
_publ_section_title
;
Structure prediction by ZEFSAII (Michael W. Deem and Ramdas Pophale) SiO2 
 PCOD9277706
Probable space group: C 2/C
;
_chemical_formula_sum "Si O2"
_cell_formula_units_Z 60
_cell_length_a 14.204042
_cell_length_b 11.571159
_cell_length_c 14.052222
_cell_angle_alpha 90.000000
_cell_angle_beta 79.019265
_cell_angle_gamma 90.000000
_cell_volume 2267.298741
_symmetry_space_group_name_H-M "C 2/C"
_symmetry_group_IT_number 15
_symmetry_cell_setting 'monoclinic'
loop_
_space_group_symop_operation_xyz
x,y,z
-x,y,1/2-z
-x,-y,-z
x,-y,1/2+z
1/2+x,1/2+y,z
1/2-x,1/2+y,1/2-z
1/2-x,1/2-y,-z
1/2+x,1/2-y,1/2+z
loop_
_atom_site_type_symbol
_atom_site_label
_atom_site_fract_x
_atom_site_fract_y
_atom_site_fract_z
Si Si1 0.197031 0.432031 0.529409
Si Si2 0.916143 0.354147 0.640990
Si Si3 0.500000 0.691676 0.750000
Si Si4 0.911439 0.618001 0.635761
Si Si5 0.233666 0.193989 0.302972
Si Si6 0.416328 0.492315 0.153505
Si Si7 0.871382 0.069054 0.445252
Si Si8 0.618633 0.175440 0.575401
O O1 0.115541 0.392226 0.471572
O O2 0.229340 0.334731 0.597181
O O3 0.287552 0.475393 0.448379
O O4 0.166756 0.551781 0.590319
O O5 0.928734 0.487574 0.662827
O O6 0.822667 0.317125 0.717095
O O7 0.896649 0.338051 0.534774
O O8 0.005123 0.277590 0.660195
O O9 0.582717 0.605426 0.766696
O O10 0.823554 0.687002 0.697205
O O11 0.010799 0.681989 0.634996
O O12 0.154937 0.093366 0.304676
O O13 0.525405 0.537826 0.118476
O O14 0.388530 0.437364 0.056739
O O15 0.837724 0.196976 0.419806
#
# Coordination Sequence:
#
# PCOD9277706 Si02
#       8
#     8   8   4   8   8   8   8   8
#     4  10  23  37  71 101 133 181 235 266 339 403
#     4  11  27  40  71  98 138 175 225 283 340 391
#     4  12  26  42  70  96 134 174 226 270 354 400
#     4  11  25  47  68  97 142 179 228 276 338 409
#     4  11  25  44  67 100 139 179 225 286 336 400
#     4  10  23  42  66 100 133 179 223 281 332 403
#     4  10  20  41  67  98 133 175 231 275 329 398
#     4  11  22  46  67  99 140 181 223 280 332 411
#
# _framework density 26.463208000000002
#
# number of rings (size 3 to 8) (size 9 to 14) (size 15 to 20)
#    0.000    1.333    2.667    2.400    7.467    1.067 
#    0.000    2.000    0.000    0.000    0.000    0.000 
#    0.000    0.000    0.000    0.000    0.000    0.000 
#
# Total GULP energy -168110.491028 kJ/mol
# GULP energy per Si atom -5603.683034 kJ/mol
# Density = 2.640298 g / cm^3
# Si number density = 26.463208 Si / 1000 Ang^3
#
#
#
# Elastic Constant Matrix: (Units=GPa)
#
#
# Indices 1 2 3 4 5 6 
#
# 1 109.5099 21.9015 24.2207 0.0000 -16.7653 0.0000
# 2 21.9015 93.6614 19.4585 0.0000 8.4619 0.0000
# 3 24.2207 19.4585 86.7986 0.0000 -9.9504 0.0000
# 4 0.0000 0.0000 0.0000 28.3186 0.0000 4.2908
# 5 -16.7653 8.4619 -9.9504 0.0000 44.0750 0.0000
# 6 0.0000 0.0000 0.0000 4.2908 0.0000 54.0322
#
#
#
# Elastic Compliance Matrix: (Units=1/GPa)
#
#
# Indices 1 2 3 4 5 6 
#
# 1 0.010684 -0.002461 -0.001960 0.000000 0.004094 0.000000
# 2 -0.002461 0.012109 -0.002466 0.000000 -0.003818 0.000000
# 3 -0.001960 -0.002466 0.012924 0.000000 0.002645 0.000000
# 4 0.000000 0.000000 0.000000 0.035743 0.000000 -0.002838
# 5 0.004094 -0.003818 0.002645 0.000000 0.025576 0.000000
# 6 0.000000 0.000000 0.000000 -0.002838 0.000000 0.018733
#
#
# Mechanical properties :
#
#
# Convention : Reuss Voigt Hill
#
# Bulk Modulus (GPa) = 45.57126 46.79237 46.18182
# Shear Modulus (GPa) = 36.53445 40.24444 38.38945
#
# Velocity S-wave (km/s) = 3.71964 3.90394 3.81290
# Velocity P-wave (km/s) = 5.97542 6.16777 6.07236
#
# Compressibility (1/GPa) = 0.02194366
#
# Stress axis : x y z
#
# Youngs Moduli (GPa) = 93.59700 82.58078 77.37575
#
# Poissons Ratio (x) = 0.20323 0.15168
# Poissons Ratio (y) = 0.23034 0.19078
# Poissons Ratio (z) = 0.18348 0.20361
#
# Static dielectric constant tensor:
#      x y z
#    x 2.077240 0.000000 0.019180 
#    y 0.000000 2.053080 0.000000 
#    z 0.019180 0.000000 2.069810 
# 
# From -- ./inp_files/204429.got.cif
#   From: 2010.05.17/outbox.cif.g08.bks.cpg/sg15_103_cif.got.tgz:204429.got - 2010.06.03 18:47:42.
