data_PCOD9277854
_publ_section_title
;
Structure prediction by ZEFSAII (Michael W. Deem and Ramdas Pophale) SiO2 
 PCOD9277854
Probable space group: C 2/C
;
_chemical_formula_sum "Si O2"
_cell_formula_units_Z 40
_cell_length_a 14.043182
_cell_length_b 21.793218
_cell_length_c 8.638830
_cell_angle_alpha 90.000000
_cell_angle_beta 34.592835
_cell_angle_gamma 90.000000
_cell_volume 1501.038821
_symmetry_space_group_name_H-M "C 2/C"
_symmetry_group_IT_number 15
_symmetry_cell_setting 'monoclinic'
loop_
_space_group_symop_operation_xyz
x,y,z
-x,y,1/2-z
-x,-y,-z
x,-y,1/2+z
1/2+x,1/2+y,z
1/2-x,1/2+y,1/2-z
1/2-x,1/2-y,-z
1/2+x,1/2-y,1/2+z
loop_
_atom_site_type_symbol
_atom_site_label
_atom_site_fract_x
_atom_site_fract_y
_atom_site_fract_z
Si Si1 0.366123 0.323356 0.807238
Si Si2 0.319444 0.711661 0.052623
Si Si3 0.600568 0.440623 0.412518
Si Si4 0.627811 0.107203 0.191118
Si Si5 0.880333 0.426456 0.265670
O O1 0.500000 0.296473 0.750000
O O2 0.333973 0.273514 0.714645
O O3 0.479717 0.381410 0.592182
O O4 0.198699 0.357820 0.094726
O O5 0.500000 0.693742 0.750000
O O6 0.250000 0.750000 0.000000
O O7 0.206979 0.651599 0.208437
O O8 0.500000 0.500000 0.500000
O O9 0.708175 0.454990 0.424744
O O10 0.732575 0.422842 0.101711
O O11 0.500000 0.144057 0.250000
O O12 0.505175 0.065963 0.453615
O O13 0.000000 0.443692 0.250000
#
# Coordination Sequence:
#
# PCOD9277854 Si02
#       5
#     8   8   8   8   8
#     4  10  22  45  71 102 151 195 243 321 385 464
#     4  12  24  44  75 108 147 197 261 314 388 469
#     4  10  22  44  72 105 147 205 255 306 387 467
#     4  10  21  42  75 103 147 196 247 321 377 454
#     4  10  20  41  73 105 148 193 244 319 384 445
#
# _framework density 26.648211
#
# number of rings (size 3 to 8) (size 9 to 14) (size 15 to 20)
#    0.000    1.600    4.000    0.600    0.000    0.000 
#   10.800    7.000    0.000    1.200    0.000    0.000 
#    0.000    0.000    0.000    0.000    0.000    0.000 
#
# Total GULP energy -111691.374325 kJ/mol
# GULP energy per Si atom -5584.568716 kJ/mol
# Density = 2.658756 g / cm^3
# Si number density = 26.648211 Si / 1000 Ang^3
#
#
#
# Elastic Constant Matrix: (Units=GPa)
#
#
# Indices 1 2 3 4 5 6 
#
# 1 229.0692 54.8994 16.0949 0.0002 -0.1507 -0.0001
# 2 54.8994 68.4073 25.5799 0.0000 -12.6072 0.0000
# 3 16.0949 25.5799 128.5505 0.0001 -7.5564 -0.0001
# 4 0.0002 0.0000 0.0001 20.1462 -0.0001 0.6217
# 5 -0.1507 -12.6072 -7.5564 -0.0001 47.7604 0.0001
# 6 -0.0001 0.0000 -0.0001 0.6217 0.0001 49.3882
#
#
#
# Elastic Compliance Matrix: (Units=1/GPa)
#
#
# Indices 1 2 3 4 5 6 
#
# 1 0.005473 -0.004677 0.000176 0.000000 -0.001190 0.000000
# 2 -0.004677 0.020469 -0.003200 0.000000 0.004882 0.000000
# 3 0.000176 -0.003200 0.008423 0.000000 0.000488 0.000000
# 4 0.000000 0.000000 0.000000 0.049656 0.000000 -0.000625
# 5 -0.001190 0.004882 0.000488 0.000000 0.022300 0.000000
# 6 0.000000 0.000000 0.000000 -0.000625 0.000000 0.020256
#
#
# Mechanical properties :
#
#
# Convention : Reuss Voigt Hill
#
# Bulk Modulus (GPa) = 52.74273 68.79727 60.77000
# Shear Modulus (GPa) = 33.71513 45.42248 39.56881
#
# Velocity S-wave (km/s) = 3.56081 4.13307 3.85757
# Velocity P-wave (km/s) = 6.06144 6.97490 6.53415
#
# Compressibility (1/GPa) = 0.01895996
#
# Stress axis : x y z
#
# Youngs Moduli (GPa) = 182.70185 48.85524 118.72813
#
# Poissons Ratio (x) = 0.22852 -0.02084
# Poissons Ratio (y) = 0.85459 0.37998
# Poissons Ratio (z) = -0.03207 0.15636
#
# Static dielectric constant tensor:
#      x y z
#    x 3.614370 0.000000 0.277950 
#    y 0.000000 2.146580 0.000000 
#    z 0.277950 0.000000 2.110980 
# 
# From -- ./inp_files/41951.got.cif
#   From: 2010.05.17/outbox.cif.g08.bks.cpg/sg15_21_cif.got.tgz:41951.got - 2010.06.03 18:47:42.
