data_PCOD9277306
_publ_section_title
;
Structure prediction by ZEFSAII (Michael W. Deem and Ramdas Pophale) SiO2 
 PCOD9277306
Probable space group: C 2/C
;
_chemical_formula_sum "Si O2"
_cell_formula_units_Z 64
_cell_length_a 29.821856
_cell_length_b 8.873926
_cell_length_c 15.448710
_cell_angle_alpha 90.000000
_cell_angle_beta 45.830343
_cell_angle_gamma 90.000000
_cell_volume 2932.454225
_symmetry_space_group_name_H-M "C 2/C"
_symmetry_group_IT_number 15
_symmetry_cell_setting 'monoclinic'
loop_
_space_group_symop_operation_xyz
x,y,z
-x,y,1/2-z
-x,-y,-z
x,-y,1/2+z
1/2+x,1/2+y,z
1/2-x,1/2+y,1/2-z
1/2-x,1/2-y,-z
1/2+x,1/2-y,1/2+z
loop_
_atom_site_type_symbol
_atom_site_label
_atom_site_fract_x
_atom_site_fract_y
_atom_site_fract_z
Si Si1 0.772896 0.895415 0.336976
Si Si2 0.616845 0.625652 0.676574
Si Si3 0.139780 0.308583 0.237206
Si Si4 0.235706 0.221672 0.227706
Si Si5 0.363548 0.053792 0.406204
Si Si6 0.168848 0.857243 0.537000
Si Si7 0.022444 0.900143 0.889926
Si Si8 0.441373 0.820142 0.386502
O O1 0.836591 0.864754 0.303342
O O2 0.757536 0.758319 0.293934
O O3 0.710511 0.921454 0.478534
O O4 0.779093 0.047479 0.271053
O O5 0.603665 0.788282 0.656368
O O6 0.660910 0.534533 0.549780
O O7 0.556369 0.524879 0.781951
O O8 0.176741 0.322394 0.276502
O O9 0.129802 0.453439 0.190333
O O10 0.182088 0.201241 0.116432
O O11 0.077524 0.216076 0.339447
O O12 0.288995 0.282213 0.091120
O O13 0.395181 0.965133 0.445027
O O14 0.099811 0.795284 0.612858
O O15 0.968791 0.786775 0.925202
O O16 0.000000 0.000000 0.000000
O O17 0.500000 0.869140 0.250000
#
# Coordination Sequence:
#
# PCOD9277306 Si02
#       8
#     8   8   8   8   8   8   8   8
#     4  12  26  41  65 105 140 175 223 286 347 407
#     4  11  24  44  68 103 133 178 235 277 331 414
#     4  10  20  44  67  89 133 182 225 267 351 404
#     4  12  24  40  65 101 137 179 222 285 350 405
#     4  11  24  44  70  98 135 181 228 285 336 409
#     4  10  20  40  72  89 130 182 226 274 333 405
#     4  11  24  44  72  98 133 178 228 280 341 405
#     4  11  20  44  69  94 128 178 227 270 335 400
#
# _framework density 21.824722999999999
#
# number of rings (size 3 to 8) (size 9 to 14) (size 15 to 20)
#    0.000    1.000    8.750    1.500    5.250    0.000 
#    2.250    0.625    0.000    0.000    0.000    0.000 
#    0.000    0.000    0.000    0.000    0.000    0.000 
#
# Total GULP energy -178381.918462 kJ/mol
# GULP energy per Si atom -5574.434952 kJ/mol
# Density = 2.177505 g / cm^3
# Si number density = 21.824723 Si / 1000 Ang^3
#
#
#
# Elastic Constant Matrix: (Units=GPa)
#
#
# Indices 1 2 3 4 5 6 
#
# 1 67.7481 20.3039 6.0692 0.0000 -8.1039 0.0000
# 2 20.3039 120.1344 18.6576 -0.0001 5.8378 0.0000
# 3 6.0692 18.6576 49.1471 0.0000 -4.7752 0.0000
# 4 0.0000 -0.0001 0.0000 26.8190 0.0000 2.7021
# 5 -8.1039 5.8378 -4.7752 0.0000 16.2980 0.0000
# 6 0.0000 0.0000 0.0000 2.7021 0.0000 28.7404
#
#
#
# Elastic Compliance Matrix: (Units=1/GPa)
#
#
# Indices 1 2 3 4 5 6 
#
# 1 0.016905 -0.003344 0.000118 0.000000 0.009638 0.000000
# 2 -0.003344 0.009806 -0.003924 0.000000 -0.006325 0.000000
# 3 0.000118 -0.003924 0.022608 0.000000 0.008088 0.000000
# 4 0.000000 0.000000 0.000000 0.037644 0.000000 -0.003539
# 5 0.009638 -0.006325 0.008088 0.000000 0.070785 0.000000
# 6 0.000000 0.000000 0.000000 -0.003539 0.000000 0.035127
#
#
# Mechanical properties :
#
#
# Convention : Reuss Voigt Hill
#
# Bulk Modulus (GPa) = 28.55556 36.34345 32.44951
# Shear Modulus (GPa) = 22.84699 27.17141 25.00920
#
# Velocity S-wave (km/s) = 3.23900 3.53226 3.38880
# Velocity P-wave (km/s) = 5.20582 5.77273 5.49659
#
# Compressibility (1/GPa) = 0.03501945
#
# Stress axis : x y z
#
# Youngs Moduli (GPa) = 59.15414 101.97892 44.23196
#
# Poissons Ratio (x) = 0.34100 -0.00523
# Poissons Ratio (y) = 0.19780 0.17358
# Poissons Ratio (z) = -0.00699 0.40019
#
# Static dielectric constant tensor:
#      x y z
#    x 1.882380 0.000000 0.004780 
#    y 0.000000 1.846080 0.000000 
#    z 0.004780 0.000000 1.831590 
# 
# From -- ./inp_files/181151.got.cif
#   From: 2010.05.17/outbox.cif.g08.bks.cpg/sg15_91_cif.got.tgz:181151.got - 2010.06.03 18:47:42.
