data_PCOD9277083
_publ_section_title
;
Structure prediction by ZEFSAII (Michael W. Deem and Ramdas Pophale) SiO2 
 PCOD9277083
Probable space group: C 2/C
;
_chemical_formula_sum "Si O2"
_cell_formula_units_Z 36
_cell_length_a 24.919872
_cell_length_b 7.918423
_cell_length_c 25.407228
_cell_angle_alpha 90.000000
_cell_angle_beta 160.129393
_cell_angle_gamma 90.000000
_cell_volume 1704.077302
_symmetry_space_group_name_H-M "C 2/C"
_symmetry_group_IT_number 15
_symmetry_cell_setting 'monoclinic'
loop_
_space_group_symop_operation_xyz
x,y,z
-x,y,1/2-z
-x,-y,-z
x,-y,1/2+z
1/2+x,1/2+y,z
1/2-x,1/2+y,1/2-z
1/2-x,1/2-y,-z
1/2+x,1/2-y,1/2+z
loop_
_atom_site_type_symbol
_atom_site_label
_atom_site_fract_x
_atom_site_fract_y
_atom_site_fract_z
Si Si1 0.652761 0.559472 0.247111
Si Si2 0.993447 0.347473 0.444738
Si Si3 0.998151 0.283321 0.566056
Si Si4 0.230673 0.388376 0.052260
Si Si5 0.000000 0.347093 0.750000
O O1 0.922538 0.528398 0.361258
O O2 0.532661 0.705330 0.122064
O O3 0.820774 0.615535 0.378623
O O4 0.682474 0.536814 0.336420
O O5 0.938103 0.277254 0.450231
O O6 0.596502 0.382515 0.170402
O O7 0.866865 0.295989 0.490795
O O8 0.367077 0.268797 0.155323
O O9 0.103019 0.438179 0.890186
#
# Coordination Sequence:
#
# PCOD9277083 Si02
#       5
#     8   8   8   8   4
#     4  11  23  42  62  99 131 178 210 266 316 394
#     4  10  25  38  65  96 142 168 218 255 320 398
#     4  10  22  42  64  97 131 181 207 262 324 388
#     4  10  21  39  67  97 127 163 229 268 328 380
#     4  10  20  40  68 102 112 170 232 278 322 390
#
# _framework density 21.125802
#
# number of rings (size 3 to 8) (size 9 to 14) (size 15 to 20)
#    0.000    1.778    2.222    0.667    9.333    3.556 
#    0.000    0.000    0.000   16.000    0.000    0.000 
#    0.000    0.000    0.000    0.000    0.000    0.000 
#
# Total GULP energy -100343.763112 kJ/mol
# GULP energy per Si atom -5574.653506 kJ/mol
# Density = 2.107772 g / cm^3
# Si number density = 21.125802 Si / 1000 Ang^3
#
#
#
# Elastic Constant Matrix: (Units=GPa)
#
#
# Indices 1 2 3 4 5 6 
#
# 1 118.6430 31.8022 44.9181 -0.0005 -10.3539 -0.0002
# 2 31.8022 117.4756 78.8727 -0.0005 -23.9006 -0.0002
# 3 44.9181 78.8727 107.0663 -0.0021 -24.6325 -0.0011
# 4 -0.0005 -0.0005 -0.0021 40.2634 -0.0007 -16.0251
# 5 -10.3539 -23.9006 -24.6325 -0.0007 43.4406 -0.0002
# 6 -0.0002 -0.0002 -0.0011 -16.0251 -0.0002 20.0391
#
#
#
# Elastic Compliance Matrix: (Units=1/GPa)
#
#
# Indices 1 2 3 4 5 6 
#
# 1 0.010023 0.000221 -0.004359 0.000000 0.000039 0.000000
# 2 0.000221 0.017100 -0.012091 -0.000001 0.002605 -0.000001
# 3 -0.004359 -0.012091 0.021053 0.000002 0.004247 0.000003
# 4 0.000000 -0.000001 0.000002 0.036432 0.000001 0.029134
# 5 0.000039 0.002605 0.004247 0.000001 0.026871 0.000002
# 6 0.000000 -0.000001 0.000003 0.029134 0.000002 0.073201
#
#
# Mechanical properties :
#
#
# Convention : Reuss Voigt Hill
#
# Bulk Modulus (GPa) = 63.61773 72.70788 68.16280
# Shear Modulus (GPa) = 22.48444 33.25474 27.86959
#
# Velocity S-wave (km/s) = 3.26592 3.97183 3.63605
# Velocity P-wave (km/s) = 6.66339 7.45153 7.06845
#
# Compressibility (1/GPa) = 0.01571889
#
# Stress axis : x y z
#
# Youngs Moduli (GPa) = 99.76985 58.47893 47.50019
#
# Poissons Ratio (x) = -0.01293 0.20705
# Poissons Ratio (y) = -0.02206 0.57431
# Poissons Ratio (z) = 0.43490 0.70705
#
# Static dielectric constant tensor:
#      x y z
#    x 1.800770 0.000000 -0.006840 
#    y 0.000000 1.782320 0.000000 
#    z -0.006840 0.000000 1.823770 
# 
# From -- ./inp_files/68718.got.cif
#   From: 2010.05.17/outbox.cif.g08.bks.cpg/sg15_35_cif.got.tgz:68718.got - 2010.06.03 18:47:42.
