data_PCOD9277268
_publ_section_title
;
Structure prediction by ZEFSAII (Michael W. Deem and Ramdas Pophale) SiO2 
 PCOD9277268
Probable space group: C 2/C
;
_chemical_formula_sum "Si O2"
_cell_formula_units_Z 36
_cell_length_a 6.291478
_cell_length_b 17.742298
_cell_length_c 15.991008
_cell_angle_alpha 90.000000
_cell_angle_beta 63.634864
_cell_angle_gamma 90.000000
_cell_volume 1599.328772
_symmetry_space_group_name_H-M "C 2/C"
_symmetry_group_IT_number 15
_symmetry_cell_setting 'monoclinic'
loop_
_space_group_symop_operation_xyz
x,y,z
-x,y,1/2-z
-x,-y,-z
x,-y,1/2+z
1/2+x,1/2+y,z
1/2-x,1/2+y,1/2-z
1/2-x,1/2-y,-z
1/2+x,1/2-y,1/2+z
loop_
_atom_site_type_symbol
_atom_site_label
_atom_site_fract_x
_atom_site_fract_y
_atom_site_fract_z
Si Si1 0.000000 0.327526 0.750000
Si Si2 0.590539 0.158963 0.535518
Si Si3 0.613897 0.727199 0.887913
Si Si4 0.158476 0.070997 0.575560
Si Si5 0.422665 0.422860 0.601047
O O1 0.906579 0.276806 0.690257
O O2 0.778198 0.377953 0.816280
O O3 0.507586 0.220632 0.481675
O O4 0.636562 0.201219 0.614755
O O5 0.409693 0.090079 0.572263
O O6 0.842856 0.127001 0.458931
O O7 0.484691 0.648690 0.891965
O O8 0.186920 0.057619 0.470893
O O9 0.013916 0.998442 0.630173
#
# Coordination Sequence:
#
# PCOD9277268 Si02
#       5
#     4   8   8   8   8
#     4  12  24  44  58 104 146 180 218 296 350 396
#     4  10  20  40  70  98 120 184 232 272 323 420
#     4  10  23  38  68  94 134 168 229 278 335 401
#     4  10  20  44  68  96 126 181 230 274 324 428
#     4  10  23  39  69  96 137 174 226 279 341 403
#
# _framework density 22.509446000000001
#
# number of rings (size 3 to 8) (size 9 to 14) (size 15 to 20)
#    0.000    1.778    2.222    1.333    6.222    0.889 
#    0.000    4.444    0.000    0.000    0.000    0.000 
#    0.000    0.000    0.000    0.000    0.000    0.000 
#
# Total GULP energy -100613.828644 kJ/mol
# GULP energy per Si atom -5589.657147 kJ/mol
# Density = 2.245821 g / cm^3
# Si number density = 22.509446 Si / 1000 Ang^3
#
#
#
# Elastic Constant Matrix: (Units=GPa)
#
#
# Indices 1 2 3 4 5 6 
#
# 1 143.1513 80.4688 66.7243 0.0000 3.6622 0.0000
# 2 80.4688 167.9281 66.7722 0.0000 -6.6429 0.0000
# 3 66.7243 66.7722 81.4208 0.0000 9.8339 0.0000
# 4 0.0000 0.0000 0.0000 19.5504 0.0000 0.5084
# 5 3.6622 -6.6429 9.8339 0.0000 24.5513 0.0000
# 6 0.0000 0.0000 0.0000 0.5084 0.0000 54.4731
#
#
#
# Elastic Compliance Matrix: (Units=1/GPa)
#
#
# Indices 1 2 3 4 5 6 
#
# 1 0.012112 -0.002679 -0.007801 0.000000 0.000593 0.000000
# 2 -0.002679 0.010216 -0.006899 0.000000 0.005927 0.000000
# 3 -0.007801 -0.006899 0.025658 0.000000 -0.010980 0.000000
# 4 0.000000 0.000000 0.000000 0.051162 0.000000 -0.000477
# 5 0.000593 0.005927 -0.010980 0.000000 0.046644 0.000000
# 6 0.000000 0.000000 0.000000 -0.000477 0.000000 0.018362
#
#
# Mechanical properties :
#
#
# Convention : Reuss Voigt Hill
#
# Bulk Modulus (GPa) = 75.58481 91.15898 83.37190
# Shear Modulus (GPa) = 24.59153 31.61729 28.10441
#
# Velocity S-wave (km/s) = 3.30888 3.75190 3.53733
# Velocity P-wave (km/s) = 6.94624 7.70422 7.33503
#
# Compressibility (1/GPa) = 0.01323017
#
# Stress axis : x y z
#
# Youngs Moduli (GPa) = 82.56077 97.88453 38.97374
#
# Poissons Ratio (x) = 0.26221 0.30403
# Poissons Ratio (y) = 0.22116 0.26887
# Poissons Ratio (z) = 0.64404 0.67527
#
# Static dielectric constant tensor:
#      x y z
#    x 1.884830 0.000000 -0.002000 
#    y 0.000000 1.856580 0.000000 
#    z -0.002000 0.000000 1.808080 
# 
# From -- ./inp_files/184189.got.cif
#   From: 2010.05.17/outbox.cif.g08.bks.cpg/sg15_93_cif.got.tgz:184189.got - 2010.06.03 18:47:42.
