data_PCOD9277352
_publ_section_title
;
Structure prediction by ZEFSAII (Michael W. Deem and Ramdas Pophale) SiO2 
 PCOD9277352
Probable space group: C 2/C
;
_chemical_formula_sum "Si O2"
_cell_formula_units_Z 36
_cell_length_a 7.564756
_cell_length_b 11.087981
_cell_length_c 20.996773
_cell_angle_alpha 90.000000
_cell_angle_beta 95.446060
_cell_angle_gamma 90.000000
_cell_volume 1753.214697
_symmetry_space_group_name_H-M "C 2/C"
_symmetry_group_IT_number 15
_symmetry_cell_setting 'monoclinic'
loop_
_space_group_symop_operation_xyz
x,y,z
-x,y,1/2-z
-x,-y,-z
x,-y,1/2+z
1/2+x,1/2+y,z
1/2-x,1/2+y,1/2-z
1/2-x,1/2-y,-z
1/2+x,1/2-y,1/2+z
loop_
_atom_site_type_symbol
_atom_site_label
_atom_site_fract_x
_atom_site_fract_y
_atom_site_fract_z
Si Si1 0.153955 0.652173 0.071529
Si Si2 0.859026 0.751401 0.695530
Si Si3 0.873621 0.087179 0.957661
Si Si4 0.000000 0.700302 0.250000
Si Si5 0.896393 0.494743 0.644320
O O1 0.310034 0.675586 0.129313
O O2 0.055979 0.782425 0.062955
O O3 0.033348 0.547061 0.095018
O O4 0.222522 0.620378 0.004082
O O5 0.665899 0.732664 0.722732
O O6 0.940056 0.623429 0.676885
O O7 0.000000 0.807429 0.750000
O O8 0.791303 0.017087 0.895422
O O9 0.000000 0.000000 0.000000
O O10 0.909157 0.611519 0.195596
#
# Coordination Sequence:
#
# PCOD9277352 Si02
#       5
#     8   8   8   4   8
#     4   9  21  40  58  86 124 149 199 249 290 360
#     4  10  21  40  61  85 120 163 199 249 305 348
#     4  10  21  37  61  91 116 156 197 240 302 359
#     4  10  22  40  58  88 120 156 208 252 292 368
#     4  10  20  41  59  84 123 157 195 251 300 347
#
# _framework density 20.533709999999999
#
# number of rings (size 3 to 8) (size 9 to 14) (size 15 to 20)
#    0.000    2.222    1.111    0.667    3.111    0.889 
#   14.000    0.000    0.000    0.000    0.000    0.000 
#    0.000    0.000    0.000    0.000    0.000    0.000 
#
# Total GULP energy -100331.313333 kJ/mol
# GULP energy per Si atom -5573.961852 kJ/mol
# Density = 2.048697 g / cm^3
# Si number density = 20.533710 Si / 1000 Ang^3
#
#
#
# Elastic Constant Matrix: (Units=GPa)
#
#
# Indices 1 2 3 4 5 6 
#
# 1 40.2079 32.5282 2.2793 0.0000 -4.7047 0.0000
# 2 32.5282 80.2716 13.2804 0.0000 4.7650 0.0000
# 3 2.2793 13.2804 84.7957 0.0000 18.4359 0.0000
# 4 0.0000 0.0000 0.0000 21.7988 0.0000 4.2119
# 5 -4.7047 4.7650 18.4359 0.0000 43.8552 0.0000
# 6 0.0000 0.0000 0.0000 4.2119 0.0000 15.9471
#
#
#
# Elastic Compliance Matrix: (Units=1/GPa)
#
#
# Indices 1 2 3 4 5 6 
#
# 1 0.038441 -0.015955 0.000211 0.000000 0.005769 0.000000
# 2 -0.015955 0.019425 -0.001962 0.000000 -0.002998 0.000000
# 3 0.000211 -0.001962 0.013255 0.000000 -0.005336 0.000000
# 4 0.000000 0.000000 0.000000 0.048341 0.000000 -0.012768
# 5 0.005769 -0.002998 -0.005336 0.000000 0.025990 0.000000
# 6 0.000000 0.000000 0.000000 -0.012768 0.000000 0.066080
#
#
# Mechanical properties :
#
#
# Convention : Reuss Voigt Hill
#
# Bulk Modulus (GPa) = 28.00262 33.49458 30.74860
# Shear Modulus (GPa) = 19.31647 26.79936 23.05792
#
# Velocity S-wave (km/s) = 3.07044 3.61659 3.35465
# Velocity P-wave (km/s) = 5.12222 5.81266 5.47833
#
# Compressibility (1/GPa) = 0.03571094
#
# Stress axis : x y z
#
# Youngs Moduli (GPa) = 26.01382 51.47873 75.44432
#
# Poissons Ratio (x) = 0.82133 -0.01594
# Poissons Ratio (y) = 0.41504 0.14801
# Poissons Ratio (z) = -0.00550 0.10099
#
# Static dielectric constant tensor:
#      x y z
#    x 1.739060 0.000000 0.008990 
#    y 0.000000 1.753460 0.000000 
#    z 0.008990 0.000000 1.793710 
# 
# From -- ./inp_files/229322.got.cif
#   From: 2010.05.17/outbox.cif.g08.bks.cpg/sg15_115_cif.got.tgz:229322.got - 2010.06.03 18:47:42.
