data_PCOD9277237
_publ_section_title
;
Structure prediction by ZEFSAII (Michael W. Deem and Ramdas Pophale) SiO2 
 PCOD9277237
Probable space group: C 2/C
;
_chemical_formula_sum "Si O2"
_cell_formula_units_Z 44
_cell_length_a 31.285414
_cell_length_b 5.354020
_cell_length_c 13.981513
_cell_angle_alpha 90.000000
_cell_angle_beta 110.151078
_cell_angle_gamma 90.000000
_cell_volume 2198.585558
_symmetry_space_group_name_H-M "C 2/C"
_symmetry_group_IT_number 15
_symmetry_cell_setting 'monoclinic'
loop_
_space_group_symop_operation_xyz
x,y,z
-x,y,1/2-z
-x,-y,-z
x,-y,1/2+z
1/2+x,1/2+y,z
1/2-x,1/2+y,1/2-z
1/2-x,1/2-y,-z
1/2+x,1/2-y,1/2+z
loop_
_atom_site_type_symbol
_atom_site_label
_atom_site_fract_x
_atom_site_fract_y
_atom_site_fract_z
Si Si1 0.659972 0.756119 0.495327
Si Si2 0.000000 0.587122 0.750000
Si Si3 0.696730 0.742015 0.928447
Si Si4 0.719695 0.778975 0.731320
Si Si5 0.056762 0.902949 0.949693
Si Si6 0.511492 0.803082 0.590558
O O1 0.679588 0.530685 0.446231
O O2 0.686393 0.754959 0.616137
O O3 0.607807 0.681732 0.472951
O O4 0.669859 0.028047 0.457085
O O5 0.027756 0.748715 0.848174
O O6 0.969421 0.419064 0.797719
O O7 0.694419 0.774592 0.813098
O O8 0.750000 0.750000 0.000000
O O9 0.753078 0.539437 0.755433
O O10 0.036581 0.178415 0.917536
O O11 0.044450 0.871792 0.053814
O O12 0.500000 0.000000 0.500000
#
# Coordination Sequence:
#
# PCOD9277237 Si02
#       6
#     8   4   8   8   8   8
#     4  12  26  43  69 103 138 171 239 285 316 426
#     4  10  20  40  70  88 132 176 212 268 350 404
#     4  12  24  44  70  96 139 184 221 279 353 394
#     4  12  23  43  70  95 134 185 222 273 349 399
#     4  10  23  41  64 100 127 174 225 279 334 402
#     4   9  20  41  66  86 133 172 208 275 346 398
#
# _framework density 20.012865000000001
#
# number of rings (size 3 to 8) (size 9 to 14) (size 15 to 20)
#    0.000    1.091    3.636    2.182    5.091    1.455 
#    9.818    0.000    0.000    0.000    0.000    0.000 
#    0.000    0.000    0.000    0.000    0.000    0.000 
#
# Total GULP energy -122653.349268 kJ/mol
# GULP energy per Si atom -5575.152239 kJ/mol
# Density = 1.996731 g / cm^3
# Si number density = 20.012865 Si / 1000 Ang^3
#
#
#
# Elastic Constant Matrix: (Units=GPa)
#
#
# Indices 1 2 3 4 5 6 
#
# 1 62.0033 0.6935 20.0804 0.0000 2.9986 0.0000
# 2 0.6935 83.0099 23.6159 0.0000 -5.3614 0.0000
# 3 20.0804 23.6159 146.6306 0.0000 -23.6234 0.0000
# 4 0.0000 0.0000 0.0000 13.3587 0.0000 4.0211
# 5 2.9986 -5.3614 -23.6234 0.0000 23.0424 0.0000
# 6 0.0000 0.0000 0.0000 4.0211 0.0000 6.7443
#
#
#
# Elastic Compliance Matrix: (Units=1/GPa)
#
#
# Indices 1 2 3 4 5 6 
#
# 1 0.017488 0.000450 -0.003375 0.000000 -0.005631 0.000000
# 2 0.000450 0.012657 -0.001959 0.000000 0.000878 0.000000
# 3 -0.003375 -0.001959 0.009097 0.000000 0.009310 0.000000
# 4 0.000000 0.000000 0.000000 0.091231 0.000000 -0.054395
# 5 -0.005631 0.000878 0.009310 0.000000 0.053880 0.000000
# 6 0.000000 0.000000 0.000000 -0.054395 0.000000 0.180705
#
#
# Mechanical properties :
#
#
# Convention : Reuss Voigt Hill
#
# Bulk Modulus (GPa) = 33.92508 42.26925 38.09716
# Shear Modulus (GPa) = 12.99881 25.11268 19.05574
#
# Velocity S-wave (km/s) = 2.55134 3.54620 3.08908
# Velocity P-wave (km/s) = 5.06631 6.15908 5.63923
#
# Compressibility (1/GPa) = 0.02947672
#
# Stress axis : x y z
#
# Youngs Moduli (GPa) = 57.18085 79.00798 109.92143
#
# Poissons Ratio (x) = -0.03558 0.37094
# Poissons Ratio (y) = -0.02575 0.21530
# Poissons Ratio (z) = 0.19296 0.15475
#
# Static dielectric constant tensor:
#      x y z
#    x 1.729160 0.000000 -0.031090 
#    y 0.000000 1.757620 0.000000 
#    z -0.031090 0.000000 1.701390 
# 
# From -- ./inp_files/125072.got.cif
#   From: 2010.05.17/outbox.cif.g08.bks.cpg/sg15_63_cif.got.tgz:125072.got - 2010.06.03 18:47:42.
