data_PCOD9277104
_publ_section_title
;
Structure prediction by ZEFSAII (Michael W. Deem and Ramdas Pophale) SiO2 
 PCOD9277104
Probable space group: C 2/C
;
_chemical_formula_sum "Si O2"
_cell_formula_units_Z 44
_cell_length_a 12.380246
_cell_length_b 8.499929
_cell_length_c 18.370373
_cell_angle_alpha 90.000000
_cell_angle_beta 115.795065
_cell_angle_gamma 90.000000
_cell_volume 1740.511644
_symmetry_space_group_name_H-M "C 2/C"
_symmetry_group_IT_number 15
_symmetry_cell_setting 'monoclinic'
loop_
_space_group_symop_operation_xyz
x,y,z
-x,y,1/2-z
-x,-y,-z
x,-y,1/2+z
1/2+x,1/2+y,z
1/2-x,1/2+y,1/2-z
1/2-x,1/2-y,-z
1/2+x,1/2-y,1/2+z
loop_
_atom_site_type_symbol
_atom_site_label
_atom_site_fract_x
_atom_site_fract_y
_atom_site_fract_z
Si Si1 0.062032 0.018407 0.651037
Si Si2 0.766694 0.335853 0.128362
Si Si3 0.500000 0.990441 0.250000
Si Si4 0.679142 0.489277 0.340951
Si Si5 0.090111 0.293662 0.068371
Si Si6 0.090069 0.553370 0.421980
O O1 0.142294 0.143123 0.632238
O O2 0.134366 0.976139 0.746141
O O3 0.059424 0.870819 0.595566
O O4 0.931979 0.060806 0.642263
O O5 0.881361 0.381762 0.213500
O O6 0.776604 0.153992 0.111815
O O7 0.789191 0.466864 0.072095
O O8 0.516249 0.091994 0.326947
O O9 0.782134 0.359780 0.367237
O O10 0.987367 0.413000 0.065039
O O11 0.101664 0.312885 0.984944
#
# Coordination Sequence:
#
# PCOD9277104 Si02
#       6
#     8   8   4   8   8   8
#     4  11  22  40  63  92 127 168 207 256 312 365
#     4  10  20  40  68  87 125 167 205 255 312 370
#     4   8  16  38  62  86 116 168 200 250 310 370
#     4  11  22  39  64  92 126 165 212 254 307 377
#     4  11  22  40  64  96 126 163 209 263 304 371
#     4   9  20  39  66  90 123 168 207 251 319 367
#
# _framework density 25.279921000000002
#
# number of rings (size 3 to 8) (size 9 to 14) (size 15 to 20)
#    1.091    0.727    1.818    4.364    0.000    1.455 
#    3.273    2.727    0.000    0.000    0.000    0.000 
#    0.000    0.000    0.000    0.000    0.000    0.000 
#
# Total GULP energy -123141.463827 kJ/mol
# GULP energy per Si atom -5597.339265 kJ/mol
# Density = 2.522238 g / cm^3
# Si number density = 25.279921 Si / 1000 Ang^3
#
#
#
# Elastic Constant Matrix: (Units=GPa)
#
#
# Indices 1 2 3 4 5 6 
#
# 1 141.5593 17.1213 -7.5193 0.0000 -15.6812 0.0000
# 2 17.1213 65.3431 10.2051 0.0000 -5.3243 0.0000
# 3 -7.5193 10.2051 90.9436 0.0000 -30.7006 0.0000
# 4 0.0000 0.0000 0.0000 25.4820 0.0000 1.0157
# 5 -15.6812 -5.3243 -30.7006 0.0000 35.0655 0.0000
# 6 0.0000 0.0000 0.0000 1.0157 0.0000 23.7606
#
#
#
# Elastic Compliance Matrix: (Units=1/GPa)
#
#
# Indices 1 2 3 4 5 6 
#
# 1 0.008116 -0.002101 0.002874 0.000000 0.005827 0.000000
# 2 -0.002101 0.016155 -0.002095 0.000000 -0.000320 0.000000
# 3 0.002874 -0.002095 0.016744 0.000000 0.015627 0.000000
# 4 0.000000 0.000000 0.000000 0.039310 0.000000 -0.001680
# 5 0.005827 -0.000320 0.015627 0.000000 0.044756 0.000000
# 6 0.000000 0.000000 0.000000 -0.001680 0.000000 0.042158
#
#
# Mechanical properties :
#
#
# Convention : Reuss Voigt Hill
#
# Bulk Modulus (GPa) = 26.06065 37.49558 31.77811
# Shear Modulus (GPa) = 27.37113 35.39757 31.38435
#
# Velocity S-wave (km/s) = 3.29404 3.74602 3.52728
# Velocity P-wave (km/s) = 4.97984 5.79435 5.40247
#
# Compressibility (1/GPa) = 0.03837203
#
# Stress axis : x y z
#
# Youngs Moduli (GPa) = 123.20811 61.89917 59.72412
#
# Poissons Ratio (x) = 0.13003 -0.17163
# Poissons Ratio (y) = 0.25882 0.12510
# Poissons Ratio (z) = -0.35407 0.12966
#
# Static dielectric constant tensor:
#      x y z
#    x 1.946930 0.000000 0.025050 
#    y 0.000000 1.945490 0.000000 
#    z 0.025050 0.000000 2.071320 
# 
# From -- ./inp_files/236204.got.cif
#   From: 2010.05.17/outbox.cif.g08.bks.cpg/sg15_119_cif.got.tgz:236204.got - 2010.06.03 18:47:42.
