data_PCOD9277094
_publ_section_title
;
Structure prediction by ZEFSAII (Michael W. Deem and Ramdas Pophale) SiO2 
 PCOD9277094
Probable space group: C 2/C
;
_chemical_formula_sum "Si O2"
_cell_formula_units_Z 36
_cell_length_a 5.083338
_cell_length_b 29.912509
_cell_length_c 10.615035
_cell_angle_alpha 90.000000
_cell_angle_beta 105.809499
_cell_angle_gamma 90.000000
_cell_volume 1553.017515
_symmetry_space_group_name_H-M "C 2/C"
_symmetry_group_IT_number 15
_symmetry_cell_setting 'monoclinic'
loop_
_space_group_symop_operation_xyz
x,y,z
-x,y,1/2-z
-x,-y,-z
x,-y,1/2+z
1/2+x,1/2+y,z
1/2-x,1/2+y,1/2-z
1/2-x,1/2-y,-z
1/2+x,1/2-y,1/2+z
loop_
_atom_site_type_symbol
_atom_site_label
_atom_site_fract_x
_atom_site_fract_y
_atom_site_fract_z
Si Si1 0.500000 0.582741 0.250000
Si Si2 0.324066 0.207533 0.096622
Si Si3 0.783686 0.851095 0.554608
Si Si4 0.216668 0.476599 0.885526
Si Si5 0.026761 0.928600 0.106001
O O1 0.730783 0.616969 0.323773
O O2 0.524564 0.549345 0.138888
O O3 0.500000 0.216094 0.250000
O O4 0.506778 0.176359 0.027986
O O5 0.041914 0.182481 0.095253
O O6 0.250000 0.250000 0.000000
O O7 0.860161 0.884659 0.450327
O O8 0.275166 0.528545 0.886104
O O9 0.000000 0.465609 0.750000
O O10 0.232210 0.450549 0.019680
O O11 0.000000 0.919073 0.250000
#
# Coordination Sequence:
#
# PCOD9277094 Si02
#       5
#     4   8   8   8   8
#     4  10  20  40  68 104 136 188 254 276 340 424
#     4  12  26  51  80 110 141 181 236 306 384 451
#     4  11  25  43  77 108 145 193 241 291 363 450
#     4  10  22  39  67  95 143 199 249 293 353 405
#     4  10  23  43  61 108 148 189 252 303 348 414
#
# _framework density 23.180679000000001
#
# number of rings (size 3 to 8) (size 9 to 14) (size 15 to 20)
#    0.000    1.333    3.333    0.667    6.222    3.556 
#    0.000    2.222    0.000    0.000    0.000    0.000 
#    0.000    0.000    0.000    0.000    0.000    0.000 
#
# Total GULP energy -100232.373225 kJ/mol
# GULP energy per Si atom -5568.465179 kJ/mol
# Density = 2.312792 g / cm^3
# Si number density = 23.180679 Si / 1000 Ang^3
#
#
#
# Elastic Constant Matrix: (Units=GPa)
#
#
# Indices 1 2 3 4 5 6 
#
# 1 86.4318 33.2588 11.6192 0.0000 -7.8487 0.0000
# 2 33.2588 136.5902 45.4400 0.0000 -14.6618 0.0000
# 3 11.6192 45.4400 127.9837 0.0000 -4.7606 0.0000
# 4 0.0000 0.0000 0.0000 34.1732 0.0000 40.4735
# 5 -7.8487 -14.6618 -4.7606 0.0000 26.2367 0.0000
# 6 0.0000 0.0000 0.0000 40.4735 0.0000 18.3843
#
#
#
# Elastic Compliance Matrix: (Units=1/GPa)
#
#
# Indices 1 2 3 4 5 6 
#
# 1 0.012889 -0.002876 -0.000066 0.000000 0.002236 0.000000
# 2 -0.002876 0.009414 -0.002937 0.000000 0.003867 0.000000
# 3 -0.000066 -0.002937 0.008860 0.000000 -0.000053 0.000000
# 4 0.000000 0.000000 0.000000 -0.018205 0.000000 0.040078
# 5 0.002236 0.003867 -0.000053 0.000000 0.040935 0.000000
# 6 0.000000 0.000000 0.000000 0.040078 0.000000 -0.033840
#
#
# Mechanical properties :
#
#
# Convention : Reuss Voigt Hill
#
# Bulk Modulus (GPa) = 51.53593 59.07129 55.30361
# Shear Modulus (GPa) = 130.61617 33.13802 81.87709
#
# Velocity S-wave (km/s) = 7.51461 3.78505 5.94962
# Velocity P-wave (km/s) = 9.87790 6.68135 8.43248
#
# Compressibility (1/GPa) = 0.01940394
#
# Stress axis : x y z
#
# Youngs Moduli (GPa) = 77.58828 106.22642 112.86215
#
# Poissons Ratio (x) = 0.30555 0.00741
# Poissons Ratio (y) = 0.22317 0.33152
# Poissons Ratio (z) = 0.00510 0.31203
#
# Static dielectric constant tensor:
#      x y z
#    x 2.040250 0.000000 -0.039450 
#    y 0.000000 1.825070 0.000000 
#    z -0.039450 0.000000 2.317870 
# 
# From -- ./inp_files/73424.got.cif
#   From: 2010.05.17/outbox.cif.g08.bks.cpg/sg15_37_cif.got.tgz:73424.got - 2010.06.03 18:47:42.
