data_PCOD9277396
_publ_section_title
;
Structure prediction by ZEFSAII (Michael W. Deem and Ramdas Pophale) SiO2 
 PCOD9277396
Probable space group: C 2/C
;
_chemical_formula_sum "Si O2"
_cell_formula_units_Z 52
_cell_length_a 18.337395
_cell_length_b 17.620289
_cell_length_c 8.836702
_cell_angle_alpha 90.000000
_cell_angle_beta 69.386501
_cell_angle_gamma 90.000000
_cell_volume 2672.427149
_symmetry_space_group_name_H-M "C 2/C"
_symmetry_group_IT_number 15
_symmetry_cell_setting 'monoclinic'
loop_
_space_group_symop_operation_xyz
x,y,z
-x,y,1/2-z
-x,-y,-z
x,-y,1/2+z
1/2+x,1/2+y,z
1/2-x,1/2+y,1/2-z
1/2-x,1/2-y,-z
1/2+x,1/2-y,1/2+z
loop_
_atom_site_type_symbol
_atom_site_label
_atom_site_fract_x
_atom_site_fract_y
_atom_site_fract_z
Si Si1 0.202875 0.774291 0.382567
Si Si2 0.398356 0.564448 0.088301
Si Si3 0.739658 0.555682 0.829287
Si Si4 0.909613 0.298054 0.765880
Si Si5 0.304134 0.924411 0.964094
Si Si6 0.500000 0.518871 0.750000
Si Si7 0.681507 0.302680 0.927288
O O1 0.250000 0.750000 0.500000
O O2 0.197356 0.865292 0.398383
O O3 0.123936 0.731834 0.374749
O O4 0.263258 0.752177 0.205653
O O5 0.328238 0.504547 0.160072
O O6 0.462180 0.535150 0.155050
O O7 0.372750 0.649265 0.144192
O O8 0.434692 0.564627 0.891775
O O9 0.787716 0.509977 0.920643
O O10 0.798369 0.571923 0.648481
O O11 0.876204 0.382162 0.830739
O O12 0.000000 0.294761 0.750000
O O13 0.866622 0.242602 0.915419
O O14 0.232735 0.869473 0.965551
#
# Coordination Sequence:
#
# PCOD9277396 Si02
#       7
#     8   8   8   8   8   4   8
#     4  11  24  40  67  94 122 159 220 269 305 367
#     4  10  22  34  57  85 121 165 198 244 308 376
#     4  11  21  38  65  86 118 162 220 255 297 366
#     4  11  23  43  66  93 127 170 203 261 331 377
#     4  10  21  39  64  91 119 165 218 254 303 379
#     4  10  22  36  48  86 134 156 192 236 318 386
#     4  10  20  41  62  86 123 165 210 253 308 379
#
# _framework density 19.457965999999999
#
# number of rings (size 3 to 8) (size 9 to 14) (size 15 to 20)
#    0.000    1.538    3.077    2.769    9.692    1.231 
#    0.000    0.769    0.000    0.000    0.000    0.000 
#    0.000    0.000    0.000    0.000    0.000    0.000 
#
# Total GULP energy -144759.610157 kJ/mol
# GULP energy per Si atom -5567.677314 kJ/mol
# Density = 1.941368 g / cm^3
# Si number density = 19.457966 Si / 1000 Ang^3
#
#
#
# Elastic Constant Matrix: (Units=GPa)
#
#
# Indices 1 2 3 4 5 6 
#
# 1 103.2343 20.5290 28.8593 0.0000 2.5968 0.0000
# 2 20.5290 81.8878 9.7988 0.0000 -0.8772 0.0000
# 3 28.8593 9.7988 50.1532 0.0000 2.7837 0.0000
# 4 0.0000 0.0000 0.0000 -36.9742 0.0000 23.2159
# 5 2.5968 -0.8772 2.7837 0.0000 23.4455 0.0000
# 6 0.0000 0.0000 0.0000 23.2159 0.0000 17.5803
#
#
#
# Elastic Compliance Matrix: (Units=1/GPa)
#
#
# Indices 1 2 3 4 5 6 
#
# 1 0.011935 -0.002234 -0.006395 0.000000 -0.000646 0.000000
# 2 -0.002234 0.012936 -0.001291 0.000000 0.000885 0.000000
# 3 -0.006395 -0.001291 0.023993 0.000000 -0.002189 0.000000
# 4 0.000000 0.000000 0.000000 -0.014786 0.000000 0.019526
# 5 -0.000646 0.000885 -0.002189 0.000000 0.043017 0.000000
# 6 0.000000 0.000000 0.000000 0.019526 0.000000 0.031097
#
#
# Mechanical properties :
#
#
# Convention : Reuss Voigt Hill
#
# Bulk Modulus (GPa) = 34.45542 39.29440 36.87491
# Shear Modulus (GPa) = 36.30925 12.54955 24.42940
#
# Velocity S-wave (km/s) = 4.32445 2.54236 3.54714
# Velocity P-wave (km/s) = 6.53303 5.37182 5.98068
#
# Compressibility (1/GPa) = 0.02902301
#
# Stress axis : x y z
#
# Youngs Moduli (GPa) = 83.78727 77.30494 41.67934
#
# Poissons Ratio (x) = 0.17268 0.26656
# Poissons Ratio (y) = 0.18716 0.05381
# Poissons Ratio (z) = 0.53585 0.09981
#
# Static dielectric constant tensor:
#      x y z
#    x 1.815060 0.000000 -0.009040 
#    y 0.000000 1.702680 0.000000 
#    z -0.009040 0.000000 1.732270 
# 
# From -- ./inp_files/48452.got.cif
#   From: 2010.05.17/outbox.cif.g08.bks.cpg/sg15_25_cif.got.tgz:48452.got - 2010.06.03 18:47:42.
