data_PCOD9277841
_publ_section_title
;
Structure prediction by ZEFSAII (Michael W. Deem and Ramdas Pophale) SiO2 
 PCOD9277841
Probable space group: C 2/C
;
_chemical_formula_sum "Si O2"
_cell_formula_units_Z 60
_cell_length_a 14.149795
_cell_length_b 8.808133
_cell_length_c 22.737482
_cell_angle_alpha 90.000000
_cell_angle_beta 78.639395
_cell_angle_gamma 90.000000
_cell_volume 2778.322880
_symmetry_space_group_name_H-M "C 2/C"
_symmetry_group_IT_number 15
_symmetry_cell_setting 'monoclinic'
loop_
_space_group_symop_operation_xyz
x,y,z
-x,y,1/2-z
-x,-y,-z
x,-y,1/2+z
1/2+x,1/2+y,z
1/2-x,1/2+y,1/2-z
1/2-x,1/2-y,-z
1/2+x,1/2-y,1/2+z
loop_
_atom_site_type_symbol
_atom_site_label
_atom_site_fract_x
_atom_site_fract_y
_atom_site_fract_z
Si Si1 0.195115 0.590113 0.503807
Si Si2 0.889903 0.434031 0.366314
Si Si3 0.212030 0.479719 0.373617
Si Si4 0.890620 0.225375 0.884964
Si Si5 0.416373 0.769695 0.178821
Si Si6 0.750000 0.750000 0.500000
Si Si7 0.944453 0.074252 0.694563
Si Si8 0.753445 0.730728 0.798369
O O1 0.250000 0.750000 0.500000
O O2 0.111461 0.594722 0.563278
O O3 0.174028 0.557674 0.437767
O O4 0.255188 0.437091 0.512279
O O5 0.876414 0.612129 0.355581
O O6 0.799529 0.344662 0.350583
O O7 0.988417 0.371411 0.326586
O O8 0.316757 0.403534 0.370642
O O9 0.142573 0.339533 0.368033
O O10 0.218653 0.601529 0.320852
O O11 0.998178 0.176676 0.858745
O O12 0.856056 0.246613 0.955636
O O13 0.447040 0.596217 0.170372
O O14 0.340154 0.770785 0.241405
O O15 0.836595 0.135314 0.713724
O O16 0.000000 0.080596 0.750000
#
# Coordination Sequence:
#
# PCOD9277841 Si02
#       8
#     8   8   8   8   8   4   8   8
#     4  10  20  41  72 101 139 185 233 285 351 415
#     4  11  23  41  70 100 135 183 227 285 346 417
#     4  11  23  43  71  99 141 181 228 291 349 415
#     4  10  21  41  66  94 132 171 221 276 341 407
#     4  12  25  41  64 100 139 179 232 288 346 418
#     4   8  20  36  66  98 134 174 226 282 342 400
#     4  12  26  43  67  97 134 181 230 285 351 421
#     4  12  24  43  67  99 136 179 231 285 352 416
#
# _framework density 21.595763000000002
#
# number of rings (size 3 to 8) (size 9 to 14) (size 15 to 20)
#    0.000    1.067    1.333    6.000    1.867    2.667 
#    0.000    2.000    0.000    8.800    0.000    0.000 
#    0.000    0.000    0.000    0.000    0.000    0.000 
#
# Total GULP energy -167031.129654 kJ/mol
# GULP energy per Si atom -5567.704322 kJ/mol
# Density = 2.154661 g / cm^3
# Si number density = 21.595763 Si / 1000 Ang^3
#
#
#
# Elastic Constant Matrix: (Units=GPa)
#
#
# Indices 1 2 3 4 5 6 
#
# 1 65.6509 4.9425 23.5068 0.0000 -16.7526 0.0000
# 2 4.9425 110.3454 28.3268 0.0000 -13.9299 0.0000
# 3 23.5068 28.3268 99.8601 0.0000 -16.5264 0.0000
# 4 0.0000 0.0000 0.0000 28.1065 0.0000 -2.4884
# 5 -16.7526 -13.9299 -16.5264 0.0000 22.8038 0.0000
# 6 0.0000 0.0000 0.0000 -2.4884 0.0000 25.2686
#
#
#
# Elastic Compliance Matrix: (Units=1/GPa)
#
#
# Indices 1 2 3 4 5 6 
#
# 1 0.019502 0.001521 -0.002838 0.000000 0.013200 0.000000
# 2 0.001521 0.010317 -0.002337 0.000000 0.005726 0.000000
# 3 -0.002838 -0.002337 0.012231 0.000000 0.005351 0.000000
# 4 0.000000 0.000000 0.000000 0.035892 0.000000 0.003535
# 5 0.013200 0.005726 0.005351 0.000000 0.060926 0.000000
# 6 0.000000 0.000000 0.000000 0.003535 0.000000 0.039923
#
#
# Mechanical properties :
#
#
# Convention : Reuss Voigt Hill
#
# Bulk Modulus (GPa) = 28.78321 43.26763 36.02542
# Shear Modulus (GPa) = 25.29370 29.84112 27.56741
#
# Velocity S-wave (km/s) = 3.42604 3.72130 3.57672
# Velocity P-wave (km/s) = 5.38586 6.20828 5.81164
#
# Compressibility (1/GPa) = 0.03474248
#
# Stress axis : x y z
#
# Youngs Moduli (GPa) = 51.27723 96.92615 81.76224
#
# Poissons Ratio (x) = -0.14745 0.23202
# Poissons Ratio (y) = -0.07801 0.19108
# Poissons Ratio (z) = 0.14551 0.22652
#
# Static dielectric constant tensor:
#      x y z
#    x 1.765190 0.000000 0.036140 
#    y 0.000000 1.798540 0.000000 
#    z 0.036140 0.000000 1.851000 
# 
# From -- ./inp_files/273135.got.cif
#   From: 2010.05.17/outbox.cif.g08.bks.cpg/sg15_137_cif.got.tgz:273135.got - 2010.06.03 18:47:42.
