data_PCOD9277348
_publ_section_title
;
Structure prediction by ZEFSAII (Michael W. Deem and Ramdas Pophale) SiO2 
 PCOD9277348
Probable space group: C 2/C
;
_chemical_formula_sum "Si O2"
_cell_formula_units_Z 44
_cell_length_a 9.354098
_cell_length_b 15.474454
_cell_length_c 18.892632
_cell_angle_alpha 90.000000
_cell_angle_beta 47.488280
_cell_angle_gamma 90.000000
_cell_volume 2015.854486
_symmetry_space_group_name_H-M "C 2/C"
_symmetry_group_IT_number 15
_symmetry_cell_setting 'monoclinic'
loop_
_space_group_symop_operation_xyz
x,y,z
-x,y,1/2-z
-x,-y,-z
x,-y,1/2+z
1/2+x,1/2+y,z
1/2-x,1/2+y,1/2-z
1/2-x,1/2-y,-z
1/2+x,1/2-y,1/2+z
loop_
_atom_site_type_symbol
_atom_site_label
_atom_site_fract_x
_atom_site_fract_y
_atom_site_fract_z
Si Si1 0.996507 0.857097 0.855407
Si Si2 0.598929 0.048813 0.288203
Si Si3 0.657542 0.382792 0.446792
Si Si4 0.500000 0.207153 0.750000
Si Si5 0.755719 0.074661 0.019469
Si Si6 0.300230 0.480007 0.349413
O O1 0.193663 0.911375 0.802308
O O2 0.058765 0.772757 0.792694
O O3 0.858233 0.921946 0.855857
O O4 0.890064 0.835133 0.963741
O O5 0.500000 0.016428 0.250000
O O6 0.436616 0.110481 0.378290
O O7 0.649555 0.983975 0.335490
O O8 0.710812 0.479033 0.457168
O O9 0.457847 0.380881 0.469776
O O10 0.824317 0.345649 0.342001
O O11 0.731098 0.066126 0.943532
O O12 0.500000 0.443645 0.250000
#
# Coordination Sequence:
#
# PCOD9277348 Si02
#       6
#     8   8   8   4   8   8
#     4  10  20  41  58  84 122 164 207 246 295 361
#     4  11  19  34  66  88 118 167 199 244 310 367
#     4  10  23  36  61  93 116 160 202 265 294 367
#     4  12  22  38  64  84 124 164 218 238 298 366
#     4  10  21  37  60  95 125 146 208 251 323 356
#     4   9  19  35  59  86 125 161 195 253 302 359
#
# _framework density 21.826974
#
# number of rings (size 3 to 8) (size 9 to 14) (size 15 to 20)
#    0.000    1.818    4.545    1.091    3.818    0.000 
#    0.000    0.909    0.000    0.000    0.000    0.000 
#    0.000    0.000    0.000    0.000    0.000    0.000 
#
# Total GULP energy -122788.663140 kJ/mol
# GULP energy per Si atom -5581.302870 kJ/mol
# Density = 2.177729 g / cm^3
# Si number density = 21.826974 Si / 1000 Ang^3
#
#
#
# Elastic Constant Matrix: (Units=GPa)
#
#
# Indices 1 2 3 4 5 6 
#
# 1 141.7512 3.5372 44.5038 0.0002 17.7968 -0.0001
# 2 3.5372 25.8735 22.1314 0.0002 6.9830 -0.0001
# 3 44.5038 22.1314 189.8406 0.0005 19.9861 -0.0002
# 4 0.0002 0.0002 0.0005 24.8358 -0.0002 -0.6404
# 5 17.7968 6.9830 19.9861 -0.0002 39.1772 0.0001
# 6 -0.0001 -0.0001 -0.0002 -0.6404 0.0001 2.9463
#
#
#
# Elastic Compliance Matrix: (Units=1/GPa)
#
#
# Indices 1 2 3 4 5 6 
#
# 1 0.007924 0.001150 -0.001681 0.000000 -0.002947 0.000000
# 2 0.001150 0.044201 -0.004796 0.000000 -0.005955 0.000002
# 3 -0.001681 -0.004796 0.006394 0.000000 -0.001643 0.000000
# 4 0.000000 0.000000 0.000000 0.040491 0.000000 0.008801
# 5 -0.002947 -0.005955 -0.001643 0.000000 0.028763 -0.000001
# 6 0.000000 0.000002 0.000000 0.008801 -0.000001 0.341322
#
#
# Mechanical properties :
#
#
# Convention : Reuss Voigt Hill
#
# Bulk Modulus (GPa) = 20.89195 55.31222 38.10209
# Shear Modulus (GPa) = 10.08665 32.54472 21.31568
#
# Velocity S-wave (km/s) = 2.15203 3.86558 3.12841
# Velocity P-wave (km/s) = 3.97081 6.73200 5.52663
#
# Compressibility (1/GPa) = 0.04786532
#
# Stress axis : x y z
#
# Youngs Moduli (GPa) = 126.20261 22.62368 156.40111
#
# Poissons Ratio (x) = -0.02602 0.26298
# Poissons Ratio (y) = -0.14517 0.75006
# Poissons Ratio (z) = 0.21220 0.10850
#
# Static dielectric constant tensor:
#      x y z
#    x 1.823230 0.000000 -0.009730 
#    y 0.000000 1.821500 0.000000 
#    z -0.009730 0.000000 1.839700 
# 
# From -- ./inp_files/134378.got.cif
#   From: 2010.05.17/outbox.cif.g08.bks.cpg/sg15_68_cif.got.tgz:134378.got - 2010.06.03 18:47:42.
