data_PCOD9277215
_publ_section_title
;
Structure prediction by ZEFSAII (Michael W. Deem and Ramdas Pophale) SiO2 
 PCOD9277215
Probable space group: C 2/C
;
_chemical_formula_sum "Si O2"
_cell_formula_units_Z 44
_cell_length_a 17.941487
_cell_length_b 14.321821
_cell_length_c 9.495452
_cell_angle_alpha 90.000000
_cell_angle_beta 45.081529
_cell_angle_gamma 90.000000
_cell_volume 1727.724221
_symmetry_space_group_name_H-M "C 2/C"
_symmetry_group_IT_number 15
_symmetry_cell_setting 'monoclinic'
loop_
_space_group_symop_operation_xyz
x,y,z
-x,y,1/2-z
-x,-y,-z
x,-y,1/2+z
1/2+x,1/2+y,z
1/2-x,1/2+y,1/2-z
1/2-x,1/2-y,-z
1/2+x,1/2-y,1/2+z
loop_
_atom_site_type_symbol
_atom_site_label
_atom_site_fract_x
_atom_site_fract_y
_atom_site_fract_z
Si Si1 0.500000 0.697167 0.250000
Si Si2 0.500000 0.051995 0.250000
Si Si3 0.863579 0.275309 0.900245
Si Si4 0.659432 0.543531 0.934558
Si Si5 0.216609 0.463864 0.950276
Si Si6 0.000000 0.890812 0.250000
Si Si7 0.329037 0.727753 0.266763
O O1 0.409327 0.632630 0.437225
O O2 0.439749 0.742710 0.200706
O O3 0.575959 0.129804 0.226043
O O4 0.405229 0.982092 0.423254
O O5 0.930899 0.185252 0.761201
O O6 0.750000 0.250000 0.000000
O O7 0.848458 0.276152 0.091255
O O8 0.713940 0.544958 0.712282
O O9 0.752491 0.536788 0.926611
O O10 0.575488 0.459269 0.063280
O O11 0.274558 0.373222 0.805848
O O12 0.250000 0.750000 0.500000
#
# Coordination Sequence:
#
# PCOD9277215 Si02
#       7
#     4   4   8   8   8   4   8
#     4   9  24  42  72 103 134 186 232 303 368 436
#     4  11  28  44  74 105 144 198 244 293 378 432
#     4  11  25  47  69 105 147 191 244 302 362 445
#     4  10  22  42  74 102 138 171 247 298 361 437
#     4  11  25  47  69 106 139 187 239 305 360 439
#     4  10  20  40  70 100 130 190 228 292 370 416
#     4  11  26  47  71 105 144 191 241 304 367 438
#
# _framework density 25.467029
#
# number of rings (size 3 to 8) (size 9 to 14) (size 15 to 20)
#    0.000    1.455    1.818    1.091    7.636    6.545 
#    0.000    0.000    0.000    0.000    0.000    0.000 
#    0.000    0.000    0.000    0.000    0.000    0.000 
#
# Total GULP energy -122578.539989 kJ/mol
# GULP energy per Si atom -5571.751818 kJ/mol
# Density = 2.540906 g / cm^3
# Si number density = 25.467029 Si / 1000 Ang^3
#
#
#
# Elastic Constant Matrix: (Units=GPa)
#
#
# Indices 1 2 3 4 5 6 
#
# 1 120.6695 12.6793 54.9308 0.0000 -17.1803 0.0000
# 2 12.6793 49.5834 4.2930 0.0000 -7.8099 0.0000
# 3 54.9308 4.2930 121.5627 0.0000 -14.9618 0.0000
# 4 0.0000 0.0000 0.0000 -4.8309 0.0000 -23.6962
# 5 -17.1803 -7.8099 -14.9618 0.0000 59.1158 0.0000
# 6 0.0000 0.0000 0.0000 -23.6962 0.0000 25.9363
#
#
#
# Elastic Compliance Matrix: (Units=1/GPa)
#
#
# Indices 1 2 3 4 5 6 
#
# 1 0.010855 -0.002107 -0.004621 0.000000 0.001707 0.000000
# 2 -0.002107 0.021025 0.000491 0.000000 0.002290 0.000000
# 3 -0.004621 0.000491 0.010465 0.000000 0.001371 0.000000
# 4 0.000000 0.000000 0.000000 -0.037764 0.000000 -0.034502
# 5 0.001707 0.002290 0.001371 0.000000 0.018061 0.000000
# 6 0.000000 0.000000 0.000000 -0.034502 0.000000 0.007034
#
#
# Mechanical properties :
#
#
# Convention : Reuss Voigt Hill
#
# Bulk Modulus (GPa) = 33.47487 48.40242 40.93864
# Shear Modulus (GPa) = 95.95696 30.70506 63.33101
#
# Velocity S-wave (km/s) = 6.14497 3.47606 4.99218
# Velocity P-wave (km/s) = 7.96998 5.92940 7.02418
#
# Compressibility (1/GPa) = 0.02987316
#
# Stress axis : x y z
#
# Youngs Moduli (GPa) = 92.12492 47.56261 95.55253
#
# Poissons Ratio (x) = 0.10021 0.44150
# Poissons Ratio (y) = 0.19409 -0.04695
# Poissons Ratio (z) = 0.42566 -0.02337
#
# Static dielectric constant tensor:
#      x y z
#    x 2.201760 0.000000 -0.090170 
#    y 0.000000 2.306600 0.000000 
#    z -0.090170 0.000000 2.021420 
# 
# From -- ./inp_files/106611.got.cif
#   From: 2010.05.17/outbox.cif.g08.bks.cpg/sg15_54_cif.got.tgz:106611.got - 2010.06.03 18:47:42.
