data_PCOD9277513
_publ_section_title
;
Structure prediction by ZEFSAII (Michael W. Deem and Ramdas Pophale) SiO2 
 PCOD9277513
Probable space group: C 2/C
;
_chemical_formula_sum "Si O2"
_cell_formula_units_Z 44
_cell_length_a 10.090830
_cell_length_b 16.953975
_cell_length_c 13.198319
_cell_angle_alpha 90.000000
_cell_angle_beta 93.608410
_cell_angle_gamma 90.000000
_cell_volume 2253.487774
_symmetry_space_group_name_H-M "C 2/C"
_symmetry_group_IT_number 15
_symmetry_cell_setting 'monoclinic'
loop_
_space_group_symop_operation_xyz
x,y,z
-x,y,1/2-z
-x,-y,-z
x,-y,1/2+z
1/2+x,1/2+y,z
1/2-x,1/2+y,1/2-z
1/2-x,1/2-y,-z
1/2+x,1/2-y,1/2+z
loop_
_atom_site_type_symbol
_atom_site_label
_atom_site_fract_x
_atom_site_fract_y
_atom_site_fract_z
Si Si1 0.401236 0.771544 0.539688
Si Si2 0.646592 0.520935 0.127442
Si Si3 0.000000 0.659686 0.250000
Si Si4 0.423249 0.378576 0.501708
Si Si5 0.739059 0.064209 0.160405
Si Si6 0.876320 0.443126 0.485560
O O1 0.250000 0.750000 0.500000
O O2 0.423299 0.790139 0.660086
O O3 0.507204 0.704237 0.516828
O O4 0.423631 0.853842 0.482384
O O5 0.533918 0.570089 0.065310
O O6 0.660872 0.546913 0.243330
O O7 0.618467 0.429320 0.099423
O O8 0.783594 0.545596 0.079048
O O9 0.107785 0.605671 0.197513
O O10 0.300534 0.381826 0.574248
O O11 0.707478 0.978757 0.110822
O O12 0.000000 0.500000 0.500000
#
# Coordination Sequence:
#
# PCOD9277513 Si02
#       6
#     8   8   4   8   8   8
#     4  12  24  44  66  97 138 171 221 277 334 385
#     4  10  20  41  64  93 128 174 220 264 327 397
#     4  12  24  42  72  92 134 180 218 276 338 388
#     4  10  23  39  65  97 132 171 216 278 326 387
#     4  11  21  40  70  92 128 178 223 262 329 398
#     4  11  21  39  68  90 126 175 210 272 322 390
#
# _framework density 19.525289000000001
#
# number of rings (size 3 to 8) (size 9 to 14) (size 15 to 20)
#    0.000    1.091    5.455    0.545    0.000    2.182 
#    0.000    0.000   16.000    0.000    0.000    0.000 
#    0.000    0.000    0.000    0.000    0.000    0.000 
#
# Total GULP energy -122795.240204 kJ/mol
# GULP energy per Si atom -5581.601827 kJ/mol
# Density = 1.948085 g / cm^3
# Si number density = 19.525289 Si / 1000 Ang^3
#
#
#
# Elastic Constant Matrix: (Units=GPa)
#
#
# Indices 1 2 3 4 5 6 
#
# 1 84.8142 40.4712 13.5788 0.0000 -12.4327 0.0000
# 2 40.4712 150.6345 37.6965 0.0000 -10.5084 0.0000
# 3 13.5788 37.6965 95.2319 0.0000 12.7834 0.0000
# 4 0.0000 0.0000 0.0000 24.2809 0.0000 4.8914
# 5 -12.4327 -10.5084 12.7834 0.0000 35.8808 0.0000
# 6 0.0000 0.0000 0.0000 4.8914 0.0000 43.6574
#
#
#
# Elastic Compliance Matrix: (Units=1/GPa)
#
#
# Indices 1 2 3 4 5 6 
#
# 1 0.014170 -0.003151 -0.001374 0.000000 0.004477 0.000000
# 2 -0.003151 0.008476 -0.003248 0.000000 0.002548 0.000000
# 3 -0.001374 -0.003248 0.012785 0.000000 -0.005982 0.000000
# 4 0.000000 0.000000 0.000000 0.042136 0.000000 -0.004721
# 5 0.004477 0.002548 -0.005982 0.000000 0.032299 0.000000
# 6 0.000000 0.000000 0.000000 -0.004721 0.000000 0.023435
#
#
# Mechanical properties :
#
#
# Convention : Reuss Voigt Hill
#
# Bulk Modulus (GPa) = 50.28780 57.13041 53.70911
# Shear Modulus (GPa) = 32.15969 36.69275 34.42622
#
# Velocity S-wave (km/s) = 4.06282 4.33973 4.20356
# Velocity P-wave (km/s) = 6.91519 7.37795 7.15032
#
# Compressibility (1/GPa) = 0.01988554
#
# Stress axis : x y z
#
# Youngs Moduli (GPa) = 70.57031 117.98567 78.21533
#
# Poissons Ratio (x) = 0.37177 0.10748
# Poissons Ratio (y) = 0.22236 0.25402
# Poissons Ratio (z) = 0.09697 0.38318
#
# Static dielectric constant tensor:
#      x y z
#    x 1.787520 0.000000 0.002070 
#    y 0.000000 1.708500 0.000000 
#    z 0.002070 0.000000 1.710580 
# 
# From -- ./inp_files/86151.got.cif
#   From: 2010.05.17/outbox.cif.g08.bks.cpg/sg15_44_cif.got.tgz:86151.got - 2010.06.03 18:47:42.
