data_PCOD9277153
_publ_section_title
;
Structure prediction by ZEFSAII (Michael W. Deem and Ramdas Pophale) SiO2 
 PCOD9277153
Probable space group: C 2/C
;
_chemical_formula_sum "Si O2"
_cell_formula_units_Z 64
_cell_length_a 12.928328
_cell_length_b 9.778049
_cell_length_c 24.435032
_cell_angle_alpha 90.000000
_cell_angle_beta 123.789475
_cell_angle_gamma 90.000000
_cell_volume 2567.165021
_symmetry_space_group_name_H-M "C 2/C"
_symmetry_group_IT_number 15
_symmetry_cell_setting 'monoclinic'
loop_
_space_group_symop_operation_xyz
x,y,z
-x,y,1/2-z
-x,-y,-z
x,-y,1/2+z
1/2+x,1/2+y,z
1/2-x,1/2+y,1/2-z
1/2-x,1/2-y,-z
1/2+x,1/2-y,1/2+z
loop_
_atom_site_type_symbol
_atom_site_label
_atom_site_fract_x
_atom_site_fract_y
_atom_site_fract_z
Si Si1 0.259145 0.224610 0.319899
Si Si2 0.285638 0.539460 0.636051
Si Si3 0.385959 0.805295 0.057134
Si Si4 0.630188 0.237719 0.262248
Si Si5 0.441800 0.651531 0.480846
Si Si6 0.096869 0.420918 0.988319
Si Si7 0.280409 0.521466 0.354568
Si Si8 0.473777 0.374677 0.820728
O O1 0.351678 0.248362 0.296595
O O2 0.265272 0.361166 0.357324
O O3 0.126266 0.187370 0.251491
O O4 0.289427 0.091833 0.363848
O O5 0.277940 0.655376 0.680237
O O6 0.224990 0.581032 0.561092
O O7 0.426630 0.486254 0.670036
O O8 0.478714 0.738453 0.039511
O O9 0.439997 0.743910 0.128795
O O10 0.250000 0.750000 0.000000
O O11 0.389252 0.969652 0.055954
O O12 0.500000 0.268773 0.250000
O O13 0.663618 0.084494 0.289449
O O14 0.500000 0.500000 0.500000
O O15 0.435101 0.760190 0.528501
O O16 0.308620 0.610249 0.416499
O O17 0.000000 0.500000 0.000000
O O18 0.392388 0.556138 0.345002
#
# Coordination Sequence:
#
# PCOD9277153 Si02
#       8
#     8   8   8   8   8   8   8   8
#     4  11  24  38  62  97 125 169 221 262 329 394
#     4  12  22  41  70  91 130 174 220 264 327 402
#     4  10  20  40  68  96 131 167 216 279 321 396
#     4  11  22  41  62  88 129 169 210 265 326 396
#     4  10  22  41  64  88 131 172 214 272 332 382
#     4  10  22  39  66  99 123 172 227 260 332 398
#     4  10  22  40  60  90 132 166 208 274 325 383
#     4  10  22  41  65  96 132 173 218 267 332 395
#
# _framework density 24.930225
#
# number of rings (size 3 to 8) (size 9 to 14) (size 15 to 20)
#    0.000    1.500    2.500    3.375    5.250    1.000 
#    0.000    0.625    0.000    0.000    0.000    0.000 
#    0.000    0.000    0.000    0.000    0.000    0.000 
#
# Total GULP energy -178911.969208 kJ/mol
# GULP energy per Si atom -5590.999038 kJ/mol
# Density = 2.487348 g / cm^3
# Si number density = 24.930225 Si / 1000 Ang^3
#
#
#
# Elastic Constant Matrix: (Units=GPa)
#
#
# Indices 1 2 3 4 5 6 
#
# 1 72.6326 15.2101 4.0220 0.0000 13.6696 0.0000
# 2 15.2101 180.5096 20.8309 0.0000 -3.9851 0.0000
# 3 4.0220 20.8309 66.1537 0.0000 13.4764 0.0000
# 4 0.0000 0.0000 0.0000 25.3716 0.0000 -8.2841
# 5 13.6696 -3.9851 13.4764 0.0000 18.0093 0.0000
# 6 0.0000 0.0000 0.0000 -8.2841 0.0000 25.5700
#
#
#
# Elastic Compliance Matrix: (Units=1/GPa)
#
#
# Indices 1 2 3 4 5 6 
#
# 1 0.016949 -0.002087 0.002763 0.000000 -0.015394 0.000000
# 2 -0.002087 0.006156 -0.002846 0.000000 0.005076 0.000000
# 3 0.002763 -0.002846 0.019349 0.000000 -0.017206 0.000000
# 4 0.000000 0.000000 0.000000 0.044077 0.000000 0.014280
# 5 -0.015394 0.005076 -0.017206 0.000000 0.081210 0.000000
# 6 0.000000 0.000000 0.000000 0.014280 0.000000 0.043735
#
#
# Mechanical properties :
#
#
# Convention : Reuss Voigt Hill
#
# Bulk Modulus (GPa) = 26.23627 44.38020 35.30824
# Shear Modulus (GPa) = 21.87986 32.40569 27.14278
#
# Velocity S-wave (km/s) = 2.96572 3.60926 3.30320
# Velocity P-wave (km/s) = 4.71954 5.93375 5.36113
#
# Compressibility (1/GPa) = 0.03811517
#
# Stress axis : x y z
#
# Youngs Moduli (GPa) = 59.00001 162.43923 51.68104
#
# Poissons Ratio (x) = 0.33898 -0.14278
# Poissons Ratio (y) = 0.12312 0.14706
# Poissons Ratio (z) = -0.16299 0.46223
#
# Static dielectric constant tensor:
#      x y z
#    x 2.043660 0.000000 -0.010550 
#    y 0.000000 1.959750 0.000000 
#    z -0.010550 0.000000 2.113490 
# 
# From -- ./inp_files/313187.got.cif
#   From: 2010.05.17/outbox.cif.g08.bks.cpg/sg15_157_cif.got.tgz:313187.got - 2010.06.03 18:47:42.
