data_PCOD9277918
_publ_section_title
;
Structure prediction by ZEFSAII (Michael W. Deem and Ramdas Pophale) SiO2 
 PCOD9277918
Probable space group: C 2/C
;
_chemical_formula_sum "Si O2"
_cell_formula_units_Z 36
_cell_length_a 13.723379
_cell_length_b 12.203641
_cell_length_c 9.116699
_cell_angle_alpha 90.000000
_cell_angle_beta 106.167982
_cell_angle_gamma 90.000000
_cell_volume 1466.434283
_symmetry_space_group_name_H-M "C 2/C"
_symmetry_group_IT_number 15
_symmetry_cell_setting 'monoclinic'
loop_
_space_group_symop_operation_xyz
x,y,z
-x,y,1/2-z
-x,-y,-z
x,-y,1/2+z
1/2+x,1/2+y,z
1/2-x,1/2+y,1/2-z
1/2-x,1/2-y,-z
1/2+x,1/2-y,1/2+z
loop_
_atom_site_type_symbol
_atom_site_label
_atom_site_fract_x
_atom_site_fract_y
_atom_site_fract_z
Si Si1 0.405835 0.245740 0.960326
Si Si2 0.885026 0.981525 0.013420
Si Si3 0.500000 0.613162 0.250000
Si Si4 0.687499 0.075957 0.805318
Si Si5 0.577717 0.904511 0.571757
O O1 0.356070 0.353269 0.013156
O O2 0.470082 0.305319 0.862971
O O3 0.336120 0.160747 0.838010
O O4 0.498295 0.188888 0.085382
O O5 0.802965 0.053711 0.895595
O O6 0.902287 0.038731 0.176819
O O7 0.000000 0.000000 0.000000
O O8 0.635993 0.113162 0.939608
O O9 0.645605 0.958195 0.727953
O O10 0.500000 0.000000 0.500000
#
# Coordination Sequence:
#
# PCOD9277918 Si02
#       5
#     8   8   4   8   8
#     4  10  20  43  67  96 127 177 223 273 337 390
#     4  10  25  39  60  97 138 169 221 276 324 398
#     4  10  20  42  62  88 140 172 220 270 330 392
#     4  11  23  42  72  99 130 177 227 273 329 403
#     4  10  21  42  70 101 129 163 225 283 325 394
#
# _framework density 24.549343
#
# number of rings (size 3 to 8) (size 9 to 14) (size 15 to 20)
#    0.000    1.778    2.222    2.000    6.222    4.444 
#    8.000    4.444    0.000    0.000    0.000    0.000 
#    0.000    0.000    0.000    0.000    0.000    0.000 
#
# Total GULP energy -100248.027175 kJ/mol
# GULP energy per Si atom -5569.334843 kJ/mol
# Density = 2.449347 g / cm^3
# Si number density = 24.549343 Si / 1000 Ang^3
#
#
#
# Elastic Constant Matrix: (Units=GPa)
#
#
# Indices 1 2 3 4 5 6 
#
# 1 104.5715 26.3660 47.5751 0.0000 16.0212 0.0000
# 2 26.3660 133.3928 49.5797 0.0000 26.0687 0.0000
# 3 47.5751 49.5797 134.4735 0.0000 35.0291 0.0000
# 4 0.0000 0.0000 0.0000 41.5735 0.0000 9.1276
# 5 16.0212 26.0687 35.0291 0.0000 54.2808 0.0000
# 6 0.0000 0.0000 0.0000 9.1276 0.0000 13.9422
#
#
#
# Elastic Compliance Matrix: (Units=1/GPa)
#
#
# Indices 1 2 3 4 5 6 
#
# 1 0.011507 -0.000803 -0.003595 0.000000 -0.000691 0.000000
# 2 -0.000803 0.009042 -0.002380 0.000000 -0.002569 0.000000
# 3 -0.003595 -0.002380 0.010833 0.000000 -0.004786 0.000000
# 4 0.000000 0.000000 0.000000 0.028092 0.000000 -0.018391
# 5 -0.000691 -0.002569 -0.004786 0.000000 0.022949 0.000000
# 6 0.000000 0.000000 0.000000 -0.018391 0.000000 0.083765
#
#
# Mechanical properties :
#
#
# Convention : Reuss Voigt Hill
#
# Bulk Modulus (GPa) = 56.10201 68.83104 62.46652
# Shear Modulus (GPa) = 26.92714 38.55377 32.74046
#
# Velocity S-wave (km/s) = 3.31548 3.96720 3.65589
# Velocity P-wave (km/s) = 6.12853 7.00597 6.58189
#
# Compressibility (1/GPa) = 0.01782467
#
# Stress axis : x y z
#
# Youngs Moduli (GPa) = 86.90612 110.59133 92.31328
#
# Poissons Ratio (x) = 0.08883 0.33185
# Poissons Ratio (y) = 0.06981 0.21974
# Poissons Ratio (z) = 0.31242 0.26325
#
# Static dielectric constant tensor:
#      x y z
#    x 2.097670 0.000000 -0.231510 
#    y 0.000000 2.063650 0.000000 
#    z -0.231510 0.000000 3.061200 
# 
# From -- ./inp_files/103404.got.cif
#   From: 2010.05.17/outbox.cif.g08.bks.cpg/sg15_52_cif.got.tgz:103404.got - 2010.06.03 18:47:42.
