data_PCOD9277177
_publ_section_title
;
Structure prediction by ZEFSAII (Michael W. Deem and Ramdas Pophale) SiO2 
 PCOD9277177
Probable space group: C 2/C
;
_chemical_formula_sum "Si O2"
_cell_formula_units_Z 60
_cell_length_a 11.300345
_cell_length_b 14.617958
_cell_length_c 17.489237
_cell_angle_alpha 90.000000
_cell_angle_beta 68.580618
_cell_angle_gamma 90.000000
_cell_volume 2689.474243
_symmetry_space_group_name_H-M "C 2/C"
_symmetry_group_IT_number 15
_symmetry_cell_setting 'monoclinic'
loop_
_space_group_symop_operation_xyz
x,y,z
-x,y,1/2-z
-x,-y,-z
x,-y,1/2+z
1/2+x,1/2+y,z
1/2-x,1/2+y,1/2-z
1/2-x,1/2-y,-z
1/2+x,1/2-y,1/2+z
loop_
_atom_site_type_symbol
_atom_site_label
_atom_site_fract_x
_atom_site_fract_y
_atom_site_fract_z
Si Si1 0.245514 0.328892 0.566352
Si Si2 0.000000 0.736562 0.750000
Si Si3 0.092973 0.115733 0.908639
Si Si4 0.650207 0.571830 0.737507
Si Si5 0.857424 0.010858 0.466587
Si Si6 0.380301 0.818015 0.120941
Si Si7 0.212773 0.888136 0.671196
Si Si8 0.008246 0.681007 0.430055
O O1 0.250000 0.250000 0.500000
O O2 0.291449 0.423531 0.520182
O O3 0.327236 0.284941 0.615124
O O4 0.094905 0.340613 0.611034
O O5 0.041408 0.683276 0.818040
O O6 0.117819 0.803395 0.701111
O O7 0.171433 0.121010 0.813373
O O8 0.019005 0.209559 0.933655
O O9 0.999983 0.028183 0.922006
O O10 0.161987 0.094162 0.970523
O O11 0.500000 0.582925 0.750000
O O12 0.752506 0.620815 0.658408
O O13 0.684274 0.465281 0.741147
O O14 0.817755 0.050640 0.395766
O O15 0.460791 0.848855 0.026618
O O16 0.356618 0.856849 0.627238
#
# Coordination Sequence:
#
# PCOD9277177 Si02
#       8
#     8   4   8   8   8   8   8   8
#     4  10  20  40  68  99 130 173 230 280 328 395
#     4  12  26  44  66 102 140 180 218 288 356 398
#     4  11  22  40  65  99 129 179 232 271 334 408
#     4  12  24  42  69  98 138 179 226 281 348 404
#     4  11  22  38  69  94 133 178 229 279 319 406
#     4  11  25  43  70  99 141 178 228 285 343 411
#     4  12  25  43  68 100 137 179 226 282 342 410
#     4  11  24  44  70 101 135 179 233 278 340 409
#
# _framework density 22.309191999999999
#
# number of rings (size 3 to 8) (size 9 to 14) (size 15 to 20)
#    0.000    0.800    4.667    4.000    3.733    5.333 
#    0.000    0.000    0.000    0.000    0.000    0.000 
#    0.000    0.000    0.000    0.000    0.000    0.000 
#
# Total GULP energy -167463.722155 kJ/mol
# GULP energy per Si atom -5582.124072 kJ/mol
# Density = 2.225842 g / cm^3
# Si number density = 22.309192 Si / 1000 Ang^3
#
#
#
# Elastic Constant Matrix: (Units=GPa)
#
#
# Indices 1 2 3 4 5 6 
#
# 1 78.7787 0.7860 27.8900 0.0000 -22.0744 0.0000
# 2 0.7860 34.3027 7.8625 0.0000 -9.4411 0.0000
# 3 27.8900 7.8625 76.4753 0.0000 -11.4559 0.0000
# 4 0.0000 0.0000 0.0000 32.0916 0.0000 -7.3216
# 5 -22.0744 -9.4411 -11.4559 0.0000 44.4907 0.0000
# 6 0.0000 0.0000 0.0000 -7.3216 0.0000 25.8612
#
#
#
# Elastic Compliance Matrix: (Units=1/GPa)
#
#
# Indices 1 2 3 4 5 6 
#
# 1 0.016623 0.002886 -0.005234 0.000000 0.007512 0.000000
# 2 0.002886 0.031851 -0.003225 0.000000 0.007361 0.000000
# 3 -0.005234 -0.003225 0.015420 0.000000 0.000689 0.000000
# 4 0.000000 0.000000 0.000000 0.033312 0.000000 0.009431
# 5 0.007512 0.007361 0.000689 0.000000 0.027943 0.000000
# 6 0.000000 0.000000 0.000000 0.009431 0.000000 0.041338
#
#
# Mechanical properties :
#
#
# Convention : Reuss Voigt Hill
#
# Bulk Modulus (GPa) = 18.95744 29.18150 24.06947
# Shear Modulus (GPa) = 25.61284 30.68991 28.15137
#
# Velocity S-wave (km/s) = 3.39202 3.71302 3.55614
# Velocity P-wave (km/s) = 4.88437 5.61167 5.26060
#
# Compressibility (1/GPa) = 0.05274974
#
# Stress axis : x y z
#
# Youngs Moduli (GPa) = 60.15792 31.39611 64.85262
#
# Poissons Ratio (x) = -0.09062 0.33941
# Poissons Ratio (y) = -0.17364 0.20913
# Poissons Ratio (z) = 0.31484 0.10124
#
# Static dielectric constant tensor:
#      x y z
#    x 1.916360 0.000000 -0.035510 
#    y 0.000000 1.791590 0.000000 
#    z -0.035510 0.000000 1.725200 
# 
# From -- ./inp_files/198304.got.cif
#   From: 2010.05.17/outbox.cif.g08.bks.cpg/sg15_100_cif.got.tgz:198304.got - 2010.06.03 18:47:42.
