data_PCOD9277270
_publ_section_title
;
Structure prediction by ZEFSAII (Michael W. Deem and Ramdas Pophale) SiO2 
 PCOD9277270
Probable space group: C 2/C
;
_chemical_formula_sum "Si O2"
_cell_formula_units_Z 56
_cell_length_a 27.063856
_cell_length_b 8.743819
_cell_length_c 16.069606
_cell_angle_alpha 90.000000
_cell_angle_beta 136.480969
_cell_angle_gamma 90.000000
_cell_volume 2618.546106
_symmetry_space_group_name_H-M "C 2/C"
_symmetry_group_IT_number 15
_symmetry_cell_setting 'monoclinic'
loop_
_space_group_symop_operation_xyz
x,y,z
-x,y,1/2-z
-x,-y,-z
x,-y,1/2+z
1/2+x,1/2+y,z
1/2-x,1/2+y,1/2-z
1/2-x,1/2-y,-z
1/2+x,1/2-y,1/2+z
loop_
_atom_site_type_symbol
_atom_site_label
_atom_site_fract_x
_atom_site_fract_y
_atom_site_fract_z
Si Si1 0.441933 0.217933 0.285551
Si Si2 0.118819 0.804055 0.979581
Si Si3 0.138848 0.632554 0.165579
Si Si4 0.250000 0.750000 0.500000
Si Si5 0.800324 0.100142 0.389538
Si Si6 0.596499 0.840231 0.046874
Si Si7 0.144239 0.507828 0.434481
Si Si8 0.500000 0.490236 0.250000
O O1 0.374392 0.224551 0.265191
O O2 0.513282 0.184305 0.425087
O O3 0.421472 0.082237 0.197805
O O4 0.454798 0.373829 0.252188
O O5 0.139895 0.674157 0.938844
O O6 0.053102 0.904814 0.866996
O O7 0.100560 0.720458 0.044090
O O8 0.181619 0.923317 0.076550
O O9 0.223257 0.623996 0.253779
O O10 0.109109 0.459156 0.137089
O O11 0.205451 0.822564 0.526347
O O12 0.215240 0.579564 0.480879
O O13 0.861121 0.180889 0.406941
O O14 0.632154 0.931545 0.013323
#
# Coordination Sequence:
#
# PCOD9277270 Si02
#       8
#     8   8   8   4   8   8   8   4
#     4  12  21  44  69  96 129 189 228 281 346 420
#     4  11  26  42  66 106 138 181 230 293 348 412
#     4  11  25  40  68  99 136 174 239 286 342 421
#     4  10  20  40  70  98 126 180 228 274 336 414
#     4  11  21  44  66  95 138 181 225 282 360 409
#     4  10  21  40  65  90 131 181 220 276 343 414
#     4  10  21  39  69  96 131 173 230 278 331 413
#     4  12  24  44  72  96 148 184 228 290 360 412
#
# _framework density 21.385912999999999
#
# number of rings (size 3 to 8) (size 9 to 14) (size 15 to 20)
#    0.000    1.143    4.286    2.143    4.000    1.143 
#    0.000    0.000    0.000    0.000    0.000    0.000 
#    0.000    0.000    0.000    0.000    0.000    0.000 
#
# Total GULP energy -155874.599365 kJ/mol
# GULP energy per Si atom -5566.949977 kJ/mol
# Density = 2.133724 g / cm^3
# Si number density = 21.385913 Si / 1000 Ang^3
#
#
#
# Elastic Constant Matrix: (Units=GPa)
#
#
# Indices 1 2 3 4 5 6 
#
# 1 56.2346 32.1524 1.9703 0.0000 1.4784 0.0000
# 2 32.1524 157.1758 38.3745 0.0000 0.8667 0.0000
# 3 1.9703 38.3745 57.9234 0.0000 6.8668 0.0000
# 4 0.0000 0.0000 0.0000 48.7370 0.0000 4.6189
# 5 1.4784 0.8667 6.8668 0.0000 28.2936 0.0000
# 6 0.0000 0.0000 0.0000 4.6189 0.0000 17.1457
#
#
#
# Elastic Compliance Matrix: (Units=1/GPa)
#
#
# Indices 1 2 3 4 5 6 
#
# 1 0.020499 -0.004843 0.002699 0.000000 -0.001578 0.000000
# 2 -0.004843 0.008763 -0.005806 0.000000 0.001394 0.000000
# 3 0.002699 -0.005806 0.021637 0.000000 -0.005214 0.000000
# 4 0.000000 0.000000 0.000000 0.021056 0.000000 -0.005672
# 5 -0.001578 0.001394 -0.005214 0.000000 0.036649 0.000000
# 6 0.000000 0.000000 0.000000 -0.005672 0.000000 0.059852
#
#
# Mechanical properties :
#
#
# Convention : Reuss Voigt Hill
#
# Bulk Modulus (GPa) = 28.57382 46.25870 37.41626
# Shear Modulus (GPa) = 25.50726 32.09102 28.79914
#
# Velocity S-wave (km/s) = 3.45731 3.87792 3.67364
# Velocity P-wave (km/s) = 5.41548 6.45975 5.96053
#
# Compressibility (1/GPa) = 0.03499707
#
# Stress axis : x y z
#
# Youngs Moduli (GPa) = 48.78320 114.11699 46.21710
#
# Poissons Ratio (x) = 0.55272 -0.12472
# Poissons Ratio (y) = 0.23628 0.26833
# Poissons Ratio (z) = -0.13164 0.66256
#
# Static dielectric constant tensor:
#      x y z
#    x 1.763840 0.000000 -0.034790 
#    y 0.000000 1.776170 0.000000 
#    z -0.034790 0.000000 1.893120 
# 
# From -- ./inp_files/222120.got.cif
#   From: 2010.05.17/outbox.cif.g08.bks.cpg/sg15_112_cif.got.tgz:222120.got - 2010.06.03 18:47:42.
