data_PCOD9277747
_publ_section_title
;
Structure prediction by ZEFSAII (Michael W. Deem and Ramdas Pophale) SiO2 
 PCOD9277747
Probable space group: C 2/C
;
_chemical_formula_sum "Si O2"
_cell_formula_units_Z 32
_cell_length_a 7.160283
_cell_length_b 12.632973
_cell_length_c 15.085086
_cell_angle_alpha 90.000000
_cell_angle_beta 59.564432
_cell_angle_gamma 90.000000
_cell_volume 1176.498143
_symmetry_space_group_name_H-M "C 2/C"
_symmetry_group_IT_number 15
_symmetry_cell_setting 'monoclinic'
loop_
_space_group_symop_operation_xyz
x,y,z
-x,y,1/2-z
-x,-y,-z
x,-y,1/2+z
1/2+x,1/2+y,z
1/2-x,1/2+y,1/2-z
1/2-x,1/2-y,-z
1/2+x,1/2-y,1/2+z
loop_
_atom_site_type_symbol
_atom_site_label
_atom_site_fract_x
_atom_site_fract_y
_atom_site_fract_z
Si Si1 0.105682 0.324670 0.141559
Si Si2 0.913338 0.669475 0.506868
Si Si3 0.630511 0.944668 0.798393
Si Si4 0.005475 0.951676 0.400386
O O1 0.346144 0.348545 0.117272
O O2 0.000000 0.265851 0.250000
O O3 0.030393 0.283164 0.065065
O O4 0.003028 0.444295 0.160291
O O5 0.750000 0.750000 0.500000
O O6 0.734217 0.578013 0.573234
O O7 0.088780 0.620384 0.397540
O O8 0.500000 0.885450 0.750000
O O9 0.861675 0.976369 0.700909
O O10 0.000000 0.000000 0.500000
#
# Coordination Sequence:
#
# PCOD9277747 Si02
#       4
#     8   8   8   8
#     4   9  21  42  66  97 135 180 248 274 335 450
#     4  12  24  42  71 105 144 178 228 309 364 403
#     4   9  19  40  65  99 131 179 244 270 328 450
#     4  10  20  41  68  94 139 189 232 284 346 417
#
# _framework density 27.199366000000001
#
# number of rings (size 3 to 8) (size 9 to 14) (size 15 to 20)
#    0.000    2.500    5.000    0.750    0.000    5.000 
#    9.000    0.000    0.000    0.000    0.000    0.000 
#    0.000    0.000    0.000    0.000    0.000    0.000 
#
# Total GULP energy -89499.208005 kJ/mol
# GULP energy per Si atom -5593.700500 kJ/mol
# Density = 2.713746 g / cm^3
# Si number density = 27.199366 Si / 1000 Ang^3
#
#
#
# Elastic Constant Matrix: (Units=GPa)
#
#
# Indices 1 2 3 4 5 6 
#
# 1 200.9444 18.2649 104.6579 0.0000 12.8206 0.0000
# 2 18.2649 80.4243 40.5512 0.0000 -9.1022 0.0000
# 3 104.6579 40.5512 199.5993 0.0000 -19.0528 0.0000
# 4 0.0000 0.0000 0.0000 28.4223 0.0000 -8.1656
# 5 12.8206 -9.1022 -19.0528 0.0000 64.2669 0.0000
# 6 0.0000 0.0000 0.0000 -8.1656 0.0000 32.2979
#
#
#
# Elastic Compliance Matrix: (Units=1/GPa)
#
#
# Indices 1 2 3 4 5 6 
#
# 1 0.007261 0.000110 -0.004082 0.000000 -0.002643 0.000000
# 2 0.000110 0.013939 -0.002782 0.000000 0.001128 0.000000
# 3 -0.004082 -0.002782 0.007982 0.000000 0.002787 0.000000
# 4 0.000000 0.000000 0.000000 0.037939 0.000000 0.009592
# 5 -0.002643 0.001128 0.002787 0.000000 0.017073 0.000000
# 6 0.000000 0.000000 0.000000 0.009592 0.000000 0.033387
#
#
# Mechanical properties :
#
#
# Convention : Reuss Voigt Hill
#
# Bulk Modulus (GPa) = 63.79924 89.76843 76.78383
# Shear Modulus (GPa) = 36.68002 46.16371 41.42186
#
# Velocity S-wave (km/s) = 3.67626 4.12422 3.90667
# Velocity P-wave (km/s) = 6.44414 7.46689 6.97429
#
# Compressibility (1/GPa) = 0.01567417
#
# Stress axis : x y z
#
# Youngs Moduli (GPa) = 137.71949 71.73901 125.28882
#
# Poissons Ratio (x) = -0.00789 0.51142
# Poissons Ratio (y) = -0.01515 0.34856
# Poissons Ratio (z) = 0.56216 0.19958
#
# Static dielectric constant tensor:
#      x y z
#    x 2.146430 0.000000 -0.047970 
#    y 0.000000 2.217590 0.000000 
#    z -0.047970 0.000000 2.266680 
# 
# From -- ./inp_files/133691.got.cif
#   From: 2010.05.17/outbox.cif.g08.bks.cpg/sg15_67_cif.got.tgz:133691.got - 2010.06.03 18:47:42.
