data_PCOD9277175
_publ_section_title
;
Structure prediction by ZEFSAII (Michael W. Deem and Ramdas Pophale) SiO2 
 PCOD9277175
Probable space group: C 2/C
;
_chemical_formula_sum "Si O2"
_cell_formula_units_Z 44
_cell_length_a 5.747454
_cell_length_b 21.368262
_cell_length_c 14.922000
_cell_angle_alpha 90.000000
_cell_angle_beta 74.587125
_cell_angle_gamma 90.000000
_cell_volume 1766.708341
_symmetry_space_group_name_H-M "C 2/C"
_symmetry_group_IT_number 15
_symmetry_cell_setting 'monoclinic'
loop_
_space_group_symop_operation_xyz
x,y,z
-x,y,1/2-z
-x,-y,-z
x,-y,1/2+z
1/2+x,1/2+y,z
1/2-x,1/2+y,1/2-z
1/2-x,1/2-y,-z
1/2+x,1/2-y,1/2+z
loop_
_atom_site_type_symbol
_atom_site_label
_atom_site_fract_x
_atom_site_fract_y
_atom_site_fract_z
Si Si1 0.912687 0.350976 0.466432
Si Si2 0.396384 0.750582 0.614739
Si Si3 0.500000 0.330064 0.750000
Si Si4 0.966863 0.912204 0.578153
Si Si5 0.787442 0.022506 0.700967
Si Si6 0.608425 0.367726 0.112747
O O1 0.753349 0.303485 0.422852
O O2 0.993570 0.301390 0.534911
O O3 0.753163 0.403576 0.531957
O O4 0.119156 0.383778 0.386746
O O5 0.221820 0.787355 0.697498
O O6 0.592660 0.705496 0.637558
O O7 0.420764 0.370311 0.671348
O O8 0.853945 0.979229 0.609116
O O9 0.871364 0.884442 0.494930
O O10 0.500000 0.015941 0.750000
O O11 0.000000 0.000322 0.750000
O O12 0.886851 0.092227 0.671867
#
# Coordination Sequence:
#
# PCOD9277175 Si02
#       6
#     8   8   4   8   8   8
#     4   9  20  40  66  97 134 177 234 286 360 428
#     4   9  20  37  62 100 139 173 231 288 359 422
#     4  10  20  40  68  98 144 188 232 300 350 424
#     4  10  23  45  68  99 136 190 241 295 348 432
#     4  12  30  48  71 107 145 187 245 304 361 425
#     4  11  24  41  72  99 140 190 233 297 363 435
#
# _framework density 24.905073000000002
#
# number of rings (size 3 to 8) (size 9 to 14) (size 15 to 20)
#    0.000    1.818    0.909    2.182    8.909    0.727 
#    0.000    3.636    0.000    0.000    0.000    0.000 
#    0.000    0.000    0.000    0.000    0.000    0.000 
#
# Total GULP energy -122713.046736 kJ/mol
# GULP energy per Si atom -5577.865761 kJ/mol
# Density = 2.484839 g / cm^3
# Si number density = 24.905073 Si / 1000 Ang^3
#
#
#
# Elastic Constant Matrix: (Units=GPa)
#
#
# Indices 1 2 3 4 5 6 
#
# 1 80.8823 31.0234 42.2669 0.0000 -38.1461 0.0000
# 2 31.0234 104.0656 37.6343 0.0000 -23.7224 0.0000
# 3 42.2669 37.6343 112.7483 0.0000 -21.4592 0.0000
# 4 0.0000 0.0000 0.0000 32.7772 0.0000 5.6201
# 5 -38.1461 -23.7224 -21.4592 0.0000 57.7346 0.0000
# 6 0.0000 0.0000 0.0000 5.6201 0.0000 23.0724
#
#
#
# Elastic Compliance Matrix: (Units=1/GPa)
#
#
# Indices 1 2 3 4 5 6 
#
# 1 0.021063 -0.001859 -0.005136 0.000000 0.011244 0.000000
# 2 -0.001859 0.011739 -0.002730 0.000000 0.002580 0.000000
# 3 -0.005136 -0.002730 0.011672 0.000000 -0.000177 0.000000
# 4 0.000000 0.000000 0.000000 0.031839 0.000000 -0.007756
# 5 0.011244 0.002580 -0.000177 0.000000 0.025745 0.000000
# 6 0.000000 0.000000 0.000000 -0.007756 0.000000 0.045231
#
#
# Mechanical properties :
#
#
# Convention : Reuss Voigt Hill
#
# Bulk Modulus (GPa) = 39.95996 57.72727 48.84361
# Shear Modulus (GPa) = 28.55823 35.16827 31.86325
#
# Velocity S-wave (km/s) = 3.38994 3.76186 3.58073
# Velocity P-wave (km/s) = 5.60375 6.48830 6.06218
#
# Compressibility (1/GPa) = 0.02502505
#
# Stress axis : x y z
#
# Youngs Moduli (GPa) = 47.47558 85.18515 85.67273
#
# Poissons Ratio (x) = 0.15835 0.43999
# Poissons Ratio (y) = 0.08825 0.23392
# Poissons Ratio (z) = 0.24382 0.23259
#
# Static dielectric constant tensor:
#      x y z
#    x 2.195830 0.000000 0.049600 
#    y 0.000000 1.989070 0.000000 
#    z 0.049600 0.000000 2.039570 
# 
# From -- ./inp_files/185437.got.cif
#   From: 2010.05.17/outbox.cif.g08.bks.cpg/sg15_93_cif.got.tgz:185437.got - 2010.06.03 18:47:42.
