data_PCOD9277792
_publ_section_title
;
Structure prediction by ZEFSAII (Michael W. Deem and Ramdas Pophale) SiO2 
 PCOD9277792
Probable space group: C 2/C
;
_chemical_formula_sum "Si O2"
_cell_formula_units_Z 56
_cell_length_a 8.761822
_cell_length_b 30.025674
_cell_length_c 20.367845
_cell_angle_alpha 90.000000
_cell_angle_beta 28.663139
_cell_angle_gamma 90.000000
_cell_volume 2570.188354
_symmetry_space_group_name_H-M "C 2/C"
_symmetry_group_IT_number 15
_symmetry_cell_setting 'monoclinic'
loop_
_space_group_symop_operation_xyz
x,y,z
-x,y,1/2-z
-x,-y,-z
x,-y,1/2+z
1/2+x,1/2+y,z
1/2-x,1/2+y,1/2-z
1/2-x,1/2-y,-z
1/2+x,1/2-y,1/2+z
loop_
_atom_site_type_symbol
_atom_site_label
_atom_site_fract_x
_atom_site_fract_y
_atom_site_fract_z
Si Si1 0.565068 0.778501 0.802456
Si Si2 0.206389 0.188066 0.559479
Si Si3 0.839518 0.926721 0.592586
Si Si4 0.259008 0.202931 0.033044
Si Si5 0.553689 0.408708 0.306554
Si Si6 0.386719 0.486039 0.124890
Si Si7 0.143396 0.640604 0.627005
O O1 0.500000 0.784374 0.750000
O O2 0.556776 0.725143 0.820364
O O3 0.897730 0.801832 0.693762
O O4 0.301128 0.799461 0.949669
O O5 0.495378 0.199229 0.500215
O O6 0.120970 0.136265 0.600544
O O7 0.500000 0.913671 0.750000
O O8 0.890628 0.960927 0.512812
O O9 0.017233 0.883142 0.500224
O O10 0.965618 0.961475 0.600492
O O11 0.250000 0.250000 0.000000
O O12 0.350923 0.170552 0.939345
O O13 0.500000 0.407189 0.250000
O O14 0.510478 0.458017 0.350546
O O15 0.909438 0.399381 0.196871
O O16 0.000000 0.483253 0.250000
O O17 0.000000 0.659178 0.750000
#
# Coordination Sequence:
#
# PCOD9277792 Si02
#       7
#     8   8   8   8   8   8   8
#     4  11  24  43  66  93 131 178 232 278 334 399
#     4  11  25  44  64  96 136 180 219 285 347 390
#     4  10  21  40  70 100 136 166 219 280 335 391
#     4  12  25  44  66  96 139 179 229 284 337 396
#     4  12  22  41  69  94 131 173 223 273 339 406
#     4  10  20  41  70 100 130 173 219 275 333 404
#     4  12  25  43  71 103 132 176 236 273 332 409
#
# _framework density 21.788284999999998
#
# number of rings (size 3 to 8) (size 9 to 14) (size 15 to 20)
#    0.000    0.857    5.714    1.714    2.000    2.857 
#    0.000    0.714    0.000    0.000    0.000    0.000 
#    0.000    0.000    0.000    0.000    0.000    0.000 
#
# Total GULP energy -156069.951975 kJ/mol
# GULP energy per Si atom -5573.926856 kJ/mol
# Density = 2.173869 g / cm^3
# Si number density = 21.788285 Si / 1000 Ang^3
#
#
#
# Elastic Constant Matrix: (Units=GPa)
#
#
# Indices 1 2 3 4 5 6 
#
# 1 92.8945 25.9475 33.4242 0.0005 21.4288 -0.0002
# 2 25.9475 72.5305 11.2580 -0.0008 14.5985 -0.0001
# 3 33.4242 11.2580 125.9357 0.0042 11.0103 -0.0027
# 4 0.0005 -0.0008 0.0042 20.9770 -0.0011 5.2662
# 5 21.4288 14.5985 11.0103 -0.0011 34.3132 0.0003
# 6 -0.0002 -0.0001 -0.0027 5.2662 0.0003 22.9955
#
#
#
# Elastic Compliance Matrix: (Units=1/GPa)
#
#
# Indices 1 2 3 4 5 6 
#
# 1 0.014254 -0.003329 -0.002913 0.000000 -0.006551 0.000000
# 2 -0.003329 0.015937 -0.000134 0.000001 -0.004658 0.000000
# 3 -0.002913 -0.000134 0.008809 -0.000002 -0.000950 0.000001
# 4 0.000000 0.000001 -0.000002 0.050579 0.000002 -0.011583
# 5 -0.006551 -0.004658 -0.000950 0.000002 0.035521 -0.000001
# 6 0.000000 0.000000 0.000001 -0.011583 -0.000001 0.046140
#
#
# Mechanical properties :
#
#
# Convention : Reuss Voigt Hill
#
# Bulk Modulus (GPa) = 38.09758 48.06890 43.08324
# Shear Modulus (GPa) = 25.94181 30.37254 28.15718
#
# Velocity S-wave (km/s) = 3.45430 3.73766 3.59877
# Velocity P-wave (km/s) = 5.78211 6.38252 6.08972
#
# Compressibility (1/GPa) = 0.02624838
#
# Stress axis : x y z
#
# Youngs Moduli (GPa) = 70.15654 62.74897 113.52416
#
# Poissons Ratio (x) = 0.20887 0.33067
# Poissons Ratio (y) = 0.23353 0.01520
# Poissons Ratio (z) = 0.20435 0.00840
#
# Static dielectric constant tensor:
#      x y z
#    x 1.809640 0.000000 -0.056760 
#    y 0.000000 1.971430 0.000000 
#    z -0.056760 0.000000 1.997560 
# 
# From -- ./inp_files/234922.got.cif
#   From: 2010.05.17/outbox.cif.g08.bks.cpg/sg15_118_cif.got.tgz:234922.got - 2010.06.03 18:47:42.
