data_PCOD9277959
_publ_section_title
;
Structure prediction by ZEFSAII (Michael W. Deem and Ramdas Pophale) SiO2 
 PCOD9277959
Probable space group: C 2/C
;
_chemical_formula_sum "Si O2"
_cell_formula_units_Z 56
_cell_length_a 20.027096
_cell_length_b 17.088303
_cell_length_c 13.657447
_cell_angle_alpha 90.000000
_cell_angle_beta 35.538931
_cell_angle_gamma 90.000000
_cell_volume 2716.776316
_symmetry_space_group_name_H-M "C 2/C"
_symmetry_group_IT_number 15
_symmetry_cell_setting 'monoclinic'
loop_
_space_group_symop_operation_xyz
x,y,z
-x,y,1/2-z
-x,-y,-z
x,-y,1/2+z
1/2+x,1/2+y,z
1/2-x,1/2+y,1/2-z
1/2-x,1/2-y,-z
1/2+x,1/2-y,1/2+z
loop_
_atom_site_type_symbol
_atom_site_label
_atom_site_fract_x
_atom_site_fract_y
_atom_site_fract_z
Si Si1 0.146417 0.343391 0.203038
Si Si2 0.911793 0.383596 0.590090
Si Si3 0.745917 0.513480 0.848948
Si Si4 0.226644 0.266831 0.639202
Si Si5 0.143118 0.264430 0.000139
Si Si6 0.073797 0.873269 0.063399
Si Si7 0.903262 0.137880 0.589330
O O1 0.213063 0.426519 0.115671
O O2 0.237674 0.282249 0.136251
O O3 0.041035 0.366436 0.399989
O O4 0.886517 0.301886 0.359420
O O5 0.857756 0.469220 0.670029
O O6 0.874057 0.331818 0.728162
O O7 0.843526 0.339166 0.585222
O O8 0.669685 0.566263 0.866516
O O9 0.659520 0.445205 0.982765
O O10 0.250000 0.250000 0.500000
O O11 0.343425 0.299095 0.546326
O O12 0.182421 0.190135 0.744483
O O13 0.063461 0.198716 0.039472
O O14 0.000000 0.862859 0.250000
O O15 0.002759 0.884746 0.047589
#
# Coordination Sequence:
#
# PCOD9277959 Si02
#       7
#     8   8   8   8   8   8   8
#     4  10  20  42  63  91 128 169 220 261 324 375
#     4  10  21  37  63  91 128 166 206 267 320 374
#     4  10  23  39  60  94 133 170 209 265 314 395
#     4  10  21  40  62  93 123 159 221 267 304 379
#     4   9  21  38  64  91 124 163 217 275 303 386
#     4  11  22  40  65  93 129 171 212 261 325 385
#     4  10  21  40  64  91 131 167 212 268 324 373
#
# _framework density 20.612665
#
# number of rings (size 3 to 8) (size 9 to 14) (size 15 to 20)
#    0.000    2.000    1.429    1.286    0.000   10.286 
#    0.000   14.286    0.000    0.000    0.000    0.000 
#    0.000    0.000    0.000    0.000    0.000    0.000 
#
# Total GULP energy -155955.653483 kJ/mol
# GULP energy per Si atom -5569.844767 kJ/mol
# Density = 2.056575 g / cm^3
# Si number density = 20.612665 Si / 1000 Ang^3
#
#
#
# Elastic Constant Matrix: (Units=GPa)
#
#
# Indices 1 2 3 4 5 6 
#
# 1 63.1811 5.8373 22.6007 0.0000 -6.7981 0.0000
# 2 5.8373 80.2370 33.8326 0.0000 -2.3254 0.0000
# 3 22.6007 33.8326 102.2088 0.0000 -6.1972 0.0000
# 4 0.0000 0.0000 0.0000 27.2492 0.0000 -5.7611
# 5 -6.7981 -2.3254 -6.1972 0.0000 24.1660 0.0000
# 6 0.0000 0.0000 0.0000 -5.7611 0.0000 19.3589
#
#
#
# Elastic Compliance Matrix: (Units=1/GPa)
#
#
# Indices 1 2 3 4 5 6 
#
# 1 0.017574 0.000434 -0.003786 0.000000 0.004014 0.000000
# 2 0.000434 0.014496 -0.004878 0.000000 0.000266 0.000000
# 3 -0.003786 -0.004878 0.012335 0.000000 0.001629 0.000000
# 4 0.000000 0.000000 0.000000 0.039162 0.000000 0.011654
# 5 0.004014 0.000266 0.001629 0.000000 0.042953 0.000000
# 6 0.000000 0.000000 0.000000 0.011654 0.000000 0.055124
#
#
# Mechanical properties :
#
#
# Convention : Reuss Voigt Hill
#
# Bulk Modulus (GPa) = 35.78586 41.12980 38.45783
# Shear Modulus (GPa) = 24.10573 26.37856 25.24214
#
# Velocity S-wave (km/s) = 3.42345 3.58121 3.50322
# Velocity P-wave (km/s) = 5.74678 6.09073 5.92125
#
# Compressibility (1/GPa) = 0.02794400
#
# Stress axis : x y z
#
# Youngs Moduli (GPa) = 56.90303 68.98363 81.07205
#
# Poissons Ratio (x) = -0.02997 0.30697
# Poissons Ratio (y) = -0.02472 0.39550
# Poissons Ratio (z) = 0.21545 0.33653
#
# Static dielectric constant tensor:
#      x y z
#    x 1.791620 0.000000 -0.018360 
#    y 0.000000 1.758230 0.000000 
#    z -0.018360 0.000000 1.807930 
# 
# From -- ./inp_files/216022.got.cif
#   From: 2010.05.17/outbox.cif.g08.bks.cpg/sg15_109_cif.got.tgz:216022.got - 2010.06.03 18:47:42.
