data_PCOD9277823
_publ_section_title
;
Structure prediction by ZEFSAII (Michael W. Deem and Ramdas Pophale) SiO2 
 PCOD9277823
Probable space group: C 2/C
;
_chemical_formula_sum "Si O2"
_cell_formula_units_Z 36
_cell_length_a 8.265508
_cell_length_b 18.998987
_cell_length_c 9.898014
_cell_angle_alpha 90.000000
_cell_angle_beta 92.930721
_cell_angle_gamma 90.000000
_cell_volume 1552.314337
_symmetry_space_group_name_H-M "C 2/C"
_symmetry_group_IT_number 15
_symmetry_cell_setting 'monoclinic'
loop_
_space_group_symop_operation_xyz
x,y,z
-x,y,1/2-z
-x,-y,-z
x,-y,1/2+z
1/2+x,1/2+y,z
1/2-x,1/2+y,1/2-z
1/2-x,1/2-y,-z
1/2+x,1/2-y,1/2+z
loop_
_atom_site_type_symbol
_atom_site_label
_atom_site_fract_x
_atom_site_fract_y
_atom_site_fract_z
Si Si1 0.500000 0.286863 0.250000
Si Si2 0.892484 0.033612 0.114514
Si Si3 0.818797 0.647481 0.280761
Si Si4 0.224425 0.832251 0.485229
Si Si5 0.920639 0.553360 0.890648
O O1 0.634569 0.230308 0.198564
O O2 0.578282 0.333970 0.371365
O O3 0.780730 0.105613 0.108286
O O4 0.000000 0.038972 0.250000
O O5 0.759087 0.974756 0.134088
O O6 0.000000 0.000000 0.000000
O O7 0.712000 0.640673 0.138501
O O8 0.000000 0.616715 0.250000
O O9 0.890322 0.631914 0.941567
O O10 0.250000 0.750000 0.500000
O O11 0.000000 0.553139 0.750000
O O12 0.000000 0.500000 0.000000
#
# Coordination Sequence:
#
# PCOD9277823 Si02
#       5
#     4   8   8   8   8
#     4   8  20  38  74 104 146 188 248 308 370 458
#     4  12  25  42  67 106 145 188 243 312 376 435
#     4   9  19  40  72 101 141 189 240 301 380 441
#     4  10  20  41  71 107 142 183 250 313 370 443
#     4  12  26  46  74 105 148 199 250 302 380 462
#
# _framework density 23.191179999999999
#
# number of rings (size 3 to 8) (size 9 to 14) (size 15 to 20)
#    0.667    0.889    0.000    6.000    1.556    0.000 
#    4.000    8.889    0.000    8.000    0.000    0.000 
#    0.000    0.000    0.000    0.000    0.000    0.000 
#
# Total GULP energy -100304.565905 kJ/mol
# GULP energy per Si atom -5572.475884 kJ/mol
# Density = 2.313840 g / cm^3
# Si number density = 23.191180 Si / 1000 Ang^3
#
#
#
# Elastic Constant Matrix: (Units=GPa)
#
#
# Indices 1 2 3 4 5 6 
#
# 1 132.1351 61.4893 70.5827 0.0000 -13.7771 0.0000
# 2 61.4893 132.2524 64.6475 0.0000 -15.3761 0.0000
# 3 70.5827 64.6475 132.6495 0.0000 -6.7814 0.0000
# 4 0.0000 0.0000 0.0000 22.1478 0.0000 -1.5874
# 5 -13.7771 -15.3761 -6.7814 0.0000 61.6773 0.0000
# 6 0.0000 0.0000 0.0000 -1.5874 0.0000 49.6153
#
#
#
# Elastic Compliance Matrix: (Units=1/GPa)
#
#
# Indices 1 2 3 4 5 6 
#
# 1 0.011562 -0.002949 -0.004646 0.000000 0.001337 0.000000
# 2 -0.002949 0.010918 -0.003667 0.000000 0.001660 0.000000
# 3 -0.004646 -0.003667 0.011765 0.000000 -0.000659 0.000000
# 4 0.000000 0.000000 0.000000 0.045255 0.000000 0.001448
# 5 0.001337 0.001660 -0.000659 0.000000 0.016853 0.000000
# 6 0.000000 0.000000 0.000000 0.001448 0.000000 0.020201
#
#
# Mechanical properties :
#
#
# Convention : Reuss Voigt Hill
#
# Bulk Modulus (GPa) = 85.32809 87.83065 86.57937
# Shear Modulus (GPa) = 34.96882 40.04258 37.50570
#
# Velocity S-wave (km/s) = 3.88732 4.15978 4.02585
# Velocity P-wave (km/s) = 7.55126 7.81194 7.68270
#
# Compressibility (1/GPa) = 0.01171947
#
# Stress axis : x y z
#
# Youngs Moduli (GPa) = 86.49329 91.59402 85.00148
#
# Poissons Ratio (x) = 0.27009 0.39496
# Poissons Ratio (y) = 0.25505 0.31170
# Poissons Ratio (z) = 0.40189 0.33587
#
# Static dielectric constant tensor:
#      x y z
#    x 1.847640 0.000000 0.022850 
#    y 0.000000 2.593410 0.000000 
#    z 0.022850 0.000000 1.920960 
# 
# From -- ./inp_files/24125.got.cif
#   From: 2010.05.17/outbox.cif.g08.bks.cpg/sg15_13_cif.got.tgz:24125.got - 2010.06.03 18:47:42.
