data_PCOD9277196
_publ_section_title
;
Structure prediction by ZEFSAII (Michael W. Deem and Ramdas Pophale) SiO2 
 PCOD9277196
Probable space group: C 2/C
;
_chemical_formula_sum "Si O2"
_cell_formula_units_Z 44
_cell_length_a 8.782446
_cell_length_b 16.346265
_cell_length_c 13.645986
_cell_angle_alpha 90.000000
_cell_angle_beta 94.765584
_cell_angle_gamma 90.000000
_cell_volume 1952.247892
_symmetry_space_group_name_H-M "C 2/C"
_symmetry_group_IT_number 15
_symmetry_cell_setting 'monoclinic'
loop_
_space_group_symop_operation_xyz
x,y,z
-x,y,1/2-z
-x,-y,-z
x,-y,1/2+z
1/2+x,1/2+y,z
1/2-x,1/2+y,1/2-z
1/2-x,1/2-y,-z
1/2+x,1/2-y,1/2+z
loop_
_atom_site_type_symbol
_atom_site_label
_atom_site_fract_x
_atom_site_fract_y
_atom_site_fract_z
Si Si1 0.086136 0.584320 0.480579
Si Si2 0.332933 0.790747 0.231261
Si Si3 0.624369 0.369303 0.372551
Si Si4 0.601784 0.779582 0.596423
Si Si5 0.765467 0.374123 0.717710
Si Si6 0.500000 0.495998 0.750000
O O1 0.233553 0.604631 0.553792
O O2 0.155247 0.591544 0.374473
O O3 0.000000 0.500000 0.500000
O O4 0.962117 0.656850 0.485029
O O5 0.500000 0.828067 0.250000
O O6 0.202216 0.845308 0.273078
O O7 0.732577 0.763400 0.378980
O O8 0.334843 0.709127 0.301094
O O9 0.526300 0.291064 0.401385
O O10 0.518584 0.447012 0.346207
O O11 0.622507 0.839368 0.692663
O O12 0.650278 0.441148 0.752396
#
# Coordination Sequence:
#
# PCOD9277196 Si02
#       6
#     8   8   8   8   8   4
#     4  12  25  39  64 102 140 176 213 275 338 395
#     4  10  20  40  69  93 118 174 232 268 321 392
#     4  12  23  40  69  95 133 174 224 267 341 391
#     4  10  20  44  66  91 126 181 221 269 326 393
#     4  10  21  40  68  88 133 171 221 270 334 387
#     4  12  22  42  68  96 124 178 220 282 318 408
#
# _framework density 22.538122000000001
#
# number of rings (size 3 to 8) (size 9 to 14) (size 15 to 20)
#    1.091    0.000    4.545    3.273    0.000    2.182 
#    0.000    0.909    0.000    0.000    0.000    0.000 
#    0.000    0.000    0.000    0.000    0.000    0.000 
#
# Total GULP energy -122523.125810 kJ/mol
# GULP energy per Si atom -5569.232991 kJ/mol
# Density = 2.248682 g / cm^3
# Si number density = 22.538122 Si / 1000 Ang^3
#
#
#
# Elastic Constant Matrix: (Units=GPa)
#
#
# Indices 1 2 3 4 5 6 
#
# 1 103.5419 69.1108 28.7777 0.0000 20.4450 0.0000
# 2 69.1108 126.6826 49.8165 0.0000 8.3002 0.0000
# 3 28.7777 49.8165 53.7935 0.0000 27.8642 0.0000
# 4 0.0000 0.0000 0.0000 45.3398 0.0000 22.8412
# 5 20.4450 8.3002 27.8642 0.0000 48.1569 0.0000
# 6 0.0000 0.0000 0.0000 22.8412 0.0000 66.8974
#
#
#
# Elastic Compliance Matrix: (Units=1/GPa)
#
#
# Indices 1 2 3 4 5 6 
#
# 1 0.017101 -0.010848 0.005270 0.000000 -0.008439 0.000000
# 2 -0.010848 0.020875 -0.020064 0.000000 0.012617 0.000000
# 3 0.005270 -0.020064 0.048149 0.000000 -0.026639 0.000000
# 4 0.000000 0.000000 0.000000 0.026638 0.000000 -0.009095
# 5 -0.008439 0.012617 -0.026639 0.000000 0.037587 0.000000
# 6 0.000000 0.000000 0.000000 -0.009095 0.000000 0.018054
#
#
# Mechanical properties :
#
#
# Convention : Reuss Voigt Hill
#
# Bulk Modulus (GPa) = 28.70238 64.38088 46.54163
# Shear Modulus (GPa) = 21.61673 41.16636 31.39154
#
# Velocity S-wave (km/s) = 3.10032 4.27842 3.73610
# Velocity P-wave (km/s) = 5.05754 7.28243 6.26947
#
# Compressibility (1/GPa) = 0.03484032
#
# Stress axis : x y z
#
# Youngs Moduli (GPa) = 58.47714 47.90381 20.76865
#
# Poissons Ratio (x) = 0.51968 -0.10944
# Poissons Ratio (y) = 0.63438 0.41669
# Poissons Ratio (z) = -0.30815 0.96112
#
# Static dielectric constant tensor:
#      x y z
#    x 1.975900 0.000000 0.035650 
#    y 0.000000 1.865540 0.000000 
#    z 0.035650 0.000000 1.977520 
# 
# From -- ./inp_files/134502.got.cif
#   From: 2010.05.17/outbox.cif.g08.bks.cpg/sg15_68_cif.got.tgz:134502.got - 2010.06.03 18:47:42.
