data_PCOD9277351
_publ_section_title
;
Structure prediction by ZEFSAII (Michael W. Deem and Ramdas Pophale) SiO2 
 PCOD9277351
Probable space group: C 2/C
;
_chemical_formula_sum "Si O2"
_cell_formula_units_Z 48
_cell_length_a 7.001143
_cell_length_b 12.828684
_cell_length_c 30.617514
_cell_angle_alpha 90.000000
_cell_angle_beta 42.845207
_cell_angle_gamma 90.000000
_cell_volume 1870.004603
_symmetry_space_group_name_H-M "C 2/C"
_symmetry_group_IT_number 15
_symmetry_cell_setting 'monoclinic'
loop_
_space_group_symop_operation_xyz
x,y,z
-x,y,1/2-z
-x,-y,-z
x,-y,1/2+z
1/2+x,1/2+y,z
1/2-x,1/2+y,1/2-z
1/2-x,1/2-y,-z
1/2+x,1/2-y,1/2+z
loop_
_atom_site_type_symbol
_atom_site_label
_atom_site_fract_x
_atom_site_fract_y
_atom_site_fract_z
Si Si1 0.592802 0.829652 0.474467
Si Si2 0.253293 0.006513 0.989766
Si Si3 0.360960 0.673320 0.838950
Si Si4 0.552073 0.889796 0.693256
Si Si5 0.756205 0.047994 0.341095
Si Si6 0.114953 0.210096 0.115984
O O1 0.757233 0.925673 0.468905
O O2 0.787838 0.794842 0.401735
O O3 0.423504 0.773373 0.542264
O O4 0.324624 0.878983 0.494355
O O5 0.523512 0.972456 0.917011
O O6 0.000000 0.000000 0.000000
O O7 0.546830 0.767955 0.790666
O O8 0.447739 0.554956 0.815554
O O9 0.066123 0.686580 0.861533
O O10 0.500000 0.933372 0.750000
O O11 0.891112 0.873800 0.631320
O O12 0.390310 0.943939 0.681107
O O13 0.866852 0.160063 0.339011
#
# Coordination Sequence:
#
# PCOD9277351 Si02
#       6
#     8   8   8   8   8   8
#     4   9  16  33  56  81 121 152 178 239 293 337
#     4   9  17  29  55  88 116 151 190 224 285 360
#     4   9  21  39  60  88 116 149 196 235 290 355
#     4  10  23  43  57  84 117 148 199 249 283 341
#     4  10  20  41  59  83 117 153 192 236 291 342
#     4   9  20  38  59  87 118 150 190 240 288 350
#
# _framework density 25.668386999999999
#
# number of rings (size 3 to 8) (size 9 to 14) (size 15 to 20)
#    1.000    1.667    0.000    2.500    0.000    0.667 
#   12.000    1.667    0.000    0.000    0.000    0.000 
#    0.000    0.000    0.000    0.000    0.000    0.000 
#
# Total GULP energy -133754.727238 kJ/mol
# GULP energy per Si atom -5573.113635 kJ/mol
# Density = 2.560996 g / cm^3
# Si number density = 25.668387 Si / 1000 Ang^3
#
#
#
# Elastic Constant Matrix: (Units=GPa)
#
#
# Indices 1 2 3 4 5 6 
#
# 1 67.1255 13.7449 21.9846 0.0018 11.9866 -0.0024
# 2 13.7449 58.3050 18.5278 0.0001 10.2770 -0.0006
# 3 21.9846 18.5278 120.0544 -0.0006 16.3700 -0.0014
# 4 0.0018 0.0001 -0.0006 23.4756 -0.0004 1.1382
# 5 11.9866 10.2770 16.3700 -0.0004 44.4398 0.0011
# 6 -0.0024 -0.0006 -0.0014 1.1382 0.0011 29.3997
#
#
#
# Elastic Compliance Matrix: (Units=1/GPa)
#
#
# Indices 1 2 3 4 5 6 
#
# 1 0.016727 -0.002694 -0.002229 -0.000001 -0.003068 0.000001
# 2 -0.002694 0.018945 -0.002034 0.000000 -0.002905 0.000000
# 3 -0.002229 -0.002034 0.009377 0.000000 -0.002382 0.000000
# 4 -0.000001 0.000000 0.000000 0.042678 0.000001 -0.001652
# 5 -0.003068 -0.002905 -0.002382 0.000001 0.024879 -0.000001
# 6 0.000001 0.000000 0.000000 -0.001652 -0.000001 0.034078
#
#
# Mechanical properties :
#
#
# Convention : Reuss Voigt Hill
#
# Bulk Modulus (GPa) = 32.11987 39.33329 35.72658
# Shear Modulus (GPa) = 29.24394 32.21152 30.72773
#
# Velocity S-wave (km/s) = 3.37901 3.54631 3.46367
# Velocity P-wave (km/s) = 5.26917 5.66792 5.47218
#
# Compressibility (1/GPa) = 0.03113338
#
# Stress axis : x y z
#
# Youngs Moduli (GPa) = 59.78372 52.78488 106.64939
#
# Poissons Ratio (x) = 0.14221 0.23772
# Poissons Ratio (y) = 0.16107 0.21695
# Poissons Ratio (z) = 0.13326 0.10738
#
# Static dielectric constant tensor:
#      x y z
#    x 2.342030 0.002780 -0.023110 
#    y 0.002780 0.251590 -0.000220 
#    z -0.023110 -0.000220 2.081070 
# 
# From -- ./inp_files/305140.got.cif
#   From: 2010.05.17/outbox.cif.g08.bks.cpg/sg15_153_cif.got.tgz:305140.got - 2010.06.03 18:47:42.
