data_PCOD9277299
_publ_section_title
;
Structure prediction by ZEFSAII (Michael W. Deem and Ramdas Pophale) SiO2 
 PCOD9277299
Probable space group: C 2/C
;
_chemical_formula_sum "Si O2"
_cell_formula_units_Z 60
_cell_length_a 21.752533
_cell_length_b 5.294996
_cell_length_c 30.965317
_cell_angle_alpha 90.000000
_cell_angle_beta 127.526522
_cell_angle_gamma 90.000000
_cell_volume 2828.546517
_symmetry_space_group_name_H-M "C 2/C"
_symmetry_group_IT_number 15
_symmetry_cell_setting 'monoclinic'
loop_
_space_group_symop_operation_xyz
x,y,z
-x,y,1/2-z
-x,-y,-z
x,-y,1/2+z
1/2+x,1/2+y,z
1/2-x,1/2+y,1/2-z
1/2-x,1/2-y,-z
1/2+x,1/2-y,1/2+z
loop_
_atom_site_type_symbol
_atom_site_label
_atom_site_fract_x
_atom_site_fract_y
_atom_site_fract_z
Si Si1 0.177319 0.892677 0.936251
Si Si2 0.009059 0.872757 0.342484
Si Si3 0.248681 0.269174 0.099500
Si Si4 0.958801 0.993466 0.912840
Si Si5 0.116628 0.512740 0.079534
Si Si6 0.869660 0.868490 0.487953
Si Si7 0.607564 0.011368 0.845818
Si Si8 0.500000 0.636484 0.250000
O O1 0.093546 0.017196 0.890544
O O2 0.175890 0.840500 0.986296
O O3 0.167878 0.641672 0.904151
O O4 0.237991 0.080533 0.939911
O O5 0.982191 0.974460 0.284805
O O6 0.958688 0.964402 0.361090
O O7 0.034482 0.584662 0.343140
O O8 0.207675 0.446750 0.117282
O O9 0.335508 0.194572 0.150656
O O10 0.186053 0.045581 0.064890
O O11 0.926335 0.728497 0.917872
O O12 0.048253 0.003363 0.967285
O O13 0.912169 0.233998 0.910120
O O14 0.107419 0.603546 0.025249
O O15 0.572110 0.191602 0.794960
#
# Coordination Sequence:
#
# PCOD9277299 Si02
#       8
#     8   8   8   8   8   8   8   4
#     4   9  21  37  61  90 131 168 214 265 326 369
#     4   9  21  39  64  99 122 158 202 273 325 387
#     4  11  23  38  58  94 131 174 217 266 320 379
#     4  11  26  41  63  92 135 174 228 260 311 374
#     4  12  25  41  60  91 131 187 222 261 303 370
#     4  11  23  39  61  92 130 181 226 274 304 370
#     4  10  21  41  64  98 126 157 205 272 334 397
#     4  10  20  40  72 104 114 152 200 270 352 386
#
# _framework density 21.212309000000001
#
# number of rings (size 3 to 8) (size 9 to 14) (size 15 to 20)
#    0.000    1.600    1.333    2.400    7.467    4.267 
#    0.000    0.000    0.000    0.000   17.333    0.000 
#    0.000    0.000    0.000    0.000    0.000    0.000 
#
# Total GULP energy -167213.140905 kJ/mol
# GULP energy per Si atom -5573.771363 kJ/mol
# Density = 2.116403 g / cm^3
# Si number density = 21.212309 Si / 1000 Ang^3
#
#
#
# Elastic Constant Matrix: (Units=GPa)
#
#
# Indices 1 2 3 4 5 6 
#
# 1 144.8828 60.1097 34.4800 0.0015 -25.8999 -0.0021
# 2 60.1097 115.2238 30.8843 0.0055 -7.3848 -0.0061
# 3 34.4800 30.8843 85.2050 0.0006 -13.4834 -0.0024
# 4 0.0015 0.0055 0.0006 13.1869 0.0001 8.1616
# 5 -25.8999 -7.3848 -13.4834 0.0001 18.6763 0.0003
# 6 -0.0021 -0.0061 -0.0024 8.1616 0.0003 34.6631
#
#
#
# Elastic Compliance Matrix: (Units=1/GPa)
#
#
# Indices 1 2 3 4 5 6 
#
# 1 0.011556 -0.004964 -0.000736 0.000001 0.013531 -0.000001
# 2 -0.004964 0.011780 -0.002950 -0.000006 -0.004356 0.000003
# 3 -0.000736 -0.002950 0.014403 0.000000 0.008211 0.000000
# 4 0.000001 -0.000006 0.000000 0.088769 -0.000001 -0.020901
# 5 0.013531 -0.004356 0.008211 -0.000001 0.076514 0.000000
# 6 -0.000001 0.000003 0.000000 -0.020901 0.000000 0.033770
#
#
# Mechanical properties :
#
#
# Convention : Reuss Voigt Hill
#
# Bulk Modulus (GPa) = 48.92738 66.25105 57.58921
# Shear Modulus (GPa) = 19.16404 27.96109 23.56257
#
# Velocity S-wave (km/s) = 3.00899 3.63458 3.33648
# Velocity P-wave (km/s) = 5.93192 6.99383 6.48465
#
# Compressibility (1/GPa) = 0.02043845
#
# Stress axis : x y z
#
# Youngs Moduli (GPa) = 86.53884 84.89001 69.42993
#
# Poissons Ratio (x) = 0.42138 0.05108
# Poissons Ratio (y) = 0.42957 0.20485
# Poissons Ratio (z) = 0.06366 0.25047
#
# Static dielectric constant tensor:
#      x y z
#    x 1.813510 0.000000 -0.014410 
#    y 0.000000 1.980410 0.000000 
#    z -0.014410 0.000000 1.766640 
# 
# From -- ./inp_files/317025.got.cif
#   From: 2010.05.17/outbox.cif.g08.bks.cpg/sg15_159_cif.got.tgz:317025.got - 2010.06.03 18:47:42.
