data_PCOD9277835
_publ_section_title
;
Structure prediction by ZEFSAII (Michael W. Deem and Ramdas Pophale) SiO2 
 PCOD9277835
Probable space group: C 2/C
;
_chemical_formula_sum "Si O2"
_cell_formula_units_Z 56
_cell_length_a 6.910391
_cell_length_b 13.332068
_cell_length_c 31.000868
_cell_angle_alpha 90.000000
_cell_angle_beta 52.167638
_cell_angle_gamma 90.000000
_cell_volume 2255.775677
_symmetry_space_group_name_H-M "C 2/C"
_symmetry_group_IT_number 15
_symmetry_cell_setting 'monoclinic'
loop_
_space_group_symop_operation_xyz
x,y,z
-x,y,1/2-z
-x,-y,-z
x,-y,1/2+z
1/2+x,1/2+y,z
1/2-x,1/2+y,1/2-z
1/2-x,1/2-y,-z
1/2+x,1/2-y,1/2+z
loop_
_atom_site_type_symbol
_atom_site_label
_atom_site_fract_x
_atom_site_fract_y
_atom_site_fract_z
Si Si1 0.425626 0.699927 0.712942
Si Si2 0.180463 0.348387 0.454373
Si Si3 0.042160 0.283146 0.385670
Si Si4 0.243117 0.901250 0.759021
Si Si5 0.562381 0.473651 0.354531
Si Si6 0.010800 0.509647 0.354470
Si Si7 0.559887 0.170803 0.423754
O O1 0.500000 0.658789 0.750000
O O2 0.678042 0.751614 0.661368
O O3 0.226107 0.784863 0.749423
O O4 0.351118 0.622171 0.686225
O O5 0.012842 0.296780 0.440915
O O6 0.394269 0.268623 0.436072
O O7 0.316742 0.440522 0.412168
O O8 0.040576 0.372205 0.517194
O O9 0.831000 0.214971 0.394956
O O10 0.039730 0.395833 0.366771
O O11 0.500000 0.911233 0.750000
O O12 0.047387 0.945343 0.818554
O O13 0.290059 0.961217 0.708926
O O14 0.752420 0.507898 0.364492
O O15 0.018151 0.590663 0.391618
#
# Coordination Sequence:
#
# PCOD9277835 Si02
#       7
#     8   8   8   8   8   8   8
#     4  10  21  42  71 102 143 190 243 313 386 454
#     4  10  23  46  72 101 150 198 242 317 374 448
#     4  11  23  43  69 102 145 189 251 315 367 455
#     4   9  20  38  68  99 135 187 239 293 376 457
#     4  10  20  41  71  98 147 191 240 310 376 462
#     4  11  22  40  68 104 141 188 249 304 378 448
#     4  11  24  46  71 106 146 199 254 301 387 454
#
# _framework density 24.825161999999999
#
# number of rings (size 3 to 8) (size 9 to 14) (size 15 to 20)
#    0.000    1.714    1.429    3.000    0.000    1.143 
#   20.571    0.000    6.286    0.000    0.000    0.000 
#    0.000    0.000    0.000    0.000    0.000    0.000 
#
# Total GULP energy -156843.986670 kJ/mol
# GULP energy per Si atom -5601.570953 kJ/mol
# Density = 2.476866 g / cm^3
# Si number density = 24.825162 Si / 1000 Ang^3
#
#
#
# Elastic Constant Matrix: (Units=GPa)
#
#
# Indices 1 2 3 4 5 6 
#
# 1 121.2276 66.4518 60.9834 -0.0006 30.8606 0.0005
# 2 66.4518 132.8773 100.4761 -0.0005 -9.1271 0.0004
# 3 60.9834 100.4761 208.0161 -0.0004 24.6760 0.0005
# 4 -0.0006 -0.0005 -0.0004 54.8360 0.0005 11.1796
# 5 30.8606 -9.1271 24.6760 0.0005 35.4269 -0.0006
# 6 0.0005 0.0004 0.0005 11.1796 -0.0006 36.3668
#
#
#
# Elastic Compliance Matrix: (Units=1/GPa)
#
#
# Indices 1 2 3 4 5 6 
#
# 1 0.021052 -0.015569 0.004360 0.000000 -0.025386 -0.000001
# 2 -0.015569 0.025654 -0.011141 0.000000 0.027931 0.000001
# 3 0.004360 -0.011141 0.010575 0.000000 -0.014034 0.000000
# 4 0.000000 0.000000 0.000000 0.019456 -0.000001 -0.005981
# 5 -0.025386 0.027931 -0.014034 -0.000001 0.067312 0.000002
# 6 -0.000001 0.000001 0.000000 -0.005981 0.000002 0.029336
#
#
# Mechanical properties :
#
#
# Convention : Reuss Voigt Hill
#
# Bulk Modulus (GPa) = 79.47570 101.99372 90.73471
# Shear Modulus (GPa) = 22.49422 40.93992 31.71707
#
# Velocity S-wave (km/s) = 3.01342 4.06535 3.57826
# Velocity P-wave (km/s) = 6.64765 7.95048 7.32808
#
# Compressibility (1/GPa) = 0.01258246
#
# Stress axis : x y z
#
# Youngs Moduli (GPa) = 47.50040 38.98001 94.56114
#
# Poissons Ratio (x) = 0.60686 -0.41224
# Poissons Ratio (y) = 0.73951 1.05347
# Poissons Ratio (z) = -0.20708 0.43426
#
# Static dielectric constant tensor:
#      x y z
#    x 1.994530 0.000000 -0.004680 
#    y 0.000000 2.018740 0.000000 
#    z -0.004680 0.000000 1.939260 
# 
# From -- ./inp_files/307065.got.cif
#   From: 2010.05.17/outbox.cif.g08.bks.cpg/sg15_154_cif.got.tgz:307065.got - 2010.06.03 18:47:42.
