data_PCOD9277921
_publ_section_title
;
Structure prediction by ZEFSAII (Michael W. Deem and Ramdas Pophale) SiO2 
 PCOD9277921
Probable space group: C 2/C
;
_chemical_formula_sum "Si O2"
_cell_formula_units_Z 52
_cell_length_a 15.648235
_cell_length_b 14.847304
_cell_length_c 15.568681
_cell_angle_alpha 90.000000
_cell_angle_beta 42.774204
_cell_angle_gamma 90.000000
_cell_volume 2456.436129
_symmetry_space_group_name_H-M "C 2/C"
_symmetry_group_IT_number 15
_symmetry_cell_setting 'monoclinic'
loop_
_space_group_symop_operation_xyz
x,y,z
-x,y,1/2-z
-x,-y,-z
x,-y,1/2+z
1/2+x,1/2+y,z
1/2-x,1/2+y,1/2-z
1/2-x,1/2-y,-z
1/2+x,1/2-y,1/2+z
loop_
_atom_site_type_symbol
_atom_site_label
_atom_site_fract_x
_atom_site_fract_y
_atom_site_fract_z
Si Si1 0.766769 0.029551 0.648899
Si Si2 0.000000 0.071392 0.250000
Si Si3 0.177131 0.165993 0.462269
Si Si4 0.014816 0.521023 0.634835
Si Si5 0.254939 0.143789 0.010711
Si Si6 0.189115 0.638209 0.961451
Si Si7 0.931383 0.080018 0.682384
O O1 0.626663 0.037544 0.792496
O O2 0.760056 0.087656 0.566839
O O3 0.872369 0.068448 0.632991
O O4 0.797009 0.923716 0.611759
O O5 0.869509 0.123605 0.342407
O O6 0.998566 0.008029 0.334573
O O7 0.178255 0.265690 0.422185
O O8 0.280681 0.159799 0.461106
O O9 0.037236 0.155983 0.604869
O O10 0.000000 0.507496 0.750000
O O11 0.114887 0.602402 0.548201
O O12 0.075736 0.432331 0.547418
O O13 0.250000 0.250000 0.000000
O O14 0.314848 0.593310 0.831921
#
# Coordination Sequence:
#
# PCOD9277921 Si02
#       7
#     8   4   8   8   8   8   8
#     4  11  24  42  65  94 132 170 205 268 320 369
#     4  12  22  44  70  88 120 174 220 256 318 376
#     4  11  22  39  67  95 125 167 210 261 322 377
#     4  10  20  42  62  90 128 166 206 257 327 370
#     4  11  24  44  66  93 123 174 219 259 312 381
#     4  11  22  39  67  96 124 167 210 257 321 395
#     4  12  22  44  64  93 133 164 215 264 314 382
#
# _framework density 21.168879
#
# number of rings (size 3 to 8) (size 9 to 14) (size 15 to 20)
#    0.000    0.923    7.692    0.462    5.385    0.615 
#    5.538    0.000    0.000    0.000    0.000    0.000 
#    0.000    0.000    0.000    0.000    0.000    0.000 
#
# Total GULP energy -145116.010466 kJ/mol
# GULP energy per Si atom -5581.385018 kJ/mol
# Density = 2.112070 g / cm^3
# Si number density = 21.168879 Si / 1000 Ang^3
#
#
#
# Elastic Constant Matrix: (Units=GPa)
#
#
# Indices 1 2 3 4 5 6 
#
# 1 53.3369 1.1107 -2.6596 0.0000 -12.8519 0.0000
# 2 1.1107 130.3494 30.4287 0.0000 -18.3995 0.0000
# 3 -2.6596 30.4287 80.5089 0.0000 -35.3452 0.0000
# 4 0.0000 0.0000 0.0000 15.7443 0.0000 -4.5430
# 5 -12.8519 -18.3995 -35.3452 0.0000 29.6438 0.0000
# 6 0.0000 0.0000 0.0000 -4.5430 0.0000 5.4691
#
#
#
# Elastic Compliance Matrix: (Units=1/GPa)
#
#
# Indices 1 2 3 4 5 6 
#
# 1 0.025468 0.000628 0.011799 0.000000 0.025499 0.000000
# 2 0.000628 0.008559 -0.001600 0.000000 0.003677 0.000000
# 3 0.011799 -0.001600 0.031949 0.000000 0.042216 0.000000
# 4 0.000000 0.000000 0.000000 0.083538 0.000000 0.069393
# 5 0.025499 0.003677 0.042216 0.000000 0.097407 0.000000
# 6 0.000000 0.000000 0.000000 0.069393 0.000000 0.240489
#
#
# Mechanical properties :
#
#
# Convention : Reuss Voigt Hill
#
# Bulk Modulus (GPa) = 11.41154 35.77276 23.59215
# Shear Modulus (GPa) = 10.10169 25.85914 17.98042
#
# Velocity S-wave (km/s) = 2.18685 3.49888 2.91757
# Velocity P-wave (km/s) = 3.43203 5.76700 4.74537
#
# Compressibility (1/GPa) = 0.08763062
#
# Stress axis : x y z
#
# Youngs Moduli (GPa) = 39.26461 116.83834 31.29962
#
# Poissons Ratio (x) = -0.07338 -0.36930
# Poissons Ratio (y) = -0.02466 0.05007
# Poissons Ratio (z) = -0.46327 0.18690
#
# Static dielectric constant tensor:
#      x y z
#    x 1.773030 0.000000 0.027760 
#    y 0.000000 1.825000 0.000000 
#    z 0.027760 0.000000 1.812600 
# 
# From -- ./inp_files/211054.got.cif
#   From: 2010.05.17/outbox.cif.g08.bks.cpg/sg15_106_cif.got.tgz:211054.got - 2010.06.03 18:47:42.
