data_PCOD9277140
_publ_section_title
;
Structure prediction by ZEFSAII (Michael W. Deem and Ramdas Pophale) SiO2 
 PCOD9277140
Probable space group: C 2/C
;
_chemical_formula_sum "Si O2"
_cell_formula_units_Z 60
_cell_length_a 12.656390
_cell_length_b 16.234713
_cell_length_c 25.105760
_cell_angle_alpha 90.000000
_cell_angle_beta 149.344605
_cell_angle_gamma 90.000000
_cell_volume 2630.208414
_symmetry_space_group_name_H-M "C 2/C"
_symmetry_group_IT_number 15
_symmetry_cell_setting 'monoclinic'
loop_
_space_group_symop_operation_xyz
x,y,z
-x,y,1/2-z
-x,-y,-z
x,-y,1/2+z
1/2+x,1/2+y,z
1/2-x,1/2+y,1/2-z
1/2-x,1/2-y,-z
1/2+x,1/2-y,1/2+z
loop_
_atom_site_type_symbol
_atom_site_label
_atom_site_fract_x
_atom_site_fract_y
_atom_site_fract_z
Si Si1 0.178168 0.796022 0.552416
Si Si2 0.432926 0.849949 0.571416
Si Si3 0.267870 0.030188 0.909314
Si Si4 0.805109 0.331916 0.350835
Si Si5 0.297284 0.623049 0.058115
Si Si6 0.374417 0.424860 0.471541
Si Si7 0.000000 0.642071 0.750000
Si Si8 0.824492 0.233612 0.255763
O O1 0.341060 0.851748 0.590994
O O2 0.089792 0.739060 0.466941
O O3 0.257374 0.732725 0.630733
O O4 0.007005 0.847278 0.508975
O O5 0.306392 0.910876 0.477887
O O6 0.682089 0.847068 0.684072
O O7 0.214591 0.082034 0.833253
O O8 0.154463 0.947009 0.877040
O O9 0.500000 0.000000 0.000000
O O10 0.740529 0.290370 0.267685
O O11 0.056187 0.347861 0.457560
O O12 0.447892 0.700153 0.130733
O O13 0.347835 0.581173 0.023302
O O14 0.500000 0.500000 0.500000
O O15 0.145015 0.414624 0.348760
O O16 0.142563 0.703662 0.777968
#
# Coordination Sequence:
#
# PCOD9277140 Si02
#       8
#     8   8   8   8   8   8   4   8
#     4  10  20  41  65  90 127 182 225 270 340 405
#     4  10  22  39  67  94 134 175 227 276 337 411
#     4   9  21  40  65  91 134 180 210 268 355 409
#     4  10  20  40  68  95 129 177 221 279 338 410
#     4  11  22  42  68 101 136 176 220 283 355 413
#     4  12  24  44  68  96 140 182 222 289 355 407
#     4  12  26  44  72 106 132 174 246 286 330 426
#     4  12  23  39  74 103 130 175 240 287 332 411
#
# _framework density 22.811881
#
# number of rings (size 3 to 8) (size 9 to 14) (size 15 to 20)
#    0.000    1.333    4.000    2.000    3.733    0.533 
#    4.800    0.000   11.733    0.000    0.000    0.000 
#    0.000    0.000    0.000    0.000    0.000    0.000 
#
# Total GULP energy -167445.950685 kJ/mol
# GULP energy per Si atom -5581.531690 kJ/mol
# Density = 2.275996 g / cm^3
# Si number density = 22.811881 Si / 1000 Ang^3
#
#
#
# Elastic Constant Matrix: (Units=GPa)
#
#
# Indices 1 2 3 4 5 6 
#
# 1 123.3902 12.6498 -4.0542 -0.0001 -2.9748 -0.0001
# 2 12.6498 66.5206 -8.3225 -0.0002 -5.7950 -0.0001
# 3 -4.0542 -8.3225 35.9179 -0.0005 13.4641 -0.0005
# 4 -0.0001 -0.0002 -0.0005 13.0655 -0.0006 2.7893
# 5 -2.9748 -5.7950 13.4641 -0.0006 31.4387 -0.0002
# 6 -0.0001 -0.0001 -0.0005 2.7893 -0.0002 40.5465
#
#
#
# Elastic Compliance Matrix: (Units=1/GPa)
#
#
# Indices 1 2 3 4 5 6 
#
# 1 0.008280 -0.001488 0.000475 0.000000 0.000306 0.000000
# 2 -0.001488 0.015815 0.002926 0.000000 0.001521 0.000000
# 3 0.000475 0.002926 0.033776 0.000001 -0.013881 0.000000
# 4 0.000000 0.000000 0.000001 0.077678 0.000001 -0.005344
# 5 0.000306 0.001521 -0.013881 0.000001 0.038062 0.000000
# 6 0.000000 0.000000 0.000000 -0.005344 0.000000 0.025031
#
#
# Mechanical properties :
#
#
# Convention : Reuss Voigt Hill
#
# Bulk Modulus (GPa) = 16.20837 25.15278 20.68057
# Shear Modulus (GPa) = 23.21466 32.04718 27.63092
#
# Velocity S-wave (km/s) = 3.19353 3.75219 3.48408
# Velocity P-wave (km/s) = 4.55180 5.46096 5.02697
#
# Compressibility (1/GPa) = 0.06169653
#
# Stress axis : x y z
#
# Youngs Moduli (GPa) = 120.77373 63.23275 29.60656
#
# Poissons Ratio (x) = 0.09412 -0.01407
# Poissons Ratio (y) = 0.17977 -0.08663
# Poissons Ratio (z) = -0.05738 -0.18503
#
# Static dielectric constant tensor:
#      x y z
#    x 1.831730 0.000000 0.086780 
#    y 0.000000 1.832540 0.000000 
#    z 0.086780 0.000000 1.596670 
# 
# From -- ./inp_files/293556.got.cif
#   From: 2010.05.17/outbox.cif.g08.bks.cpg/sg15_147_cif.got.tgz:293556.got - 2010.06.03 18:47:42.
