data_PCOD9277685
_publ_section_title
;
Structure prediction by ZEFSAII (Michael W. Deem and Ramdas Pophale) SiO2 
 PCOD9277685
Probable space group: C 2/C
;
_chemical_formula_sum "Si O2"
_cell_formula_units_Z 56
_cell_length_a 14.367158
_cell_length_b 12.500365
_cell_length_c 29.816346
_cell_angle_alpha 90.000000
_cell_angle_beta 29.058181
_cell_angle_gamma 90.000000
_cell_volume 2600.841295
_symmetry_space_group_name_H-M "C 2/C"
_symmetry_group_IT_number 15
_symmetry_cell_setting 'monoclinic'
loop_
_space_group_symop_operation_xyz
x,y,z
-x,y,1/2-z
-x,-y,-z
x,-y,1/2+z
1/2+x,1/2+y,z
1/2-x,1/2+y,1/2-z
1/2-x,1/2-y,-z
1/2+x,1/2-y,1/2+z
loop_
_atom_site_type_symbol
_atom_site_label
_atom_site_fract_x
_atom_site_fract_y
_atom_site_fract_z
Si Si1 0.369316 0.482728 0.207808
Si Si2 0.663838 0.250043 0.380573
Si Si3 0.712168 0.005895 0.677778
Si Si4 0.147979 0.601997 0.885963
Si Si5 0.770416 0.923250 0.903327
Si Si6 0.054003 0.248135 0.611299
Si Si7 0.285553 0.308542 0.595236
O O1 0.258878 0.517172 0.209767
O O2 0.227505 0.450880 0.307609
O O3 0.531576 0.566035 0.154281
O O4 0.489051 0.373806 0.146765
O O5 0.751463 0.367878 0.342399
O O6 0.780154 0.167306 0.361296
O O7 0.608936 0.208124 0.354023
O O8 0.464544 0.265816 0.491129
O O9 0.500000 0.983892 0.750000
O O10 0.829781 0.924101 0.597057
O O11 0.226466 0.532791 0.894915
O O12 0.229623 0.721132 0.858806
O O13 0.916735 0.598392 0.987088
O O14 0.250000 0.250000 0.500000
O O15 0.107490 0.303842 0.635641
#
# Coordination Sequence:
#
# PCOD9277685 Si02
#       7
#     8   8   8   8   8   8   8
#     4  11  23  44  64  96 134 171 221 275 329 388
#     4   9  21  43  64  93 129 171 210 265 334 392
#     4  11  26  43  59  95 133 170 215 263 334 399
#     4  10  22  39  67 105 124 164 223 279 320 382
#     4  10  21  41  71  95 130 167 218 271 333 383
#     4   9  19  36  68  95 123 169 217 261 320 392
#     4  10  20  41  67  93 125 171 220 269 313 389
#
# _framework density 21.531493999999999
#
# number of rings (size 3 to 8) (size 9 to 14) (size 15 to 20)
#    0.000    2.000    1.429    0.857    4.000    2.286 
#   12.857    1.429    0.000    0.000    0.000    0.000 
#    0.000    0.000    0.000    0.000    0.000    0.000 
#
# Total GULP energy -156410.805149 kJ/mol
# GULP energy per Si atom -5586.100184 kJ/mol
# Density = 2.148249 g / cm^3
# Si number density = 21.531494 Si / 1000 Ang^3
#
#
#
# Elastic Constant Matrix: (Units=GPa)
#
#
# Indices 1 2 3 4 5 6 
#
# 1 191.6126 48.4504 63.5446 -0.0002 -9.0693 -0.0002
# 2 48.4504 70.6689 33.1023 -0.0008 -4.9663 -0.0004
# 3 63.5446 33.1023 74.9637 -0.0031 0.3245 -0.0008
# 4 -0.0002 -0.0008 -0.0031 25.3191 0.0001 1.6175
# 5 -9.0693 -4.9663 0.3245 0.0001 18.7185 0.0002
# 6 -0.0002 -0.0004 -0.0008 1.6175 0.0002 27.9830
#
#
#
# Elastic Compliance Matrix: (Units=1/GPa)
#
#
# Indices 1 2 3 4 5 6 
#
# 1 0.007858 -0.002565 -0.005542 -0.000001 0.003223 0.000000
# 2 -0.002565 0.019133 -0.006292 0.000000 0.003943 0.000000
# 3 -0.005542 -0.006292 0.020837 0.000002 -0.004716 0.000000
# 4 -0.000001 0.000000 0.000002 0.039642 -0.000001 -0.002291
# 5 0.003223 0.003943 -0.004716 -0.000001 0.056112 0.000000
# 6 0.000000 0.000000 0.000000 -0.002291 0.000000 0.035868
#
#
# Mechanical properties :
#
#
# Convention : Reuss Voigt Hill
#
# Bulk Modulus (GPa) = 52.54887 69.71554 61.13221
# Shear Modulus (GPa) = 23.30006 27.21398 25.25702
#
# Velocity S-wave (km/s) = 3.29316 3.55901 3.42866
# Velocity P-wave (km/s) = 6.23846 7.02406 6.64289
#
# Compressibility (1/GPa) = 0.01902990
#
# Stress axis : x y z
#
# Youngs Moduli (GPa) = 127.25989 52.26546 47.99250
#
# Poissons Ratio (x) = 0.13405 0.26599
# Poissons Ratio (y) = 0.32639 0.30196
# Poissons Ratio (z) = 0.70532 0.32884
#
# Static dielectric constant tensor:
#      x y z
#    x 1.788760 0.000000 0.009260 
#    y 0.000000 1.897000 0.000000 
#    z 0.009260 0.000000 1.802510 
# 
# From -- ./inp_files/313711.got.cif
#   From: 2010.05.17/outbox.cif.g08.bks.cpg/sg15_157_cif.got.tgz:313711.got - 2010.06.03 18:47:42.
