data_PCOD9277443
_publ_section_title
;
Structure prediction by ZEFSAII (Michael W. Deem and Ramdas Pophale) SiO2 
 PCOD9277443
Probable space group: C 2/C
;
_chemical_formula_sum "Si O2"
_cell_formula_units_Z 60
_cell_length_a 8.049471
_cell_length_b 26.094579
_cell_length_c 13.917999
_cell_angle_alpha 90.000000
_cell_angle_beta 98.270459
_cell_angle_gamma 90.000000
_cell_volume 2893.038144
_symmetry_space_group_name_H-M "C 2/C"
_symmetry_group_IT_number 15
_symmetry_cell_setting 'monoclinic'
loop_
_space_group_symop_operation_xyz
x,y,z
-x,y,1/2-z
-x,-y,-z
x,-y,1/2+z
1/2+x,1/2+y,z
1/2-x,1/2+y,1/2-z
1/2-x,1/2-y,-z
1/2+x,1/2-y,1/2+z
loop_
_atom_site_type_symbol
_atom_site_label
_atom_site_fract_x
_atom_site_fract_y
_atom_site_fract_z
Si Si1 0.194944 0.701413 0.737349
Si Si2 0.104982 0.771540 0.054501
Si Si3 0.326493 0.915251 0.293639
Si Si4 0.426512 0.636737 0.429947
Si Si5 0.500000 0.584201 0.250000
Si Si6 0.853636 0.996663 0.346796
Si Si7 0.194288 0.961315 0.465692
Si Si8 0.128999 0.705360 0.347829
O O1 0.311178 0.707768 0.840716
O O2 0.219884 0.644406 0.698106
O O3 0.253143 0.746741 0.672608
O O4 0.000000 0.707502 0.750000
O O5 0.978507 0.725907 0.071848
O O6 0.250000 0.750000 0.000000
O O7 0.012809 0.817534 0.993772
O O8 0.500000 0.917051 0.250000
O O9 0.198775 0.946626 0.215367
O O10 0.325205 0.942955 0.396758
O O11 0.533212 0.619252 0.345579
O O12 0.394379 0.588766 0.496167
O O13 0.247349 0.657701 0.378757
O O14 0.354529 0.546072 0.277053
O O15 0.045430 0.991439 0.399087
O O16 0.749358 0.007080 0.435547
O O17 0.000000 0.695324 0.250000
#
# Coordination Sequence:
#
# PCOD9277443 Si02
#       8
#     8   8   8   8   4   8   8   8
#     4  10  22  40  61  90 126 172 208 257 318 378
#     4  11  23  37  61  92 125 169 212 262 309 370
#     4  11  22  37  63  90 125 158 204 260 320 369
#     4  11  23  38  65  94 125 167 214 262 313 387
#     4  10  22  38  66  90 120 172 208 260 326 368
#     4  10  20  41  63  89 120 158 211 264 301 388
#     4  10  21  38  65  87 119 159 211 254 315 368
#     4  10  23  40  61  88 132 169 208 258 319 374
#
# _framework density 20.739443000000001
#
# number of rings (size 3 to 8) (size 9 to 14) (size 15 to 20)
#    0.000    1.600    1.333    2.800    4.667    4.800 
#    0.000    2.667    2.933    0.000    0.000    0.000 
#    0.000    0.000    0.000    0.000    0.000    0.000 
#
# Total GULP energy -167600.004361 kJ/mol
# GULP energy per Si atom -5586.666812 kJ/mol
# Density = 2.069224 g / cm^3
# Si number density = 20.739443 Si / 1000 Ang^3
#
#
#
# Elastic Constant Matrix: (Units=GPa)
#
#
# Indices 1 2 3 4 5 6 
#
# 1 54.7675 20.7459 24.4006 0.0000 -10.0048 0.0000
# 2 20.7459 67.3248 22.7425 0.0000 -1.7204 0.0000
# 3 24.4006 22.7425 87.4062 0.0000 -23.2400 0.0000
# 4 0.0000 0.0000 0.0000 12.9270 0.0000 8.0616
# 5 -10.0048 -1.7204 -23.2400 0.0000 36.0545 0.0000
# 6 0.0000 0.0000 0.0000 8.0616 0.0000 10.8799
#
#
#
# Elastic Compliance Matrix: (Units=1/GPa)
#
#
# Indices 1 2 3 4 5 6 
#
# 1 0.022786 -0.005588 -0.003979 0.000000 0.003492 0.000000
# 2 -0.005588 0.017823 -0.003939 0.000000 -0.003239 0.000000
# 3 -0.003979 -0.003939 0.015970 0.000000 0.009002 0.000000
# 4 0.000000 0.000000 0.000000 0.143811 0.000000 -0.106559
# 5 0.003492 -0.003239 0.009002 0.000000 0.034353 0.000000
# 6 0.000000 0.000000 0.000000 -0.106559 0.000000 0.170869
#
#
# Mechanical properties :
#
#
# Convention : Reuss Voigt Hill
#
# Bulk Modulus (GPa) = 33.82025 38.36407 36.09216
# Shear Modulus (GPa) = 11.29997 21.41290 16.35644
#
# Velocity S-wave (km/s) = 2.33674 3.21670 2.81136
# Velocity P-wave (km/s) = 4.86036 5.68634 5.28950
#
# Compressibility (1/GPa) = 0.02956808
#
# Stress axis : x y z
#
# Youngs Moduli (GPa) = 43.88595 56.10696 62.61822
#
# Poissons Ratio (x) = 0.31354 0.24914
# Poissons Ratio (y) = 0.24525 0.24663
# Poissons Ratio (z) = 0.17461 0.22098
#
# Static dielectric constant tensor:
#      x y z
#    x 1.733480 0.000000 -0.024400 
#    y 0.000000 1.724640 0.000000 
#    z -0.024400 0.000000 1.763770 
# 
# From -- ./inp_files/137418.got.cif
#   From: 2010.05.17/outbox.cif.g08.bks.cpg/sg15_69_cif.got.tgz:137418.got - 2010.06.03 18:47:42.
