data_PCOD9277440
_publ_section_title
;
Structure prediction by ZEFSAII (Michael W. Deem and Ramdas Pophale) SiO2 
 PCOD9277440
Probable space group: C 2/C
;
_chemical_formula_sum "Si O2"
_cell_formula_units_Z 60
_cell_length_a 9.351974
_cell_length_b 24.238869
_cell_length_c 20.504520
_cell_angle_alpha 90.000000
_cell_angle_beta 40.792074
_cell_angle_gamma 90.000000
_cell_volume 3036.606123
_symmetry_space_group_name_H-M "C 2/C"
_symmetry_group_IT_number 15
_symmetry_cell_setting 'monoclinic'
loop_
_space_group_symop_operation_xyz
x,y,z
-x,y,1/2-z
-x,-y,-z
x,-y,1/2+z
1/2+x,1/2+y,z
1/2-x,1/2+y,1/2-z
1/2-x,1/2-y,-z
1/2+x,1/2-y,1/2+z
loop_
_atom_site_type_symbol
_atom_site_label
_atom_site_fract_x
_atom_site_fract_y
_atom_site_fract_z
Si Si1 0.553787 0.074992 0.927804
Si Si2 0.123334 0.228758 0.980196
Si Si3 0.456494 0.441744 0.484253
Si Si4 0.554903 0.160548 0.423239
Si Si5 0.112515 0.626780 0.644038
Si Si6 0.859025 0.998715 0.888634
Si Si7 0.182526 0.345059 0.629950
Si Si8 0.000000 0.907398 0.750000
O O1 0.526854 0.109159 0.870833
O O2 0.757988 0.034101 0.864018
O O3 0.555633 0.117111 0.988292
O O4 0.343299 0.034871 0.008675
O O5 0.076799 0.281899 0.952785
O O6 0.303609 0.189170 0.885561
O O7 0.250000 0.250000 0.000000
O O8 0.897972 0.193360 0.069836
O O9 0.500000 0.500000 0.500000
O O10 0.664787 0.406744 0.431796
O O11 0.439721 0.456883 0.413570
O O12 0.259796 0.407539 0.585311
O O13 0.425547 0.172019 0.401455
O O14 0.786897 0.131033 0.327550
O O15 0.000000 0.613276 0.750000
O O16 0.007446 0.949195 0.809418
O O17 0.000000 0.342891 0.750000
#
# Coordination Sequence:
#
# PCOD9277440 Si02
#       8
#     8   8   8   8   8   8   8   4
#     4  10  20  41  63  87 134 178 217 271 340 402
#     4  11  25  46  74  94 136 181 228 300 348 402
#     4  11  23  41  64  92 143 179 214 286 344 401
#     4  11  23  45  68  95 136 176 229 283 350 394
#     4  11  25  40  63 100 130 176 231 276 346 410
#     4  10  21  40  61  95 131 176 222 271 334 405
#     4  11  27  44  69 105 136 180 241 285 349 415
#     4  10  26  34  74 102 124 180 238 270 328 442
#
# _framework density 19.758900000000001
#
# number of rings (size 3 to 8) (size 9 to 14) (size 15 to 20)
#    0.000    1.333    4.000    0.400    6.533    0.533 
#    0.000    0.000    1.467    0.000    0.000    0.000 
#    0.000    0.000    0.000    0.000    0.000    0.000 
#
# Total GULP energy -167296.958333 kJ/mol
# GULP energy per Si atom -5576.565278 kJ/mol
# Density = 1.971393 g / cm^3
# Si number density = 19.758900 Si / 1000 Ang^3
#
#
#
# Elastic Constant Matrix: (Units=GPa)
#
#
# Indices 1 2 3 4 5 6 
#
# 1 118.9819 35.1226 35.2555 -0.0001 13.9274 0.0000
# 2 35.1226 114.5931 27.1694 0.0000 -4.1885 0.0000
# 3 35.2555 27.1694 83.4101 0.0002 5.5284 0.0001
# 4 -0.0001 0.0000 0.0002 7.4848 0.0001 9.7908
# 5 13.9274 -4.1885 5.5284 0.0001 18.1297 -0.0001
# 6 0.0000 0.0000 0.0001 9.7908 -0.0001 38.6508
#
#
#
# Elastic Compliance Matrix: (Units=1/GPa)
#
#
# Indices 1 2 3 4 5 6 
#
# 1 0.011211 -0.002977 -0.003217 0.000000 -0.008319 0.000000
# 2 -0.002977 0.010432 -0.002501 0.000000 0.005460 0.000000
# 3 -0.003217 -0.002501 0.014328 -0.000001 -0.002475 0.000000
# 4 0.000000 0.000000 -0.000001 0.199812 -0.000001 -0.050615
# 5 -0.008319 0.005460 -0.002475 -0.000001 0.063565 0.000000
# 6 0.000000 0.000000 0.000000 -0.050615 0.000000 0.038694
#
#
# Mechanical properties :
#
#
# Convention : Reuss Voigt Hill
#
# Bulk Modulus (GPa) = 53.82701 56.89777 55.36239
# Shear Modulus (GPa) = 13.82644 27.48224 20.65434
#
# Velocity S-wave (km/s) = 2.64816 3.73349 3.23665
# Velocity P-wave (km/s) = 6.05404 6.88795 6.48441
#
# Compressibility (1/GPa) = 0.01857803
#
# Stress axis : x y z
#
# Youngs Moduli (GPa) = 89.20155 95.86170 69.79493
#
# Poissons Ratio (x) = 0.28541 0.22455
# Poissons Ratio (y) = 0.26558 0.17459
# Poissons Ratio (z) = 0.28699 0.23979
#
# Static dielectric constant tensor:
#      x y z
#    x 1.698670 0.000000 -0.008740 
#    y 0.000000 1.607850 0.000000 
#    z -0.008740 0.000000 1.760120 
# 
# From -- ./inp_files/234547.got.cif
#   From: 2010.05.17/outbox.cif.g08.bks.cpg/sg15_118_cif.got.tgz:234547.got - 2010.06.03 18:47:42.
