data_PCOD9277109
_publ_section_title
;
Structure prediction by ZEFSAII (Michael W. Deem and Ramdas Pophale) SiO2 
 PCOD9277109
Probable space group: C 2/C
;
_chemical_formula_sum "Si O2"
_cell_formula_units_Z 56
_cell_length_a 17.938007
_cell_length_b 9.229861
_cell_length_c 18.981194
_cell_angle_alpha 90.000000
_cell_angle_beta 42.422990
_cell_angle_gamma 90.000000
_cell_volume 2120.012095
_symmetry_space_group_name_H-M "C 2/C"
_symmetry_group_IT_number 15
_symmetry_cell_setting 'monoclinic'
loop_
_space_group_symop_operation_xyz
x,y,z
-x,y,1/2-z
-x,-y,-z
x,-y,1/2+z
1/2+x,1/2+y,z
1/2-x,1/2+y,1/2-z
1/2-x,1/2-y,-z
1/2+x,1/2-y,1/2+z
loop_
_atom_site_type_symbol
_atom_site_label
_atom_site_fract_x
_atom_site_fract_y
_atom_site_fract_z
Si Si1 0.325859 0.334779 0.001882
Si Si2 0.235264 0.168669 0.436749
Si Si3 0.915373 0.201103 0.225420
Si Si4 0.000000 0.961864 0.250000
Si Si5 0.875140 0.355608 0.594116
Si Si6 0.876221 0.327766 0.110330
Si Si7 0.542742 0.204892 0.310518
Si Si8 0.000000 0.457627 0.250000
O O1 0.455009 0.325335 0.888223
O O2 0.250000 0.250000 0.000000
O O3 0.292573 0.501271 0.032724
O O4 0.313327 0.251367 0.084989
O O5 0.250000 0.250000 0.500000
O O6 0.147241 0.244105 0.445486
O O7 0.472493 0.063801 0.335218
O O8 0.852776 0.229899 0.195411
O O9 0.915830 0.346613 0.271896
O O10 0.902813 0.064102 0.286734
O O11 0.017110 0.849854 0.173607
O O12 0.821496 0.513482 0.643752
O O13 0.994865 0.369492 0.472511
O O14 0.910140 0.292063 0.644688
O O15 0.652061 0.186187 0.186478
#
# Coordination Sequence:
#
# PCOD9277109 Si02
#       8
#     8   8   8   4   8   8   8   4
#     4  11  24  42  66  95 129 170 213 263 325 390
#     4  12  27  42  64  95 134 173 213 270 330 384
#     4  10  21  42  65  94 125 170 213 264 318 384
#     4  10  24  38  66  94 126 168 216 270 314 378
#     4  10  23  42  69  93 127 171 219 266 320 388
#     4  10  23  43  66  93 129 170 217 263 327 387
#     4  11  24  41  65  96 129 168 218 270 322 378
#     4  10  20  40  68  90 124 168 222 258 318 388
#
# _framework density 26.414943999999998
#
# number of rings (size 3 to 8) (size 9 to 14) (size 15 to 20)
#    0.000    1.429    1.429    2.571    8.000    2.286 
#    5.143    0.000    0.000    0.000    0.000    0.000 
#    0.000    0.000    0.000    0.000    0.000    0.000 
#
# Total GULP energy -156738.517849 kJ/mol
# GULP energy per Si atom -5597.804209 kJ/mol
# Density = 2.635482 g / cm^3
# Si number density = 26.414944 Si / 1000 Ang^3
#
#
#
# Elastic Constant Matrix: (Units=GPa)
#
#
# Indices 1 2 3 4 5 6 
#
# 1 195.2813 113.0761 42.0640 0.0000 61.4991 0.0000
# 2 113.0761 253.1998 37.3331 0.0000 46.8042 0.0000
# 3 42.0640 37.3331 106.4081 0.0000 20.9309 0.0000
# 4 0.0000 0.0000 0.0000 34.6569 0.0000 12.3090
# 5 61.4991 46.8042 20.9309 0.0000 75.5010 0.0000
# 6 0.0000 0.0000 0.0000 12.3090 0.0000 50.0931
#
#
#
# Elastic Compliance Matrix: (Units=1/GPa)
#
#
# Indices 1 2 3 4 5 6 
#
# 1 0.008531 -0.002692 -0.001469 0.000000 -0.004872 0.000000
# 2 -0.002692 0.005431 -0.000645 0.000000 -0.000995 0.000000
# 3 -0.001469 -0.000645 0.010461 0.000000 -0.001303 0.000000
# 4 0.000000 0.000000 0.000000 0.031613 0.000000 -0.007768
# 5 -0.004872 -0.000995 -0.001303 0.000000 0.018191 0.000000
# 6 0.000000 0.000000 0.000000 -0.007768 0.000000 0.021872
#
#
# Mechanical properties :
#
#
# Convention : Reuss Voigt Hill
#
# Bulk Modulus (GPa) = 67.52738 104.42620 85.97679
# Shear Modulus (GPa) = 45.18760 56.21128 50.69944
#
# Velocity S-wave (km/s) = 4.14053 4.61804 4.38579
# Velocity P-wave (km/s) = 6.96263 8.24948 7.63322
#
# Compressibility (1/GPa) = 0.01480881
#
# Stress axis : x y z
#
# Youngs Moduli (GPa) = 117.22304 184.13177 95.58955
#
# Poissons Ratio (x) = 0.49577 0.14044
# Poissons Ratio (y) = 0.31562 0.06170
# Poissons Ratio (z) = 0.17223 0.11884
#
# Static dielectric constant tensor:
#      x y z
#    x 2.114790 0.000000 -0.133170 
#    y 0.000000 2.084280 0.000000 
#    z -0.133170 0.000000 2.257920 
# 
# From -- ./inp_files/272677.got.cif
#   From: 2010.05.17/outbox.cif.g08.bks.cpg/sg15_137_cif.got.tgz:272677.got - 2010.06.03 18:47:42.
