data_PCOD9277766
_publ_section_title
;
Structure prediction by ZEFSAII (Michael W. Deem and Ramdas Pophale) SiO2 
 PCOD9277766
Probable space group: C 2/C
;
_chemical_formula_sum "Si O2"
_cell_formula_units_Z 56
_cell_length_a 5.450619
_cell_length_b 17.338755
_cell_length_c 28.806614
_cell_angle_alpha 90.000000
_cell_angle_beta 116.399586
_cell_angle_gamma 90.000000
_cell_volume 2438.516974
_symmetry_space_group_name_H-M "C 2/C"
_symmetry_group_IT_number 15
_symmetry_cell_setting 'monoclinic'
loop_
_space_group_symop_operation_xyz
x,y,z
-x,y,1/2-z
-x,-y,-z
x,-y,1/2+z
1/2+x,1/2+y,z
1/2-x,1/2+y,1/2-z
1/2-x,1/2-y,-z
1/2+x,1/2-y,1/2+z
loop_
_atom_site_type_symbol
_atom_site_label
_atom_site_fract_x
_atom_site_fract_y
_atom_site_fract_z
Si Si1 0.779518 0.607723 0.611567
Si Si2 0.397956 0.454536 0.945370
Si Si3 0.813498 0.683972 0.466349
Si Si4 0.212495 0.665650 0.232638
Si Si5 0.817919 0.327853 0.428772
Si Si6 0.469186 0.181175 0.109391
Si Si7 0.688828 0.158754 0.724809
O O1 0.686107 0.519497 0.598603
O O2 0.490759 0.642930 0.604492
O O3 0.931098 0.629679 0.575660
O O4 0.019757 0.635151 0.665790
O O5 0.637561 0.393722 0.953903
O O6 0.131609 0.399667 0.919938
O O7 0.500000 0.500000 0.000000
O O8 0.750000 0.750000 0.500000
O O9 0.834094 0.711829 0.415071
O O10 0.121451 0.665259 0.511382
O O11 0.500000 0.623500 0.250000
O O12 0.090329 0.677486 0.171008
O O13 0.283723 0.748494 0.263430
O O14 0.000000 0.627275 0.250000
O O15 0.787057 0.239403 0.410067
O O16 0.500000 0.127840 0.750000
O O17 0.000000 0.130066 0.750000
#
# Coordination Sequence:
#
# PCOD9277766 Si02
#       7
#     8   8   8   8   8   8   8
#     4  12  26  45  76 112 148 201 246 316 390 458
#     4  12  28  48  70 109 159 203 250 309 393 468
#     4  12  26  46  73 110 155 205 265 318 377 470
#     4  10  22  42  72 107 142 182 249 322 377 436
#     4  12  24  44  74 107 150 195 259 305 376 462
#     4  12  27  44  76 111 149 207 259 325 386 456
#     4  10  20  41  69 104 140 181 244 308 369 443
#
# _framework density 22.964777999999999
#
# number of rings (size 3 to 8) (size 9 to 14) (size 15 to 20)
#    0.000    0.571    2.857    6.429    4.000    1.143 
#    0.000    1.429    0.000    0.000    0.000    0.000 
#    0.000    0.000    0.000    0.000    0.000    0.000 
#
# Total GULP energy -156147.721940 kJ/mol
# GULP energy per Si atom -5576.704355 kJ/mol
# Density = 2.291251 g / cm^3
# Si number density = 22.964778 Si / 1000 Ang^3
#
#
#
# Elastic Constant Matrix: (Units=GPa)
#
#
# Indices 1 2 3 4 5 6 
#
# 1 139.7167 16.4003 23.2082 0.0000 2.3026 0.0000
# 2 16.4003 85.9793 16.2898 0.0000 7.8523 0.0000
# 3 23.2082 16.2898 94.0778 0.0000 5.4042 0.0000
# 4 0.0000 0.0000 0.0000 30.6025 0.0000 4.2189
# 5 2.3026 7.8523 5.4042 0.0000 40.4040 0.0000
# 6 0.0000 0.0000 0.0000 4.2189 0.0000 25.1792
#
#
#
# Elastic Compliance Matrix: (Units=1/GPa)
#
#
# Indices 1 2 3 4 5 6 
#
# 1 0.007567 -0.001128 -0.001672 0.000000 0.000012 0.000000
# 2 -0.001128 0.012368 -0.001742 0.000000 -0.002106 0.000000
# 3 -0.001672 -0.001742 0.011406 0.000000 -0.001092 0.000000
# 4 0.000000 0.000000 0.000000 0.033450 0.000000 -0.005605
# 5 0.000012 -0.002106 -0.001092 0.000000 0.025305 0.000000
# 6 0.000000 0.000000 0.000000 -0.005605 0.000000 0.040654
#
#
# Mechanical properties :
#
#
# Convention : Reuss Voigt Hill
#
# Bulk Modulus (GPa) = 44.92876 47.95226 46.44051
# Shear Modulus (GPa) = 33.95479 36.82885 35.39182
#
# Velocity S-wave (km/s) = 3.84938 4.00898 3.92999
# Velocity P-wave (km/s) = 6.27404 6.50810 6.39214
#
# Compressibility (1/GPa) = 0.02225746
#
# Stress axis : x y z
#
# Youngs Moduli (GPa) = 132.14777 80.85186 87.66985
#
# Poissons Ratio (x) = 0.09117 0.14660
# Poissons Ratio (y) = 0.14902 0.15276
# Poissons Ratio (z) = 0.22098 0.14088
#
# Static dielectric constant tensor:
#      x y z
#    x 2.067690 0.000000 -0.000720 
#    y 0.000000 2.017000 0.000000 
#    z -0.000720 0.000000 1.852340 
# 
# From -- ./inp_files/305841.got.cif
#   From: 2010.05.17/outbox.cif.g08.bks.cpg/sg15_153_cif.got.tgz:305841.got - 2010.06.03 18:47:42.
