data_PCOD9277169
_publ_section_title
;
Structure prediction by ZEFSAII (Michael W. Deem and Ramdas Pophale) SiO2 
 PCOD9277169
Probable space group: C 2/C
;
_chemical_formula_sum "Si O2"
_cell_formula_units_Z 52
_cell_length_a 7.936131
_cell_length_b 22.188929
_cell_length_c 12.953294
_cell_angle_alpha 90.000000
_cell_angle_beta 67.633381
_cell_angle_gamma 90.000000
_cell_volume 2109.396075
_symmetry_space_group_name_H-M "C 2/C"
_symmetry_group_IT_number 15
_symmetry_cell_setting 'monoclinic'
loop_
_space_group_symop_operation_xyz
x,y,z
-x,y,1/2-z
-x,-y,-z
x,-y,1/2+z
1/2+x,1/2+y,z
1/2-x,1/2+y,1/2-z
1/2-x,1/2-y,-z
1/2+x,1/2-y,1/2+z
loop_
_atom_site_type_symbol
_atom_site_label
_atom_site_fract_x
_atom_site_fract_y
_atom_site_fract_z
Si Si1 0.120034 0.728430 0.419395
Si Si2 0.779672 0.894399 0.292651
Si Si3 0.290566 0.350265 0.063836
Si Si4 0.898445 0.375256 0.963041
Si Si5 0.500000 0.703123 0.250000
Si Si6 0.645689 0.026378 0.309645
Si Si7 0.920059 0.096933 0.115386
O O1 0.166986 0.686371 0.509419
O O2 0.060397 0.796801 0.449395
O O3 0.316331 0.737127 0.320175
O O4 0.982028 0.685301 0.393144
O O5 0.725704 0.873489 0.189878
O O6 0.682666 0.857972 0.406444
O O7 0.000000 0.893268 0.250000
O O8 0.697995 0.960544 0.335140
O O9 0.384969 0.407504 0.985881
O O10 0.728445 0.399412 0.938916
O O11 0.055058 0.426504 0.911044
O O12 0.443519 0.658880 0.171550
O O13 0.500000 0.021775 0.250000
O O14 0.833163 0.051930 0.217744
#
# Coordination Sequence:
#
# PCOD9277169 Si02
#       7
#     8   8   8   8   4   8   8
#     4  10  23  42  73  95 136 176 224 278 330 408
#     4  12  26  44  64  99 142 175 221 281 339 401
#     4  10  24  44  63 105 131 180 219 272 344 398
#     4  11  23  45  67 101 129 176 225 281 333 404
#     4  10  20  40  68  98 128 180 216 278 322 402
#     4  10  24  43  67  96 130 183 227 279 328 403
#     4  10  21  43  66  95 136 163 237 265 337 399
#
# _framework density 24.651606999999998
#
# number of rings (size 3 to 8) (size 9 to 14) (size 15 to 20)
#    0.000    1.538    3.077    0.462    3.231    4.923 
#    2.769    0.000    0.000    0.000    0.000    0.000 
#    0.000    0.000    0.000    0.000    0.000    0.000 
#
# Total GULP energy -145092.990255 kJ/mol
# GULP energy per Si atom -5580.499625 kJ/mol
# Density = 2.459550 g / cm^3
# Si number density = 24.651607 Si / 1000 Ang^3
#
#
#
# Elastic Constant Matrix: (Units=GPa)
#
#
# Indices 1 2 3 4 5 6 
#
# 1 73.3440 4.3473 31.0279 0.0000 -16.6396 0.0000
# 2 4.3473 48.5135 -2.2726 0.0000 -19.6115 0.0000
# 3 31.0279 -2.2726 130.5354 0.0000 -2.3429 0.0000
# 4 0.0000 0.0000 0.0000 29.2162 0.0000 1.8884
# 5 -16.6396 -19.6115 -2.3429 0.0000 18.8954 0.0000
# 6 0.0000 0.0000 0.0000 1.8884 0.0000 37.0768
#
#
#
# Elastic Compliance Matrix: (Units=1/GPa)
#
#
# Indices 1 2 3 4 5 6 
#
# 1 0.021182 0.008988 -0.004386 0.000000 0.027439 0.000000
# 2 0.008988 0.039543 -0.000571 0.000000 0.048886 0.000000
# 3 -0.004386 -0.000571 0.008633 0.000000 -0.003384 0.000000
# 4 0.000000 0.000000 0.000000 0.034341 0.000000 -0.001749
# 5 0.027439 0.048886 -0.003384 0.000000 0.127405 0.000000
# 6 0.000000 0.000000 0.000000 -0.001749 0.000000 0.027060
#
#
# Mechanical properties :
#
#
# Convention : Reuss Voigt Hill
#
# Bulk Modulus (GPa) = 12.91644 35.39980 24.15812
# Shear Modulus (GPa) = 18.12210 31.65703 24.88956
#
# Velocity S-wave (km/s) = 2.71427 3.58743 3.18095
# Velocity P-wave (km/s) = 3.88252 5.61700 4.82829
#
# Compressibility (1/GPa) = 0.07742073
#
# Stress axis : x y z
#
# Youngs Moduli (GPa) = 47.20972 25.28920 115.83981
#
# Poissons Ratio (x) = -0.22731 0.50807
# Poissons Ratio (y) = -0.42434 0.06611
# Poissons Ratio (z) = 0.20706 0.01443
#
# Static dielectric constant tensor:
#      x y z
#    x 2.008600 0.000000 0.001080 
#    y 0.000000 1.937040 0.000000 
#    z 0.001080 0.000000 2.161030 
# 
# From -- ./inp_files/137186.got.cif
#   From: 2010.05.17/outbox.cif.g08.bks.cpg/sg15_69_cif.got.tgz:137186.got - 2010.06.03 18:47:42.
