data_PCOD9277283
_publ_section_title
;
Structure prediction by ZEFSAII (Michael W. Deem and Ramdas Pophale) SiO2 
 PCOD9277283
Probable space group: C 2/C
;
_chemical_formula_sum "Si O2"
_cell_formula_units_Z 36
_cell_length_a 7.721048
_cell_length_b 12.800352
_cell_length_c 17.366236
_cell_angle_alpha 90.000000
_cell_angle_beta 111.168559
_cell_angle_gamma 90.000000
_cell_volume 1600.526973
_symmetry_space_group_name_H-M "C 2/C"
_symmetry_group_IT_number 15
_symmetry_cell_setting 'monoclinic'
loop_
_space_group_symop_operation_xyz
x,y,z
-x,y,1/2-z
-x,-y,-z
x,-y,1/2+z
1/2+x,1/2+y,z
1/2-x,1/2+y,1/2-z
1/2-x,1/2-y,-z
1/2+x,1/2-y,1/2+z
loop_
_atom_site_type_symbol
_atom_site_label
_atom_site_fract_x
_atom_site_fract_y
_atom_site_fract_z
Si Si1 0.479525 0.337125 0.840141
Si Si2 0.262016 0.711408 0.588040
Si Si3 0.000000 0.815062 0.250000
Si Si4 0.686934 0.022893 0.077353
Si Si5 0.302127 0.985088 0.249457
O O1 0.500000 0.315146 0.750000
O O2 0.409946 0.244382 0.884717
O O3 0.666070 0.383948 0.909510
O O4 0.322997 0.429666 0.815541
O O5 0.250000 0.750000 0.500000
O O6 0.432763 0.751229 0.666927
O O7 0.292147 0.587535 0.586633
O O8 0.164884 0.888716 0.245398
O O9 0.643586 0.033885 0.159967
O O10 0.500000 0.000000 0.000000
O O11 0.500000 0.950518 0.250000
#
# Coordination Sequence:
#
# PCOD9277283 Si02
#       5
#     8   8   4   8   8
#     4  10  22  44  68  97 142 183 237 292 351 429
#     4  11  25  39  67 103 135 183 231 295 352 420
#     4  10  22  48  60 100 148 166 246 290 340 442
#     4  10  23  43  62  95 140 175 234 291 349 426
#     4  10  20  40  71  92 123 193 224 276 363 413
#
# _framework density 22.492592999999999
#
# number of rings (size 3 to 8) (size 9 to 14) (size 15 to 20)
#    0.000    1.778    5.556    0.000    4.667    8.889 
#    0.000    0.000    0.000    0.000    0.000    0.000 
#    0.000    0.000    0.000    0.000    0.000    0.000 
#
# Total GULP energy -100262.724469 kJ/mol
# GULP energy per Si atom -5570.151359 kJ/mol
# Density = 2.244140 g / cm^3
# Si number density = 22.492593 Si / 1000 Ang^3
#
#
#
# Elastic Constant Matrix: (Units=GPa)
#
#
# Indices 1 2 3 4 5 6 
#
# 1 125.8903 11.9654 28.1536 0.0000 3.1522 0.0000
# 2 11.9654 43.4264 1.2130 0.0000 -13.0345 0.0000
# 3 28.1536 1.2130 124.6675 0.0000 27.7686 0.0000
# 4 0.0000 0.0000 0.0000 17.4032 0.0000 4.2546
# 5 3.1522 -13.0345 27.7686 0.0000 41.6239 0.0000
# 6 0.0000 0.0000 0.0000 4.2546 0.0000 43.6101
#
#
#
# Elastic Compliance Matrix: (Units=1/GPa)
#
#
# Indices 1 2 3 4 5 6 
#
# 1 0.008593 -0.002353 -0.001889 0.000000 -0.000127 0.000000
# 2 -0.002353 0.026673 -0.001912 0.000000 0.009807 0.000000
# 3 -0.001889 -0.001912 0.010064 0.000000 -0.007170 0.000000
# 4 0.000000 0.000000 0.000000 0.058864 0.000000 -0.005743
# 5 -0.000127 0.009807 -0.007170 0.000000 0.031888 0.000000
# 6 0.000000 0.000000 0.000000 -0.005743 0.000000 0.023491
#
#
# Mechanical properties :
#
#
# Convention : Reuss Voigt Hill
#
# Bulk Modulus (GPa) = 30.28514 41.84981 36.06748
# Shear Modulus (GPa) = 27.33906 37.37092 32.35499
#
# Velocity S-wave (km/s) = 3.49014 4.08054 3.79684
# Velocity P-wave (km/s) = 5.45300 6.39121 5.94065
#
# Compressibility (1/GPa) = 0.03301949
#
# Stress axis : x y z
#
# Youngs Moduli (GPa) = 116.37700 37.49152 99.36850
#
# Poissons Ratio (x) = 0.08822 0.18773
# Poissons Ratio (y) = 0.27383 0.19004
# Poissons Ratio (z) = 0.21987 0.07170
#
# Static dielectric constant tensor:
#      x y z
#    x 1.940070 0.000000 0.063050 
#    y 0.000000 1.931870 0.000000 
#    z 0.063050 0.000000 1.936660 
# 
# From -- ./inp_files/188544.got.cif
#   From: 2010.05.17/outbox.cif.g08.bks.cpg/sg15_95_cif.got.tgz:188544.got - 2010.06.03 18:47:42.
