data_PCOD9277291
_publ_section_title
;
Structure prediction by ZEFSAII (Michael W. Deem and Ramdas Pophale) SiO2 
 PCOD9277291
Probable space group: C 2/C
;
_chemical_formula_sum "Si O2"
_cell_formula_units_Z 32
_cell_length_a 9.480449
_cell_length_b 11.039609
_cell_length_c 15.075442
_cell_angle_alpha 90.000000
_cell_angle_beta 126.619507
_cell_angle_gamma 90.000000
_cell_volume 1266.367102
_symmetry_space_group_name_H-M "C 2/C"
_symmetry_group_IT_number 15
_symmetry_cell_setting 'monoclinic'
loop_
_space_group_symop_operation_xyz
x,y,z
-x,y,1/2-z
-x,-y,-z
x,-y,1/2+z
1/2+x,1/2+y,z
1/2-x,1/2+y,1/2-z
1/2-x,1/2-y,-z
1/2+x,1/2-y,1/2+z
loop_
_atom_site_type_symbol
_atom_site_label
_atom_site_fract_x
_atom_site_fract_y
_atom_site_fract_z
Si Si1 0.823395 0.346834 0.155068
Si Si2 0.204630 0.113743 0.802469
Si Si3 0.550809 0.718603 0.005114
Si Si4 0.183613 0.551439 0.477847
O O1 0.740698 0.406387 0.213246
O O2 0.651897 0.287696 0.047194
O O3 0.888433 0.447023 0.109834
O O4 0.000000 0.276193 0.250000
O O5 0.000000 0.126299 0.750000
O O6 0.315829 0.234621 0.869575
O O7 0.282711 0.021237 0.905982
O O8 0.570682 0.825222 0.939037
O O9 0.633243 0.596790 0.996325
#
# Coordination Sequence:
#
# PCOD9277291 Si02
#       4
#     8   8   8   8
#     4  12  24  38  70 104 140 187 230 284 359 411
#     4  10  20  40  71  96 135 188 226 280 362 408
#     4   9  20  41  66  98 145 173 237 292 333 425
#     4   9  20  41  69  98 139 177 243 285 337 428
#
# _framework density 25.269134999999999
#
# number of rings (size 3 to 8) (size 9 to 14) (size 15 to 20)
#    1.500    0.500    2.500    0.750    0.000    5.000 
#    0.000    0.000    5.500    0.000    0.000    0.000 
#    0.000    0.000    0.000    0.000    0.000    0.000 
#
# Total GULP energy -89275.331875 kJ/mol
# GULP energy per Si atom -5579.708242 kJ/mol
# Density = 2.521162 g / cm^3
# Si number density = 25.269135 Si / 1000 Ang^3
#
#
#
# Elastic Constant Matrix: (Units=GPa)
#
#
# Indices 1 2 3 4 5 6 
#
# 1 129.8224 9.6313 35.2912 0.0000 11.1177 0.0000
# 2 9.6313 22.7236 6.4991 0.0000 1.4720 0.0000
# 3 35.2912 6.4991 93.1969 0.0000 -1.1491 0.0000
# 4 0.0000 0.0000 0.0000 26.5251 0.0000 -7.0899
# 5 11.1177 1.4720 -1.1491 0.0000 76.9961 0.0000
# 6 0.0000 0.0000 0.0000 -7.0899 0.0000 26.3239
#
#
#
# Elastic Compliance Matrix: (Units=1/GPa)
#
#
# Indices 1 2 3 4 5 6 
#
# 1 0.008884 -0.002771 -0.003187 0.000000 -0.001277 0.000000
# 2 -0.002771 0.045830 -0.002153 0.000000 -0.000508 0.000000
# 3 -0.003187 -0.002153 0.012095 0.000000 0.000682 0.000000
# 4 0.000000 0.000000 0.000000 0.040625 0.000000 0.010942
# 5 -0.001277 -0.000508 0.000682 0.000000 0.013192 0.000000
# 6 0.000000 0.000000 0.000000 0.010942 0.000000 0.040935
#
#
# Mechanical properties :
#
#
# Convention : Reuss Voigt Hill
#
# Bulk Modulus (GPa) = 19.76751 38.73180 29.24966
# Shear Modulus (GPa) = 25.68764 38.92377 32.30570
#
# Velocity S-wave (km/s) = 3.19182 3.92901 3.57944
# Velocity P-wave (km/s) = 4.62854 5.99532 5.35571
#
# Compressibility (1/GPa) = 0.05058806
#
# Stress axis : x y z
#
# Youngs Moduli (GPa) = 112.56080 21.81956 82.67734
#
# Poissons Ratio (x) = 0.06047 0.26346
# Poissons Ratio (y) = 0.31194 0.17799
# Poissons Ratio (z) = 0.35869 0.04697
#
# Static dielectric constant tensor:
#      x y z
#    x 2.026630 0.000000 0.014800 
#    y 0.000000 1.983170 0.000000 
#    z 0.014800 0.000000 2.033850 
# 
# From -- ./inp_files/196717.got.cif
#   From: 2010.05.17/outbox.cif.g08.bks.cpg/sg15_99_cif.got.tgz:196717.got - 2010.06.03 18:47:42.
