data_PCOD9277572
_publ_section_title
;
Structure prediction by ZEFSAII (Michael W. Deem and Ramdas Pophale) SiO2 
 PCOD9277572
Probable space group: C 2/C
;
_chemical_formula_sum "Si O2"
_cell_formula_units_Z 48
_cell_length_a 9.180066
_cell_length_b 21.246170
_cell_length_c 22.746729
_cell_angle_alpha 90.000000
_cell_angle_beta 30.890806
_cell_angle_gamma 90.000000
_cell_volume 2277.740696
_symmetry_space_group_name_H-M "C 2/C"
_symmetry_group_IT_number 15
_symmetry_cell_setting 'monoclinic'
loop_
_space_group_symop_operation_xyz
x,y,z
-x,y,1/2-z
-x,-y,-z
x,-y,1/2+z
1/2+x,1/2+y,z
1/2-x,1/2+y,1/2-z
1/2-x,1/2-y,-z
1/2+x,1/2-y,1/2+z
loop_
_atom_site_type_symbol
_atom_site_label
_atom_site_fract_x
_atom_site_fract_y
_atom_site_fract_z
Si Si1 0.000000 0.860782 0.750000
Si Si2 0.163300 0.434713 0.637509
Si Si3 0.990191 0.424769 0.500838
Si Si4 0.500000 0.873522 0.250000
Si Si5 0.080878 0.171649 0.600813
Si Si6 0.330234 0.944196 0.426736
Si Si7 0.026773 0.696267 0.343661
O O1 0.235201 0.900515 0.631873
O O2 0.157761 0.817313 0.743013
O O3 0.493188 0.437296 0.537501
O O4 0.106066 0.480801 0.602087
O O5 0.000000 0.461136 0.750000
O O6 0.063613 0.363676 0.662829
O O7 0.925548 0.413073 0.454277
O O8 0.000000 0.500000 0.500000
O O9 0.286638 0.390040 0.414321
O O10 0.455245 0.912038 0.325515
O O11 0.794484 0.838030 0.162260
O O12 0.329504 0.188870 0.469343
O O13 0.024124 0.233001 0.660760
#
# Coordination Sequence:
#
# PCOD9277572 Si02
#       7
#     4   8   8   4   8   8   8
#     4  10  21  40  72  98 131 184 220 286 348 403
#     4  11  22  40  66  95 130 174 223 274 329 403
#     4  11  25  43  68 104 138 171 229 286 349 401
#     4  12  23  44  66  94 137 180 218 274 330 403
#     4  10  23  41  67  95 134 179 221 277 337 401
#     4  11  24  40  66  99 131 172 223 276 337 395
#     4  10  20  41  65  94 130 178 228 270 334 404
#
# _framework density 21.073513999999999
#
# number of rings (size 3 to 8) (size 9 to 14) (size 15 to 20)
#    0.000    1.333    2.500    3.500    2.333    3.333 
#    3.000    0.833    0.000    0.000    0.000    0.000 
#    0.000    0.000    0.000    0.000    0.000    0.000 
#
# Total GULP energy -133872.537677 kJ/mol
# GULP energy per Si atom -5578.022403 kJ/mol
# Density = 2.102555 g / cm^3
# Si number density = 21.073514 Si / 1000 Ang^3
#
#
#
# Elastic Constant Matrix: (Units=GPa)
#
#
# Indices 1 2 3 4 5 6 
#
# 1 83.6959 40.0688 14.1253 0.0341 -3.1933 -0.0385
# 2 40.0688 124.4594 19.3960 0.0590 -17.6774 -0.0675
# 3 14.1253 19.3960 66.5962 0.0284 -9.6757 0.0486
# 4 0.0341 0.0590 0.0284 -7.8749 0.0957 16.3395
# 5 -3.1933 -17.6774 -9.6757 0.0957 38.6088 -0.0170
# 6 -0.0385 -0.0675 0.0486 16.3395 -0.0170 18.1139
#
#
#
# Elastic Compliance Matrix: (Units=1/GPa)
#
#
# Indices 1 2 3 4 5 6 
#
# 1 0.014388 -0.004525 -0.001932 0.000014 -0.001366 0.000005
# 2 -0.004525 0.010282 -0.001458 0.000061 0.003968 -0.000019
# 3 -0.001932 -0.001458 0.016325 -0.000009 0.003264 -0.000042
# 4 0.000014 0.000061 -0.000009 -0.044220 0.000154 0.039888
# 5 -0.001366 0.003968 0.003264 0.000154 0.028422 -0.000109
# 6 0.000005 -0.000019 -0.000042 0.039888 -0.000109 0.019225
#
#
# Mechanical properties :
#
#
# Convention : Reuss Voigt Hill
#
# Bulk Modulus (GPa) = 39.74000 46.88131 43.31066
# Shear Modulus (GPa) = 72.84073 23.18032 48.01052
#
# Velocity S-wave (km/s) = 5.88558 3.32018 4.77827
# Velocity P-wave (km/s) = 8.06756 6.08219 7.14418
#
# Compressibility (1/GPa) = 0.02516356
#
# Stress axis : x y z
#
# Youngs Moduli (GPa) = 69.50047 97.25338 61.25692
#
# Poissons Ratio (x) = 0.44008 0.11837
# Poissons Ratio (y) = 0.31450 0.08934
# Poissons Ratio (z) = 0.13430 0.14184
#
# Static dielectric constant tensor:
#      x y z
#    x 1.738850 0.000050 0.024700 
#    y 0.000050 1.835180 0.000090 
#    z 0.024700 0.000090 1.738720 
# 
# From -- ./inp_files/266495.got.cif
#   From: 2010.05.17/outbox.cif.g08.bks.cpg/sg15_134_cif.got.tgz:266495.got - 2010.06.03 18:47:42.
