data_PCOD9277115
_publ_section_title
;
Structure prediction by ZEFSAII (Michael W. Deem and Ramdas Pophale) SiO2 
 PCOD9277115
Probable space group: C 2/C
;
_chemical_formula_sum "Si O2"
_cell_formula_units_Z 36
_cell_length_a 17.777673
_cell_length_b 8.726431
_cell_length_c 15.675186
_cell_angle_alpha 90.000000
_cell_angle_beta 147.850466
_cell_angle_gamma 90.000000
_cell_volume 1294.024881
_symmetry_space_group_name_H-M "C 2/C"
_symmetry_group_IT_number 15
_symmetry_cell_setting 'monoclinic'
loop_
_space_group_symop_operation_xyz
x,y,z
-x,y,1/2-z
-x,-y,-z
x,-y,1/2+z
1/2+x,1/2+y,z
1/2-x,1/2+y,1/2-z
1/2-x,1/2-y,-z
1/2+x,1/2-y,1/2+z
loop_
_atom_site_type_symbol
_atom_site_label
_atom_site_fract_x
_atom_site_fract_y
_atom_site_fract_z
Si Si1 0.713807 0.940250 0.861227
Si Si2 0.646484 0.765526 0.558305
Si Si3 0.500000 0.742400 0.250000
Si Si4 0.010713 0.764809 0.420649
Si Si5 0.796502 0.005267 0.629584
O O1 0.559874 0.892500 0.679829
O O2 0.768269 0.107193 0.880684
O O3 0.826176 0.810122 0.935392
O O4 0.719375 0.932284 0.970068
O O5 0.565368 0.816429 0.394909
O O6 0.538135 0.726392 0.528717
O O7 0.729018 0.926908 0.649794
O O8 0.624780 0.640392 0.334072
O O9 0.923024 0.886093 0.280587
#
# Coordination Sequence:
#
# PCOD9277115 Si02
#       5
#     8   8   4   8   8
#     4  11  24  46  70 104 148 189 234 294 364 430
#     4  11  24  42  72 100 142 190 243 290 360 423
#     4  10  20  40  68  90 136 182 236 270 358 408
#     4  12  24  44  73 108 144 187 237 303 357 422
#     4  11  22  45  71  99 138 196 236 288 359 430
#
# _framework density 27.820174000000002
#
# number of rings (size 3 to 8) (size 9 to 14) (size 15 to 20)
#    0.000    0.889    4.444    5.333    3.111    0.000 
#    8.000    2.222    0.000    0.000    0.000    0.000 
#    0.000    0.000    0.000    0.000    0.000    0.000 
#
# Total GULP energy -100735.158861 kJ/mol
# GULP energy per Si atom -5596.397714 kJ/mol
# Density = 2.775685 g / cm^3
# Si number density = 27.820174 Si / 1000 Ang^3
#
#
#
# Elastic Constant Matrix: (Units=GPa)
#
#
# Indices 1 2 3 4 5 6 
#
# 1 148.1439 47.0096 23.2062 0.0000 4.9215 0.0000
# 2 47.0096 111.7330 40.5471 0.0000 22.3666 0.0000
# 3 23.2062 40.5471 72.9373 0.0000 0.7143 0.0000
# 4 0.0000 0.0000 0.0000 23.1421 0.0000 15.7972
# 5 4.9215 22.3666 0.7143 0.0000 37.7051 0.0000
# 6 0.0000 0.0000 0.0000 15.7972 0.0000 44.3320
#
#
#
# Elastic Compliance Matrix: (Units=1/GPa)
#
#
# Indices 1 2 3 4 5 6 
#
# 1 0.007856 -0.003227 -0.000715 0.000000 0.000902 0.000000
# 2 -0.003227 0.014416 -0.006909 0.000000 -0.008000 0.000000
# 3 -0.000715 -0.006909 0.017741 0.000000 0.003856 0.000000
# 4 0.000000 0.000000 0.000000 0.057101 0.000000 -0.020347
# 5 0.000902 -0.008000 0.003856 0.000000 0.031076 0.000000
# 6 0.000000 0.000000 0.000000 -0.020347 0.000000 0.029808
#
#
# Mechanical properties :
#
#
# Convention : Reuss Voigt Hill
#
# Bulk Modulus (GPa) = 54.60833 61.59335 58.10084
# Shear Modulus (GPa) = 26.91032 35.83926 31.37479
#
# Velocity S-wave (km/s) = 3.11351 3.59311 3.36187
# Velocity P-wave (km/s) = 5.70937 6.27708 5.99995
#
# Compressibility (1/GPa) = 0.01831223
#
# Stress axis : x y z
#
# Youngs Moduli (GPa) = 127.29085 69.36713 56.36664
#
# Poissons Ratio (x) = 0.22381 0.04028
# Poissons Ratio (y) = 0.41070 0.38945
# Poissons Ratio (z) = 0.09097 0.47927
#
# Static dielectric constant tensor:
#      x y z
#    x 2.232800 0.000000 0.028680 
#    y 0.000000 2.243890 0.000000 
#    z 0.028680 0.000000 2.233060 
# 
# From -- ./inp_files/109524.got.cif
#   From: 2010.05.17/outbox.cif.g08.bks.cpg/sg15_55_cif.got.tgz:109524.got - 2010.06.03 18:47:42.
