data_PCOD9277686
_publ_section_title
;
Structure prediction by ZEFSAII (Michael W. Deem and Ramdas Pophale) SiO2 
 PCOD9277686
Probable space group: C 2/C
;
_chemical_formula_sum "Si O2"
_cell_formula_units_Z 40
_cell_length_a 16.138462
_cell_length_b 25.151048
_cell_length_c 7.497205
_cell_angle_alpha 90.000000
_cell_angle_beta 37.456997
_cell_angle_gamma 90.000000
_cell_volume 1850.715312
_symmetry_space_group_name_H-M "C 2/C"
_symmetry_group_IT_number 15
_symmetry_cell_setting 'monoclinic'
loop_
_space_group_symop_operation_xyz
x,y,z
-x,y,1/2-z
-x,-y,-z
x,-y,1/2+z
1/2+x,1/2+y,z
1/2-x,1/2+y,1/2-z
1/2-x,1/2-y,-z
1/2+x,1/2-y,1/2+z
loop_
_atom_site_type_symbol
_atom_site_label
_atom_site_fract_x
_atom_site_fract_y
_atom_site_fract_z
Si Si1 0.984609 0.117364 0.481005
Si Si2 0.650058 0.288378 0.061654
Si Si3 0.614310 0.952652 0.317358
Si Si4 0.221779 0.379471 0.854946
Si Si5 0.742470 0.949955 0.472430
O O1 0.128211 0.108382 0.326486
O O2 0.000000 0.132238 0.250000
O O3 0.903334 0.163923 0.721273
O O4 0.891732 0.066258 0.659754
O O5 0.500000 0.266337 0.250000
O O6 0.750000 0.250000 0.000000
O O7 0.750905 0.317720 0.745291
O O8 0.646992 0.938912 0.464660
O O9 0.500000 0.000000 0.500000
O O10 0.616926 0.900917 0.185360
O O11 0.737318 0.988854 0.033495
O O12 0.198036 0.414102 0.717176
#
# Coordination Sequence:
#
# PCOD9277686 Si02
#       5
#     8   8   8   8   8
#     4  10  20  41  67  93 126 167 227 285 330 410
#     4   9  20  42  74 100 135 171 224 294 365 418
#     4  12  24  38  59  89 133 184 224 268 326 403
#     4  10  22  41  63  96 129 173 225 280 329 412
#     4  11  22  38  61  87 126 174 223 266 328 387
#
# _framework density 21.613264999999998
#
# number of rings (size 3 to 8) (size 9 to 14) (size 15 to 20)
#    0.000    1.600    4.000    2.400    0.000    0.800 
#    3.600   12.000   13.200    0.000    0.000    0.000 
#    0.000    0.000    0.000    0.000    0.000    0.000 
#
# Total GULP energy -111446.188911 kJ/mol
# GULP energy per Si atom -5572.309446 kJ/mol
# Density = 2.156407 g / cm^3
# Si number density = 21.613265 Si / 1000 Ang^3
#
#
#
# Elastic Constant Matrix: (Units=GPa)
#
#
# Indices 1 2 3 4 5 6 
#
# 1 168.9355 46.6191 47.2637 0.0000 6.4818 0.0000
# 2 46.6191 66.8659 37.3567 0.0000 -25.4514 0.0000
# 3 47.2637 37.3567 76.9313 0.0000 -4.5144 0.0000
# 4 0.0000 0.0000 0.0000 13.7590 0.0000 -21.6138
# 5 6.4818 -25.4514 -4.5144 0.0000 38.8102 0.0000
# 6 0.0000 0.0000 0.0000 -21.6138 0.0000 21.2743
#
#
#
# Elastic Compliance Matrix: (Units=1/GPa)
#
#
# Indices 1 2 3 4 5 6 
#
# 1 0.008849 -0.007462 -0.002202 0.000000 -0.006628 0.000000
# 2 -0.007462 0.035119 -0.011120 0.000000 0.022983 0.000000
# 3 -0.002202 -0.011120 0.019478 0.000000 -0.004659 0.000000
# 4 0.000000 0.000000 0.000000 -0.121954 0.000000 -0.123901
# 5 -0.006628 0.022983 -0.004659 0.000000 0.041404 0.000000
# 6 0.000000 0.000000 0.000000 -0.123901 0.000000 -0.078873
#
#
# Mechanical properties :
#
#
# Convention : Reuss Voigt Hill
#
# Bulk Modulus (GPa) = 45.70937 63.91240 54.81088
# Shear Modulus (GPa) = -106.11543 26.86824 -39.62359
#
# Velocity S-wave (km/s) = -7.01455 3.52964 -4.28635
# Velocity P-wave (km/s) = 6.66413 6.80046 0.95803
#
# Compressibility (1/GPa) = 0.02187735
#
# Stress axis : x y z
#
# Youngs Moduli (GPa) = 113.00777 28.47498 51.34072
#
# Poissons Ratio (x) = 0.21248 0.11305
# Poissons Ratio (y) = 0.84326 0.57091
# Poissons Ratio (z) = 0.24884 0.31664
#
# Static dielectric constant tensor:
#      x y z
#    x 1.855250 0.000000 -0.028060 
#    y 0.000000 1.770890 0.000000 
#    z -0.028060 0.000000 1.913630 
# 
# From -- ./inp_files/52514.got.cif
#   From: 2010.05.17/outbox.cif.g08.bks.cpg/sg15_27_cif.got.tgz:52514.got - 2010.06.03 18:47:42.
