data_PCOD9277010
_publ_section_title
;
Structure prediction by ZEFSAII (Michael W. Deem and Ramdas Pophale) SiO2 
 PCOD9277010
Probable space group: C 2/C
;
_chemical_formula_sum "Si O2"
_cell_formula_units_Z 56
_cell_length_a 7.887141
_cell_length_b 29.290017
_cell_length_c 19.065509
_cell_angle_alpha 90.000000
_cell_angle_beta 34.203715
_cell_angle_gamma 90.000000
_cell_volume 2475.881230
_symmetry_space_group_name_H-M "C 2/C"
_symmetry_group_IT_number 15
_symmetry_cell_setting 'monoclinic'
loop_
_space_group_symop_operation_xyz
x,y,z
-x,y,1/2-z
-x,-y,-z
x,-y,1/2+z
1/2+x,1/2+y,z
1/2-x,1/2+y,1/2-z
1/2-x,1/2-y,-z
1/2+x,1/2-y,1/2+z
loop_
_atom_site_type_symbol
_atom_site_label
_atom_site_fract_x
_atom_site_fract_y
_atom_site_fract_z
Si Si1 0.088857 0.623389 0.055040
Si Si2 0.448353 0.942077 0.433428
Si Si3 0.353762 0.200358 0.224261
Si Si4 0.255150 0.801003 0.223702
Si Si5 0.349669 0.964985 0.630621
Si Si6 0.746056 0.150970 0.470640
Si Si7 0.718417 0.397394 0.299203
O O1 0.079348 0.669572 0.102173
O O2 0.863747 0.584610 0.161922
O O3 0.981024 0.639766 0.015329
O O4 0.399363 0.595624 0.944001
O O5 0.450846 0.952944 0.515957
O O6 0.217247 0.899078 0.505371
O O7 0.728212 0.920221 0.294756
O O8 0.446119 0.994520 0.407433
O O9 0.500000 0.204639 0.250000
O O10 0.278622 0.252051 0.228190
O O11 0.045292 0.172281 0.336985
O O12 0.215712 0.842982 0.289313
O O13 0.000000 0.804414 0.250000
O O14 0.577792 0.812341 0.077483
O O15 0.000000 0.980251 0.750000
O O16 0.000000 0.411800 0.250000
#
# Coordination Sequence:
#
# PCOD9277010 Si02
#       7
#     8   8   8   8   8   8   8
#     4  11  23  41  64  92 129 170 220 267 331 402
#     4   9  22  37  68  94 127 159 218 269 319 385
#     4  11  25  40  61  94 133 170 214 275 343 392
#     4  10  21  42  65  94 120 171 227 270 323 391
#     4  10  21  38  69 101 123 164 221 272 325 384
#     4  10  20  40  67  89 125 165 216 276 323 391
#     4  11  25  42  64  95 134 172 216 273 335 392
#
# _framework density 22.618209
#
# number of rings (size 3 to 8) (size 9 to 14) (size 15 to 20)
#    0.000    1.714    1.429    2.571   10.000    1.714 
#    0.000    1.429    0.000    0.000    0.000    0.000 
#    0.000    0.000    0.000    0.000    0.000    0.000 
#
# Total GULP energy -156003.226064 kJ/mol
# GULP energy per Si atom -5571.543788 kJ/mol
# Density = 2.256673 g / cm^3
# Si number density = 22.618209 Si / 1000 Ang^3
#
#
#
# Elastic Constant Matrix: (Units=GPa)
#
#
# Indices 1 2 3 4 5 6 
#
# 1 40.1756 -4.1964 10.2876 0.0000 -8.9324 0.0000
# 2 -4.1964 160.4732 18.6122 0.0002 13.3970 0.0000
# 3 10.2876 18.6122 82.1609 -0.0006 -5.3389 -0.0002
# 4 0.0000 0.0002 -0.0006 14.2137 0.0001 4.4548
# 5 -8.9324 13.3970 -5.3389 0.0001 24.4147 0.0000
# 6 0.0000 0.0000 -0.0002 4.4548 0.0000 20.1017
#
#
#
# Elastic Compliance Matrix: (Units=1/GPa)
#
#
# Indices 1 2 3 4 5 6 
#
# 1 0.027751 0.000285 -0.002931 0.000000 0.009356 0.000000
# 2 0.000285 0.006788 -0.001835 0.000000 -0.004022 0.000000
# 3 -0.002931 -0.001835 0.013136 0.000001 0.002807 0.000000
# 4 0.000000 0.000000 0.000001 0.075606 0.000000 -0.016755
# 5 0.009356 -0.004022 0.002807 0.000000 0.047203 0.000000
# 6 0.000000 0.000000 0.000000 -0.016755 0.000000 0.053460
#
#
# Mechanical properties :
#
#
# Convention : Reuss Voigt Hill
#
# Bulk Modulus (GPa) = 25.83149 36.91296 31.37223
# Shear Modulus (GPa) = 20.34087 28.95309 24.64698
#
# Velocity S-wave (km/s) = 3.00211 3.58170 3.30464
# Velocity P-wave (km/s) = 4.84379 5.78448 5.33491
#
# Compressibility (1/GPa) = 0.03871244
#
# Stress axis : x y z
#
# Youngs Moduli (GPa) = 36.03443 147.32906 76.12515
#
# Poissons Ratio (x) = -0.04193 0.22315
# Poissons Ratio (y) = -0.01026 0.13966
# Poissons Ratio (z) = 0.10563 0.27029
#
# Static dielectric constant tensor:
#      x y z
#    x 1.866850 0.000000 0.026110 
#    y 0.000000 1.917010 0.000000 
#    z 0.026110 0.000000 1.926890 
# 
# From -- ./inp_files/234933.got.cif
#   From: 2010.05.17/outbox.cif.g08.bks.cpg/sg15_118_cif.got.tgz:234933.got - 2010.06.03 18:47:42.
