data_PCOD9277982
_publ_section_title
;
Structure prediction by ZEFSAII (Michael W. Deem and Ramdas Pophale) SiO2 
 PCOD9277982
Probable space group: C 2/C
;
_chemical_formula_sum "Si O2"
_cell_formula_units_Z 44
_cell_length_a 21.155849
_cell_length_b 17.607052
_cell_length_c 8.745794
_cell_angle_alpha 90.000000
_cell_angle_beta 42.764120
_cell_angle_gamma 90.000000
_cell_volume 2211.945454
_symmetry_space_group_name_H-M "C 2/C"
_symmetry_group_IT_number 15
_symmetry_cell_setting 'monoclinic'
loop_
_space_group_symop_operation_xyz
x,y,z
-x,y,1/2-z
-x,-y,-z
x,-y,1/2+z
1/2+x,1/2+y,z
1/2-x,1/2+y,1/2-z
1/2-x,1/2-y,-z
1/2+x,1/2-y,1/2+z
loop_
_atom_site_type_symbol
_atom_site_label
_atom_site_fract_x
_atom_site_fract_y
_atom_site_fract_z
Si Si1 0.495989 0.171153 0.581690
Si Si2 0.868954 0.107984 0.960312
Si Si3 0.669649 0.909519 0.665088
Si Si4 0.000000 0.966836 0.750000
Si Si5 0.595030 0.054501 0.983604
Si Si6 0.030028 0.841015 0.951355
O O1 0.500000 0.144567 0.750000
O O2 0.597816 0.158276 0.327646
O O3 0.427946 0.121400 0.595570
O O4 0.469198 0.259152 0.625923
O O5 0.941235 0.151263 0.721285
O O6 0.769643 0.105194 0.059191
O O7 0.878283 0.147758 0.107969
O O8 0.912314 0.024011 0.911836
O O9 0.668854 0.924923 0.484826
O O10 0.625880 0.982077 0.831219
O O11 0.016380 0.911222 0.862213
O O12 0.500000 0.041031 0.250000
#
# Coordination Sequence:
#
# PCOD9277982 Si02
#       6
#     8   8   8   4   8   8
#     4  11  22  43  62  85 123 162 200 243 304 358
#     4  10  23  38  64  89 122 152 203 248 296 355
#     4  11  23  38  65  92 120 154 203 249 292 356
#     4  10  20  42  64  86 118 160 202 242 302 350
#     4  10  22  39  63  90 120 160 197 243 303 354
#     4  10  22  41  63  87 121 162 195 245 305 355
#
# _framework density 19.89199
#
# number of rings (size 3 to 8) (size 9 to 14) (size 15 to 20)
#    0.000    1.818    0.909    6.000   12.727    0.727 
#    0.000    0.909    0.000    0.000    0.000    0.000 
#    0.000    0.000    0.000    0.000    0.000    0.000 
#
# Total GULP energy -122846.863037 kJ/mol
# GULP energy per Si atom -5583.948320 kJ/mol
# Density = 1.984672 g / cm^3
# Si number density = 19.891990 Si / 1000 Ang^3
#
#
#
# Elastic Constant Matrix: (Units=GPa)
#
#
# Indices 1 2 3 4 5 6 
#
# 1 187.9925 43.1803 29.7480 0.0000 9.0987 0.0000
# 2 43.1803 88.6085 11.2337 0.0000 6.2641 0.0000
# 3 29.7480 11.2337 21.9649 0.0000 18.3046 0.0000
# 4 0.0000 0.0000 0.0000 -239.1973 0.0000 -264.9802
# 5 9.0987 6.2641 18.3046 0.0000 41.1038 0.0000
# 6 0.0000 0.0000 0.0000 -264.9802 0.0000 -283.9435
#
#
#
# Elastic Compliance Matrix: (Units=1/GPa)
#
#
# Indices 1 2 3 4 5 6 
#
# 1 0.007697 -0.002434 -0.012830 0.000000 0.004381 0.000000
# 2 -0.002434 0.012892 -0.003353 0.000000 0.000067 0.000000
# 3 -0.012830 -0.003353 0.098310 0.000000 -0.040429 0.000000
# 4 0.000000 0.000000 0.000000 0.123669 0.000000 -0.115410
# 5 0.004381 0.000067 -0.040429 0.000000 0.041353 0.000000
# 6 0.000000 0.000000 0.000000 -0.115410 0.000000 0.104180
#
#
# Mechanical properties :
#
#
# Convention : Reuss Voigt Hill
#
# Bulk Modulus (GPa) = 12.24518 51.87663 32.06090
# Shear Modulus (GPa) = 11.04835 -82.11380 -35.53273
#
# Velocity S-wave (km/s) = 2.35929 -6.43191 -4.23103
# Velocity P-wave (km/s) = 3.68657 5.38735 2.77783
#
# Compressibility (1/GPa) = 0.08166479
#
# Stress axis : x y z
#
# Youngs Moduli (GPa) = 129.92874 77.56741 10.17191
#
# Poissons Ratio (x) = 0.18878 0.13050
# Poissons Ratio (y) = 0.31622 0.03411
# Poissons Ratio (z) = 1.66693 0.26012
#
# Static dielectric constant tensor:
#      x y z
#    x 1.739120 0.000000 0.033920 
#    y 0.000000 1.690510 0.000000 
#    z 0.033920 0.000000 1.722860 
# 
# From -- ./inp_files/62644.got.cif
#   From: 2010.05.17/outbox.cif.g08.bks.cpg/sg15_32_cif.got.tgz:62644.got - 2010.06.03 18:47:42.
