data_PCOD9277491
_publ_section_title
;
Structure prediction by ZEFSAII (Michael W. Deem and Ramdas Pophale) SiO2 
 PCOD9277491
Probable space group: C 2/C
;
_chemical_formula_sum "Si O2"
_cell_formula_units_Z 56
_cell_length_a 9.458378
_cell_length_b 22.576520
_cell_length_c 12.847091
_cell_angle_alpha 90.000000
_cell_angle_beta 76.866437
_cell_angle_gamma 90.000000
_cell_volume 2671.575347
_symmetry_space_group_name_H-M "C 2/C"
_symmetry_group_IT_number 15
_symmetry_cell_setting 'monoclinic'
loop_
_space_group_symop_operation_xyz
x,y,z
-x,y,1/2-z
-x,-y,-z
x,-y,1/2+z
1/2+x,1/2+y,z
1/2-x,1/2+y,1/2-z
1/2-x,1/2-y,-z
1/2+x,1/2-y,1/2+z
loop_
_atom_site_type_symbol
_atom_site_label
_atom_site_fract_x
_atom_site_fract_y
_atom_site_fract_z
Si Si1 0.368907 0.618054 0.343225
Si Si2 0.342656 0.808333 0.021947
Si Si3 0.085358 0.769342 0.544371
Si Si4 0.960006 0.157953 0.868223
Si Si5 0.040841 0.406729 0.913900
Si Si6 0.072235 0.534728 0.634601
Si Si7 0.897576 0.051187 0.556600
O O1 0.500000 0.593622 0.250000
O O2 0.409456 0.685726 0.361168
O O3 0.372985 0.588394 0.455678
O O4 0.199585 0.610479 0.341394
O O5 0.469730 0.783375 0.074441
O O6 0.428650 0.851336 0.926973
O O7 0.213248 0.846192 0.092675
O O8 0.250000 0.750000 0.000000
O O9 0.250000 0.750000 0.500000
O O10 0.028973 0.802826 0.449367
O O11 0.028105 0.093428 0.872121
O O12 0.000000 0.183847 0.750000
O O13 0.049214 0.424752 0.035834
O O14 0.989823 0.468681 0.873318
O O15 0.243852 0.528838 0.621778
O O16 0.000000 0.560584 0.750000
O O17 0.000000 0.000000 0.500000
#
# Coordination Sequence:
#
# PCOD9277491 Si02
#       7
#     8   8   8   8   8   8   8
#     4  10  22  38  62  90 120 167 210 260 324 387
#     4  10  21  40  64  88 130 167 203 271 329 379
#     4  10  20  41  64  88 128 164 214 264 318 393
#     4  10  23  39  60  94 124 164 210 263 328 384
#     4  10  21  42  63  91 133 160 214 279 315 391
#     4  10  23  39  64  95 121 173 217 261 334 389
#     4  10  22  40  60  87 126 159 210 263 317 394
#
# _framework density 20.961416
#
# number of rings (size 3 to 8) (size 9 to 14) (size 15 to 20)
#    0.000    2.000    1.429    0.857    4.000    1.714 
#    0.000    1.429    0.000    0.000    0.000    0.000 
#    0.000    0.000    0.000    0.000    0.000    0.000 
#
# Total GULP energy -156078.719184 kJ/mol
# GULP energy per Si atom -5574.239971 kJ/mol
# Density = 2.091371 g / cm^3
# Si number density = 20.961416 Si / 1000 Ang^3
#
#
#
# Elastic Constant Matrix: (Units=GPa)
#
#
# Indices 1 2 3 4 5 6 
#
# 1 141.9486 35.8248 49.0111 0.0000 -42.4479 0.0000
# 2 35.8248 59.3733 5.0437 0.0000 0.6430 0.0000
# 3 49.0111 5.0437 103.1865 0.0000 -29.5909 0.0000
# 4 0.0000 0.0000 0.0000 16.7935 0.0000 -13.3915
# 5 -42.4479 0.6430 -29.5909 0.0000 26.6079 0.0000
# 6 0.0000 0.0000 0.0000 -13.3915 0.0000 29.8072
#
#
#
# Elastic Compliance Matrix: (Units=1/GPa)
#
#
# Indices 1 2 3 4 5 6 
#
# 1 0.019490 -0.012148 0.000495 0.000000 0.031937 0.000000
# 2 -0.012148 0.024554 -0.001700 0.000000 -0.021864 0.000000
# 3 0.000495 -0.001700 0.014356 0.000000 0.016796 0.000000
# 4 0.000000 0.000000 0.000000 0.092789 0.000000 0.041687
# 5 0.031937 -0.021864 0.016796 0.000000 0.107739 0.000000
# 6 0.000000 0.000000 0.000000 0.041687 0.000000 0.052278
#
#
# Mechanical properties :
#
#
# Convention : Reuss Voigt Hill
#
# Bulk Modulus (GPa) = 31.55216 53.80750 42.67983
# Shear Modulus (GPa) = 14.34821 28.95032 21.64926
#
# Velocity S-wave (km/s) = 2.61914 3.72038 3.21723
# Velocity P-wave (km/s) = 4.92257 6.64684 5.84860
#
# Compressibility (1/GPa) = 0.03169355
#
# Stress axis : x y z
#
# Youngs Moduli (GPa) = 51.30838 40.72733 69.65841
#
# Poissons Ratio (x) = 0.49475 -0.03448
# Poissons Ratio (y) = 0.62328 0.11842
# Poissons Ratio (z) = -0.02540 0.06924
#
# Static dielectric constant tensor:
#      x y z
#    x 1.713150 0.000000 -0.016560 
#    y 0.000000 1.886880 0.000000 
#    z -0.016560 0.000000 1.747310 
# 
# From -- ./inp_files/137732.got.cif
#   From: 2010.05.17/outbox.cif.g08.bks.cpg/sg15_69_cif.got.tgz:137732.got - 2010.06.03 18:47:42.
