data_PCOD9277225
_publ_section_title
;
Structure prediction by ZEFSAII (Michael W. Deem and Ramdas Pophale) SiO2 
 PCOD9277225
Probable space group: C 2/C
;
_chemical_formula_sum "Si O2"
_cell_formula_units_Z 44
_cell_length_a 15.118094
_cell_length_b 14.332059
_cell_length_c 8.714770
_cell_angle_alpha 90.000000
_cell_angle_beta 73.411419
_cell_angle_gamma 90.000000
_cell_volume 1809.668682
_symmetry_space_group_name_H-M "C 2/C"
_symmetry_group_IT_number 15
_symmetry_cell_setting 'monoclinic'
loop_
_space_group_symop_operation_xyz
x,y,z
-x,y,1/2-z
-x,-y,-z
x,-y,1/2+z
1/2+x,1/2+y,z
1/2-x,1/2+y,1/2-z
1/2-x,1/2-y,-z
1/2+x,1/2-y,1/2+z
loop_
_atom_site_type_symbol
_atom_site_label
_atom_site_fract_x
_atom_site_fract_y
_atom_site_fract_z
Si Si1 0.231861 0.417144 0.263875
Si Si2 0.362936 0.724871 0.226101
Si Si3 0.933885 0.442461 0.643905
Si Si4 0.000000 0.882419 0.250000
Si Si5 0.165815 0.947687 0.977687
Si Si6 0.063827 0.247198 0.982938
O O1 0.206952 0.310636 0.247819
O O2 0.146187 0.486024 0.269975
O O3 0.259693 0.429604 0.426795
O O4 0.312691 0.457488 0.118854
O O5 0.330942 0.634000 0.150618
O O6 0.385904 0.707406 0.392195
O O7 0.457240 0.757703 0.093547
O O8 0.898084 0.349363 0.578624
O O9 0.000000 0.411723 0.750000
O O10 0.000000 0.500000 0.500000
O O11 0.058340 0.815242 0.333581
O O12 0.932594 0.942673 0.389286
#
# Coordination Sequence:
#
# PCOD9277225 Si02
#       6
#     8   8   8   4   8   8
#     4  12  25  43  69 109 147 184 237 295 368 424
#     4  10  22  43  71 103 146 181 239 297 358 427
#     4  12  22  37  66 107 149 187 223 289 370 444
#     4  10  24  48  72  96 138 196 248 292 344 418
#     4  11  27  46  70 102 142 192 243 300 351 424
#     4  10  20  40  70 104 137 191 239 288 360 431
#
# _framework density 24.313842000000001
#
# number of rings (size 3 to 8) (size 9 to 14) (size 15 to 20)
#    0.000    1.091    2.727    3.818    0.000    3.636 
#    0.000    4.545    0.000    0.000    0.000    0.000 
#    0.000    0.000    0.000    0.000    0.000    0.000 
#
# Total GULP energy -123411.938360 kJ/mol
# GULP energy per Si atom -5609.633562 kJ/mol
# Density = 2.425850 g / cm^3
# Si number density = 24.313842 Si / 1000 Ang^3
#
#
#
# Elastic Constant Matrix: (Units=GPa)
#
#
# Indices 1 2 3 4 5 6 
#
# 1 72.5342 62.0195 44.8988 0.0000 19.9775 0.0000
# 2 62.0195 123.0948 79.4820 0.0000 -14.9446 0.0000
# 3 44.8988 79.4820 149.2354 0.0000 15.3909 0.0000
# 4 0.0000 0.0000 0.0000 34.7380 0.0000 16.5815
# 5 19.9775 -14.9446 15.3909 0.0000 51.2334 0.0000
# 6 0.0000 0.0000 0.0000 16.5815 0.0000 -17.2290
#
#
#
# Elastic Compliance Matrix: (Units=1/GPa)
#
#
# Indices 1 2 3 4 5 6 
#
# 1 0.039988 -0.025864 0.004263 0.000000 -0.024418 0.000000
# 2 -0.025864 0.031020 -0.011055 0.000000 0.022455 0.000000
# 3 0.004263 -0.011055 0.012188 0.000000 -0.008548 0.000000
# 4 0.000000 0.000000 0.000000 0.019725 0.000000 0.018984
# 5 -0.024418 0.022455 -0.008548 0.000000 0.038158 0.000000
# 6 0.000000 0.000000 0.000000 0.018984 0.000000 -0.039771
#
#
# Mechanical properties :
#
#
# Convention : Reuss Voigt Hill
#
# Bulk Modulus (GPa) = 55.92219 79.74055 67.83137
# Shear Modulus (GPa) = 28.97184 24.31275 26.64229
#
# Velocity S-wave (km/s) = 3.45567 3.16564 3.31383
# Velocity P-wave (km/s) = 6.24278 6.79921 6.52693
#
# Compressibility (1/GPa) = 0.01788199
#
# Stress axis : x y z
#
# Youngs Moduli (GPa) = 25.00744 32.23773 82.04873
#
# Poissons Ratio (x) = 0.83380 -0.34974
# Poissons Ratio (y) = 0.64680 0.90706
# Poissons Ratio (z) = -0.10660 0.35639
#
# Static dielectric constant tensor:
#      x y z
#    x 2.130810 0.000000 0.028180 
#    y 0.000000 1.853600 0.000000 
#    z 0.028180 0.000000 1.925370 
# 
# From -- ./inp_files/47000.got.cif
#   From: 2010.05.17/outbox.cif.g08.bks.cpg/sg15_24_cif.got.tgz:47000.got - 2010.06.03 18:47:42.
