data_PCOD9277625
_publ_section_title
;
Structure prediction by ZEFSAII (Michael W. Deem and Ramdas Pophale) SiO2 
 PCOD9277625
Probable space group: C 2/C
;
_chemical_formula_sum "Si O2"
_cell_formula_units_Z 52
_cell_length_a 7.778172
_cell_length_b 20.436920
_cell_length_c 18.245898
_cell_angle_alpha 90.000000
_cell_angle_beta 53.542473
_cell_angle_gamma 90.000000
_cell_volume 2332.786488
_symmetry_space_group_name_H-M "C 2/C"
_symmetry_group_IT_number 15
_symmetry_cell_setting 'monoclinic'
loop_
_space_group_symop_operation_xyz
x,y,z
-x,y,1/2-z
-x,-y,-z
x,-y,1/2+z
1/2+x,1/2+y,z
1/2-x,1/2+y,1/2-z
1/2-x,1/2-y,-z
1/2+x,1/2-y,1/2+z
loop_
_atom_site_type_symbol
_atom_site_label
_atom_site_fract_x
_atom_site_fract_y
_atom_site_fract_z
Si Si1 0.000000 0.527383 0.250000
Si Si2 0.000000 0.744565 0.250000
Si Si3 0.889050 0.044185 0.924653
Si Si4 0.000000 0.966302 0.750000
Si Si5 0.611486 0.308021 0.070496
Si Si6 0.834695 0.549574 0.906963
Si Si7 0.199183 0.821329 0.483118
Si Si8 0.678372 0.370929 0.819172
O O1 0.030113 0.478812 0.310554
O O2 0.825090 0.577810 0.326168
O O3 0.057944 0.787050 0.165724
O O4 0.194585 0.696117 0.221530
O O5 0.800557 0.118085 0.949442
O O6 0.123374 0.048072 0.906180
O O7 0.919365 0.011806 0.837050
O O8 0.735450 0.996433 0.008918
O O9 0.847745 0.912979 0.747855
O O10 0.750000 0.250000 0.000000
O O11 0.409556 0.310827 0.067863
O O12 0.875065 0.623059 0.924636
O O13 0.250000 0.750000 0.500000
O O14 0.033111 0.855460 0.581713
#
# Coordination Sequence:
#
# PCOD9277625 Si02
#       8
#     4   4   8   4   8   8   8   8
#     4  11  20  42  68  98 125 170 230 274 333 414
#     4  11  25  42  64 102 134 186 232 278 344 412
#     4  10  21  39  69  92 130 176 220 274 343 399
#     4  12  21  42  68 100 131 170 224 296 343 400
#     4  11  23  43  67  97 139 184 229 282 338 418
#     4  10  20  41  66  93 129 174 217 270 341 407
#     4  11  24  47  67  97 137 185 227 282 349 408
#     4  11  24  41  69  95 136 174 226 279 350 405
#
# _framework density 22.290938000000001
#
# number of rings (size 3 to 8) (size 9 to 14) (size 15 to 20)
#    0.000    1.231    4.615    2.308    4.308    0.000 
#    8.308    0.769    0.000    0.000    0.000    0.000 
#    0.000    0.000    0.000    0.000    0.000    0.000 
#
# Total GULP energy -145113.691662 kJ/mol
# GULP energy per Si atom -5581.295833 kJ/mol
# Density = 2.224020 g / cm^3
# Si number density = 22.290938 Si / 1000 Ang^3
#
#
#
# Elastic Constant Matrix: (Units=GPa)
#
#
# Indices 1 2 3 4 5 6 
#
# 1 28.4682 28.0492 18.1053 0.0000 19.5603 0.0000
# 2 28.0492 212.3742 80.7780 0.0000 18.0094 0.0000
# 3 18.1053 80.7780 150.9471 0.0000 27.1105 0.0000
# 4 0.0000 0.0000 0.0000 36.7124 0.0000 20.8317
# 5 19.5603 18.0094 27.1105 0.0000 33.1763 0.0000
# 6 0.0000 0.0000 0.0000 20.8317 0.0000 9.4248
#
#
#
# Elastic Compliance Matrix: (Units=1/GPa)
#
#
# Indices 1 2 3 4 5 6 
#
# 1 0.065284 -0.006324 0.002168 0.000000 -0.036830 0.000000
# 2 -0.006324 0.006540 -0.003250 0.000000 0.002834 0.000000
# 3 0.002168 -0.003250 0.009396 0.000000 -0.007192 0.000000
# 4 0.000000 0.000000 0.000000 -0.107157 0.000000 0.236851
# 5 -0.036830 0.002834 -0.007192 0.000000 0.056195 0.000000
# 6 0.000000 0.000000 0.000000 0.236851 0.000000 -0.417411
#
#
# Mechanical properties :
#
#
# Convention : Reuss Voigt Hill
#
# Bulk Modulus (GPa) = 15.05845 71.73940 43.39892
# Shear Modulus (GPa) = -14.27729 33.51983 9.62127
#
# Velocity S-wave (km/s) = -2.53355 3.88202 2.07981
# Velocity P-wave (km/s) = 1.33732 7.23509 5.02783
#
# Compressibility (1/GPa) = 0.06640791
#
# Stress axis : x y z
#
# Youngs Moduli (GPa) = 15.31772 152.90981 106.43048
#
# Poissons Ratio (x) = 0.96700 -0.23079
# Poissons Ratio (y) = 0.09687 0.34593
# Poissons Ratio (z) = -0.03322 0.49700
#
# Static dielectric constant tensor:
#      x y z
#    x 1.527640 0.000000 0.015600 
#    y 0.000000 1.802840 0.000000 
#    z 0.015600 0.000000 1.789650 
# 
# From -- ./inp_files/136093.got.cif
#   From: 2010.05.17/outbox.cif.g08.bks.cpg/sg15_69_cif.got.tgz:136093.got - 2010.06.03 18:47:42.
