data_PCOD9277801
_publ_section_title
;
Structure prediction by ZEFSAII (Michael W. Deem and Ramdas Pophale) SiO2 
 PCOD9277801
Probable space group: C 2/C
;
_chemical_formula_sum "Si O2"
_cell_formula_units_Z 40
_cell_length_a 25.807401
_cell_length_b 16.452101
_cell_length_c 13.842503
_cell_angle_alpha 90.000000
_cell_angle_beta 158.791730
_cell_angle_gamma 90.000000
_cell_volume 2126.178744
_symmetry_space_group_name_H-M "C 2/C"
_symmetry_group_IT_number 15
_symmetry_cell_setting 'monoclinic'
loop_
_space_group_symop_operation_xyz
x,y,z
-x,y,1/2-z
-x,-y,-z
x,-y,1/2+z
1/2+x,1/2+y,z
1/2-x,1/2+y,1/2-z
1/2-x,1/2-y,-z
1/2+x,1/2-y,1/2+z
loop_
_atom_site_type_symbol
_atom_site_label
_atom_site_fract_x
_atom_site_fract_y
_atom_site_fract_z
Si Si1 0.660191 0.685961 0.278920
Si Si2 0.535308 0.021683 0.453019
Si Si3 0.625325 0.194624 0.546148
Si Si4 0.226895 0.473813 0.626542
Si Si5 0.420796 0.376769 0.508685
O O1 0.750000 0.750000 0.500000
O O2 0.613721 0.733886 0.102582
O O3 0.742755 0.607295 0.380516
O O4 0.530972 0.653770 0.119911
O O5 0.605073 0.109961 0.567942
O O6 0.500000 0.000000 0.500000
O O7 0.644354 0.961929 0.585393
O O8 0.388840 0.023235 0.137813
O O9 0.783884 0.183657 0.777218
O O10 0.500000 0.201459 0.250000
O O11 0.360363 0.533364 0.877641
O O12 0.500000 0.378196 0.750000
#
# Coordination Sequence:
#
# PCOD9277801 Si02
#       5
#     8   8   8   8   8
#     4  12  25  41  67  99 135 173 220 275 337 391
#     4  10  20  41  70  90 128 176 218 262 322 396
#     4  11  23  45  63  96 133 167 216 280 328 390
#     4  10  23  42  64  99 128 169 229 261 322 407
#     4  11  23  44  69  91 136 175 215 273 334 395
#
# _framework density 18.813094
#
# number of rings (size 3 to 8) (size 9 to 14) (size 15 to 20)
#    0.000    1.200    6.000    1.800    2.800    6.400 
#    3.600    0.000    0.000    0.000    0.000    0.000 
#    0.000    0.000    0.000    0.000    0.000    0.000 
#
# Total GULP energy -111623.596279 kJ/mol
# GULP energy per Si atom -5581.179814 kJ/mol
# Density = 1.877027 g / cm^3
# Si number density = 18.813094 Si / 1000 Ang^3
#
#
#
# Elastic Constant Matrix: (Units=GPa)
#
#
# Indices 1 2 3 4 5 6 
#
# 1 130.0519 41.8513 41.6551 0.0000 20.8095 0.0000
# 2 41.8513 75.3758 32.5272 0.0000 14.9639 0.0000
# 3 41.6551 32.5272 97.1827 0.0000 8.6779 0.0000
# 4 0.0000 0.0000 0.0000 19.1078 0.0000 -8.9462
# 5 20.8095 14.9639 8.6779 0.0000 29.5527 0.0000
# 6 0.0000 0.0000 0.0000 -8.9462 0.0000 25.8743
#
#
#
# Elastic Compliance Matrix: (Units=1/GPa)
#
#
# Indices 1 2 3 4 5 6 
#
# 1 0.010548 -0.003682 -0.002867 0.000000 -0.004721 0.000000
# 2 -0.003682 0.018110 -0.004001 0.000000 -0.005403 0.000000
# 3 -0.002867 -0.004001 0.012833 0.000000 0.000276 0.000000
# 4 0.000000 0.000000 0.000000 0.062443 0.000000 0.021590
# 5 -0.004721 -0.005403 0.000276 0.000000 0.039816 0.000000
# 6 0.000000 0.000000 0.000000 0.021590 0.000000 0.046113
#
#
# Mechanical properties :
#
#
# Convention : Reuss Voigt Hill
#
# Bulk Modulus (GPa) = 49.04071 59.40863 54.22467
# Shear Modulus (GPa) = 22.96092 27.34543 25.15317
#
# Velocity S-wave (km/s) = 3.49732 3.81666 3.66047
# Velocity P-wave (km/s) = 6.51400 7.14628 6.83746
#
# Compressibility (1/GPa) = 0.02039122
#
# Stress axis : x y z
#
# Youngs Moduli (GPa) = 94.80589 55.21709 77.92246
#
# Poissons Ratio (x) = 0.20331 0.22342
# Poissons Ratio (y) = 0.34908 0.31176
# Poissons Ratio (z) = 0.27182 0.22092
#
# Static dielectric constant tensor:
#      x y z
#    x 1.657850 0.000000 0.002270 
#    y 0.000000 1.658430 0.000000 
#    z 0.002270 0.000000 1.663710 
# 
# From -- ./inp_files/134202.got.cif
#   From: 2010.05.17/outbox.cif.g08.bks.cpg/sg15_68_cif.got.tgz:134202.got - 2010.06.03 18:47:42.
