data_PCOD9277338
_publ_section_title
;
Structure prediction by ZEFSAII (Michael W. Deem and Ramdas Pophale) SiO2 
 PCOD9277338
Probable space group: C 2/C
;
_chemical_formula_sum "Si O2"
_cell_formula_units_Z 48
_cell_length_a 10.167782
_cell_length_b 28.047207
_cell_length_c 9.218489
_cell_angle_alpha 90.000000
_cell_angle_beta 58.348416
_cell_angle_gamma 90.000000
_cell_volume 2237.871686
_symmetry_space_group_name_H-M "C 2/C"
_symmetry_group_IT_number 15
_symmetry_cell_setting 'monoclinic'
loop_
_space_group_symop_operation_xyz
x,y,z
-x,y,1/2-z
-x,-y,-z
x,-y,1/2+z
1/2+x,1/2+y,z
1/2-x,1/2+y,1/2-z
1/2-x,1/2-y,-z
1/2+x,1/2-y,1/2+z
loop_
_atom_site_type_symbol
_atom_site_label
_atom_site_fract_x
_atom_site_fract_y
_atom_site_fract_z
Si Si1 0.916616 0.540285 0.146913
Si Si2 0.656916 0.278025 0.866108
Si Si3 0.809317 0.967087 0.109372
Si Si4 0.500000 0.800377 0.250000
Si Si5 0.000000 0.252850 0.750000
Si Si6 0.500000 0.517562 0.750000
Si Si7 0.500000 0.646024 0.250000
Si Si8 0.816961 0.388195 0.474117
O O1 0.757567 0.515852 0.285627
O O2 0.891201 0.588030 0.071685
O O3 0.000000 0.549043 0.250000
O O4 0.000000 0.500000 0.000000
O O5 0.599347 0.232423 0.802737
O O6 0.592045 0.321963 0.812361
O O7 0.842815 0.278898 0.782568
O O8 0.570201 0.275168 0.071218
O O9 0.914727 0.949931 0.180381
O O10 0.675959 0.929028 0.153491
O O11 0.893444 0.984536 0.914815
O O12 0.386921 0.837088 0.397526
O O13 0.366792 0.616837 0.404247
#
# Coordination Sequence:
#
# PCOD9277338 Si02
#       8
#     8   8   8   4   4   4   4   8
#     4  12  23  42  64  90 128 179 228 280 341 398
#     4  10  22  45  72  97 138 176 212 266 350 395
#     4  11  21  39  63  87 125 169 223 272 336 390
#     4  11  24  44  69  96 133 184 221 267 328 419
#     4  10  20  40  75 102 122 170 222 262 322 417
#     4  10  21  36  62  86 116 174 212 271 338 394
#     4  11  25  44  66 100 135 178 219 272 330 412
#     4  12  24  40  68  98 132 174 236 277 323 405
#
# _framework density 21.448948999999999
#
# number of rings (size 3 to 8) (size 9 to 14) (size 15 to 20)
#    0.000    1.000    3.333    3.500    2.333    2.667 
#    9.000    5.000    0.000    0.000    0.000    0.000 
#    0.000    0.000    0.000    0.000    0.000    0.000 
#
# Total GULP energy -133952.792368 kJ/mol
# GULP energy per Si atom -5581.366349 kJ/mol
# Density = 2.140013 g / cm^3
# Si number density = 21.448949 Si / 1000 Ang^3
#
#
#
# Elastic Constant Matrix: (Units=GPa)
#
#
# Indices 1 2 3 4 5 6 
#
# 1 148.6843 22.3805 49.1622 0.0000 22.1454 0.0000
# 2 22.3805 66.8629 25.5270 0.0000 9.8936 0.0000
# 3 49.1622 25.5270 122.1899 0.0000 0.8931 0.0000
# 4 0.0000 0.0000 0.0000 -1.7434 0.0000 -17.6958
# 5 22.1454 9.8936 0.8931 0.0000 57.6487 0.0000
# 6 0.0000 0.0000 0.0000 -17.6958 0.0000 3.2464
#
#
#
# Elastic Compliance Matrix: (Units=1/GPa)
#
#
# Indices 1 2 3 4 5 6 
#
# 1 0.008370 -0.001180 -0.003099 0.000000 -0.002965 0.000000
# 2 -0.001180 0.016862 -0.003031 0.000000 -0.002394 0.000000
# 3 -0.003099 -0.003031 0.010053 0.000000 0.001555 0.000000
# 4 0.000000 0.000000 0.000000 -0.010183 0.000000 -0.055507
# 5 -0.002965 -0.002394 0.001555 0.000000 0.018872 0.000000
# 6 0.000000 0.000000 0.000000 -0.055507 0.000000 0.005469
#
#
# Mechanical properties :
#
#
# Convention : Reuss Voigt Hill
#
# Bulk Modulus (GPa) = 48.39014 59.09739 53.74377
# Shear Modulus (GPa) = 70.47302 27.87484 49.17393
#
# Velocity S-wave (km/s) = 5.73825 3.60889 4.79331
# Velocity P-wave (km/s) = 8.15554 6.70655 7.46628
#
# Compressibility (1/GPa) = 0.02066537
#
# Stress axis : x y z
#
# Youngs Moduli (GPa) = 119.48054 59.30479 99.47534
#
# Poissons Ratio (x) = 0.06995 0.30831
# Poissons Ratio (y) = 0.14093 0.30147
# Poissons Ratio (z) = 0.37031 0.17973
#
# Static dielectric constant tensor:
#      x y z
#    x 2.931640 0.000000 0.266980 
#    y 0.000000 1.739090 0.000000 
#    z 0.266980 0.000000 1.913860 
# 
# From -- ./inp_files/33465.got.cif
#   From: 2010.05.17/outbox.cif.g08.bks.cpg/sg15_17_cif.got.tgz:33465.got - 2010.06.03 18:47:42.
