data_PCOD9277057
_publ_section_title
;
Structure prediction by ZEFSAII (Michael W. Deem and Ramdas Pophale) SiO2 
 PCOD9277057
Probable space group: C 2/C
;
_chemical_formula_sum "Si O2"
_cell_formula_units_Z 40
_cell_length_a 17.768929
_cell_length_b 17.283110
_cell_length_c 11.065481
_cell_angle_alpha 90.000000
_cell_angle_beta 151.350344
_cell_angle_gamma 90.000000
_cell_volume 1629.292706
_symmetry_space_group_name_H-M "C 2/C"
_symmetry_group_IT_number 15
_symmetry_cell_setting 'monoclinic'
loop_
_space_group_symop_operation_xyz
x,y,z
-x,y,1/2-z
-x,-y,-z
x,-y,1/2+z
1/2+x,1/2+y,z
1/2-x,1/2+y,1/2-z
1/2-x,1/2-y,-z
1/2+x,1/2-y,1/2+z
loop_
_atom_site_type_symbol
_atom_site_label
_atom_site_fract_x
_atom_site_fract_y
_atom_site_fract_z
Si Si1 0.829235 0.064000 0.504815
Si Si2 0.696290 0.542991 0.768206
Si Si3 0.465619 0.663770 0.335588
Si Si4 0.512315 0.917522 0.950003
Si Si5 0.604857 0.165890 0.802863
O O1 0.824062 0.013073 0.622987
O O2 0.667824 0.111577 0.295701
O O3 0.000000 0.103767 0.750000
O O4 0.823893 0.017456 0.370689
O O5 0.573813 0.613235 0.575046
O O6 0.873236 0.572981 0.001856
O O7 0.500000 0.631435 0.250000
O O8 0.495683 0.755746 0.363626
O O9 0.279852 0.668562 0.101822
O O10 0.618351 0.868303 0.190171
O O11 0.500000 0.000000 0.000000
O O12 0.500000 0.118273 0.750000
#
# Coordination Sequence:
#
# PCOD9277057 Si02
#       5
#     8   8   8   8   8
#     4  11  25  40  63  97 134 177 220 271 334 399
#     4  11  23  43  67  94 138 177 222 276 337 400
#     4  10  20  40  67  96 130 178 227 279 333 397
#     4  10  23  40  62  94 133 171 218 271 336 395
#     4  10  22  38  66 100 132 173 229 279 331 401
#
# _framework density 24.550529000000001
#
# number of rings (size 3 to 8) (size 9 to 14) (size 15 to 20)
#    0.000    1.600    2.000    1.800    5.600    6.400 
#    0.000    1.000    0.000    0.000    0.000    0.000 
#    0.000    0.000    0.000    0.000    0.000    0.000 
#
# Total GULP energy -111479.739534 kJ/mol
# GULP energy per Si atom -5573.986977 kJ/mol
# Density = 2.449465 g / cm^3
# Si number density = 24.550529 Si / 1000 Ang^3
#
#
#
# Elastic Constant Matrix: (Units=GPa)
#
#
# Indices 1 2 3 4 5 6 
#
# 1 137.6028 3.1524 26.3428 0.0000 4.7768 0.0000
# 2 3.1524 45.8142 11.5102 0.0000 -13.5181 0.0000
# 3 26.3428 11.5102 165.4926 0.0000 33.0958 0.0000
# 4 0.0000 0.0000 0.0000 22.8028 0.0000 4.6935
# 5 4.7768 -13.5181 33.0958 0.0000 59.1404 0.0000
# 6 0.0000 0.0000 0.0000 4.6935 0.0000 19.9113
#
#
#
# Elastic Compliance Matrix: (Units=1/GPa)
#
#
# Indices 1 2 3 4 5 6 
#
# 1 0.007498 -0.000218 -0.001179 0.000000 0.000004 0.000000
# 2 -0.000218 0.024852 -0.003190 0.000000 0.007484 0.000000
# 3 -0.001179 -0.003190 0.007408 0.000000 -0.004780 0.000000
# 4 0.000000 0.000000 0.000000 0.046091 0.000000 -0.010865
# 5 0.000004 0.007484 -0.004780 0.000000 0.021294 0.000000
# 6 0.000000 0.000000 0.000000 -0.010865 0.000000 0.052784
#
#
# Mechanical properties :
#
#
# Convention : Reuss Voigt Hill
#
# Bulk Modulus (GPa) = 32.69884 47.88006 40.28945
# Shear Modulus (GPa) = 27.88687 40.89783 34.39235
#
# Velocity S-wave (km/s) = 3.37396 4.08593 3.74689
# Velocity P-wave (km/s) = 5.34098 6.46566 5.93004
#
# Compressibility (1/GPa) = 0.03058212
#
# Stress axis : x y z
#
# Youngs Moduli (GPa) = 133.37082 40.23824 134.98931
#
# Poissons Ratio (x) = 0.00879 0.15918
# Poissons Ratio (y) = 0.02913 0.43066
# Poissons Ratio (z) = 0.15727 0.12837
#
# Static dielectric constant tensor:
#      x y z
#    x 2.023460 0.000000 -0.075570 
#    y 0.000000 1.997370 0.000000 
#    z -0.075570 0.000000 1.958660 
# 
# From -- ./inp_files/107572.got.cif
#   From: 2010.05.17/outbox.cif.g08.bks.cpg/sg15_54_cif.got.tgz:107572.got - 2010.06.03 18:47:42.
