data_PCOD9277208
_publ_section_title
;
Structure prediction by ZEFSAII (Michael W. Deem and Ramdas Pophale) SiO2 
 PCOD9277208
Probable space group: C 2/C
;
_chemical_formula_sum "Si O2"
_cell_formula_units_Z 48
_cell_length_a 4.769081
_cell_length_b 22.058342
_cell_length_c 19.610908
_cell_angle_alpha 90.000000
_cell_angle_beta 102.387442
_cell_angle_gamma 90.000000
_cell_volume 2014.999976
_symmetry_space_group_name_H-M "C 2/C"
_symmetry_group_IT_number 15
_symmetry_cell_setting 'monoclinic'
loop_
_space_group_symop_operation_xyz
x,y,z
-x,y,1/2-z
-x,-y,-z
x,-y,1/2+z
1/2+x,1/2+y,z
1/2-x,1/2+y,1/2-z
1/2-x,1/2-y,-z
1/2+x,1/2-y,1/2+z
loop_
_atom_site_type_symbol
_atom_site_label
_atom_site_fract_x
_atom_site_fract_y
_atom_site_fract_z
Si Si1 0.763816 0.412828 0.685810
Si Si2 0.500000 0.696447 0.250000
Si Si3 0.669283 0.853202 0.096872
Si Si4 0.779953 0.615192 0.686795
Si Si5 0.793991 0.233160 0.099869
Si Si6 0.000000 0.005138 0.750000
Si Si7 0.261209 0.156154 0.054935
O O1 0.695674 0.347830 0.715412
O O2 0.491507 0.456281 0.686221
O O3 0.849797 0.395963 0.613771
O O4 0.000000 0.439839 0.750000
O O5 0.325214 0.729818 0.182922
O O6 0.467867 0.898683 0.129245
O O7 0.463742 0.793772 0.088918
O O8 0.980342 0.851962 0.150791
O O9 0.735955 0.866537 0.021945
O O10 0.698488 0.554837 0.722854
O O11 0.000000 0.648942 0.750000
O O12 0.465959 0.215845 0.068817
O O13 0.956889 0.179785 0.066964
#
# Coordination Sequence:
#
# PCOD9277208 Si02
#       7
#     8   4   8   8   8   4   8
#     4  10  20  40  69  96 132 178 226 289 350 409
#     4   9  20  34  58 100 132 166 236 275 324 402
#     4  12  25  42  70  99 141 187 226 283 353 410
#     4  12  25  48  67  96 133 180 241 294 341 416
#     4  11  22  39  65  98 144 183 222 275 337 419
#     4  11  24  44  74  96 128 182 240 297 360 404
#     4  11  23  43  66 104 142 179 227 278 344 427
#
# _framework density 23.821339999999999
#
# number of rings (size 3 to 8) (size 9 to 14) (size 15 to 20)
#    0.000    1.000    3.333    3.500    1.167    0.000 
#    3.000    1.667    0.000    0.000    0.000    0.000 
#    0.000    0.000    0.000    0.000    0.000    0.000 
#
# Total GULP energy -133736.294357 kJ/mol
# GULP energy per Si atom -5572.345598 kJ/mol
# Density = 2.376712 g / cm^3
# Si number density = 23.821340 Si / 1000 Ang^3
#
#
#
# Elastic Constant Matrix: (Units=GPa)
#
#
# Indices 1 2 3 4 5 6 
#
# 1 125.6624 30.1174 53.5006 0.0000 -8.5643 0.0000
# 2 30.1174 77.5231 52.0497 0.0000 -6.0287 0.0000
# 3 53.5006 52.0497 188.1446 0.0000 -25.9022 0.0000
# 4 0.0000 0.0000 0.0000 -1.3382 0.0000 -11.9375
# 5 -8.5643 -6.0287 -25.9022 0.0000 45.9684 0.0000
# 6 0.0000 0.0000 0.0000 -11.9375 0.0000 31.3478
#
#
#
# Elastic Compliance Matrix: (Units=1/GPa)
#
#
# Indices 1 2 3 4 5 6 
#
# 1 0.009374 -0.002280 -0.001990 0.000000 0.000326 0.000000
# 2 -0.002280 0.016404 -0.003959 0.000000 -0.000504 0.000000
# 3 -0.001990 -0.003959 0.007430 0.000000 0.003297 0.000000
# 4 0.000000 0.000000 0.000000 -0.169948 0.000000 -0.064718
# 5 0.000326 -0.000504 0.003297 0.000000 0.023606 0.000000
# 6 0.000000 0.000000 0.000000 -0.064718 0.000000 0.007255
#
#
# Mechanical properties :
#
#
# Convention : Reuss Voigt Hill
#
# Bulk Modulus (GPa) = 59.70345 73.62952 66.66648
# Shear Modulus (GPa) = -59.63963 32.23975 -13.69994
#
# Velocity S-wave (km/s) = -5.00905 3.68285 -2.40075
# Velocity P-wave (km/s) = 2.88733 7.00433 4.51243
#
# Compressibility (1/GPa) = 0.01674945
#
# Stress axis : x y z
#
# Youngs Moduli (GPa) = 106.68119 60.95954 134.58901
#
# Poissons Ratio (x) = 0.13901 0.26780
# Poissons Ratio (y) = 0.24327 0.53287
# Poissons Ratio (z) = 0.21227 0.24135
#
# Static dielectric constant tensor:
#      x y z
#    x 2.086770 0.000000 0.079950 
#    y 0.000000 1.945710 0.000000 
#    z 0.079950 0.000000 1.958830 
# 
# From -- ./inp_files/185359.got.cif
#   From: 2010.05.17/outbox.cif.g08.bks.cpg/sg15_93_cif.got.tgz:185359.got - 2010.06.03 18:47:42.
