data_PCOD9277084
_publ_section_title
;
Structure prediction by ZEFSAII (Michael W. Deem and Ramdas Pophale) SiO2 
 PCOD9277084
Probable space group: C 2/C
;
_chemical_formula_sum "Si O2"
_cell_formula_units_Z 44
_cell_length_a 7.909305
_cell_length_b 29.077801
_cell_length_c 9.225758
_cell_angle_alpha 90.000000
_cell_angle_beta 69.086332
_cell_angle_gamma 90.000000
_cell_volume 1982.003007
_symmetry_space_group_name_H-M "C 2/C"
_symmetry_group_IT_number 15
_symmetry_cell_setting 'monoclinic'
loop_
_space_group_symop_operation_xyz
x,y,z
-x,y,1/2-z
-x,-y,-z
x,-y,1/2+z
1/2+x,1/2+y,z
1/2-x,1/2+y,1/2-z
1/2-x,1/2-y,-z
1/2+x,1/2-y,1/2+z
loop_
_atom_site_type_symbol
_atom_site_label
_atom_site_fract_x
_atom_site_fract_y
_atom_site_fract_z
Si Si1 0.000000 0.259317 0.750000
Si Si2 0.500000 0.187917 0.750000
Si Si3 0.022602 0.951617 0.073145
Si Si4 0.886557 0.226295 0.092333
Si Si5 0.055699 0.452060 0.563365
Si Si6 0.218583 0.388576 0.013988
Si Si7 0.000000 0.150525 0.250000
O O1 0.814737 0.287235 0.790656
O O2 0.062167 0.230730 0.590884
O O3 0.575705 0.224073 0.846417
O O4 0.355160 0.154750 0.871529
O O5 0.000000 0.958445 0.250000
O O6 0.868515 0.917184 0.059576
O O7 0.232856 0.938726 0.993396
O O8 0.000000 0.000000 0.000000
O O9 0.005938 0.185493 0.115260
O O10 0.000000 0.454388 0.750000
O O11 0.000000 0.500000 0.500000
O O12 0.955110 0.416109 0.488889
O O13 0.324171 0.378890 0.830952
#
# Coordination Sequence:
#
# PCOD9277084 Si02
#       7
#     4   4   8   8   8   8   4
#     4  10  20  40  68 102 122 170 234 272 324 420
#     4  11  24  46  68  96 135 186 221 278 344 411
#     4  12  26  46  74 100 137 188 231 282 352 413
#     4  10  22  44  70  92 137 182 218 272 353 398
#     4  12  26  46  74 100 137 188 231 282 352 413
#     4  12  26  45  70 106 142 176 238 289 336 408
#     4  11  24  46  68  96 135 186 221 278 344 411
#
# _framework density 22.199766
#
# number of rings (size 3 to 8) (size 9 to 14) (size 15 to 20)
#    0.000    0.727    1.818    5.455    2.545    2.909 
#   32.727    0.000    0.000    0.000    0.000    0.000 
#    0.000    0.000    0.000    0.000    0.000    0.000 
#
# Total GULP energy -122732.408254 kJ/mol
# GULP energy per Si atom -5578.745830 kJ/mol
# Density = 2.214924 g / cm^3
# Si number density = 22.199766 Si / 1000 Ang^3
#
#
#
# Elastic Constant Matrix: (Units=GPa)
#
#
# Indices 1 2 3 4 5 6 
#
# 1 161.5936 47.1911 57.5553 0.0000 -11.5886 0.0000
# 2 47.1911 75.1350 28.9919 0.0000 2.3978 0.0000
# 3 57.5553 28.9919 162.2101 0.0000 -7.5910 0.0000
# 4 0.0000 0.0000 0.0000 146.9735 0.0000 133.8809
# 5 -11.5886 2.3978 -7.5910 0.0000 48.8632 0.0000
# 6 0.0000 0.0000 0.0000 133.8809 0.0000 169.0817
#
#
#
# Elastic Compliance Matrix: (Units=1/GPa)
#
#
# Indices 1 2 3 4 5 6 
#
# 1 0.008385 -0.004525 -0.002078 0.000000 0.001888 0.000000
# 2 -0.004525 0.016797 -0.001496 0.000000 -0.002130 0.000000
# 3 -0.002078 -0.001496 0.007202 0.000000 0.000699 0.000000
# 4 0.000000 0.000000 0.000000 0.024411 0.000000 -0.019329
# 5 0.001888 -0.002130 0.000699 0.000000 0.021126 0.000000
# 6 0.000000 0.000000 0.000000 -0.019329 0.000000 0.021219
#
#
# Mechanical properties :
#
#
# Convention : Reuss Voigt Hill
#
# Bulk Modulus (GPa) = 61.78307 74.04614 67.91460
# Shear Modulus (GPa) = 41.41294 90.66373 66.03833
#
# Velocity S-wave (km/s) = 4.32379 6.39755 5.46003
# Velocity P-wave (km/s) = 7.26759 9.38074 8.39095
#
# Compressibility (1/GPa) = 0.01618566
#
# Stress axis : x y z
#
# Youngs Moduli (GPa) = 119.25419 59.53509 138.84319
#
# Poissons Ratio (x) = 0.26940 0.28854
# Poissons Ratio (y) = 0.53964 0.20773
# Poissons Ratio (z) = 0.24783 0.08907
#
# Static dielectric constant tensor:
#      x y z
#    x 1.950690 0.000000 0.145820 
#    y 0.000000 1.678710 0.000000 
#    z 0.145820 0.000000 2.084440 
# 
# From -- ./inp_files/26037.got.cif
#   From: 2010.05.17/outbox.cif.g08.bks.cpg/sg15_14_cif.got.tgz:26037.got - 2010.06.03 18:47:42.
