data_PCOD9277928
_publ_section_title
;
Structure prediction by ZEFSAII (Michael W. Deem and Ramdas Pophale) SiO2 
 PCOD9277928
Probable space group: C 2/C
;
_chemical_formula_sum "Si O2"
_cell_formula_units_Z 60
_cell_length_a 22.859048
_cell_length_b 9.179294
_cell_length_c 22.140079
_cell_angle_alpha 90.000000
_cell_angle_beta 146.302072
_cell_angle_gamma 90.000000
_cell_volume 2577.473827
_symmetry_space_group_name_H-M "C 2/C"
_symmetry_group_IT_number 15
_symmetry_cell_setting 'monoclinic'
loop_
_space_group_symop_operation_xyz
x,y,z
-x,y,1/2-z
-x,-y,-z
x,-y,1/2+z
1/2+x,1/2+y,z
1/2-x,1/2+y,1/2-z
1/2-x,1/2-y,-z
1/2+x,1/2-y,1/2+z
loop_
_atom_site_type_symbol
_atom_site_label
_atom_site_fract_x
_atom_site_fract_y
_atom_site_fract_z
Si Si1 0.441395 0.495680 0.326581
Si Si2 0.419259 0.751984 0.029567
Si Si3 0.296219 0.386340 0.004758
Si Si4 0.000000 0.004124 0.250000
Si Si5 0.239043 0.355969 0.705775
Si Si6 0.935455 0.287971 0.551489
Si Si7 0.400891 0.045162 0.620678
Si Si8 0.890436 0.616200 0.879150
O O1 0.538500 0.587340 0.438384
O O2 0.439055 0.562363 0.256419
O O3 0.332328 0.537998 0.263232
O O4 0.467496 0.324254 0.354328
O O5 0.519847 0.842019 0.091261
O O6 0.392177 0.809076 0.073059
O O7 0.321987 0.785738 0.903027
O O8 0.404185 0.425354 0.132549
O O9 0.333703 0.318936 0.973561
O O10 0.250000 0.250000 0.000000
O O11 0.206193 0.507957 0.934392
O O12 0.155988 0.456215 0.668920
O O13 0.295820 0.229583 0.790176
O O14 0.924150 0.413521 0.592651
O O15 0.932121 0.358303 0.482801
O O16 0.500000 0.055562 0.750000
#
# Coordination Sequence:
#
# PCOD9277928 Si02
#       8
#     8   8   8   4   8   8   8   8
#     4  10  25  41  69  95 135 178 220 279 340 415
#     4  11  25  47  62 101 140 178 237 276 350 412
#     4   9  21  37  63  96 130 169 225 275 341 396
#     4  10  20  42  62  92 130 178 218 272 336 414
#     4  11  25  44  68  96 133 178 229 282 344 409
#     4  10  23  42  67 101 131 176 232 287 346 408
#     4  11  24  42  68 100 141 182 228 292 343 420
#     4  11  26  43  71  98 136 182 227 292 343 412
#
# _framework density 23.278607000000001
#
# number of rings (size 3 to 8) (size 9 to 14) (size 15 to 20)
#    0.000    1.600    1.333    1.200   14.933    2.133 
#    7.200    3.333    0.000    0.000    0.000    0.000 
#    0.000    0.000    0.000    0.000    0.000    0.000 
#
# Total GULP energy -167550.412198 kJ/mol
# GULP energy per Si atom -5585.013740 kJ/mol
# Density = 2.322562 g / cm^3
# Si number density = 23.278607 Si / 1000 Ang^3
#
#
#
# Elastic Constant Matrix: (Units=GPa)
#
#
# Indices 1 2 3 4 5 6 
#
# 1 38.9246 12.4489 -5.3595 0.0000 14.0679 0.0000
# 2 12.4489 62.3324 16.2373 0.0000 12.3456 0.0000
# 3 -5.3595 16.2373 77.0806 0.0000 10.1272 0.0000
# 4 0.0000 0.0000 0.0000 30.8144 0.0000 8.6502
# 5 14.0679 12.3456 10.1272 0.0000 27.3602 0.0000
# 6 0.0000 0.0000 0.0000 8.6502 0.0000 26.7017
#
#
#
# Elastic Compliance Matrix: (Units=1/GPa)
#
#
# Indices 1 2 3 4 5 6 
#
# 1 0.034405 -0.004877 0.005733 0.000000 -0.017612 0.000000
# 2 -0.004877 0.018904 -0.003710 0.000000 -0.004649 0.000000
# 3 0.005733 -0.003710 0.015053 0.000000 -0.006846 0.000000
# 4 0.000000 0.000000 0.000000 0.035699 0.000000 -0.011565
# 5 -0.017612 -0.004649 -0.006846 0.000000 0.050237 0.000000
# 6 0.000000 0.000000 0.000000 -0.011565 0.000000 0.041197
#
#
# Mechanical properties :
#
#
# Convention : Reuss Voigt Hill
#
# Bulk Modulus (GPa) = 15.96037 24.99899 20.47968
# Shear Modulus (GPa) = 22.51359 27.30930 24.91145
#
# Velocity S-wave (km/s) = 3.11326 3.42884 3.27485
# Velocity P-wave (km/s) = 4.44908 5.14182 4.80794
#
# Compressibility (1/GPa) = 0.06265519
#
# Stress axis : x y z
#
# Youngs Moduli (GPa) = 29.06553 52.89791 66.43151
#
# Poissons Ratio (x) = 0.25796 -0.38088
# Poissons Ratio (y) = 0.14174 0.24649
# Poissons Ratio (z) = -0.16664 0.19628
#
# Static dielectric constant tensor:
#      x y z
#    x 2.012060 0.000000 0.039920 
#    y 0.000000 1.903350 0.000000 
#    z 0.039920 0.000000 1.862050 
# 
# From -- ./inp_files/283422.got.cif
#   From: 2010.05.17/outbox.cif.g08.bks.cpg/sg15_142_cif.got.tgz:283422.got - 2010.06.03 18:47:42.
