data_PCOD9277932
_publ_section_title
;
Structure prediction by ZEFSAII (Michael W. Deem and Ramdas Pophale) SiO2 
 PCOD9277932
Probable space group: C 2/C
;
_chemical_formula_sum "Si O2"
_cell_formula_units_Z 52
_cell_length_a 16.212638
_cell_length_b 11.478997
_cell_length_c 15.453676
_cell_angle_alpha 90.000000
_cell_angle_beta 116.829862
_cell_angle_gamma 90.000000
_cell_volume 2566.403870
_symmetry_space_group_name_H-M "C 2/C"
_symmetry_group_IT_number 15
_symmetry_cell_setting 'monoclinic'
loop_
_space_group_symop_operation_xyz
x,y,z
-x,y,1/2-z
-x,-y,-z
x,-y,1/2+z
1/2+x,1/2+y,z
1/2-x,1/2+y,1/2-z
1/2-x,1/2-y,-z
1/2+x,1/2-y,1/2+z
loop_
_atom_site_type_symbol
_atom_site_label
_atom_site_fract_x
_atom_site_fract_y
_atom_site_fract_z
Si Si1 0.727735 0.425328 0.647145
Si Si2 0.430614 0.755398 0.378985
Si Si3 0.810873 0.141073 0.552885
Si Si4 0.067767 0.493353 0.703981
Si Si5 0.003851 0.253125 0.605459
Si Si6 0.000000 0.111370 0.250000
Si Si7 0.354688 0.576679 0.745259
O O1 0.667125 0.312806 0.650147
O O2 0.702892 0.444192 0.534518
O O3 0.837466 0.434722 0.714741
O O4 0.688513 0.524508 0.689845
O O5 0.488174 0.740614 0.495191
O O6 0.488305 0.691853 0.329337
O O7 0.415925 0.889705 0.344210
O O8 0.750000 0.250000 0.500000
O O9 0.783460 0.103912 0.635434
O O10 0.914380 0.190959 0.604443
O O11 0.015605 0.389347 0.629484
O O12 0.000000 0.527343 0.750000
O O13 0.086748 0.184776 0.691299
O O14 0.915763 0.021743 0.224990
#
# Coordination Sequence:
#
# PCOD9277932 Si02
#       7
#     8   8   8   8   8   4   8
#     4  10  26  40  67  97 134 176 224 271 339 399
#     4  10  24  43  65  97 138 176 223 274 344 396
#     4  11  22  40  65  98 131 172 229 275 330 395
#     4  12  24  45  69  96 140 176 223 276 343 403
#     4  11  23  39  69  98 127 178 226 278 330 402
#     4  10  20  42  62  94 130 176 212 274 334 402
#     4  11  22  40  69  97 136 170 228 279 333 400
#
# _framework density 20.261814999999999
#
# number of rings (size 3 to 8) (size 9 to 14) (size 15 to 20)
#    0.000    1.231    2.308    3.231    8.615    1.846 
#    2.769    0.000    0.000    4.615    0.000    0.000 
#    0.000    0.000    0.000    0.000    0.000    0.000 
#
# Total GULP energy -144973.169715 kJ/mol
# GULP energy per Si atom -5575.891143 kJ/mol
# Density = 2.021570 g / cm^3
# Si number density = 20.261815 Si / 1000 Ang^3
#
#
#
# Elastic Constant Matrix: (Units=GPa)
#
#
# Indices 1 2 3 4 5 6 
#
# 1 56.8618 7.1424 31.6281 0.0000 -17.3224 0.0000
# 2 7.1424 90.1035 58.9511 0.0000 -19.3493 0.0000
# 3 31.6281 58.9511 146.2869 0.0000 -25.7652 0.0000
# 4 0.0000 0.0000 0.0000 36.7957 0.0000 -12.1627
# 5 -17.3224 -19.3493 -25.7652 0.0000 26.3865 0.0000
# 6 0.0000 0.0000 0.0000 -12.1627 0.0000 16.7750
#
#
#
# Elastic Compliance Matrix: (Units=1/GPa)
#
#
# Indices 1 2 3 4 5 6 
#
# 1 0.023828 0.003964 -0.004205 0.000000 0.014443 0.000000
# 2 0.003964 0.016617 -0.005977 0.000000 0.008952 0.000000
# 3 -0.004205 -0.005977 0.010743 0.000000 0.003347 0.000000
# 4 0.000000 0.000000 0.000000 0.035743 0.000000 0.025916
# 5 0.014443 0.008952 0.003347 0.000000 0.057212 0.000000
# 6 0.000000 0.000000 0.000000 0.025916 0.000000 0.078403
#
#
# Mechanical properties :
#
#
# Convention : Reuss Voigt Hill
#
# Bulk Modulus (GPa) = 25.80530 54.29951 40.05241
# Shear Modulus (GPa) = 20.16955 29.02680 24.59817
#
# Velocity S-wave (km/s) = 3.15849 3.78906 3.48805
# Velocity P-wave (km/s) = 5.10539 6.78231 6.00270
#
# Compressibility (1/GPa) = 0.03875173
#
# Stress axis : x y z
#
# Youngs Moduli (GPa) = 41.96798 60.18024 93.08346
#
# Poissons Ratio (x) = -0.23857 0.39145
# Poissons Ratio (y) = -0.16637 0.55634
# Poissons Ratio (z) = 0.17649 0.35968
#
# Static dielectric constant tensor:
#      x y z
#    x 1.746810 0.000000 -0.049540 
#    y 0.000000 1.733340 0.000000 
#    z -0.049540 0.000000 1.705380 
# 
# From -- ./inp_files/161061.got.cif
#   From: 2010.05.17/outbox.cif.g08.bks.cpg/sg15_81_cif.got.tgz:161061.got - 2010.06.03 18:47:42.
