data_PCOD9277813
_publ_section_title
;
Structure prediction by ZEFSAII (Michael W. Deem and Ramdas Pophale) SiO2 
 PCOD9277813
Probable space group: C 2/C
;
_chemical_formula_sum "Si O2"
_cell_formula_units_Z 56
_cell_length_a 8.518942
_cell_length_b 15.755394
_cell_length_c 23.896267
_cell_angle_alpha 90.000000
_cell_angle_beta 54.549553
_cell_angle_gamma 90.000000
_cell_volume 2612.755054
_symmetry_space_group_name_H-M "C 2/C"
_symmetry_group_IT_number 15
_symmetry_cell_setting 'monoclinic'
loop_
_space_group_symop_operation_xyz
x,y,z
-x,y,1/2-z
-x,-y,-z
x,-y,1/2+z
1/2+x,1/2+y,z
1/2-x,1/2+y,1/2-z
1/2-x,1/2-y,-z
1/2+x,1/2-y,1/2+z
loop_
_atom_site_type_symbol
_atom_site_label
_atom_site_fract_x
_atom_site_fract_y
_atom_site_fract_z
Si Si1 0.450536 0.404100 0.522559
Si Si2 0.797587 0.906704 0.258275
Si Si3 0.602112 0.877292 0.516478
Si Si4 0.278693 0.261598 0.059748
Si Si5 0.910267 0.943285 0.661291
Si Si6 0.597839 0.730661 0.289235
Si Si7 0.178907 0.523649 0.894399
O O1 0.500000 0.500000 0.500000
O O2 0.268417 0.364732 0.527537
O O3 0.628848 0.353864 0.458769
O O4 0.417376 0.409255 0.596217
O O5 0.741708 0.810067 0.257848
O O6 0.661696 0.944981 0.334599
O O7 0.000000 0.908186 0.250000
O O8 0.805756 0.969645 0.203054
O O9 0.439691 0.805164 0.547597
O O10 0.684858 0.898032 0.437239
O O11 0.501356 0.964931 0.554992
O O12 0.076764 0.250631 0.132035
O O13 0.250000 0.250000 0.000000
O O14 0.825023 0.862950 0.712318
O O15 0.131029 0.965824 0.633769
O O16 0.500000 0.723879 0.250000
#
# Coordination Sequence:
#
# PCOD9277813 Si02
#       7
#     8   8   8   8   8   8   8
#     4  12  26  43  69 106 144 174 232 292 345 419
#     4  10  25  44  71  97 135 179 232 286 349 415
#     4  11  23  39  69 104 135 180 224 283 343 404
#     4  12  25  46  71 100 138 184 232 281 352 418
#     4  11  23  48  67 100 139 185 227 287 353 418
#     4  12  26  45  72  98 137 184 236 285 350 422
#     4  10  20  41  70  97 135 175 226 273 346 410
#
# _framework density 21.433316000000001
#
# number of rings (size 3 to 8) (size 9 to 14) (size 15 to 20)
#    0.000    0.857    4.286    2.571    6.000    0.000 
#    2.571    0.714    0.000    0.000    0.000    0.000 
#    0.000    0.000    0.000    0.000    0.000    0.000 
#
# Total GULP energy -156293.810200 kJ/mol
# GULP energy per Si atom -5581.921793 kJ/mol
# Density = 2.138453 g / cm^3
# Si number density = 21.433316 Si / 1000 Ang^3
#
#
#
# Elastic Constant Matrix: (Units=GPa)
#
#
# Indices 1 2 3 4 5 6 
#
# 1 34.7646 2.6612 -12.0214 -0.0001 4.4865 0.0002
# 2 2.6612 114.1181 0.3389 0.0000 -12.6451 0.0001
# 3 -12.0214 0.3389 57.6093 0.0000 9.2882 0.0001
# 4 -0.0001 0.0000 0.0000 38.2741 0.0001 -9.0913
# 5 4.4865 -12.6451 9.2882 0.0001 27.2722 -0.0002
# 6 0.0002 0.0001 0.0001 -9.0913 -0.0002 27.4112
#
#
#
# Elastic Compliance Matrix: (Units=1/GPa)
#
#
# Indices 1 2 3 4 5 6 
#
# 1 0.032968 -0.001803 0.008358 0.000000 -0.009106 0.000000
# 2 -0.001803 0.009370 -0.001248 0.000000 0.005066 0.000000
# 3 0.008358 -0.001248 0.020553 0.000000 -0.008954 0.000000
# 4 0.000000 0.000000 0.000000 0.028362 0.000000 0.009406
# 5 -0.009106 0.005066 -0.008954 0.000000 0.043564 0.000000
# 6 0.000000 0.000000 0.000000 0.009406 0.000000 0.039601
#
#
# Mechanical properties :
#
#
# Convention : Reuss Voigt Hill
#
# Bulk Modulus (GPa) = 13.60425 20.93885 17.27155
# Shear Modulus (GPa) = 26.55264 32.95905 29.75584
#
# Velocity S-wave (km/s) = 3.52355 3.92567 3.73003
# Velocity P-wave (km/s) = 4.78695 5.50802 5.16010
#
# Compressibility (1/GPa) = 0.07350644
#
# Stress axis : x y z
#
# Youngs Moduli (GPa) = 30.33227 106.72408 48.65397
#
# Poissons Ratio (x) = 0.19238 -0.40666
# Poissons Ratio (y) = 0.05468 0.06072
# Poissons Ratio (z) = -0.25352 0.13320
#
# Static dielectric constant tensor:
#      x y z
#    x 2.629930 -0.000010 0.165380 
#    y -0.000010 1.742630 0.000000 
#    z 0.165380 0.000000 1.830030 
# 
# From -- ./inp_files/264605.got.cif
#   From: 2010.05.17/outbox.cif.g08.bks.cpg/sg15_133_cif.got.tgz:264605.got - 2010.06.03 18:47:42.
