data_PCOD9277488
_publ_section_title
;
Structure prediction by ZEFSAII (Michael W. Deem and Ramdas Pophale) SiO2 
 PCOD9277488
Probable space group: C 2/C
;
_chemical_formula_sum "Si O2"
_cell_formula_units_Z 40
_cell_length_a 27.922396
_cell_length_b 14.917967
_cell_length_c 10.303344
_cell_angle_alpha 90.000000
_cell_angle_beta 151.715376
_cell_angle_gamma 90.000000
_cell_volume 2033.682519
_symmetry_space_group_name_H-M "C 2/C"
_symmetry_group_IT_number 15
_symmetry_cell_setting 'monoclinic'
loop_
_space_group_symop_operation_xyz
x,y,z
-x,y,1/2-z
-x,-y,-z
x,-y,1/2+z
1/2+x,1/2+y,z
1/2-x,1/2+y,1/2-z
1/2-x,1/2-y,-z
1/2+x,1/2-y,1/2+z
loop_
_atom_site_type_symbol
_atom_site_label
_atom_site_fract_x
_atom_site_fract_y
_atom_site_fract_z
Si Si1 0.119102 0.932007 0.199135
Si Si2 0.506422 0.760506 0.413040
Si Si3 0.293958 0.828131 0.511298
Si Si4 0.228374 0.265017 0.597885
Si Si5 0.398175 0.589392 0.545182
O O1 0.234422 0.910805 0.430707
O O2 0.105631 0.951071 0.319017
O O3 0.094255 0.013324 0.045778
O O4 0.050863 0.841842 0.016327
O O5 0.500000 0.792420 0.250000
O O6 0.586589 0.818791 0.685457
O O7 0.392371 0.768614 0.186102
O O8 0.250000 0.750000 0.500000
O O9 0.260606 0.807971 0.284378
O O10 0.250000 0.250000 0.500000
O O11 0.297419 0.350772 0.798482
O O12 0.500000 0.645728 0.750000
#
# Coordination Sequence:
#
# PCOD9277488 Si02
#       5
#     8   8   8   8   8
#     4  11  23  41  64  95 130 167 213 269 326 385
#     4  11  19  40  69  89 121 176 214 255 321 387
#     4  10  20  41  64  88 123 169 219 253 308 402
#     4  12  25  38  65  95 129 164 221 267 322 376
#     4  12  25  40  61  97 134 164 211 276 325 378
#
# _framework density 19.668754
#
# number of rings (size 3 to 8) (size 9 to 14) (size 15 to 20)
#    0.000    0.800    8.000    2.400    2.800    0.000 
#    0.000    1.000    0.000    0.000    0.000    0.000 
#    0.000    0.000    0.000    0.000    0.000    0.000 
#
# Total GULP energy -111483.752569 kJ/mol
# GULP energy per Si atom -5574.187628 kJ/mol
# Density = 1.962399 g / cm^3
# Si number density = 19.668754 Si / 1000 Ang^3
#
#
#
# Elastic Constant Matrix: (Units=GPa)
#
#
# Indices 1 2 3 4 5 6 
#
# 1 186.1305 17.4837 78.9308 0.0000 -5.2053 0.0000
# 2 17.4837 33.9726 18.6167 0.0000 7.9362 0.0000
# 3 78.9308 18.6167 152.3397 0.0000 26.4824 0.0000
# 4 0.0000 0.0000 0.0000 22.8631 0.0000 -0.0809
# 5 -5.2053 7.9362 26.4824 0.0000 56.7293 0.0000
# 6 0.0000 0.0000 0.0000 -0.0809 0.0000 16.3561
#
#
#
# Elastic Compliance Matrix: (Units=1/GPa)
#
#
# Indices 1 2 3 4 5 6 
#
# 1 0.007383 -0.002253 -0.004051 0.000000 0.002884 0.000000
# 2 -0.002253 0.032663 -0.002170 0.000000 -0.003763 0.000000
# 3 -0.004051 -0.002170 0.009730 0.000000 -0.004610 0.000000
# 4 0.000000 0.000000 0.000000 0.043739 0.000000 0.000216
# 5 0.002884 -0.003763 -0.004610 0.000000 0.020571 0.000000
# 6 0.000000 0.000000 0.000000 0.000216 0.000000 0.061140
#
#
# Mechanical properties :
#
#
# Convention : Reuss Voigt Hill
#
# Bulk Modulus (GPa) = 30.46242 66.94503 48.70372
# Shear Modulus (GPa) = 24.61625 36.35047 30.48336
#
# Velocity S-wave (km/s) = 3.54155 4.30366 3.94107
# Velocity P-wave (km/s) = 5.67845 7.66847 6.74723
#
# Compressibility (1/GPa) = 0.03282733
#
# Stress axis : x y z
#
# Youngs Moduli (GPa) = 135.44970 30.61536 102.77580
#
# Poissons Ratio (x) = 0.06898 0.41636
# Poissons Ratio (y) = 0.30519 0.22303
# Poissons Ratio (z) = 0.54873 0.06644
#
# Static dielectric constant tensor:
#      x y z
#    x 1.638350 0.000000 0.033650 
#    y 0.000000 0.968760 0.000000 
#    z 0.033650 0.000000 0.831070 
# 
# From -- ./inp_files/29111.got.cif
#   From: 2010.05.17/outbox.cif.g08.bks.cpg/sg15_15_cif.got.tgz:29111.got - 2010.06.03 18:47:42.
