data_PCOD9277101
_publ_section_title
;
Structure prediction by ZEFSAII (Michael W. Deem and Ramdas Pophale) SiO2 
 PCOD9277101
Probable space group: C 2/C
;
_chemical_formula_sum "Si O2"
_cell_formula_units_Z 44
_cell_length_a 9.025767
_cell_length_b 23.224163
_cell_length_c 20.043024
_cell_angle_alpha 90.000000
_cell_angle_beta 32.266837
_cell_angle_gamma 90.000000
_cell_volume 2242.938026
_symmetry_space_group_name_H-M "C 2/C"
_symmetry_group_IT_number 15
_symmetry_cell_setting 'monoclinic'
loop_
_space_group_symop_operation_xyz
x,y,z
-x,y,1/2-z
-x,-y,-z
x,-y,1/2+z
1/2+x,1/2+y,z
1/2-x,1/2+y,1/2-z
1/2-x,1/2-y,-z
1/2+x,1/2-y,1/2+z
loop_
_atom_site_type_symbol
_atom_site_label
_atom_site_fract_x
_atom_site_fract_y
_atom_site_fract_z
Si Si1 0.048189 0.314819 0.922968
Si Si2 0.129363 0.685658 0.542248
Si Si3 0.510758 0.894237 0.815962
Si Si4 0.361437 0.602905 0.567018
Si Si5 0.381244 0.305501 0.171281
Si Si6 0.000000 0.501089 0.750000
O O1 0.117297 0.359797 0.838170
O O2 0.160028 0.253379 0.854664
O O3 0.711981 0.309274 0.056950
O O4 0.148840 0.331672 0.957678
O O5 0.250000 0.750000 0.500000
O O6 0.288343 0.641129 0.530088
O O7 0.814214 0.690922 0.689955
O O8 0.500000 0.858584 0.750000
O O9 0.647201 0.955208 0.743957
O O10 0.187862 0.907937 0.949792
O O11 0.294802 0.642056 0.656686
O O12 0.198885 0.543377 0.633882
#
# Coordination Sequence:
#
# PCOD9277101 Si02
#       6
#     8   8   8   8   8   4
#     4  10  22  38  59  86 121 153 203 243 300 362
#     4  12  23  34  58  91 123 155 189 250 306 359
#     4   9  23  39  62  84 115 163 204 244 291 351
#     4  11  20  40  61  89 118 159 203 247 298 358
#     4  10  21  38  57  83 120 162 191 243 304 361
#     4  10  20  40  68  84 118 160 216 244 286 362
#
# _framework density 19.617127
#
# number of rings (size 3 to 8) (size 9 to 14) (size 15 to 20)
#    0.545    1.091    3.636    1.091    2.545    0.000 
#    0.000    0.909    0.000    2.182    0.000    0.000 
#    0.000    0.000    0.000    0.000    0.000    0.000 
#
# Total GULP energy -122699.081726 kJ/mol
# GULP energy per Si atom -5577.230988 kJ/mol
# Density = 1.957248 g / cm^3
# Si number density = 19.617127 Si / 1000 Ang^3
#
#
#
# Elastic Constant Matrix: (Units=GPa)
#
#
# Indices 1 2 3 4 5 6 
#
# 1 72.0029 30.5141 23.0448 0.0000 33.4525 0.0001
# 2 30.5141 110.0308 31.8617 0.0001 23.7399 -0.0001
# 3 23.0448 31.8617 57.6973 -0.0095 26.2233 0.0017
# 4 0.0000 0.0001 -0.0095 36.6662 0.0009 13.8577
# 5 33.4525 23.7399 26.2233 0.0009 44.6546 0.0000
# 6 0.0001 -0.0001 0.0017 13.8577 0.0000 11.7507
#
#
#
# Elastic Compliance Matrix: (Units=1/GPa)
#
#
# Indices 1 2 3 4 5 6 
#
# 1 0.022099 -0.002778 -0.000600 0.000000 -0.014727 -0.000001
# 2 -0.002778 0.011483 -0.004642 -0.000003 -0.001298 0.000004
# 3 -0.000600 -0.004642 0.025657 0.000015 -0.012150 -0.000022
# 4 0.000000 -0.000003 0.000015 0.049204 -0.000009 -0.058027
# 5 -0.014727 -0.001298 -0.012150 -0.000009 0.041252 0.000012
# 6 -0.000001 0.000004 -0.000022 -0.058027 0.000012 0.153533
#
#
# Mechanical properties :
#
#
# Convention : Reuss Voigt Hill
#
# Bulk Modulus (GPa) = 23.14754 45.61913 34.38334
# Shear Modulus (GPa) = 14.98506 28.90166 21.94336
#
# Velocity S-wave (km/s) = 2.76683 3.84251 3.34815
# Velocity P-wave (km/s) = 4.69387 6.55681 5.70193
#
# Compressibility (1/GPa) = 0.04320113
#
# Stress axis : x y z
#
# Youngs Moduli (GPa) = 45.25006 87.08658 38.97611
#
# Poissons Ratio (x) = 0.24190 0.02337
# Poissons Ratio (y) = 0.12569 0.18092
# Poissons Ratio (z) = 0.02713 0.40423
#
# Static dielectric constant tensor:
#      x y z
#    x 1.694140 0.000000 -0.017520 
#    y 0.000000 1.671320 0.000000 
#    z -0.017520 0.000000 1.766710 
# 
# From -- ./inp_files/120199.got.cif
#   From: 2010.05.17/outbox.cif.g08.bks.cpg/sg15_61_cif.got.tgz:120199.got - 2010.06.03 18:47:42.
