data_PCOD9277524
_publ_section_title
;
Structure prediction by ZEFSAII (Michael W. Deem and Ramdas Pophale) SiO2 
 PCOD9277524
Probable space group: C 2/C
;
_chemical_formula_sum "Si O2"
_cell_formula_units_Z 56
_cell_length_a 7.122437
_cell_length_b 26.721451
_cell_length_c 13.108438
_cell_angle_alpha 90.000000
_cell_angle_beta 110.191381
_cell_angle_gamma 90.000000
_cell_volume 2341.502779
_symmetry_space_group_name_H-M "C 2/C"
_symmetry_group_IT_number 15
_symmetry_cell_setting 'monoclinic'
loop_
_space_group_symop_operation_xyz
x,y,z
-x,y,1/2-z
-x,-y,-z
x,-y,1/2+z
1/2+x,1/2+y,z
1/2-x,1/2+y,1/2-z
1/2-x,1/2-y,-z
1/2+x,1/2-y,1/2+z
loop_
_atom_site_type_symbol
_atom_site_label
_atom_site_fract_x
_atom_site_fract_y
_atom_site_fract_z
Si Si1 0.390599 0.943941 0.414376
Si Si2 0.847364 0.095995 0.432975
Si Si3 0.040663 0.824980 0.100028
Si Si4 0.321046 0.842420 0.321271
Si Si5 0.767901 0.142690 0.212236
Si Si6 0.300089 0.458887 0.590895
Si Si7 0.572208 0.221897 0.025881
O O1 0.298859 0.922561 0.504896
O O2 0.393830 0.899000 0.335696
O O3 0.619934 0.960138 0.474816
O O4 0.244556 0.989663 0.358442
O O5 0.732440 0.127077 0.323379
O O6 0.017275 0.135119 0.505443
O O7 0.978833 0.050311 0.412323
O O8 0.252951 0.823549 0.197685
O O9 0.968760 0.769915 0.056401
O O10 0.879973 0.844534 0.149563
O O11 0.456781 0.807793 0.417221
O O12 0.761159 0.089981 0.151764
O O13 0.640396 0.183784 0.127604
O O14 0.000000 0.160266 0.250000
O O15 0.750000 0.250000 0.000000
#
# Coordination Sequence:
#
# PCOD9277524 Si02
#       7
#     8   8   8   8   8   8   8
#     4  10  21  41  68  90 133 169 213 270 322 385
#     4  10  22  43  64  97 131 167 220 265 325 392
#     4  10  24  42  65  91 126 170 216 261 324 384
#     4  10  23  46  61  93 127 167 216 265 318 384
#     4  10  22  40  63  96 131 166 214 270 318 391
#     4  10  20  41  64  96 129 170 215 262 324 383
#     4  12  24  40  68  92 128 169 213 267 327 382
#
# _framework density 23.916264999999999
#
# number of rings (size 3 to 8) (size 9 to 14) (size 15 to 20)
#    0.000    1.714    1.429    2.571    4.000    0.571 
#   20.571    0.000    0.000    0.000    0.000    0.000 
#    0.000    0.000    0.000    0.000    0.000    0.000 
#
# Total GULP energy -156428.043704 kJ/mol
# GULP energy per Si atom -5586.715847 kJ/mol
# Density = 2.386183 g / cm^3
# Si number density = 23.916265 Si / 1000 Ang^3
#
#
#
# Elastic Constant Matrix: (Units=GPa)
#
#
# Indices 1 2 3 4 5 6 
#
# 1 50.4199 4.7835 24.8232 0.0000 4.6070 0.0000
# 2 4.7835 95.3854 44.1878 0.0000 8.9312 0.0000
# 3 24.8232 44.1878 107.4609 0.0000 17.4833 0.0000
# 4 0.0000 0.0000 0.0000 5.4126 0.0000 4.1231
# 5 4.6070 8.9312 17.4833 0.0000 39.2832 0.0000
# 6 0.0000 0.0000 0.0000 4.1231 0.0000 24.1635
#
#
#
# Elastic Compliance Matrix: (Units=1/GPa)
#
#
# Indices 1 2 3 4 5 6 
#
# 1 0.022578 0.001596 -0.005802 0.000000 -0.000428 0.000000
# 2 0.001596 0.013078 -0.005640 0.000000 -0.000650 0.000000
# 3 -0.005802 -0.005640 0.013633 0.000000 -0.004105 0.000000
# 4 0.000000 0.000000 0.000000 0.212358 0.000000 -0.036235
# 5 -0.000428 -0.000650 -0.004105 0.000000 0.027481 0.000000
# 6 0.000000 0.000000 0.000000 -0.036235 0.000000 0.047568
#
#
# Mechanical properties :
#
#
# Convention : Reuss Voigt Hill
#
# Bulk Modulus (GPa) = 33.78929 44.53948 39.16439
# Shear Modulus (GPa) = 13.65177 25.73661 19.69419
#
# Velocity S-wave (km/s) = 2.39177 3.28398 2.87272
# Velocity P-wave (km/s) = 4.66757 5.74829 5.23589
#
# Compressibility (1/GPa) = 0.02959518
#
# Stress axis : x y z
#
# Youngs Moduli (GPa) = 44.29173 76.46700 73.35145
#
# Poissons Ratio (x) = -0.12201 0.42557
# Poissons Ratio (y) = -0.07067 0.41372
# Poissons Ratio (z) = 0.25697 0.43129
#
# Static dielectric constant tensor:
#      x y z
#    x 1.858010 0.000000 0.059400 
#    y 0.000000 1.999080 0.000000 
#    z 0.059400 0.000000 1.955030 
# 
# From -- ./inp_files/137917.got.cif
#   From: 2010.05.17/outbox.cif.g08.bks.cpg/sg15_69_cif.got.tgz:137917.got - 2010.06.03 18:47:42.
