data_PCOD9277744
_publ_section_title
;
Structure prediction by ZEFSAII (Michael W. Deem and Ramdas Pophale) SiO2 
 PCOD9277744
Probable space group: C 2/C
;
_chemical_formula_sum "Si O2"
_cell_formula_units_Z 56
_cell_length_a 21.943747
_cell_length_b 12.170385
_cell_length_c 27.587755
_cell_angle_alpha 90.000000
_cell_angle_beta 158.337961
_cell_angle_gamma 90.000000
_cell_volume 2719.644155
_symmetry_space_group_name_H-M "C 2/C"
_symmetry_group_IT_number 15
_symmetry_cell_setting 'monoclinic'
loop_
_space_group_symop_operation_xyz
x,y,z
-x,y,1/2-z
-x,-y,-z
x,-y,1/2+z
1/2+x,1/2+y,z
1/2-x,1/2+y,1/2-z
1/2-x,1/2-y,-z
1/2+x,1/2-y,1/2+z
loop_
_atom_site_type_symbol
_atom_site_label
_atom_site_fract_x
_atom_site_fract_y
_atom_site_fract_z
Si Si1 0.797856 0.966030 0.294589
Si Si2 0.500714 0.331425 0.977216
Si Si3 0.066984 0.481538 0.941221
Si Si4 0.785127 0.583334 0.628215
Si Si5 0.156903 0.636257 0.932638
Si Si6 0.419104 0.145238 0.244410
Si Si7 0.275879 0.849150 0.355589
O O1 0.910868 0.887539 0.411203
O O2 0.809766 0.923820 0.248560
O O3 0.608819 0.967683 0.172742
O O4 0.862374 0.088554 0.352499
O O5 0.417788 0.219145 0.932074
O O6 0.644677 0.337347 0.044056
O O7 0.175985 0.576465 0.997697
O O8 0.040812 0.395382 0.877351
O O9 0.145149 0.423691 0.044818
O O10 0.774125 0.571862 0.562625
O O11 0.787167 0.456496 0.647414
O O12 0.960304 0.634066 0.775162
O O13 0.250000 0.750000 0.000000
O O14 0.500000 0.150274 0.250000
O O15 0.338080 0.257966 0.202390
#
# Coordination Sequence:
#
# PCOD9277744 Si02
#       7
#     8   8   8   8   8   8   8
#     4  11  23  44  62  99 136 171 226 282 346 414
#     4  11  22  41  72  91 134 182 224 279 346 421
#     4  11  22  45  66  96 141 172 227 291 341 412
#     4  10  20  41  68  94 127 174 230 273 333 416
#     4  10  21  41  67  94 129 177 223 277 340 403
#     4  11  20  43  68  92 132 182 224 273 343 418
#     4  12  26  40  68 103 136 177 225 291 350 407
#
# _framework density 20.59093
#
# number of rings (size 3 to 8) (size 9 to 14) (size 15 to 20)
#    0.000    1.143    7.143    2.143    2.000    0.571 
#    2.571    1.429    0.000    0.000    0.000    0.000 
#    0.000    0.000    0.000    0.000    0.000    0.000 
#
# Total GULP energy -156290.364815 kJ/mol
# GULP energy per Si atom -5581.798743 kJ/mol
# Density = 2.054406 g / cm^3
# Si number density = 20.590930 Si / 1000 Ang^3
#
#
#
# Elastic Constant Matrix: (Units=GPa)
#
#
# Indices 1 2 3 4 5 6 
#
# 1 131.6947 61.6771 50.7754 -0.0035 -1.3144 -0.0016
# 2 61.6771 106.8414 48.0613 -0.0132 -15.6646 -0.0039
# 3 50.7754 48.0613 52.0902 -0.0187 -13.1749 -0.0070
# 4 -0.0035 -0.0132 -0.0187 8.8126 -0.0003 -5.9540
# 5 -1.3144 -15.6646 -13.1749 -0.0003 28.5587 0.0000
# 6 -0.0016 -0.0039 -0.0070 -5.9540 0.0000 38.2688
#
#
#
# Elastic Compliance Matrix: (Units=1/GPa)
#
#
# Indices 1 2 3 4 5 6 
#
# 1 0.013778 -0.003651 -0.011783 -0.000030 -0.006804 -0.000007
# 2 -0.003651 0.017094 -0.011190 0.000000 0.004046 0.000000
# 3 -0.011783 -0.011190 0.044511 0.000087 0.013854 0.000020
# 4 -0.000030 0.000000 0.000087 0.126803 0.000040 0.019728
# 5 -0.006804 0.004046 0.013854 0.000040 0.043313 0.000009
# 6 -0.000007 0.000000 0.000020 0.019728 0.000009 0.029200
#
#
# Mechanical properties :
#
#
# Convention : Reuss Voigt Hill
#
# Bulk Modulus (GPa) = 45.17437 67.96156 56.56796
# Shear Modulus (GPa) = 14.91092 23.80221 19.35656
#
# Velocity S-wave (km/s) = 2.69392 3.40362 3.06935
# Velocity P-wave (km/s) = 5.62698 6.96588 6.33192
#
# Compressibility (1/GPa) = 0.02213645
#
# Stress axis : x y z
#
# Youngs Moduli (GPa) = 72.57845 58.49954 22.46644
#
# Poissons Ratio (x) = 0.21359 0.26471
# Poissons Ratio (y) = 0.26500 0.25139
# Poissons Ratio (z) = 0.85516 0.65459
#
# Static dielectric constant tensor:
#      x y z
#    x 1.892410 0.000000 0.040100 
#    y 0.000000 1.742600 -0.000010 
#    z 0.040100 -0.000010 1.746110 
# 
# From -- ./inp_files/318801.got.cif
#   From: 2010.05.17/outbox.cif.g08.bks.cpg/sg15_160_cif.got.tgz:318801.got - 2010.06.03 18:47:42.
