data_PCOD9277361
_publ_section_title
;
Structure prediction by ZEFSAII (Michael W. Deem and Ramdas Pophale) SiO2 
 PCOD9277361
Probable space group: C 2/C
;
_chemical_formula_sum "Si O2"
_cell_formula_units_Z 52
_cell_length_a 21.295895
_cell_length_b 19.494973
_cell_length_c 8.666701
_cell_angle_alpha 90.000000
_cell_angle_beta 48.155676
_cell_angle_gamma 90.000000
_cell_volume 2680.435671
_symmetry_space_group_name_H-M "C 2/C"
_symmetry_group_IT_number 15
_symmetry_cell_setting 'monoclinic'
loop_
_space_group_symop_operation_xyz
x,y,z
-x,y,1/2-z
-x,-y,-z
x,-y,1/2+z
1/2+x,1/2+y,z
1/2-x,1/2+y,1/2-z
1/2-x,1/2-y,-z
1/2+x,1/2-y,1/2+z
loop_
_atom_site_type_symbol
_atom_site_label
_atom_site_fract_x
_atom_site_fract_y
_atom_site_fract_z
Si Si1 0.591533 0.406246 0.830641
Si Si2 0.000000 0.820683 0.750000
Si Si3 0.837549 0.008583 0.040624
Si Si4 0.096786 0.319262 0.616395
Si Si5 0.852791 0.233550 0.673392
Si Si6 0.756110 0.906650 0.413541
Si Si7 0.202746 0.223794 0.229951
O O1 0.514007 0.366924 0.879627
O O2 0.625970 0.454006 0.638412
O O3 0.587753 0.454156 0.986463
O O4 0.657823 0.347245 0.766726
O O5 0.081492 0.776564 0.573814
O O6 0.780096 0.966500 0.254015
O O7 0.783420 0.063485 0.033555
O O8 0.104203 0.267334 0.749247
O O9 0.160418 0.381431 0.549810
O O10 0.134741 0.278154 0.407169
O O11 0.000000 0.338522 0.750000
O O12 0.812730 0.159927 0.780291
O O13 0.774415 0.279308 0.744440
O O14 0.250000 0.250000 0.000000
#
# Coordination Sequence:
#
# PCOD9277361 Si02
#       7
#     8   4   8   8   8   8   8
#     4  11  21  37  55  85 114 155 194 242 290 344
#     4  12  22  36  56  90 124 148 198 250 294 356
#     4  10  21  38  61  79 113 160 206 231 282 362
#     4  11  23  38  62  92 121 153 194 254 307 351
#     4  11  22  38  60  88 122 155 196 244 302 360
#     4  10  20  41  60  86 112 158 198 240 291 359
#     4  11  20  39  65  86 117 159 197 243 302 362
#
# _framework density 19.399832
#
# number of rings (size 3 to 8) (size 9 to 14) (size 15 to 20)
#    0.000    1.231    3.077    5.538    0.000    0.615 
#    0.000    0.769    0.000    0.000    0.000    0.000 
#    0.000    0.000    0.000    0.000    0.000    0.000 
#
# Total GULP energy -145269.352337 kJ/mol
# GULP energy per Si atom -5587.282782 kJ/mol
# Density = 1.935568 g / cm^3
# Si number density = 19.399832 Si / 1000 Ang^3
#
#
#
# Elastic Constant Matrix: (Units=GPa)
#
#
# Indices 1 2 3 4 5 6 
#
# 1 93.4001 19.1271 32.3628 0.0000 -0.6319 0.0000
# 2 19.1271 52.2984 10.5244 0.0000 8.7571 0.0000
# 3 32.3628 10.5244 66.1938 0.0000 -0.0557 0.0000
# 4 0.0000 0.0000 0.0000 24.2797 0.0000 10.7402
# 5 -0.6319 8.7571 -0.0557 0.0000 38.5801 0.0000
# 6 0.0000 0.0000 0.0000 10.7402 0.0000 36.8287
#
#
#
# Elastic Compliance Matrix: (Units=1/GPa)
#
#
# Indices 1 2 3 4 5 6 
#
# 1 0.013611 -0.003952 -0.006025 0.000000 0.001111 0.000000
# 2 -0.003952 0.021709 -0.001524 0.000000 -0.004995 0.000000
# 3 -0.006025 -0.001524 0.018296 0.000000 0.000274 0.000000
# 4 0.000000 0.000000 0.000000 0.047287 0.000000 -0.013790
# 5 0.001111 -0.004995 0.000274 0.000000 0.027072 0.000000
# 6 0.000000 0.000000 0.000000 -0.013790 0.000000 0.031174
#
#
# Mechanical properties :
#
#
# Convention : Reuss Voigt Hill
#
# Bulk Modulus (GPa) = 32.66454 37.32456 34.99455
# Shear Modulus (GPa) = 25.99350 29.92957 27.96154
#
# Velocity S-wave (km/s) = 3.66441 3.93208 3.80060
# Velocity P-wave (km/s) = 5.89729 6.31636 6.11042
#
# Compressibility (1/GPa) = 0.03061424
#
# Stress axis : x y z
#
# Youngs Moduli (GPa) = 73.46915 46.06338 54.65808
#
# Poissons Ratio (x) = 0.18202 0.32934
# Poissons Ratio (y) = 0.29032 0.08329
# Poissons Ratio (z) = 0.44268 0.07020
#
# Static dielectric constant tensor:
#      x y z
#    x 1.704030 0.000000 0.022210 
#    y 0.000000 1.675580 0.000000 
#    z 0.022210 0.000000 1.678370 
# 
# From -- ./inp_files/49831.got.cif
#   From: 2010.05.17/outbox.cif.g08.bks.cpg/sg15_25_cif.got.tgz:49831.got - 2010.06.03 18:47:42.
