data_PCOD9277892
_publ_section_title
;
Structure prediction by ZEFSAII (Michael W. Deem and Ramdas Pophale) SiO2 
 PCOD9277892
Probable space group: C 2/C
;
_chemical_formula_sum "Si O2"
_cell_formula_units_Z 36
_cell_length_a 8.671453
_cell_length_b 16.225650
_cell_length_c 12.783881
_cell_angle_alpha 90.000000
_cell_angle_beta 87.874969
_cell_angle_gamma 90.000000
_cell_volume 1797.454584
_symmetry_space_group_name_H-M "C 2/C"
_symmetry_group_IT_number 15
_symmetry_cell_setting 'monoclinic'
loop_
_space_group_symop_operation_xyz
x,y,z
-x,y,1/2-z
-x,-y,-z
x,-y,1/2+z
1/2+x,1/2+y,z
1/2-x,1/2+y,1/2-z
1/2-x,1/2-y,-z
1/2+x,1/2-y,1/2+z
loop_
_atom_site_type_symbol
_atom_site_label
_atom_site_fract_x
_atom_site_fract_y
_atom_site_fract_z
Si Si1 0.842903 0.048074 0.500518
Si Si2 0.500000 0.904049 0.250000
Si Si3 0.170527 0.832240 0.298990
Si Si4 0.600733 0.052157 0.115054
Si Si5 0.807314 0.637499 0.171609
O O1 0.833135 0.113894 0.595018
O O2 0.825873 0.097194 0.393159
O O3 0.716293 0.976324 0.523505
O O4 0.000000 0.000000 0.500000
O O5 0.334737 0.858517 0.241156
O O6 0.523874 0.966679 0.153641
O O7 0.191525 0.734838 0.316253
O O8 0.000000 0.844729 0.250000
O O9 0.461146 0.114527 0.100669
O O10 0.682205 0.092037 0.216107
#
# Coordination Sequence:
#
# PCOD9277892 Si02
#       5
#     8   4   8   8   8
#     4  11  25  36  62  96 122 158 211 257 296 376
#     4   8  20  36  62  86 116 164 198 252 296 364
#     4  11  22  41  64  90 127 164 205 252 313 365
#     4   9  20  41  64  83 122 167 196 252 313 368
#     4  10  20  42  61  88 124 159 204 253 314 359
#
# _framework density 20.028321999999999
#
# number of rings (size 3 to 8) (size 9 to 14) (size 15 to 20)
#    0.000    2.222    2.222    1.333    9.333    1.778 
#    0.000    1.111    0.000    0.000    0.000    0.000 
#    0.000    0.000    0.000    0.000    0.000    0.000 
#
# Total GULP energy -100261.977337 kJ/mol
# GULP energy per Si atom -5570.109852 kJ/mol
# Density = 1.998274 g / cm^3
# Si number density = 20.028322 Si / 1000 Ang^3
#
#
#
# Elastic Constant Matrix: (Units=GPa)
#
#
# Indices 1 2 3 4 5 6 
#
# 1 122.0039 57.2397 14.6333 0.0000 7.1754 0.0000
# 2 57.2397 137.0929 25.9972 0.0000 5.6887 0.0000
# 3 14.6333 25.9972 51.2530 0.0000 23.9471 0.0000
# 4 0.0000 0.0000 0.0000 17.1634 0.0000 11.5871
# 5 7.1754 5.6887 23.9471 0.0000 33.6004 0.0000
# 6 0.0000 0.0000 0.0000 11.5871 0.0000 21.2890
#
#
#
# Elastic Compliance Matrix: (Units=1/GPa)
#
#
# Indices 1 2 3 4 5 6 
#
# 1 0.010266 -0.004199 -0.000164 0.000000 -0.001365 0.000000
# 2 -0.004199 0.009911 -0.005192 0.000000 0.002919 0.000000
# 3 -0.000164 -0.005192 0.032630 0.000000 -0.022342 0.000000
# 4 0.000000 0.000000 0.000000 0.092108 0.000000 -0.050132
# 5 -0.001365 0.002919 -0.022342 0.000000 0.045482 0.000000
# 6 0.000000 0.000000 0.000000 -0.050132 0.000000 0.074258
#
#
# Mechanical properties :
#
#
# Convention : Reuss Voigt Hill
#
# Bulk Modulus (GPa) = 29.67548 56.23225 42.95387
# Shear Modulus (GPa) = 16.94930 28.57588 22.76259
#
# Velocity S-wave (km/s) = 2.91222 3.78136 3.37489
# Velocity P-wave (km/s) = 5.11439 6.87039 6.05637
#
# Compressibility (1/GPa) = 0.03369785
#
# Stress axis : x y z
#
# Youngs Moduli (GPa) = 97.40649 100.89905 30.64640
#
# Poissons Ratio (x) = 0.42365 0.00502
# Poissons Ratio (y) = 0.40898 0.15913
# Poissons Ratio (z) = 0.01595 0.52390
#
# Static dielectric constant tensor:
#      x y z
#    x 1.776690 0.000000 0.029360 
#    y 0.000000 1.670300 0.000000 
#    z 0.029360 0.000000 1.793310 
# 
# From -- ./inp_files/132842.got.cif
#   From: 2010.05.17/outbox.cif.g08.bks.cpg/sg15_67_cif.got.tgz:132842.got - 2010.06.03 18:47:42.
