data_PCOD9277272
_publ_section_title
;
Structure prediction by ZEFSAII (Michael W. Deem and Ramdas Pophale) SiO2 
 PCOD9277272
Probable space group: C 2/C
;
_chemical_formula_sum "Si O2"
_cell_formula_units_Z 44
_cell_length_a 10.611459
_cell_length_b 14.302600
_cell_length_c 15.951968
_cell_angle_alpha 90.000000
_cell_angle_beta 57.017246
_cell_angle_gamma 90.000000
_cell_volume 2030.863010
_symmetry_space_group_name_H-M "C 2/C"
_symmetry_group_IT_number 15
_symmetry_cell_setting 'monoclinic'
loop_
_space_group_symop_operation_xyz
x,y,z
-x,y,1/2-z
-x,-y,-z
x,-y,1/2+z
1/2+x,1/2+y,z
1/2-x,1/2+y,1/2-z
1/2-x,1/2-y,-z
1/2+x,1/2-y,1/2+z
loop_
_atom_site_type_symbol
_atom_site_label
_atom_site_fract_x
_atom_site_fract_y
_atom_site_fract_z
Si Si1 0.464345 0.730878 0.172351
Si Si2 0.940209 0.895112 0.524977
Si Si3 0.270223 0.928811 0.047599
Si Si4 0.405650 0.867890 0.501141
Si Si5 0.500000 0.348360 0.250000
Si Si6 0.665783 0.726377 0.841566
O O1 0.500000 0.688260 0.250000
O O2 0.413637 0.651938 0.124722
O O3 0.584993 0.796416 0.080831
O O4 0.327961 0.799034 0.247911
O O5 0.796659 0.887213 0.515097
O O6 0.082066 0.840451 0.435904
O O7 0.000000 0.000000 0.500000
O O8 0.421193 0.882933 0.031159
O O9 0.133177 0.911555 0.162305
O O10 0.319983 0.035959 0.013459
O O11 0.328148 0.822670 0.610423
O O12 0.439458 0.280216 0.200470
#
# Coordination Sequence:
#
# PCOD9277272 Si02
#       6
#     8   8   8   8   4   8
#     4  11  25  43  68  96 132 177 225 271 331 400
#     4  10  25  43  65  95 135 173 215 276 329 393
#     4  10  22  42  68  96 135 172 217 274 332 392
#     4  10  23  43  68  97 134 169 216 282 330 381
#     4  10  20  40  70  98 136 174 228 264 328 406
#     4  10  23  39  68  96 129 172 220 270 327 394
#
# _framework density 21.665665000000001
#
# number of rings (size 3 to 8) (size 9 to 14) (size 15 to 20)
#    0.000    1.818    1.818    0.000    7.636    6.545 
#    1.636    0.000    0.000    0.000    0.000    0.000 
#    0.000    0.000    0.000    0.000    0.000    0.000 
#
# Total GULP energy -122701.180807 kJ/mol
# GULP energy per Si atom -5577.326400 kJ/mol
# Density = 2.161635 g / cm^3
# Si number density = 21.665665 Si / 1000 Ang^3
#
#
#
# Elastic Constant Matrix: (Units=GPa)
#
#
# Indices 1 2 3 4 5 6 
#
# 1 108.4732 30.8998 70.4883 0.0000 1.5051 0.0000
# 2 30.8998 56.2321 36.3601 0.0000 18.4197 0.0000
# 3 70.4883 36.3601 148.9353 0.0000 18.8105 0.0000
# 4 0.0000 0.0000 0.0000 9.5447 0.0000 0.4308
# 5 1.5051 18.4197 18.8105 0.0000 43.2227 0.0000
# 6 0.0000 0.0000 0.0000 0.4308 0.0000 24.2271
#
#
#
# Elastic Compliance Matrix: (Units=1/GPa)
#
#
# Indices 1 2 3 4 5 6 
#
# 1 0.014787 -0.005612 -0.006207 0.000000 0.004578 0.000000
# 2 -0.005612 0.025563 -0.002363 0.000000 -0.009670 0.000000
# 3 -0.006207 -0.002363 0.010660 0.000000 -0.003416 0.000000
# 4 0.000000 0.000000 0.000000 0.104854 0.000000 -0.001865
# 5 0.004578 -0.009670 -0.003416 0.000000 0.028584 0.000000
# 6 0.000000 0.000000 0.000000 -0.001865 0.000000 0.041309
#
#
# Mechanical properties :
#
#
# Convention : Reuss Voigt Hill
#
# Bulk Modulus (GPa) = 44.15713 65.45965 54.80839
# Shear Modulus (GPa) = 19.10801 27.12508 23.11655
#
# Velocity S-wave (km/s) = 2.97298 3.54218 3.26999
# Velocity P-wave (km/s) = 5.67541 6.85627 6.29360
#
# Compressibility (1/GPa) = 0.02264640
#
# Stress axis : x y z
#
# Youngs Moduli (GPa) = 67.62636 39.11920 93.80665
#
# Poissons Ratio (x) = 0.21953 0.58222
# Poissons Ratio (y) = 0.37951 0.22171
# Poissons Ratio (z) = 0.41973 0.09246
#
# Static dielectric constant tensor:
#      x y z
#    x 1.804740 0.000000 0.030720 
#    y 0.000000 1.866420 0.000000 
#    z 0.030720 0.000000 1.797610 
# 
# From -- ./inp_files/143332.got.cif
#   From: 2010.05.17/outbox.cif.g08.bks.cpg/sg15_72_cif.got.tgz:143332.got - 2010.06.03 18:47:42.
