data_PCOD9277170
_publ_section_title
;
Structure prediction by ZEFSAII (Michael W. Deem and Ramdas Pophale) SiO2 
 PCOD9277170
Probable space group: C 2/C
;
_chemical_formula_sum "Si O2"
_cell_formula_units_Z 56
_cell_length_a 8.998403
_cell_length_b 16.473896
_cell_length_c 21.099760
_cell_angle_alpha 90.000000
_cell_angle_beta 112.710881
_cell_angle_gamma 90.000000
_cell_volume 2885.287347
_symmetry_space_group_name_H-M "C 2/C"
_symmetry_group_IT_number 15
_symmetry_cell_setting 'monoclinic'
loop_
_space_group_symop_operation_xyz
x,y,z
-x,y,1/2-z
-x,-y,-z
x,-y,1/2+z
1/2+x,1/2+y,z
1/2-x,1/2+y,1/2-z
1/2-x,1/2-y,-z
1/2+x,1/2-y,1/2+z
loop_
_atom_site_type_symbol
_atom_site_label
_atom_site_fract_x
_atom_site_fract_y
_atom_site_fract_z
Si Si1 0.363142 0.570289 0.147300
Si Si2 0.497204 0.086781 0.428721
Si Si3 0.406669 0.905660 0.056192
Si Si4 0.312746 0.821401 0.320656
Si Si5 0.744233 0.293059 0.567224
Si Si6 0.500000 0.570144 0.750000
Si Si7 0.500000 0.716306 0.250000
Si Si8 0.058667 0.912457 0.985924
O O1 0.173636 0.560985 0.128370
O O2 0.466200 0.493677 0.187897
O O3 0.413084 0.654163 0.187995
O O4 0.388926 0.576779 0.077613
O O5 0.462741 0.120350 0.494349
O O6 0.597086 0.150751 0.404856
O O7 0.596860 0.003498 0.449709
O O8 0.539221 0.874965 0.127404
O O9 0.225059 0.880669 0.044818
O O10 0.264681 0.764668 0.372920
O O11 0.159321 0.874610 0.274146
O O12 0.380149 0.769881 0.272746
O O13 0.750000 0.250000 0.500000
O O14 0.586660 0.349504 0.537423
O O15 0.000000 0.000000 0.000000
#
# Coordination Sequence:
#
# PCOD9277170 Si02
#       8
#     8   8   8   8   8   4   4   8
#     4  10  23  46  68  91 131 187 222 264 333 403
#     4  10  20  40  68  98 130 165 208 282 332 392
#     4  10  21  40  68  95 133 166 214 268 342 391
#     4  12  26  46  62 100 133 177 223 275 329 394
#     4  12  25  41  67 106 135 161 217 284 347 383
#     4  11  26  44  70  89 132 184 230 265 314 398
#     4  11  26  46  62  91 140 184 224 261 322 410
#     4  11  23  40  71 103 129 168 221 281 339 402
#
# _framework density 19.408811
#
# number of rings (size 3 to 8) (size 9 to 14) (size 15 to 20)
#    0.000    1.143    5.714    0.000    4.000    2.857 
#    0.000    0.000    0.000    0.000    0.000    0.000 
#    0.000    0.000    0.000    0.000    0.000    0.000 
#
# Total GULP energy -156273.616377 kJ/mol
# GULP energy per Si atom -5581.200585 kJ/mol
# Density = 1.936464 g / cm^3
# Si number density = 19.408811 Si / 1000 Ang^3
#
#
#
# Elastic Constant Matrix: (Units=GPa)
#
#
# Indices 1 2 3 4 5 6 
#
# 1 126.7026 65.4689 54.6161 0.0000 15.1045 0.0000
# 2 65.4689 97.9558 45.2123 0.0000 3.4695 0.0000
# 3 54.6161 45.2123 85.3973 0.0000 18.3929 0.0000
# 4 0.0000 0.0000 0.0000 -6.9111 0.0000 30.9171
# 5 15.1045 3.4695 18.3929 0.0000 37.7403 0.0000
# 6 0.0000 0.0000 0.0000 30.9171 0.0000 24.7196
#
#
#
# Elastic Compliance Matrix: (Units=1/GPa)
#
#
# Indices 1 2 3 4 5 6 
#
# 1 0.013798 -0.007040 -0.004522 0.000000 -0.002671 0.000000
# 2 -0.007040 0.017318 -0.005508 0.000000 0.003910 0.000000
# 3 -0.004522 -0.005508 0.019015 0.000000 -0.006951 0.000000
# 4 0.000000 0.000000 0.000000 -0.021940 0.000000 0.027440
# 5 -0.002671 0.003910 -0.006951 0.000000 0.030594 0.000000
# 6 0.000000 0.000000 0.000000 0.027440 0.000000 0.006134
#
#
# Mechanical properties :
#
#
# Convention : Reuss Voigt Hill
#
# Bulk Modulus (GPa) = 62.53693 71.18334 66.86014
# Shear Modulus (GPa) = 47.89736 20.76033 34.32884
#
# Velocity S-wave (km/s) = 4.97310 3.27407 4.21018
# Velocity P-wave (km/s) = 8.07877 7.14480 7.62609
#
# Compressibility (1/GPa) = 0.01599055
#
# Stress axis : x y z
#
# Youngs Moduli (GPa) = 72.47529 57.74391 52.58914
#
# Poissons Ratio (x) = 0.40652 0.23780
# Poissons Ratio (y) = 0.51023 0.28968
# Poissons Ratio (z) = 0.32772 0.31807
#
# Static dielectric constant tensor:
#      x y z
#    x 1.695380 0.000000 0.048110 
#    y 0.000000 1.690680 0.000000 
#    z 0.048110 0.000000 1.689230 
# 
# From -- ./inp_files/264841.got.cif
#   From: 2010.05.17/outbox.cif.g08.bks.cpg/sg15_133_cif.got.tgz:264841.got - 2010.06.03 18:47:42.
