data_PCOD9277461
_publ_section_title
;
Structure prediction by ZEFSAII (Michael W. Deem and Ramdas Pophale) SiO2 
 PCOD9277461
Probable space group: C 2/C
;
_chemical_formula_sum "Si O2"
_cell_formula_units_Z 44
_cell_length_a 5.252660
_cell_length_b 15.511487
_cell_length_c 24.232860
_cell_angle_alpha 90.000000
_cell_angle_beta 62.723145
_cell_angle_gamma 90.000000
_cell_volume 1754.860636
_symmetry_space_group_name_H-M "C 2/C"
_symmetry_group_IT_number 15
_symmetry_cell_setting 'monoclinic'
loop_
_space_group_symop_operation_xyz
x,y,z
-x,y,1/2-z
-x,-y,-z
x,-y,1/2+z
1/2+x,1/2+y,z
1/2-x,1/2+y,1/2-z
1/2-x,1/2-y,-z
1/2+x,1/2-y,1/2+z
loop_
_atom_site_type_symbol
_atom_site_label
_atom_site_fract_x
_atom_site_fract_y
_atom_site_fract_z
Si Si1 0.109231 0.203328 0.415738
Si Si2 0.500000 0.741006 0.250000
Si Si3 0.281377 0.410909 0.696220
Si Si4 0.276382 0.574572 0.508903
Si Si5 0.806627 0.024236 0.899423
Si Si6 0.333204 0.690384 0.617446
O O1 0.236770 0.125560 0.364606
O O2 0.376271 0.255087 0.411664
O O3 0.941650 0.163295 0.484252
O O4 0.898119 0.259605 0.397998
O O5 0.668556 0.673947 0.272156
O O6 0.298966 0.798453 0.308159
O O7 0.550716 0.475838 0.666247
O O8 0.000000 0.453309 0.750000
O O9 0.500000 0.500000 0.500000
O O10 0.204475 0.550640 0.452129
O O11 0.993313 0.574184 0.574043
O O12 0.044660 0.092067 0.898317
#
# Coordination Sequence:
#
# PCOD9277461 Si02
#       6
#     8   4   8   8   8   8
#     4  10  24  42  69  91 134 170 220 270 336 387
#     4  10  22  40  66  90 136 172 218 268 336 402
#     4  10  20  41  63  93 124 180 213 265 327 405
#     4  10  24  44  66  92 132 178 221 269 327 407
#     4  10  25  40  64  98 131 170 224 276 327 390
#     4  11  24  43  65 101 129 171 221 279 332 388
#
# _framework density 25.073217
#
# number of rings (size 3 to 8) (size 9 to 14) (size 15 to 20)
#    0.000    1.818    1.818    0.000   14.000    1.455 
#    0.000    0.000    0.000    0.000    0.000    0.000 
#    0.000    0.000    0.000    0.000    0.000    0.000 
#
# Total GULP energy -122887.784318 kJ/mol
# GULP energy per Si atom -5585.808378 kJ/mol
# Density = 2.501615 g / cm^3
# Si number density = 25.073217 Si / 1000 Ang^3
#
#
#
# Elastic Constant Matrix: (Units=GPa)
#
#
# Indices 1 2 3 4 5 6 
#
# 1 106.7844 27.7577 37.0795 0.0000 -30.0734 0.0000
# 2 27.7577 95.5464 64.8157 0.0000 -20.8258 0.0000
# 3 37.0795 64.8157 178.8254 0.0000 -49.9921 0.0000
# 4 0.0000 0.0000 0.0000 49.0372 0.0000 -15.6474
# 5 -30.0734 -20.8258 -49.9921 0.0000 38.3958 0.0000
# 6 0.0000 0.0000 0.0000 -15.6474 0.0000 16.1953
#
#
#
# Elastic Compliance Matrix: (Units=1/GPa)
#
#
# Indices 1 2 3 4 5 6 
#
# 1 0.012324 -0.002084 0.000916 0.000000 0.009715 0.000000
# 2 -0.002084 0.014289 -0.004774 0.000000 -0.000099 0.000000
# 3 0.000916 -0.004774 0.010392 0.000000 0.011658 0.000000
# 4 0.000000 0.000000 0.000000 0.029482 0.000000 0.028484
# 5 0.009715 -0.000099 0.011658 0.000000 0.048779 0.000000
# 6 0.000000 0.000000 0.000000 0.028484 0.000000 0.089267
#
#
# Mechanical properties :
#
#
# Convention : Reuss Voigt Hill
#
# Bulk Modulus (GPa) = 39.80964 71.16246 55.48605
# Shear Modulus (GPa) = 22.24284 37.49256 29.86770
#
# Velocity S-wave (km/s) = 2.98168 3.87114 3.45515
# Velocity P-wave (km/s) = 5.26932 6.95876 6.17212
#
# Compressibility (1/GPa) = 0.02511955
#
# Stress axis : x y z
#
# Youngs Moduli (GPa) = 81.13964 69.98400 96.23036
#
# Poissons Ratio (x) = 0.14586 -0.08814
# Poissons Ratio (y) = 0.16911 0.45945
# Poissons Ratio (z) = -0.07431 0.33414
#
# Static dielectric constant tensor:
#      x y z
#    x 2.073600 0.000000 0.062170 
#    y 0.000000 2.060140 0.000000 
#    z 0.062170 0.000000 2.037750 
# 
# From -- ./inp_files/226977.got.cif
#   From: 2010.05.17/outbox.cif.g08.bks.cpg/sg15_114_cif.got.tgz:226977.got - 2010.06.03 18:47:42.
