data_PCOD9277544
_publ_section_title
;
Structure prediction by ZEFSAII (Michael W. Deem and Ramdas Pophale) SiO2 
 PCOD9277544
Probable space group: C 2/C
;
_chemical_formula_sum "Si O2"
_cell_formula_units_Z 48
_cell_length_a 16.461759
_cell_length_b 9.984030
_cell_length_c 14.453530
_cell_angle_alpha 90.000000
_cell_angle_beta 54.194691
_cell_angle_gamma 90.000000
_cell_volume 1926.557818
_symmetry_space_group_name_H-M "C 2/C"
_symmetry_group_IT_number 15
_symmetry_cell_setting 'monoclinic'
loop_
_space_group_symop_operation_xyz
x,y,z
-x,y,1/2-z
-x,-y,-z
x,-y,1/2+z
1/2+x,1/2+y,z
1/2-x,1/2+y,1/2-z
1/2-x,1/2-y,-z
1/2+x,1/2-y,1/2+z
loop_
_atom_site_type_symbol
_atom_site_label
_atom_site_fract_x
_atom_site_fract_y
_atom_site_fract_z
Si Si1 0.942395 0.895123 0.476748
Si Si2 0.038688 0.397586 0.897484
Si Si3 0.857194 0.578909 0.408484
Si Si4 0.255887 0.236373 0.645388
Si Si5 0.325022 0.403034 0.952909
Si Si6 0.279459 0.779583 0.640368
O O1 0.841211 0.849786 0.595357
O O2 0.003654 0.758833 0.422153
O O3 0.902275 0.975214 0.413274
O O4 0.000000 0.000000 0.500000
O O5 0.155079 0.387770 0.846641
O O6 0.971311 0.449497 0.857352
O O7 0.000000 0.500000 0.000000
O O8 0.838424 0.691918 0.342718
O O9 0.802771 0.637371 0.537853
O O10 0.785190 0.453614 0.438507
O O11 0.244903 0.183314 0.756685
O O12 0.309225 0.346103 0.860655
O O13 0.346591 0.290070 0.015685
#
# Coordination Sequence:
#
# PCOD9277544 Si02
#       6
#     8   8   8   8   8   8
#     4  10  20  41  65  88 126 171 213 262 323 383
#     4  11  21  39  64  92 127 169 208 265 330 382
#     4   9  19  39  61  85 129 167 206 263 323 379
#     4   9  21  38  64  94 124 172 216 267 320 386
#     4  10  21  39  64  92 129 170 211 269 329 382
#     4  11  22  38  66  96 128 167 221 265 326 392
#
# _framework density 24.914904
#
# number of rings (size 3 to 8) (size 9 to 14) (size 15 to 20)
#    0.000    2.000    3.333    1.000    0.000    3.333 
#    0.000    0.833    7.333    0.000    0.000    0.000 
#    0.000    0.000    0.000    0.000    0.000    0.000 
#
# Total GULP energy -133739.746549 kJ/mol
# GULP energy per Si atom -5572.489440 kJ/mol
# Density = 2.485820 g / cm^3
# Si number density = 24.914904 Si / 1000 Ang^3
#
#
#
# Elastic Constant Matrix: (Units=GPa)
#
#
# Indices 1 2 3 4 5 6 
#
# 1 127.6161 13.6907 31.3503 0.0000 28.4484 0.0000
# 2 13.6907 80.1750 15.2822 0.0000 10.8936 0.0000
# 3 31.3503 15.2822 117.4330 0.0000 51.3789 0.0000
# 4 0.0000 0.0000 0.0000 14.3408 0.0000 2.9989
# 5 28.4484 10.8936 51.3789 0.0000 39.2819 0.0000
# 6 0.0000 0.0000 0.0000 2.9989 0.0000 42.8758
#
#
#
# Elastic Compliance Matrix: (Units=1/GPa)
#
#
# Indices 1 2 3 4 5 6 
#
# 1 0.009445 -0.000725 0.001117 0.000000 -0.008099 0.000000
# 2 -0.000725 0.013020 -0.000353 0.000000 -0.002624 0.000000
# 3 0.001117 -0.000353 0.020045 0.000000 -0.026929 0.000000
# 4 0.000000 0.000000 0.000000 0.070766 0.000000 -0.004950
# 5 -0.008099 -0.002624 -0.026929 0.000000 0.067272 0.000000
# 6 0.000000 0.000000 0.000000 -0.004950 0.000000 0.023669
#
#
# Mechanical properties :
#
#
# Convention : Reuss Voigt Hill
#
# Bulk Modulus (GPa) = 23.48071 49.54117 36.51094
# Shear Modulus (GPa) = 22.90042 36.95977 29.93009
#
# Velocity S-wave (km/s) = 3.03503 3.85572 3.46973
# Velocity P-wave (km/s) = 4.66119 6.30472 5.54419
#
# Compressibility (1/GPa) = 0.04258814
#
# Stress axis : x y z
#
# Youngs Moduli (GPa) = 105.87545 76.80290 49.88740
#
# Poissons Ratio (x) = 0.05569 -0.05570
# Poissons Ratio (y) = 0.07678 0.01759
# Poissons Ratio (z) = -0.11821 0.02708
#
# Static dielectric constant tensor:
#      x y z
#    x 2.046330 0.000000 -0.053690 
#    y 0.000000 2.018740 0.000000 
#    z -0.053690 0.000000 2.104980 
# 
# From -- ./inp_files/160310.got.cif
#   From: 2010.05.17/outbox.cif.g08.bks.cpg/sg15_81_cif.got.tgz:160310.got - 2010.06.03 18:47:42.
