data_PCOD9277343
_publ_section_title
;
Structure prediction by ZEFSAII (Michael W. Deem and Ramdas Pophale) SiO2 
 PCOD9277343
Probable space group: C 2/C
;
_chemical_formula_sum "Si O2"
_cell_formula_units_Z 36
_cell_length_a 12.553091
_cell_length_b 13.341577
_cell_length_c 8.687478
_cell_angle_alpha 90.000000
_cell_angle_beta 115.014472
_cell_angle_gamma 90.000000
_cell_volume 1318.487767
_symmetry_space_group_name_H-M "C 2/C"
_symmetry_group_IT_number 15
_symmetry_cell_setting 'monoclinic'
loop_
_space_group_symop_operation_xyz
x,y,z
-x,y,1/2-z
-x,-y,-z
x,-y,1/2+z
1/2+x,1/2+y,z
1/2-x,1/2+y,1/2-z
1/2-x,1/2-y,-z
1/2+x,1/2-y,1/2+z
loop_
_atom_site_type_symbol
_atom_site_label
_atom_site_fract_x
_atom_site_fract_y
_atom_site_fract_z
Si Si1 0.000000 0.038368 0.750000
Si Si2 0.671382 0.359626 0.872633
Si Si3 0.974485 0.796294 0.982209
Si Si4 0.171554 0.648865 0.491899
Si Si5 0.359885 0.947874 0.193462
O O1 0.971319 0.109120 0.591253
O O2 0.891065 0.965134 0.705411
O O3 0.591479 0.311455 0.957860
O O4 0.795021 0.382315 0.022674
O O5 0.864035 0.796126 0.797135
O O6 0.750000 0.750000 0.000000
O O7 0.958580 0.695773 0.066920
O O8 0.177642 0.562967 0.366084
O O9 0.182916 0.590457 0.664538
O O10 0.500000 0.939578 0.250000
#
# Coordination Sequence:
#
# PCOD9277343 Si02
#       5
#     4   8   8   8   8
#     4  10  20  40  80 120 164 198 300 354 406 466
#     4  10  23  46  83 116 167 216 286 353 410 490
#     4  10  24  46  80 123 153 216 285 342 420 491
#     4  12  31  56  87 122 172 232 280 351 434 509
#     4  12  31  56  81 127 180 222 283 352 430 511
#
# _framework density 27.304006000000001
#
# number of rings (size 3 to 8) (size 9 to 14) (size 15 to 20)
#    0.000    1.333    0.000    4.667   17.111    0.889 
#    0.000    0.000    0.000    0.000    0.000    0.000 
#    0.000    0.000    0.000    0.000    0.000    0.000 
#
# Total GULP energy -100794.093699 kJ/mol
# GULP energy per Si atom -5599.671872 kJ/mol
# Density = 2.724186 g / cm^3
# Si number density = 27.304006 Si / 1000 Ang^3
#
#
#
# Elastic Constant Matrix: (Units=GPa)
#
#
# Indices 1 2 3 4 5 6 
#
# 1 129.4076 62.5578 51.9303 0.0000 16.3544 0.0000
# 2 62.5578 204.8192 85.3008 0.0000 -14.5797 0.0000
# 3 51.9303 85.3008 172.4129 0.0000 5.3583 0.0000
# 4 0.0000 0.0000 0.0000 51.5372 0.0000 -9.6512
# 5 16.3544 -14.5797 5.3583 0.0000 55.8994 0.0000
# 6 0.0000 0.0000 0.0000 -9.6512 0.0000 19.1750
#
#
#
# Elastic Compliance Matrix: (Units=1/GPa)
#
#
# Indices 1 2 3 4 5 6 
#
# 1 0.010105 -0.002661 -0.001618 0.000000 -0.003495 0.000000
# 2 -0.002661 0.007059 -0.002780 0.000000 0.002886 0.000000
# 3 -0.001618 -0.002780 0.007694 0.000000 -0.000989 0.000000
# 4 0.000000 0.000000 0.000000 0.021423 0.000000 0.010783
# 5 -0.003495 0.002886 -0.000989 0.000000 0.019760 0.000000
# 6 0.000000 0.000000 0.000000 0.010783 0.000000 0.057578
#
#
# Mechanical properties :
#
#
# Convention : Reuss Voigt Hill
#
# Bulk Modulus (GPa) = 93.13051 100.69084 96.91067
# Shear Modulus (GPa) = 35.38141 45.77904 40.58023
#
# Velocity S-wave (km/s) = 3.60367 4.09912 3.85936
# Velocity P-wave (km/s) = 7.17621 7.70464 7.44512
#
# Compressibility (1/GPa) = 0.01073762
#
# Stress axis : x y z
#
# Youngs Moduli (GPa) = 98.95898 141.67238 129.97503
#
# Poissons Ratio (x) = 0.37702 0.21035
# Poissons Ratio (y) = 0.26335 0.36137
# Poissons Ratio (z) = 0.16015 0.39390
#
# Static dielectric constant tensor:
#      x y z
#    x 2.174050 0.000000 -0.051050 
#    y 0.000000 2.200810 0.000000 
#    z -0.051050 0.000000 2.243770 
# 
# From -- ./inp_files/28835.got.cif
#   From: 2010.05.17/outbox.cif.g08.bks.cpg/sg15_15_cif.got.tgz:28835.got - 2010.06.03 18:47:42.
