data_PCOD9277066
_publ_section_title
;
Structure prediction by ZEFSAII (Michael W. Deem and Ramdas Pophale) SiO2 
 PCOD9277066
Probable space group: C 2/C
;
_chemical_formula_sum "Si O2"
_cell_formula_units_Z 52
_cell_length_a 16.388878
_cell_length_b 9.525127
_cell_length_c 24.838297
_cell_angle_alpha 90.000000
_cell_angle_beta 137.151591
_cell_angle_gamma 90.000000
_cell_volume 2636.875801
_symmetry_space_group_name_H-M "C 2/C"
_symmetry_group_IT_number 15
_symmetry_cell_setting 'monoclinic'
loop_
_space_group_symop_operation_xyz
x,y,z
-x,y,1/2-z
-x,-y,-z
x,-y,1/2+z
1/2+x,1/2+y,z
1/2-x,1/2+y,1/2-z
1/2-x,1/2-y,-z
1/2+x,1/2-y,1/2+z
loop_
_atom_site_type_symbol
_atom_site_label
_atom_site_fract_x
_atom_site_fract_y
_atom_site_fract_z
Si Si1 0.000000 0.147524 0.750000
Si Si2 0.772691 0.684474 0.096322
Si Si3 0.575576 0.407647 0.578611
Si Si4 0.639956 0.069124 0.467205
Si Si5 0.363695 0.851634 0.838888
Si Si6 0.645979 0.558940 0.720150
Si Si7 0.072608 0.637870 0.013768
O O1 0.896165 0.243201 0.673683
O O2 0.936040 0.059983 0.766373
O O3 0.704902 0.617261 0.113821
O O4 0.795976 0.576698 0.059071
O O5 0.690099 0.805445 0.029197
O O6 0.500000 0.500000 0.500000
O O7 0.582271 0.484185 0.638813
O O8 0.513703 0.255530 0.551618
O O9 0.498481 0.098782 0.390090
O O10 0.655784 0.926085 0.507795
O O11 0.331961 0.720009 0.786276
O O12 0.365504 0.804870 0.902450
O O13 0.269444 0.976876 0.788939
O O14 0.000000 0.500000 0.000000
#
# Coordination Sequence:
#
# PCOD9277066 Si02
#       7
#     4   8   8   8   8   8   8
#     4  12  26  44  66 108 132 184 230 284 348 416
#     4  11  22  42  71  99 135 179 236 282 332 424
#     4  12  24  44  68 103 136 186 230 290 342 416
#     4  10  21  39  71  98 132 173 239 278 327 407
#     4  11  22  43  65 105 130 183 226 281 340 411
#     4  12  26  42  71  97 142 176 235 282 345 414
#     4  10  20  40  67  98 133 174 235 271 340 409
#
# _framework density 19.720306999999998
#
# number of rings (size 3 to 8) (size 9 to 14) (size 15 to 20)
#    0.000    0.923    6.154    1.846    8.615    0.000 
#    0.000    2.308    0.000    0.000    0.000    0.000 
#    0.000    0.000    0.000    0.000    0.000    0.000 
#
# Total GULP energy -145298.662323 kJ/mol
# GULP energy per Si atom -5588.410089 kJ/mol
# Density = 1.967542 g / cm^3
# Si number density = 19.720307 Si / 1000 Ang^3
#
#
#
# Elastic Constant Matrix: (Units=GPa)
#
#
# Indices 1 2 3 4 5 6 
#
# 1 128.5507 45.0051 36.2343 0.0000 -19.7829 0.0000
# 2 45.0051 62.9659 10.2121 0.0000 0.5766 0.0000
# 3 36.2343 10.2121 79.2644 0.0000 3.9845 0.0000
# 4 0.0000 0.0000 0.0000 36.5973 0.0000 2.1840
# 5 -19.7829 0.5766 3.9845 0.0000 37.1119 0.0000
# 6 0.0000 0.0000 0.0000 2.1840 0.0000 33.1696
#
#
#
# Elastic Compliance Matrix: (Units=1/GPa)
#
#
# Indices 1 2 3 4 5 6 
#
# 1 0.013717 -0.008983 -0.005518 0.000000 0.008044 0.000000
# 2 -0.008983 0.022104 0.001525 0.000000 -0.005296 0.000000
# 3 -0.005518 0.001525 0.015173 0.000000 -0.004594 0.000000
# 4 0.000000 0.000000 0.000000 0.027432 0.000000 -0.001806
# 5 0.008044 -0.005296 -0.004594 0.000000 0.031809 0.000000
# 6 0.000000 0.000000 0.000000 -0.001806 0.000000 0.030267
#
#
# Mechanical properties :
#
#
# Convention : Reuss Voigt Hill
#
# Bulk Modulus (GPa) = 39.93307 50.40931 45.17119
# Shear Modulus (GPa) = 28.60408 33.33108 30.96758
#
# Velocity S-wave (km/s) = 3.81266 4.11565 3.96705
# Velocity P-wave (km/s) = 6.29885 6.94280 6.62865
#
# Compressibility (1/GPa) = 0.02504190
#
# Stress axis : x y z
#
# Youngs Moduli (GPa) = 72.90157 45.24164 65.90781
#
# Poissons Ratio (x) = 0.40641 0.36365
# Poissons Ratio (y) = 0.65489 -0.10051
# Poissons Ratio (z) = 0.40224 -0.06899
#
# Static dielectric constant tensor:
#      x y z
#    x 1.719170 0.000000 -0.021820 
#    y 0.000000 1.682720 0.000000 
#    z -0.021820 0.000000 1.715870 
# 
# From -- ./inp_files/298446.got.cif
#   From: 2010.05.17/outbox.cif.g08.bks.cpg/sg15_150_cif.got.tgz:298446.got - 2010.06.03 18:47:42.
