data_PCOD9277838
_publ_section_title
;
Structure prediction by ZEFSAII (Michael W. Deem and Ramdas Pophale) SiO2 
 PCOD9277838
Probable space group: C 2/C
;
_chemical_formula_sum "Si O2"
_cell_formula_units_Z 52
_cell_length_a 25.633036
_cell_length_b 7.542770
_cell_length_c 13.818096
_cell_angle_alpha 90.000000
_cell_angle_beta 125.321463
_cell_angle_gamma 90.000000
_cell_volume 2179.853288
_symmetry_space_group_name_H-M "C 2/C"
_symmetry_group_IT_number 15
_symmetry_cell_setting 'monoclinic'
loop_
_space_group_symop_operation_xyz
x,y,z
-x,y,1/2-z
-x,-y,-z
x,-y,1/2+z
1/2+x,1/2+y,z
1/2-x,1/2+y,1/2-z
1/2-x,1/2-y,-z
1/2+x,1/2-y,1/2+z
loop_
_atom_site_type_symbol
_atom_site_label
_atom_site_fract_x
_atom_site_fract_y
_atom_site_fract_z
Si Si1 0.015700 0.781146 0.555762
Si Si2 0.785137 0.660241 0.901347
Si Si3 0.210014 0.498341 0.399614
Si Si4 0.201885 0.785452 0.130160
Si Si5 0.398405 0.586666 0.514135
Si Si6 0.000000 0.045718 0.250000
Si Si7 0.396535 0.068551 0.357401
O O1 0.053177 0.913836 0.524271
O O2 0.060968 0.607615 0.597021
O O3 0.011415 0.839610 0.664249
O O4 0.948713 0.719141 0.436167
O O5 0.754491 0.837592 0.916769
O O6 0.735209 0.628451 0.761691
O O7 0.789485 0.505069 0.984564
O O8 0.854538 0.740984 0.954142
O O9 0.238954 0.322845 0.380831
O O10 0.141043 0.551174 0.284096
O O11 0.162685 0.615289 0.131672
O O12 0.146105 0.914090 0.033153
O O13 0.439988 0.576839 0.656260
#
# Coordination Sequence:
#
# PCOD9277838 Si02
#       7
#     8   8   8   8   8   4   8
#     4  11  25  46  66 101 142 188 230 297 354 423
#     4   9  20  38  66 103 136 176 230 287 354 408
#     4   9  19  37  65 100 131 176 228 283 342 420
#     4  10  20  41  71  99 138 184 228 290 350 420
#     4  11  24  42  73 102 138 190 239 293 353 421
#     4  12  26  44  70 106 134 186 250 290 344 434
#     4  10  22  44  67  92 148 182 225 286 362 410
#
# _framework density 23.854818000000002
#
# number of rings (size 3 to 8) (size 9 to 14) (size 15 to 20)
#    0.000    1.846    1.538    1.385    2.154    3.692 
#    8.308    0.000    0.000   15.692    0.000    0.000 
#    0.000    0.000    0.000    0.000    0.000    0.000 
#
# Total GULP energy -144932.520986 kJ/mol
# GULP energy per Si atom -5574.327730 kJ/mol
# Density = 2.380052 g / cm^3
# Si number density = 23.854818 Si / 1000 Ang^3
#
#
#
# Elastic Constant Matrix: (Units=GPa)
#
#
# Indices 1 2 3 4 5 6 
#
# 1 61.8515 -10.3029 43.9192 0.0000 20.9895 0.0000
# 2 -10.3029 63.0665 23.3265 0.0000 8.1190 0.0000
# 3 43.9192 23.3265 162.9632 0.0000 21.6067 0.0000
# 4 0.0000 0.0000 0.0000 12.7829 0.0000 -3.7909
# 5 20.9895 8.1190 21.6067 0.0000 36.3777 0.0000
# 6 0.0000 0.0000 0.0000 -3.7909 0.0000 24.6649
#
#
#
# Elastic Compliance Matrix: (Units=1/GPa)
#
#
# Indices 1 2 3 4 5 6 
#
# 1 0.026942 0.008618 -0.006706 0.000000 -0.013485 0.000000
# 2 0.008618 0.019713 -0.004235 0.000000 -0.006857 0.000000
# 3 -0.006706 -0.004235 0.008588 0.000000 -0.000286 0.000000
# 4 0.000000 0.000000 0.000000 0.081966 0.000000 0.012598
# 5 -0.013485 -0.006857 -0.000286 0.000000 0.036970 0.000000
# 6 0.000000 0.000000 0.000000 0.012598 0.000000 0.042480
#
#
# Mechanical properties :
#
#
# Convention : Reuss Voigt Hill
#
# Bulk Modulus (GPa) = 19.76474 44.64077 32.20275
# Shear Modulus (GPa) = 20.99330 30.16098 25.57714
#
# Velocity S-wave (km/s) = 2.96977 3.55964 3.27800
# Velocity P-wave (km/s) = 4.47915 5.97066 5.27786
#
# Compressibility (1/GPa) = 0.05059516
#
# Stress axis : x y z
#
# Youngs Moduli (GPa) = 37.11740 50.72707 116.44239
#
# Poissons Ratio (x) = -0.43716 0.78092
# Poissons Ratio (y) = -0.31987 0.49316
# Poissons Ratio (z) = 0.24893 0.21484
#
# Static dielectric constant tensor:
#      x y z
#    x 1.998390 0.000000 -0.009730 
#    y 0.000000 2.048270 0.000000 
#    z -0.009730 0.000000 1.853150 
# 
# From -- ./inp_files/176698.got.cif
#   From: 2010.05.17/outbox.cif.g08.bks.cpg/sg15_89_cif.got.tgz:176698.got - 2010.06.03 18:47:42.
