data_PCOD9277745
_publ_section_title
;
Structure prediction by ZEFSAII (Michael W. Deem and Ramdas Pophale) SiO2 
 PCOD9277745
Probable space group: C 2/C
;
_chemical_formula_sum "Si O2"
_cell_formula_units_Z 64
_cell_length_a 11.070728
_cell_length_b 20.509597
_cell_length_c 25.682062
_cell_angle_alpha 90.000000
_cell_angle_beta 145.647448
_cell_angle_gamma 90.000000
_cell_volume 3290.489880
_symmetry_space_group_name_H-M "C 2/C"
_symmetry_group_IT_number 15
_symmetry_cell_setting 'monoclinic'
loop_
_space_group_symop_operation_xyz
x,y,z
-x,y,1/2-z
-x,-y,-z
x,-y,1/2+z
1/2+x,1/2+y,z
1/2-x,1/2+y,1/2-z
1/2-x,1/2-y,-z
1/2+x,1/2-y,1/2+z
loop_
_atom_site_type_symbol
_atom_site_label
_atom_site_fract_x
_atom_site_fract_y
_atom_site_fract_z
Si Si1 0.931139 0.703889 0.586045
Si Si2 0.268382 0.532474 0.147315
Si Si3 0.015238 0.388199 0.877080
Si Si4 0.096063 0.257139 0.726823
Si Si5 0.876199 0.815993 0.060186
Si Si6 0.606675 0.928886 0.481047
Si Si7 0.252700 0.511074 0.923983
Si Si8 0.795392 0.643461 0.645102
O O1 0.750000 0.750000 0.500000
O O2 0.960826 0.644462 0.556390
O O3 0.825170 0.674885 0.599892
O O4 0.154487 0.738838 0.678815
O O5 0.500000 0.512359 0.250000
O O6 0.177083 0.582192 0.158013
O O7 0.106506 0.471707 0.087513
O O8 0.252276 0.564412 0.084251
O O9 0.116543 0.444357 0.876367
O O10 0.946303 0.323987 0.820569
O O11 0.199338 0.370738 0.985319
O O12 0.000000 0.264131 0.750000
O O13 0.974761 0.199474 0.651735
O O14 0.077231 0.834130 0.094962
O O15 0.750000 0.750000 0.000000
O O16 0.721622 0.958978 0.470894
O O17 0.187011 0.566124 0.859143
O O18 0.500000 0.500000 0.000000
O O19 0.000000 0.665747 0.750000
#
# Coordination Sequence:
#
# PCOD9277745 Si02
#       8
#     8   8   8   8   8   8   8   8
#     4  11  26  41  65  95 132 177 216 270 331 390
#     4  10  22  45  70  95 132 174 222 281 324 398
#     4  10  23  43  66  98 129 172 223 264 339 395
#     4  11  26  42  62  97 131 174 219 269 330 399
#     4  10  22  42  65  90 130 172 211 268 324 395
#     4   9  23  44  63 100 131 166 226 268 339 389
#     4  10  20  41  68  94 128 171 209 276 338 384
#     4  11  22  44  65  95 131 167 227 269 324 407
#
# _framework density 19.449992000000002
#
# number of rings (size 3 to 8) (size 9 to 14) (size 15 to 20)
#    0.000    1.750    2.500    0.000    7.000    2.000 
#   11.250    0.000    0.000    0.000    0.000    0.000 
#    0.000    0.000    0.000    0.000    0.000    0.000 
#
# Total GULP energy -178558.595629 kJ/mol
# GULP energy per Si atom -5579.956113 kJ/mol
# Density = 1.940572 g / cm^3
# Si number density = 19.449992 Si / 1000 Ang^3
#
#
#
# Elastic Constant Matrix: (Units=GPa)
#
#
# Indices 1 2 3 4 5 6 
#
# 1 67.2712 30.3367 34.5624 -0.0001 -1.1077 0.0000
# 2 30.3367 102.9686 40.8415 0.0000 -7.4889 0.0000
# 3 34.5624 40.8415 132.0158 -0.0007 -3.3655 -0.0003
# 4 -0.0001 0.0000 -0.0007 29.7912 -0.0002 -5.3925
# 5 -1.1077 -7.4889 -3.3655 -0.0002 29.4867 0.0000
# 6 0.0000 0.0000 -0.0003 -5.3925 0.0000 20.1140
#
#
#
# Elastic Compliance Matrix: (Units=1/GPa)
#
#
# Indices 1 2 3 4 5 6 
#
# 1 0.018552 -0.004088 -0.003611 0.000000 -0.000754 0.000000
# 2 -0.004088 0.012147 -0.002621 0.000000 0.002632 0.000000
# 3 -0.003611 -0.002621 0.009338 0.000000 0.000265 0.000000
# 4 0.000000 0.000000 0.000000 0.035279 0.000000 0.009458
# 5 -0.000754 0.002632 0.000265 0.000000 0.034584 0.000000
# 6 0.000000 0.000000 0.000000 0.009458 0.000000 0.052252
#
#
# Mechanical properties :
#
#
# Convention : Reuss Voigt Hill
#
# Bulk Modulus (GPa) = 51.55567 57.08187 54.31877
# Shear Modulus (GPa) = 26.41905 28.97939 27.69922
#
# Velocity S-wave (km/s) = 3.68952 3.86417 3.77785
# Velocity P-wave (km/s) = 6.68688 7.02287 6.85694
#
# Compressibility (1/GPa) = 0.01939651
#
# Stress axis : x y z
#
# Youngs Moduli (GPa) = 53.90304 82.32491 107.09177
#
# Poissons Ratio (x) = 0.33655 0.38676
# Poissons Ratio (y) = 0.22036 0.28063
# Poissons Ratio (z) = 0.19467 0.21573
#
# Static dielectric constant tensor:
#      x y z
#    x 1.657970 0.000000 -0.007020 
#    y 0.000000 1.756740 0.000000 
#    z -0.007020 0.000000 1.666630 
# 
# From -- ./inp_files/293764.got.cif
#   From: 2010.05.17/outbox.cif.g08.bks.cpg/sg15_147_cif.got.tgz:293764.got - 2010.06.03 18:47:42.
