data_PCOD9277926
_publ_section_title
;
Structure prediction by ZEFSAII (Michael W. Deem and Ramdas Pophale) SiO2 
 PCOD9277926
Probable space group: C 2/C
;
_chemical_formula_sum "Si O2"
_cell_formula_units_Z 48
_cell_length_a 12.958837
_cell_length_b 27.521950
_cell_length_c 9.326980
_cell_angle_alpha 90.000000
_cell_angle_beta 48.757717
_cell_angle_gamma 90.000000
_cell_volume 2501.283288
_symmetry_space_group_name_H-M "C 2/C"
_symmetry_group_IT_number 15
_symmetry_cell_setting 'monoclinic'
loop_
_space_group_symop_operation_xyz
x,y,z
-x,y,1/2-z
-x,-y,-z
x,-y,1/2+z
1/2+x,1/2+y,z
1/2-x,1/2+y,1/2-z
1/2-x,1/2-y,-z
1/2+x,1/2-y,1/2+z
loop_
_atom_site_type_symbol
_atom_site_label
_atom_site_fract_x
_atom_site_fract_y
_atom_site_fract_z
Si Si1 0.147319 0.103691 0.040376
Si Si2 0.047753 0.575129 0.363974
Si Si3 0.130681 0.528419 0.736550
Si Si4 0.268770 0.159370 0.180293
Si Si5 0.018272 0.850655 0.392158
Si Si6 0.373608 0.756725 0.773851
O O1 0.223309 0.146850 0.059628
O O2 0.000000 0.094986 0.250000
O O3 0.243162 0.056462 0.948991
O O4 0.116235 0.119843 0.907339
O O5 0.148075 0.528374 0.255626
O O6 0.122362 0.618495 0.375426
O O7 0.000000 0.589913 0.250000
O O8 0.919691 0.555661 0.573917
O O9 0.000000 0.530592 0.750000
O O10 0.329681 0.210442 0.179065
O O11 0.130433 0.152336 0.398921
O O12 0.077137 0.796246 0.321443
O O13 0.000000 0.871463 0.250000
O O14 0.500000 0.778810 0.750000
O O15 0.250000 0.750000 0.000000
#
# Coordination Sequence:
#
# PCOD9277926 Si02
#       6
#     8   8   8   8   8   8
#     4  10  23  41  64  88 132 163 200 257 317 375
#     4  10  22  36  66  92 123 162 211 256 307 371
#     4  10  20  42  62  92 128 159 204 263 309 362
#     4  11  21  40  61  93 121 165 207 251 318 370
#     4  10  22  40  60  87 123 165 205 259 306 371
#     4  11  21  39  63  89 125 161 209 261 305 360
#
# _framework density 19.190149000000002
#
# number of rings (size 3 to 8) (size 9 to 14) (size 15 to 20)
#    0.000    1.667    5.000    0.500    2.333    2.000 
#    0.000    4.167    0.000    0.000    0.000    0.000 
#    0.000    0.000    0.000    0.000    0.000    0.000 
#
# Total GULP energy -133935.880312 kJ/mol
# GULP energy per Si atom -5580.661680 kJ/mol
# Density = 1.914647 g / cm^3
# Si number density = 19.190149 Si / 1000 Ang^3
#
#
#
# Elastic Constant Matrix: (Units=GPa)
#
#
# Indices 1 2 3 4 5 6 
#
# 1 90.8769 20.3783 26.6206 0.0000 14.4145 0.0000
# 2 20.3783 60.2390 14.5858 0.0000 -4.0522 0.0000
# 3 26.6206 14.5858 45.3649 0.0000 15.9971 0.0000
# 4 0.0000 0.0000 0.0000 26.1096 0.0000 0.4348
# 5 14.4145 -4.0522 15.9971 0.0000 34.5864 0.0000
# 6 0.0000 0.0000 0.0000 0.4348 0.0000 8.3905
#
#
#
# Elastic Compliance Matrix: (Units=1/GPa)
#
#
# Indices 1 2 3 4 5 6 
#
# 1 0.014092 -0.003592 -0.005849 0.000000 -0.003589 0.000000
# 2 -0.003592 0.019917 -0.006747 0.000000 0.006951 0.000000
# 3 -0.005849 -0.006747 0.032339 0.000000 -0.013310 0.000000
# 4 0.000000 0.000000 0.000000 0.038333 0.000000 -0.001986
# 5 -0.003589 0.006951 -0.013310 0.000000 0.037380 0.000000
# 6 0.000000 0.000000 0.000000 -0.001986 0.000000 0.119285
#
#
# Mechanical properties :
#
#
# Convention : Reuss Voigt Hill
#
# Bulk Modulus (GPa) = 29.43662 35.51668 32.47665
# Shear Modulus (GPa) = 16.39099 22.81038 19.60069
#
# Velocity S-wave (km/s) = 2.92573 3.45142 3.19939
# Velocity P-wave (km/s) = 5.17551 5.86780 5.53249
#
# Compressibility (1/GPa) = 0.03397130
#
# Stress axis : x y z
#
# Youngs Moduli (GPa) = 70.96232 50.20811 30.92289
#
# Poissons Ratio (x) = 0.18037 0.18086
# Poissons Ratio (y) = 0.25493 0.20864
# Poissons Ratio (z) = 0.41504 0.33875
#
# Static dielectric constant tensor:
#      x y z
#    x 1.694440 0.000000 0.021910 
#    y 0.000000 1.665010 0.000000 
#    z 0.021910 0.000000 1.673840 
# 
# From -- ./inp_files/33421.got.cif
#   From: 2010.05.17/outbox.cif.g08.bks.cpg/sg15_17_cif.got.tgz:33421.got - 2010.06.03 18:47:42.
