data_PCOD9277167
_publ_section_title
;
Structure prediction by ZEFSAII (Michael W. Deem and Ramdas Pophale) SiO2 
 PCOD9277167
Probable space group: C 2/C
;
_chemical_formula_sum "Si O2"
_cell_formula_units_Z 64
_cell_length_a 10.902405
_cell_length_b 13.954475
_cell_length_c 26.875177
_cell_angle_alpha 90.000000
_cell_angle_beta 137.679165
_cell_angle_gamma 90.000000
_cell_volume 2752.857818
_symmetry_space_group_name_H-M "C 2/C"
_symmetry_group_IT_number 15
_symmetry_cell_setting 'monoclinic'
loop_
_space_group_symop_operation_xyz
x,y,z
-x,y,1/2-z
-x,-y,-z
x,-y,1/2+z
1/2+x,1/2+y,z
1/2-x,1/2+y,1/2-z
1/2-x,1/2-y,-z
1/2+x,1/2-y,1/2+z
loop_
_atom_site_type_symbol
_atom_site_label
_atom_site_fract_x
_atom_site_fract_y
_atom_site_fract_z
Si Si1 0.358672 0.104809 0.038192
Si Si2 0.481951 0.313336 0.108455
Si Si3 0.222725 0.684827 0.880534
Si Si4 0.641533 0.348887 0.973778
Si Si5 0.199319 0.936622 0.675354
Si Si6 0.948851 0.500441 0.663711
Si Si7 0.946364 0.052572 0.677364
Si Si8 0.683310 0.099012 0.066892
O O1 0.412644 0.207189 0.078443
O O2 0.415070 0.030873 0.097482
O O3 0.476763 0.105589 0.022781
O O4 0.147935 0.114335 0.961354
O O5 0.680291 0.322488 0.143815
O O6 0.451514 0.341969 0.156088
O O7 0.043643 0.617306 0.830155
O O8 0.217183 0.800145 0.888018
O O9 0.350000 0.642172 0.963907
O O10 0.442043 0.356215 0.888470
O O11 0.768416 0.415539 0.976492
O O12 0.750000 0.250000 0.000000
O O13 0.274582 0.979671 0.646340
O O14 0.386690 0.937020 0.764014
O O15 0.077116 0.997129 0.677424
O O16 0.000000 0.052639 0.750000
O O17 0.764583 0.990456 0.620261
#
# Coordination Sequence:
#
# PCOD9277167 Si02
#       8
#     8   8   8   8   8   8   8   8
#     4  10  22  40  64  96 127 173 219 277 345 394
#     4  10  22  41  65  91 128 173 228 276 331 415
#     4  10  20  40  68  98 123 175 227 280 334 405
#     4   9  19  38  66  97 130 174 228 281 330 401
#     4  10  22  39  60  97 134 165 221 280 338 402
#     4  11  22  38  65  97 131 172 221 279 344 403
#     4  11  22  42  64  88 128 182 220 273 338 404
#     4   9  21  40  62  93 132 169 221 271 333 408
#
# _framework density 23.248567000000001
#
# number of rings (size 3 to 8) (size 9 to 14) (size 15 to 20)
#    0.000    2.000    1.250    1.500    3.500    2.500 
#    6.750    3.750    0.000    0.000    0.000    0.000 
#    0.000    0.000    0.000    0.000    0.000    0.000 
#
# Total GULP energy -178230.702022 kJ/mol
# GULP energy per Si atom -5569.709438 kJ/mol
# Density = 2.319565 g / cm^3
# Si number density = 23.248567 Si / 1000 Ang^3
#
#
#
# Elastic Constant Matrix: (Units=GPa)
#
#
# Indices 1 2 3 4 5 6 
#
# 1 76.9558 26.5660 26.2909 0.0000 -11.4396 0.0000
# 2 26.5660 80.4393 47.8609 0.0000 -3.9298 0.0000
# 3 26.2909 47.8609 120.3782 0.0000 -22.9753 0.0000
# 4 0.0000 0.0000 0.0000 16.6009 0.0000 2.0991
# 5 -11.4396 -3.9298 -22.9753 0.0000 37.5946 0.0000
# 6 0.0000 0.0000 0.0000 2.0991 0.0000 25.5601
#
#
#
# Elastic Compliance Matrix: (Units=1/GPa)
#
#
# Indices 1 2 3 4 5 6 
#
# 1 0.015353 -0.004338 -0.000932 0.000000 0.003649 0.000000
# 2 -0.004338 0.017729 -0.006792 0.000000 -0.003617 0.000000
# 3 -0.000932 -0.006792 0.012477 0.000000 0.006631 0.000000
# 4 0.000000 0.000000 0.000000 0.060870 0.000000 -0.004999
# 5 0.003649 -0.003617 0.006631 0.000000 0.031384 0.000000
# 6 0.000000 0.000000 0.000000 -0.004999 0.000000 0.039534
#
#
# Mechanical properties :
#
#
# Convention : Reuss Voigt Hill
#
# Bulk Modulus (GPa) = 46.65245 53.24544 49.94894
# Shear Modulus (GPa) = 23.96771 27.75482 25.86126
#
# Velocity S-wave (km/s) = 3.21430 3.45893 3.33886
# Velocity P-wave (km/s) = 5.82117 6.23736 6.03285
#
# Compressibility (1/GPa) = 0.02143510
#
# Stress axis : x y z
#
# Youngs Moduli (GPa) = 65.13533 56.40612 80.14937
#
# Poissons Ratio (x) = 0.24466 0.07471
# Poissons Ratio (y) = 0.28253 0.54435
# Poissons Ratio (z) = 0.06072 0.38310
#
# Static dielectric constant tensor:
#      x y z
#    x 1.858120 0.000000 0.014770 
#    y 0.000000 2.021670 0.000000 
#    z 0.014770 0.000000 1.909400 
# 
# From -- ./inp_files/293110.got.cif
#   From: 2010.05.17/outbox.cif.g08.bks.cpg/sg15_147_cif.got.tgz:293110.got - 2010.06.03 18:47:42.
