data_PCOD9277599
_publ_section_title
;
Structure prediction by ZEFSAII (Michael W. Deem and Ramdas Pophale) SiO2 
 PCOD9277599
Probable space group: C 2/C
;
_chemical_formula_sum "Si O2"
_cell_formula_units_Z 48
_cell_length_a 8.823575
_cell_length_b 28.858784
_cell_length_c 16.832460
_cell_angle_alpha 90.000000
_cell_angle_beta 148.120511
_cell_angle_gamma 90.000000
_cell_volume 2263.677956
_symmetry_space_group_name_H-M "C 2/C"
_symmetry_group_IT_number 15
_symmetry_cell_setting 'monoclinic'
loop_
_space_group_symop_operation_xyz
x,y,z
-x,y,1/2-z
-x,-y,-z
x,-y,1/2+z
1/2+x,1/2+y,z
1/2-x,1/2+y,1/2-z
1/2-x,1/2-y,-z
1/2+x,1/2-y,1/2+z
loop_
_atom_site_type_symbol
_atom_site_label
_atom_site_fract_x
_atom_site_fract_y
_atom_site_fract_z
Si Si1 0.289091 0.272255 0.429828
Si Si2 0.215501 0.694953 0.572079
Si Si3 0.115045 0.537832 0.722174
Si Si4 0.213941 0.844947 0.574907
Si Si5 0.272093 0.054073 0.038495
Si Si6 0.649954 0.901425 0.089440
O O1 0.250000 0.250000 0.500000
O O2 0.509277 0.238544 0.481177
O O3 0.443728 0.322200 0.498660
O O4 0.000000 0.274465 0.250000
O O5 0.500000 0.705739 0.750000
O O6 0.283500 0.675217 0.514418
O O7 0.060506 0.651876 0.547469
O O8 0.040632 0.568481 0.613061
O O9 0.000000 0.562029 0.750000
O O10 0.966213 0.488038 0.652431
O O11 0.457547 0.533973 0.879376
O O12 0.500000 0.831027 0.750000
O O13 0.219344 0.900803 0.569643
O O14 0.414999 0.074027 0.022192
O O15 0.000000 0.899695 0.250000
#
# Coordination Sequence:
#
# PCOD9277599 Si02
#       6
#     8   8   8   8   8   8
#     4  12  25  40  62  96 127 155 198 261 318 361
#     4  10  20  41  66  89 120 166 208 242 301 383
#     4  11  21  36  57  87 120 157 204 258 306 359
#     4  11  23  42  65  88 120 167 210 248 302 378
#     4  10  22  39  60  85 119 161 207 251 305 367
#     4   8  18  36  60  85 116 160 206 248 301 368
#
# _framework density 21.204429999999999
#
# number of rings (size 3 to 8) (size 9 to 14) (size 15 to 20)
#    0.000    1.667    0.000    5.500    0.000    2.000 
#    0.000    3.333    0.000    0.000    0.000    0.000 
#    0.000    0.000    0.000    0.000    0.000    0.000 
#
# Total GULP energy -134101.428519 kJ/mol
# GULP energy per Si atom -5587.559522 kJ/mol
# Density = 2.115617 g / cm^3
# Si number density = 21.204430 Si / 1000 Ang^3
#
#
#
# Elastic Constant Matrix: (Units=GPa)
#
#
# Indices 1 2 3 4 5 6 
#
# 1 74.3158 45.1531 18.0903 0.0000 -7.7833 0.0000
# 2 45.1531 127.9077 36.6913 0.0000 4.8718 0.0000
# 3 18.0903 36.6913 130.0812 0.0000 -5.0916 0.0000
# 4 0.0000 0.0000 0.0000 19.9166 0.0000 11.8323
# 5 -7.7833 4.8718 -5.0916 0.0000 24.9271 0.0000
# 6 0.0000 0.0000 0.0000 11.8323 0.0000 14.2943
#
#
#
# Elastic Compliance Matrix: (Units=1/GPa)
#
#
# Indices 1 2 3 4 5 6 
#
# 1 0.018293 -0.006603 -0.000411 0.000000 0.006918 0.000000
# 2 -0.006603 0.011008 -0.002371 0.000000 -0.004697 0.000000
# 3 -0.000411 -0.002371 0.008494 0.000000 0.002070 0.000000
# 4 0.000000 0.000000 0.000000 0.098791 0.000000 -0.081776
# 5 0.006918 -0.004697 0.002070 0.000000 0.043618 0.000000
# 6 0.000000 0.000000 0.000000 -0.081776 0.000000 0.137648
#
#
# Mechanical properties :
#
#
# Convention : Reuss Voigt Hill
#
# Bulk Modulus (GPa) = 52.55907 59.13045 55.84476
# Shear Modulus (GPa) = 14.57879 27.31895 20.94887
#
# Velocity S-wave (km/s) = 2.62493 3.59327 3.14657
# Velocity P-wave (km/s) = 5.83333 6.72026 6.29244
#
# Compressibility (1/GPa) = 0.01902621
#
# Stress axis : x y z
#
# Youngs Moduli (GPa) = 54.66665 90.84205 117.72624
#
# Poissons Ratio (x) = 0.59986 0.04834
# Poissons Ratio (y) = 0.36098 0.27908
# Poissons Ratio (z) = 0.02245 0.21535
#
# Static dielectric constant tensor:
#      x y z
#    x 1.789950 0.000000 -0.024090 
#    y 0.000000 1.777890 0.000000 
#    z -0.024090 0.000000 1.767360 
# 
# From -- ./inp_files/194343.got.cif
#   From: 2010.05.17/outbox.cif.g08.bks.cpg/sg15_98_cif.got.tgz:194343.got - 2010.06.03 18:47:42.
