data_PCOD9277778
_publ_section_title
;
Structure prediction by ZEFSAII (Michael W. Deem and Ramdas Pophale) SiO2 
 PCOD9277778
Probable space group: C 2/C
;
_chemical_formula_sum "Si O2"
_cell_formula_units_Z 64
_cell_length_a 8.469266
_cell_length_b 28.821109
_cell_length_c 12.369576
_cell_angle_alpha 90.000000
_cell_angle_beta 88.669468
_cell_angle_gamma 90.000000
_cell_volume 3018.520733
_symmetry_space_group_name_H-M "C 2/C"
_symmetry_group_IT_number 15
_symmetry_cell_setting 'monoclinic'
loop_
_space_group_symop_operation_xyz
x,y,z
-x,y,1/2-z
-x,-y,-z
x,-y,1/2+z
1/2+x,1/2+y,z
1/2-x,1/2+y,1/2-z
1/2-x,1/2-y,-z
1/2+x,1/2-y,1/2+z
loop_
_atom_site_type_symbol
_atom_site_label
_atom_site_fract_x
_atom_site_fract_y
_atom_site_fract_z
Si Si1 0.691191 0.380127 0.589053
Si Si2 0.154337 0.128844 0.674171
Si Si3 0.110094 0.170875 0.445552
Si Si4 0.682882 0.196591 0.247953
Si Si5 0.936626 0.454942 0.635308
Si Si6 0.133285 0.643122 0.629120
Si Si7 0.378529 0.245569 0.902339
Si Si8 0.392151 0.938535 0.085247
O O1 0.504446 0.370046 0.599761
O O2 0.780249 0.344473 0.667301
O O3 0.771174 0.429591 0.610566
O O4 0.737436 0.366309 0.466184
O O5 0.135188 0.161921 0.571283
O O6 0.282446 0.146526 0.757706
O O7 0.222808 0.081552 0.620783
O O8 0.000000 0.122351 0.750000
O O9 0.263471 0.177580 0.369448
O O10 0.011922 0.217642 0.428182
O O11 0.500000 0.209462 0.250000
O O12 0.791647 0.238104 0.293231
O O13 0.916625 0.510324 0.631422
O O14 0.000000 0.439924 0.750000
O O15 0.065579 0.441653 0.542244
O O16 0.061180 0.693181 0.604434
O O17 0.017738 0.599397 0.625244
O O18 0.250000 0.250000 0.000000
#
# Coordination Sequence:
#
# PCOD9277778 Si02
#       8
#     8   8   8   8   8   8   8   8
#     4  10  20  41  69  93 131 176 211 284 342 395
#     4  12  24  43  66  96 136 179 226 273 338 409
#     4  11  25  43  65  98 141 178 221 285 344 398
#     4  11  25  42  64  97 137 175 229 288 333 403
#     4  10  21  42  73 105 131 170 230 280 337 407
#     4  11  22  43  70  92 130 183 226 274 339 392
#     4  11  21  43  66  94 134 181 226 278 339 403
#     4  10  25  43  69 101 136 176 224 281 337 407
#
# _framework density 21.202437
#
# number of rings (size 3 to 8) (size 9 to 14) (size 15 to 20)
#    0.000    1.250    3.750    3.000    5.250    3.500 
#    0.000    3.750    0.000    0.000    0.000    0.000 
#    0.000    0.000    0.000    0.000    0.000    0.000 
#
# Total GULP energy -178878.517262 kJ/mol
# GULP energy per Si atom -5589.953664 kJ/mol
# Density = 2.115418 g / cm^3
# Si number density = 21.202437 Si / 1000 Ang^3
#
#
#
# Elastic Constant Matrix: (Units=GPa)
#
#
# Indices 1 2 3 4 5 6 
#
# 1 65.9229 41.8928 52.5943 0.0000 -8.7907 0.0000
# 2 41.8928 129.9830 45.3495 0.0000 3.9347 0.0000
# 3 52.5943 45.3495 140.3131 0.0000 4.2381 0.0000
# 4 0.0000 0.0000 0.0000 24.5163 0.0000 -14.9601
# 5 -8.7907 3.9347 4.2381 0.0000 38.0907 0.0000
# 6 0.0000 0.0000 0.0000 -14.9601 0.0000 28.6498
#
#
#
# Elastic Compliance Matrix: (Units=1/GPa)
#
#
# Indices 1 2 3 4 5 6 
#
# 1 0.026538 -0.005899 -0.008272 0.000000 0.007654 0.000000
# 2 -0.005899 0.009995 -0.000950 0.000000 -0.002288 0.000000
# 3 -0.008272 -0.000950 0.010625 0.000000 -0.002993 0.000000
# 4 0.000000 0.000000 0.000000 0.059864 0.000000 0.031259
# 5 0.007654 -0.002288 -0.002993 0.000000 0.028589 0.000000
# 6 0.000000 0.000000 0.000000 0.031259 0.000000 0.051227
#
#
# Mechanical properties :
#
#
# Convention : Reuss Voigt Hill
#
# Bulk Modulus (GPa) = 59.11517 68.43247 63.77382
# Shear Modulus (GPa) = 22.44976 31.34351 26.89664
#
# Velocity S-wave (km/s) = 3.25750 3.84903 3.56555
# Velocity P-wave (km/s) = 6.48770 7.21798 6.86256
#
# Compressibility (1/GPa) = 0.01691613
#
# Stress axis : x y z
#
# Youngs Moduli (GPa) = 37.68171 100.04733 94.11624
#
# Poissons Ratio (x) = 0.59015 0.77854
# Poissons Ratio (y) = 0.22227 0.08944
# Poissons Ratio (z) = 0.31171 0.09508
#
# Static dielectric constant tensor:
#      x y z
#    x 1.796330 0.000000 -0.022370 
#    y 0.000000 1.754450 0.000000 
#    z -0.022370 0.000000 1.783880 
# 
# From -- ./inp_files/82613.got.cif
#   From: 2010.05.17/outbox.cif.g08.bks.cpg/sg15_42_cif.got.tgz:82613.got - 2010.06.03 18:47:42.
