data_PCOD9277630
_publ_section_title
;
Structure prediction by ZEFSAII (Michael W. Deem and Ramdas Pophale) SiO2 
 PCOD9277630
Probable space group: C 2/C
;
_chemical_formula_sum "Si O2"
_cell_formula_units_Z 56
_cell_length_a 17.366509
_cell_length_b 15.417876
_cell_length_c 10.747799
_cell_angle_alpha 90.000000
_cell_angle_beta 110.778062
_cell_angle_gamma 90.000000
_cell_volume 2690.607650
_symmetry_space_group_name_H-M "C 2/C"
_symmetry_group_IT_number 15
_symmetry_cell_setting 'monoclinic'
loop_
_space_group_symop_operation_xyz
x,y,z
-x,y,1/2-z
-x,-y,-z
x,-y,1/2+z
1/2+x,1/2+y,z
1/2-x,1/2+y,1/2-z
1/2-x,1/2-y,-z
1/2+x,1/2-y,1/2+z
loop_
_atom_site_type_symbol
_atom_site_label
_atom_site_fract_x
_atom_site_fract_y
_atom_site_fract_z
Si Si1 0.258775 0.587474 0.261412
Si Si2 0.761562 0.390617 0.245260
Si Si3 0.413410 0.201588 0.727480
Si Si4 0.652077 0.752260 0.583174
Si Si5 0.688438 0.671809 0.957168
Si Si6 0.492967 0.663141 0.606411
Si Si7 0.058413 0.103046 0.175503
O O1 0.220429 0.492491 0.247788
O O2 0.204894 0.667864 0.175058
O O3 0.286676 0.610430 0.416302
O O4 0.347994 0.574554 0.248425
O O5 0.849610 0.345061 0.280979
O O6 0.706022 0.336680 0.113636
O O7 0.708360 0.372597 0.338221
O O8 0.500000 0.154470 0.750000
O O9 0.372181 0.221088 0.570105
O O10 0.436256 0.292708 0.803463
O O11 0.568717 0.725796 0.611410
O O12 0.596820 0.706259 0.929055
O O13 0.750000 0.750000 0.000000
O O14 0.500000 0.625120 0.750000
O O15 0.479695 0.596047 0.484800
O O16 0.000000 0.069432 0.250000
#
# Coordination Sequence:
#
# PCOD9277630 Si02
#       7
#     8   8   8   8   8   8   8
#     4  11  26  42  65 104 132 179 229 273 341 405
#     4  12  25  43  70  97 138 176 223 282 334 410
#     4  11  23  42  72  96 129 176 227 279 338 392
#     4  12  23  42  70  97 131 179 222 276 336 402
#     4  11  22  44  68  92 137 183 217 280 343 399
#     4  11  20  38  67 100 126 174 226 267 337 400
#     4  10  20  41  66  94 135 176 219 281 330 395
#
# _framework density 20.813141999999999
#
# number of rings (size 3 to 8) (size 9 to 14) (size 15 to 20)
#    0.000    0.857    7.143    1.286    2.000    0.000 
#    2.571    4.286    0.000    0.000    0.000    0.000 
#    0.000    0.000    0.000    0.000    0.000    0.000 
#
# Total GULP energy -156088.824554 kJ/mol
# GULP energy per Si atom -5574.600877 kJ/mol
# Density = 2.076577 g / cm^3
# Si number density = 20.813142 Si / 1000 Ang^3
#
#
#
# Elastic Constant Matrix: (Units=GPa)
#
#
# Indices 1 2 3 4 5 6 
#
# 1 150.9615 33.3896 24.5446 0.0000 1.6840 0.0000
# 2 33.3896 95.6859 15.0520 0.0000 7.2846 0.0000
# 3 24.5446 15.0520 114.4531 0.0000 -7.0771 0.0000
# 4 0.0000 0.0000 0.0000 -9.9326 0.0000 1.4609
# 5 1.6840 7.2846 -7.0771 0.0000 29.2692 0.0000
# 6 0.0000 0.0000 0.0000 1.4609 0.0000 11.5196
#
#
#
# Elastic Compliance Matrix: (Units=1/GPa)
#
#
# Indices 1 2 3 4 5 6 
#
# 1 0.007354 -0.002354 -0.001276 0.000000 -0.000146 0.000000
# 2 -0.002354 0.011699 -0.001224 0.000000 -0.003072 0.000000
# 3 -0.001276 -0.001224 0.009335 0.000000 0.002635 0.000000
# 4 0.000000 0.000000 0.000000 -0.098834 0.000000 0.012534
# 5 -0.000146 -0.003072 0.002635 0.000000 0.035576 0.000000
# 6 0.000000 0.000000 0.000000 0.012534 0.000000 0.085219
#
#
# Mechanical properties :
#
#
# Convention : Reuss Voigt Hill
#
# Bulk Modulus (GPa) = 53.53650 56.34144 54.93897
# Shear Modulus (GPa) = 75.43421 25.37884 50.40653
#
# Velocity S-wave (km/s) = 6.02679 3.49573 4.92658
# Velocity P-wave (km/s) = 8.61440 6.58957 7.66910
#
# Compressibility (1/GPa) = 0.01867885
#
# Stress axis : x y z
#
# Youngs Moduli (GPa) = 135.97853 85.47922 107.12595
#
# Poissons Ratio (x) = 0.20124 0.13675
# Poissons Ratio (y) = 0.32014 0.13108
# Poissons Ratio (z) = 0.17358 0.10459
#
# Static dielectric constant tensor:
#      x y z
#    x 1.792090 0.000000 0.018680 
#    y 0.000000 1.841670 0.000000 
#    z 0.018680 0.000000 1.792590 
# 
# From -- ./inp_files/105785.got.cif
#   From: 2010.05.17/outbox.cif.g08.bks.cpg/sg15_53_cif.got.tgz:105785.got - 2010.06.03 18:47:42.
