data_PCOD9277688
_publ_section_title
;
Structure prediction by ZEFSAII (Michael W. Deem and Ramdas Pophale) SiO2 
 PCOD9277688
Probable space group: C 2/C
;
_chemical_formula_sum "Si O2"
_cell_formula_units_Z 48
_cell_length_a 18.241251
_cell_length_b 14.790727
_cell_length_c 8.613761
_cell_angle_alpha 90.000000
_cell_angle_beta 93.735195
_cell_angle_gamma 90.000000
_cell_volume 2319.067790
_symmetry_space_group_name_H-M "C 2/C"
_symmetry_group_IT_number 15
_symmetry_cell_setting 'monoclinic'
loop_
_space_group_symop_operation_xyz
x,y,z
-x,y,1/2-z
-x,-y,-z
x,-y,1/2+z
1/2+x,1/2+y,z
1/2-x,1/2+y,1/2-z
1/2-x,1/2-y,-z
1/2+x,1/2-y,1/2+z
loop_
_atom_site_type_symbol
_atom_site_label
_atom_site_fract_x
_atom_site_fract_y
_atom_site_fract_z
Si Si1 0.922322 0.633765 0.707584
Si Si2 0.730065 0.910918 0.814968
Si Si3 0.054138 0.958418 0.879759
Si Si4 0.154457 0.063000 0.659736
Si Si5 0.869291 0.502345 0.450824
Si Si6 0.234191 0.723670 0.818657
O O1 0.914373 0.580084 0.544373
O O2 0.915194 0.555267 0.835863
O O3 0.850267 0.694872 0.710068
O O4 0.000000 0.679688 0.750000
O O5 0.747576 0.807205 0.789822
O O6 0.801214 0.970272 0.865498
O O7 0.697318 0.949728 0.649541
O O8 0.667969 0.934422 0.931809
O O9 0.000000 0.909755 0.750000
O O10 0.097021 0.035358 0.786375
O O11 0.113754 0.907719 0.994529
O O12 0.000000 0.000000 0.000000
O O13 0.213578 0.138463 0.712848
O O14 0.250000 0.750000 0.000000
#
# Coordination Sequence:
#
# PCOD9277688 Si02
#       6
#     8   8   8   8   8   8
#     4  11  23  41  65  97 132 169 213 266 335 386
#     4  11  21  39  66  98 123 161 219 268 315 372
#     4   9  20  38  62  91 124 168 208 260 318 382
#     4  11  20  39  68  89 124 171 216 260 322 383
#     4  10  20  41  67  93 128 167 213 270 323 378
#     4  12  23  39  67  96 129 169 219 272 316 384
#
# _framework density 20.697973000000001
#
# number of rings (size 3 to 8) (size 9 to 14) (size 15 to 20)
#    0.000    1.333    5.000    2.500    0.000    0.667 
#    0.000    8.333    3.667    0.000    0.000    0.000 
#    0.000    0.000    0.000    0.000    0.000    0.000 
#
# Total GULP energy -134048.264226 kJ/mol
# GULP energy per Si atom -5585.344343 kJ/mol
# Density = 2.065086 g / cm^3
# Si number density = 20.697973 Si / 1000 Ang^3
#
#
#
# Elastic Constant Matrix: (Units=GPa)
#
#
# Indices 1 2 3 4 5 6 
#
# 1 133.1700 33.3888 28.3629 0.0000 28.3800 0.0000
# 2 33.3888 81.0412 7.3296 0.0000 10.9126 0.0000
# 3 28.3629 7.3296 76.4200 0.0000 15.2571 0.0000
# 4 0.0000 0.0000 0.0000 23.8380 0.0000 -0.3587
# 5 28.3800 10.9126 15.2571 0.0000 35.8701 0.0000
# 6 0.0000 0.0000 0.0000 -0.3587 0.0000 3.3326
#
#
#
# Elastic Compliance Matrix: (Units=1/GPa)
#
#
# Indices 1 2 3 4 5 6 
#
# 1 0.010058 -0.003127 -0.002223 0.000000 -0.006061 0.000000
# 2 -0.003127 0.013856 0.000196 0.000000 -0.001825 0.000000
# 3 -0.002223 0.000196 0.014810 0.000000 -0.004600 0.000000
# 4 0.000000 0.000000 0.000000 0.042018 0.000000 0.004523
# 5 -0.006061 -0.001825 -0.004600 0.000000 0.035186 0.000000
# 6 0.000000 0.000000 0.000000 0.004523 0.000000 0.300551
#
#
# Mechanical properties :
#
#
# Convention : Reuss Voigt Hill
#
# Bulk Modulus (GPa) = 35.19116 47.64375 41.41746
# Shear Modulus (GPa) = 11.46109 27.37814 19.41961
#
# Velocity S-wave (km/s) = 2.35570 3.64090 3.06639
# Velocity P-wave (km/s) = 4.94350 6.38306 5.70884
#
# Compressibility (1/GPa) = 0.02841622
#
# Stress axis : x y z
#
# Youngs Moduli (GPa) = 99.41994 72.17291 67.52060
#
# Poissons Ratio (x) = 0.22567 0.15010
# Poissons Ratio (y) = 0.31086 -0.01322
# Poissons Ratio (z) = 0.22102 -0.01414
#
# Static dielectric constant tensor:
#      x y z
#    x 1.781670 0.000000 0.023310 
#    y 0.000000 1.694190 0.000000 
#    z 0.023310 0.000000 1.777140 
# 
# From -- ./inp_files/47467.got.cif
#   From: 2010.05.17/outbox.cif.g08.bks.cpg/sg15_24_cif.got.tgz:47467.got - 2010.06.03 18:47:42.
