data_PCOD9277722
_publ_section_title
;
Structure prediction by ZEFSAII (Michael W. Deem and Ramdas Pophale) SiO2 
 PCOD9277722
Probable space group: C 2/C
;
_chemical_formula_sum "Si O2"
_cell_formula_units_Z 56
_cell_length_a 16.397405
_cell_length_b 17.823799
_cell_length_c 8.036442
_cell_angle_alpha 90.000000
_cell_angle_beta 106.322928
_cell_angle_gamma 90.000000
_cell_volume 2254.091267
_symmetry_space_group_name_H-M "C 2/C"
_symmetry_group_IT_number 15
_symmetry_cell_setting 'monoclinic'
loop_
_space_group_symop_operation_xyz
x,y,z
-x,y,1/2-z
-x,-y,-z
x,-y,1/2+z
1/2+x,1/2+y,z
1/2-x,1/2+y,1/2-z
1/2-x,1/2-y,-z
1/2+x,1/2-y,1/2+z
loop_
_atom_site_type_symbol
_atom_site_label
_atom_site_fract_x
_atom_site_fract_y
_atom_site_fract_z
Si Si1 0.969939 0.377551 0.973200
Si Si2 0.582517 0.708676 0.582028
Si Si3 0.254943 0.181429 0.839651
Si Si4 0.860453 0.418481 0.593731
Si Si5 0.820032 0.170001 0.210591
Si Si6 0.967848 0.080175 0.420269
Si Si7 0.817790 0.414101 0.076793
O O1 0.964173 0.288307 0.941099
O O2 0.911981 0.414346 0.795039
O O3 0.064132 0.408216 0.999234
O O4 0.916792 0.394320 0.108472
O O5 0.655937 0.699158 0.761167
O O6 0.628820 0.696951 0.427768
O O7 0.514966 0.642767 0.554731
O O8 0.304500 0.254292 0.803145
O O9 0.276804 0.114355 0.723437
O O10 0.294631 0.149519 0.030850
O O11 0.812623 0.497104 0.553655
O O12 0.870944 0.106905 0.343235
O O13 0.734571 0.132959 0.090506
O O14 0.000000 0.085409 0.250000
O O15 0.000000 0.000000 0.500000
#
# Coordination Sequence:
#
# PCOD9277722 Si02
#       7
#     8   8   8   8   8   8   8
#     4  11  22  44  58  89 133 164 205 252 317 382
#     4  10  20  41  68  85 125 165 208 259 302 376
#     4  11  21  41  66  96 118 163 221 252 309 375
#     4  11  26  36  60  96 130 161 202 261 325 371
#     4  10  20  41  69  92 120 167 220 251 304 376
#     4  10  23  42  62  94 124 161 209 259 313 365
#     4  11  21  41  65  89 125 167 210 260 306 375
#
# _framework density 24.843715
#
# number of rings (size 3 to 8) (size 9 to 14) (size 15 to 20)
#    0.000    1.429    2.857    3.000    2.000    2.286 
#    7.714    0.000    0.000    0.000    0.000    0.000 
#    0.000    0.000    0.000    0.000    0.000    0.000 
#
# Total GULP energy -156848.813362 kJ/mol
# GULP energy per Si atom -5601.743334 kJ/mol
# Density = 2.478717 g / cm^3
# Si number density = 24.843715 Si / 1000 Ang^3
#
#
#
# Elastic Constant Matrix: (Units=GPa)
#
#
# Indices 1 2 3 4 5 6 
#
# 1 74.7578 17.6322 14.3777 0.0000 1.6369 0.0000
# 2 17.6322 165.1511 32.1231 0.0000 7.7223 0.0000
# 3 14.3777 32.1231 74.4215 0.0000 12.4762 0.0000
# 4 0.0000 0.0000 0.0000 34.4694 0.0000 -3.1674
# 5 1.6369 7.7223 12.4762 0.0000 35.2388 0.0000
# 6 0.0000 0.0000 0.0000 -3.1674 0.0000 30.3868
#
#
#
# Elastic Compliance Matrix: (Units=1/GPa)
#
#
# Indices 1 2 3 4 5 6 
#
# 1 0.014067 -0.001069 -0.002324 0.000000 0.000404 0.000000
# 2 -0.001069 0.006698 -0.002601 0.000000 -0.000497 0.000000
# 3 -0.002324 -0.002601 0.015835 0.000000 -0.004928 0.000000
# 4 0.000000 0.000000 0.000000 0.029292 0.000000 0.003053
# 5 0.000404 -0.000497 -0.004928 0.000000 0.030213 0.000000
# 6 0.000000 0.000000 0.000000 0.003053 0.000000 0.033227
#
#
# Mechanical properties :
#
#
# Convention : Reuss Voigt Hill
#
# Bulk Modulus (GPa) = 40.63068 49.17737 44.90403
# Shear Modulus (GPa) = 33.43938 36.69882 35.06910
#
# Velocity S-wave (km/s) = 3.67275 3.84759 3.76119
# Velocity P-wave (km/s) = 5.86306 6.29097 6.08078
#
# Compressibility (1/GPa) = 0.02461194
#
# Stress axis : x y z
#
# Youngs Moduli (GPa) = 71.08986 149.28918 63.15115
#
# Poissons Ratio (x) = 0.15954 0.14676
# Poissons Ratio (y) = 0.07597 0.16429
# Poissons Ratio (z) = 0.16521 0.38837
#
# Static dielectric constant tensor:
#      x y z
#    x 2.005610 0.000000 -0.050610 
#    y 0.000000 1.939300 0.000000 
#    z -0.050610 0.000000 2.046620 
# 
# From -- ./inp_files/49140.got.cif
#   From: 2010.05.17/outbox.cif.g08.bks.cpg/sg15_25_cif.got.tgz:49140.got - 2010.06.03 18:47:42.
