data_PCOD9277353
_publ_section_title
;
Structure prediction by ZEFSAII (Michael W. Deem and Ramdas Pophale) SiO2 
 PCOD9277353
Probable space group: C 2/C
;
_chemical_formula_sum "Si O2"
_cell_formula_units_Z 64
_cell_length_a 25.952439
_cell_length_b 11.841457
_cell_length_c 22.379697
_cell_angle_alpha 90.000000
_cell_angle_beta 153.334224
_cell_angle_gamma 90.000000
_cell_volume 3086.570034
_symmetry_space_group_name_H-M "C 2/C"
_symmetry_group_IT_number 15
_symmetry_cell_setting 'monoclinic'
loop_
_space_group_symop_operation_xyz
x,y,z
-x,y,1/2-z
-x,-y,-z
x,-y,1/2+z
1/2+x,1/2+y,z
1/2-x,1/2+y,1/2-z
1/2-x,1/2-y,-z
1/2+x,1/2-y,1/2+z
loop_
_atom_site_type_symbol
_atom_site_label
_atom_site_fract_x
_atom_site_fract_y
_atom_site_fract_z
Si Si1 0.073131 0.485138 0.445435
Si Si2 0.427787 0.406259 0.295426
Si Si3 0.316301 0.397372 0.744313
Si Si4 0.195932 0.607998 0.479810
Si Si5 0.252973 0.578524 0.308365
Si Si6 0.127821 0.648682 0.702390
Si Si7 0.988029 0.689321 0.436039
Si Si8 0.650756 0.355466 0.466570
O O1 0.189822 0.443974 0.597849
O O2 0.110331 0.513868 0.416433
O O3 0.969662 0.401311 0.354598
O O4 0.037294 0.605254 0.436798
O O5 0.410622 0.524685 0.310529
O O6 0.305668 0.381794 0.137950
O O7 0.460677 0.308526 0.376712
O O8 0.526181 0.409121 0.347162
O O9 0.329877 0.409708 0.829625
O O10 0.323668 0.269564 0.729244
O O11 0.253235 0.585540 0.475235
O O12 0.138814 0.731352 0.425252
O O13 0.222964 0.448711 0.292394
O O14 0.132798 0.637544 0.168625
O O15 0.300344 0.642002 0.415455
O O16 0.069753 0.675278 0.577795
#
# Coordination Sequence:
#
# PCOD9277353 Si02
#       8
#     8   8   8   8   8   8   8   8
#     4  10  20  41  59  84 124 160 196 250 310 361
#     4  11  23  38  62  91 126 155 202 257 311 363
#     4  11  24  36  62  92 120 167 201 251 308 370
#     4  10  22  39  63  89 119 164 196 254 318 360
#     4  11  22  38  60  90 124 163 200 250 308 373
#     4  11  23  38  60  87 127 163 212 240 301 377
#     4  11  19  37  60  88 122 164 192 251 309 367
#     4  11  22  38  61  92 125 149 204 261 302 366
#
# _framework density 20.73499
#
# number of rings (size 3 to 8) (size 9 to 14) (size 15 to 20)
#    0.000    1.250    5.000    1.875    1.750    3.000 
#    0.000    2.500    0.000    9.750    0.000    0.000 
#    0.000    0.000    0.000    0.000    0.000    0.000 
#
# Total GULP energy -178753.529428 kJ/mol
# GULP energy per Si atom -5586.047795 kJ/mol
# Density = 2.068780 g / cm^3
# Si number density = 20.734990 Si / 1000 Ang^3
#
#
#
# Elastic Constant Matrix: (Units=GPa)
#
#
# Indices 1 2 3 4 5 6 
#
# 1 140.1635 40.9356 7.1853 0.0000 35.6846 0.0000
# 2 40.9356 96.7493 5.1918 0.0000 19.6119 0.0000
# 3 7.1853 5.1918 36.3250 0.0000 12.2452 0.0000
# 4 0.0000 0.0000 0.0000 10.5836 0.0000 -5.4196
# 5 35.6846 19.6119 12.2452 0.0000 30.8670 0.0000
# 6 0.0000 0.0000 0.0000 -5.4196 0.0000 16.0706
#
#
#
# Elastic Compliance Matrix: (Units=1/GPa)
#
#
# Indices 1 2 3 4 5 6 
#
# 1 0.010679 -0.002247 0.002181 0.000000 -0.011783 0.000000
# 2 -0.002247 0.012367 0.000520 0.000000 -0.005466 0.000000
# 3 0.002181 0.000520 0.032305 0.000000 -0.015667 0.000000
# 4 0.000000 0.000000 0.000000 0.114208 0.000000 0.038515
# 5 -0.011783 -0.005466 -0.015667 0.000000 0.055708 0.000000
# 6 0.000000 0.000000 0.000000 0.038515 0.000000 0.075214
#
#
# Mechanical properties :
#
#
# Convention : Reuss Voigt Hill
#
# Bulk Modulus (GPa) = 17.77525 42.20701 29.99113
# Shear Modulus (GPa) = 15.70717 26.16591 20.93654
#
# Velocity S-wave (km/s) = 2.75529 3.55621 3.18106
# Velocity P-wave (km/s) = 4.32590 6.10424 5.29033
#
# Compressibility (1/GPa) = 0.05625799
#
# Stress axis : x y z
#
# Youngs Moduli (GPa) = 93.64319 80.86171 30.95493
#
# Poissons Ratio (x) = 0.18168 -0.06751
# Poissons Ratio (y) = 0.21040 -0.01608
# Poissons Ratio (z) = -0.20423 -0.04201
#
# Static dielectric constant tensor:
#      x y z
#    x 1.782040 0.000000 -0.002270 
#    y 0.000000 1.740330 0.000000 
#    z -0.002270 0.000000 1.781890 
# 
# From -- ./inp_files/117554.got.cif
#   From: 2010.05.17/outbox.cif.g08.bks.cpg/sg15_59_cif.got.tgz:117554.got - 2010.06.03 18:47:42.
