data_PCOD9277666
_publ_section_title
;
Structure prediction by ZEFSAII (Michael W. Deem and Ramdas Pophale) SiO2 
 PCOD9277666
Probable space group: C 2/C
;
_chemical_formula_sum "Si O2"
_cell_formula_units_Z 48
_cell_length_a 13.807338
_cell_length_b 9.039798
_cell_length_c 26.662950
_cell_angle_alpha 90.000000
_cell_angle_beta 37.454481
_cell_angle_gamma 90.000000
_cell_volume 2023.829813
_symmetry_space_group_name_H-M "C 2/C"
_symmetry_group_IT_number 15
_symmetry_cell_setting 'monoclinic'
loop_
_space_group_symop_operation_xyz
x,y,z
-x,y,1/2-z
-x,-y,-z
x,-y,1/2+z
1/2+x,1/2+y,z
1/2-x,1/2+y,1/2-z
1/2-x,1/2-y,-z
1/2+x,1/2-y,1/2+z
loop_
_atom_site_type_symbol
_atom_site_label
_atom_site_fract_x
_atom_site_fract_y
_atom_site_fract_z
Si Si1 0.333817 0.099829 0.513545
Si Si2 0.783123 0.870801 0.705867
Si Si3 0.187664 0.576560 0.663948
Si Si4 0.913357 0.682987 0.367605
Si Si5 0.679739 0.598342 0.190938
Si Si6 0.048226 0.348187 0.434854
O O1 0.158690 0.152067 0.601045
O O2 0.387776 0.139592 0.435803
O O3 0.432705 0.191169 0.514757
O O4 0.381392 0.929369 0.496564
O O5 0.778081 0.023613 0.676979
O O6 0.598091 0.817151 0.776292
O O7 0.819816 0.874071 0.749197
O O8 0.907348 0.771055 0.624418
O O9 0.186995 0.440245 0.623633
O O10 0.224019 0.749820 0.643200
O O11 0.000000 0.584479 0.750000
O O12 0.500000 0.555229 0.250000
O O13 0.813695 0.473682 0.128154
#
# Coordination Sequence:
#
# PCOD9277666 Si02
#       6
#     8   8   8   8   8   8
#     4  10  22  39  65  91 130 159 209 254 318 359
#     4  11  21  40  67  91 118 171 221 246 292 380
#     4   9  20  38  61  89 119 162 205 253 302 362
#     4  10  20  41  67  89 118 174 213 248 293 395
#     4  11  24  37  60  94 130 153 204 268 312 350
#     4  11  23  40  64  95 125 163 206 264 310 363
#
# _framework density 23.717407999999999
#
# number of rings (size 3 to 8) (size 9 to 14) (size 15 to 20)
#    0.000    1.667    3.333    1.000    7.000    0.000 
#    0.000    1.667    0.000    0.000    0.000    0.000 
#    0.000    0.000    0.000    0.000    0.000    0.000 
#
# Total GULP energy -133825.492505 kJ/mol
# GULP energy per Si atom -5576.062188 kJ/mol
# Density = 2.366343 g / cm^3
# Si number density = 23.717408 Si / 1000 Ang^3
#
#
#
# Elastic Constant Matrix: (Units=GPa)
#
#
# Indices 1 2 3 4 5 6 
#
# 1 93.0977 18.1042 18.8845 0.0000 21.0770 0.0000
# 2 18.1042 76.8356 31.9858 -0.0001 -4.8837 0.0000
# 3 18.8845 31.9858 71.5993 0.0000 19.6781 0.0000
# 4 0.0000 -0.0001 0.0000 47.4334 0.0000 -3.8496
# 5 21.0770 -4.8837 19.6781 0.0000 40.5064 0.0000
# 6 0.0000 0.0000 0.0000 -3.8496 0.0000 26.0736
#
#
#
# Elastic Compliance Matrix: (Units=1/GPa)
#
#
# Indices 1 2 3 4 5 6 
#
# 1 0.013067 -0.003621 0.000185 0.000000 -0.007325 0.000000
# 2 -0.003621 0.018480 -0.009730 0.000000 0.008839 0.000000
# 3 0.000185 -0.009730 0.021482 0.000000 -0.011705 0.000000
# 4 0.000000 0.000000 0.000000 0.021338 0.000000 0.003150
# 5 -0.007325 0.008839 -0.011705 0.000000 0.035251 0.000000
# 6 0.000000 0.000000 0.000000 0.003150 0.000000 0.038818
#
#
# Mechanical properties :
#
#
# Convention : Reuss Voigt Hill
#
# Bulk Modulus (GPa) = 37.45976 42.16462 39.81219
# Shear Modulus (GPa) = 27.22311 34.30655 30.76483
#
# Velocity S-wave (km/s) = 3.39161 3.80738 3.60549
# Velocity P-wave (km/s) = 5.58264 6.09464 5.84425
#
# Compressibility (1/GPa) = 0.02669531
#
# Stress axis : x y z
#
# Youngs Moduli (GPa) = 76.53110 54.11143 46.55138
#
# Poissons Ratio (x) = 0.19595 -0.00860
# Poissons Ratio (y) = 0.27714 0.45295
# Poissons Ratio (z) = -0.01413 0.52651
#
# Static dielectric constant tensor:
#      x y z
#    x 1.979430 0.000000 -0.002970 
#    y 0.000000 1.978430 0.000000 
#    z -0.002970 0.000000 1.893200 
# 
# From -- ./inp_files/295412.got.cif
#   From: 2010.05.17/outbox.cif.g08.bks.cpg/sg15_148_cif.got.tgz:295412.got - 2010.06.03 18:47:42.
