data_PCOD9277192
_publ_section_title
;
Structure prediction by ZEFSAII (Michael W. Deem and Ramdas Pophale) SiO2 
 PCOD9277192
Probable space group: C 2/C
;
_chemical_formula_sum "Si O2"
_cell_formula_units_Z 60
_cell_length_a 8.676600
_cell_length_b 11.507504
_cell_length_c 27.626514
_cell_angle_alpha 90.000000
_cell_angle_beta 67.207718
_cell_angle_gamma 90.000000
_cell_volume 2543.008675
_symmetry_space_group_name_H-M "C 2/C"
_symmetry_group_IT_number 15
_symmetry_cell_setting 'monoclinic'
loop_
_space_group_symop_operation_xyz
x,y,z
-x,y,1/2-z
-x,-y,-z
x,-y,1/2+z
1/2+x,1/2+y,z
1/2-x,1/2+y,1/2-z
1/2-x,1/2-y,-z
1/2+x,1/2-y,1/2+z
loop_
_atom_site_type_symbol
_atom_site_label
_atom_site_fract_x
_atom_site_fract_y
_atom_site_fract_z
Si Si1 0.220683 0.612823 0.516639
Si Si2 0.377573 0.965536 0.564434
Si Si3 0.216778 0.538412 0.821508
Si Si4 0.956001 0.703257 0.812353
Si Si5 0.609746 0.293322 0.413953
Si Si6 0.167000 0.931361 0.789986
Si Si7 0.500000 0.832705 0.750000
Si Si8 0.995600 0.169671 0.831641
O O1 0.250000 0.750000 0.500000
O O2 0.254389 0.534726 0.464342
O O3 0.332878 0.612540 0.552213
O O4 0.028954 0.561151 0.546698
O O5 0.435137 0.830519 0.556148
O O6 0.295244 0.975524 0.626383
O O7 0.043603 0.591563 0.825529
O O8 0.304483 0.461603 0.770169
O O9 0.331075 0.648863 0.819779
O O10 0.051162 0.822233 0.814174
O O11 0.000000 0.690732 0.750000
O O12 0.771070 0.713235 0.857662
O O13 0.465056 0.307033 0.391352
O O14 0.349489 0.908176 0.788781
O O15 0.092376 0.049135 0.819006
O O16 0.579475 0.764054 0.786169
#
# Coordination Sequence:
#
# PCOD9277192 Si02
#       8
#     8   8   8   8   8   8   4   8
#     4   9  20  40  67  98 122 157 223 281 331 401
#     4  10  20  40  69  92 123 164 215 277 338 391
#     4  12  23  40  61  90 130 173 214 269 333 385
#     4  12  23  39  60  93 125 171 223 262 314 406
#     4  11  23  39  65  95 124 166 217 266 332 402
#     4  12  24  39  63  86 135 177 218 263 326 381
#     4  12  24  40  56  92 124 176 222 270 316 388
#     4  12  24  42  57  93 139 168 216 275 318 399
#
# _framework density 23.594101999999999
#
# number of rings (size 3 to 8) (size 9 to 14) (size 15 to 20)
#    0.000    0.800    4.000    4.800    2.800    1.067 
#    0.000    0.667    0.000    7.200    0.000    0.000 
#    0.000    0.000    0.000    0.000    0.000    0.000 
#
# Total GULP energy -167168.370745 kJ/mol
# GULP energy per Si atom -5572.279025 kJ/mol
# Density = 2.354040 g / cm^3
# Si number density = 23.594102 Si / 1000 Ang^3
#
#
#
# Elastic Constant Matrix: (Units=GPa)
#
#
# Indices 1 2 3 4 5 6 
#
# 1 53.6801 47.0665 4.9132 0.0000 20.6035 0.0000
# 2 47.0665 60.4169 46.5811 0.0000 9.5560 -0.0001
# 3 4.9132 46.5811 72.2753 0.0000 40.6082 0.0000
# 4 0.0000 0.0000 0.0000 32.9943 0.0000 -4.3674
# 5 20.6035 9.5560 40.6082 0.0000 33.1018 0.0000
# 6 0.0000 -0.0001 0.0000 -4.3674 0.0000 1414.3139
#
#
#
# Elastic Compliance Matrix: (Units=1/GPa)
#
#
# Indices 1 2 3 4 5 6 
#
# 1 -0.000682 0.013961 -0.022287 0.000000 0.023736 0.000000
# 2 0.013961 -0.004299 0.019330 0.000000 -0.031162 0.000000
# 3 -0.022287 0.019330 -0.005684 0.000000 0.015265 0.000000
# 4 0.000000 0.000000 0.000000 0.030321 0.000000 0.000094
# 5 0.023736 -0.031162 0.015265 0.000000 0.005706 0.000000
# 6 0.000000 0.000000 0.000000 0.000094 0.000000 0.000707
#
#
# Mechanical properties :
#
#
# Convention : Reuss Voigt Hill
#
# Bulk Modulus (GPa) = 88.16508 42.61042 65.38775
# Shear Modulus (GPa) = 637.61777 301.93611 469.77694
#
# Velocity S-wave (km/s) = 16.45695 11.32470 14.12586
# Velocity P-wave (km/s) = 19.96389 13.75127 17.14139
#
# Compressibility (1/GPa) = 0.01134236
#
# Stress axis : x y z
#
# Youngs Moduli (GPa) = -1465.36518 -232.61035 -175.93802
#
# Poissons Ratio (x) = 3.24745 -3.92122
# Poissons Ratio (y) = 20.45783 3.40095
# Poissons Ratio (z) = -32.65932 4.49645
#
# Static dielectric constant tensor:
#      x y z
#    x 2.082910 0.000000 0.046640 
#    y 0.000000 2.016050 0.000000 
#    z 0.046640 0.000000 1.997330 
# 
# From -- ./inp_files/307456.got.cif
#   From: 2010.05.17/outbox.cif.g08.bks.cpg/sg15_154_cif.got.tgz:307456.got - 2010.06.03 18:47:42.
