data_PCOD9277552
_publ_section_title
;
Structure prediction by ZEFSAII (Michael W. Deem and Ramdas Pophale) SiO2 
 PCOD9277552
Probable space group: C 2/C
;
_chemical_formula_sum "Si O2"
_cell_formula_units_Z 40
_cell_length_a 9.878501
_cell_length_b 12.362179
_cell_length_c 22.379511
_cell_angle_alpha 90.000000
_cell_angle_beta 40.335625
_cell_angle_gamma 90.000000
_cell_volume 1768.960064
_symmetry_space_group_name_H-M "C 2/C"
_symmetry_group_IT_number 15
_symmetry_cell_setting 'monoclinic'
loop_
_space_group_symop_operation_xyz
x,y,z
-x,y,1/2-z
-x,-y,-z
x,-y,1/2+z
1/2+x,1/2+y,z
1/2-x,1/2+y,1/2-z
1/2-x,1/2-y,-z
1/2+x,1/2-y,1/2+z
loop_
_atom_site_type_symbol
_atom_site_label
_atom_site_fract_x
_atom_site_fract_y
_atom_site_fract_z
Si Si1 0.500000 0.747530 0.250000
Si Si2 0.572338 0.197046 0.853370
Si Si3 0.378342 0.619423 0.479365
Si Si4 0.354261 0.407665 0.425232
Si Si5 0.053261 0.723333 0.429906
Si Si6 0.000000 0.094721 0.750000
O O1 0.444588 0.820783 0.211548
O O2 0.287115 0.684945 0.336603
O O3 0.525765 0.322693 0.881365
O O4 0.790707 0.162712 0.806560
O O5 0.368086 0.140088 0.950278
O O6 0.398602 0.492094 0.463600
O O7 0.428407 0.689520 0.521959
O O8 0.467536 0.294468 0.403287
O O9 0.441330 0.455732 0.333968
O O10 0.111465 0.371750 0.502750
#
# Coordination Sequence:
#
# PCOD9277552 Si02
#       6
#     4   8   8   8   8   4
#     4  10  20  41  65  90 128 180 212 269 349 394
#     4  10  22  42  64  91 137 172 223 286 335 404
#     4  10  22  43  64  92 132 181 223 280 343 407
#     4  11  23  40  68  97 133 175 229 279 343 409
#     4  10  21  42  66  94 133 177 221 286 337 406
#     4  12  22  43  63 100 132 174 226 289 333 408
#
# _framework density 22.612154
#
# number of rings (size 3 to 8) (size 9 to 14) (size 15 to 20)
#    0.000    1.600    4.000    0.600    0.000    1.600 
#    3.600    1.000    0.000    0.000    0.000    0.000 
#    0.000    0.000    0.000    0.000    0.000    0.000 
#
# Total GULP energy -111513.403097 kJ/mol
# GULP energy per Si atom -5575.670155 kJ/mol
# Density = 2.256069 g / cm^3
# Si number density = 22.612154 Si / 1000 Ang^3
#
#
#
# Elastic Constant Matrix: (Units=GPa)
#
#
# Indices 1 2 3 4 5 6 
#
# 1 92.4905 -0.6469 20.8619 0.0001 3.8447 -0.0001
# 2 -0.6469 66.6281 13.1600 0.0002 4.1194 -0.0001
# 3 20.8619 13.1600 89.0336 0.0002 1.1533 -0.0003
# 4 0.0001 0.0002 0.0002 2.2256 -0.0002 -0.8717
# 5 3.8447 4.1194 1.1533 -0.0002 40.7192 0.0001
# 6 -0.0001 -0.0001 -0.0003 -0.8717 0.0001 33.0843
#
#
#
# Elastic Compliance Matrix: (Units=1/GPa)
#
#
# Indices 1 2 3 4 5 6 
#
# 1 0.011490 0.000729 -0.002786 0.000000 -0.001080 0.000000
# 2 0.000729 0.015598 -0.002456 -0.000001 -0.001577 0.000000
# 3 -0.002786 -0.002456 0.012245 -0.000001 0.000165 0.000000
# 4 0.000000 -0.000001 -0.000001 0.454001 0.000002 0.011962
# 5 -0.001080 -0.001577 0.000165 0.000002 0.024815 0.000000
# 6 0.000000 0.000000 0.000000 0.011962 0.000000 0.030541
#
#
# Mechanical properties :
#
#
# Convention : Reuss Voigt Hill
#
# Bulk Modulus (GPa) = 32.99523 34.98912 33.99218
# Shear Modulus (GPa) = 8.80560 29.52429 19.16494
#
# Velocity S-wave (km/s) = 1.97551 3.61734 2.91443
# Velocity P-wave (km/s) = 4.45275 5.74056 5.13717
#
# Compressibility (1/GPa) = 0.03030741
#
# Stress axis : x y z
#
# Youngs Moduli (GPa) = 87.02977 64.10936 81.66332
#
# Poissons Ratio (x) = -0.04671 0.22752
# Poissons Ratio (y) = -0.06341 0.20055
# Poissons Ratio (z) = 0.24247 0.15744
#
# Static dielectric constant tensor:
#      x y z
#    x 1.890260 0.000000 0.056520 
#    y 0.000000 1.826300 0.000000 
#    z 0.056520 0.000000 1.879770 
# 
# From -- ./inp_files/292388.got.cif
#   From: 2010.05.17/outbox.cif.g08.bks.cpg/sg15_147_cif.got.tgz:292388.got - 2010.06.03 18:47:42.
