data_PCOD9277238
_publ_section_title
;
Structure prediction by ZEFSAII (Michael W. Deem and Ramdas Pophale) SiO2 
 PCOD9277238
Probable space group: C 2/C
;
_chemical_formula_sum "Si O2"
_cell_formula_units_Z 44
_cell_length_a 13.181724
_cell_length_b 4.646867
_cell_length_c 26.037925
_cell_angle_alpha 90.000000
_cell_angle_beta 86.068429
_cell_angle_gamma 90.000000
_cell_volume 1591.166317
_symmetry_space_group_name_H-M "C 2/C"
_symmetry_group_IT_number 15
_symmetry_cell_setting 'monoclinic'
loop_
_space_group_symop_operation_xyz
x,y,z
-x,y,1/2-z
-x,-y,-z
x,-y,1/2+z
1/2+x,1/2+y,z
1/2-x,1/2+y,1/2-z
1/2-x,1/2-y,-z
1/2+x,1/2-y,1/2+z
loop_
_atom_site_type_symbol
_atom_site_label
_atom_site_fract_x
_atom_site_fract_y
_atom_site_fract_z
Si Si1 0.500000 0.500000 0.000000
Si Si2 0.340433 0.936878 0.970782
Si Si3 0.757477 0.691888 0.285396
Si Si4 0.966758 0.030973 0.806400
Si Si5 0.926798 0.559643 0.650143
Si Si6 0.151386 0.154810 0.935221
O O1 0.434808 0.728955 0.962528
O O2 0.573292 0.396177 0.947818
O O3 0.270187 0.077672 0.928953
O O4 0.250000 0.750000 0.000000
O O5 0.374609 0.207150 0.005871
O O6 0.732677 0.867892 0.233896
O O7 0.857105 0.826067 0.306718
O O8 0.664738 0.743132 0.326479
O O9 0.000000 0.904203 0.750000
O O10 0.979843 0.784468 0.848770
O O11 0.041264 0.300346 0.813289
O O12 0.881409 0.379143 0.605015
#
# Coordination Sequence:
#
# PCOD9277238 Si02
#       6
#     4   8   8   8   8   8
#     4  10  20  40  70  88 134 178 218 274 352 406
#     4   9  20  41  66  90 131 175 214 276 343 406
#     4  12  23  43  70  94 132 181 220 273 350 399
#     4  12  24  44  70  98 137 182 224 278 353 403
#     4  12  26  43  70 102 138 173 237 287 323 426
#     4  10  23  41  65  97 131 174 227 280 345 401
#
# _framework density 27.652674000000001
#
# number of rings (size 3 to 8) (size 9 to 14) (size 15 to 20)
#    0.000    1.091    3.636    2.182    5.091    1.455 
#    9.818    0.000    0.000    0.000    0.000    0.000 
#    0.000    0.000    0.000    0.000    0.000    0.000 
#
# Total GULP energy -122767.223990 kJ/mol
# GULP energy per Si atom -5580.328363 kJ/mol
# Density = 2.758974 g / cm^3
# Si number density = 27.652674 Si / 1000 Ang^3
#
#
#
# Elastic Constant Matrix: (Units=GPa)
#
#
# Indices 1 2 3 4 5 6 
#
# 1 182.7591 27.0404 23.5757 0.0000 24.5173 0.0000
# 2 27.0404 122.7081 18.2590 0.0000 24.8162 0.0000
# 3 23.5757 18.2590 43.1900 0.0000 31.4631 0.0000
# 4 0.0000 0.0000 0.0000 22.8029 0.0000 6.8648
# 5 24.5173 24.8162 31.4631 0.0000 47.4682 0.0000
# 6 0.0000 0.0000 0.0000 6.8648 0.0000 42.6359
#
#
#
# Elastic Compliance Matrix: (Units=1/GPa)
#
#
# Indices 1 2 3 4 5 6 
#
# 1 0.006024 -0.000749 -0.001915 0.000000 -0.001451 0.000000
# 2 -0.000749 0.009218 -0.000501 0.000000 -0.004100 0.000000
# 3 -0.001915 -0.000501 0.045441 0.000000 -0.028868 0.000000
# 4 0.000000 0.000000 0.000000 0.046088 0.000000 -0.007421
# 5 -0.001451 -0.004100 -0.028868 0.000000 0.043094 0.000000
# 6 0.000000 0.000000 0.000000 -0.007421 0.000000 0.024649
#
#
# Mechanical properties :
#
#
# Convention : Reuss Voigt Hill
#
# Bulk Modulus (GPa) = 18.39863 54.04529 36.22196
# Shear Modulus (GPa) = 25.13039 41.23355 33.18197
#
# Velocity S-wave (km/s) = 3.01788 3.86570 3.46779
# Velocity P-wave (km/s) = 4.33721 6.28582 5.40014
#
# Compressibility (1/GPa) = 0.05435187
#
# Stress axis : x y z
#
# Youngs Moduli (GPa) = 165.99868 108.47988 22.00680
#
# Poissons Ratio (x) = 0.08127 0.04214
# Poissons Ratio (y) = 0.12437 0.01103
# Poissons Ratio (z) = 0.31787 0.05439
#
# Static dielectric constant tensor:
#      x y z
#    x 1.828040 0.000000 0.024250 
#    y 0.000000 1.876800 0.000000 
#    z 0.024250 0.000000 2.517770 
# 
# From -- ./inp_files/294260.got.cif
#   From: 2010.05.17/outbox.cif.g08.bks.cpg/sg15_148_cif.got.tgz:294260.got - 2010.06.03 18:47:42.
