data_PCOD9277949
_publ_section_title
;
Structure prediction by ZEFSAII (Michael W. Deem and Ramdas Pophale) SiO2 
 PCOD9277949
Probable space group: C 2/C
;
_chemical_formula_sum "Si O2"
_cell_formula_units_Z 40
_cell_length_a 21.056412
_cell_length_b 8.549945
_cell_length_c 12.567906
_cell_angle_alpha 90.000000
_cell_angle_beta 129.963791
_cell_angle_gamma 90.000000
_cell_volume 1734.182231
_symmetry_space_group_name_H-M "C 2/C"
_symmetry_group_IT_number 15
_symmetry_cell_setting 'monoclinic'
loop_
_space_group_symop_operation_xyz
x,y,z
-x,y,1/2-z
-x,-y,-z
x,-y,1/2+z
1/2+x,1/2+y,z
1/2-x,1/2+y,1/2-z
1/2-x,1/2-y,-z
1/2+x,1/2-y,1/2+z
loop_
_atom_site_type_symbol
_atom_site_label
_atom_site_fract_x
_atom_site_fract_y
_atom_site_fract_z
Si Si1 0.935821 0.819907 0.024576
Si Si2 0.071866 0.368886 0.592342
Si Si3 0.675255 0.368273 0.787245
Si Si4 0.415590 0.341992 0.600754
Si Si5 0.797997 0.401794 0.324243
O O1 0.867534 0.684106 0.972488
O O2 0.922305 0.976867 0.073957
O O3 0.910448 0.863359 0.874381
O O4 0.028179 0.750013 0.127646
O O5 0.089149 0.270420 0.504959
O O6 0.154843 0.468385 0.696951
O O7 0.000000 0.500000 0.500000
O O8 0.655288 0.333951 0.886531
O O9 0.724475 0.525165 0.812445
O O10 0.726902 0.230960 0.785720
O O11 0.500000 0.295462 0.750000
#
# Coordination Sequence:
#
# PCOD9277949 Si02
#       5
#     8   8   8   8   8
#     4   9  22  40  63  91 125 161 200 261 300 357
#     4  10  20  42  63  86 128 159 200 259 304 354
#     4  10  23  42  63  92 122 168 204 248 317 363
#     4  12  22  37  68  92 120 168 211 243 307 375
#     4   9  22  41  63  87 128 161 197 264 308 353
#
# _framework density 23.065628
#
# number of rings (size 3 to 8) (size 9 to 14) (size 15 to 20)
#    1.200    0.800    2.000    0.600    2.800    1.600 
#    0.000   10.000    0.000    0.000    0.000    0.000 
#    0.000    0.000    0.000    0.000    0.000    0.000 
#
# Total GULP energy -111593.236563 kJ/mol
# GULP energy per Si atom -5579.661828 kJ/mol
# Density = 2.301313 g / cm^3
# Si number density = 23.065628 Si / 1000 Ang^3
#
#
#
# Elastic Constant Matrix: (Units=GPa)
#
#
# Indices 1 2 3 4 5 6 
#
# 1 122.2678 45.3139 7.0229 0.0000 -11.5593 0.0000
# 2 45.3139 107.0332 2.9177 0.0000 -13.0822 0.0000
# 3 7.0229 2.9177 21.6346 0.0000 7.2919 0.0000
# 4 0.0000 0.0000 0.0000 17.6950 0.0000 6.7625
# 5 -11.5593 -13.0822 7.2919 0.0000 22.4348 0.0000
# 6 0.0000 0.0000 0.0000 6.7625 0.0000 51.0295
#
#
#
# Elastic Compliance Matrix: (Units=1/GPa)
#
#
# Indices 1 2 3 4 5 6 
#
# 1 0.010211 -0.003648 -0.004356 0.000000 0.004550 0.000000
# 2 -0.003648 0.011641 -0.002291 0.000000 0.005653 0.000000
# 3 -0.004356 -0.002291 0.055199 0.000000 -0.021522 0.000000
# 4 0.000000 0.000000 0.000000 0.059528 0.000000 -0.007889
# 5 0.004550 0.005653 -0.021522 0.000000 0.057209 0.000000
# 6 0.000000 0.000000 0.000000 -0.007889 0.000000 0.020642
#
#
# Mechanical properties :
#
#
# Convention : Reuss Voigt Hill
#
# Bulk Modulus (GPa) = 17.71152 40.16053 28.93603
# Shear Modulus (GPa) = 19.69737 31.27727 25.48732
#
# Velocity S-wave (km/s) = 2.92545 3.68640 3.32775
# Velocity P-wave (km/s) = 4.37109 5.96394 5.22853
#
# Compressibility (1/GPa) = 0.05646042
#
# Stress axis : x y z
#
# Youngs Moduli (GPa) = 97.93179 85.90488 18.11622
#
# Poissons Ratio (x) = 0.31340 0.07892
# Poissons Ratio (y) = 0.35727 0.04150
# Poissons Ratio (z) = 0.42661 0.19680
#
# Static dielectric constant tensor:
#      x y z
#    x 1.876020 0.000000 0.073810 
#    y 0.000000 1.904090 0.000000 
#    z 0.073810 0.000000 1.893090 
# 
# From -- ./inp_files/165474.got.cif
#   From: 2010.05.17/outbox.cif.g08.bks.cpg/sg15_83_cif.got.tgz:165474.got - 2010.06.03 18:47:42.
