data_PCOD9277134
_publ_section_title
;
Structure prediction by ZEFSAII (Michael W. Deem and Ramdas Pophale) SiO2 
 PCOD9277134
Probable space group: C 2/C
;
_chemical_formula_sum "Si O2"
_cell_formula_units_Z 60
_cell_length_a 29.509897
_cell_length_b 20.082597
_cell_length_c 12.158647
_cell_angle_alpha 90.000000
_cell_angle_beta 155.506315
_cell_angle_gamma 90.000000
_cell_volume 2987.409281
_symmetry_space_group_name_H-M "C 2/C"
_symmetry_group_IT_number 15
_symmetry_cell_setting 'monoclinic'
loop_
_space_group_symop_operation_xyz
x,y,z
-x,y,1/2-z
-x,-y,-z
x,-y,1/2+z
1/2+x,1/2+y,z
1/2-x,1/2+y,1/2-z
1/2-x,1/2-y,-z
1/2+x,1/2-y,1/2+z
loop_
_atom_site_type_symbol
_atom_site_label
_atom_site_fract_x
_atom_site_fract_y
_atom_site_fract_z
Si Si1 0.387538 0.350923 0.562817
Si Si2 0.196117 0.181623 0.849203
Si Si3 0.000000 0.107373 0.750000
Si Si4 0.976565 0.658553 0.073676
Si Si5 0.394065 0.024871 0.937508
Si Si6 0.463442 0.695917 0.451387
Si Si7 0.686679 0.502669 0.625619
Si Si8 0.840977 0.430582 0.641812
O O1 0.500000 0.331299 0.750000
O O2 0.303871 0.326766 0.283936
O O3 0.379214 0.323030 0.667436
O O4 0.381573 0.430781 0.554173
O O5 0.078497 0.180023 0.645624
O O6 0.250000 0.250000 0.000000
O O7 0.267895 0.120548 0.049430
O O8 0.965634 0.152903 0.568797
O O9 0.896105 0.058966 0.547246
O O10 0.079484 0.615911 0.255152
O O11 0.000000 0.680157 0.250000
O O12 0.883438 0.601710 0.876025
O O13 0.955704 0.725433 0.960047
O O14 0.284289 0.999733 0.753246
O O15 0.412168 0.976201 0.876847
O O16 0.500000 0.022151 0.250000
O O17 0.755679 0.522783 0.887367
#
# Coordination Sequence:
#
# PCOD9277134 Si02
#       8
#     8   8   4   8   8   8   8   8
#     4   9  21  41  63  94 130 174 217 268 331 392
#     4  10  20  40  68  94 129 180 222 267 332 400
#     4  12  26  40  68 104 136 174 224 276 322 406
#     4  11  21  42  66  90 132 174 210 270 332 397
#     4  11  24  42  67  98 128 171 222 276 327 391
#     4  11  23  42  65  99 135 173 222 269 335 403
#     4  11  23  42  66  97 132 173 219 271 335 386
#     4  11  22  42  68  92 130 175 221 269 333 395
#
# _framework density 20.084292000000001
#
# number of rings (size 3 to 8) (size 9 to 14) (size 15 to 20)
#    0.000    1.333    5.333    1.200    1.867    0.533 
#    2.400    2.000    0.000    0.000    0.000    0.000 
#    0.000    0.000    0.000    0.000    0.000    0.000 
#
# Total GULP energy -167236.761126 kJ/mol
# GULP energy per Si atom -5574.558704 kJ/mol
# Density = 2.003858 g / cm^3
# Si number density = 20.084292 Si / 1000 Ang^3
#
#
#
# Elastic Constant Matrix: (Units=GPa)
#
#
# Indices 1 2 3 4 5 6 
#
# 1 101.9207 67.1593 39.1911 0.0000 -6.4932 0.0000
# 2 67.1593 137.2119 59.2493 0.0000 -23.7991 0.0000
# 3 39.1911 59.2493 56.9687 0.0000 -4.1367 0.0000
# 4 0.0000 0.0000 0.0000 11.6513 0.0000 -1.1410
# 5 -6.4932 -23.7991 -4.1367 0.0000 40.9207 0.0000
# 6 0.0000 0.0000 0.0000 -1.1410 0.0000 23.2810
#
#
#
# Elastic Compliance Matrix: (Units=1/GPa)
#
#
# Indices 1 2 3 4 5 6 
#
# 1 0.015277 -0.005685 -0.004695 0.000000 -0.001357 0.000000
# 2 -0.005685 0.017214 -0.013429 0.000000 0.007752 0.000000
# 3 -0.004695 -0.013429 0.034382 0.000000 -0.005080 0.000000
# 4 0.000000 0.000000 0.000000 0.086241 0.000000 0.004227
# 5 -0.001357 0.007752 -0.005080 0.000000 0.028217 0.000000
# 6 0.000000 0.000000 0.000000 0.004227 0.000000 0.043161
#
#
# Mechanical properties :
#
#
# Convention : Reuss Voigt Hill
#
# Bulk Modulus (GPa) = 51.93994 69.70007 60.82001
# Shear Modulus (GPa) = 17.95151 23.87071 20.91111
#
# Velocity S-wave (km/s) = 2.99291 3.45124 3.23021
# Velocity P-wave (km/s) = 6.15308 7.11762 6.65286
#
# Compressibility (1/GPa) = 0.01925301
#
# Stress axis : x y z
#
# Youngs Moduli (GPa) = 65.45900 58.09192 29.08541
#
# Poissons Ratio (x) = 0.33027 0.13656
# Poissons Ratio (y) = 0.37215 0.39059
# Poissons Ratio (z) = 0.30734 0.78013
#
# Static dielectric constant tensor:
#      x y z
#    x 1.732540 0.000000 0.001200 
#    y 0.000000 1.680760 0.000000 
#    z 0.001200 0.000000 1.769770 
# 
# From -- ./inp_files/124005.got.cif
#   From: 2010.05.17/outbox.cif.g08.bks.cpg/sg15_63_cif.got.tgz:124005.got - 2010.06.03 18:47:42.
