data_PCOD9277180
_publ_section_title
;
Structure prediction by ZEFSAII (Michael W. Deem and Ramdas Pophale) SiO2 
 PCOD9277180
Probable space group: C 2/C
;
_chemical_formula_sum "Si O2"
_cell_formula_units_Z 44
_cell_length_a 7.978155
_cell_length_b 18.377578
_cell_length_c 11.968115
_cell_angle_alpha 90.000000
_cell_angle_beta 109.786963
_cell_angle_gamma 90.000000
_cell_volume 1651.150476
_symmetry_space_group_name_H-M "C 2/C"
_symmetry_group_IT_number 15
_symmetry_cell_setting 'monoclinic'
loop_
_space_group_symop_operation_xyz
x,y,z
-x,y,1/2-z
-x,-y,-z
x,-y,1/2+z
1/2+x,1/2+y,z
1/2-x,1/2+y,1/2-z
1/2-x,1/2-y,-z
1/2+x,1/2-y,1/2+z
loop_
_atom_site_type_symbol
_atom_site_label
_atom_site_fract_x
_atom_site_fract_y
_atom_site_fract_z
Si Si1 0.500000 0.244848 0.250000
Si Si2 0.692024 0.152627 0.668623
Si Si3 0.242448 0.622875 0.421961
Si Si4 0.000000 0.763955 0.750000
Si Si5 0.000000 0.001461 0.750000
Si Si6 0.146536 0.118657 0.416230
Si Si7 0.719548 0.041304 0.848207
O O1 0.643164 0.303960 0.236269
O O2 0.618421 0.189013 0.349966
O O3 0.739283 0.133940 0.553883
O O4 0.542595 0.212271 0.655744
O O5 0.639084 0.079109 0.720142
O O6 0.443708 0.627275 0.418102
O O7 0.176147 0.541240 0.374083
O O8 0.840706 0.813923 0.665164
O O9 0.077136 0.038148 0.657311
O O10 0.848288 0.949330 0.666951
O O11 0.271857 0.095922 0.545306
#
# Coordination Sequence:
#
# PCOD9277180 Si02
#       7
#     4   8   8   4   4   8   8
#     4  12  25  45  77 107 142 196 230 298 367 415
#     4  12  26  46  72 103 143 187 243 292 358 432
#     4  11  24  46  73 104 144 185 241 295 355 428
#     4  11  26  43  63 100 145 182 238 298 345 433
#     4   9  17  34  62  99 129 164 228 288 328 406
#     4  10  20  40  68  99 138 178 238 291 342 418
#     4  11  22  40  72 106 137 190 238 295 356 418
#
# _framework density 26.648088000000001
#
# number of rings (size 3 to 8) (size 9 to 14) (size 15 to 20)
#    0.000    1.091    1.818    6.545    2.545    1.455 
#    0.000    1.818    0.000    0.000    0.000    0.000 
#    0.000    0.000    0.000    0.000    0.000    0.000 
#
# Total GULP energy -122865.375158 kJ/mol
# GULP energy per Si atom -5584.789780 kJ/mol
# Density = 2.658744 g / cm^3
# Si number density = 26.648088 Si / 1000 Ang^3
#
#
#
# Elastic Constant Matrix: (Units=GPa)
#
#
# Indices 1 2 3 4 5 6 
#
# 1 50.7498 32.3804 31.6116 0.0000 -5.8543 0.0000
# 2 32.3804 190.2630 63.7547 0.0000 -7.9968 0.0000
# 3 31.6116 63.7547 159.8749 0.0000 -18.8552 0.0000
# 4 0.0000 0.0000 0.0000 30.8823 0.0000 -7.5986
# 5 -5.8543 -7.9968 -18.8552 0.0000 38.7812 0.0000
# 6 0.0000 0.0000 0.0000 -7.5986 0.0000 29.9420
#
#
#
# Elastic Compliance Matrix: (Units=1/GPa)
#
#
# Indices 1 2 3 4 5 6 
#
# 1 0.023804 -0.002852 -0.003411 0.000000 0.001347 0.000000
# 2 -0.002852 0.006408 -0.002001 0.000000 -0.000082 0.000000
# 3 -0.003411 -0.002001 0.008081 0.000000 0.003002 0.000000
# 4 0.000000 0.000000 0.000000 0.034538 0.000000 0.008765
# 5 0.001347 -0.000082 0.003002 0.000000 0.027431 0.000000
# 6 0.000000 0.000000 0.000000 0.008765 0.000000 0.035622
#
#
# Mechanical properties :
#
#
# Convention : Reuss Voigt Hill
#
# Bulk Modulus (GPa) = 45.94258 72.93124 59.43691
# Shear Modulus (GPa) = 31.31510 38.13051 34.72280
#
# Velocity S-wave (km/s) = 3.43174 3.78682 3.61364
# Velocity P-wave (km/s) = 5.74286 6.82258 6.30587
#
# Compressibility (1/GPa) = 0.02176630
#
# Stress axis : x y z
#
# Youngs Moduli (GPa) = 42.01012 156.04583 123.74160
#
# Poissons Ratio (x) = 0.44499 0.42203
# Poissons Ratio (y) = 0.11980 0.24765
# Poissons Ratio (z) = 0.14328 0.31230
#
# Static dielectric constant tensor:
#      x y z
#    x 2.626830 0.000000 0.270130 
#    y 0.000000 2.083800 0.000000 
#    z 0.270130 0.000000 2.125600 
# 
# From -- ./inp_files/87567.got.cif
#   From: 2010.05.17/outbox.cif.g08.bks.cpg/sg15_44_cif.got.tgz:87567.got - 2010.06.03 18:47:42.
