data_PCOD9277883
_publ_section_title
;
Structure prediction by ZEFSAII (Michael W. Deem and Ramdas Pophale) SiO2 
 PCOD9277883
Probable space group: C 2/C
;
_chemical_formula_sum "Si O2"
_cell_formula_units_Z 36
_cell_length_a 5.165434
_cell_length_b 15.263146
_cell_length_c 18.040654
_cell_angle_alpha 90.000000
_cell_angle_beta 96.776570
_cell_angle_gamma 90.000000
_cell_volume 1412.402429
_symmetry_space_group_name_H-M "C 2/C"
_symmetry_group_IT_number 15
_symmetry_cell_setting 'monoclinic'
loop_
_space_group_symop_operation_xyz
x,y,z
-x,y,1/2-z
-x,-y,-z
x,-y,1/2+z
1/2+x,1/2+y,z
1/2-x,1/2+y,1/2-z
1/2-x,1/2-y,-z
1/2+x,1/2-y,1/2+z
loop_
_atom_site_type_symbol
_atom_site_label
_atom_site_fract_x
_atom_site_fract_y
_atom_site_fract_z
Si Si1 0.061899 0.402764 0.449330
Si Si2 0.809083 0.317984 0.568046
Si Si3 0.000000 0.056389 0.750000
Si Si4 0.467947 0.483281 0.590718
Si Si5 0.137987 0.290108 0.185339
O O1 0.036639 0.369628 0.533140
O O2 0.673548 0.545751 0.554464
O O3 0.810395 0.465267 0.426650
O O4 0.046831 0.325489 0.387589
O O5 0.750000 0.250000 0.500000
O O6 0.577286 0.386005 0.576885
O O7 0.848020 0.266837 0.646249
O O8 0.038002 0.997904 0.679512
O O9 0.233335 0.123775 0.774865
O O10 0.000000 0.243846 0.250000
#
# Coordination Sequence:
#
# PCOD9277883 Si02
#       5
#     8   8   4   8   8
#     4  10  22  43  67  92 123 172 216 258 313 380
#     4  10  23  41  64  98 128 168 210 270 320 372
#     4  10  22  40  64  94 122 180 208 262 316 380
#     4  11  22  42  68  90 129 167 220 257 312 387
#     4  10  20  42  60  91 133 164 210 266 322 374
#
# _framework density 25.488485000000001
#
# number of rings (size 3 to 8) (size 9 to 14) (size 15 to 20)
#    0.000    1.778    2.222    1.333    1.556    0.000 
#    8.000    7.778    0.000    0.000    0.000    0.000 
#    0.000    0.000    0.000    0.000    0.000    0.000 
#
# Total GULP energy -100550.683768 kJ/mol
# GULP energy per Si atom -5586.149098 kJ/mol
# Density = 2.543047 g / cm^3
# Si number density = 25.488485 Si / 1000 Ang^3
#
#
#
# Elastic Constant Matrix: (Units=GPa)
#
#
# Indices 1 2 3 4 5 6 
#
# 1 115.4227 24.0215 24.3057 0.0000 -24.7299 0.0000
# 2 24.0215 96.5469 57.3308 0.0000 -19.1666 0.0000
# 3 24.3057 57.3308 205.5746 0.0000 -30.2087 0.0000
# 4 0.0000 0.0000 0.0000 48.0062 0.0000 -24.0174
# 5 -24.7299 -19.1666 -30.2087 0.0000 26.3608 0.0000
# 6 0.0000 0.0000 0.0000 -24.0174 0.0000 7.7538
#
#
#
# Elastic Compliance Matrix: (Units=1/GPa)
#
#
# Indices 1 2 3 4 5 6 
#
# 1 0.010929 -0.000998 0.000464 0.000000 0.010059 0.000000
# 2 -0.000998 0.013372 -0.002790 0.000000 0.005589 0.000000
# 3 0.000464 -0.002790 0.006438 0.000000 0.005784 0.000000
# 4 0.000000 0.000000 0.000000 -0.037897 0.000000 -0.117384
# 5 0.010059 0.005589 0.005784 0.000000 0.058065 0.000000
# 6 0.000000 0.000000 0.000000 -0.117384 0.000000 -0.234629
#
#
# Mechanical properties :
#
#
# Convention : Reuss Voigt Hill
#
# Bulk Modulus (GPa) = 41.50795 69.87335 55.69065
# Shear Modulus (GPa) = -29.57806 37.21658 3.81926
#
# Velocity S-wave (km/s) = -3.41023 3.82531 1.22543
# Velocity P-wave (km/s) = 0.90228 6.85448 4.88866
#
# Compressibility (1/GPa) = 0.02409177
#
# Stress axis : x y z
#
# Youngs Moduli (GPa) = 91.49984 74.78160 155.33816
#
# Poissons Ratio (x) = 0.07463 -0.07213
# Poissons Ratio (y) = 0.09131 0.43338
# Poissons Ratio (z) = -0.04249 0.20863
#
# Static dielectric constant tensor:
#      x y z
#    x 2.184790 0.000000 0.217840 
#    y 0.000000 2.162150 0.000000 
#    z 0.217840 0.000000 2.358560 
# 
# From -- ./inp_files/189391.got.cif
#   From: 2010.05.17/outbox.cif.g08.bks.cpg/sg15_95_cif.got.tgz:189391.got - 2010.06.03 18:47:42.
