data_PCOD9277371
_publ_section_title
;
Structure prediction by ZEFSAII (Michael W. Deem and Ramdas Pophale) SiO2 
 PCOD9277371
Probable space group: C 2/C
;
_chemical_formula_sum "Si O2"
_cell_formula_units_Z 60
_cell_length_a 10.411800
_cell_length_b 28.703628
_cell_length_c 16.376533
_cell_angle_alpha 90.000000
_cell_angle_beta 150.768569
_cell_angle_gamma 90.000000
_cell_volume 2390.041785
_symmetry_space_group_name_H-M "C 2/C"
_symmetry_group_IT_number 15
_symmetry_cell_setting 'monoclinic'
loop_
_space_group_symop_operation_xyz
x,y,z
-x,y,1/2-z
-x,-y,-z
x,-y,1/2+z
1/2+x,1/2+y,z
1/2-x,1/2+y,1/2-z
1/2-x,1/2-y,-z
1/2+x,1/2-y,1/2+z
loop_
_atom_site_type_symbol
_atom_site_label
_atom_site_fract_x
_atom_site_fract_y
_atom_site_fract_z
Si Si1 0.612491 0.303201 0.014666
Si Si2 0.389596 0.873874 0.590464
Si Si3 0.202185 0.645786 0.103936
Si Si4 0.000000 0.882266 0.250000
Si Si5 0.401261 0.026979 0.282515
Si Si6 0.396574 0.069326 0.854534
Si Si7 0.603315 0.781873 0.173140
Si Si8 0.995261 0.899890 0.505943
O O1 0.656139 0.294903 0.135247
O O2 0.861759 0.284710 0.102922
O O3 0.380323 0.269728 0.855016
O O4 0.617168 0.358292 0.003052
O O5 0.625956 0.859997 0.657628
O O6 0.405282 0.930248 0.592372
O O7 0.254039 0.873567 0.607488
O O8 0.147612 0.854367 0.402088
O O9 0.500000 0.661949 0.250000
O O10 0.154287 0.597553 0.026697
O O11 0.990704 0.681778 0.947766
O O12 0.797447 0.915328 0.182438
O O13 0.500000 0.007870 0.250000
O O14 0.120273 0.053500 0.114492
O O15 0.418607 0.985553 0.355219
O O16 0.237518 0.086866 0.685557
#
# Coordination Sequence:
#
# PCOD9277371 Si02
#       8
#     8   8   8   4   8   8   8   8
#     4  10  22  41  67  96 131 173 209 269 337 402
#     4   9  21  41  59  88 125 170 216 262 327 383
#     4  11  24  40  62  96 132 175 218 275 333 395
#     4   8  18  36  62  78 118 170 208 264 320 380
#     4  10  22  38  59  92 129 168 220 272 325 382
#     4  10  20  41  60  92 125 169 220 270 325 388
#     4  10  23  40  64 101 134 164 220 268 335 393
#     4  10  20  41  68  88 122 174 216 268 328 392
#
# _framework density 25.104163
#
# number of rings (size 3 to 8) (size 9 to 14) (size 15 to 20)
#    0.000    2.133    1.333    0.400    5.600    3.200 
#    9.600    0.667    0.000    0.000    0.000    0.000 
#    0.000    0.000    0.000    0.000    0.000    0.000 
#
# Total GULP energy -167172.752025 kJ/mol
# GULP energy per Si atom -5572.425068 kJ/mol
# Density = 2.504702 g / cm^3
# Si number density = 25.104163 Si / 1000 Ang^3
#
#
#
# Elastic Constant Matrix: (Units=GPa)
#
#
# Indices 1 2 3 4 5 6 
#
# 1 106.7358 37.3607 10.3245 0.0000 -14.1112 0.0000
# 2 37.3607 117.3882 8.8326 0.0000 -19.1681 0.0000
# 3 10.3245 8.8326 29.0373 0.0000 1.4380 -0.0003
# 4 0.0000 0.0000 0.0000 37.1081 0.0000 1.1886
# 5 -14.1112 -19.1681 1.4380 0.0000 30.3295 -0.0001
# 6 0.0000 0.0000 -0.0003 1.1886 -0.0001 -0.9401
#
#
#
# Elastic Compliance Matrix: (Units=1/GPa)
#
#
# Indices 1 2 3 4 5 6 
#
# 1 0.011112 -0.002696 -0.003310 0.000000 0.003623 0.000000
# 2 -0.002696 0.010458 -0.002494 0.000000 0.005473 0.000000
# 3 -0.003310 -0.002494 0.036614 0.000000 -0.004852 -0.000011
# 4 0.000000 0.000000 0.000000 0.025899 0.000000 0.032746
# 5 0.003623 0.005473 -0.004852 0.000000 0.038346 -0.000003
# 6 0.000000 0.000000 -0.000011 0.032746 -0.000003 -1.022283
#
#
# Mechanical properties :
#
#
# Convention : Reuss Voigt Hill
#
# Bulk Modulus (GPa) = 24.28097 40.68855 32.48476
# Shear Modulus (GPa) = -5.75291 26.40906 10.32808
#
# Velocity S-wave (km/s) = -1.51545 3.24694 2.03052
# Velocity P-wave (km/s) = 2.57507 5.50454 4.29714
#
# Compressibility (1/GPa) = 0.04118451
#
# Stress axis : x y z
#
# Youngs Moduli (GPa) = 89.99486 95.61960 27.31174
#
# Poissons Ratio (x) = 0.25777 0.09041
# Poissons Ratio (y) = 0.24261 0.06811
# Poissons Ratio (z) = 0.29791 0.23845
#
# Static dielectric constant tensor:
#      x y z
#    x 2.060200 0.000000 -0.024200 
#    y 0.000000 1.960210 0.000000 
#    z -0.024200 0.000000 2.285720 
# 
# From -- ./inp_files/201291.got.cif
#   From: 2010.05.17/outbox.cif.g08.bks.cpg/sg15_101_cif.got.tgz:201291.got - 2010.06.03 18:47:42.
