data_PCOD9277554
_publ_section_title
;
Structure prediction by ZEFSAII (Michael W. Deem and Ramdas Pophale) SiO2 
 PCOD9277554
Probable space group: C 2/C
;
_chemical_formula_sum "Si O2"
_cell_formula_units_Z 48
_cell_length_a 28.487574
_cell_length_b 8.745319
_cell_length_c 14.271398
_cell_angle_alpha 90.000000
_cell_angle_beta 37.569712
_cell_angle_gamma 90.000000
_cell_volume 2167.866507
_symmetry_space_group_name_H-M "C 2/C"
_symmetry_group_IT_number 15
_symmetry_cell_setting 'monoclinic'
loop_
_space_group_symop_operation_xyz
x,y,z
-x,y,1/2-z
-x,-y,-z
x,-y,1/2+z
1/2+x,1/2+y,z
1/2-x,1/2+y,1/2-z
1/2-x,1/2-y,-z
1/2+x,1/2-y,1/2+z
loop_
_atom_site_type_symbol
_atom_site_label
_atom_site_fract_x
_atom_site_fract_y
_atom_site_fract_z
Si Si1 0.500000 0.670450 0.250000
Si Si2 0.372603 0.577277 0.993818
Si Si3 0.459827 0.225893 0.613230
Si Si4 0.000000 0.682953 0.250000
Si Si5 0.253864 0.998184 0.442692
Si Si6 0.803470 0.831756 0.790792
Si Si7 0.914423 0.611762 0.198986
O O1 0.571058 0.568682 0.099145
O O2 0.528626 0.761926 0.294535
O O3 0.433683 0.714678 0.902524
O O4 0.323304 0.570271 0.976858
O O5 0.311993 0.601586 0.173532
O O6 0.391092 0.334945 0.691403
O O7 0.539998 0.239687 0.431540
O O8 0.430417 0.057207 0.632376
O O9 0.047366 0.605601 0.258754
O O10 0.245757 0.933816 0.560543
O O11 0.271917 0.842855 0.352438
O O12 0.323138 0.118972 0.334818
#
# Coordination Sequence:
#
# PCOD9277554 Si02
#       7
#     4   8   8   4   8   8   8
#     4  11  23  38  66  94 127 171 216 252 324 399
#     4  11  24  39  64  95 126 171 206 261 331 387
#     4  10  20  41  65  91 124 171 217 257 320 385
#     4  11  23  40  62  94 133 161 216 268 314 387
#     4  10  23  42  63  94 127 169 214 264 328 374
#     4  10  21  43  64  88 133 166 210 267 317 394
#     4  10  22  40  66  93 124 169 215 271 312 375
#
# _framework density 22.141584000000002
#
# number of rings (size 3 to 8) (size 9 to 14) (size 15 to 20)
#    0.000    1.667    3.333    0.500    0.000    5.333 
#    0.000    0.000    0.000    0.000    0.000    0.000 
#    0.000    0.000    0.000    0.000    0.000    0.000 
#
# Total GULP energy -133883.528416 kJ/mol
# GULP energy per Si atom -5578.480351 kJ/mol
# Density = 2.209119 g / cm^3
# Si number density = 22.141584 Si / 1000 Ang^3
#
#
#
# Elastic Constant Matrix: (Units=GPa)
#
#
# Indices 1 2 3 4 5 6 
#
# 1 53.6208 1.2336 -11.5958 0.0000 -8.5668 0.0000
# 2 1.2336 23.0091 12.3391 0.0000 -2.6272 -0.0001
# 3 -11.5958 12.3391 64.4708 0.0000 4.1839 0.0000
# 4 0.0000 0.0000 0.0000 16.3912 0.0000 0.0118
# 5 -8.5668 -2.6272 4.1839 0.0000 48.4515 0.0000
# 6 0.0000 -0.0001 0.0000 0.0118 0.0000 7.4796
#
#
#
# Elastic Compliance Matrix: (Units=1/GPa)
#
#
# Indices 1 2 3 4 5 6 
#
# 1 0.020058 -0.002848 0.003955 0.000000 0.003051 0.000000
# 2 -0.002848 0.049415 -0.010168 0.000000 0.003054 0.000000
# 3 0.003955 -0.010168 0.018261 0.000000 -0.001429 0.000000
# 4 0.000000 0.000000 0.000000 0.061008 0.000000 -0.000097
# 5 0.003051 0.003054 -0.001429 0.000000 0.021468 0.000000
# 6 0.000000 0.000000 0.000000 -0.000097 0.000000 0.133697
#
#
# Mechanical properties :
#
#
# Convention : Reuss Voigt Hill
#
# Bulk Modulus (GPa) = 14.36547 16.11719 15.24133
# Shear Modulus (GPa) = 14.48300 23.73939 19.11119
#
# Velocity S-wave (km/s) = 2.56033 3.27794 2.94110
# Velocity P-wave (km/s) = 3.90416 4.64989 4.29325
#
# Compressibility (1/GPa) = 0.06961136
#
# Stress axis : x y z
#
# Youngs Moduli (GPa) = 49.85648 20.23668 54.76154
#
# Poissons Ratio (x) = 0.05763 -0.21656
# Poissons Ratio (y) = 0.14198 0.55682
# Poissons Ratio (z) = -0.19717 0.20577
#
# Static dielectric constant tensor:
#      x y z
#    x 1.796340 0.000000 0.019790 
#    y 0.000000 1.821300 0.000000 
#    z 0.019790 0.000000 1.933720 
# 
# From -- ./inp_files/160337.got.cif
#   From: 2010.05.17/outbox.cif.g08.bks.cpg/sg15_81_cif.got.tgz:160337.got - 2010.06.03 18:47:42.
