data_PCOD9277161
_publ_section_title
;
Structure prediction by ZEFSAII (Michael W. Deem and Ramdas Pophale) SiO2 
 PCOD9277161
Probable space group: C 2/C
;
_chemical_formula_sum "Si O2"
_cell_formula_units_Z 48
_cell_length_a 12.724769
_cell_length_b 24.676024
_cell_length_c 7.762054
_cell_angle_alpha 90.000000
_cell_angle_beta 123.619063
_cell_angle_gamma 90.000000
_cell_volume 2029.596248
_symmetry_space_group_name_H-M "C 2/C"
_symmetry_group_IT_number 15
_symmetry_cell_setting 'monoclinic'
loop_
_space_group_symop_operation_xyz
x,y,z
-x,y,1/2-z
-x,-y,-z
x,-y,1/2+z
1/2+x,1/2+y,z
1/2-x,1/2+y,1/2-z
1/2-x,1/2-y,-z
1/2+x,1/2-y,1/2+z
loop_
_atom_site_type_symbol
_atom_site_label
_atom_site_fract_x
_atom_site_fract_y
_atom_site_fract_z
Si Si1 0.249035 0.590435 0.509662
Si Si2 0.091727 0.850637 0.585216
Si Si3 0.000000 0.764383 0.750000
Si Si4 0.000000 0.660869 0.250000
Si Si5 0.750107 0.017622 0.849621
Si Si6 0.629849 0.823542 0.540665
Si Si7 0.500000 0.558606 0.250000
Si Si8 0.000000 0.423064 0.250000
O O1 0.361878 0.632073 0.563901
O O2 0.119564 0.623701 0.411208
O O3 0.268219 0.553172 0.694109
O O4 0.236325 0.547347 0.340442
O O5 0.008168 0.802025 0.587934
O O6 0.033702 0.903461 0.620122
O O7 0.226116 0.836317 0.794838
O O8 0.887436 0.721058 0.622395
O O9 0.943187 0.695538 0.354337
O O10 0.617069 0.040133 0.799806
O O11 0.875242 0.027409 0.077688
O O12 0.560001 0.880096 0.437118
#
# Coordination Sequence:
#
# PCOD9277161 Si02
#       8
#     8   8   4   4   8   8   4   4
#     4  11  25  40  65  96 140 179 227 272 326 395
#     4  10  22  43  63  96 130 175 220 280 330 392
#     4  10  22  40  71  94 130 175 224 273 347 400
#     4  10  21  40  65 101 139 169 216 291 328 384
#     4  12  25  41  66 100 134 185 224 265 331 399
#     4  10  20  40  68  97 129 169 222 277 338 393
#     4  11  24  43  68  93 139 178 221 278 327 400
#     4  11  21  39  70  98 130 172 227 266 328 398
#
# _framework density 23.650024999999999
#
# number of rings (size 3 to 8) (size 9 to 14) (size 15 to 20)
#    0.000    1.333    3.333    2.000    2.333    4.667 
#    0.000    6.667    0.000    0.000    0.000    0.000 
#    0.000    0.000    0.000    0.000    0.000    0.000 
#
# Total GULP energy -133926.153845 kJ/mol
# GULP energy per Si atom -5580.256410 kJ/mol
# Density = 2.359620 g / cm^3
# Si number density = 23.650025 Si / 1000 Ang^3
#
#
#
# Elastic Constant Matrix: (Units=GPa)
#
#
# Indices 1 2 3 4 5 6 
#
# 1 109.7657 43.2539 16.3206 0.0000 20.5350 0.0000
# 2 43.2539 93.8268 12.4332 0.0000 0.9034 0.0000
# 3 16.3206 12.4332 54.5207 0.0000 9.5352 0.0000
# 4 0.0000 0.0000 0.0000 21.0118 0.0000 -11.3472
# 5 20.5350 0.9034 9.5352 0.0000 31.6396 0.0000
# 6 0.0000 0.0000 0.0000 -11.3472 0.0000 57.2030
#
#
#
# Elastic Compliance Matrix: (Units=1/GPa)
#
#
# Indices 1 2 3 4 5 6 
#
# 1 0.013054 -0.005782 -0.001199 0.000000 -0.007946 0.000000
# 2 -0.005782 0.013558 -0.002058 0.000000 0.003986 0.000000
# 3 -0.001199 -0.002058 0.020082 0.000000 -0.005215 0.000000
# 4 0.000000 0.000000 0.000000 0.053302 0.000000 0.010573
# 5 -0.007946 0.003986 -0.005215 0.000000 0.038221 0.000000
# 6 0.000000 0.000000 0.000000 0.010573 0.000000 0.019579
#
#
# Mechanical properties :
#
#
# Convention : Reuss Voigt Hill
#
# Bulk Modulus (GPa) = 34.94750 44.68097 39.81424
# Shear Modulus (GPa) = 26.96682 34.37792 30.67237
#
# Velocity S-wave (km/s) = 3.38041 3.81676 3.60519
# Velocity P-wave (km/s) = 5.48136 6.19331 5.84818
#
# Compressibility (1/GPa) = 0.02861435
#
# Stress axis : x y z
#
# Youngs Moduli (GPa) = 76.60690 73.75775 49.79566
#
# Poissons Ratio (x) = 0.42649 0.05972
# Poissons Ratio (y) = 0.44296 0.10248
# Poissons Ratio (z) = 0.09188 0.15180
#
# Static dielectric constant tensor:
#      x y z
#    x 1.950510 0.000000 -0.065630 
#    y 0.000000 1.837830 0.000000 
#    z -0.065630 0.000000 2.028700 
# 
# From -- ./inp_files/33861.got.cif
#   From: 2010.05.17/outbox.cif.g08.bks.cpg/sg15_17_cif.got.tgz:33861.got - 2010.06.03 18:47:42.
