data_PCOD9277865
_publ_section_title
;
Structure prediction by ZEFSAII (Michael W. Deem and Ramdas Pophale) SiO2 
 PCOD9277865
Probable space group: C 2/C
;
_chemical_formula_sum "Si O2"
_cell_formula_units_Z 60
_cell_length_a 27.336907
_cell_length_b 13.807179
_cell_length_c 9.081686
_cell_angle_alpha 90.000000
_cell_angle_beta 103.151757
_cell_angle_gamma 90.000000
_cell_volume 3337.932675
_symmetry_space_group_name_H-M "C 2/C"
_symmetry_group_IT_number 15
_symmetry_cell_setting 'monoclinic'
loop_
_space_group_symop_operation_xyz
x,y,z
-x,y,1/2-z
-x,-y,-z
x,-y,1/2+z
1/2+x,1/2+y,z
1/2-x,1/2+y,1/2-z
1/2-x,1/2-y,-z
1/2+x,1/2-y,1/2+z
loop_
_atom_site_type_symbol
_atom_site_label
_atom_site_fract_x
_atom_site_fract_y
_atom_site_fract_z
Si Si1 0.854747 0.182795 0.581144
Si Si2 0.659275 0.132429 0.275347
Si Si3 0.000000 0.034724 0.250000
Si Si4 0.666725 0.518311 0.713412
Si Si5 0.725038 0.678503 0.214064
Si Si6 0.432501 0.423549 0.966017
Si Si7 0.261308 0.114274 0.656976
Si Si8 0.678627 0.999050 0.547588
O O1 0.862655 0.261948 0.712329
O O2 0.840532 0.080261 0.644134
O O3 0.807288 0.212278 0.449386
O O4 0.902693 0.167794 0.510735
O O5 0.719767 0.145333 0.298203
O O6 0.644450 0.071854 0.121932
O O7 0.650700 0.068680 0.414741
O O8 0.034250 0.968882 0.380731
O O9 0.034604 0.092645 0.157865
O O10 0.693958 0.414266 0.750920
O O11 0.611924 0.497765 0.610174
O O12 0.703732 0.582152 0.637345
O O13 0.730876 0.770948 0.323178
O O14 0.285265 0.067772 0.528200
O O15 0.289750 0.063954 0.815644
#
# Coordination Sequence:
#
# PCOD9277865 Si02
#       8
#     8   8   4   8   8   8   8   8
#     4  11  21  36  51  82 108 151 184 237 272 324
#     4  11  20  34  53  70 107 152 196 226 269 305
#     4  10  20  42  58  80 106 146 168 224 320 340
#     4  11  21  33  53  81 112 147 203 222 265 316
#     4  11  21  31  51  68 110 158 189 235 260 309
#     4  10  22  36  60  79 110 142 177 233 280 358
#     4  11  21  35  48  73 107 156 202 229 267 304
#     4  10  21  34  49  70 101 157 193 235 256 305
#
# _framework density 17.975197000000001
#
# number of rings (size 3 to 8) (size 9 to 14) (size 15 to 20)
#    0.000    1.333    6.667    1.200    1.867    0.533 
#    4.800    0.000    0.000    0.000    0.000    0.000 
#    0.000    3.200    0.000    0.000    0.000    0.000 
#
# Total GULP energy -167459.971795 kJ/mol
# GULP energy per Si atom -5581.999060 kJ/mol
# Density = 1.793428 g / cm^3
# Si number density = 17.975197 Si / 1000 Ang^3
#
#
#
# Elastic Constant Matrix: (Units=GPa)
#
#
# Indices 1 2 3 4 5 6 
#
# 1 61.6496 25.4191 25.7503 0.0000 -13.3405 0.0000
# 2 25.4191 102.5984 33.7878 0.0000 -12.0039 0.0000
# 3 25.7503 33.7878 94.2917 0.0000 -19.0358 0.0000
# 4 0.0000 0.0000 0.0000 33.8601 0.0000 -9.4870
# 5 -13.3405 -12.0039 -19.0358 0.0000 31.4835 0.0000
# 6 0.0000 0.0000 0.0000 -9.4870 0.0000 14.6284
#
#
#
# Elastic Compliance Matrix: (Units=1/GPa)
#
#
# Indices 1 2 3 4 5 6 
#
# 1 0.020074 -0.003288 -0.003234 0.000000 0.005296 0.000000
# 2 -0.003288 0.011709 -0.003050 0.000000 0.001227 0.000000
# 3 -0.003234 -0.003050 0.013748 0.000000 0.005779 0.000000
# 4 0.000000 0.000000 0.000000 0.036091 0.000000 0.023406
# 5 0.005296 0.001227 0.005779 0.000000 0.037969 0.000000
# 6 0.000000 0.000000 0.000000 0.023406 0.000000 0.083540
#
#
# Mechanical properties :
#
#
# Convention : Reuss Voigt Hill
#
# Bulk Modulus (GPa) = 37.89952 47.60600 42.75276
# Shear Modulus (GPa) = 21.63821 27.56658 24.60239
#
# Velocity S-wave (km/s) = 3.47332 3.92036 3.70359
# Velocity P-wave (km/s) = 6.10044 6.85814 6.49035
#
# Compressibility (1/GPa) = 0.02638556
#
# Stress axis : x y z
#
# Youngs Moduli (GPa) = 49.81656 85.40075 72.73615
#
# Poissons Ratio (x) = 0.28084 0.23525
# Poissons Ratio (y) = 0.16382 0.22186
# Poissons Ratio (z) = 0.16112 0.26048
#
# Static dielectric constant tensor:
#      x y z
#    x 1.600390 0.000000 -0.019110 
#    y 0.000000 1.653250 0.000000 
#    z -0.019110 0.000000 1.675590 
# 
# From -- ./inp_files/65982.got.cif
#   From: 2010.05.17/outbox.cif.g08.bks.cpg/sg15_33_cif.got.tgz:65982.got - 2010.06.03 18:47:42.
