data_PCOD9277963
_publ_section_title
;
Structure prediction by ZEFSAII (Michael W. Deem and Ramdas Pophale) SiO2 
 PCOD9277963
Probable space group: C 2/C
;
_chemical_formula_sum "Si O2"
_cell_formula_units_Z 60
_cell_length_a 24.243985
_cell_length_b 8.320005
_cell_length_c 14.061476
_cell_angle_alpha 90.000000
_cell_angle_beta 77.252231
_cell_angle_gamma 90.000000
_cell_volume 2766.428174
_symmetry_space_group_name_H-M "C 2/C"
_symmetry_group_IT_number 15
_symmetry_cell_setting 'monoclinic'
loop_
_space_group_symop_operation_xyz
x,y,z
-x,y,1/2-z
-x,-y,-z
x,-y,1/2+z
1/2+x,1/2+y,z
1/2-x,1/2+y,1/2-z
1/2-x,1/2-y,-z
1/2+x,1/2-y,1/2+z
loop_
_atom_site_type_symbol
_atom_site_label
_atom_site_fract_x
_atom_site_fract_y
_atom_site_fract_z
Si Si1 0.064841 0.054655 0.961910
Si Si2 0.609542 0.446410 0.741393
Si Si3 0.500000 0.307910 0.750000
Si Si4 0.467262 0.118549 0.941436
Si Si5 0.739427 0.061732 0.185742
Si Si6 0.273549 0.580608 0.856271
Si Si7 0.645078 0.132107 0.626004
Si Si8 0.184012 0.916939 0.485175
O O1 0.119925 0.013628 0.005819
O O2 0.086129 0.992954 0.852544
O O3 0.058314 0.244567 0.980244
O O4 0.000000 0.000000 0.000000
O O5 0.551763 0.424460 0.704539
O O6 0.659569 0.565532 0.694812
O O7 0.633888 0.266619 0.712700
O O8 0.506318 0.197952 0.842449
O O9 0.412369 0.065687 0.900085
O O10 0.500000 0.000000 0.000000
O O11 0.750605 0.243773 0.152037
O O12 0.741175 0.039679 0.298016
O O13 0.681915 0.004407 0.159427
O O14 0.787482 0.939787 0.127632
O O15 0.274973 0.520392 0.963003
O O16 0.677477 0.241113 0.534393
#
# Coordination Sequence:
#
# PCOD9277963 Si02
#       8
#     8   8   4   8   8   8   8   8
#     4  11  21  39  68  93 124 171 217 264 320 389
#     4  10  20  42  63  93 124 172 214 264 325 384
#     4  10  20  42  68  88 134 178 210 274 328 384
#     4  10  22  42  62  97 134 171 218 266 328 387
#     4  12  23  43  64  94 129 169 214 268 330 384
#     4  11  24  40  64  94 129 167 217 270 323 392
#     4   9  22  41  65  91 133 170 214 268 325 385
#     4  10  22  42  64  93 127 168 222 263 320 390
#
# _framework density 21.688614999999999
#
# number of rings (size 3 to 8) (size 9 to 14) (size 15 to 20)
#    0.000    1.600    2.667    3.200    0.000    1.067 
#    4.800    0.000    0.000    0.000    0.000    0.000 
#    0.000    0.000    0.000    0.000    0.000    0.000 
#
# Total GULP energy -167111.015478 kJ/mol
# GULP energy per Si atom -5570.367183 kJ/mol
# Density = 2.163925 g / cm^3
# Si number density = 21.688615 Si / 1000 Ang^3
#
#
#
# Elastic Constant Matrix: (Units=GPa)
#
#
# Indices 1 2 3 4 5 6 
#
# 1 99.6901 20.2254 20.4483 0.0000 16.0798 0.0000
# 2 20.2254 52.9876 24.7605 0.0000 18.5750 0.0000
# 3 20.4483 24.7605 105.2662 0.0000 5.5164 0.0000
# 4 0.0000 0.0000 0.0000 29.0145 0.0000 11.1400
# 5 16.0798 18.5750 5.5164 0.0000 38.2883 0.0000
# 6 0.0000 0.0000 0.0000 11.1400 0.0000 26.3653
#
#
#
# Elastic Compliance Matrix: (Units=1/GPa)
#
#
# Indices 1 2 3 4 5 6 
#
# 1 0.011375 -0.002486 -0.001449 0.000000 -0.003362 0.000000
# 2 -0.002486 0.025984 -0.005061 0.000000 -0.010832 0.000000
# 3 -0.001449 -0.005061 0.010893 0.000000 0.001494 0.000000
# 4 0.000000 0.000000 0.000000 0.041139 0.000000 -0.017382
# 5 -0.003362 -0.010832 0.001494 0.000000 0.032570 0.000000
# 6 0.000000 0.000000 0.000000 -0.017382 0.000000 0.045273
#
#
# Mechanical properties :
#
#
# Convention : Reuss Voigt Hill
#
# Bulk Modulus (GPa) = 33.04716 43.20137 38.12426
# Shear Modulus (GPa) = 25.59994 31.56759 28.58376
#
# Velocity S-wave (km/s) = 3.43933 3.81923 3.63425
# Velocity P-wave (km/s) = 5.57155 6.27781 5.93519
#
# Compressibility (1/GPa) = 0.03025979
#
# Stress axis : x y z
#
# Youngs Moduli (GPa) = 87.91237 38.48558 91.79947
#
# Poissons Ratio (x) = 0.09569 0.13298
# Poissons Ratio (y) = 0.21858 0.46462
# Poissons Ratio (z) = 0.12735 0.19478
#
# Static dielectric constant tensor:
#      x y z
#    x 1.876230 0.000000 0.006620 
#    y 0.000000 1.777030 0.000000 
#    z 0.006620 0.000000 1.855080 
# 
# From -- ./inp_files/171903.got.cif
#   From: 2010.05.17/outbox.cif.g08.bks.cpg/sg15_86_cif.got.tgz:171903.got - 2010.06.03 18:47:42.
