data_PCOD9277529
_publ_section_title
;
Structure prediction by ZEFSAII (Michael W. Deem and Ramdas Pophale) SiO2 
 PCOD9277529
Probable space group: C 2/C
;
_chemical_formula_sum "Si O2"
_cell_formula_units_Z 56
_cell_length_a 14.760999
_cell_length_b 19.224029
_cell_length_c 17.230270
_cell_angle_alpha 90.000000
_cell_angle_beta 148.294601
_cell_angle_gamma 90.000000
_cell_volume 2569.613421
_symmetry_space_group_name_H-M "C 2/C"
_symmetry_group_IT_number 15
_symmetry_cell_setting 'monoclinic'
loop_
_space_group_symop_operation_xyz
x,y,z
-x,y,1/2-z
-x,-y,-z
x,-y,1/2+z
1/2+x,1/2+y,z
1/2-x,1/2+y,1/2-z
1/2-x,1/2-y,-z
1/2+x,1/2-y,1/2+z
loop_
_atom_site_type_symbol
_atom_site_label
_atom_site_fract_x
_atom_site_fract_y
_atom_site_fract_z
Si Si1 0.643084 0.524742 0.668016
Si Si2 0.356067 0.177359 0.499166
Si Si3 0.260116 0.880060 0.783564
Si Si4 0.522890 0.661660 0.675054
Si Si5 0.396630 0.665545 0.058125
Si Si6 0.616833 0.916887 0.270624
Si Si7 0.326729 0.806705 0.674636
O O1 0.500000 0.500000 0.500000
O O2 0.688032 0.456429 0.749648
O O3 0.586398 0.593956 0.673089
O O4 0.825988 0.538243 0.759599
O O5 0.397157 0.144569 0.446263
O O6 0.337323 0.259264 0.485693
O O7 0.179507 0.152623 0.411929
O O8 0.505147 0.149791 0.664425
O O9 0.310657 0.862626 0.732612
O O10 0.096162 0.833161 0.685882
O O11 0.500000 0.643727 0.750000
O O12 0.648780 0.729532 0.769325
O O13 0.342923 0.686130 0.503273
O O14 0.298219 0.608394 0.936211
O O15 0.500000 0.953982 0.250000
O O16 0.500000 0.817151 0.750000
#
# Coordination Sequence:
#
# PCOD9277529 Si02
#       7
#     8   8   8   8   8   8   8
#     4  12  25  47  65  98 138 182 226 267 350 411
#     4  10  23  37  65 103 129 166 218 278 328 403
#     4  12  25  40  69  97 136 184 219 279 340 408
#     4  11  25  47  75 101 134 182 232 293 342 406
#     4  10  20  41  64  97 135 167 215 265 343 405
#     4  10  22  41  64  90 132 176 215 269 329 397
#     4  11  25  45  71 103 134 178 237 293 338 396
#
# _framework density 21.793161000000001
#
# number of rings (size 3 to 8) (size 9 to 14) (size 15 to 20)
#    0.000    1.143    2.857    3.000    6.000    5.714 
#    0.000    0.000    0.000    0.000    0.000    0.000 
#    0.000    0.000    0.000    0.000    0.000    0.000 
#
# Total GULP energy -156167.086275 kJ/mol
# GULP energy per Si atom -5577.395938 kJ/mol
# Density = 2.174356 g / cm^3
# Si number density = 21.793161 Si / 1000 Ang^3
#
#
#
# Elastic Constant Matrix: (Units=GPa)
#
#
# Indices 1 2 3 4 5 6 
#
# 1 88.6992 44.3064 46.3688 0.0004 -4.1641 0.0001
# 2 44.3064 96.9333 28.6016 0.0026 -0.8407 0.0024
# 3 46.3688 28.6016 78.8997 0.0044 -13.2555 0.0009
# 4 0.0004 0.0026 0.0044 22.4789 0.0008 -9.1828
# 5 -4.1641 -0.8407 -13.2555 0.0008 29.3908 0.0003
# 6 0.0001 0.0024 0.0009 -9.1828 0.0003 41.6378
#
#
#
# Elastic Compliance Matrix: (Units=1/GPa)
#
#
# Indices 1 2 3 4 5 6 
#
# 1 0.019045 -0.005973 -0.009308 0.000003 -0.001671 0.000001
# 2 -0.005973 0.013503 -0.001582 -0.000002 -0.001173 -0.000001
# 3 -0.009308 -0.001582 0.020005 -0.000004 0.007658 -0.000001
# 4 0.000003 -0.000002 -0.000004 0.048891 -0.000003 0.010782
# 5 -0.001671 -0.001173 0.007658 -0.000003 0.037208 -0.000001
# 6 0.000001 -0.000001 -0.000001 0.010782 -0.000001 0.026395
#
#
# Mechanical properties :
#
#
# Convention : Reuss Voigt Hill
#
# Bulk Modulus (GPa) = 53.11518 55.89841 54.50680
# Shear Modulus (GPa) = 24.38450 28.38518 26.38484
#
# Velocity S-wave (km/s) = 3.34863 3.61291 3.48328
# Velocity P-wave (km/s) = 6.27507 6.56577 6.42206
#
# Compressibility (1/GPa) = 0.01882701
#
# Stress axis : x y z
#
# Youngs Moduli (GPa) = 52.50640 74.05677 49.98846
#
# Poissons Ratio (x) = 0.44236 0.46530
# Poissons Ratio (y) = 0.31363 0.07907
# Poissons Ratio (z) = 0.48874 0.11713
#
# Static dielectric constant tensor:
#      x y z
#    x 1.871840 0.000000 -0.044370 
#    y 0.000000 1.801270 0.000000 
#    z -0.044370 0.000000 1.862810 
# 
# From -- ./inp_files/206986.got.cif
#   From: 2010.05.17/outbox.cif.g08.bks.cpg/sg15_104_cif.got.tgz:206986.got - 2010.06.03 18:47:42.
