data_PCOD9277662
_publ_section_title
;
Structure prediction by ZEFSAII (Michael W. Deem and Ramdas Pophale) SiO2 
 PCOD9277662
Probable space group: C 2/C
;
_chemical_formula_sum "Si O2"
_cell_formula_units_Z 48
_cell_length_a 16.387551
_cell_length_b 14.389187
_cell_length_c 9.904015
_cell_angle_alpha 90.000000
_cell_angle_beta 102.627308
_cell_angle_gamma 90.000000
_cell_volume 2278.914648
_symmetry_space_group_name_H-M "C 2/C"
_symmetry_group_IT_number 15
_symmetry_cell_setting 'monoclinic'
loop_
_space_group_symop_operation_xyz
x,y,z
-x,y,1/2-z
-x,-y,-z
x,-y,1/2+z
1/2+x,1/2+y,z
1/2-x,1/2+y,1/2-z
1/2-x,1/2-y,-z
1/2+x,1/2-y,1/2+z
loop_
_atom_site_type_symbol
_atom_site_label
_atom_site_fract_x
_atom_site_fract_y
_atom_site_fract_z
Si Si1 0.610716 0.964182 0.651563
Si Si2 0.083320 0.598869 0.424801
Si Si3 0.071328 0.057477 0.891943
Si Si4 0.824890 0.775031 0.124732
Si Si5 0.175721 0.279395 0.570264
Si Si6 0.463039 0.644585 0.089379
O O1 0.514350 0.927615 0.609911
O O2 0.627862 0.956813 0.817342
O O3 0.661879 0.889203 0.583741
O O4 0.616575 0.063207 0.580841
O O5 0.099967 0.705890 0.395059
O O6 0.148600 0.119123 0.877399
O O7 0.000000 0.062809 0.750000
O O8 0.092213 0.949424 0.917233
O O9 0.034006 0.105906 0.012986
O O10 0.805450 0.754113 0.271796
O O11 0.750000 0.750000 0.000000
O O12 0.250000 0.250000 0.500000
O O13 0.090972 0.228180 0.490052
O O14 0.500000 0.667637 0.250000
#
# Coordination Sequence:
#
# PCOD9277662 Si02
#       6
#     8   8   8   8   8   8
#     4   9  19  38  60  84 111 152 191 243 290 341
#     4   9  19  37  61  84 112 147 198 238 288 345
#     4  10  20  41  67  88 116 158 207 252 298 357
#     4  11  24  39  61  87 120 165 199 237 302 364
#     4  11  24  41  57  87 128 158 192 251 302 352
#     4  10  22  39  65  94 117 154 204 255 303 353
#
# _framework density 21.062657999999999
#
# number of rings (size 3 to 8) (size 9 to 14) (size 15 to 20)
#    0.000    2.000    1.667    1.000    4.667    2.667 
#    6.000    3.333    0.000    0.000    0.000    0.000 
#    0.000    0.000    0.000    0.000    0.000    0.000 
#
# Total GULP energy -133990.531119 kJ/mol
# GULP energy per Si atom -5582.938797 kJ/mol
# Density = 2.101472 g / cm^3
# Si number density = 21.062658 Si / 1000 Ang^3
#
#
#
# Elastic Constant Matrix: (Units=GPa)
#
#
# Indices 1 2 3 4 5 6 
#
# 1 30.1180 1.2868 10.3471 0.0000 -9.9502 0.0000
# 2 1.2868 41.7748 13.2175 0.0000 -11.3562 0.0000
# 3 10.3471 13.2175 101.8740 0.0000 2.8297 0.0000
# 4 0.0000 0.0000 0.0000 26.9986 0.0000 -6.8360
# 5 -9.9502 -11.3562 2.8297 0.0000 30.7498 0.0000
# 6 0.0000 0.0000 0.0000 -6.8360 0.0000 3.0586
#
#
#
# Elastic Compliance Matrix: (Units=1/GPa)
#
#
# Indices 1 2 3 4 5 6 
#
# 1 0.039671 0.004425 -0.005018 0.000000 0.014933 0.000000
# 2 0.004425 0.028600 -0.004505 0.000000 0.012409 0.000000
# 3 -0.005018 -0.004505 0.011030 0.000000 -0.004302 0.000000
# 4 0.000000 0.000000 0.000000 0.085326 0.000000 0.190708
# 5 0.014933 0.012409 -0.004302 0.000000 0.042331 0.000000
# 6 0.000000 0.000000 0.000000 0.190708 0.000000 0.753194
#
#
# Mechanical properties :
#
#
# Convention : Reuss Voigt Hill
#
# Bulk Modulus (GPa) = 14.47068 24.82996 19.65032
# Shear Modulus (GPa) = 5.03330 22.08909 13.56120
#
# Velocity S-wave (km/s) = 1.54754 3.24193 2.54017
# Velocity P-wave (km/s) = 3.17465 5.08209 4.23710
#
# Compressibility (1/GPa) = 0.06910523
#
# Stress axis : x y z
#
# Youngs Moduli (GPa) = 25.20723 34.96490 90.66424
#
# Poissons Ratio (x) = -0.15472 0.45497
# Poissons Ratio (y) = -0.11155 0.40842
# Poissons Ratio (z) = 0.12650 0.15751
#
# Static dielectric constant tensor:
#      x y z
#    x 1.769750 0.000000 0.004750 
#    y 0.000000 1.763450 0.000000 
#    z 0.004750 0.000000 1.757620 
# 
# From -- ./inp_files/47456.got.cif
#   From: 2010.05.17/outbox.cif.g08.bks.cpg/sg15_24_cif.got.tgz:47456.got - 2010.06.03 18:47:42.
