data_PCOD9277774
_publ_section_title
;
Structure prediction by ZEFSAII (Michael W. Deem and Ramdas Pophale) SiO2 
 PCOD9277774
Probable space group: C 2/C
;
_chemical_formula_sum "Si O2"
_cell_formula_units_Z 48
_cell_length_a 19.526726
_cell_length_b 5.265836
_cell_length_c 28.912388
_cell_angle_alpha 90.000000
_cell_angle_beta 141.710511
_cell_angle_gamma 90.000000
_cell_volume 1842.114847
_symmetry_space_group_name_H-M "C 2/C"
_symmetry_group_IT_number 15
_symmetry_cell_setting 'monoclinic'
loop_
_space_group_symop_operation_xyz
x,y,z
-x,y,1/2-z
-x,-y,-z
x,-y,1/2+z
1/2+x,1/2+y,z
1/2-x,1/2+y,1/2-z
1/2-x,1/2-y,-z
1/2+x,1/2-y,1/2+z
loop_
_atom_site_type_symbol
_atom_site_label
_atom_site_fract_x
_atom_site_fract_y
_atom_site_fract_z
Si Si1 0.845929 0.595580 0.077499
Si Si2 0.402491 0.005597 0.012399
Si Si3 0.039852 0.067883 0.722942
Si Si4 0.237701 0.348827 0.875064
Si Si5 0.271726 0.603950 0.232419
Si Si6 0.593944 0.276566 0.074914
O O1 0.891241 0.423811 0.059387
O O2 0.799664 0.476347 0.100631
O O3 0.942023 0.785353 0.145522
O O4 0.750000 0.750000 0.000000
O O5 0.489549 0.239648 0.053084
O O6 0.289577 0.112480 0.930514
O O7 0.442825 0.801439 0.996338
O O8 0.132278 0.271666 0.789208
O O9 0.000000 0.945885 0.750000
O O10 0.107015 0.882667 0.725245
O O11 0.331718 0.476988 0.894006
O O12 0.260366 0.354207 0.256900
O O13 0.182973 0.585980 0.144364
#
# Coordination Sequence:
#
# PCOD9277774 Si02
#       6
#     8   8   8   8   8   8
#     4   9  20  39  67  96 130 176 227 289 343 418
#     4  10  21  40  62  96 139 171 232 279 350 412
#     4  10  21  43  71  98 137 181 233 289 352 419
#     4  10  20  41  69  92 135 181 229 283 346 414
#     4  12  26  46  72 105 142 182 239 294 352 420
#     4  11  23  39  65  98 132 182 225 283 350 415
#
# _framework density 26.057006999999999
#
# number of rings (size 3 to 8) (size 9 to 14) (size 15 to 20)
#    0.000    1.667    1.667    2.500    0.000    0.667 
#   12.000    8.333    0.000    0.000    0.000    0.000 
#    0.000    0.000    0.000    0.000    0.000    0.000 
#
# Total GULP energy -134227.674127 kJ/mol
# GULP energy per Si atom -5592.819755 kJ/mol
# Density = 2.599770 g / cm^3
# Si number density = 26.057007 Si / 1000 Ang^3
#
#
#
# Elastic Constant Matrix: (Units=GPa)
#
#
# Indices 1 2 3 4 5 6 
#
# 1 104.7307 36.3987 34.7343 -0.0012 -4.6475 0.0038
# 2 36.3987 61.6843 17.0113 -0.0057 -2.3183 0.0224
# 3 34.7343 17.0113 158.2150 -0.0036 15.5882 0.0058
# 4 -0.0012 -0.0057 -0.0036 35.0763 0.0015 3.4938
# 5 -4.6475 -2.3183 15.5882 0.0015 46.6541 -0.0018
# 6 0.0038 0.0224 0.0058 3.4938 -0.0018 -5.5263
#
#
#
# Elastic Compliance Matrix: (Units=1/GPa)
#
#
# Indices 1 2 3 4 5 6 
#
# 1 0.012738 -0.006840 -0.002226 0.000001 0.001673 -0.000021
# 2 -0.006840 0.020479 -0.000758 -0.000004 0.000590 0.000075
# 3 -0.002226 -0.000758 0.007152 0.000000 -0.002649 0.000004
# 4 0.000001 -0.000004 0.000000 0.026820 0.000000 0.016956
# 5 0.001673 0.000590 -0.002649 0.000000 0.022515 -0.000007
# 6 -0.000021 0.000075 0.000004 0.016956 -0.000007 -0.170234
#
#
# Mechanical properties :
#
#
# Convention : Reuss Voigt Hill
#
# Bulk Modulus (GPa) = 48.26129 55.65760 51.95945
# Shear Modulus (GPa) = -92.63466 31.00655 -30.81405
#
# Velocity S-wave (km/s) = -5.96891 3.45331 -3.44257
# Velocity P-wave (km/s) = 5.37980 6.10793 2.04505
#
# Compressibility (1/GPa) = 0.02072054
#
# Stress axis : x y z
#
# Youngs Moduli (GPa) = 78.50640 48.83102 139.82669
#
# Poissons Ratio (x) = 0.33399 0.31123
# Poissons Ratio (y) = 0.53695 0.10605
# Poissons Ratio (z) = 0.17474 0.03703
#
# Static dielectric constant tensor:
#      x y z
#    x 2.185290 -0.000010 -0.017600 
#    y -0.000010 2.138910 0.000010 
#    z -0.017600 0.000010 2.008160 
# 
# From -- ./inp_files/317098.got.cif
#   From: 2010.05.17/outbox.cif.g08.bks.cpg/sg15_159_cif.got.tgz:317098.got - 2010.06.03 18:47:42.
