data_PCOD9277870
_publ_section_title
;
Structure prediction by ZEFSAII (Michael W. Deem and Ramdas Pophale) SiO2 
 PCOD9277870
Probable space group: C 2/C
;
_chemical_formula_sum "Si O2"
_cell_formula_units_Z 52
_cell_length_a 25.724467
_cell_length_b 10.614599
_cell_length_c 8.472670
_cell_angle_alpha 90.000000
_cell_angle_beta 69.957481
_cell_angle_gamma 90.000000
_cell_volume 2173.394913
_symmetry_space_group_name_H-M "C 2/C"
_symmetry_group_IT_number 15
_symmetry_cell_setting 'monoclinic'
loop_
_space_group_symop_operation_xyz
x,y,z
-x,y,1/2-z
-x,-y,-z
x,-y,1/2+z
1/2+x,1/2+y,z
1/2-x,1/2+y,1/2-z
1/2-x,1/2-y,-z
1/2+x,1/2-y,1/2+z
loop_
_atom_site_type_symbol
_atom_site_label
_atom_site_fract_x
_atom_site_fract_y
_atom_site_fract_z
Si Si1 0.876756 0.249785 0.352298
Si Si2 0.772611 0.860686 0.087711
Si Si3 0.288589 0.065270 0.550010
Si Si4 0.000000 0.994021 0.250000
Si Si5 0.553974 0.664954 0.462571
Si Si6 0.527685 0.864472 0.064438
Si Si7 0.367054 0.966964 0.726098
O O1 0.836883 0.169851 0.504380
O O2 0.886019 0.183287 0.174367
O O3 0.933544 0.261568 0.390275
O O4 0.865722 0.393557 0.306070
O O5 0.752491 0.988690 0.022529
O O6 0.750000 0.750000 0.000000
O O7 0.746795 0.853864 0.289234
O O8 0.338504 0.120363 0.389529
O O9 0.322939 0.972225 0.630695
O O10 0.975983 0.076025 0.134315
O O11 0.952348 0.901939 0.365507
O O12 0.519702 0.796317 0.488091
O O13 0.500000 0.928932 0.250000
O O14 0.572865 0.935908 0.908895
#
# Coordination Sequence:
#
# PCOD9277870 Si02
#       7
#     8   8   8   4   8   8   8
#     4  11  21  39  65  85 123 171 195 262 326 358
#     4  11  21  42  63  85 129 160 213 263 317 372
#     4  10  22  38  63  92 118 172 208 264 315 372
#     4  10  20  42  60  78 130 162 200 254 298 360
#     4  10  22  39  63  89 122 164 204 255 309 363
#     4  10  21  40  61  99 126 160 207 257 316 377
#     4  11  20  40  65  89 131 160 205 255 330 376
#
# _framework density 23.925704
#
# number of rings (size 3 to 8) (size 9 to 14) (size 15 to 20)
#    0.000    1.538    6.923    0.000    0.000    4.923 
#    1.385    6.923    0.000    0.000    0.000    0.000 
#    0.000    0.000    0.000    0.000    0.000    0.000 
#
# Total GULP energy -144874.524796 kJ/mol
# GULP energy per Si atom -5572.097108 kJ/mol
# Density = 2.387125 g / cm^3
# Si number density = 23.925704 Si / 1000 Ang^3
#
#
#
# Elastic Constant Matrix: (Units=GPa)
#
#
# Indices 1 2 3 4 5 6 
#
# 1 42.5720 2.5897 22.7292 0.0000 -16.8708 0.0000
# 2 2.5897 54.8500 56.5196 0.0000 -18.9868 0.0000
# 3 22.7292 56.5196 216.8794 0.0000 -56.9127 0.0000
# 4 0.0000 0.0000 0.0000 40.6231 0.0000 -18.8368
# 5 -16.8708 -18.9868 -56.9127 0.0000 41.8564 0.0000
# 6 0.0000 0.0000 0.0000 -18.8368 0.0000 11.4487
#
#
#
# Elastic Compliance Matrix: (Units=1/GPa)
#
#
# Indices 1 2 3 4 5 6 
#
# 1 0.028462 0.003617 -0.000753 0.000000 0.012089 0.000000
# 2 0.003617 0.025789 -0.005671 0.000000 0.005446 0.000000
# 3 -0.000753 -0.005671 0.008416 0.000000 0.008567 0.000000
# 4 0.000000 0.000000 0.000000 0.103837 0.000000 0.170845
# 5 0.012089 0.005446 0.008567 0.000000 0.042883 0.000000
# 6 0.000000 0.000000 0.000000 0.170845 0.000000 0.368442
#
#
# Mechanical properties :
#
#
# Convention : Reuss Voigt Hill
#
# Bulk Modulus (GPa) = 17.52750 53.10871 35.31810
# Shear Modulus (GPa) = 8.29929 34.28316 21.29123
#
# Velocity S-wave (km/s) = 1.86449 3.78947 2.98634
# Velocity P-wave (km/s) = 3.46075 6.43369 5.16571
#
# Compressibility (1/GPa) = 0.05705321
#
# Stress axis : x y z
#
# Youngs Moduli (GPa) = 35.13413 38.77585 118.82475
#
# Poissons Ratio (x) = -0.14025 0.08950
# Poissons Ratio (y) = -0.12708 0.67383
# Poissons Ratio (z) = 0.02646 0.21989
#
# Static dielectric constant tensor:
#      x y z
#    x 2.115550 0.000000 -0.125670 
#    y 0.000000 2.022970 0.000000 
#    z -0.125670 0.000000 2.055770 
# 
# From -- ./inp_files/68992.got.cif
#   From: 2010.05.17/outbox.cif.g08.bks.cpg/sg15_35_cif.got.tgz:68992.got - 2010.06.03 18:47:42.
