data_PCOD9277421
_publ_section_title
;
Structure prediction by ZEFSAII (Michael W. Deem and Ramdas Pophale) SiO2 
 PCOD9277421
Probable space group: C 2/C
;
_chemical_formula_sum "Si O2"
_cell_formula_units_Z 60
_cell_length_a 21.416372
_cell_length_b 8.281220
_cell_length_c 26.362000
_cell_angle_alpha 90.000000
_cell_angle_beta 37.890068
_cell_angle_gamma 90.000000
_cell_volume 2871.388185
_symmetry_space_group_name_H-M "C 2/C"
_symmetry_group_IT_number 15
_symmetry_cell_setting 'monoclinic'
loop_
_space_group_symop_operation_xyz
x,y,z
-x,y,1/2-z
-x,-y,-z
x,-y,1/2+z
1/2+x,1/2+y,z
1/2-x,1/2+y,1/2-z
1/2-x,1/2-y,-z
1/2+x,1/2-y,1/2+z
loop_
_atom_site_type_symbol
_atom_site_label
_atom_site_fract_x
_atom_site_fract_y
_atom_site_fract_z
Si Si1 0.330879 0.225509 0.300921
Si Si2 0.448718 0.327826 0.040775
Si Si3 0.615107 0.082584 0.336246
Si Si4 0.306420 0.189453 0.056373
Si Si5 0.531017 0.162269 0.628788
Si Si6 0.410430 0.584085 0.266275
Si Si7 0.359407 0.116445 0.585496
Si Si8 0.500000 0.025380 0.250000
O O1 0.323914 0.137884 0.251578
O O2 0.374352 0.408235 0.270875
O O3 0.214326 0.248774 0.390124
O O4 0.407028 0.129896 0.288016
O O5 0.419359 0.248988 0.113809
O O6 0.351463 0.319800 0.066536
O O7 0.500000 0.500000 0.000000
O O8 0.533805 0.196230 0.970500
O O9 0.527159 0.969459 0.368713
O O10 0.671502 0.975507 0.342646
O O11 0.186161 0.168268 0.143365
O O12 0.353454 0.022625 0.047820
O O13 0.363228 0.212356 0.966078
O O14 0.455319 0.310510 0.691023
O O15 0.542761 0.078891 0.676052
O O16 0.500000 0.564154 0.250000
#
# Coordination Sequence:
#
# PCOD9277421 Si02
#       8
#     8   8   8   8   8   8   8   4
#     4  10  23  39  66  94 135 169 221 281 324 386
#     4  11  22  38  61  99 133 158 225 270 326 412
#     4  10  21  38  64  90 129 172 211 264 349 388
#     4  10  22  43  67  89 132 177 209 272 343 382
#     4  11  21  42  69  87 129 178 221 266 334 394
#     4  11  24  43  64  96 127 169 230 276 314 390
#     4  10  20  41  62  93 130 168 213 268 334 401
#     4  10  22  42  62  96 132 182 228 264 324 400
#
# _framework density 20.895816
#
# number of rings (size 3 to 8) (size 9 to 14) (size 15 to 20)
#    0.000    1.600    4.000    0.800    1.867    6.933 
#    0.000    4.000    0.000    0.000    0.000    0.000 
#    0.000    0.000    0.000    0.000    0.000    0.000 
#
# Total GULP energy -167164.754350 kJ/mol
# GULP energy per Si atom -5572.158478 kJ/mol
# Density = 2.084826 g / cm^3
# Si number density = 20.895816 Si / 1000 Ang^3
#
#
#
# Elastic Constant Matrix: (Units=GPa)
#
#
# Indices 1 2 3 4 5 6 
#
# 1 69.9974 -1.2878 26.4718 0.0001 -3.4535 -0.0018
# 2 -1.2878 22.2490 -5.0975 0.0005 -0.6719 -0.0025
# 3 26.4718 -5.0975 76.7951 0.0001 0.6022 -0.0003
# 4 0.0001 0.0005 0.0001 25.8856 0.0001 -1.7766
# 5 -3.4535 -0.6719 0.6022 0.0001 37.6196 0.0005
# 6 -0.0018 -0.0025 -0.0003 -1.7766 0.0005 15.1317
#
#
#
# Elastic Compliance Matrix: (Units=1/GPa)
#
#
# Indices 1 2 3 4 5 6 
#
# 1 0.016527 -0.000308 -0.005730 0.000000 0.001603 0.000002
# 2 -0.000308 0.045668 0.003132 0.000000 0.000737 0.000008
# 3 -0.005730 0.003132 0.015210 0.000000 -0.000714 0.000000
# 4 0.000000 0.000000 0.000000 0.038945 0.000000 0.004573
# 5 0.001603 0.000737 -0.000714 0.000000 0.026754 -0.000001
# 6 0.000002 0.000008 0.000000 0.004573 -0.000001 0.066623
#
#
# Mechanical properties :
#
#
# Convention : Reuss Voigt Hill
#
# Bulk Modulus (GPa) = 13.96788 23.24605 18.60697
# Shear Modulus (GPa) = 20.88525 25.65769 23.27147
#
# Velocity S-wave (km/s) = 3.16491 3.50792 3.34082
# Velocity P-wave (km/s) = 4.47823 5.24941 4.87908
#
# Compressibility (1/GPa) = 0.07159281
#
# Stress axis : x y z
#
# Youngs Moduli (GPa) = 60.50850 21.89724 65.74515
#
# Poissons Ratio (x) = 0.00674 0.37671
# Poissons Ratio (y) = 0.01862 -0.20589
# Poissons Ratio (z) = 0.34670 -0.06858
#
# Static dielectric constant tensor:
#      x y z
#    x 1.737950 0.000000 -0.002070 
#    y 0.000000 1.816060 0.000000 
#    z -0.002070 0.000000 1.821150 
# 
# From -- ./inp_files/279689.got.cif
#   From: 2010.05.17/outbox.cif.g08.bks.cpg/sg15_140_cif.got.tgz:279689.got - 2010.06.03 18:47:42.
