data_PCOD9277965
_publ_section_title
;
Structure prediction by ZEFSAII (Michael W. Deem and Ramdas Pophale) SiO2 
 PCOD9277965
Probable space group: C 2/C
;
_chemical_formula_sum "Si O2"
_cell_formula_units_Z 40
_cell_length_a 18.482507
_cell_length_b 12.494928
_cell_length_c 8.396205
_cell_angle_alpha 90.000000
_cell_angle_beta 64.551186
_cell_angle_gamma 90.000000
_cell_volume 1750.857357
_symmetry_space_group_name_H-M "C 2/C"
_symmetry_group_IT_number 15
_symmetry_cell_setting 'monoclinic'
loop_
_space_group_symop_operation_xyz
x,y,z
-x,y,1/2-z
-x,-y,-z
x,-y,1/2+z
1/2+x,1/2+y,z
1/2-x,1/2+y,1/2-z
1/2-x,1/2-y,-z
1/2+x,1/2-y,1/2+z
loop_
_atom_site_type_symbol
_atom_site_label
_atom_site_fract_x
_atom_site_fract_y
_atom_site_fract_z
Si Si1 0.982988 0.343022 0.512169
Si Si2 0.195632 0.784283 0.807803
Si Si3 0.533654 0.609133 0.396828
Si Si4 0.839931 0.631699 0.358373
Si Si5 0.130805 0.602352 0.675760
O O1 0.931031 0.371597 0.713522
O O2 0.924225 0.361565 0.417973
O O3 0.001147 0.217198 0.508350
O O4 0.065413 0.403000 0.385250
O O5 0.129338 0.873961 0.826262
O O6 0.280840 0.833312 0.771690
O O7 0.190607 0.695002 0.675532
O O8 0.171839 0.717144 0.990352
O O9 0.500000 0.614455 0.250000
O O10 0.500000 0.500000 0.500000
O O11 0.824391 0.507052 0.408380
#
# Coordination Sequence:
#
# PCOD9277965 Si02
#       5
#     8   8   8   8   8
#     4  10  21  40  66  93 124 165 219 264 316 383
#     4  10  24  44  60  98 136 156 228 259 316 402
#     4  11  24  45  65  90 125 172 216 267 313 383
#     4  11  23  38  66  98 129 175 199 272 330 376
#     4  10  20  42  63  93 132 165 215 262 316 385
#
# _framework density 22.845950999999999
#
# number of rings (size 3 to 8) (size 9 to 14) (size 15 to 20)
#    0.000    1.600    4.000    1.800    2.800    9.600 
#    7.200    0.000    0.000    0.000    0.000    0.000 
#    0.000    0.000    0.000    0.000    0.000    0.000 
#
# Total GULP energy -111754.545392 kJ/mol
# GULP energy per Si atom -5587.727270 kJ/mol
# Density = 2.279395 g / cm^3
# Si number density = 22.845951 Si / 1000 Ang^3
#
#
#
# Elastic Constant Matrix: (Units=GPa)
#
#
# Indices 1 2 3 4 5 6 
#
# 1 158.7542 39.7865 20.6163 0.0000 27.4889 0.0000
# 2 39.7865 128.8177 8.4782 0.0000 -5.8766 0.0000
# 3 20.6163 8.4782 40.9008 0.0000 -13.3897 0.0000
# 4 0.0000 0.0000 0.0000 18.2439 0.0000 4.0838
# 5 27.4889 -5.8766 -13.3897 0.0000 34.2541 0.0000
# 6 0.0000 0.0000 0.0000 4.0838 0.0000 10.4717
#
#
#
# Elastic Compliance Matrix: (Units=1/GPa)
#
#
# Indices 1 2 3 4 5 6 
#
# 1 0.010301 -0.003175 -0.008508 0.000000 -0.012137 0.000000
# 2 -0.003175 0.008869 0.001255 0.000000 0.004560 0.000000
# 3 -0.008508 0.001255 0.035300 0.000000 0.020841 0.000000
# 4 0.000000 0.000000 0.000000 0.060055 0.000000 -0.023421
# 5 -0.012137 0.004560 0.020841 0.000000 0.047863 0.000000
# 6 0.000000 0.000000 0.000000 -0.023421 0.000000 0.104629
#
#
# Mechanical properties :
#
#
# Convention : Reuss Voigt Hill
#
# Bulk Modulus (GPa) = 29.74861 51.80387 40.77624
# Shear Modulus (GPa) = 16.71801 29.90005 23.30903
#
# Velocity S-wave (km/s) = 2.70806 3.62161 3.19763
# Velocity P-wave (km/s) = 4.77784 6.34134 5.61429
#
# Compressibility (1/GPa) = 0.03361502
#
# Stress axis : x y z
#
# Youngs Moduli (GPa) = 97.07573 112.75109 28.32836
#
# Poissons Ratio (x) = 0.35803 0.24100
# Poissons Ratio (y) = 0.30825 -0.03555
# Poissons Ratio (z) = 0.82587 -0.14151
#
# Static dielectric constant tensor:
#      x y z
#    x 1.852370 0.000000 -0.015800 
#    y 0.000000 1.863030 0.000000 
#    z -0.015800 0.000000 1.919330 
# 
# From -- ./inp_files/46093.got.cif
#   From: 2010.05.17/outbox.cif.g08.bks.cpg/sg15_24_cif.got.tgz:46093.got - 2010.06.03 18:47:42.
