data_PCOD9277724
_publ_section_title
;
Structure prediction by ZEFSAII (Michael W. Deem and Ramdas Pophale) SiO2 
 PCOD9277724
Probable space group: C 2/C
;
_chemical_formula_sum "Si O2"
_cell_formula_units_Z 60
_cell_length_a 11.286649
_cell_length_b 16.053622
_cell_length_c 16.515545
_cell_angle_alpha 90.000000
_cell_angle_beta 105.044482
_cell_angle_gamma 90.000000
_cell_volume 2889.909587
_symmetry_space_group_name_H-M "C 2/C"
_symmetry_group_IT_number 15
_symmetry_cell_setting 'monoclinic'
loop_
_space_group_symop_operation_xyz
x,y,z
-x,y,1/2-z
-x,-y,-z
x,-y,1/2+z
1/2+x,1/2+y,z
1/2-x,1/2+y,1/2-z
1/2-x,1/2-y,-z
1/2+x,1/2-y,1/2+z
loop_
_atom_site_type_symbol
_atom_site_label
_atom_site_fract_x
_atom_site_fract_y
_atom_site_fract_z
Si Si1 0.747258 0.405887 0.431672
Si Si2 0.360805 0.321727 0.797453
Si Si3 0.769512 0.434992 0.836431
Si Si4 0.881210 0.246393 0.673420
Si Si5 0.034095 0.388089 0.924093
Si Si6 0.161402 0.481171 0.323375
Si Si7 0.000000 0.672092 0.750000
Si Si8 0.892488 0.049176 0.438119
O O1 0.720358 0.493962 0.386342
O O2 0.691444 0.335270 0.365772
O O3 0.891754 0.401176 0.479363
O O4 0.680115 0.400256 0.505792
O O5 0.335597 0.371056 0.709572
O O6 0.221408 0.302218 0.800816
O O7 0.432106 0.235841 0.798307
O O8 0.419990 0.384883 0.872292
O O9 0.819929 0.480161 0.763103
O O10 0.888007 0.394597 0.899975
O O11 0.927446 0.299035 0.604974
O O12 0.000000 0.230756 0.750000
O O13 0.082652 0.457291 0.867482
O O14 0.296615 0.482464 0.384954
O O15 0.098035 0.391669 0.305999
O O16 0.000000 0.000000 0.500000
#
# Coordination Sequence:
#
# PCOD9277724 Si02
#       8
#     8   8   8   8   8   8   4   8
#     4  11  25  36  66  99 125 161 222 265 328 386
#     4  11  25  41  66  94 132 168 218 274 322 382
#     4  11  20  41  66  95 123 170 220 265 319 399
#     4  12  22  42  65  96 129 170 217 276 326 382
#     4  11  19  41  64  93 129 165 207 276 327 383
#     4  10  20  41  68  88 123 175 220 251 329 388
#     4  12  24  40  66  98 124 168 232 268 302 398
#     4  10  24  46  64  87 135 179 204 269 342 390
#
# _framework density 20.761894999999999
#
# number of rings (size 3 to 8) (size 9 to 14) (size 15 to 20)
#    0.000    1.067    6.667    1.600    1.867    3.200 
#    0.000    0.667    0.000    0.000    0.000    0.000 
#    0.000    0.000    0.000    0.000    0.000    0.000 
#
# Total GULP energy -167607.753553 kJ/mol
# GULP energy per Si atom -5586.925118 kJ/mol
# Density = 2.071464 g / cm^3
# Si number density = 20.761895 Si / 1000 Ang^3
#
#
#
# Elastic Constant Matrix: (Units=GPa)
#
#
# Indices 1 2 3 4 5 6 
#
# 1 57.6435 31.8519 27.6929 0.0000 20.2806 0.0000
# 2 31.8519 82.1362 16.3149 0.0000 12.4583 0.0000
# 3 27.6929 16.3149 71.4123 0.0000 35.4040 0.0000
# 4 0.0000 0.0000 0.0000 31.2782 0.0000 6.5788
# 5 20.2806 12.4583 35.4040 0.0000 36.0880 0.0000
# 6 0.0000 0.0000 0.0000 6.5788 0.0000 32.1338
#
#
#
# Elastic Compliance Matrix: (Units=1/GPa)
#
#
# Indices 1 2 3 4 5 6 
#
# 1 0.026913 -0.008341 -0.004790 0.000000 -0.007546 0.000000
# 2 -0.008341 0.015508 0.000042 0.000000 -0.000708 0.000000
# 3 -0.004790 0.000042 0.028277 0.000000 -0.025064 0.000000
# 4 0.000000 0.000000 0.000000 0.033410 0.000000 -0.006840
# 5 -0.007546 -0.000708 -0.025064 0.000000 0.056784 0.000000
# 6 0.000000 0.000000 0.000000 -0.006840 0.000000 0.032520
#
#
# Mechanical properties :
#
#
# Convention : Reuss Voigt Hill
#
# Bulk Modulus (GPa) = 22.46106 40.32350 31.39228
# Shear Modulus (GPa) = 21.32847 28.92215 25.12531
#
# Velocity S-wave (km/s) = 3.20861 3.73639 3.48252
# Velocity P-wave (km/s) = 4.95669 6.17076 5.59674
#
# Compressibility (1/GPa) = 0.04452149
#
# Stress axis : x y z
#
# Youngs Moduli (GPa) = 37.15709 64.48154 35.36468
#
# Poissons Ratio (x) = 0.53781 0.16940
# Poissons Ratio (y) = 0.30991 -0.00150
# Poissons Ratio (z) = 0.17799 -0.00274
#
# Static dielectric constant tensor:
#      x y z
#    x 1.793220 0.000000 -0.002950 
#    y 0.000000 1.725410 0.000000 
#    z -0.002950 0.000000 1.754960 
# 
# From -- ./inp_files/198386.got.cif
#   From: 2010.05.17/outbox.cif.g08.bks.cpg/sg15_100_cif.got.tgz:198386.got - 2010.06.03 18:47:42.
