data_PCOD9277566
_publ_section_title
;
Structure prediction by ZEFSAII (Michael W. Deem and Ramdas Pophale) SiO2 
 PCOD9277566
Probable space group: C 2/C
;
_chemical_formula_sum "Si O2"
_cell_formula_units_Z 56
_cell_length_a 23.190536
_cell_length_b 10.882832
_cell_length_c 11.212078
_cell_angle_alpha 90.000000
_cell_angle_beta 99.346041
_cell_angle_gamma 90.000000
_cell_volume 2792.127143
_symmetry_space_group_name_H-M "C 2/C"
_symmetry_group_IT_number 15
_symmetry_cell_setting 'monoclinic'
loop_
_space_group_symop_operation_xyz
x,y,z
-x,y,1/2-z
-x,-y,-z
x,-y,1/2+z
1/2+x,1/2+y,z
1/2-x,1/2+y,1/2-z
1/2-x,1/2-y,-z
1/2+x,1/2-y,1/2+z
loop_
_atom_site_type_symbol
_atom_site_label
_atom_site_fract_x
_atom_site_fract_y
_atom_site_fract_z
Si Si1 0.136313 0.071097 0.444210
Si Si2 0.432573 0.753911 0.252409
Si Si3 0.133832 0.724229 0.136215
Si Si4 0.620842 0.051547 0.921781
Si Si5 0.945805 0.676558 0.169872
Si Si6 0.237165 0.620880 0.061553
Si Si7 0.046195 0.112347 0.996316
O O1 0.094851 0.152192 0.345413
O O2 0.140656 0.146150 0.570829
O O3 0.200016 0.060056 0.406475
O O4 0.104147 0.946127 0.460241
O O5 0.500000 0.782383 0.250000
O O6 0.395817 0.876098 0.205577
O O7 0.435288 0.687773 0.380700
O O8 0.099104 0.725654 0.245869
O O9 0.101491 0.638116 0.026295
O O10 0.197946 0.659375 0.162556
O O11 0.690674 0.047647 0.964413
O O12 0.589979 0.921669 0.918170
O O13 0.000000 0.609069 0.250000
O O14 0.974701 0.786440 0.104839
O O15 0.250000 0.750000 0.000000
O O16 0.000000 0.000000 0.000000
#
# Coordination Sequence:
#
# PCOD9277566 Si02
#       7
#     8   8   8   8   8   8   8
#     4  10  20  41  65  93 122 177 217 266 334 395
#     4  11  22  38  66  92 129 169 219 271 329 391
#     4   8  20  40  66  89 124 169 216 266 321 391
#     4   9  22  42  65  93 126 168 227 260 334 389
#     4  12  26  40  64  94 136 171 210 276 335 391
#     4   8  16  41  67  91 121 172 228 264 329 396
#     4  12  27  40  63 100 137 169 223 273 334 403
#
# _framework density 20.056394999999998
#
# number of rings (size 3 to 8) (size 9 to 14) (size 15 to 20)
#    0.857    1.143    2.857    1.286    8.000    0.571 
#    2.571    0.714    0.000    0.000    0.000    0.000 
#    0.000    0.000    0.000    0.000    0.000    0.000 
#
# Total GULP energy -155908.182873 kJ/mol
# GULP energy per Si atom -5568.149388 kJ/mol
# Density = 2.001075 g / cm^3
# Si number density = 20.056395 Si / 1000 Ang^3
#
#
#
# Elastic Constant Matrix: (Units=GPa)
#
#
# Indices 1 2 3 4 5 6 
#
# 1 75.9121 12.1117 -3.7134 0.0000 5.4265 0.0000
# 2 12.1117 64.6262 13.5579 0.0000 0.0276 0.0000
# 3 -3.7134 13.5579 46.1037 0.0000 -6.3837 0.0000
# 4 0.0000 0.0000 0.0000 16.7844 0.0000 -0.1525
# 5 5.4265 0.0276 -6.3837 0.0000 21.4881 0.0000
# 6 0.0000 0.0000 0.0000 -0.1525 0.0000 26.7596
#
#
#
# Elastic Compliance Matrix: (Units=1/GPa)
#
#
# Indices 1 2 3 4 5 6 
#
# 1 0.013937 -0.002939 0.001564 0.000000 -0.003051 0.000000
# 2 -0.002939 0.017159 -0.005405 0.000000 -0.000886 0.000000
# 3 0.001564 -0.005405 0.024354 0.000000 0.006847 0.000000
# 4 0.000000 0.000000 0.000000 0.059582 0.000000 0.000340
# 5 -0.003051 -0.000886 0.006847 0.000000 0.049343 0.000000
# 6 0.000000 0.000000 0.000000 0.000340 0.000000 0.037372
#
#
# Mechanical properties :
#
#
# Convention : Reuss Voigt Hill
#
# Bulk Modulus (GPa) = 23.87223 25.61716 24.74469
# Shear Modulus (GPa) = 21.80844 23.98545 22.89695
#
# Velocity S-wave (km/s) = 3.30109 3.46193 3.38246
# Velocity P-wave (km/s) = 5.14373 5.36472 5.25539
#
# Compressibility (1/GPa) = 0.04188968
#
# Stress axis : x y z
#
# Youngs Moduli (GPa) = 71.75336 58.27941 41.06124
#
# Poissons Ratio (x) = 0.17127 -0.06423
# Poissons Ratio (y) = 0.21087 0.22195
# Poissons Ratio (z) = -0.11224 0.31502
#
# Static dielectric constant tensor:
#      x y z
#    x 1.742960 0.000000 0.011630 
#    y 0.000000 1.734070 0.000000 
#    z 0.011630 0.000000 1.754700 
# 
# From -- ./inp_files/117192.got.cif
#   From: 2010.05.17/outbox.cif.g08.bks.cpg/sg15_59_cif.got.tgz:117192.got - 2010.06.03 18:47:42.
