data_PCOD9277499
_publ_section_title
;
Structure prediction by ZEFSAII (Michael W. Deem and Ramdas Pophale) SiO2 
 PCOD9277499
Probable space group: C 2/C
;
_chemical_formula_sum "Si O2"
_cell_formula_units_Z 52
_cell_length_a 27.336792
_cell_length_b 13.598513
_cell_length_c 9.241315
_cell_angle_alpha 90.000000
_cell_angle_beta 43.648529
_cell_angle_gamma 90.000000
_cell_volume 2371.200349
_symmetry_space_group_name_H-M "C 2/C"
_symmetry_group_IT_number 15
_symmetry_cell_setting 'monoclinic'
loop_
_space_group_symop_operation_xyz
x,y,z
-x,y,1/2-z
-x,-y,-z
x,-y,1/2+z
1/2+x,1/2+y,z
1/2-x,1/2+y,1/2-z
1/2-x,1/2-y,-z
1/2+x,1/2-y,1/2+z
loop_
_atom_site_type_symbol
_atom_site_label
_atom_site_fract_x
_atom_site_fract_y
_atom_site_fract_z
Si Si1 0.207805 0.099001 0.330186
Si Si2 0.000000 0.244485 0.750000
Si Si3 0.281708 0.581476 0.528037
Si Si4 0.021503 0.111439 0.982332
Si Si5 0.684359 0.824243 0.688224
Si Si6 0.895682 0.182261 0.452336
Si Si7 0.147826 0.321710 0.449166
O O1 0.277979 0.105227 0.278770
O O2 0.173729 0.206942 0.398015
O O3 0.174796 0.007673 0.487570
O O4 0.216736 0.069139 0.145816
O O5 0.974727 0.173403 0.673134
O O6 0.067573 0.311682 0.567293
O O7 0.327231 0.671129 0.497355
O O8 0.202322 0.612235 0.742738
O O9 0.089070 0.109337 0.944544
O O10 0.961008 0.167504 0.205020
O O11 0.000000 0.000000 0.000000
O O12 0.750000 0.750000 0.500000
O O13 0.654547 0.860128 0.599716
O O14 0.620817 0.777205 0.915809
#
# Coordination Sequence:
#
# PCOD9277499 Si02
#       7
#     8   4   8   8   8   8   8
#     4  11  25  39  68  98 132 165 219 284 331 393
#     4  12  24  40  66  90 136 176 218 266 340 390
#     4  12  25  41  67  99 129 173 227 276 336 393
#     4  11  26  39  57  96 137 178 216 264 333 418
#     4  10  20  41  64  90 127 170 218 275 331 384
#     4  11  23  40  61  88 136 174 217 263 326 399
#     4  11  24  43  66  98 135 173 222 274 339 401
#
# _framework density 21.929821
#
# number of rings (size 3 to 8) (size 9 to 14) (size 15 to 20)
#    0.000    0.923    4.615    3.231   10.769    0.000 
#    0.000    0.000    0.000    5.538    0.000    0.000 
#    0.000    0.000    0.000    0.000    0.000    0.000 
#
# Total GULP energy -144909.303241 kJ/mol
# GULP energy per Si atom -5573.434740 kJ/mol
# Density = 2.187991 g / cm^3
# Si number density = 21.929821 Si / 1000 Ang^3
#
#
#
# Elastic Constant Matrix: (Units=GPa)
#
#
# Indices 1 2 3 4 5 6 
#
# 1 107.5799 16.4988 33.6371 0.0000 19.2191 0.0000
# 2 16.4988 27.3958 18.1790 0.0000 -0.6959 0.0000
# 3 33.6371 18.1790 101.0403 0.0000 21.6223 0.0000
# 4 0.0000 0.0000 0.0000 18.2992 0.0000 8.9165
# 5 19.2191 -0.6959 21.6223 0.0000 53.1584 0.0000
# 6 0.0000 0.0000 0.0000 8.9165 0.0000 32.0988
#
#
#
# Elastic Compliance Matrix: (Units=1/GPa)
#
#
# Indices 1 2 3 4 5 6 
#
# 1 0.011397 -0.005572 -0.002075 0.000000 -0.003350 0.000000
# 2 -0.005572 0.044933 -0.007433 0.000000 0.005626 0.000000
# 3 -0.002075 -0.007433 0.012909 0.000000 -0.004598 0.000000
# 4 0.000000 0.000000 0.000000 0.063202 0.000000 -0.017556
# 5 -0.003350 0.005626 -0.004598 0.000000 0.021967 0.000000
# 6 0.000000 0.000000 0.000000 -0.017556 0.000000 0.036031
#
#
# Mechanical properties :
#
#
# Convention : Reuss Voigt Hill
#
# Bulk Modulus (GPa) = 25.58932 41.40508 33.49720
# Shear Modulus (GPa) = 21.40180 31.89134 26.64657
#
# Velocity S-wave (km/s) = 3.12736 3.81759 3.48959
# Velocity P-wave (km/s) = 4.97339 6.19304 5.61642
#
# Compressibility (1/GPa) = 0.03907880
#
# Stress axis : x y z
#
# Youngs Moduli (GPa) = 87.74147 22.25536 77.46460
#
# Poissons Ratio (x) = 0.12401 0.16073
# Poissons Ratio (y) = 0.48890 0.57582
# Poissons Ratio (z) = 0.18205 0.16543
#
# Static dielectric constant tensor:
#      x y z
#    x 1.892680 0.000000 -0.120400 
#    y 0.000000 2.233680 0.000000 
#    z -0.120400 0.000000 1.960350 
# 
# From -- ./inp_files/66129.got.cif
#   From: 2010.05.17/outbox.cif.g08.bks.cpg/sg15_34_cif.got.tgz:66129.got - 2010.06.03 18:47:42.
