data_PCOD9277648
_publ_section_title
;
Structure prediction by ZEFSAII (Michael W. Deem and Ramdas Pophale) SiO2 
 PCOD9277648
Probable space group: C 2/C
;
_chemical_formula_sum "Si O2"
_cell_formula_units_Z 44
_cell_length_a 9.325038
_cell_length_b 29.039060
_cell_length_c 9.623026
_cell_angle_alpha 90.000000
_cell_angle_beta 131.652086
_cell_angle_gamma 90.000000
_cell_volume 1947.055495
_symmetry_space_group_name_H-M "C 2/C"
_symmetry_group_IT_number 15
_symmetry_cell_setting 'monoclinic'
loop_
_space_group_symop_operation_xyz
x,y,z
-x,y,1/2-z
-x,-y,-z
x,-y,1/2+z
1/2+x,1/2+y,z
1/2-x,1/2+y,1/2-z
1/2-x,1/2-y,-z
1/2+x,1/2-y,1/2+z
loop_
_atom_site_type_symbol
_atom_site_label
_atom_site_fract_x
_atom_site_fract_y
_atom_site_fract_z
Si Si1 0.524592 0.786165 0.489864
Si Si2 0.648409 0.994666 0.468698
Si Si3 0.319465 0.307972 0.436105
Si Si4 0.780017 0.403287 0.124178
Si Si5 0.209569 0.089796 0.898883
Si Si6 0.000000 0.344530 0.750000
O O1 0.521766 0.730446 0.491403
O O2 0.703038 0.796572 0.502414
O O3 0.332059 0.803194 0.288858
O O4 0.552779 0.811525 0.654098
O O5 0.500000 0.999600 0.250000
O O6 0.792999 0.037278 0.549280
O O7 0.500000 0.000000 0.500000
O O8 0.743986 0.944990 0.499785
O O9 0.368313 0.361428 0.485099
O O10 0.777250 0.416717 0.283736
O O11 0.000000 0.385763 0.250000
O O12 0.000000 0.110809 0.750000
O O13 0.341053 0.121380 0.080673
#
# Coordination Sequence:
#
# PCOD9277648 Si02
#       6
#     8   8   8   8   8   4
#     4  10  22  38  67  96 137 182 241 291 354 427
#     4  11  22  40  74 100 135 191 235 286 362 426
#     4  10  20  41  66  96 136 185 238 292 350 430
#     4  11  20  42  72  94 140 195 232 291 366 422
#     4  12  26  43  70 112 149 182 243 303 356 432
#     4  12  24  46  70 106 142 200 238 292 370 428
#
# _framework density 22.598224999999999
#
# number of rings (size 3 to 8) (size 9 to 14) (size 15 to 20)
#    0.000    1.091    8.182    0.000    0.000    2.909 
#    1.636    0.000    8.000    0.000    0.000    0.000 
#    0.000    0.000    0.000    0.000    0.000    0.000 
#
# Total GULP energy -122733.014442 kJ/mol
# GULP energy per Si atom -5578.773384 kJ/mol
# Density = 2.254679 g / cm^3
# Si number density = 22.598225 Si / 1000 Ang^3
#
#
#
# Elastic Constant Matrix: (Units=GPa)
#
#
# Indices 1 2 3 4 5 6 
#
# 1 59.7991 28.4075 52.6489 0.0000 -16.3536 0.0000
# 2 28.4075 185.5604 62.2064 0.0000 -8.7496 0.0000
# 3 52.6489 62.2064 82.2114 0.0000 -23.8041 0.0000
# 4 0.0000 0.0000 0.0000 25.5965 0.0000 -4.0893
# 5 -16.3536 -8.7496 -23.8041 0.0000 39.4497 0.0000
# 6 0.0000 0.0000 0.0000 -4.0893 0.0000 18.1575
#
#
#
# Elastic Compliance Matrix: (Units=1/GPa)
#
#
# Indices 1 2 3 4 5 6 
#
# 1 0.039785 0.003255 -0.027817 0.000000 0.000429 0.000000
# 2 0.003255 0.007627 -0.008452 0.000000 -0.002059 0.000000
# 3 -0.027817 -0.008452 0.039370 0.000000 0.010350 0.000000
# 4 0.000000 0.000000 0.000000 0.040526 0.000000 0.009127
# 5 0.000429 -0.002059 0.010350 0.000000 0.031315 0.000000
# 6 0.000000 0.000000 0.000000 0.009127 0.000000 0.057129
#
#
# Mechanical properties :
#
#
# Convention : Reuss Voigt Hill
#
# Bulk Modulus (GPa) = 48.18319 68.23294 58.20807
# Shear Modulus (GPa) = 17.31911 28.92796 23.12354
#
# Velocity S-wave (km/s) = 2.77138 3.58173 3.20229
# Velocity P-wave (km/s) = 5.62216 6.88219 6.28384
#
# Compressibility (1/GPa) = 0.02075413
#
# Stress axis : x y z
#
# Youngs Moduli (GPa) = 25.13515 131.11310 25.40007
#
# Poissons Ratio (x) = -0.42675 0.70656
# Poissons Ratio (y) = -0.08181 0.21467
# Poissons Ratio (z) = 0.69919 1.10812
#
# Static dielectric constant tensor:
#      x y z
#    x 1.895550 0.000000 -0.016650 
#    y 0.000000 2.069090 0.000000 
#    z -0.016650 0.000000 1.830060 
# 
# From -- ./inp_files/26254.got.cif
#   From: 2010.05.17/outbox.cif.g08.bks.cpg/sg15_14_cif.got.tgz:26254.got - 2010.06.03 18:47:42.
