data_PCOD9277656
_publ_section_title
;
Structure prediction by ZEFSAII (Michael W. Deem and Ramdas Pophale) SiO2 
 PCOD9277656
Probable space group: C 2/C
;
_chemical_formula_sum "Si O2"
_cell_formula_units_Z 40
_cell_length_a 19.292688
_cell_length_b 10.263464
_cell_length_c 8.697681
_cell_angle_alpha 90.000000
_cell_angle_beta 112.243391
_cell_angle_gamma 90.000000
_cell_volume 1594.065271
_symmetry_space_group_name_H-M "C 2/C"
_symmetry_group_IT_number 15
_symmetry_cell_setting 'monoclinic'
loop_
_space_group_symop_operation_xyz
x,y,z
-x,y,1/2-z
-x,-y,-z
x,-y,1/2+z
1/2+x,1/2+y,z
1/2-x,1/2+y,1/2-z
1/2-x,1/2-y,-z
1/2+x,1/2-y,1/2+z
loop_
_atom_site_type_symbol
_atom_site_label
_atom_site_fract_x
_atom_site_fract_y
_atom_site_fract_z
Si Si1 0.594108 0.907079 0.980949
Si Si2 0.210802 0.947060 0.877672
Si Si3 0.581086 0.840559 0.628723
Si Si4 0.556530 0.436572 0.165081
Si Si5 0.770580 0.677837 0.742611
O O1 0.614390 0.871945 0.824199
O O2 0.507591 0.870222 0.931732
O O3 0.640735 0.836475 0.152731
O O4 0.606605 0.060433 0.019884
O O5 0.239228 0.832788 0.785592
O O6 0.121178 0.969590 0.784300
O O7 0.241184 0.090335 0.859799
O O8 0.238204 0.895122 0.065395
O O9 0.593323 0.688729 0.614723
O O10 0.500000 0.387658 0.250000
O O11 0.500000 0.500000 0.000000
#
# Coordination Sequence:
#
# PCOD9277656 Si02
#       5
#     8   8   8   8   8
#     4  10  20  41  66  99 138 172 228 285 349 419
#     4  11  27  44  72 103 141 187 235 285 360 418
#     4  10  22  40  70 100 131 182 231 288 355 407
#     4  12  25  48  71 101 139 186 241 299 348 416
#     4  11  25  46  68 106 140 185 231 289 352 432
#
# _framework density 25.093074999999999
#
# number of rings (size 3 to 8) (size 9 to 14) (size 15 to 20)
#    0.000    1.200    2.000    3.600    5.600    0.800 
#   10.800    0.000    0.000    0.000    0.000    0.000 
#    0.000    0.000    0.000    0.000    0.000    0.000 
#
# Total GULP energy -111908.638963 kJ/mol
# GULP energy per Si atom -5595.431948 kJ/mol
# Density = 2.503596 g / cm^3
# Si number density = 25.093075 Si / 1000 Ang^3
#
#
#
# Elastic Constant Matrix: (Units=GPa)
#
#
# Indices 1 2 3 4 5 6 
#
# 1 76.6615 32.3339 40.5400 0.0000 22.1840 0.0000
# 2 32.3339 146.6987 52.9500 0.0000 13.6874 0.0000
# 3 40.5400 52.9500 139.6622 0.0000 43.3057 0.0000
# 4 0.0000 0.0000 0.0000 36.2587 0.0000 -3.9405
# 5 22.1840 13.6874 43.3057 0.0000 44.7272 0.0000
# 6 0.0000 0.0000 0.0000 -3.9405 0.0000 37.6393
#
#
#
# Elastic Compliance Matrix: (Units=1/GPa)
#
#
# Indices 1 2 3 4 5 6 
#
# 1 0.016826 -0.002370 -0.002319 0.000000 -0.005375 0.000000
# 2 -0.002370 0.008246 -0.002887 0.000000 0.001447 0.000000
# 3 -0.002319 -0.002887 0.011857 0.000000 -0.009446 0.000000
# 4 0.000000 0.000000 0.000000 0.027897 0.000000 0.002921
# 5 -0.005375 0.001447 -0.009446 0.000000 0.033727 0.000000
# 6 0.000000 0.000000 0.000000 0.002921 0.000000 0.026874
#
#
# Mechanical properties :
#
#
# Convention : Reuss Voigt Hill
#
# Bulk Modulus (GPa) = 45.92125 68.29670 57.10897
# Shear Modulus (GPa) = 33.82095 39.53827 36.67961
#
# Velocity S-wave (km/s) = 3.67525 3.97377 3.82742
# Velocity P-wave (km/s) = 6.02910 6.95204 6.50696
#
# Compressibility (1/GPa) = 0.02177641
#
# Stress axis : x y z
#
# Youngs Moduli (GPa) = 59.43337 121.26869 84.33850
#
# Poissons Ratio (x) = 0.28742 0.19557
# Poissons Ratio (y) = 0.14086 0.24350
# Poissons Ratio (z) = 0.13782 0.35013
#
# Static dielectric constant tensor:
#      x y z
#    x 2.177270 0.000000 -0.014420 
#    y 0.000000 1.970750 0.000000 
#    z -0.014420 0.000000 1.971960 
# 
# From -- ./inp_files/54240.got.cif
#   From: 2010.05.17/outbox.cif.g08.bks.cpg/sg15_28_cif.got.tgz:54240.got - 2010.06.03 18:47:42.
