data_PCOD9277223
_publ_section_title
;
Structure prediction by ZEFSAII (Michael W. Deem and Ramdas Pophale) SiO2 
 PCOD9277223
Probable space group: C 2/C
;
_chemical_formula_sum "Si O2"
_cell_formula_units_Z 44
_cell_length_a 21.630360
_cell_length_b 10.117959
_cell_length_c 12.937884
_cell_angle_alpha 90.000000
_cell_angle_beta 40.037312
_cell_angle_gamma 90.000000
_cell_volume 1821.479306
_symmetry_space_group_name_H-M "C 2/C"
_symmetry_group_IT_number 15
_symmetry_cell_setting 'monoclinic'
loop_
_space_group_symop_operation_xyz
x,y,z
-x,y,1/2-z
-x,-y,-z
x,-y,1/2+z
1/2+x,1/2+y,z
1/2-x,1/2+y,1/2-z
1/2-x,1/2-y,-z
1/2+x,1/2-y,1/2+z
loop_
_atom_site_type_symbol
_atom_site_label
_atom_site_fract_x
_atom_site_fract_y
_atom_site_fract_z
Si Si1 0.377036 0.722819 0.771630
Si Si2 0.570558 0.893858 0.983931
Si Si3 0.349996 0.139228 0.798959
Si Si4 0.190513 0.421131 0.475425
Si Si5 0.355772 0.339152 0.966736
Si Si6 0.000000 0.069480 0.750000
O O1 0.386970 0.840006 0.677259
O O2 0.346973 0.787865 0.920279
O O3 0.474536 0.652048 0.680209
O O4 0.302143 0.616936 0.820751
O O5 0.545086 0.097980 0.874913
O O6 0.589246 0.769743 0.036718
O O7 0.625432 0.017659 0.967155
O O8 0.357214 0.278917 0.849079
O O9 0.319556 0.034191 0.925262
O O10 0.254033 0.150141 0.853572
O O11 0.410179 0.476557 0.892576
#
# Coordination Sequence:
#
# PCOD9277223 Si02
#       6
#     8   8   8   8   8   4
#     4  11  27  45  72 110 148 193 243 312 378 431
#     4  11  24  45  76 108 139 198 260 296 363 457
#     4  10  20  41  72 102 143 194 250 290 363 443
#     4  10  23  49  70 102 151 189 241 314 371 433
#     4  10  20  40  70 103 145 198 234 305 369 435
#     4  12  22  46  68 102 156 198 232 312 372 438
#
# _framework density 24.156188
#
# number of rings (size 3 to 8) (size 9 to 14) (size 15 to 20)
#    0.000    1.455    3.636    1.636    2.545    2.909 
#    6.545    0.000    0.000    0.000    0.000    0.000 
#    0.000    0.000    0.000    0.000    0.000    0.000 
#
# Total GULP energy -122952.400909 kJ/mol
# GULP energy per Si atom -5588.745496 kJ/mol
# Density = 2.410121 g / cm^3
# Si number density = 24.156188 Si / 1000 Ang^3
#
#
#
# Elastic Constant Matrix: (Units=GPa)
#
#
# Indices 1 2 3 4 5 6 
#
# 1 187.8256 61.1323 54.1917 0.0000 -17.4620 0.0000
# 2 61.1323 88.6436 15.6117 0.0000 -0.6723 0.0000
# 3 54.1917 15.6117 74.8702 0.0000 -17.8125 0.0000
# 4 0.0000 0.0000 0.0000 35.3507 0.0000 -9.9153
# 5 -17.4620 -0.6723 -17.8125 0.0000 39.1791 0.0000
# 6 0.0000 0.0000 0.0000 -9.9153 0.0000 57.2145
#
#
#
# Elastic Compliance Matrix: (Units=1/GPa)
#
#
# Indices 1 2 3 4 5 6 
#
# 1 0.008449 -0.004985 -0.004709 0.000000 0.001539 0.000000
# 2 -0.004985 0.014689 0.000086 0.000000 -0.001931 0.000000
# 3 -0.004709 0.000086 0.018219 0.000000 0.006186 0.000000
# 4 0.000000 0.000000 0.000000 0.029733 0.000000 0.005153
# 5 0.001539 -0.001931 0.006186 0.000000 0.028989 0.000000
# 6 0.000000 0.000000 0.000000 0.005153 0.000000 0.018371
#
#
# Mechanical properties :
#
#
# Convention : Reuss Voigt Hill
#
# Bulk Modulus (GPa) = 45.16847 68.13453 56.65150
# Shear Modulus (GPa) = 34.47154 41.04245 37.75700
#
# Velocity S-wave (km/s) = 3.78170 4.12642 3.95781
# Velocity P-wave (km/s) = 6.14878 7.13934 6.66249
#
# Compressibility (1/GPa) = 0.02213934
#
# Stress axis : x y z
#
# Youngs Moduli (GPa) = 118.36359 68.07615 54.88815
#
# Poissons Ratio (x) = 0.33938 0.25850
# Poissons Ratio (y) = 0.59009 -0.00473
# Poissons Ratio (z) = 0.55743 -0.00586
#
# Static dielectric constant tensor:
#      x y z
#    x 1.979500 0.000000 0.004550 
#    y 0.000000 1.919700 0.000000 
#    z 0.004550 0.000000 1.977560 
# 
# From -- ./inp_files/117112.got.cif
#   From: 2010.05.17/outbox.cif.g08.bks.cpg/sg15_59_cif.got.tgz:117112.got - 2010.06.03 18:47:42.
