data_PCOD9277178
_publ_section_title
;
Structure prediction by ZEFSAII (Michael W. Deem and Ramdas Pophale) SiO2 
 PCOD9277178
Probable space group: C 2/C
;
_chemical_formula_sum "Si O2"
_cell_formula_units_Z 40
_cell_length_a 14.147893
_cell_length_b 13.694559
_cell_length_c 10.189779
_cell_angle_alpha 90.000000
_cell_angle_beta 68.285424
_cell_angle_gamma 90.000000
_cell_volume 1834.164505
_symmetry_space_group_name_H-M "C 2/C"
_symmetry_group_IT_number 15
_symmetry_cell_setting 'monoclinic'
loop_
_space_group_symop_operation_xyz
x,y,z
-x,y,1/2-z
-x,-y,-z
x,-y,1/2+z
1/2+x,1/2+y,z
1/2-x,1/2+y,1/2-z
1/2-x,1/2-y,-z
1/2+x,1/2-y,1/2+z
loop_
_atom_site_type_symbol
_atom_site_label
_atom_site_fract_x
_atom_site_fract_y
_atom_site_fract_z
Si Si1 0.524671 0.392200 0.096156
Si Si2 0.256678 0.152844 0.408830
Si Si3 0.561440 0.611210 0.110836
Si Si4 0.426910 0.993892 0.411780
Si Si5 0.771502 0.660026 0.086826
O O1 0.500000 0.346638 0.250000
O O2 0.503954 0.507889 0.123307
O O3 0.640790 0.386165 0.987111
O O4 0.449421 0.345466 0.027767
O O5 0.250000 0.250000 0.500000
O O6 0.343731 0.080041 0.422464
O O7 0.276779 0.172540 0.242409
O O8 0.500000 0.672073 0.250000
O O9 0.671746 0.594181 0.110376
O O10 0.500000 0.986797 0.250000
O O11 0.500000 0.000000 0.500000
O O12 0.364267 0.897091 0.476635
O O13 0.750000 0.750000 0.000000
#
# Coordination Sequence:
#
# PCOD9277178 Si02
#       5
#     8   8   8   8   8
#     4  10  22  38  70 102 132 173 223 295 364 429
#     4  12  28  47  72 110 149 193 254 312 373 456
#     4  10  20  40  68  99 132 172 226 287 362 426
#     4  12  28  52  79 106 156 213 259 311 386 461
#     4  12  28  46  74 109 148 195 253 311 372 458
#
# _framework density 21.808294
#
# number of rings (size 3 to 8) (size 9 to 14) (size 15 to 20)
#    0.000    0.800    6.000    0.000    5.600    3.200 
#    0.000    0.000    0.000    0.000    0.000    0.000 
#    0.000    0.000    0.000    0.000    0.000    0.000 
#
# Total GULP energy -111444.644386 kJ/mol
# GULP energy per Si atom -5572.232219 kJ/mol
# Density = 2.175866 g / cm^3
# Si number density = 21.808294 Si / 1000 Ang^3
#
#
#
# Elastic Constant Matrix: (Units=GPa)
#
#
# Indices 1 2 3 4 5 6 
#
# 1 146.3762 46.9206 78.4296 0.0000 12.5847 0.0000
# 2 46.9206 98.1580 63.6032 0.0000 8.4369 0.0000
# 3 78.4296 63.6032 228.8005 0.0000 24.5825 0.0000
# 4 0.0000 0.0000 0.0000 25.6255 0.0000 2.3676
# 5 12.5847 8.4369 24.5825 0.0000 57.1867 0.0000
# 6 0.0000 0.0000 0.0000 2.3676 0.0000 10.2088
#
#
#
# Elastic Compliance Matrix: (Units=1/GPa)
#
#
# Indices 1 2 3 4 5 6 
#
# 1 0.008976 -0.002790 -0.002237 0.000000 -0.000602 0.000000
# 2 -0.002790 0.013300 -0.002722 0.000000 -0.000178 0.000000
# 3 -0.002237 -0.002722 0.006079 0.000000 -0.001719 0.000000
# 4 0.000000 0.000000 0.000000 0.039878 0.000000 -0.009249
# 5 -0.000602 -0.000178 -0.001719 0.000000 0.018384 0.000000
# 6 0.000000 0.000000 0.000000 -0.009249 0.000000 0.100100
#
#
# Mechanical properties :
#
#
# Convention : Reuss Voigt Hill
#
# Bulk Modulus (GPa) = 77.76896 94.58241 86.17569
# Shear Modulus (GPa) = 24.21306 37.56294 30.88800
#
# Velocity S-wave (km/s) = 3.33568 4.15470 3.76751
# Velocity P-wave (km/s) = 7.11150 8.15349 7.65026
#
# Compressibility (1/GPa) = 0.01285860
#
# Stress axis : x y z
#
# Youngs Moduli (GPa) = 111.40634 75.18731 164.50929
#
# Poissons Ratio (x) = 0.20974 0.36796
# Poissons Ratio (y) = 0.31078 0.44777
# Poissons Ratio (z) = 0.24918 0.20465
#
# Static dielectric constant tensor:
#      x y z
#    x 1.920820 0.000000 0.088420 
#    y 0.000000 2.137380 0.000000 
#    z 0.088420 0.000000 2.012420 
# 
# From -- ./inp_files/37853.got.cif
#   From: 2010.05.17/outbox.cif.g08.bks.cpg/sg15_19_cif.got.tgz:37853.got - 2010.06.03 18:47:42.
