data_PCOD9277828
_publ_section_title
;
Structure prediction by ZEFSAII (Michael W. Deem and Ramdas Pophale) SiO2 
 PCOD9277828
Probable space group: C 2/C
;
_chemical_formula_sum "Si O2"
_cell_formula_units_Z 48
_cell_length_a 15.642994
_cell_length_b 19.244956
_cell_length_c 18.741349
_cell_angle_alpha 90.000000
_cell_angle_beta 25.509888
_cell_angle_gamma 90.000000
_cell_volume 2429.847962
_symmetry_space_group_name_H-M "C 2/C"
_symmetry_group_IT_number 15
_symmetry_cell_setting 'monoclinic'
loop_
_space_group_symop_operation_xyz
x,y,z
-x,y,1/2-z
-x,-y,-z
x,-y,1/2+z
1/2+x,1/2+y,z
1/2-x,1/2+y,1/2-z
1/2-x,1/2-y,-z
1/2+x,1/2-y,1/2+z
loop_
_atom_site_type_symbol
_atom_site_label
_atom_site_fract_x
_atom_site_fract_y
_atom_site_fract_z
Si Si1 0.293009 0.158313 0.772647
Si Si2 0.000000 0.274348 0.750000
Si Si3 0.388563 0.645370 0.740152
Si Si4 0.000000 0.112770 0.250000
Si Si5 0.413800 0.716934 0.431056
Si Si6 0.076096 0.450202 0.115085
Si Si7 0.302534 0.102608 0.484704
O O1 0.146404 0.152774 0.816500
O O2 0.449080 0.220938 0.644804
O O3 0.419704 0.087624 0.681927
O O4 0.184121 0.177275 0.928779
O O5 0.903209 0.220929 0.766854
O O6 0.120216 0.327297 0.610032
O O7 0.583121 0.600580 0.614452
O O8 0.214897 0.610622 0.917043
O O9 0.037734 0.163158 0.289181
O O10 0.800170 0.071633 0.423126
O O11 0.250000 0.750000 0.500000
O O12 0.000000 0.424425 0.250000
O O13 0.075107 0.533201 0.119299
#
# Coordination Sequence:
#
# PCOD9277828 Si02
#       7
#     8   4   8   4   8   8   8
#     4  12  24  38  68 101 136 172 225 288 331 404
#     4  10  20  41  71  92 126 174 220 280 344 386
#     4  10  23  41  66  99 130 167 228 284 335 394
#     4  12  22  41  67  90 134 184 220 260 336 402
#     4  12  21  39  61  99 131 174 225 269 338 396
#     4  12  23  43  69  95 133 185 223 266 340 417
#     4  10  22  44  66  91 131 177 223 271 345 405
#
# _framework density 19.754321999999998
#
# number of rings (size 3 to 8) (size 9 to 14) (size 15 to 20)
#    0.000    1.000    5.833    3.000    4.667    0.667 
#    0.000    0.833    0.000    0.000    0.000    0.000 
#    0.000    0.000    0.000    0.000    0.000    0.000 
#
# Total GULP energy -133807.709881 kJ/mol
# GULP energy per Si atom -5575.321245 kJ/mol
# Density = 1.970936 g / cm^3
# Si number density = 19.754322 Si / 1000 Ang^3
#
#
#
# Elastic Constant Matrix: (Units=GPa)
#
#
# Indices 1 2 3 4 5 6 
#
# 1 105.4246 31.1394 25.0416 0.0032 23.3912 0.0018
# 2 31.1394 104.7444 23.3264 -0.0049 3.7373 0.0085
# 3 25.0416 23.3264 91.9303 -0.0315 26.9421 0.0131
# 4 0.0032 -0.0049 -0.0315 18.6132 0.0145 12.5408
# 5 23.3912 3.7373 26.9421 0.0145 22.3195 -0.0074
# 6 0.0018 0.0085 0.0131 12.5408 -0.0074 8.8390
#
#
#
# Elastic Compliance Matrix: (Units=1/GPa)
#
#
# Indices 1 2 3 4 5 6 
#
# 1 0.013771 -0.003961 0.001996 0.000523 -0.016179 -0.000757
# 2 -0.003961 0.011327 -0.003801 -0.000203 0.006843 0.000289
# 3 0.001996 -0.003801 0.018146 0.001739 -0.023361 -0.002510
# 4 0.000523 -0.000203 0.001739 1.219470 -0.003979 -1.730200
# 5 -0.016179 0.006843 -0.023361 -0.003979 0.088818 0.005752
# 6 -0.000757 0.000289 -0.002510 -1.730200 0.005752 2.567966
#
#
# Mechanical properties :
#
#
# Convention : Reuss Voigt Hill
#
# Bulk Modulus (GPa) = 31.53383 51.23491 41.38437
# Shear Modulus (GPa) = 1.26852 24.79380 13.03116
#
# Velocity S-wave (km/s) = 0.80221 3.54659 2.57117
# Velocity P-wave (km/s) = 4.10557 6.53938 5.45982
#
# Compressibility (1/GPa) = 0.03171198
#
# Stress axis : x y z
#
# Youngs Moduli (GPa) = 72.61601 88.28586 55.10842
#
# Poissons Ratio (x) = 0.34971 -0.10998
# Poissons Ratio (y) = 0.28764 0.20944
# Poissons Ratio (z) = -0.14492 0.33554
#
# Static dielectric constant tensor:
#      x y z
#    x 1.677650 0.000010 0.019570 
#    y 0.000010 1.716590 0.000030 
#    z 0.019570 0.000030 1.814970 
# 
# From -- ./inp_files/206403.got.cif
#   From: 2010.05.17/outbox.cif.g08.bks.cpg/sg15_104_cif.got.tgz:206403.got - 2010.06.03 18:47:42.
