data_PCOD9277974
_publ_section_title
;
Structure prediction by ZEFSAII (Michael W. Deem and Ramdas Pophale) SiO2 
 PCOD9277974
Probable space group: C 2/C
;
_chemical_formula_sum "Si O2"
_cell_formula_units_Z 60
_cell_length_a 17.385016
_cell_length_b 8.387495
_cell_length_c 21.818619
_cell_angle_alpha 90.000000
_cell_angle_beta 122.967679
_cell_angle_gamma 90.000000
_cell_volume 2669.224051
_symmetry_space_group_name_H-M "C 2/C"
_symmetry_group_IT_number 15
_symmetry_cell_setting 'monoclinic'
loop_
_space_group_symop_operation_xyz
x,y,z
-x,y,1/2-z
-x,-y,-z
x,-y,1/2+z
1/2+x,1/2+y,z
1/2-x,1/2+y,1/2-z
1/2-x,1/2-y,-z
1/2+x,1/2-y,1/2+z
loop_
_atom_site_type_symbol
_atom_site_label
_atom_site_fract_x
_atom_site_fract_y
_atom_site_fract_z
Si Si1 0.247308 0.400040 0.757211
Si Si2 0.885991 0.787133 0.598440
Si Si3 0.105721 0.830868 0.199300
Si Si4 0.843694 0.278905 0.407734
Si Si5 0.000000 0.966955 0.750000
Si Si6 0.960041 0.360849 0.025758
Si Si7 0.052046 0.935240 0.461971
Si Si8 0.221192 0.359330 0.609990
O O1 0.138592 0.354170 0.714250
O O2 0.303694 0.565415 0.780232
O O3 0.282183 0.316660 0.833849
O O4 0.265175 0.335608 0.695767
O O5 0.910918 0.628312 0.570630
O O6 0.787908 0.792158 0.587564
O O7 0.954729 0.850044 0.680580
O O8 0.898375 0.923647 0.552567
O O9 0.022737 0.860066 0.116270
O O10 0.071168 0.913697 0.247053
O O11 0.872440 0.189961 0.482041
O O12 0.798762 0.449997 0.401649
O O13 0.942147 0.284030 0.415572
O O14 0.880229 0.291415 0.946860
O O15 0.000000 0.500000 0.000000
O O16 0.000000 0.000000 0.500000
#
# Coordination Sequence:
#
# PCOD9277974 Si02
#       8
#     8   8   8   8   4   8   8   8
#     4  12  21  39  64  99 126 172 223 275 329 397
#     4  11  21  38  64  95 124 174 222 273 332 400
#     4  11  23  39  68  94 129 174 218 277 332 398
#     4  11  21  40  62  95 123 173 223 268 325 407
#     4  10  20  42  64 100 130 172 220 270 336 404
#     4  10  22  38  60  87 133 169 215 265 332 390
#     4  11  21  37  64  90 123 170 222 263 328 416
#     4  11  24  39  61  96 132 168 216 287 334 389
#
# _framework density 22.478444
#
# number of rings (size 3 to 8) (size 9 to 14) (size 15 to 20)
#    0.000    1.067    5.333    2.000    0.000    0.533 
#    0.000    0.000    0.000    4.000    0.000    0.000 
#    0.000    0.000    0.000    0.000    0.000    0.000 
#
# Total GULP energy -167007.703235 kJ/mol
# GULP energy per Si atom -5566.923441 kJ/mol
# Density = 2.242728 g / cm^3
# Si number density = 22.478444 Si / 1000 Ang^3
#
#
#
# Elastic Constant Matrix: (Units=GPa)
#
#
# Indices 1 2 3 4 5 6 
#
# 1 97.9435 32.5591 22.3470 0.0000 -9.1502 0.0000
# 2 32.5591 63.1158 33.0393 0.0000 -10.4274 0.0000
# 3 22.3470 33.0393 128.4543 0.0000 -6.4841 0.0000
# 4 0.0000 0.0000 0.0000 27.7730 0.0000 -5.1177
# 5 -9.1502 -10.4274 -6.4841 0.0000 35.9154 0.0000
# 6 0.0000 0.0000 0.0000 -5.1177 0.0000 30.2630
#
#
#
# Elastic Compliance Matrix: (Units=1/GPa)
#
#
# Indices 1 2 3 4 5 6 
#
# 1 0.012424 -0.005882 -0.000580 0.000000 0.001353 0.000000
# 2 -0.005882 0.021846 -0.004391 0.000000 0.004051 0.000000
# 3 -0.000580 -0.004391 0.009026 0.000000 0.000207 0.000000
# 4 0.000000 0.000000 0.000000 0.037164 0.000000 0.006285
# 5 0.001353 0.004051 0.000207 0.000000 0.029401 0.000000
# 6 0.000000 0.000000 0.000000 0.006285 0.000000 0.034106
#
#
# Mechanical properties :
#
#
# Convention : Reuss Voigt Hill
#
# Bulk Modulus (GPa) = 46.31942 51.71161 49.01551
# Shear Modulus (GPa) = 28.92329 32.22815 30.57572
#
# Velocity S-wave (km/s) = 3.59097 3.79058 3.69212
# Velocity P-wave (km/s) = 6.15177 6.49715 6.32682
#
# Compressibility (1/GPa) = 0.02158922
#
# Stress axis : x y z
#
# Youngs Moduli (GPa) = 80.48914 45.77474 110.79469
#
# Poissons Ratio (x) = 0.26924 0.06429
# Poissons Ratio (y) = 0.47343 0.48652
# Poissons Ratio (z) = 0.04670 0.20101
#
# Static dielectric constant tensor:
#      x y z
#    x 1.845610 0.000000 0.009780 
#    y 0.000000 2.027600 0.000000 
#    z 0.009780 0.000000 1.876420 
# 
# From -- ./inp_files/247833.got.cif
#   From: 2010.05.17/outbox.cif.g08.bks.cpg/sg15_124_cif.got.tgz:247833.got - 2010.06.03 18:47:42.
