data_PCOD9277284
_publ_section_title
;
Structure prediction by ZEFSAII (Michael W. Deem and Ramdas Pophale) SiO2 
 PCOD9277284
Probable space group: C 2/C
;
_chemical_formula_sum "Si O2"
_cell_formula_units_Z 40
_cell_length_a 14.676007
_cell_length_b 11.307476
_cell_length_c 25.432539
_cell_angle_alpha 90.000000
_cell_angle_beta 21.510270
_cell_angle_gamma 90.000000
_cell_volume 1547.520128
_symmetry_space_group_name_H-M "C 2/C"
_symmetry_group_IT_number 15
_symmetry_cell_setting 'monoclinic'
loop_
_space_group_symop_operation_xyz
x,y,z
-x,y,1/2-z
-x,-y,-z
x,-y,1/2+z
1/2+x,1/2+y,z
1/2-x,1/2+y,1/2-z
1/2-x,1/2-y,-z
1/2+x,1/2-y,1/2+z
loop_
_atom_site_type_symbol
_atom_site_label
_atom_site_fract_x
_atom_site_fract_y
_atom_site_fract_z
Si Si1 0.681299 0.590289 0.082679
Si Si2 0.136920 0.797979 0.934320
Si Si3 0.450661 0.822293 0.859324
Si Si4 0.885525 0.426172 0.623300
Si Si5 0.788308 0.631645 0.905164
O O1 0.398173 0.544194 0.238756
O O2 0.675076 0.727027 0.102674
O O3 0.763479 0.581685 0.977340
O O4 0.893124 0.521329 0.001472
O O5 0.278716 0.869489 0.904033
O O6 0.345605 0.747749 0.782458
O O7 0.975311 0.694783 0.047297
O O8 0.964622 0.877453 0.991192
O O9 0.602148 0.896605 0.820639
O O10 0.250000 0.750000 0.000000
O O11 0.000000 0.597088 0.750000
#
# Coordination Sequence:
#
# PCOD9277284 Si02
#       5
#     8   8   8   8   8
#     4  11  26  43  69  99 148 176 232 297 346 407
#     4  10  20  40  71  92 129 177 231 271 342 419
#     4   9  20  38  65  97 133 175 223 279 341 410
#     4  11  23  44  65 105 137 180 232 288 345 408
#     4  11  23  46  69  95 133 193 228 279 356 422
#
# _framework density 25.847805999999999
#
# number of rings (size 3 to 8) (size 9 to 14) (size 15 to 20)
#    0.000    1.600    4.000    0.000    0.000    7.200 
#   10.800    2.000    0.000    0.000    0.000    0.000 
#    0.000    0.000    0.000    0.000    0.000    0.000 
#
# Total GULP energy -111869.094263 kJ/mol
# GULP energy per Si atom -5593.454713 kJ/mol
# Density = 2.578898 g / cm^3
# Si number density = 25.847806 Si / 1000 Ang^3
#
#
#
# Elastic Constant Matrix: (Units=GPa)
#
#
# Indices 1 2 3 4 5 6 
#
# 1 140.1512 19.8551 56.8722 -0.0011 -0.5349 0.0044
# 2 19.8551 71.5319 34.2129 -0.0162 0.8788 0.0015
# 3 56.8722 34.2129 192.3115 -0.0824 7.5894 -0.0021
# 4 -0.0011 -0.0162 -0.0824 29.0118 -0.0124 -2.8295
# 5 -0.5349 0.8788 7.5894 -0.0124 62.6306 0.0029
# 6 0.0044 0.0015 -0.0021 -2.8295 0.0029 44.9967
#
#
#
# Elastic Compliance Matrix: (Units=1/GPa)
#
#
# Indices 1 2 3 4 5 6 
#
# 1 0.008212 -0.001219 -0.002226 -0.000007 0.000357 -0.000001
# 2 -0.001219 0.015462 -0.002393 0.000002 0.000063 0.000000
# 3 -0.002226 -0.002393 0.006313 0.000016 -0.000750 0.000002
# 4 -0.000007 0.000002 0.000016 0.034681 0.000005 0.002181
# 5 0.000357 0.000063 -0.000750 0.000005 0.016060 -0.000001
# 6 -0.000001 0.000000 0.000002 0.002181 -0.000001 0.022361
#
#
# Mechanical properties :
#
#
# Convention : Reuss Voigt Hill
#
# Bulk Modulus (GPa) = 54.60842 69.54165 62.07503
# Shear Modulus (GPa) = 41.36692 46.86477 44.11585
#
# Velocity S-wave (km/s) = 4.00484 4.26268 4.13577
# Velocity P-wave (km/s) = 6.52363 7.15471 6.84645
#
# Compressibility (1/GPa) = 0.01831219
#
# Stress axis : x y z
#
# Youngs Moduli (GPa) = 121.76589 64.67551 158.39281
#
# Poissons Ratio (x) = 0.07886 0.35256
# Poissons Ratio (y) = 0.14847 0.37897
# Poissons Ratio (z) = 0.27103 0.15474
#
# Static dielectric constant tensor:
#      x y z
#    x 2.036470 0.000010 -0.003380 
#    y 0.000010 2.101740 -0.000060 
#    z -0.003380 -0.000060 2.031060 
# 
# From -- ./inp_files/296503.got.cif
#   From: 2010.05.17/outbox.cif.g08.bks.cpg/sg15_149_cif.got.tgz:296503.got - 2010.06.03 18:47:42.
