data_PCOD9277400
_publ_section_title
;
Structure prediction by ZEFSAII (Michael W. Deem and Ramdas Pophale) SiO2 
 PCOD9277400
Probable space group: C 2/C
;
_chemical_formula_sum "Si O2"
_cell_formula_units_Z 48
_cell_length_a 31.311375
_cell_length_b 9.596999
_cell_length_c 16.175957
_cell_angle_alpha 90.000000
_cell_angle_beta 24.928649
_cell_angle_gamma 90.000000
_cell_volume 2048.774345
_symmetry_space_group_name_H-M "C 2/C"
_symmetry_group_IT_number 15
_symmetry_cell_setting 'monoclinic'
loop_
_space_group_symop_operation_xyz
x,y,z
-x,y,1/2-z
-x,-y,-z
x,-y,1/2+z
1/2+x,1/2+y,z
1/2-x,1/2+y,1/2-z
1/2-x,1/2-y,-z
1/2+x,1/2-y,1/2+z
loop_
_atom_site_type_symbol
_atom_site_label
_atom_site_fract_x
_atom_site_fract_y
_atom_site_fract_z
Si Si1 0.574005 0.442043 0.298770
Si Si2 0.500000 0.927256 0.250000
Si Si3 0.655914 0.771757 0.777585
Si Si4 0.764984 0.421211 0.406386
Si Si5 0.828138 0.196895 0.577708
Si Si6 0.500000 0.466612 0.250000
Si Si7 0.462143 0.081770 0.646395
O O1 0.500000 0.500000 0.500000
O O2 0.640769 0.318952 0.222816
O O3 0.524311 0.399079 0.297576
O O4 0.653820 0.563201 0.138181
O O5 0.399319 0.829764 0.431927
O O6 0.516430 0.003294 0.307706
O O7 0.702723 0.923017 0.679751
O O8 0.711065 0.705308 0.759559
O O9 0.539559 0.789995 0.014470
O O10 0.759026 0.323751 0.336831
O O11 0.847262 0.380977 0.329976
O O12 0.902668 0.064403 0.439097
O O13 0.500000 0.000000 0.500000
#
# Coordination Sequence:
#
# PCOD9277400 Si02
#       7
#     8   4   8   8   8   4   8
#     4  11  21  39  63  89 125 164 204 251 306 360
#     4   9  18  36  63  84 122 165 196 252 313 356
#     4  10  20  41  62  86 127 162 192 257 319 352
#     4  10  22  39  61  92 124 155 211 254 299 376
#     4   9  18  36  60  86 119 157 205 250 300 365
#     4   9  18  36  59  88 120 155 204 248 293 366
#     4   9  20  40  59  87 123 157 200 251 310 365
#
# _framework density 23.428640999999999
#
# number of rings (size 3 to 8) (size 9 to 14) (size 15 to 20)
#    0.000    2.333    1.667    0.500    2.333    0.667 
#   15.000    3.333    0.000    0.000    0.000    0.000 
#    0.000    0.000    0.000    0.000    0.000    0.000 
#
# Total GULP energy -133889.055447 kJ/mol
# GULP energy per Si atom -5578.710644 kJ/mol
# Density = 2.337532 g / cm^3
# Si number density = 23.428641 Si / 1000 Ang^3
#
#
#
# Elastic Constant Matrix: (Units=GPa)
#
#
# Indices 1 2 3 4 5 6 
#
# 1 238.1785 32.0880 46.7411 0.0000 21.6977 0.0000
# 2 32.0880 45.4412 2.6476 0.0000 11.9925 0.0000
# 3 46.7411 2.6476 67.5288 0.0000 -0.9629 0.0000
# 4 0.0000 0.0000 0.0000 19.4360 0.0000 -0.2867
# 5 21.6977 11.9925 -0.9629 0.0000 32.8801 0.0000
# 6 0.0000 0.0000 0.0000 -0.2867 0.0000 33.7879
#
#
#
# Elastic Compliance Matrix: (Units=1/GPa)
#
#
# Indices 1 2 3 4 5 6 
#
# 1 0.005596 -0.003017 -0.003793 0.000000 -0.002703 0.000000
# 2 -0.003017 0.026056 0.000960 0.000000 -0.007485 0.000000
# 3 -0.003793 0.000960 0.017434 0.000000 0.002664 0.000000
# 4 0.000000 0.000000 0.000000 0.051457 0.000000 0.000437
# 5 -0.002703 -0.007485 0.002664 0.000000 0.035005 0.000000
# 6 0.000000 0.000000 0.000000 0.000437 0.000000 0.029600
#
#
# Mechanical properties :
#
#
# Convention : Reuss Voigt Hill
#
# Bulk Modulus (GPa) = 26.74828 57.12243 41.93535
# Shear Modulus (GPa) = 26.41145 35.19892 30.80519
#
# Velocity S-wave (km/s) = 3.36119 3.88027 3.63002
# Velocity P-wave (km/s) = 5.14832 6.67156 5.95881
#
# Compressibility (1/GPa) = 0.03738559
#
# Stress axis : x y z
#
# Youngs Moduli (GPa) = 178.70945 38.37856 57.35758
#
# Poissons Ratio (x) = 0.11578 0.21758
# Poissons Ratio (y) = 0.53915 -0.05506
# Poissons Ratio (z) = 0.67792 -0.03684
#
# Static dielectric constant tensor:
#      x y z
#    x 2.206500 0.000000 -0.015590 
#    y 0.000000 1.924120 0.000000 
#    z -0.015590 0.000000 1.962850 
# 
# From -- ./inp_files/152225.got.cif
#   From: 2010.05.17/outbox.cif.g08.bks.cpg/sg15_77_cif.got.tgz:152225.got - 2010.06.03 18:47:42.
