data_PCOD9277896
_publ_section_title
;
Structure prediction by ZEFSAII (Michael W. Deem and Ramdas Pophale) SiO2 
 PCOD9277896
Probable space group: C 2/C
;
_chemical_formula_sum "Si O2"
_cell_formula_units_Z 64
_cell_length_a 18.467436
_cell_length_b 9.002612
_cell_length_c 27.463500
_cell_angle_alpha 90.000000
_cell_angle_beta 36.971900
_cell_angle_gamma 90.000000
_cell_volume 2746.067745
_symmetry_space_group_name_H-M "C 2/C"
_symmetry_group_IT_number 15
_symmetry_cell_setting 'monoclinic'
loop_
_space_group_symop_operation_xyz
x,y,z
-x,y,1/2-z
-x,-y,-z
x,-y,1/2+z
1/2+x,1/2+y,z
1/2-x,1/2+y,1/2-z
1/2-x,1/2-y,-z
1/2+x,1/2-y,1/2+z
loop_
_atom_site_type_symbol
_atom_site_label
_atom_site_fract_x
_atom_site_fract_y
_atom_site_fract_z
Si Si1 0.154918 0.492464 0.790281
Si Si2 0.243114 0.652473 0.143438
Si Si3 0.568225 0.179308 0.067410
Si Si4 0.845790 0.855553 0.388720
Si Si5 0.212990 0.168370 0.920410
Si Si6 0.484022 0.821255 0.011261
Si Si7 0.927599 0.815526 0.835909
Si Si8 0.179573 0.198794 0.236928
O O1 0.186175 0.408882 0.723152
O O2 0.191836 0.660121 0.764360
O O3 0.236131 0.428820 0.789311
O O4 0.014526 0.459984 0.874031
O O5 0.152853 0.739385 0.156337
O O6 0.290322 0.506898 0.088405
O O7 0.352017 0.764731 0.096588
O O8 0.577272 0.295251 0.106935
O O9 0.705736 0.138374 0.980930
O O10 0.507914 0.236119 0.049479
O O11 0.882094 0.017827 0.351551
O O12 0.312282 0.211918 0.907618
O O13 0.270345 0.249661 0.842198
O O14 0.082468 0.243020 0.992550
O O15 0.500000 0.000000 0.000000
O O16 0.000000 0.753299 0.750000
O O17 0.037451 0.833007 0.813981
#
# Coordination Sequence:
#
# PCOD9277896 Si02
#       8
#     8   8   8   8   8   8   8   8
#     4  11  24  41  67  93 131 165 220 268 324 382
#     4  10  24  38  65 100 123 174 221 259 326 392
#     4  10  23  41  67  90 133 165 209 275 321 379
#     4  10  23  43  65  95 128 171 215 261 334 385
#     4  10  20  42  61  89 132 169 208 272 321 376
#     4  11  22  41  68  92 129 172 221 265 319 387
#     4  10  23  41  66  94 131 168 221 267 323 388
#     4  10  24  40  63  94 126 168 212 269 326 377
#
# _framework density 23.306052999999999
#
# number of rings (size 3 to 8) (size 9 to 14) (size 15 to 20)
#    0.000    1.750    1.250    1.875    7.000    1.000 
#    0.000    0.625    0.000    0.000    0.000    0.000 
#    0.000    0.000    0.000    0.000    0.000    0.000 
#
# Total GULP energy -178830.513490 kJ/mol
# GULP energy per Si atom -5588.453547 kJ/mol
# Density = 2.325301 g / cm^3
# Si number density = 23.306053 Si / 1000 Ang^3
#
#
#
# Elastic Constant Matrix: (Units=GPa)
#
#
# Indices 1 2 3 4 5 6 
#
# 1 85.3313 21.7582 20.7058 0.0000 -25.6866 -0.0001
# 2 21.7582 88.5360 4.0160 -0.0001 -12.8458 -0.0001
# 3 20.7058 4.0160 37.5868 0.0000 -9.9643 0.0000
# 4 0.0000 -0.0001 0.0000 27.2483 0.0000 -6.0244
# 5 -25.6866 -12.8458 -9.9643 0.0000 30.3287 0.0000
# 6 -0.0001 -0.0001 0.0000 -6.0244 0.0000 23.7809
#
#
#
# Elastic Compliance Matrix: (Units=1/GPa)
#
#
# Indices 1 2 3 4 5 6 
#
# 1 0.017317 -0.002282 -0.006204 0.000000 0.011661 0.000000
# 2 -0.002282 0.012335 0.000889 0.000000 0.003584 0.000000
# 3 -0.006204 0.000889 0.031367 0.000000 0.005428 0.000000
# 4 0.000000 0.000000 0.000000 0.038877 0.000000 0.009849
# 5 0.011661 0.003584 0.005428 0.000000 0.046150 0.000000
# 6 0.000000 0.000000 0.000000 0.009849 0.000000 0.044546
#
#
# Mechanical properties :
#
#
# Convention : Reuss Voigt Hill
#
# Bulk Modulus (GPa) = 21.82234 33.82377 27.82305
# Shear Modulus (GPa) = 22.61831 27.26984 24.94407
#
# Velocity S-wave (km/s) = 3.11865 3.42435 3.27507
# Velocity P-wave (km/s) = 4.72776 5.49356 5.12498
#
# Compressibility (1/GPa) = 0.04582461
#
# Stress axis : x y z
#
# Youngs Moduli (GPa) = 57.74775 81.06760 31.88098
#
# Poissons Ratio (x) = 0.18502 0.19779
# Poissons Ratio (y) = 0.13180 -0.02835
# Poissons Ratio (z) = 0.35828 -0.07210
#
# Static dielectric constant tensor:
#      x y z
#    x 1.977920 0.000000 0.023420 
#    y 0.000000 1.819840 0.000000 
#    z 0.023420 0.000000 1.911020 
# 
# From -- ./inp_files/315691.got.cif
#   From: 2010.05.17/outbox.cif.g08.bks.cpg/sg15_158_cif.got.tgz:315691.got - 2010.06.03 18:47:42.
