data_PCOD9277199
_publ_section_title
;
Structure prediction by ZEFSAII (Michael W. Deem and Ramdas Pophale) SiO2 
 PCOD9277199
Probable space group: C 2/C
;
_chemical_formula_sum "Si O2"
_cell_formula_units_Z 64
_cell_length_a 15.852155
_cell_length_b 15.718405
_cell_length_c 12.979485
_cell_angle_alpha 90.000000
_cell_angle_beta 48.733129
_cell_angle_gamma 90.000000
_cell_volume 2430.901609
_symmetry_space_group_name_H-M "C 2/C"
_symmetry_group_IT_number 15
_symmetry_cell_setting 'monoclinic'
loop_
_space_group_symop_operation_xyz
x,y,z
-x,y,1/2-z
-x,-y,-z
x,-y,1/2+z
1/2+x,1/2+y,z
1/2-x,1/2+y,1/2-z
1/2-x,1/2-y,-z
1/2+x,1/2-y,1/2+z
loop_
_atom_site_type_symbol
_atom_site_label
_atom_site_fract_x
_atom_site_fract_y
_atom_site_fract_z
Si Si1 0.370230 0.343220 0.937485
Si Si2 0.075966 0.061879 0.366707
Si Si3 0.287620 0.633832 0.070514
Si Si4 0.886024 0.214428 0.800738
Si Si5 0.665330 0.847237 0.973074
Si Si6 0.885451 0.487236 0.325042
Si Si7 0.540537 0.093679 0.939133
Si Si8 0.788361 0.101252 0.726784
O O1 0.376896 0.241537 0.944762
O O2 0.298076 0.378299 0.095531
O O3 0.485722 0.394133 0.863842
O O4 0.299994 0.348271 0.885842
O O5 0.134574 0.131311 0.392443
O O6 0.175243 0.993019 0.264133
O O7 0.000000 0.000000 0.500000
O O8 0.207137 0.714129 0.133531
O O9 0.212849 0.549190 0.128716
O O10 0.358209 0.643049 0.909546
O O11 0.881148 0.164356 0.698486
O O12 0.000000 0.253516 0.750000
O O13 0.574813 0.853826 0.952262
O O14 0.642279 0.934462 0.052035
O O15 0.000000 0.539757 0.250000
O O16 0.077996 0.418365 0.289861
O O17 0.664930 0.120074 0.877856
O O18 0.500000 0.000000 0.000000
#
# Coordination Sequence:
#
# PCOD9277199 Si02
#       8
#     8   8   8   8   8   8   8   8
#     4  10  21  41  70  98 133 176 217 274 346 417
#     4  10  20  41  72  96 129 174 222 271 340 409
#     4  11  23  44  69  93 131 183 223 271 345 406
#     4  11  26  43  64  98 136 174 228 284 334 402
#     4  10  22  40  66  98 133 173 218 277 345 404
#     4  10  20  40  69  93 130 171 220 274 335 413
#     4  11  24  41  64  99 132 172 225 283 334 407
#     4  11  23  44  67  99 137 172 225 285 336 405
#
# _framework density 26.327680999999998
#
# number of rings (size 3 to 8) (size 9 to 14) (size 15 to 20)
#    0.000    1.500    2.500    2.625    5.250    1.000 
#    0.000    0.000    0.000    0.000    0.000    0.000 
#    0.000    0.000    0.000    0.000    0.000    0.000 
#
# Total GULP energy -178404.870352 kJ/mol
# GULP energy per Si atom -5575.152198 kJ/mol
# Density = 2.626776 g / cm^3
# Si number density = 26.327681 Si / 1000 Ang^3
#
#
#
# Elastic Constant Matrix: (Units=GPa)
#
#
# Indices 1 2 3 4 5 6 
#
# 1 167.3012 56.2563 50.7102 0.0000 -33.7064 0.0000
# 2 56.2563 94.8767 11.6055 0.0000 -13.9409 0.0000
# 3 50.7102 11.6055 81.8947 0.0000 -22.7552 0.0000
# 4 0.0000 0.0000 0.0000 19.0134 0.0000 -8.2063
# 5 -33.7064 -13.9409 -22.7552 0.0000 47.5345 0.0000
# 6 0.0000 0.0000 0.0000 -8.2063 0.0000 52.0866
#
#
#
# Elastic Compliance Matrix: (Units=1/GPa)
#
#
# Indices 1 2 3 4 5 6 
#
# 1 0.009507 -0.004622 -0.004308 0.000000 0.003323 0.000000
# 2 -0.004622 0.013303 0.001326 0.000000 0.001259 0.000000
# 3 -0.004308 0.001326 0.016090 0.000000 0.005036 0.000000
# 4 0.000000 0.000000 0.000000 0.056432 0.000000 0.008891
# 5 0.003323 0.001259 0.005036 0.000000 0.026174 0.000000
# 6 0.000000 0.000000 0.000000 0.008891 0.000000 0.020600
#
#
# Mechanical properties :
#
#
# Convention : Reuss Voigt Hill
#
# Bulk Modulus (GPa) = 42.20669 64.57963 53.39316
# Shear Modulus (GPa) = 30.26451 38.76029 34.51240
#
# Velocity S-wave (km/s) = 3.39415 3.84112 3.62453
# Velocity P-wave (km/s) = 5.60593 6.65242 6.15147
#
# Compressibility (1/GPa) = 0.02369293
#
# Stress axis : x y z
#
# Youngs Moduli (GPa) = 105.18852 75.17024 62.15033
#
# Poissons Ratio (x) = 0.34741 0.26776
# Poissons Ratio (y) = 0.48614 -0.08244
# Poissons Ratio (z) = 0.45319 -0.09971
#
# Static dielectric constant tensor:
#      x y z
#    x 1.845980 0.000000 -0.197420 
#    y 0.000000 1.892180 0.000000 
#    z -0.197420 0.000000 2.274680 
# 
# From -- ./inp_files/205687.got.cif
#   From: 2010.05.17/outbox.cif.g08.bks.cpg/sg15_103_cif.got.tgz:205687.got - 2010.06.03 18:47:42.
