data_PCOD9277155
_publ_section_title
;
Structure prediction by ZEFSAII (Michael W. Deem and Ramdas Pophale) SiO2 
 PCOD9277155
Probable space group: C 2/C
;
_chemical_formula_sum "Si O2"
_cell_formula_units_Z 32
_cell_length_a 24.783174
_cell_length_b 11.877851
_cell_length_c 9.255758
_cell_angle_alpha 90.000000
_cell_angle_beta 152.150269
_cell_angle_gamma 90.000000
_cell_volume 1272.820315
_symmetry_space_group_name_H-M "C 2/C"
_symmetry_group_IT_number 15
_symmetry_cell_setting 'monoclinic'
loop_
_space_group_symop_operation_xyz
x,y,z
-x,y,1/2-z
-x,-y,-z
x,-y,1/2+z
1/2+x,1/2+y,z
1/2-x,1/2+y,1/2-z
1/2-x,1/2-y,-z
1/2+x,1/2-y,1/2+z
loop_
_atom_site_type_symbol
_atom_site_label
_atom_site_fract_x
_atom_site_fract_y
_atom_site_fract_z
Si Si1 0.807104 0.629530 0.612331
Si Si2 0.133131 0.733649 0.315287
Si Si3 0.000000 0.152043 0.250000
Si Si4 0.500000 0.773690 0.750000
Si Si5 0.262427 0.469314 0.271604
O O1 0.750000 0.750000 0.500000
O O2 0.787322 0.585763 0.406128
O O3 0.745873 0.541366 0.575585
O O4 0.933153 0.649334 0.975295
O O5 0.250000 0.750000 0.500000
O O6 0.170115 0.617804 0.482432
O O7 0.084005 0.797179 0.343755
O O8 0.036613 0.766856 0.968880
O O9 0.110762 0.074463 0.473514
#
# Coordination Sequence:
#
# PCOD9277155 Si02
#       5
#     8   8   4   4   8
#     4  11  25  43  65  99 136 178 235 288 347 427
#     4   9  20  39  64  98 132 174 230 283 348 428
#     4  10  20  40  68  96 134 178 228 296 354 410
#     4  10  22  40  64  92 136 182 218 288 352 400
#     4  10  24  41  64  96 134 181 232 285 351 422
#
# _framework density 25.141019
#
# number of rings (size 3 to 8) (size 9 to 14) (size 15 to 20)
#    0.000    2.000    0.000    1.500    0.000   19.000 
#    0.000    0.000    0.000    0.000    0.000    0.000 
#    0.000    0.000    0.000    0.000    0.000    0.000 
#
# Total GULP energy -89188.980805 kJ/mol
# GULP energy per Si atom -5574.311300 kJ/mol
# Density = 2.508380 g / cm^3
# Si number density = 25.141019 Si / 1000 Ang^3
#
#
#
# Elastic Constant Matrix: (Units=GPa)
#
#
# Indices 1 2 3 4 5 6 
#
# 1 147.5547 2.2338 26.7515 0.0000 -0.2978 0.0000
# 2 2.2338 42.3352 23.8808 0.0000 -6.5437 0.0000
# 3 26.7515 23.8808 166.5541 0.0000 15.7428 0.0000
# 4 0.0000 0.0000 0.0000 46.9641 0.0000 -18.0511
# 5 -0.2978 -6.5437 15.7428 0.0000 39.6805 0.0000
# 6 0.0000 0.0000 0.0000 -18.0511 0.0000 22.1190
#
#
#
# Elastic Compliance Matrix: (Units=1/GPa)
#
#
# Indices 1 2 3 4 5 6 
#
# 1 0.006997 0.000427 -0.001243 0.000000 0.000616 0.000000
# 2 0.000427 0.027139 -0.004554 0.000000 0.006285 0.000000
# 3 -0.001243 -0.004554 0.007199 0.000000 -0.003616 0.000000
# 4 0.000000 0.000000 0.000000 0.031024 0.000000 0.025319
# 5 0.000616 0.006285 -0.003616 0.000000 0.027677 0.000000
# 6 0.000000 0.000000 0.000000 0.025319 0.000000 0.065873
#
#
# Mechanical properties :
#
#
# Convention : Reuss Voigt Hill
#
# Bulk Modulus (GPa) = 32.68523 51.35292 42.01908
# Shear Modulus (GPa) = 26.75986 41.99124 34.37555
#
# Velocity S-wave (km/s) = 3.26604 4.09128 3.70173
# Velocity P-wave (km/s) = 5.22031 6.54128 5.91777
#
# Compressibility (1/GPa) = 0.03059486
#
# Stress axis : x y z
#
# Youngs Moduli (GPa) = 142.91111 36.84752 138.91695
#
# Poissons Ratio (x) = -0.01575 0.17274
# Poissons Ratio (y) = -0.06109 0.63263
# Poissons Ratio (z) = 0.17770 0.16780
#
# Static dielectric constant tensor:
#      x y z
#    x 2.163050 0.000000 0.067400 
#    y 0.000000 2.064450 0.000000 
#    z 0.067400 0.000000 2.048320 
# 
# From -- ./inp_files/61355.got.cif
#   From: 2010.05.17/outbox.cif.g08.bks.cpg/sg15_31_cif.got.tgz:61355.got - 2010.06.03 18:47:42.
