data_PCOD9277681
_publ_section_title
;
Structure prediction by ZEFSAII (Michael W. Deem and Ramdas Pophale) SiO2 
 PCOD9277681
Probable space group: C 2/C
;
_chemical_formula_sum "Si O2"
_cell_formula_units_Z 40
_cell_length_a 7.422449
_cell_length_b 26.822510
_cell_length_c 11.217327
_cell_angle_alpha 90.000000
_cell_angle_beta 130.522713
_cell_angle_gamma 90.000000
_cell_volume 1697.596358
_symmetry_space_group_name_H-M "C 2/C"
_symmetry_group_IT_number 15
_symmetry_cell_setting 'monoclinic'
loop_
_space_group_symop_operation_xyz
x,y,z
-x,y,1/2-z
-x,-y,-z
x,-y,1/2+z
1/2+x,1/2+y,z
1/2-x,1/2+y,1/2-z
1/2-x,1/2-y,-z
1/2+x,1/2-y,1/2+z
loop_
_atom_site_type_symbol
_atom_site_label
_atom_site_fract_x
_atom_site_fract_y
_atom_site_fract_z
Si Si1 0.018025 0.159886 0.379483
Si Si2 0.338905 0.534290 0.571334
Si Si3 0.143858 0.804816 0.437651
Si Si4 0.024122 0.606919 0.126232
Si Si5 0.254732 0.428652 0.416188
O O1 0.997631 0.186174 0.498605
O O2 0.789974 0.125688 0.253078
O O3 0.000000 0.192821 0.250000
O O4 0.221645 0.118743 0.486663
O O5 0.500000 0.518547 0.750000
O O6 0.100473 0.563736 0.503829
O O7 0.276515 0.483832 0.478087
O O8 0.515507 0.571436 0.573755
O O9 0.250000 0.750000 0.500000
O O10 0.358751 0.844724 0.534120
O O11 0.000000 0.809175 0.250000
O O12 0.000000 0.584702 0.250000
O O13 0.000000 0.424082 0.250000
#
# Coordination Sequence:
#
# PCOD9277681 Si02
#       5
#     8   8   8   8   8
#     4  11  25  43  67 105 143 176 228 297 351 397
#     4  11  23  39  62  93 134 191 243 276 331 417
#     4  11  23  45  74 102 131 179 232 273 348 435
#     4  10  20  41  67  92 132 181 227 277 336 419
#     4  11  25  39  60  96 141 185 235 287 342 399
#
# _framework density 23.562728
#
# number of rings (size 3 to 8) (size 9 to 14) (size 15 to 20)
#    0.000    1.200    4.000    3.600    5.600    0.800 
#    0.000    4.000    0.000    1.200    0.000    0.000 
#    0.000    0.000    0.000    0.000    0.000    0.000 
#
# Total GULP energy -111562.219086 kJ/mol
# GULP energy per Si atom -5578.110954 kJ/mol
# Density = 2.350910 g / cm^3
# Si number density = 23.562728 Si / 1000 Ang^3
#
#
#
# Elastic Constant Matrix: (Units=GPa)
#
#
# Indices 1 2 3 4 5 6 
#
# 1 42.0064 11.4518 47.4334 0.0000 -11.7335 0.0000
# 2 11.4518 99.2490 50.3119 0.0000 6.2027 0.0000
# 3 47.4334 50.3119 224.9067 0.0000 1.5043 0.0000
# 4 0.0000 0.0000 0.0000 32.5428 0.0000 -6.0524
# 5 -11.7335 6.2027 1.5043 0.0000 48.5881 0.0000
# 6 0.0000 0.0000 0.0000 -6.0524 0.0000 4.6102
#
#
#
# Elastic Compliance Matrix: (Units=1/GPa)
#
#
# Indices 1 2 3 4 5 6 
#
# 1 0.034539 -0.000909 -0.007139 0.000000 0.008678 0.000000
# 2 -0.000909 0.011481 -0.002366 0.000000 -0.001612 0.000000
# 3 -0.007139 -0.002366 0.006492 0.000000 -0.001623 0.000000
# 4 0.000000 0.000000 0.000000 0.040655 0.000000 0.053373
# 5 0.008678 -0.001612 -0.001623 0.000000 0.022933 0.000000
# 6 0.000000 0.000000 0.000000 0.053373 0.000000 0.286977
#
#
# Mechanical properties :
#
#
# Convention : Reuss Voigt Hill
#
# Bulk Modulus (GPa) = 31.56114 64.95068 48.25591
# Shear Modulus (GPa) = 11.50840 34.27923 22.89381
#
# Velocity S-wave (km/s) = 2.21241 3.81833 3.12045
# Velocity P-wave (km/s) = 4.46654 6.86035 5.78854
#
# Compressibility (1/GPa) = 0.03168454
#
# Stress axis : x y z
#
# Youngs Moduli (GPa) = 28.95272 87.10405 154.03473
#
# Poissons Ratio (x) = 0.07914 1.09968
# Poissons Ratio (y) = 0.02631 0.36442
# Poissons Ratio (z) = 0.20670 0.20607
#
# Static dielectric constant tensor:
#      x y z
#    x 2.311410 0.000000 -0.171720 
#    y 0.000000 1.822720 0.000000 
#    z -0.171720 0.000000 2.154160 
# 
# From -- ./inp_files/81991.got.cif
#   From: 2010.05.17/outbox.cif.g08.bks.cpg/sg15_41_cif.got.tgz:81991.got - 2010.06.03 18:47:42.
