data_PCOD9277321
_publ_section_title
;
Structure prediction by ZEFSAII (Michael W. Deem and Ramdas Pophale) SiO2 
 PCOD9277321
Probable space group: C 2/C
;
_chemical_formula_sum "Si O2"
_cell_formula_units_Z 48
_cell_length_a 27.029078
_cell_length_b 9.543992
_cell_length_c 14.656349
_cell_angle_alpha 90.000000
_cell_angle_beta 31.973795
_cell_angle_gamma 90.000000
_cell_volume 2002.067736
_symmetry_space_group_name_H-M "C 2/C"
_symmetry_group_IT_number 15
_symmetry_cell_setting 'monoclinic'
loop_
_space_group_symop_operation_xyz
x,y,z
-x,y,1/2-z
-x,-y,-z
x,-y,1/2+z
1/2+x,1/2+y,z
1/2-x,1/2+y,1/2-z
1/2-x,1/2-y,-z
1/2+x,1/2-y,1/2+z
loop_
_atom_site_type_symbol
_atom_site_label
_atom_site_fract_x
_atom_site_fract_y
_atom_site_fract_z
Si Si1 0.162871 0.889554 0.104146
Si Si2 0.651390 0.065902 0.105088
Si Si3 0.319233 0.066222 0.134965
Si Si4 0.429471 0.687953 0.558026
Si Si5 0.401046 0.565149 0.982089
Si Si6 0.457001 0.845672 0.987843
O O1 0.174191 0.730421 0.047451
O O2 0.118847 0.865567 0.272629
O O3 0.261814 0.965504 0.964197
O O4 0.103294 0.962112 0.118748
O O5 0.550125 0.071491 0.310279
O O6 0.653322 0.971983 0.012042
O O7 0.208102 0.066288 0.316941
O O8 0.361807 0.209712 0.107267
O O9 0.368579 0.944566 0.117106
O O10 0.448264 0.554342 0.467990
O O11 0.518560 0.775758 0.453602
O O12 0.443019 0.715673 0.941386
#
# Coordination Sequence:
#
# PCOD9277321 Si02
#       6
#     8   8   8   8   8   8
#     4  10  21  43  70 100 139 190 227 279 356 426
#     4  10  20  40  72  99 131 183 235 271 338 429
#     4  12  22  41  69 107 138 182 233 289 348 420
#     4  11  25  42  69 107 143 178 240 294 345 410
#     4  12  23  42  71 104 136 187 238 286 347 422
#     4  11  24  42  70  99 139 188 234 281 351 422
#
# _framework density 23.975211999999999
#
# number of rings (size 3 to 8) (size 9 to 14) (size 15 to 20)
#    0.000    1.000    3.333    5.500    2.333    0.000 
#    0.000    0.833   29.333    0.000    0.000    0.000 
#    0.000    0.000    0.000    0.000    0.000    0.000 
#
# Total GULP energy -134422.581231 kJ/mol
# GULP energy per Si atom -5600.940885 kJ/mol
# Density = 2.392064 g / cm^3
# Si number density = 23.975212 Si / 1000 Ang^3
#
#
#
# Elastic Constant Matrix: (Units=GPa)
#
#
# Indices 1 2 3 4 5 6 
#
# 1 166.1592 52.1959 45.0487 0.0000 12.2509 0.0000
# 2 52.1959 78.7450 43.9176 0.0000 18.0508 0.0000
# 3 45.0487 43.9176 66.0277 0.0000 -2.6749 0.0000
# 4 0.0000 0.0000 0.0000 16.6210 0.0000 12.4170
# 5 12.2509 18.0508 -2.6749 0.0000 43.0060 0.0000
# 6 0.0000 0.0000 0.0000 12.4170 0.0000 52.8763
#
#
#
# Elastic Compliance Matrix: (Units=1/GPa)
#
#
# Indices 1 2 3 4 5 6 
#
# 1 0.008021 -0.003125 -0.003442 0.000000 -0.001187 0.000000
# 2 -0.003125 0.025990 -0.015600 0.000000 -0.010989 0.000000
# 3 -0.003442 -0.015600 0.028246 0.000000 0.009285 0.000000
# 4 0.000000 0.000000 0.000000 0.072966 0.000000 -0.017135
# 5 -0.001187 -0.010989 0.009285 0.000000 0.028781 0.000000
# 6 0.000000 0.000000 0.000000 -0.017135 0.000000 0.022936
#
#
# Mechanical properties :
#
#
# Convention : Reuss Voigt Hill
#
# Bulk Modulus (GPa) = 55.79485 65.91737 60.85611
# Shear Modulus (GPa) = 21.07511 33.81864 27.44688
#
# Velocity S-wave (km/s) = 2.96807 3.75983 3.38716
# Velocity P-wave (km/s) = 5.92185 6.81190 6.38241
#
# Compressibility (1/GPa) = 0.01792280
#
# Stress axis : x y z
#
# Youngs Moduli (GPa) = 124.67909 38.47654 35.40315
#
# Poissons Ratio (x) = 0.12022 0.12186
# Poissons Ratio (y) = 0.38956 0.55230
# Poissons Ratio (z) = 0.42915 0.60024
#
# Static dielectric constant tensor:
#      x y z
#    x 1.953290 0.000000 -0.017620 
#    y 0.000000 1.891980 0.000000 
#    z -0.017620 0.000000 1.958760 
# 
# From -- ./inp_files/173332.got.cif
#   From: 2010.05.17/outbox.cif.g08.bks.cpg/sg15_87_cif.got.tgz:173332.got - 2010.06.03 18:47:42.
