data_PCOD9277028
_publ_section_title
;
Structure prediction by ZEFSAII (Michael W. Deem and Ramdas Pophale) SiO2 
 PCOD9277028
Probable space group: C 2/C
;
_chemical_formula_sum "Si O2"
_cell_formula_units_Z 44
_cell_length_a 7.231318
_cell_length_b 17.154360
_cell_length_c 16.199159
_cell_angle_alpha 90.000000
_cell_angle_beta 124.294456
_cell_angle_gamma 90.000000
_cell_volume 1660.140471
_symmetry_space_group_name_H-M "C 2/C"
_symmetry_group_IT_number 15
_symmetry_cell_setting 'monoclinic'
loop_
_space_group_symop_operation_xyz
x,y,z
-x,y,1/2-z
-x,-y,-z
x,-y,1/2+z
1/2+x,1/2+y,z
1/2-x,1/2+y,1/2-z
1/2-x,1/2-y,-z
1/2+x,1/2-y,1/2+z
loop_
_atom_site_type_symbol
_atom_site_label
_atom_site_fract_x
_atom_site_fract_y
_atom_site_fract_z
Si Si1 0.574772 0.681469 0.040000
Si Si2 0.500000 0.000000 0.500000
Si Si3 0.822933 0.952645 0.402147
Si Si4 0.671335 0.929862 0.185062
Si Si5 0.249718 0.748591 0.270111
Si Si6 0.033710 0.336631 0.572431
O O1 0.591691 0.687967 0.141748
O O2 0.812368 0.647011 0.071522
O O3 0.387142 0.635227 0.943839
O O4 0.555344 0.772424 0.013457
O O5 0.718204 0.051133 0.601698
O O6 0.387877 0.082999 0.445193
O O7 0.791912 0.964384 0.296431
O O8 0.578388 0.967994 0.380173
O O9 0.000000 0.000000 0.500000
O O10 0.667832 0.837986 0.205315
O O11 0.000000 0.752307 0.250000
O O12 0.206241 0.710613 0.171492
#
# Coordination Sequence:
#
# PCOD9277028 Si02
#       6
#     8   4   8   8   8   8
#     4  10  20  40  67  92 128 181 234 274 349 431
#     4  12  24  42  64 104 138 172 236 304 348 408
#     4  11  25  44  66  97 136 187 235 287 354 423
#     4  11  25  43  68  97 139 182 227 300 353 419
#     4  10  21  40  68  98 126 179 235 287 352 435
#     4  10  21  38  67  97 130 179 230 289 351 417
#
# _framework density 26.503782000000001
#
# number of rings (size 3 to 8) (size 9 to 14) (size 15 to 20)
#    0.000    1.455    3.636    1.091    2.545    2.182 
#    0.000    0.000    0.000    0.000    0.000    0.000 
#    0.000    0.000    0.000    0.000    0.000    0.000 
#
# Total GULP energy -122553.191809 kJ/mol
# GULP energy per Si atom -5570.599628 kJ/mol
# Density = 2.644346 g / cm^3
# Si number density = 26.503782 Si / 1000 Ang^3
#
#
#
# Elastic Constant Matrix: (Units=GPa)
#
#
# Indices 1 2 3 4 5 6 
#
# 1 55.7527 1.1700 33.5558 0.0000 14.7708 0.0000
# 2 1.1700 183.6806 60.2749 0.0000 3.4144 0.0000
# 3 33.5558 60.2749 162.8001 0.0000 7.2514 0.0000
# 4 0.0000 0.0000 0.0000 55.8547 0.0000 13.6937
# 5 14.7708 3.4144 7.2514 0.0000 32.7502 0.0000
# 6 0.0000 0.0000 0.0000 13.6937 0.0000 14.2016
#
#
#
# Elastic Compliance Matrix: (Units=1/GPa)
#
#
# Indices 1 2 3 4 5 6 
#
# 1 0.023489 0.001682 -0.005034 0.000000 -0.009654 0.000000
# 2 0.001682 0.006318 -0.002649 0.000000 -0.000831 0.000000
# 3 -0.005034 -0.002649 0.008128 0.000000 0.000747 0.000000
# 4 0.000000 0.000000 0.000000 0.023446 0.000000 -0.022608
# 5 -0.009654 -0.000831 0.000747 0.000000 0.034810 0.000000
# 6 0.000000 0.000000 0.000000 -0.022608 0.000000 0.092214
#
#
# Mechanical properties :
#
#
# Convention : Reuss Voigt Hill
#
# Bulk Modulus (GPa) = 38.56219 65.80386 52.18302
# Shear Modulus (GPa) = 23.91767 41.04348 32.48057
#
# Velocity S-wave (km/s) = 3.00730 3.93948 3.50452
# Velocity P-wave (km/s) = 5.16137 6.75090 6.00893
#
# Compressibility (1/GPa) = 0.02593214
#
# Stress axis : x y z
#
# Youngs Moduli (GPa) = 42.57367 158.27310 123.03839
#
# Poissons Ratio (x) = -0.26618 0.61938
# Poissons Ratio (y) = -0.07160 0.32591
# Poissons Ratio (z) = 0.21432 0.41925
#
# Static dielectric constant tensor:
#      x y z
#    x 1.563820 0.000000 0.484130 
#    y 0.000000 2.021850 0.000000 
#    z 0.484130 0.000000 1.671300 
# 
# From -- ./inp_files/191198.got.cif
#   From: 2010.05.17/outbox.cif.g08.bks.cpg/sg15_96_cif.got.tgz:191198.got - 2010.06.03 18:47:42.
