data_PCOD9277410
_publ_section_title
;
Structure prediction by ZEFSAII (Michael W. Deem and Ramdas Pophale) SiO2 
 PCOD9277410
Probable space group: C 2/C
;
_chemical_formula_sum "Si O2"
_cell_formula_units_Z 48
_cell_length_a 11.964021
_cell_length_b 14.375802
_cell_length_c 16.824560
_cell_angle_alpha 90.000000
_cell_angle_beta 128.534181
_cell_angle_gamma 90.000000
_cell_volume 2263.555362
_symmetry_space_group_name_H-M "C 2/C"
_symmetry_group_IT_number 15
_symmetry_cell_setting 'monoclinic'
loop_
_space_group_symop_operation_xyz
x,y,z
-x,y,1/2-z
-x,-y,-z
x,-y,1/2+z
1/2+x,1/2+y,z
1/2-x,1/2+y,1/2-z
1/2-x,1/2-y,-z
1/2+x,1/2-y,1/2+z
loop_
_atom_site_type_symbol
_atom_site_label
_atom_site_fract_x
_atom_site_fract_y
_atom_site_fract_z
Si Si1 0.314363 0.578186 0.905777
Si Si2 0.629192 0.177540 0.540794
Si Si3 0.749472 0.880820 0.933447
Si Si4 0.604202 0.378210 0.232994
Si Si5 0.000000 0.676319 0.750000
Si Si6 0.500000 0.201436 0.250000
Si Si7 0.915234 0.757229 0.551262
O O1 0.320301 0.477964 0.948542
O O2 0.371294 0.578252 0.840927
O O3 0.148012 0.616639 0.825356
O O4 0.411410 0.645664 0.002825
O O5 0.660176 0.118705 0.475981
O O6 0.664415 0.284617 0.533275
O O7 0.747622 0.144195 0.657111
O O8 0.476763 0.181231 0.516308
O O9 0.634341 0.863533 0.813865
O O10 0.500000 0.429401 0.250000
O O11 0.524939 0.276862 0.190867
O O12 0.003302 0.739937 0.671566
O O13 0.750000 0.750000 0.500000
#
# Coordination Sequence:
#
# PCOD9277410 Si02
#       7
#     8   8   8   8   4   4   8
#     4  11  21  38  65  96 125 163 221 271 305 382
#     4  10  20  41  62  88 124 172 200 264 329 386
#     4  10  21  35  65  92 122 158 219 265 319 372
#     4   9  19  37  65  87 121 169 216 257 320 385
#     4  10  21  42  62  85 126 176 206 249 334 383
#     4   8  17  36  58  89 116 170 212 253 316 395
#     4  10  22  39  64  89 126 173 209 255 326 391
#
# _framework density 21.205577999999999
#
# number of rings (size 3 to 8) (size 9 to 14) (size 15 to 20)
#    0.500    1.667    1.667    1.500    2.333    0.667 
#    0.000    5.000    3.667    0.000    0.000    0.000 
#    0.000    0.000    0.000    0.000    0.000    0.000 
#
# Total GULP energy -133654.711303 kJ/mol
# GULP energy per Si atom -5568.946304 kJ/mol
# Density = 2.115731 g / cm^3
# Si number density = 21.205578 Si / 1000 Ang^3
#
#
#
# Elastic Constant Matrix: (Units=GPa)
#
#
# Indices 1 2 3 4 5 6 
#
# 1 139.0587 36.1076 29.1646 0.0000 -26.0374 0.0000
# 2 36.1076 71.2734 36.0683 0.0000 -21.0773 0.0000
# 3 29.1646 36.0683 82.0372 0.0000 -18.8266 0.0000
# 4 0.0000 0.0000 0.0000 8.3007 0.0000 1.9641
# 5 -26.0374 -21.0773 -18.8266 0.0000 47.1616 0.0000
# 6 0.0000 0.0000 0.0000 1.9641 0.0000 24.7534
#
#
#
# Elastic Compliance Matrix: (Units=1/GPa)
#
#
# Indices 1 2 3 4 5 6 
#
# 1 0.008771 -0.002976 -0.001105 0.000000 0.003071 0.000000
# 2 -0.002976 0.020393 -0.006818 0.000000 0.004749 0.000000
# 3 -0.001105 -0.006818 0.016227 0.000000 0.002821 0.000000
# 4 0.000000 0.000000 0.000000 0.122776 0.000000 -0.009742
# 5 0.003071 0.004749 0.002821 0.000000 0.026148 0.000000
# 6 0.000000 0.000000 0.000000 -0.009742 0.000000 0.041171
#
#
# Mechanical properties :
#
#
# Convention : Reuss Voigt Hill
#
# Bulk Modulus (GPa) = 42.38505 55.00559 48.69532
# Shear Modulus (GPa) = 18.85736 28.77840 23.81788
#
# Velocity S-wave (km/s) = 2.98529 3.68790 3.35504
# Velocity P-wave (km/s) = 5.64922 6.64302 6.16617
#
# Compressibility (1/GPa) = 0.02359322
#
# Stress axis : x y z
#
# Youngs Moduli (GPa) = 114.01596 49.03668 61.62458
#
# Poissons Ratio (x) = 0.14593 0.06808
# Poissons Ratio (y) = 0.33931 0.42016
# Poissons Ratio (z) = 0.12597 0.33433
#
# Static dielectric constant tensor:
#      x y z
#    x 1.866840 0.000000 0.019010 
#    y 0.000000 1.735410 0.000000 
#    z 0.019010 0.000000 1.811410 
# 
# From -- ./inp_files/144435.got.cif
#   From: 2010.05.17/outbox.cif.g08.bks.cpg/sg15_73_cif.got.tgz:144435.got - 2010.06.03 18:47:42.
