data_PCOD9277258
_publ_section_title
;
Structure prediction by ZEFSAII (Michael W. Deem and Ramdas Pophale) SiO2 
 PCOD9277258
Probable space group: C 2/C
;
_chemical_formula_sum "Si O2"
_cell_formula_units_Z 40
_cell_length_a 17.667024
_cell_length_b 7.479261
_cell_length_c 13.520324
_cell_angle_alpha 90.000000
_cell_angle_beta 121.449222
_cell_angle_gamma 90.000000
_cell_volume 1524.089954
_symmetry_space_group_name_H-M "C 2/C"
_symmetry_group_IT_number 15
_symmetry_cell_setting 'monoclinic'
loop_
_space_group_symop_operation_xyz
x,y,z
-x,y,1/2-z
-x,-y,-z
x,-y,1/2+z
1/2+x,1/2+y,z
1/2-x,1/2+y,1/2-z
1/2-x,1/2-y,-z
1/2+x,1/2-y,1/2+z
loop_
_atom_site_type_symbol
_atom_site_label
_atom_site_fract_x
_atom_site_fract_y
_atom_site_fract_z
Si Si1 0.314234 0.887178 0.769819
Si Si2 0.969990 0.113268 0.840249
Si Si3 0.158523 0.154941 0.320489
Si Si4 0.212594 0.484565 0.959693
Si Si5 0.580027 0.142360 0.537815
O O1 0.385421 0.729384 0.817140
O O2 0.240427 0.856628 0.800807
O O3 0.273884 0.885475 0.633845
O O4 0.360792 0.078414 0.827651
O O5 0.000000 0.177201 0.750000
O O6 0.040079 0.167958 0.973470
O O7 0.931797 0.914374 0.791886
O O8 0.165942 0.331541 0.391241
O O9 0.192082 0.009308 0.424765
O O10 0.141869 0.408606 0.987542
O O11 0.500000 0.000000 0.500000
#
# Coordination Sequence:
#
# PCOD9277258 Si02
#       5
#     8   8   8   8   8
#     4  10  20  40  70  94 130 177 224 268 340 409
#     4  11  21  41  62  97 132 168 222 276 331 399
#     4  10  23  39  66  97 133 172 227 280 332 405
#     4  10  20  42  65  93 131 177 219 277 343 398
#     4   9  20  38  67  93 128 175 218 270 340 408
#
# _framework density 26.245170000000002
#
# number of rings (size 3 to 8) (size 9 to 14) (size 15 to 20)
#    0.000    2.000    2.000    1.200    0.000    2.400 
#   10.800    1.000    0.000    0.000    0.000    0.000 
#    0.000    0.000    0.000    0.000    0.000    0.000 
#
# Total GULP energy -111736.349192 kJ/mol
# GULP energy per Si atom -5586.817460 kJ/mol
# Density = 2.618544 g / cm^3
# Si number density = 26.245170 Si / 1000 Ang^3
#
#
#
# Elastic Constant Matrix: (Units=GPa)
#
#
# Indices 1 2 3 4 5 6 
#
# 1 82.9090 20.6404 25.2855 0.0000 -14.2566 0.0000
# 2 20.6404 119.6039 13.1322 0.0000 18.3412 0.0000
# 3 25.2855 13.1322 131.1230 0.0000 -4.4384 0.0000
# 4 0.0000 0.0000 0.0000 54.5471 0.0000 24.1174
# 5 -14.2566 18.3412 -4.4384 0.0000 36.0626 0.0000
# 6 0.0000 0.0000 0.0000 24.1174 0.0000 24.5517
#
#
#
# Elastic Compliance Matrix: (Units=1/GPa)
#
#
# Indices 1 2 3 4 5 6 
#
# 1 0.014877 -0.003445 -0.002275 0.000000 0.007354 0.000000
# 2 -0.003445 0.010018 -0.000560 0.000000 -0.006526 0.000000
# 3 -0.002275 -0.000560 0.008134 0.000000 0.000386 0.000000
# 4 0.000000 0.000000 0.000000 0.032408 0.000000 -0.031835
# 5 0.007354 -0.006526 0.000386 0.000000 0.034003 0.000000
# 6 0.000000 0.000000 0.000000 -0.031835 0.000000 0.072002
#
#
# Mechanical properties :
#
#
# Convention : Reuss Voigt Hill
#
# Bulk Modulus (GPa) = 48.85381 50.19467 49.52424
# Shear Modulus (GPa) = 26.20179 41.33748 33.76963
#
# Velocity S-wave (km/s) = 3.16309 3.97300 3.59095
# Velocity P-wave (km/s) = 5.65641 6.34138 6.00866
#
# Compressibility (1/GPa) = 0.02046923
#
# Stress axis : x y z
#
# Youngs Moduli (GPa) = 67.21560 99.82313 122.93660
#
# Poissons Ratio (x) = 0.34393 0.27968
# Poissons Ratio (y) = 0.23158 0.06882
# Poissons Ratio (z) = 0.15291 0.05588
#
# Static dielectric constant tensor:
#      x y z
#    x 1.931850 0.000000 0.036840 
#    y 0.000000 2.199700 0.000000 
#    z 0.036840 0.000000 2.084220 
# 
# From -- ./inp_files/159125.got.cif
#   From: 2010.05.17/outbox.cif.g08.bks.cpg/sg15_80_cif.got.tgz:159125.got - 2010.06.03 18:47:42.
