data_PCOD9277535
_publ_section_title
;
Structure prediction by ZEFSAII (Michael W. Deem and Ramdas Pophale) SiO2 
 PCOD9277535
Probable space group: C 2/C
;
_chemical_formula_sum "Si O2"
_cell_formula_units_Z 48
_cell_length_a 10.577893
_cell_length_b 18.785080
_cell_length_c 11.224671
_cell_angle_alpha 90.000000
_cell_angle_beta 74.219770
_cell_angle_gamma 90.000000
_cell_volume 2146.355668
_symmetry_space_group_name_H-M "C 2/C"
_symmetry_group_IT_number 15
_symmetry_cell_setting 'monoclinic'
loop_
_space_group_symop_operation_xyz
x,y,z
-x,y,1/2-z
-x,-y,-z
x,-y,1/2+z
1/2+x,1/2+y,z
1/2-x,1/2+y,1/2-z
1/2-x,1/2-y,-z
1/2+x,1/2-y,1/2+z
loop_
_atom_site_type_symbol
_atom_site_label
_atom_site_fract_x
_atom_site_fract_y
_atom_site_fract_z
Si Si1 0.365277 0.460513 0.064585
Si Si2 0.433905 0.030905 0.895599
Si Si3 0.500000 0.582789 0.750000
Si Si4 0.000000 0.322414 0.750000
Si Si5 0.848628 0.197931 0.542335
Si Si6 0.019861 0.331038 0.488905
Si Si7 0.190461 0.805947 0.169970
O O1 0.220612 0.489633 0.072706
O O2 0.389865 0.455724 0.201525
O O3 0.368983 0.383154 0.998322
O O4 0.500000 0.500000 0.000000
O O5 0.500000 0.014608 0.750000
O O6 0.451030 0.116586 0.912209
O O7 0.500000 0.000000 0.000000
O O8 0.416945 0.637957 0.851443
O O9 0.875949 0.271784 0.815435
O O10 0.979594 0.360648 0.630308
O O11 0.750000 0.250000 0.500000
O O12 0.798427 0.186410 0.690041
O O13 0.974531 0.248891 0.502062
O O14 0.173464 0.325900 0.423061
#
# Coordination Sequence:
#
# PCOD9277535 Si02
#       7
#     8   8   4   4   8   8   8
#     4  11  25  45  73 104 146 195 248 310 378 445
#     4  12  29  50  75 103 146 201 248 304 379 462
#     4   9  20  42  68  94 136 187 252 284 360 455
#     4   9  20  36  60 108 140 169 232 308 348 437
#     4  10  20  41  65 103 141 178 247 305 356 449
#     4  11  22  40  72  98 139 186 241 296 374 431
#     4   9  19  36  65  98 137 188 227 292 370 435
#
# _framework density 22.363488
#
# number of rings (size 3 to 8) (size 9 to 14) (size 15 to 20)
#    0.000    1.667    1.667    3.500    5.833    0.000 
#    0.000    1.667    0.000    0.000    0.000    0.000 
#    0.000    0.000    0.000    0.000    0.000    0.000 
#
# Total GULP energy -133624.979205 kJ/mol
# GULP energy per Si atom -5567.707467 kJ/mol
# Density = 2.231259 g / cm^3
# Si number density = 22.363488 Si / 1000 Ang^3
#
#
#
# Elastic Constant Matrix: (Units=GPa)
#
#
# Indices 1 2 3 4 5 6 
#
# 1 179.4642 32.0891 50.6008 0.0000 -9.4590 0.0000
# 2 32.0891 73.6902 26.9853 0.0000 -3.6032 0.0000
# 3 50.6008 26.9853 70.3017 0.0000 -5.7938 0.0000
# 4 0.0000 0.0000 0.0000 13.2011 0.0000 29.0076
# 5 -9.4590 -3.6032 -5.7938 0.0000 41.6308 0.0000
# 6 0.0000 0.0000 0.0000 29.0076 0.0000 16.4357
#
#
#
# Elastic Compliance Matrix: (Units=1/GPa)
#
#
# Indices 1 2 3 4 5 6 
#
# 1 0.007148 -0.001411 -0.004532 0.000000 0.000871 0.000000
# 2 -0.001411 0.016080 -0.005127 0.000000 0.000358 0.000000
# 3 -0.004532 -0.005127 0.019557 0.000000 0.001248 0.000000
# 4 0.000000 0.000000 0.000000 -0.026320 0.000000 0.046452
# 5 0.000871 0.000358 0.001248 0.000000 0.024423 0.000000
# 6 0.000000 0.000000 0.000000 0.046452 0.000000 -0.021140
#
#
# Mechanical properties :
#
#
# Convention : Reuss Voigt Hill
#
# Bulk Modulus (GPa) = 48.43647 60.31185 54.37416
# Shear Modulus (GPa) = 102.52171 28.50558 65.51365
#
# Velocity S-wave (km/s) = 6.77812 3.57409 5.41835
# Velocity P-wave (km/s) = 9.10840 6.63774 7.96940
#
# Compressibility (1/GPa) = 0.02064560
#
# Stress axis : x y z
#
# Youngs Moduli (GPa) = 139.89920 62.19014 51.13218
#
# Poissons Ratio (x) = 0.08772 0.23171
# Poissons Ratio (y) = 0.19734 0.26218
# Poissons Ratio (z) = 0.63397 0.31888
#
# Static dielectric constant tensor:
#      x y z
#    x 1.953070 0.000000 0.092500 
#    y 0.000000 2.017220 0.000000 
#    z 0.092500 0.000000 1.996800 
# 
# From -- ./inp_files/87817.got.cif
#   From: 2010.05.17/outbox.cif.g08.bks.cpg/sg15_44_cif.got.tgz:87817.got - 2010.06.03 18:47:42.
