data_PCOD9277627
_publ_section_title
;
Structure prediction by ZEFSAII (Michael W. Deem and Ramdas Pophale) SiO2 
 PCOD9277627
Probable space group: C 2/C
;
_chemical_formula_sum "Si O2"
_cell_formula_units_Z 64
_cell_length_a 28.251909
_cell_length_b 11.516085
_cell_length_c 14.305718
_cell_angle_alpha 90.000000
_cell_angle_beta 41.357513
_cell_angle_gamma 90.000000
_cell_volume 3075.410357
_symmetry_space_group_name_H-M "C 2/C"
_symmetry_group_IT_number 15
_symmetry_cell_setting 'monoclinic'
loop_
_space_group_symop_operation_xyz
x,y,z
-x,y,1/2-z
-x,-y,-z
x,-y,1/2+z
1/2+x,1/2+y,z
1/2-x,1/2+y,1/2-z
1/2-x,1/2-y,-z
1/2+x,1/2-y,1/2+z
loop_
_atom_site_type_symbol
_atom_site_label
_atom_site_fract_x
_atom_site_fract_y
_atom_site_fract_z
Si Si1 0.146159 0.223911 0.844469
Si Si2 0.752974 0.773138 0.853054
Si Si3 0.318451 0.131706 0.393467
Si Si4 0.338690 0.637083 0.937739
Si Si5 0.135447 0.949697 0.890062
Si Si6 0.153137 0.372197 0.165163
Si Si7 0.980284 0.966460 0.170773
Si Si8 0.489679 0.740103 0.154906
O O1 0.207035 0.259383 0.828166
O O2 0.162548 0.292770 0.725874
O O3 0.146664 0.083924 0.848376
O O4 0.066454 0.259710 0.994446
O O5 0.814285 0.869296 0.746710
O O6 0.795478 0.658108 0.823254
O O7 0.696392 0.812922 0.015556
O O8 0.335345 0.222355 0.451371
O O9 0.234341 0.104580 0.506607
O O10 0.355810 0.008278 0.340173
O O11 0.405891 0.599900 0.774294
O O12 0.344878 0.576195 0.029761
O O13 0.049745 0.926361 0.010099
O O14 0.075809 0.313587 0.287770
O O15 0.000000 0.947912 0.250000
O O16 0.970946 0.103758 0.173236
O O17 0.500000 0.763787 0.250000
#
# Coordination Sequence:
#
# PCOD9277627 Si02
#       8
#     8   8   8   8   8   8   8   8
#     4  11  23  43  68  95 128 171 218 262 329 387
#     4  11  24  39  66  95 129 165 221 268 311 386
#     4  11  25  40  61  95 132 174 205 262 327 385
#     4  10  21  40  64  89 131 164 210 260 325 380
#     4  10  21  40  67  97 120 164 217 269 317 372
#     4  11  26  41  62  96 131 172 215 263 318 390
#     4   8  18  35  65  91 120 159 208 269 310 364
#     4  10  20  41  66  94 128 171 215 263 326 376
#
# _framework density 20.810231000000002
#
# number of rings (size 3 to 8) (size 9 to 14) (size 15 to 20)
#    0.000    1.750    2.500    1.500    7.000    1.500 
#    0.000    4.375    0.000    0.000    0.000    0.000 
#    0.000    0.000    0.000    0.000    0.000    0.000 
#
# Total GULP energy -178844.367636 kJ/mol
# GULP energy per Si atom -5588.886489 kJ/mol
# Density = 2.076287 g / cm^3
# Si number density = 20.810231 Si / 1000 Ang^3
#
#
#
# Elastic Constant Matrix: (Units=GPa)
#
#
# Indices 1 2 3 4 5 6 
#
# 1 76.1341 24.2930 20.9613 0.0000 -9.8627 0.0000
# 2 24.2930 69.5937 26.0558 0.0000 -21.9153 0.0000
# 3 20.9613 26.0558 93.1345 0.0000 -33.0814 0.0000
# 4 0.0000 0.0000 0.0000 30.5534 0.0000 -3.3261
# 5 -9.8627 -21.9153 -33.0814 0.0000 38.9119 0.0000
# 6 0.0000 0.0000 0.0000 -3.3261 0.0000 27.5573
#
#
#
# Elastic Compliance Matrix: (Units=1/GPa)
#
#
# Indices 1 2 3 4 5 6 
#
# 1 0.015176 -0.004655 -0.002404 0.000000 -0.000819 0.000000
# 2 -0.004655 0.019158 -0.001287 0.000000 0.008515 0.000000
# 3 -0.002404 -0.001287 0.015994 0.000000 0.012263 0.000000
# 4 0.000000 0.000000 0.000000 0.033165 0.000000 0.004003
# 5 -0.000819 0.008515 0.012263 0.000000 0.040713 0.000000
# 6 0.000000 0.000000 0.000000 0.004003 0.000000 0.036771
#
#
# Mechanical properties :
#
#
# Convention : Reuss Voigt Hill
#
# Bulk Modulus (GPa) = 29.73151 42.38694 36.05923
# Shear Modulus (GPa) = 26.47147 30.57466 28.52307
#
# Velocity S-wave (km/s) = 3.57044 3.83719 3.70621
# Velocity P-wave (km/s) = 5.59601 6.32808 5.97327
#
# Compressibility (1/GPa) = 0.03363435
#
# Stress axis : x y z
#
# Youngs Moduli (GPa) = 65.89378 52.19863 62.52201
#
# Poissons Ratio (x) = 0.24300 0.15031
# Poissons Ratio (y) = 0.30676 0.08048
# Poissons Ratio (z) = 0.15842 0.06719
#
# Static dielectric constant tensor:
#      x y z
#    x 1.778830 0.000000 0.020670 
#    y 0.000000 1.723670 0.000000 
#    z 0.020670 0.000000 1.765180 
# 
# From -- ./inp_files/177794.got.cif
#   From: 2010.05.17/outbox.cif.g08.bks.cpg/sg15_89_cif.got.tgz:177794.got - 2010.06.03 18:47:42.
