data_PCOD9277375
_publ_section_title
;
Structure prediction by ZEFSAII (Michael W. Deem and Ramdas Pophale) SiO2 
 PCOD9277375
Probable space group: C 2/C
;
_chemical_formula_sum "Si O2"
_cell_formula_units_Z 32
_cell_length_a 10.067871
_cell_length_b 23.718621
_cell_length_c 5.661958
_cell_angle_alpha 90.000000
_cell_angle_beta 78.571610
_cell_angle_gamma 90.000000
_cell_volume 1325.246017
_symmetry_space_group_name_H-M "C 2/C"
_symmetry_group_IT_number 15
_symmetry_cell_setting 'monoclinic'
loop_
_space_group_symop_operation_xyz
x,y,z
-x,y,1/2-z
-x,-y,-z
x,-y,1/2+z
1/2+x,1/2+y,z
1/2-x,1/2+y,1/2-z
1/2-x,1/2-y,-z
1/2+x,1/2-y,1/2+z
loop_
_atom_site_type_symbol
_atom_site_label
_atom_site_fract_x
_atom_site_fract_y
_atom_site_fract_z
Si Si1 0.233586 0.429795 0.251907
Si Si2 0.853037 0.552480 0.220331
Si Si3 0.875206 0.834671 0.961406
Si Si4 0.851437 0.276844 0.763865
O O1 0.244821 0.497670 0.266513
O O2 0.190572 0.412581 0.532120
O O3 0.140900 0.423394 0.046870
O O4 0.353010 0.388383 0.135210
O O5 0.000000 0.531434 0.250000
O O6 0.743522 0.817930 0.853950
O O7 0.000000 0.846150 0.750000
O O8 0.896543 0.777650 0.097710
O O9 0.000000 0.304894 0.750000
O O10 0.750000 0.250000 0.000000
#
# Coordination Sequence:
#
# PCOD9277375 Si02
#       4
#     8   8   8   8
#     4  10  21  37  64  93 128 176 218 273 335 396
#     4  10  20  41  60  95 140 172 221 279 333 399
#     4  11  25  43  66  99 133 175 231 280 341 412
#     4  11  24  47  69  95 135 178 221 286 344 404
#
# _framework density 24.146463000000001
#
# number of rings (size 3 to 8) (size 9 to 14) (size 15 to 20)
#    0.000    1.500    2.500    3.750    3.500    1.000 
#    9.000    5.000    0.000    0.000    0.000    0.000 
#    0.000    0.000    0.000    0.000    0.000    0.000 
#
# Total GULP energy -89133.796702 kJ/mol
# GULP energy per Si atom -5570.862294 kJ/mol
# Density = 2.409150 g / cm^3
# Si number density = 24.146463 Si / 1000 Ang^3
#
#
#
# Elastic Constant Matrix: (Units=GPa)
#
#
# Indices 1 2 3 4 5 6 
#
# 1 104.2282 15.8833 30.0674 0.0000 -3.3796 0.0000
# 2 15.8833 67.9064 27.1786 0.0000 -21.7902 0.0000
# 3 30.0674 27.1786 181.3363 0.0000 -6.1492 0.0000
# 4 0.0000 0.0000 0.0000 51.5310 0.0000 -5.2001
# 5 -3.3796 -21.7902 -6.1492 0.0000 55.5239 0.0000
# 6 0.0000 0.0000 0.0000 -5.2001 0.0000 14.3269
#
#
#
# Elastic Compliance Matrix: (Units=1/GPa)
#
#
# Indices 1 2 3 4 5 6 
#
# 1 0.010291 -0.001928 -0.001427 0.000000 -0.000288 0.000000
# 2 -0.001928 0.018231 -0.002182 0.000000 0.006796 0.000000
# 3 -0.001427 -0.002182 0.006069 0.000000 -0.000271 0.000000
# 4 0.000000 0.000000 0.000000 0.020144 0.000000 0.007311
# 5 -0.000288 0.006796 -0.000271 0.000000 0.020630 0.000000
# 6 0.000000 0.000000 0.000000 0.007311 0.000000 0.072453
#
#
# Mechanical properties :
#
#
# Convention : Reuss Voigt Hill
#
# Bulk Modulus (GPa) = 42.52513 55.52550 49.02531
# Shear Modulus (GPa) = 29.98849 42.96580 36.47714
#
# Velocity S-wave (km/s) = 3.52794 4.22285 3.89094
# Velocity P-wave (km/s) = 5.85190 6.84265 6.36657
#
# Compressibility (1/GPa) = 0.02351551
#
# Stress axis : x y z
#
# Youngs Moduli (GPa) = 97.17697 54.85078 164.76856
#
# Poissons Ratio (x) = 0.10577 0.23513
# Poissons Ratio (y) = 0.18739 0.35958
# Poissons Ratio (z) = 0.13867 0.11970
#
# Static dielectric constant tensor:
#      x y z
#    x 1.923460 0.000000 0.048700 
#    y 0.000000 2.122200 0.000000 
#    z 0.048700 0.000000 1.955990 
# 
# From -- ./inp_files/2710.got.cif
#   From: 2010.05.17/outbox.cif.g08.bks.cpg/sg15_2_cif.got.tgz:2710.got - 2010.06.03 18:47:42.
