data_PCOD9277607
_publ_section_title
;
Structure prediction by ZEFSAII (Michael W. Deem and Ramdas Pophale) SiO2 
 PCOD9277607
Probable space group: C 2/C
;
_chemical_formula_sum "Si O2"
_cell_formula_units_Z 60
_cell_length_a 9.229158
_cell_length_b 10.965262
_cell_length_c 30.214416
_cell_angle_alpha 90.000000
_cell_angle_beta 109.061676
_cell_angle_gamma 90.000000
_cell_volume 2890.041709
_symmetry_space_group_name_H-M "C 2/C"
_symmetry_group_IT_number 15
_symmetry_cell_setting 'monoclinic'
loop_
_space_group_symop_operation_xyz
x,y,z
-x,y,1/2-z
-x,-y,-z
x,-y,1/2+z
1/2+x,1/2+y,z
1/2-x,1/2+y,1/2-z
1/2-x,1/2-y,-z
1/2+x,1/2-y,1/2+z
loop_
_atom_site_type_symbol
_atom_site_label
_atom_site_fract_x
_atom_site_fract_y
_atom_site_fract_z
Si Si1 0.000000 0.954630 0.250000
Si Si2 0.981117 0.985105 0.571669
Si Si3 0.073662 0.267335 0.468958
Si Si4 0.615693 0.983145 0.310777
Si Si5 0.301703 0.941861 0.081190
Si Si6 0.085966 0.880499 0.677279
Si Si7 0.311106 0.885329 0.496743
Si Si8 0.328511 0.863926 0.268641
O O1 0.155140 0.877698 0.266043
O O2 0.009618 0.039483 0.207998
O O3 0.996640 0.866393 0.541888
O O4 0.118443 0.075477 0.570530
O O5 0.013371 0.930163 0.623893
O O6 0.815203 0.045107 0.546505
O O7 0.250000 0.250000 0.500000
O O8 0.096915 0.327422 0.423359
O O9 0.972935 0.357361 0.488827
O O10 0.432856 0.984737 0.286999
O O11 0.666530 0.866182 0.284866
O O12 0.642636 0.979708 0.365465
O O13 0.733457 0.085778 0.307094
O O14 0.323173 0.038577 0.043478
O O15 0.089934 0.742185 0.695240
O O16 0.250000 0.750000 0.500000
#
# Coordination Sequence:
#
# PCOD9277607 Si02
#       8
#     4   8   8   8   8   8   8   8
#     4  10  22  38  62  94 122 158 212 256 316 398
#     4  11  24  43  64  95 134 174 219 278 327 389
#     4  12  24  40  65  92 128 177 220 276 327 390
#     4   9  21  39  65  92 126 167 209 263 322 387
#     4  11  22  42  65  94 132 172 223 271 327 392
#     4  10  22  40  65  93 128 166 211 262 324 388
#     4  12  24  43  68  92 134 184 221 274 333 387
#     4  10  20  41  66  90 130 165 205 265 329 382
#
# _framework density 20.760946000000001
#
# number of rings (size 3 to 8) (size 9 to 14) (size 15 to 20)
#    0.000    1.333    2.667    3.200    0.000    4.267 
#    0.000    0.000   11.733    0.000    0.000    0.000 
#    0.000    0.000    0.000    0.000    0.000    0.000 
#
# Total GULP energy -167081.219317 kJ/mol
# GULP energy per Si atom -5569.373977 kJ/mol
# Density = 2.071369 g / cm^3
# Si number density = 20.760946 Si / 1000 Ang^3
#
#
#
# Elastic Constant Matrix: (Units=GPa)
#
#
# Indices 1 2 3 4 5 6 
#
# 1 149.2214 25.6113 46.3272 0.0000 -1.9314 0.0000
# 2 25.6113 58.1335 23.7144 0.0000 8.2450 0.0000
# 3 46.3272 23.7144 130.1569 0.0000 1.9784 0.0000
# 4 0.0000 0.0000 0.0000 14.3615 0.0000 1.3653
# 5 -1.9314 8.2450 1.9784 0.0000 28.2484 0.0000
# 6 0.0000 0.0000 0.0000 1.3653 0.0000 34.1243
#
#
#
# Elastic Compliance Matrix: (Units=1/GPa)
#
#
# Indices 1 2 3 4 5 6 
#
# 1 0.007919 -0.002748 -0.002341 0.000000 0.001507 0.000000
# 2 -0.002748 0.020330 -0.002636 0.000000 -0.005937 0.000000
# 3 -0.002341 -0.002636 0.008997 0.000000 -0.000021 0.000000
# 4 0.000000 0.000000 0.000000 0.069897 0.000000 -0.002797
# 5 0.001507 -0.005937 -0.000021 0.000000 0.037238 0.000000
# 6 0.000000 0.000000 0.000000 -0.002797 0.000000 0.029416
#
#
# Mechanical properties :
#
#
# Convention : Reuss Voigt Hill
#
# Bulk Modulus (GPa) = 45.87861 58.75750 52.31805
# Shear Modulus (GPa) = 25.44384 31.47077 28.45731
#
# Velocity S-wave (km/s) = 3.50460 3.89763 3.70633
# Velocity P-wave (km/s) = 6.20667 6.97272 6.60082
#
# Compressibility (1/GPa) = 0.02179665
#
# Stress axis : x y z
#
# Youngs Moduli (GPa) = 126.27272 49.18941 111.15014
#
# Poissons Ratio (x) = 0.13516 0.26021
# Poissons Ratio (y) = 0.34697 0.29297
# Poissons Ratio (z) = 0.29561 0.12965
#
# Static dielectric constant tensor:
#      x y z
#    x 1.789280 0.000000 -0.008660 
#    y 0.000000 1.798040 0.000000 
#    z -0.008660 0.000000 1.833460 
# 
# From -- ./inp_files/307191.got.cif
#   From: 2010.05.17/outbox.cif.g08.bks.cpg/sg15_154_cif.got.tgz:307191.got - 2010.06.03 18:47:42.
