data_PCOD9277710
_publ_section_title
;
Structure prediction by ZEFSAII (Michael W. Deem and Ramdas Pophale) SiO2 
 PCOD9277710
Probable space group: C 2/C
;
_chemical_formula_sum "Si O2"
_cell_formula_units_Z 52
_cell_length_a 27.057707
_cell_length_b 14.369998
_cell_length_c 8.572367
_cell_angle_alpha 90.000000
_cell_angle_beta 46.021063
_cell_angle_gamma 90.000000
_cell_volume 2398.483103
_symmetry_space_group_name_H-M "C 2/C"
_symmetry_group_IT_number 15
_symmetry_cell_setting 'monoclinic'
loop_
_space_group_symop_operation_xyz
x,y,z
-x,y,1/2-z
-x,-y,-z
x,-y,1/2+z
1/2+x,1/2+y,z
1/2-x,1/2+y,1/2-z
1/2-x,1/2-y,-z
1/2+x,1/2-y,1/2+z
loop_
_atom_site_type_symbol
_atom_site_label
_atom_site_fract_x
_atom_site_fract_y
_atom_site_fract_z
Si Si1 0.406086 0.455890 0.204138
Si Si2 0.500000 0.561024 0.750000
Si Si3 0.923356 0.360077 0.906881
Si Si4 0.777253 0.277471 0.268698
Si Si5 0.317568 0.560578 0.625351
Si Si6 0.219760 0.596221 0.284939
Si Si7 0.128908 0.503228 0.230982
O O1 0.445463 0.395180 0.248340
O O2 0.373981 0.544315 0.366798
O O3 0.348647 0.408460 0.222208
O O4 0.456764 0.496821 0.962710
O O5 0.910188 0.414821 0.773736
O O6 0.000000 0.320220 0.750000
O O7 0.859097 0.291000 0.077688
O O8 0.915676 0.442582 0.052280
O O9 0.750000 0.250000 0.500000
O O10 0.743617 0.375560 0.298521
O O11 0.742619 0.202035 0.231342
O O12 0.286097 0.457649 0.705548
O O13 0.191243 0.552490 0.188301
O O14 0.160693 0.570278 0.538845
#
# Coordination Sequence:
#
# PCOD9277710 Si02
#       7
#     8   4   8   8   8   8   8
#     4   9  18  32  59  84 118 159 213 261 305 384
#     4   8  16  34  56  84 116 168 208 246 316 368
#     4  11  23  41  68  99 134 173 221 273 343 408
#     4  12  23  39  68  94 132 172 215 282 333 391
#     4  11  20  36  62  92 122 161 224 267 329 391
#     4  11  21  39  65  97 127 164 216 275 335 387
#     4  10  20  41  67  99 130 169 217 275 341 397
#
# _framework density 21.680368999999999
#
# number of rings (size 3 to 8) (size 9 to 14) (size 15 to 20)
#    0.000    1.538    4.615    2.308    0.000    0.615 
#    0.000    0.000   25.385    1.846    0.000    0.000 
#    0.000    0.000    0.000    0.000    0.000    0.000 
#
# Total GULP energy -145068.629086 kJ/mol
# GULP energy per Si atom -5579.562657 kJ/mol
# Density = 2.163102 g / cm^3
# Si number density = 21.680369 Si / 1000 Ang^3
#
#
#
# Elastic Constant Matrix: (Units=GPa)
#
#
# Indices 1 2 3 4 5 6 
#
# 1 145.3492 13.9110 49.5425 0.0000 -3.9139 0.0000
# 2 13.9110 51.3951 11.0948 0.0000 -8.2941 0.0000
# 3 49.5425 11.0948 87.1715 0.0000 -8.4118 0.0000
# 4 0.0000 0.0000 0.0000 15.6097 0.0000 -5.1284
# 5 -3.9139 -8.2941 -8.4118 0.0000 41.3081 0.0000
# 6 0.0000 0.0000 0.0000 -5.1284 0.0000 17.2217
#
#
#
# Elastic Compliance Matrix: (Units=1/GPa)
#
#
# Indices 1 2 3 4 5 6 
#
# 1 0.008625 -0.001375 -0.004769 0.000000 -0.000430 0.000000
# 2 -0.001375 0.020755 -0.001500 0.000000 0.003732 0.000000
# 3 -0.004769 -0.001500 0.014587 0.000000 0.002217 0.000000
# 4 0.000000 0.000000 0.000000 0.071010 0.000000 0.021146
# 5 -0.000430 0.003732 0.002217 0.000000 0.025368 0.000000
# 6 0.000000 0.000000 0.000000 0.021146 0.000000 0.064363
#
#
# Mechanical properties :
#
#
# Convention : Reuss Voigt Hill
#
# Bulk Modulus (GPa) = 34.86712 48.11248 41.48980
# Shear Modulus (GPa) = 21.78116 28.78572 25.28344
#
# Velocity S-wave (km/s) = 3.17306 3.64776 3.41866
# Velocity P-wave (km/s) = 5.43522 6.32309 5.89589
#
# Compressibility (1/GPa) = 0.02868032
#
# Stress axis : x y z
#
# Youngs Moduli (GPa) = 115.93730 48.18056 68.55550
#
# Poissons Ratio (x) = 0.06623 0.32691
# Poissons Ratio (y) = 0.15936 0.10286
# Poissons Ratio (z) = 0.55286 0.07229
#
# Static dielectric constant tensor:
#      x y z
#    x 1.865010 0.000000 -0.028690 
#    y 0.000000 1.762550 0.000000 
#    z -0.028690 0.000000 1.870160 
# 
# From -- ./inp_files/66136.got.cif
#   From: 2010.05.17/outbox.cif.g08.bks.cpg/sg15_34_cif.got.tgz:66136.got - 2010.06.03 18:47:42.
