data_PCOD9277736
_publ_section_title
;
Structure prediction by ZEFSAII (Michael W. Deem and Ramdas Pophale) SiO2 
 PCOD9277736
Probable space group: C 2/C
;
_chemical_formula_sum "Si O2"
_cell_formula_units_Z 60
_cell_length_a 15.711529
_cell_length_b 22.102238
_cell_length_c 8.575710
_cell_angle_alpha 90.000000
_cell_angle_beta 113.295093
_cell_angle_gamma 90.000000
_cell_volume 2735.234797
_symmetry_space_group_name_H-M "C 2/C"
_symmetry_group_IT_number 15
_symmetry_cell_setting 'monoclinic'
loop_
_space_group_symop_operation_xyz
x,y,z
-x,y,1/2-z
-x,-y,-z
x,-y,1/2+z
1/2+x,1/2+y,z
1/2-x,1/2+y,1/2-z
1/2-x,1/2-y,-z
1/2+x,1/2-y,1/2+z
loop_
_atom_site_type_symbol
_atom_site_label
_atom_site_fract_x
_atom_site_fract_y
_atom_site_fract_z
Si Si1 0.093573 0.421648 0.090163
Si Si2 0.000000 0.517016 0.250000
Si Si3 0.782538 0.121778 0.879829
Si Si4 0.316861 0.743196 0.768319
Si Si5 0.433698 0.462823 0.335107
Si Si6 0.395126 0.592972 0.247160
Si Si7 0.498727 0.799068 0.558594
Si Si8 0.638062 0.309106 0.526407
O O1 0.194544 0.408824 0.233338
O O2 0.050562 0.473435 0.165663
O O3 0.076875 0.444300 0.900174
O O4 0.036671 0.359091 0.049741
O O5 0.771913 0.192613 0.841284
O O6 0.870600 0.087606 0.865255
O O7 0.811476 0.117377 0.080784
O O8 0.398196 0.779581 0.908679
O O9 0.360530 0.701813 0.659107
O O10 0.241951 0.789481 0.647802
O O11 0.500000 0.437402 0.250000
O O12 0.500000 0.500000 0.500000
O O13 0.376864 0.520747 0.232500
O O14 0.500000 0.602338 0.250000
O O15 0.388615 0.628386 0.407604
O O16 0.500000 0.807525 0.750000
O O17 0.432076 0.743170 0.469370
#
# Coordination Sequence:
#
# PCOD9277736 Si02
#       8
#     8   4   8   8   8   8   8   8
#     4  11  24  47  68  98 131 172 229 279 330 402
#     4  10  26  46  70  92 132 180 220 280 346 382
#     4  12  25  42  67 101 135 173 228 277 335 410
#     4  10  23  40  68  98 126 177 221 273 341 396
#     4  11  24  43  64  96 135 178 218 272 340 407
#     4  11  24  43  63  97 140 177 219 277 340 402
#     4  10  20  41  68  92 133 174 216 278 331 398
#     4  10  22  42  63  96 130 172 229 270 329 402
#
# _framework density 21.935957999999999
#
# number of rings (size 3 to 8) (size 9 to 14) (size 15 to 20)
#    0.000    1.333    4.667    0.800    3.733    2.133 
#    6.000    0.000    0.000    0.000    0.000    0.000 
#    0.000    0.000    0.000    0.000    0.000    0.000 
#
# Total GULP energy -167378.437246 kJ/mol
# GULP energy per Si atom -5579.281242 kJ/mol
# Density = 2.188603 g / cm^3
# Si number density = 21.935958 Si / 1000 Ang^3
#
#
#
# Elastic Constant Matrix: (Units=GPa)
#
#
# Indices 1 2 3 4 5 6 
#
# 1 51.4389 10.2242 24.3640 0.0000 23.1260 0.0000
# 2 10.2242 68.4959 17.2981 0.0000 6.7317 0.0000
# 3 24.3640 17.2981 101.9990 0.0000 24.2389 0.0000
# 4 0.0000 0.0000 0.0000 17.7660 0.0000 -5.7465
# 5 23.1260 6.7317 24.2389 0.0000 33.0497 0.0000
# 6 0.0000 0.0000 0.0000 -5.7465 0.0000 30.4059
#
#
#
# Elastic Compliance Matrix: (Units=1/GPa)
#
#
# Indices 1 2 3 4 5 6 
#
# 1 0.029149 -0.001976 -0.002272 0.000000 -0.018328 0.000000
# 2 -0.001976 0.015445 -0.002093 0.000000 -0.000228 0.000000
# 3 -0.002272 -0.002093 0.012380 0.000000 -0.007064 0.000000
# 4 0.000000 0.000000 0.000000 0.059952 0.000000 0.011331
# 5 -0.018328 -0.000228 -0.007064 0.000000 0.048309 0.000000
# 6 0.000000 0.000000 0.000000 0.011331 0.000000 0.035030
#
#
# Mechanical properties :
#
#
# Convention : Reuss Voigt Hill
#
# Bulk Modulus (GPa) = 22.57724 36.18959 29.38342
# Shear Modulus (GPa) = 21.95742 27.58080 24.76911
#
# Velocity S-wave (km/s) = 3.16726 3.54974 3.36394
# Velocity P-wave (km/s) = 4.86724 5.77360 5.33969
#
# Compressibility (1/GPa) = 0.04429240
#
# Stress axis : x y z
#
# Youngs Moduli (GPa) = 34.30595 64.74420 80.77321
#
# Poissons Ratio (x) = 0.12793 0.18354
# Poissons Ratio (y) = 0.06779 0.16907
# Poissons Ratio (z) = 0.07795 0.13552
#
# Static dielectric constant tensor:
#      x y z
#    x 1.811110 0.000000 -0.026060 
#    y 0.000000 1.845660 0.000000 
#    z -0.026060 0.000000 1.881620 
# 
# From -- ./inp_files/50691.got.cif
#   From: 2010.05.17/outbox.cif.g08.bks.cpg/sg15_26_cif.got.tgz:50691.got - 2010.06.03 18:47:42.
