data_PCOD9277894
_publ_section_title
;
Structure prediction by ZEFSAII (Michael W. Deem and Ramdas Pophale) SiO2 
 PCOD9277894
Probable space group: C 2/C
;
_chemical_formula_sum "Si O2"
_cell_formula_units_Z 40
_cell_length_a 11.203310
_cell_length_b 7.573827
_cell_length_c 23.830261
_cell_angle_alpha 90.000000
_cell_angle_beta 100.435838
_cell_angle_gamma 90.000000
_cell_volume 1988.595772
_symmetry_space_group_name_H-M "C 2/C"
_symmetry_group_IT_number 15
_symmetry_cell_setting 'monoclinic'
loop_
_space_group_symop_operation_xyz
x,y,z
-x,y,1/2-z
-x,-y,-z
x,-y,1/2+z
1/2+x,1/2+y,z
1/2-x,1/2+y,1/2-z
1/2-x,1/2-y,-z
1/2+x,1/2-y,1/2+z
loop_
_atom_site_type_symbol
_atom_site_label
_atom_site_fract_x
_atom_site_fract_y
_atom_site_fract_z
Si Si1 0.986505 0.375664 0.085603
Si Si2 0.442043 0.473971 0.114998
Si Si3 0.386049 0.435855 0.778861
Si Si4 0.612372 0.201851 0.477421
Si Si5 0.783806 0.600340 0.829163
O O1 0.086170 0.460958 0.136039
O O2 0.941115 0.186199 0.104728
O O3 0.891719 0.527143 0.061893
O O4 0.051760 0.334130 0.032170
O O5 0.545400 0.438304 0.170742
O O6 0.457178 0.359938 0.060451
O O7 0.313717 0.413714 0.129663
O O8 0.500000 0.367552 0.750000
O O9 0.284857 0.510167 0.728556
O O10 0.317620 0.293914 0.810706
O O11 0.750000 0.250000 0.500000
#
# Coordination Sequence:
#
# PCOD9277894 Si02
#       5
#     8   8   8   8   8
#     4  10  23  41  62  93 127 159 206 254 299 370
#     4  10  21  42  62  90 127 158 205 256 306 364
#     4   9  21  39  60  87 121 157 205 261 305 367
#     4  11  22  41  64  93 125 166 205 245 310 366
#     4  10  20  42  61  89 121 161 207 252 313 363
#
# _framework density 20.114694
#
# number of rings (size 3 to 8) (size 9 to 14) (size 15 to 20)
#    0.000    2.000    2.000    0.600    2.800    0.800 
#   14.400    0.000    0.000    0.000    0.000    0.000 
#    0.000    0.000    0.000    0.000    0.000    0.000 
#
# Total GULP energy -111458.301726 kJ/mol
# GULP energy per Si atom -5572.915086 kJ/mol
# Density = 2.006891 g / cm^3
# Si number density = 20.114694 Si / 1000 Ang^3
#
#
#
# Elastic Constant Matrix: (Units=GPa)
#
#
# Indices 1 2 3 4 5 6 
#
# 1 77.4413 43.4723 39.3735 0.0000 17.4202 0.0000
# 2 43.4723 76.4943 37.2584 0.0000 15.3018 0.0000
# 3 39.3735 37.2584 106.0207 0.0000 35.7541 0.0000
# 4 0.0000 0.0000 0.0000 43.9163 0.0000 -0.1529
# 5 17.4202 15.3018 35.7541 0.0000 23.1483 0.0000
# 6 0.0000 0.0000 0.0000 -0.1529 0.0000 26.7201
#
#
#
# Elastic Compliance Matrix: (Units=1/GPa)
#
#
# Indices 1 2 3 4 5 6 
#
# 1 0.020739 -0.009460 -0.002553 0.000000 -0.005411 0.000000
# 2 -0.009460 0.020258 -0.003111 0.000000 -0.001466 0.000000
# 3 -0.002553 -0.003111 0.021148 0.000000 -0.028686 0.000000
# 4 0.000000 0.000000 0.000000 0.022771 0.000000 0.000130
# 5 -0.005411 -0.001466 -0.028686 0.000000 0.092548 0.000000
# 6 0.000000 0.000000 0.000000 0.000130 0.000000 0.037426
#
#
# Mechanical properties :
#
#
# Convention : Reuss Voigt Hill
#
# Bulk Modulus (GPa) = 31.35238 55.57387 43.46312
# Shear Modulus (GPa) = 19.54887 28.08042 23.81465
#
# Velocity S-wave (km/s) = 3.12087 3.74038 3.44458
# Velocity P-wave (km/s) = 5.34856 6.80753 6.12166
#
# Compressibility (1/GPa) = 0.03189551
#
# Stress axis : x y z
#
# Youngs Moduli (GPa) = 48.21947 49.36324 47.28684
#
# Poissons Ratio (x) = 0.46699 0.12070
# Poissons Ratio (y) = 0.45617 0.14713
# Poissons Ratio (z) = 0.12308 0.15359
#
# Static dielectric constant tensor:
#      x y z
#    x 1.704960 0.000000 0.021140 
#    y 0.000000 1.728030 0.000000 
#    z 0.021140 0.000000 1.765220 
# 
# From -- ./inp_files/262433.got.cif
#   From: 2010.05.17/outbox.cif.g08.bks.cpg/sg15_132_cif.got.tgz:262433.got - 2010.06.03 18:47:42.
