data_PCOD9277510
_publ_section_title
;
Structure prediction by ZEFSAII (Michael W. Deem and Ramdas Pophale) SiO2 
 PCOD9277510
Probable space group: C 2/C
;
_chemical_formula_sum "Si O2"
_cell_formula_units_Z 56
_cell_length_a 24.658176
_cell_length_b 12.547381
_cell_length_c 9.437527
_cell_angle_alpha 90.000000
_cell_angle_beta 119.438950
_cell_angle_gamma 90.000000
_cell_volume 2542.907151
_symmetry_space_group_name_H-M "C 2/C"
_symmetry_group_IT_number 15
_symmetry_cell_setting 'monoclinic'
loop_
_space_group_symop_operation_xyz
x,y,z
-x,y,1/2-z
-x,-y,-z
x,-y,1/2+z
1/2+x,1/2+y,z
1/2-x,1/2+y,1/2-z
1/2-x,1/2-y,-z
1/2+x,1/2-y,1/2+z
loop_
_atom_site_type_symbol
_atom_site_label
_atom_site_fract_x
_atom_site_fract_y
_atom_site_fract_z
Si Si1 0.250000 0.750000 0.000000
Si Si2 0.369934 0.314859 0.852815
Si Si3 0.018881 0.330238 0.111806
Si Si4 0.555956 0.934222 0.709526
Si Si5 0.822897 0.334797 0.532127
Si Si6 0.500000 0.512408 0.250000
Si Si7 0.703312 0.301672 0.243860
Si Si8 0.584172 0.556803 0.606849
O O1 0.311582 0.711382 0.177140
O O2 0.210197 0.768428 0.092531
O O3 0.432474 0.255579 0.880938
O O4 0.386754 0.438964 0.876536
O O5 0.351319 0.264585 0.980789
O O6 0.052903 0.446007 0.146829
O O7 0.000000 0.314427 0.250000
O O8 0.959174 0.348981 0.933485
O O9 0.500000 0.923232 0.750000
O O10 0.621203 0.915111 0.869230
O O11 0.763544 0.372465 0.365520
O O12 0.797127 0.298269 0.650810
O O13 0.543186 0.577963 0.413673
O O14 0.458069 0.445168 0.306182
O O15 0.640282 0.363217 0.189649
#
# Coordination Sequence:
#
# PCOD9277510 Si02
#       8
#     4   8   8   8   8   4   8   8
#     4  10  24  42  62  92 128 164 222 276 330 380
#     4  11  23  40  63  95 133 175 219 271 333 399
#     4  10  23  37  61  95 130 163 214 275 335 384
#     4  10  20  41  64  92 127 167 217 281 327 394
#     4  10  22  42  68  92 124 176 226 261 334 401
#     4  10  24  40  62  96 130 178 226 264 328 396
#     4  10  23  44  66  94 129 171 221 272 323 404
#     4  11  23  42  65  95 137 176 221 275 330 401
#
# _framework density 22.022040000000001
#
# number of rings (size 3 to 8) (size 9 to 14) (size 15 to 20)
#    0.000    1.714    1.429    1.714    3.000    4.571 
#    1.286    7.143    0.000    0.000    0.000    0.000 
#    0.000    0.000    0.000    0.000    0.000    0.000 
#
# Total GULP energy -156096.439849 kJ/mol
# GULP energy per Si atom -5574.872852 kJ/mol
# Density = 2.197192 g / cm^3
# Si number density = 22.022040 Si / 1000 Ang^3
#
#
#
# Elastic Constant Matrix: (Units=GPa)
#
#
# Indices 1 2 3 4 5 6 
#
# 1 82.4066 5.9635 30.5824 0.0000 2.3075 0.0000
# 2 5.9635 35.8713 2.8058 0.0000 -1.1985 0.0000
# 3 30.5824 2.8058 91.5760 0.0000 -27.6154 0.0000
# 4 0.0000 0.0000 0.0000 -30.3078 0.0000 -3.9852
# 5 2.3075 -1.1985 -27.6154 0.0000 38.6244 0.0000
# 6 0.0000 0.0000 0.0000 -3.9852 0.0000 10.5125
#
#
#
# Elastic Compliance Matrix: (Units=1/GPa)
#
#
# Indices 1 2 3 4 5 6 
#
# 1 0.014912 -0.002151 -0.006633 0.000000 -0.005700 0.000000
# 2 -0.002151 0.028258 0.000198 0.000000 0.001147 0.000000
# 3 -0.006633 0.000198 0.016892 0.000000 0.012480 0.000000
# 4 0.000000 0.000000 0.000000 -0.031428 0.000000 -0.011914
# 5 -0.005700 0.001147 0.012480 0.000000 0.035189 0.000000
# 6 0.000000 0.000000 0.000000 -0.011914 0.000000 0.090609
#
#
# Mechanical properties :
#
#
# Convention : Reuss Voigt Hill
#
# Bulk Modulus (GPa) = 23.31461 32.06193 27.68827
# Shear Modulus (GPa) = 26.89633 15.13263 21.01448
#
# Velocity S-wave (km/s) = 3.49855 2.62421 3.09244
# Velocity P-wave (km/s) = 5.18939 4.87572 5.03500
#
# Compressibility (1/GPa) = 0.04289157
#
# Stress axis : x y z
#
# Youngs Moduli (GPa) = 67.06132 35.38850 59.19861
#
# Poissons Ratio (x) = 0.07611 0.39265
# Poissons Ratio (y) = 0.14422 -0.01174
# Poissons Ratio (z) = 0.44480 -0.00702
#
# Static dielectric constant tensor:
#      x y z
#    x 1.792920 0.000000 0.036130 
#    y 0.000000 1.815270 0.000000 
#    z 0.036130 0.000000 1.837570 
# 
# From -- ./inp_files/62016.got.cif
#   From: 2010.05.17/outbox.cif.g08.bks.cpg/sg15_32_cif.got.tgz:62016.got - 2010.06.03 18:47:42.
