data_PCOD9277301
_publ_section_title
;
Structure prediction by ZEFSAII (Michael W. Deem and Ramdas Pophale) SiO2 
 PCOD9277301
Probable space group: C 2/C
;
_chemical_formula_sum "Si O2"
_cell_formula_units_Z 36
_cell_length_a 14.775663
_cell_length_b 9.870326
_cell_length_c 15.375123
_cell_angle_alpha 90.000000
_cell_angle_beta 139.302066
_cell_angle_gamma 90.000000
_cell_volume 1462.150251
_symmetry_space_group_name_H-M "C 2/C"
_symmetry_group_IT_number 15
_symmetry_cell_setting 'monoclinic'
loop_
_space_group_symop_operation_xyz
x,y,z
-x,y,1/2-z
-x,-y,-z
x,-y,1/2+z
1/2+x,1/2+y,z
1/2-x,1/2+y,1/2-z
1/2-x,1/2-y,-z
1/2+x,1/2-y,1/2+z
loop_
_atom_site_type_symbol
_atom_site_label
_atom_site_fract_x
_atom_site_fract_y
_atom_site_fract_z
Si Si1 0.000000 0.441722 0.250000
Si Si2 0.167359 0.944153 0.052814
Si Si3 0.129774 0.847802 0.384459
Si Si4 0.239395 0.467698 0.187636
Si Si5 0.529448 0.162357 0.961162
O O1 0.172046 0.429701 0.359969
O O2 0.023434 0.433997 0.372600
O O3 0.175029 0.969423 0.161422
O O4 0.079321 0.809557 0.970036
O O5 0.102276 0.063696 0.948895
O O6 0.250000 0.750000 0.500000
O O7 0.174827 0.943782 0.337524
O O8 0.000000 0.765023 0.250000
O O9 0.146320 0.602283 0.109953
O O10 0.123272 0.348064 0.109039
#
# Coordination Sequence:
#
# PCOD9277301 Si02
#       5
#     4   8   8   8   8
#     4  10  20  40  72 108 146 188 246 324 370 436
#     4  11  25  44  78 105 148 199 255 309 379 461
#     4  12  31  49  75 108 155 201 254 313 386 460
#     4  10  25  45  72 111 150 196 245 320 383 443
#     4  10  22  43  74 107 150 190 249 313 383 446
#
# _framework density 24.621274
#
# number of rings (size 3 to 8) (size 9 to 14) (size 15 to 20)
#    0.000    1.333    2.222    0.667    9.333    2.667 
#    0.000    0.000    0.000    0.000    0.000    0.000 
#    0.000    0.000    0.000    0.000    0.000    0.000 
#
# Total GULP energy -100320.183709 kJ/mol
# GULP energy per Si atom -5573.343539 kJ/mol
# Density = 2.456523 g / cm^3
# Si number density = 24.621274 Si / 1000 Ang^3
#
#
#
# Elastic Constant Matrix: (Units=GPa)
#
#
# Indices 1 2 3 4 5 6 
#
# 1 84.4914 -0.7307 13.8728 0.0000 -9.4207 0.0000
# 2 -0.7307 44.1641 29.3587 0.0000 5.3115 0.0000
# 3 13.8728 29.3587 194.2528 0.0000 -12.0421 0.0000
# 4 0.0000 0.0000 0.0000 18.5292 0.0000 -3.8360
# 5 -9.4207 5.3115 -12.0421 0.0000 51.5881 0.0000
# 6 0.0000 0.0000 0.0000 -3.8360 0.0000 28.8805
#
#
#
# Elastic Compliance Matrix: (Units=1/GPa)
#
#
# Indices 1 2 3 4 5 6 
#
# 1 0.012196 0.000512 -0.000826 0.000000 0.001982 0.000000
# 2 0.000512 0.025844 -0.004162 0.000000 -0.003539 0.000000
# 3 -0.000826 -0.004162 0.005939 0.000000 0.001664 0.000000
# 4 0.000000 0.000000 0.000000 0.055495 0.000000 0.007371
# 5 0.001982 -0.003539 0.001664 0.000000 0.020499 0.000000
# 6 0.000000 0.000000 0.000000 0.007371 0.000000 0.035604
#
#
# Mechanical properties :
#
#
# Convention : Reuss Voigt Hill
#
# Bulk Modulus (GPa) = 28.54801 45.32331 36.93566
# Shear Modulus (GPa) = 28.37619 38.49339 33.43479
#
# Velocity S-wave (km/s) = 3.39854 3.95830 3.68905
# Velocity P-wave (km/s) = 5.19809 6.27208 5.76017
#
# Compressibility (1/GPa) = 0.03502871
#
# Stress axis : x y z
#
# Youngs Moduli (GPa) = 81.99092 38.69439 168.37683
#
# Poissons Ratio (x) = -0.01982 0.13901
# Poissons Ratio (y) = -0.04200 0.70076
# Poissons Ratio (z) = 0.06769 0.16104
#
# Static dielectric constant tensor:
#      x y z
#    x 1.868830 0.000000 0.032080 
#    y 0.000000 2.008870 0.000000 
#    z 0.032080 0.000000 1.940610 
# 
# From -- ./inp_files/152810.got.cif
#   From: 2010.05.17/outbox.cif.g08.bks.cpg/sg15_77_cif.got.tgz:152810.got - 2010.06.03 18:47:42.
