data_PCOD9277051
_publ_section_title
;
Structure prediction by ZEFSAII (Michael W. Deem and Ramdas Pophale) SiO2 
 PCOD9277051
Probable space group: C 2/C
;
_chemical_formula_sum "Si O2"
_cell_formula_units_Z 44
_cell_length_a 26.994881
_cell_length_b 14.677020
_cell_length_c 5.106119
_cell_angle_alpha 90.000000
_cell_angle_beta 119.197582
_cell_angle_gamma 90.000000
_cell_volume 1766.021374
_symmetry_space_group_name_H-M "C 2/C"
_symmetry_group_IT_number 15
_symmetry_cell_setting 'monoclinic'
loop_
_space_group_symop_operation_xyz
x,y,z
-x,y,1/2-z
-x,-y,-z
x,-y,1/2+z
1/2+x,1/2+y,z
1/2-x,1/2+y,1/2-z
1/2-x,1/2-y,-z
1/2+x,1/2-y,1/2+z
loop_
_atom_site_type_symbol
_atom_site_label
_atom_site_fract_x
_atom_site_fract_y
_atom_site_fract_z
Si Si1 0.604654 0.714156 0.600445
Si Si2 0.189873 0.141972 0.219046
Si Si3 0.924371 0.443053 0.400235
Si Si4 0.683191 0.835483 0.503785
Si Si5 0.597703 0.553870 0.240246
Si Si6 0.500000 0.809505 0.250000
O O1 0.648826 0.795915 0.662538
O O2 0.585564 0.657753 0.292418
O O3 0.545581 0.753838 0.540661
O O4 0.641677 0.646501 0.871741
O O5 0.253672 0.128496 0.286755
O O6 0.188468 0.243322 0.343576
O O7 0.165999 0.067240 0.361318
O O8 0.934872 0.473493 0.724365
O O9 0.961702 0.365527 0.357489
O O10 0.859200 0.409630 0.223020
O O11 0.576356 0.492892 0.423709
#
# Coordination Sequence:
#
# PCOD9277051 Si02
#       6
#     8   8   8   8   8   4
#     4  10  21  42  68  94 129 176 227 273 333 389
#     4  10  20  40  67  95 131 180 219 274 335 394
#     4  11  25  46  66 101 139 175 221 278 339 394
#     4   9  22  38  64  98 132 173 226 274 324 412
#     4  11  22  41  63  94 131 162 212 271 332 398
#     4  10  24  46  70  98 128 182 230 278 322 404
#
# _framework density 24.914759
#
# number of rings (size 3 to 8) (size 9 to 14) (size 15 to 20)
#    0.000    1.818    1.818    1.091    5.091    1.455 
#    6.545    0.909    0.000    0.000    0.000    0.000 
#    0.000    0.000    0.000    0.000    0.000    0.000 
#
# Total GULP energy -122780.581356 kJ/mol
# GULP energy per Si atom -5580.935516 kJ/mol
# Density = 2.485805 g / cm^3
# Si number density = 24.914759 Si / 1000 Ang^3
#
#
#
# Elastic Constant Matrix: (Units=GPa)
#
#
# Indices 1 2 3 4 5 6 
#
# 1 129.2598 28.2603 48.7381 0.0000 30.8270 0.0000
# 2 28.2603 47.3418 17.9927 0.0000 4.2953 0.0000
# 3 48.7381 17.9927 91.3016 0.0000 1.5568 0.0000
# 4 0.0000 0.0000 0.0000 34.5051 0.0000 -0.7826
# 5 30.8270 4.2953 1.5568 0.0000 43.7167 0.0000
# 6 0.0000 0.0000 0.0000 -0.7826 0.0000 22.7883
#
#
#
# Elastic Compliance Matrix: (Units=1/GPa)
#
#
# Indices 1 2 3 4 5 6 
#
# 1 0.013018 -0.004771 -0.005864 0.000000 -0.008502 0.000000
# 2 -0.004771 0.024773 -0.002352 0.000000 0.001014 0.000000
# 3 -0.005864 -0.002352 0.014481 0.000000 0.003851 0.000000
# 4 0.000000 0.000000 0.000000 0.029004 0.000000 0.000996
# 5 -0.008502 0.001014 0.003851 0.000000 0.028633 0.000000
# 6 0.000000 0.000000 0.000000 0.000996 0.000000 0.043916
#
#
# Mechanical properties :
#
#
# Convention : Reuss Voigt Hill
#
# Bulk Modulus (GPa) = 38.02699 50.87616 44.45158
# Shear Modulus (GPa) = 26.51582 31.72949 29.12265
#
# Velocity S-wave (km/s) = 3.26584 3.57252 3.42261
# Velocity P-wave (km/s) = 5.43295 6.12222 5.78785
#
# Compressibility (1/GPa) = 0.02629711
#
# Stress axis : x y z
#
# Youngs Moduli (GPa) = 76.81520 40.36641 69.05588
#
# Poissons Ratio (x) = 0.19259 0.40495
# Poissons Ratio (y) = 0.36649 0.16245
# Poissons Ratio (z) = 0.45046 0.09496
#
# Static dielectric constant tensor:
#      x y z
#    x 1.970940 0.000000 -0.045340 
#    y 0.000000 2.000070 0.000000 
#    z -0.045340 0.000000 2.060300 
# 
# From -- ./inp_files/15402.got.cif
#   From: 2010.05.17/outbox.cif.g08.bks.cpg/sg15_8_cif.got.tgz:15402.got - 2010.06.03 18:47:42.
