data_PCOD9277372
_publ_section_title
;
Structure prediction by ZEFSAII (Michael W. Deem and Ramdas Pophale) SiO2 
 PCOD9277372
Probable space group: C 2/C
;
_chemical_formula_sum "Si O2"
_cell_formula_units_Z 56
_cell_length_a 14.991164
_cell_length_b 16.181117
_cell_length_c 12.270692
_cell_angle_alpha 90.000000
_cell_angle_beta 54.581076
_cell_angle_gamma 90.000000
_cell_volume 2425.697481
_symmetry_space_group_name_H-M "C 2/C"
_symmetry_group_IT_number 15
_symmetry_cell_setting 'monoclinic'
loop_
_space_group_symop_operation_xyz
x,y,z
-x,y,1/2-z
-x,-y,-z
x,-y,1/2+z
1/2+x,1/2+y,z
1/2-x,1/2+y,1/2-z
1/2-x,1/2-y,-z
1/2+x,1/2-y,1/2+z
loop_
_atom_site_type_symbol
_atom_site_label
_atom_site_fract_x
_atom_site_fract_y
_atom_site_fract_z
Si Si1 0.813153 0.179217 0.885671
Si Si2 0.091745 0.300623 0.829248
Si Si3 0.391723 0.046650 0.785335
Si Si4 0.896205 0.668842 0.597452
Si Si5 0.091030 0.152896 0.283092
Si Si6 0.694138 0.825836 0.981707
Si Si7 0.293817 0.418388 0.606965
O O1 0.906215 0.221194 0.747652
O O2 0.726374 0.154232 0.855425
O O3 0.750000 0.250000 0.000000
O O4 0.835765 0.109904 0.958675
O O5 0.123155 0.289146 0.933876
O O6 0.190379 0.358541 0.716253
O O7 0.968880 0.330658 0.935941
O O8 0.500000 0.997656 0.750000
O O9 0.424722 0.090599 0.650203
O O10 0.275491 0.002022 0.853297
O O11 0.370674 0.118473 0.888532
O O12 0.901960 0.754568 0.665115
O O13 0.203305 0.127826 0.142912
O O14 0.105735 0.093802 0.379321
O O15 0.000000 0.151524 0.250000
O O16 0.750000 0.750000 0.000000
#
# Coordination Sequence:
#
# PCOD9277372 Si02
#       7
#     8   8   8   8   8   8   8
#     4  10  20  41  60  92 147 181 227 278 341 418
#     4  10  21  37  63  98 134 175 229 281 339 399
#     4  12  25  40  67 108 145 180 221 283 368 428
#     4  12  21  37  71 105 134 171 236 288 345 412
#     4  11  22  42  70  97 130 180 241 293 328 402
#     4  11  19  39  64  98 135 172 226 284 340 404
#     4  10  25  43  59 100 150 182 221 281 359 426
#
# _framework density 23.086144000000001
#
# number of rings (size 3 to 8) (size 9 to 14) (size 15 to 20)
#    0.000    1.143    7.143    1.286    2.000    4.571 
#    0.000    0.714    0.000    1.714    0.000    0.000 
#    0.000    0.000    0.000    0.000    0.000    0.000 
#
# Total GULP energy -156015.365842 kJ/mol
# GULP energy per Si atom -5571.977351 kJ/mol
# Density = 2.303360 g / cm^3
# Si number density = 23.086144 Si / 1000 Ang^3
#
#
#
# Elastic Constant Matrix: (Units=GPa)
#
#
# Indices 1 2 3 4 5 6 
#
# 1 145.4561 24.6786 10.5177 0.0000 33.2301 0.0000
# 2 24.6786 45.7810 23.2784 0.0000 21.2239 0.0000
# 3 10.5177 23.2784 115.0943 0.0000 3.7950 0.0000
# 4 0.0000 0.0000 0.0000 18.1782 0.0000 2.5349
# 5 33.2301 21.2239 3.7950 0.0000 25.7829 0.0000
# 6 0.0000 0.0000 0.0000 2.5349 0.0000 14.6701
#
#
#
# Elastic Compliance Matrix: (Units=1/GPa)
#
#
# Indices 1 2 3 4 5 6 
#
# 1 0.009822 0.001454 -0.000738 0.000000 -0.013748 0.000000
# 2 0.001454 0.040597 -0.007215 0.000000 -0.034231 0.000000
# 3 -0.000738 -0.007215 0.010037 0.000000 0.005414 0.000000
# 4 0.000000 0.000000 0.000000 0.056369 0.000000 -0.009740
# 5 -0.013748 -0.034231 0.005414 0.000000 0.083885 0.000000
# 6 0.000000 0.000000 0.000000 -0.009740 0.000000 0.069849
#
#
# Mechanical properties :
#
#
# Convention : Reuss Voigt Hill
#
# Bulk Modulus (GPa) = 21.07155 47.03120 34.05138
# Shear Modulus (GPa) = 16.70129 28.25001 22.47565
#
# Velocity S-wave (km/s) = 2.69259 3.50191 3.12357
# Velocity P-wave (km/s) = 4.33750 6.06361 5.27168
#
# Compressibility (1/GPa) = 0.04745735
#
# Stress axis : x y z
#
# Youngs Moduli (GPa) = 101.80878 24.63219 99.63334
#
# Poissons Ratio (x) = -0.03582 0.07357
# Poissons Ratio (y) = -0.14803 0.71887
# Poissons Ratio (z) = 0.07517 0.17773
#
# Static dielectric constant tensor:
#      x y z
#    x 2.015430 0.000000 -0.003190 
#    y 0.000000 1.970350 0.000000 
#    z -0.003190 0.000000 1.891690 
# 
# From -- ./inp_files/98667.got.cif
#   From: 2010.05.17/outbox.cif.g08.bks.cpg/sg15_50_cif.got.tgz:98667.got - 2010.06.03 18:47:42.
