data_PCOD9277500
_publ_section_title
;
Structure prediction by ZEFSAII (Michael W. Deem and Ramdas Pophale) SiO2 
 PCOD9277500
Probable space group: C 2/C
;
_chemical_formula_sum "Si O2"
_cell_formula_units_Z 56
_cell_length_a 23.217023
_cell_length_b 12.273974
_cell_length_c 10.853008
_cell_angle_alpha 90.000000
_cell_angle_beta 56.241904
_cell_angle_gamma 90.000000
_cell_volume 2571.267292
_symmetry_space_group_name_H-M "C 2/C"
_symmetry_group_IT_number 15
_symmetry_cell_setting 'monoclinic'
loop_
_space_group_symop_operation_xyz
x,y,z
-x,y,1/2-z
-x,-y,-z
x,-y,1/2+z
1/2+x,1/2+y,z
1/2-x,1/2+y,1/2-z
1/2-x,1/2-y,-z
1/2+x,1/2-y,1/2+z
loop_
_atom_site_type_symbol
_atom_site_label
_atom_site_fract_x
_atom_site_fract_y
_atom_site_fract_z
Si Si1 0.724278 0.889578 0.961086
Si Si2 0.306456 0.771839 0.217316
Si Si3 0.578883 0.239081 0.647784
Si Si4 0.690570 0.239607 0.170543
Si Si5 0.201021 0.500673 0.232544
Si Si6 0.417985 0.624694 0.099463
Si Si7 0.923988 0.127691 0.605659
O O1 0.643913 0.845779 0.062895
O O2 0.742996 0.954697 0.063639
O O3 0.779061 0.794408 0.868046
O O4 0.730244 0.964157 0.830906
O O5 0.233742 0.785195 0.235569
O O6 0.340957 0.889666 0.190170
O O7 0.360624 0.690555 0.091347
O O8 0.500000 0.190260 0.750000
O O9 0.581810 0.315701 0.766437
O O10 0.583172 0.312240 0.518641
O O11 0.622850 0.310238 0.240785
O O12 0.670577 0.113957 0.218799
O O13 0.750000 0.250000 0.000000
O O14 0.401543 0.497661 0.126169
O O15 0.495324 0.632114 0.956699
#
# Coordination Sequence:
#
# PCOD9277500 Si02
#       7
#     8   8   8   8   8   8   8
#     4  11  23  40  64  94 135 175 223 281 322 410
#     4  11  23  39  64  95 126 172 226 268 329 398
#     4  10  20  41  64  90 127 174 217 265 339 399
#     4  11  25  40  63  95 137 171 210 284 339 393
#     4  11  23  40  62  96 128 172 226 268 346 384
#     4  10  23  39  67  94 126 174 221 271 326 409
#     4  10  22  43  62  95 131 169 220 271 335 398
#
# _framework density 21.779142
#
# number of rings (size 3 to 8) (size 9 to 14) (size 15 to 20)
#    0.000    1.429    4.286    1.286    6.000    1.143 
#    0.000    5.000    0.000    0.000    0.000    0.000 
#    0.000    0.000    0.000    0.000    0.000    0.000 
#
# Total GULP energy -155941.448494 kJ/mol
# GULP energy per Si atom -5569.337446 kJ/mol
# Density = 2.172957 g / cm^3
# Si number density = 21.779142 Si / 1000 Ang^3
#
#
#
# Elastic Constant Matrix: (Units=GPa)
#
#
# Indices 1 2 3 4 5 6 
#
# 1 52.3050 31.0157 38.6862 0.0000 -18.3401 0.0000
# 2 31.0157 157.9378 50.4747 0.0000 -33.6521 0.0000
# 3 38.6862 50.4747 115.0894 0.0000 -9.9803 0.0000
# 4 0.0000 0.0000 0.0000 40.2801 0.0000 0.3292
# 5 -18.3401 -33.6521 -9.9803 0.0000 45.1490 0.0000
# 6 0.0000 0.0000 0.0000 0.3292 0.0000 18.4992
#
#
#
# Elastic Compliance Matrix: (Units=1/GPa)
#
#
# Indices 1 2 3 4 5 6 
#
# 1 0.029340 -0.001044 -0.008604 0.000000 0.009239 0.000000
# 2 -0.001044 0.008625 -0.002968 0.000000 0.005348 0.000000
# 3 -0.008604 -0.002968 0.012630 0.000000 -0.002915 0.000000
# 4 0.000000 0.000000 0.000000 0.024830 0.000000 -0.000442
# 5 0.009239 0.005348 -0.002915 0.000000 0.029244 0.000000
# 6 0.000000 0.000000 0.000000 -0.000442 0.000000 0.054064
#
#
# Mechanical properties :
#
#
# Convention : Reuss Voigt Hill
#
# Bulk Modulus (GPa) = 39.42532 62.85391 51.13961
# Shear Modulus (GPa) = 25.98513 34.46271 30.22392
#
# Velocity S-wave (km/s) = 3.45790 3.98222 3.72929
# Velocity P-wave (km/s) = 5.83819 7.07576 6.48656
#
# Compressibility (1/GPa) = 0.02536441
#
# Stress axis : x y z
#
# Youngs Moduli (GPa) = 34.08267 115.94661 79.17835
#
# Poissons Ratio (x) = 0.12102 0.68122
# Poissons Ratio (y) = 0.03557 0.23499
# Poissons Ratio (z) = 0.29323 0.34411
#
# Static dielectric constant tensor:
#      x y z
#    x 2.087810 0.000000 0.112570 
#    y 0.000000 1.832750 0.000000 
#    z 0.112570 0.000000 1.884460 
# 
# From -- ./inp_files/110981.got.cif
#   From: 2010.05.17/outbox.cif.g08.bks.cpg/sg15_56_cif.got.tgz:110981.got - 2010.06.03 18:47:42.
