data_PCOD9277470
_publ_section_title
;
Structure prediction by ZEFSAII (Michael W. Deem and Ramdas Pophale) SiO2 
 PCOD9277470
Probable space group: C 2/C
;
_chemical_formula_sum "Si O2"
_cell_formula_units_Z 52
_cell_length_a 16.074335
_cell_length_b 8.762633
_cell_length_c 27.235189
_cell_angle_alpha 90.000000
_cell_angle_beta 36.264896
_cell_angle_gamma 90.000000
_cell_volume 2269.169535
_symmetry_space_group_name_H-M "C 2/C"
_symmetry_group_IT_number 15
_symmetry_cell_setting 'monoclinic'
loop_
_space_group_symop_operation_xyz
x,y,z
-x,y,1/2-z
-x,-y,-z
x,-y,1/2+z
1/2+x,1/2+y,z
1/2-x,1/2+y,1/2-z
1/2-x,1/2-y,-z
1/2+x,1/2-y,1/2+z
loop_
_atom_site_type_symbol
_atom_site_label
_atom_site_fract_x
_atom_site_fract_y
_atom_site_fract_z
Si Si1 0.815083 0.414727 0.761751
Si Si2 0.505717 0.065233 0.594672
Si Si3 0.338581 0.552397 0.069343
Si Si4 0.761216 0.630408 0.643530
Si Si5 0.534925 0.383448 0.839647
Si Si6 0.500000 0.579052 0.250000
Si Si7 0.280900 0.428128 0.487248
O O1 0.950021 0.479042 0.670228
O O2 0.757784 0.498289 0.838404
O O3 0.817487 0.238587 0.778133
O O4 0.691442 0.425469 0.780615
O O5 0.662346 0.010495 0.511566
O O6 0.391372 0.042670 0.606357
O O7 0.506907 0.245094 0.605081
O O8 0.326957 0.737428 0.078031
O O9 0.500000 0.500000 0.000000
O O10 0.279632 0.511361 0.044164
O O11 0.639853 0.525414 0.679974
O O12 0.519851 0.331456 0.790924
O O13 0.434205 0.526251 0.895831
O O14 0.250000 0.250000 0.500000
#
# Coordination Sequence:
#
# PCOD9277470 Si02
#       7
#     8   8   8   8   8   4   8
#     4   9  21  39  69  90 130 172 216 266 329 383
#     4  11  23  45  65  99 135 174 217 269 335 389
#     4  10  20  41  63  97 130 175 222 266 328 390
#     4   9  22  38  66  92 132 171 213 278 325 379
#     4  11  24  43  65  96 136 174 210 282 329 388
#     4  12  22  42  68  98 132 166 232 268 338 392
#     4  12  26  41  69  99 133 174 226 269 330 396
#
# _framework density 22.915870999999999
#
# number of rings (size 3 to 8) (size 9 to 14) (size 15 to 20)
#    0.923    0.615    3.077    1.385    4.308    1.846 
#    0.000    4.615    0.000    0.000    0.000    0.000 
#    0.000    0.000    0.000    0.000    0.000    0.000 
#
# Total GULP energy -145192.382018 kJ/mol
# GULP energy per Si atom -5584.322385 kJ/mol
# Density = 2.286371 g / cm^3
# Si number density = 22.915871 Si / 1000 Ang^3
#
#
#
# Elastic Constant Matrix: (Units=GPa)
#
#
# Indices 1 2 3 4 5 6 
#
# 1 125.0629 -2.9125 18.3541 -0.0001 -5.1382 0.0001
# 2 -2.9125 35.4985 0.9511 -0.0001 -20.2061 0.0004
# 3 18.3541 0.9511 53.9871 0.0000 -12.5127 0.0001
# 4 -0.0001 -0.0001 0.0000 32.0091 0.0000 -1.6453
# 5 -5.1382 -20.2061 -12.5127 0.0000 38.0902 -0.0001
# 6 0.0001 0.0004 0.0001 -1.6453 -0.0001 28.1381
#
#
#
# Elastic Compliance Matrix: (Units=1/GPa)
#
#
# Indices 1 2 3 4 5 6 
#
# 1 0.008459 0.001310 -0.002677 0.000000 0.000957 0.000000
# 2 0.001310 0.041643 0.004310 0.000000 0.023683 -0.000001
# 3 -0.002677 0.004310 0.021435 0.000000 0.008967 0.000000
# 4 0.000000 0.000000 0.000000 0.031335 0.000000 0.001832
# 5 0.000957 0.023683 0.008967 0.000000 0.041892 0.000000
# 6 0.000000 -0.000001 0.000000 0.001832 0.000000 0.035646
#
#
# Mechanical properties :
#
#
# Convention : Reuss Voigt Hill
#
# Bulk Modulus (GPa) = 12.91594 27.48154 20.19874
# Shear Modulus (GPa) = 24.95862 32.85787 28.90824
#
# Velocity S-wave (km/s) = 3.30379 3.79073 3.55561
# Velocity P-wave (km/s) = 4.49465 5.58371 5.06852
#
# Compressibility (1/GPa) = 0.07742372
#
# Stress axis : x y z
#
# Youngs Moduli (GPa) = 118.22180 24.01361 46.65176
#
# Poissons Ratio (x) = -0.03146 0.12489
# Poissons Ratio (y) = -0.15490 -0.20107
# Poissons Ratio (z) = 0.31649 -0.10350
#
# Static dielectric constant tensor:
#      x y z
#    x 1.855630 0.000000 0.072400 
#    y 0.000000 1.837610 0.000000 
#    z 0.072400 0.000000 1.868190 
# 
# From -- ./inp_files/313095.got.cif
#   From: 2010.05.17/outbox.cif.g08.bks.cpg/sg15_157_cif.got.tgz:313095.got - 2010.06.03 18:47:42.
