data_PCOD9277431
_publ_section_title
;
Structure prediction by ZEFSAII (Michael W. Deem and Ramdas Pophale) SiO2 
 PCOD9277431
Probable space group: C 2/C
;
_chemical_formula_sum "Si O2"
_cell_formula_units_Z 48
_cell_length_a 19.979544
_cell_length_b 13.578604
_cell_length_c 7.549961
_cell_angle_alpha 90.000000
_cell_angle_beta 80.833974
_cell_angle_gamma 90.000000
_cell_volume 2022.107038
_symmetry_space_group_name_H-M "C 2/C"
_symmetry_group_IT_number 15
_symmetry_cell_setting 'monoclinic'
loop_
_space_group_symop_operation_xyz
x,y,z
-x,y,1/2-z
-x,-y,-z
x,-y,1/2+z
1/2+x,1/2+y,z
1/2-x,1/2+y,1/2-z
1/2-x,1/2-y,-z
1/2+x,1/2-y,1/2+z
loop_
_atom_site_type_symbol
_atom_site_label
_atom_site_fract_x
_atom_site_fract_y
_atom_site_fract_z
Si Si1 0.144035 0.632439 0.280637
Si Si2 0.000000 0.955627 0.250000
Si Si3 0.805059 0.177145 0.884272
Si Si4 0.061554 0.333010 0.342950
Si Si5 0.579962 0.380689 0.895682
Si Si6 0.000000 0.637372 0.250000
Si Si7 0.190226 0.548199 0.887547
O O1 0.152522 0.749569 0.261757
O O2 0.186197 0.569277 0.400995
O O3 0.066138 0.597950 0.324731
O O4 0.174702 0.586238 0.090138
O O5 0.062919 0.026265 0.278884
O O6 0.978245 0.892391 0.428167
O O7 0.851882 0.130679 0.017501
O O8 0.762301 0.093219 0.804886
O O9 0.750000 0.250000 0.000000
O O10 0.075512 0.219833 0.285431
O O11 0.039775 0.322645 0.559170
O O12 0.128426 0.399436 0.307875
O O13 0.000000 0.372386 0.250000
#
# Coordination Sequence:
#
# PCOD9277431 Si02
#       7
#     8   4   8   8   8   4   8
#     4  10  22  38  63  90 121 166 208 270 315 383
#     4  10  25  36  63  96 120 156 220 267 319 380
#     4  10  20  41  63  82 128 172 205 257 330 374
#     4  11  22  38  67  91 131 170 209 269 325 386
#     4  11  20  41  60  92 122 165 210 266 322 381
#     4  10  21  38  63  96 126 164 208 267 329 368
#     4  10  23  40  60  91 125 166 216 257 324 389
#
# _framework density 23.737615999999999
#
# number of rings (size 3 to 8) (size 9 to 14) (size 15 to 20)
#    0.000    1.667    5.833    0.500    3.500    4.000 
#    0.000    0.833    0.000    0.000    0.000    0.000 
#    0.000    0.000    0.000    0.000    0.000    0.000 
#
# Total GULP energy -133679.427999 kJ/mol
# GULP energy per Si atom -5569.976167 kJ/mol
# Density = 2.368359 g / cm^3
# Si number density = 23.737616 Si / 1000 Ang^3
#
#
#
# Elastic Constant Matrix: (Units=GPa)
#
#
# Indices 1 2 3 4 5 6 
#
# 1 127.8219 44.2377 5.6797 0.0000 29.9311 0.0000
# 2 44.2377 66.2216 10.7840 0.0000 1.0188 0.0000
# 3 5.6797 10.7840 48.4257 0.0000 6.5874 0.0000
# 4 0.0000 0.0000 0.0000 14.1805 0.0000 12.1885
# 5 29.9311 1.0188 6.5874 0.0000 26.9159 0.0000
# 6 0.0000 0.0000 0.0000 12.1885 0.0000 27.5307
#
#
#
# Elastic Compliance Matrix: (Units=1/GPa)
#
#
# Indices 1 2 3 4 5 6 
#
# 1 0.015418 -0.010504 0.002906 0.000000 -0.017458 0.000000
# 2 -0.010504 0.022827 -0.005506 0.000000 0.012164 0.000000
# 3 0.002906 -0.005506 0.022703 0.000000 -0.008579 0.000000
# 4 0.000000 0.000000 0.000000 0.113839 0.000000 -0.050399
# 5 -0.017458 0.012164 -0.008579 0.000000 0.058206 0.000000
# 6 0.000000 0.000000 0.000000 -0.050399 0.000000 0.058636
#
#
# Mechanical properties :
#
#
# Convention : Reuss Voigt Hill
#
# Bulk Modulus (GPa) = 28.78634 40.43024 34.60829
# Shear Modulus (GPa) = 15.17833 25.84328 20.51080
#
# Velocity S-wave (km/s) = 2.53142 3.30313 2.94268
# Velocity P-wave (km/s) = 4.54943 5.62287 5.11439
#
# Compressibility (1/GPa) = 0.03473869
#
# Stress axis : x y z
#
# Youngs Moduli (GPa) = 64.86051 43.80722 44.04780
#
# Poissons Ratio (x) = 0.46015 -0.12799
# Poissons Ratio (y) = 0.68130 0.24254
# Poissons Ratio (z) = -0.18847 0.24121
#
# Static dielectric constant tensor:
#      x y z
#    x 2.018090 0.000000 0.118880 
#    y 0.000000 1.998270 0.000000 
#    z 0.118880 0.000000 2.171960 
# 
# From -- ./inp_files/47508.got.cif
#   From: 2010.05.17/outbox.cif.g08.bks.cpg/sg15_24_cif.got.tgz:47508.got - 2010.06.03 18:47:42.
