data_PCOD9277292
_publ_section_title
;
Structure prediction by ZEFSAII (Michael W. Deem and Ramdas Pophale) SiO2 
 PCOD9277292
Probable space group: C 2/C
;
_chemical_formula_sum "Si O2"
_cell_formula_units_Z 40
_cell_length_a 7.965307
_cell_length_b 17.295318
_cell_length_c 14.889249
_cell_angle_alpha 90.000000
_cell_angle_beta 62.168617
_cell_angle_gamma 90.000000
_cell_volume 1813.910921
_symmetry_space_group_name_H-M "C 2/C"
_symmetry_group_IT_number 15
_symmetry_cell_setting 'monoclinic'
loop_
_space_group_symop_operation_xyz
x,y,z
-x,y,1/2-z
-x,-y,-z
x,-y,1/2+z
1/2+x,1/2+y,z
1/2-x,1/2+y,1/2-z
1/2-x,1/2-y,-z
1/2+x,1/2-y,1/2+z
loop_
_atom_site_type_symbol
_atom_site_label
_atom_site_fract_x
_atom_site_fract_y
_atom_site_fract_z
Si Si1 0.026966 0.361507 0.108069
Si Si2 0.000071 0.019853 0.647312
Si Si3 0.690511 0.020843 0.079514
Si Si4 0.178624 0.819037 0.318192
Si Si5 0.575418 0.809247 0.561935
O O1 0.030118 0.454790 0.118081
O O2 0.213741 0.332425 0.113775
O O3 0.841940 0.329864 0.204459
O O4 0.017540 0.333015 0.009602
O O5 0.183494 0.002515 0.541016
O O6 0.000000 0.992252 0.750000
O O7 0.973874 0.112700 0.654499
O O8 0.821682 0.990551 0.634048
O O9 0.632623 0.109520 0.090400
O O10 0.076137 0.737797 0.342372
O O11 0.750000 0.750000 0.500000
#
# Coordination Sequence:
#
# PCOD9277292 Si02
#       5
#     8   8   8   8   8
#     4  10  23  44  68  93 137 186 220 274 339 410
#     4  10  20  40  71  97 133 179 224 277 335 405
#     4  10  22  42  70 100 136 179 229 271 338 415
#     4  10  22  42  70  96 132 180 228 272 345 398
#     4  12  23  40  70 103 139 170 221 289 339 396
#
# _framework density 22.0518
#
# number of rings (size 3 to 8) (size 9 to 14) (size 15 to 20)
#    0.000    1.600    2.000    2.400    0.000    0.000 
#    0.000   12.000    4.400    0.000    0.000    0.000 
#    0.000    0.000    0.000    0.000    0.000    0.000 
#
# Total GULP energy -111941.511061 kJ/mol
# GULP energy per Si atom -5597.075553 kJ/mol
# Density = 2.200161 g / cm^3
# Si number density = 22.051800 Si / 1000 Ang^3
#
#
#
# Elastic Constant Matrix: (Units=GPa)
#
#
# Indices 1 2 3 4 5 6 
#
# 1 68.5996 46.5499 55.5046 0.0000 10.5471 0.0000
# 2 46.5499 145.5686 61.7408 0.0000 -5.4778 0.0000
# 3 55.5046 61.7408 117.8681 0.0000 17.9122 0.0000
# 4 0.0000 0.0000 0.0000 28.9745 0.0000 -11.4559
# 5 10.5471 -5.4778 17.9122 0.0000 38.0028 0.0000
# 6 0.0000 0.0000 0.0000 -11.4559 0.0000 11.8691
#
#
#
# Elastic Compliance Matrix: (Units=1/GPa)
#
#
# Indices 1 2 3 4 5 6 
#
# 1 0.025522 -0.004382 -0.009210 0.000000 -0.003374 0.000000
# 2 -0.004382 0.010101 -0.003914 0.000000 0.004517 0.000000
# 3 -0.009210 -0.003914 0.015693 0.000000 -0.005405 0.000000
# 4 0.000000 0.000000 0.000000 0.055812 0.000000 0.053869
# 5 -0.003374 0.004517 -0.005405 0.000000 0.030449 0.000000
# 6 0.000000 0.000000 0.000000 0.053869 0.000000 0.136246
#
#
# Mechanical properties :
#
#
# Convention : Reuss Voigt Hill
#
# Bulk Modulus (GPa) = 61.33835 73.29186 67.31511
# Shear Modulus (GPa) = 15.91002 26.98534 21.44768
#
# Velocity S-wave (km/s) = 2.68896 3.50197 3.12204
# Velocity P-wave (km/s) = 6.12508 7.04699 6.60215
#
# Compressibility (1/GPa) = 0.01630301
#
# Stress axis : x y z
#
# Youngs Moduli (GPa) = 39.18255 99.00163 63.72371
#
# Poissons Ratio (x) = 0.43381 0.58692
# Poissons Ratio (y) = 0.17169 0.24941
# Poissons Ratio (z) = 0.36088 0.38749
#
# Static dielectric constant tensor:
#      x y z
#    x 1.822990 0.000000 -0.004960 
#    y 0.000000 1.776300 0.000000 
#    z -0.004960 0.000000 1.823020 
# 
# From -- ./inp_files/76904.got.cif
#   From: 2010.05.17/outbox.cif.g08.bks.cpg/sg15_39_cif.got.tgz:76904.got - 2010.06.03 18:47:42.
