data_PCOD9277313
_publ_section_title
;
Structure prediction by ZEFSAII (Michael W. Deem and Ramdas Pophale) SiO2 
 PCOD9277313
Probable space group: C 2/C
;
_chemical_formula_sum "Si O2"
_cell_formula_units_Z 48
_cell_length_a 14.309957
_cell_length_b 29.496991
_cell_length_c 5.372861
_cell_angle_alpha 90.000000
_cell_angle_beta 104.142828
_cell_angle_gamma 90.000000
_cell_volume 2199.147745
_symmetry_space_group_name_H-M "C 2/C"
_symmetry_group_IT_number 15
_symmetry_cell_setting 'monoclinic'
loop_
_space_group_symop_operation_xyz
x,y,z
-x,y,1/2-z
-x,-y,-z
x,-y,1/2+z
1/2+x,1/2+y,z
1/2-x,1/2+y,1/2-z
1/2-x,1/2-y,-z
1/2+x,1/2-y,1/2+z
loop_
_atom_site_type_symbol
_atom_site_label
_atom_site_fract_x
_atom_site_fract_y
_atom_site_fract_z
Si Si1 0.151587 0.314461 0.013708
Si Si2 0.213252 0.971351 0.679884
Si Si3 0.103496 0.590498 0.214038
Si Si4 0.104027 0.878804 0.686505
Si Si5 0.000000 0.353162 0.250000
Si Si6 0.000000 0.756795 0.250000
Si Si7 0.139626 0.173853 0.687944
O O1 0.144646 0.365347 0.890087
O O2 0.092176 0.276399 0.829912
O O3 0.078240 0.319613 0.190976
O O4 0.259639 0.303643 0.160821
O O5 0.319033 0.948519 0.752841
O O6 0.141814 0.929428 0.673175
O O7 0.200945 0.994914 0.404417
O O8 0.000000 0.574798 0.250000
O O9 0.070247 0.612887 0.938674
O O10 0.112640 0.855979 0.417946
O O11 0.000000 0.880344 0.750000
O O12 0.161866 0.852646 0.945052
O O13 0.049056 0.792430 0.087738
#
# Coordination Sequence:
#
# PCOD9277313 Si02
#       7
#     8   8   8   8   4   4   8
#     4  11  23  43  68 105 147 196 238 297 354 424
#     4  12  28  45  74 109 137 179 246 299 349 447
#     4  10  22  42  68  98 144 193 229 289 374 418
#     4  12  25  51  76 102 145 190 234 297 382 419
#     4  10  20  40  72  95 138 202 237 278 362 440
#     4  12  24  46  66 119 140 186 263 290 334 432
#     4  12  26  45  76 105 146 198 237 299 354 429
#
# _framework density 21.826635
#
# number of rings (size 3 to 8) (size 9 to 14) (size 15 to 20)
#    0.000    0.667    5.833    2.500    4.667    2.667 
#    0.000    2.500    0.000    0.000    0.000    0.000 
#    0.000    0.000    0.000    0.000    0.000    0.000 
#
# Total GULP energy -133656.904062 kJ/mol
# GULP energy per Si atom -5569.037669 kJ/mol
# Density = 2.177696 g / cm^3
# Si number density = 21.826635 Si / 1000 Ang^3
#
#
#
# Elastic Constant Matrix: (Units=GPa)
#
#
# Indices 1 2 3 4 5 6 
#
# 1 78.9314 19.8733 -1.4381 0.0000 -0.9512 0.0000
# 2 19.8733 80.4604 20.2620 0.0000 -6.9126 0.0000
# 3 -1.4381 20.2620 70.9640 0.0000 -8.1816 0.0000
# 4 0.0000 0.0000 0.0000 -26.8284 0.0000 7.0129
# 5 -0.9512 -6.9126 -8.1816 0.0000 36.7032 0.0000
# 6 0.0000 0.0000 0.0000 7.0129 0.0000 78.7771
#
#
#
# Elastic Compliance Matrix: (Units=1/GPa)
#
#
# Indices 1 2 3 4 5 6 
#
# 1 0.013625 -0.003704 0.001328 0.000000 -0.000048 0.000000
# 2 -0.003704 0.014504 -0.004016 0.000000 0.001741 0.000000
# 3 0.001328 -0.004016 0.015582 0.000000 0.002752 0.000000
# 4 0.000000 0.000000 0.000000 -0.036426 0.000000 0.003243
# 5 -0.000048 0.001741 0.002752 0.000000 0.028186 0.000000
# 6 0.000000 0.000000 0.000000 0.003243 0.000000 0.012405
#
#
# Mechanical properties :
#
#
# Convention : Reuss Voigt Hill
#
# Bulk Modulus (GPa) = 32.33233 34.19446 33.26339
# Shear Modulus (GPa) = 70.45291 30.50761 50.48026
#
# Velocity S-wave (km/s) = 5.68757 3.74267 4.81436
# Velocity P-wave (km/s) = 7.61424 5.86321 6.79536
#
# Compressibility (1/GPa) = 0.03092880
#
# Stress axis : x y z
#
# Youngs Moduli (GPa) = 73.39204 68.94576 64.17501
#
# Poissons Ratio (x) = 0.25538 -0.08523
# Poissons Ratio (y) = 0.27185 0.25771
# Poissons Ratio (z) = -0.09748 0.27687
#
# Static dielectric constant tensor:
#      x y z
#    x 1.804300 0.000000 -0.022720 
#    y 0.000000 1.805570 0.000000 
#    z -0.022720 0.000000 1.856430 
# 
# From -- ./inp_files/8854.got.cif
#   From: 2010.05.17/outbox.cif.g08.bks.cpg/sg15_5_cif.got.tgz:8854.got - 2010.06.03 18:47:42.
