data_PCOD9277096
_publ_section_title
;
Structure prediction by ZEFSAII (Michael W. Deem and Ramdas Pophale) SiO2 
 PCOD9277096
Probable space group: C 2/C
;
_chemical_formula_sum "Si O2"
_cell_formula_units_Z 44
_cell_length_a 11.604694
_cell_length_b 24.812927
_cell_length_c 11.337520
_cell_angle_alpha 90.000000
_cell_angle_beta 145.835032
_cell_angle_gamma 90.000000
_cell_volume 1833.325230
_symmetry_space_group_name_H-M "C 2/C"
_symmetry_group_IT_number 15
_symmetry_cell_setting 'monoclinic'
loop_
_space_group_symop_operation_xyz
x,y,z
-x,y,1/2-z
-x,-y,-z
x,-y,1/2+z
1/2+x,1/2+y,z
1/2-x,1/2+y,1/2-z
1/2-x,1/2-y,-z
1/2+x,1/2-y,1/2+z
loop_
_atom_site_type_symbol
_atom_site_label
_atom_site_fract_x
_atom_site_fract_y
_atom_site_fract_z
Si Si1 0.000000 0.301721 0.250000
Si Si2 0.781707 0.686147 0.177710
Si Si3 0.000000 0.784280 0.250000
Si Si4 0.623291 0.084735 0.103225
Si Si5 0.821911 0.481168 0.195418
Si Si6 0.077659 0.198401 0.443005
Si Si7 0.000000 0.930778 0.750000
O O1 0.197241 0.327002 0.356678
O O2 0.089529 0.263279 0.430615
O O3 0.902960 0.742392 0.263697
O O4 0.906231 0.637194 0.339736
O O5 0.585062 0.688779 0.095972
O O6 0.677399 0.680812 0.960367
O O7 0.802170 0.092875 0.156484
O O8 0.700179 0.035867 0.250277
O O9 0.417888 0.063711 0.864771
O O10 0.000000 0.490294 0.250000
O O11 0.120952 0.036587 0.454619
O O12 0.000000 0.180143 0.250000
#
# Coordination Sequence:
#
# PCOD9277096 Si02
#       7
#     4   8   4   8   8   8   4
#     4   8  16  29  54  88 112 156 214 264 348 377
#     4  11  23  44  64  91 138 183 247 289 345 408
#     4  10  26  45  62  90 136 198 245 296 330 416
#     4  10  22  39  68 100 139 181 221 289 347 432
#     4   9  20  41  67 105 137 173 223 280 360 431
#     4   9  17  32  58  88 115 162 219 278 339 397
#     4  10  20  40  68 104 140 164 219 286 364 429
#
# _framework density 24.000105000000001
#
# number of rings (size 3 to 8) (size 9 to 14) (size 15 to 20)
#    0.545    1.818    0.000    1.636    2.545    0.727 
#    6.545    0.000    0.000    0.000    0.000    0.000 
#    0.000    0.000    0.000    0.000    0.000    0.000 
#
# Total GULP energy -122682.962680 kJ/mol
# GULP energy per Si atom -5576.498304 kJ/mol
# Density = 2.394548 g / cm^3
# Si number density = 24.000105 Si / 1000 Ang^3
#
#
#
# Elastic Constant Matrix: (Units=GPa)
#
#
# Indices 1 2 3 4 5 6 
#
# 1 115.1725 34.2668 22.6197 0.0000 10.9496 0.0000
# 2 34.2668 89.2695 47.1775 0.0000 -26.6056 0.0000
# 3 22.6197 47.1775 129.4180 0.0000 -13.5399 0.0000
# 4 0.0000 0.0000 0.0000 -9.7002 0.0000 -20.8751
# 5 10.9496 -26.6056 -13.5399 0.0000 39.7735 0.0000
# 6 0.0000 0.0000 0.0000 -20.8751 0.0000 36.8504
#
#
#
# Elastic Compliance Matrix: (Units=1/GPa)
#
#
# Indices 1 2 3 4 5 6 
#
# 1 0.011391 -0.006386 -0.000454 0.000000 -0.007563 0.000000
# 2 -0.006386 0.020295 -0.004850 0.000000 0.013683 0.000000
# 3 -0.000454 -0.004850 0.009590 0.000000 0.000145 0.000000
# 4 0.000000 0.000000 0.000000 -0.046456 0.000000 -0.026317
# 5 -0.007563 0.013683 0.000145 0.000000 0.036426 0.000000
# 6 0.000000 0.000000 0.000000 -0.026317 0.000000 0.012229
#
#
# Mechanical properties :
#
#
# Convention : Reuss Voigt Hill
#
# Bulk Modulus (GPa) = 55.88629 60.22091 58.05360
# Shear Modulus (GPa) = 68.66182 28.70447 48.68314
#
# Velocity S-wave (km/s) = 5.35454 3.46210 4.50872
# Velocity P-wave (km/s) = 7.84631 6.41310 7.16563
#
# Compressibility (1/GPa) = 0.01789347
#
# Stress axis : x y z
#
# Youngs Moduli (GPa) = 87.78929 49.27348 104.27974
#
# Poissons Ratio (x) = 0.31468 0.04734
# Poissons Ratio (y) = 0.56066 0.50581
# Poissons Ratio (z) = 0.03986 0.23900
#
# Static dielectric constant tensor:
#      x y z
#    x 1.949250 0.000000 0.053320 
#    y 0.000000 2.050330 0.000000 
#    z 0.053320 0.000000 1.996050 
# 
# From -- ./inp_files/89240.got.cif
#   From: 2010.05.17/outbox.cif.g08.bks.cpg/sg15_45_cif.got.tgz:89240.got - 2010.06.03 18:47:42.
