data_PCOD9277137
_publ_section_title
;
Structure prediction by ZEFSAII (Michael W. Deem and Ramdas Pophale) SiO2 
 PCOD9277137
Probable space group: C 2/C
;
_chemical_formula_sum "Si O2"
_cell_formula_units_Z 60
_cell_length_a 16.268496
_cell_length_b 10.812170
_cell_length_c 23.999412
_cell_angle_alpha 90.000000
_cell_angle_beta 144.767862
_cell_angle_gamma 90.000000
_cell_volume 2435.310348
_symmetry_space_group_name_H-M "C 2/C"
_symmetry_group_IT_number 15
_symmetry_cell_setting 'monoclinic'
loop_
_space_group_symop_operation_xyz
x,y,z
-x,y,1/2-z
-x,-y,-z
x,-y,1/2+z
1/2+x,1/2+y,z
1/2-x,1/2+y,1/2-z
1/2-x,1/2-y,-z
1/2+x,1/2-y,1/2+z
loop_
_atom_site_type_symbol
_atom_site_label
_atom_site_fract_x
_atom_site_fract_y
_atom_site_fract_z
Si Si1 0.541914 0.624036 0.719060
Si Si2 0.425174 0.383520 0.622442
Si Si3 0.500000 0.830434 0.250000
Si Si4 0.665421 0.899403 0.170908
Si Si5 0.054140 0.288403 0.527443
Si Si6 0.266392 0.355784 0.733324
Si Si7 0.708116 0.564677 0.560450
Si Si8 0.129608 0.794103 0.476666
O O1 0.500000 0.702692 0.750000
O O2 0.429678 0.508220 0.661261
O O3 0.708692 0.594730 0.805993
O O4 0.499688 0.684128 0.637474
O O5 0.459245 0.263484 0.677335
O O6 0.573556 0.406082 0.671867
O O7 0.301104 0.382762 0.508609
O O8 0.641549 0.912875 0.326218
O O9 0.713400 0.781524 0.232840
O O10 0.671315 0.031874 0.204816
O O11 0.513548 0.867507 0.059764
O O12 0.199632 0.339845 0.634609
O O13 0.093384 0.149749 0.529468
O O14 0.936267 0.288650 0.510960
O O15 0.674249 0.421291 0.532014
O O16 0.250000 0.750000 0.500000
#
# Coordination Sequence:
#
# PCOD9277137 Si02
#       8
#     8   8   4   8   8   8   8   8
#     4  10  20  40  68  94 134 185 232 282 360 439
#     4  10  21  41  68  98 136 185 233 287 366 438
#     4  12  22  44  66 102 140 176 240 312 364 440
#     4  11  24  42  70 102 142 188 241 301 356 436
#     4  12  23  45  72 104 144 190 247 302 374 450
#     4  11  23  44  68 108 142 188 243 296 362 440
#     4  11  25  43  71 104 143 195 245 302 382 442
#     4  11  25  46  67 101 145 189 244 306 376 451
#
# _framework density 24.637516000000002
#
# number of rings (size 3 to 8) (size 9 to 14) (size 15 to 20)
#    0.000    1.067    4.667    2.000    0.000    1.067 
#    6.000    0.000    0.000    0.000    0.000    0.000 
#    0.000    0.000    0.000    0.000    0.000    0.000 
#
# Total GULP energy -167316.466490 kJ/mol
# GULP energy per Si atom -5577.215550 kJ/mol
# Density = 2.458144 g / cm^3
# Si number density = 24.637516 Si / 1000 Ang^3
#
#
#
# Elastic Constant Matrix: (Units=GPa)
#
#
# Indices 1 2 3 4 5 6 
#
# 1 39.3911 -5.0341 2.9329 0.0000 -3.3327 0.0000
# 2 -5.0341 99.3324 30.5727 0.0000 -15.3548 0.0000
# 3 2.9329 30.5727 144.8040 0.0002 -15.5289 0.0000
# 4 0.0000 0.0000 0.0002 21.2524 0.0000 -0.6042
# 5 -3.3327 -15.3548 -15.5289 0.0000 24.9774 0.0000
# 6 0.0000 0.0000 0.0000 -0.6042 0.0000 31.0731
#
#
#
# Elastic Compliance Matrix: (Units=1/GPa)
#
#
# Indices 1 2 3 4 5 6 
#
# 1 0.026083 0.002173 -0.000504 0.000000 0.004503 0.000000
# 2 0.002173 0.011725 -0.001838 0.000000 0.006355 0.000000
# 3 -0.000504 -0.001838 0.007688 0.000000 0.003583 0.000000
# 4 0.000000 0.000000 0.000000 0.047079 0.000000 0.000915
# 5 0.004503 0.006355 0.003583 0.000000 0.046771 0.000000
# 6 0.000000 0.000000 0.000000 0.000915 0.000000 0.032200
#
#
# Mechanical properties :
#
#
# Convention : Reuss Voigt Hill
#
# Bulk Modulus (GPa) = 22.14446 37.83006 29.98726
# Shear Modulus (GPa) = 26.74675 32.46431 29.60553
#
# Velocity S-wave (km/s) = 3.29844 3.63392 3.47023
# Velocity P-wave (km/s) = 4.84911 5.74414 5.31550
#
# Compressibility (1/GPa) = 0.04515803
#
# Stress axis : x y z
#
# Youngs Moduli (GPa) = 38.33965 85.28436 130.06610
#
# Poissons Ratio (x) = -0.18533 0.06558
# Poissons Ratio (y) = -0.08331 0.23907
# Poissons Ratio (z) = 0.01933 0.15676
#
# Static dielectric constant tensor:
#      x y z
#    x 2.083950 0.000000 -0.022050 
#    y 0.000000 2.057870 0.000000 
#    z -0.022050 0.000000 1.965820 
# 
# From -- ./inp_files/298968.got.cif
#   From: 2010.05.17/outbox.cif.g08.bks.cpg/sg15_150_cif.got.tgz:298968.got - 2010.06.03 18:47:42.
