data_PCOD9277162
_publ_section_title
;
Structure prediction by ZEFSAII (Michael W. Deem and Ramdas Pophale) SiO2 
 PCOD9277162
Probable space group: C 2/C
;
_chemical_formula_sum "Si O2"
_cell_formula_units_Z 60
_cell_length_a 14.278275
_cell_length_b 14.738195
_cell_length_c 14.875867
_cell_angle_alpha 90.000000
_cell_angle_beta 88.617032
_cell_angle_gamma 90.000000
_cell_volume 3129.506102
_symmetry_space_group_name_H-M "C 2/C"
_symmetry_group_IT_number 15
_symmetry_cell_setting 'monoclinic'
loop_
_space_group_symop_operation_xyz
x,y,z
-x,y,1/2-z
-x,-y,-z
x,-y,1/2+z
1/2+x,1/2+y,z
1/2-x,1/2+y,1/2-z
1/2-x,1/2-y,-z
1/2+x,1/2-y,1/2+z
loop_
_atom_site_type_symbol
_atom_site_label
_atom_site_fract_x
_atom_site_fract_y
_atom_site_fract_z
Si Si1 0.227271 0.910354 0.152939
Si Si2 0.500000 0.833542 0.250000
Si Si3 0.420458 0.987563 0.375452
Si Si4 0.883478 0.544496 0.086263
Si Si5 0.610677 0.486679 0.512355
Si Si6 0.821549 0.237128 0.220171
Si Si7 0.278047 0.684705 0.417743
Si Si8 0.215868 0.030925 0.326610
O O1 0.248664 0.806126 0.175354
O O2 0.325737 0.956119 0.119534
O O3 0.153325 0.935839 0.077249
O O4 0.197206 0.964700 0.243176
O O5 0.443524 0.898650 0.317992
O O6 0.425598 0.773128 0.199048
O O7 0.399816 0.962484 0.479213
O O8 0.514997 0.046849 0.371107
O O9 0.327414 0.031646 0.339133
O O10 0.814321 0.627161 0.106409
O O11 0.500000 0.500000 0.500000
O O12 0.644223 0.390353 0.554646
O O13 0.664318 0.495001 0.416395
O O14 0.808297 0.238170 0.328398
O O15 0.813646 0.133444 0.191609
O O16 0.250000 0.750000 0.500000
#
# Coordination Sequence:
#
# PCOD9277162 Si02
#       8
#     8   4   8   8   8   8   8   8
#     4  11  22  47  66 101 139 175 233 290 342 415
#     4  12  24  38  68 106 130 180 238 280 338 406
#     4  11  20  40  70  96 133 178 221 284 350 398
#     4  10  20  40  68  97 131 176 222 277 341 408
#     4  11  26  47  67  93 138 190 229 279 351 426
#     4  12  25  38  71 103 134 177 231 289 340 415
#     4  11  22  45  67  96 135 179 233 275 340 415
#     4  12  23  43  71  95 138 185 221 290 356 400
#
# _framework density 19.172355
#
# number of rings (size 3 to 8) (size 9 to 14) (size 15 to 20)
#    0.000    0.800    8.000    1.600    1.867    1.067 
#    2.400    0.000    0.000    0.000    0.000    0.000 
#    0.000    0.000    0.000    0.000    0.000    0.000 
#
# Total GULP energy -167620.970898 kJ/mol
# GULP energy per Si atom -5587.365697 kJ/mol
# Density = 1.912872 g / cm^3
# Si number density = 19.172355 Si / 1000 Ang^3
#
#
#
# Elastic Constant Matrix: (Units=GPa)
#
#
# Indices 1 2 3 4 5 6 
#
# 1 127.1629 15.8023 17.1445 0.0000 11.9189 0.0000
# 2 15.8023 52.2182 -4.6737 0.0000 -6.5909 0.0000
# 3 17.1445 -4.6737 81.1437 0.0000 -9.4695 0.0000
# 4 0.0000 0.0000 0.0000 34.0556 0.0000 7.4182
# 5 11.9189 -6.5909 -9.4695 0.0000 21.5652 0.0000
# 6 0.0000 0.0000 0.0000 7.4182 0.0000 20.6634
#
#
#
# Elastic Compliance Matrix: (Units=1/GPa)
#
#
# Indices 1 2 3 4 5 6 
#
# 1 0.009560 -0.004184 -0.003190 0.000000 -0.007964 0.000000
# 2 -0.004184 0.022049 0.003384 0.000000 0.010537 0.000000
# 3 -0.003190 0.003384 0.014249 0.000000 0.009054 0.000000
# 4 0.000000 0.000000 0.000000 0.031855 0.000000 -0.011436
# 5 -0.007964 0.010537 0.009054 0.000000 0.057969 0.000000
# 6 0.000000 0.000000 0.000000 -0.011436 0.000000 0.052500
#
#
# Mechanical properties :
#
#
# Convention : Reuss Voigt Hill
#
# Bulk Modulus (GPa) = 26.40041 35.23010 30.81526
# Shear Modulus (GPa) = 23.94751 30.74030 27.34390
#
# Velocity S-wave (km/s) = 3.53804 4.00855 3.78062
# Velocity P-wave (km/s) = 5.52180 6.31189 5.93002
#
# Compressibility (1/GPa) = 0.03787820
#
# Stress axis : x y z
#
# Youngs Moduli (GPa) = 104.59829 45.35277 70.17830
#
# Poissons Ratio (x) = 0.18975 0.22389
# Poissons Ratio (y) = 0.43762 -0.23746
# Poissons Ratio (z) = 0.33370 -0.15346
#
# Static dielectric constant tensor:
#      x y z
#    x 1.674790 0.000000 0.005340 
#    y 0.000000 1.653450 0.000000 
#    z 0.005340 0.000000 1.691200 
# 
# From -- ./inp_files/153974.got.cif
#   From: 2010.05.17/outbox.cif.g08.bks.cpg/sg15_77_cif.got.tgz:153974.got - 2010.06.03 18:47:42.
