data_PCOD9277168
_publ_section_title
;
Structure prediction by ZEFSAII (Michael W. Deem and Ramdas Pophale) SiO2 
 PCOD9277168
Probable space group: C 2/C
;
_chemical_formula_sum "Si O2"
_cell_formula_units_Z 32
_cell_length_a 20.047262
_cell_length_b 4.832931
_cell_length_c 13.310547
_cell_angle_alpha 90.000000
_cell_angle_beta 94.876959
_cell_angle_gamma 90.000000
_cell_volume 1284.950437
_symmetry_space_group_name_H-M "C 2/C"
_symmetry_group_IT_number 15
_symmetry_cell_setting 'monoclinic'
loop_
_space_group_symop_operation_xyz
x,y,z
-x,y,1/2-z
-x,-y,-z
x,-y,1/2+z
1/2+x,1/2+y,z
1/2-x,1/2+y,1/2-z
1/2-x,1/2-y,-z
1/2+x,1/2-y,1/2+z
loop_
_atom_site_type_symbol
_atom_site_label
_atom_site_fract_x
_atom_site_fract_y
_atom_site_fract_z
Si Si1 0.392421 0.478099 0.916029
Si Si2 0.254719 0.127744 0.611581
Si Si3 0.654283 0.389905 0.363229
Si Si4 0.062424 0.435341 0.693974
O O1 0.322238 0.612495 0.867373
O O2 0.449025 0.699018 0.892321
O O3 0.405062 0.189862 0.861731
O O4 0.380990 0.442499 0.033573
O O5 0.250000 0.250000 0.500000
O O6 0.308937 0.329885 0.669423
O O7 0.284994 0.824168 0.613887
O O8 0.603340 0.235717 0.283665
O O9 0.000000 0.545019 0.750000
#
# Coordination Sequence:
#
# PCOD9277168 Si02
#       4
#     8   8   8   8
#     4  11  23  43  67  94 132 171 214 275 328 378
#     4  10  20  40  68  98 126 162 213 268 336 397
#     4  11  23  42  68  96 131 168 210 273 331 383
#     4  12  27  43  64  97 132 178 231 259 307 395
#
# _framework density 24.903686
#
# number of rings (size 3 to 8) (size 9 to 14) (size 15 to 20)
#    0.000    1.000    0.000    9.750    0.000    6.000 
#    0.000    2.500    0.000    0.000    0.000    0.000 
#    0.000    0.000    0.000    0.000    0.000    0.000 
#
# Total GULP energy -89508.621264 kJ/mol
# GULP energy per Si atom -5594.288829 kJ/mol
# Density = 2.484700 g / cm^3
# Si number density = 24.903686 Si / 1000 Ang^3
#
#
#
# Elastic Constant Matrix: (Units=GPa)
#
#
# Indices 1 2 3 4 5 6 
#
# 1 61.2855 13.0099 28.3472 0.0000 -34.3172 0.0000
# 2 13.0099 157.6284 23.1624 0.0000 -24.3786 0.0000
# 3 28.3472 23.1624 101.2450 0.0000 -36.6325 0.0000
# 4 0.0000 0.0000 0.0000 35.5378 0.0000 -19.2520
# 5 -34.3172 -24.3786 -36.6325 0.0000 35.9704 0.0000
# 6 0.0000 0.0000 0.0000 -19.2520 0.0000 30.0790
#
#
#
# Elastic Compliance Matrix: (Units=1/GPa)
#
#
# Indices 1 2 3 4 5 6 
#
# 1 0.036908 0.002726 0.003882 0.000000 0.041013 0.000000
# 2 0.002726 0.007290 0.000471 0.000000 0.008022 0.000000
# 3 0.003882 0.000471 0.016053 0.000000 0.020371 0.000000
# 4 0.000000 0.000000 0.000000 0.043074 0.000000 0.027570
# 5 0.041013 0.008022 0.020371 0.000000 0.093112 0.000000
# 6 0.000000 0.000000 0.000000 0.027570 0.000000 0.050892
#
#
# Mechanical properties :
#
#
# Convention : Reuss Voigt Hill
#
# Bulk Modulus (GPa) = 13.43891 49.91089 31.67490
# Shear Modulus (GPa) = 19.38176 37.36008 28.37092
#
# Velocity S-wave (km/s) = 2.79277 3.87742 3.37890
# Velocity P-wave (km/s) = 3.97587 6.33490 5.28859
#
# Compressibility (1/GPa) = 0.07441081
#
# Stress axis : x y z
#
# Youngs Moduli (GPa) = 27.09422 137.16601 62.29298
#
# Poissons Ratio (x) = -0.37396 -0.24181
# Poissons Ratio (y) = -0.07387 -0.02936
# Poissons Ratio (z) = -0.10517 -0.06465
#
# Static dielectric constant tensor:
#      x y z
#    x 2.035000 0.000000 0.053340 
#    y 0.000000 2.132600 0.000000 
#    z 0.053340 0.000000 2.013870 
# 
# From -- ./inp_files/207732.got.cif
#   From: 2010.05.17/outbox.cif.g08.bks.cpg/sg15_104_cif.got.tgz:207732.got - 2010.06.03 18:47:42.
