data_PCOD9277451
_publ_section_title
;
Structure prediction by ZEFSAII (Michael W. Deem and Ramdas Pophale) SiO2 
 PCOD9277451
Probable space group: C 2/C
;
_chemical_formula_sum "Si O2"
_cell_formula_units_Z 60
_cell_length_a 28.722797
_cell_length_b 17.746008
_cell_length_c 11.251503
_cell_angle_alpha 90.000000
_cell_angle_beta 29.812673
_cell_angle_gamma 90.000000
_cell_volume 2851.276031
_symmetry_space_group_name_H-M "C 2/C"
_symmetry_group_IT_number 15
_symmetry_cell_setting 'monoclinic'
loop_
_space_group_symop_operation_xyz
x,y,z
-x,y,1/2-z
-x,-y,-z
x,-y,1/2+z
1/2+x,1/2+y,z
1/2-x,1/2+y,1/2-z
1/2-x,1/2-y,-z
1/2+x,1/2-y,1/2+z
loop_
_atom_site_type_symbol
_atom_site_label
_atom_site_fract_x
_atom_site_fract_y
_atom_site_fract_z
Si Si1 0.589635 0.952385 0.846711
Si Si2 0.500000 0.826223 0.750000
Si Si3 0.833926 0.564212 0.662195
Si Si4 0.479165 0.785539 0.532383
Si Si5 0.714567 0.519043 0.721094
Si Si6 0.596119 0.340492 0.460660
Si Si7 0.215264 0.860720 0.621806
Si Si8 0.665504 0.259695 0.524460
O O1 0.571922 0.864114 0.879743
O O2 0.683448 0.969110 0.564023
O O3 0.613692 0.987059 0.921645
O O4 0.500000 0.000000 0.000000
O O5 0.591092 0.879808 0.561533
O O6 0.503977 0.781816 0.617234
O O7 0.740380 0.541422 0.798940
O O8 0.803317 0.608643 0.849081
O O9 0.423872 0.713174 0.606365
O O10 0.572664 0.789221 0.245306
O O11 0.641060 0.579105 0.833913
O O12 0.682366 0.433889 0.766351
O O13 0.667104 0.297387 0.392959
O O14 0.500000 0.349062 0.750000
O O15 0.247345 0.792794 0.635688
O O16 0.154549 0.823114 0.651737
#
# Coordination Sequence:
#
# PCOD9277451 Si02
#       8
#     8   4   8   8   8   8   8   8
#     4  11  21  37  59  96 128 157 204 257 326 403
#     4  12  20  38  58  90 134 162 200 260 332 396
#     4  11  20  36  59  90 131 161 199 262 322 389
#     4  11  22  38  60  91 126 168 207 259 326 382
#     4  11  22  40  64  90 123 172 208 260 320 382
#     4  10  24  43  63  87 128 172 220 274 308 367
#     4  10  21  37  65  89 119 163 218 257 315 384
#     4  10  20  41  63  90 124 164 213 264 317 373
#
# _framework density 21.043209000000001
#
# number of rings (size 3 to 8) (size 9 to 14) (size 15 to 20)
#    0.000    1.333    5.333    0.800    1.867    0.533 
#    3.600    5.333    1.467    0.000    0.000    0.000 
#    0.000    0.000    0.000    0.000    0.000    0.000 
#
# Total GULP energy -167381.765608 kJ/mol
# GULP energy per Si atom -5579.392187 kJ/mol
# Density = 2.099531 g / cm^3
# Si number density = 21.043209 Si / 1000 Ang^3
#
#
#
# Elastic Constant Matrix: (Units=GPa)
#
#
# Indices 1 2 3 4 5 6 
#
# 1 89.2521 57.1364 -8.3877 0.0000 -3.3045 0.0000
# 2 57.1364 121.4050 13.6719 0.0000 -1.6004 0.0000
# 3 -8.3877 13.6719 26.4915 0.0000 1.8857 0.0000
# 4 0.0000 0.0000 0.0000 28.8288 0.0000 -4.8760
# 5 -3.3045 -1.6004 1.8857 0.0000 19.5128 0.0000
# 6 0.0000 0.0000 0.0000 -4.8760 0.0000 39.7525
#
#
#
# Elastic Compliance Matrix: (Units=1/GPa)
#
#
# Indices 1 2 3 4 5 6 
#
# 1 0.018703 -0.010025 0.011004 0.000000 0.001282 0.000000
# 2 -0.010025 0.014144 -0.010508 0.000000 0.000478 0.000000
# 3 0.011004 -0.010508 0.046906 0.000000 -0.003531 0.000000
# 4 0.000000 0.000000 0.000000 0.035422 0.000000 0.004345
# 5 0.001282 0.000478 -0.003531 0.000000 0.051846 0.000000
# 6 0.000000 0.000000 0.000000 0.004345 0.000000 0.025689
#
#
# Mechanical properties :
#
#
# Convention : Reuss Voigt Hill
#
# Bulk Modulus (GPa) = 16.47514 40.22110 28.34812
# Shear Modulus (GPa) = 21.55177 29.26735 25.40956
#
# Velocity S-wave (km/s) = 3.20373 3.73342 3.47867
# Velocity P-wave (km/s) = 4.64019 6.14326 5.44385
#
# Compressibility (1/GPa) = 0.06069750
#
# Stress axis : x y z
#
# Youngs Moduli (GPa) = 53.46684 70.69981 21.31911
#
# Poissons Ratio (x) = 0.70873 -0.23460
# Poissons Ratio (y) = 0.53598 0.22401
# Poissons Ratio (z) = -0.58835 0.74289
#
# Static dielectric constant tensor:
#      x y z
#    x 1.851170 0.000000 0.018830 
#    y 0.000000 1.788810 0.000000 
#    z 0.018830 0.000000 1.779850 
# 
# From -- ./inp_files/127213.got.cif
#   From: 2010.05.17/outbox.cif.g08.bks.cpg/sg15_64_cif.got.tgz:127213.got - 2010.06.03 18:47:42.
