data_PCOD9277244
_publ_section_title
;
Structure prediction by ZEFSAII (Michael W. Deem and Ramdas Pophale) SiO2 
 PCOD9277244
Probable space group: C 2/C
;
_chemical_formula_sum "Si O2"
_cell_formula_units_Z 48
_cell_length_a 11.838634
_cell_length_b 12.038429
_cell_length_c 14.883636
_cell_angle_alpha 90.000000
_cell_angle_beta 108.118575
_cell_angle_gamma 90.000000
_cell_volume 2016.014794
_symmetry_space_group_name_H-M "C 2/C"
_symmetry_group_IT_number 15
_symmetry_cell_setting 'monoclinic'
loop_
_space_group_symop_operation_xyz
x,y,z
-x,y,1/2-z
-x,-y,-z
x,-y,1/2+z
1/2+x,1/2+y,z
1/2-x,1/2+y,1/2-z
1/2-x,1/2-y,-z
1/2+x,1/2-y,1/2+z
loop_
_atom_site_type_symbol
_atom_site_label
_atom_site_fract_x
_atom_site_fract_y
_atom_site_fract_z
Si Si1 0.453160 0.240750 0.505453
Si Si2 0.202477 0.487151 0.782206
Si Si3 0.221263 0.038060 0.386504
Si Si4 0.473617 0.455800 0.893482
Si Si5 0.293476 0.196842 0.617656
Si Si6 0.167690 0.642676 0.453545
O O1 0.526118 0.322808 0.588257
O O2 0.372594 0.165903 0.550661
O O3 0.348496 0.313723 0.432893
O O4 0.539061 0.177073 0.460094
O O5 0.186420 0.473774 0.672729
O O6 0.345575 0.484086 0.825306
O O7 0.164655 0.611992 0.797638
O O8 0.161308 0.397717 0.847309
O O9 0.082032 0.002103 0.358855
O O10 0.196461 0.171106 0.373312
O O11 0.275587 0.961545 0.479039
O O12 0.500000 0.500000 0.000000
O O13 0.250000 0.750000 0.500000
#
# Coordination Sequence:
#
# PCOD9277244 Si02
#       6
#     8   8   8   8   8   8
#     4  10  20  40  70  91 131 175 221 273 333 401
#     4  12  24  41  69  98 135 179 225 279 336 395
#     4  11  26  42  65  99 142 175 226 273 337 411
#     4  11  18  41  66  96 123 180 226 277 325 387
#     4  10  23  42  65  95 133 178 226 268 338 405
#     4  12  24  42  70 101 136 172 223 283 332 389
#
# _framework density 23.809348
#
# number of rings (size 3 to 8) (size 9 to 14) (size 15 to 20)
#    0.000    1.000    5.000    2.500    2.333    2.667 
#    0.000    3.333    0.000    0.000    0.000    0.000 
#    0.000    0.000    0.000    0.000    0.000    0.000 
#
# Total GULP energy -133671.158600 kJ/mol
# GULP energy per Si atom -5569.631608 kJ/mol
# Density = 2.375516 g / cm^3
# Si number density = 23.809348 Si / 1000 Ang^3
#
#
#
# Elastic Constant Matrix: (Units=GPa)
#
#
# Indices 1 2 3 4 5 6 
#
# 1 116.5948 13.7368 12.2476 0.0000 -34.7596 0.0000
# 2 13.7368 115.1398 14.7313 0.0000 -17.1554 0.0000
# 3 12.2476 14.7313 64.7285 0.0000 -41.6754 0.0000
# 4 0.0000 0.0000 0.0000 20.1844 0.0000 -4.2871
# 5 -34.7596 -17.1554 -41.6754 0.0000 42.0552 0.0000
# 6 0.0000 0.0000 0.0000 -4.2871 0.0000 11.5540
#
#
#
# Elastic Compliance Matrix: (Units=1/GPa)
#
#
# Indices 1 2 3 4 5 6 
#
# 1 0.014976 0.000360 0.014224 0.000000 0.026621 0.000000
# 2 0.000360 0.009275 0.001239 0.000000 0.005309 0.000000
# 3 0.014224 0.001239 0.056277 0.000000 0.068031 0.000000
# 4 0.000000 0.000000 0.000000 0.053782 0.000000 0.019956
# 5 0.026621 0.005309 0.068031 0.000000 0.115363 0.000000
# 6 0.000000 0.000000 0.000000 0.019956 0.000000 0.093955
#
#
# Mechanical properties :
#
#
# Convention : Reuss Voigt Hill
#
# Bulk Modulus (GPa) = 8.91473 41.98829 25.45151
# Shear Modulus (GPa) = 14.31132 31.80853 23.05992
#
# Velocity S-wave (km/s) = 2.45435 3.65905 3.11549
# Velocity P-wave (km/s) = 3.43280 5.96029 4.86360
#
# Compressibility (1/GPa) = 0.11217385
#
# Stress axis : x y z
#
# Youngs Moduli (GPa) = 66.77187 107.82138 17.76912
#
# Poissons Ratio (x) = -0.03879 -0.25275
# Poissons Ratio (y) = -0.02402 -0.02202
# Poissons Ratio (z) = -0.94976 -0.13360
#
# Static dielectric constant tensor:
#      x y z
#    x 1.973920 0.000000 0.032430 
#    y 0.000000 2.364790 0.000000 
#    z 0.032430 0.000000 2.177570 
# 
# From -- ./inp_files/152046.got.cif
#   From: 2010.05.17/outbox.cif.g08.bks.cpg/sg15_77_cif.got.tgz:152046.got - 2010.06.03 18:47:42.
