data_PCOD9277203
_publ_section_title
;
Structure prediction by ZEFSAII (Michael W. Deem and Ramdas Pophale) SiO2 
 PCOD9277203
Probable space group: C 2/C
;
_chemical_formula_sum "Si O2"
_cell_formula_units_Z 56
_cell_length_a 8.233750
_cell_length_b 21.250890
_cell_length_c 15.541946
_cell_angle_alpha 90.000000
_cell_angle_beta 92.770817
_cell_angle_gamma 90.000000
_cell_volume 2716.265139
_symmetry_space_group_name_H-M "C 2/C"
_symmetry_group_IT_number 15
_symmetry_cell_setting 'monoclinic'
loop_
_space_group_symop_operation_xyz
x,y,z
-x,y,1/2-z
-x,-y,-z
x,-y,1/2+z
1/2+x,1/2+y,z
1/2-x,1/2+y,1/2-z
1/2-x,1/2-y,-z
1/2+x,1/2-y,1/2+z
loop_
_atom_site_type_symbol
_atom_site_label
_atom_site_fract_x
_atom_site_fract_y
_atom_site_fract_z
Si Si1 0.194970 0.171309 0.749000
Si Si2 0.798421 0.925017 0.098128
Si Si3 0.123526 0.455916 0.556588
Si Si4 0.943805 0.759052 0.508810
Si Si5 0.128248 0.358623 0.928853
Si Si6 0.621381 0.706224 0.185159
Si Si7 0.860872 0.887485 0.428094
O O1 0.237505 0.123084 0.825954
O O2 0.284704 0.236938 0.765476
O O3 0.230231 0.138832 0.658317
O O4 0.000000 0.181626 0.750000
O O5 0.992706 0.933220 0.094112
O O6 0.724518 0.993591 0.112470
O O7 0.720740 0.894099 0.009738
O O8 0.240146 0.417876 0.493762
O O9 0.000000 0.500000 0.500000
O O10 0.015782 0.405048 0.603334
O O11 0.750000 0.750000 0.500000
O O12 0.959966 0.827425 0.466845
O O13 0.043475 0.705236 0.461967
O O14 0.014494 0.763594 0.605897
O O15 0.252092 0.339692 0.857689
O O16 0.500000 0.675060 0.250000
#
# Coordination Sequence:
#
# PCOD9277203 Si02
#       7
#     8   8   8   8   8   8   8
#     4  10  22  40  67 104 129 167 221 285 327 390
#     4  10  20  40  69  94 131 173 222 271 330 387
#     4  10  23  39  66  91 125 177 221 270 327 397
#     4  12  22  39  68  96 135 177 214 272 346 404
#     4  11  21  41  63  96 134 169 220 269 335 409
#     4  12  25  39  65  99 139 175 217 276 343 397
#     4  11  21  40  69  98 132 172 230 274 326 401
#
# _framework density 20.616543
#
# number of rings (size 3 to 8) (size 9 to 14) (size 15 to 20)
#    0.000    1.143    4.286    3.429    0.000    0.000 
#    0.000    0.000    9.429    0.000    0.000    0.000 
#    0.000    0.000    0.000    0.000    0.000    0.000 
#
# Total GULP energy -156465.439560 kJ/mol
# GULP energy per Si atom -5588.051413 kJ/mol
# Density = 2.056962 g / cm^3
# Si number density = 20.616543 Si / 1000 Ang^3
#
#
#
# Elastic Constant Matrix: (Units=GPa)
#
#
# Indices 1 2 3 4 5 6 
#
# 1 97.2674 57.5602 37.0585 0.0000 -16.9898 0.0000
# 2 57.5602 102.8095 44.1088 0.0000 -12.0237 0.0000
# 3 37.0585 44.1088 65.4938 0.0000 -12.5296 0.0000
# 4 0.0000 0.0000 0.0000 17.6779 0.0000 6.8209
# 5 -16.9898 -12.0237 -12.5296 0.0000 31.7416 0.0000
# 6 0.0000 0.0000 0.0000 6.8209 0.0000 36.6589
#
#
#
# Elastic Compliance Matrix: (Units=1/GPa)
#
#
# Indices 1 2 3 4 5 6 
#
# 1 0.016836 -0.007273 -0.003711 0.000000 0.004791 0.000000
# 2 -0.007273 0.016904 -0.007343 0.000000 -0.000389 0.000000
# 3 -0.003711 -0.007343 0.023150 0.000000 0.004370 0.000000
# 4 0.000000 0.000000 0.000000 0.060943 0.000000 -0.011339
# 5 0.004791 -0.000389 0.004370 0.000000 0.035647 0.000000
# 6 0.000000 0.000000 0.000000 -0.011339 0.000000 0.029388
#
#
# Mechanical properties :
#
#
# Convention : Reuss Voigt Hill
#
# Bulk Modulus (GPa) = 49.42098 60.33617 54.87857
# Shear Modulus (GPa) = 22.09756 25.67188 23.88472
#
# Velocity S-wave (km/s) = 3.27744 3.53258 3.40740
# Velocity P-wave (km/s) = 6.19239 6.77999 6.49284
#
# Compressibility (1/GPa) = 0.02023432
#
# Stress axis : x y z
#
# Youngs Moduli (GPa) = 59.39639 59.15760 43.19621
#
# Poissons Ratio (x) = 0.43028 0.16031
# Poissons Ratio (y) = 0.43202 0.31720
# Poissons Ratio (z) = 0.22043 0.43441
#
# Static dielectric constant tensor:
#      x y z
#    x 1.797530 0.000000 -0.005210 
#    y 0.000000 1.791850 0.000000 
#    z -0.005210 0.000000 1.768410 
# 
# From -- ./inp_files/136469.got.cif
#   From: 2010.05.17/outbox.cif.g08.bks.cpg/sg15_69_cif.got.tgz:136469.got - 2010.06.03 18:47:42.
