data_PCOD9277975
_publ_section_title
;
Structure prediction by ZEFSAII (Michael W. Deem and Ramdas Pophale) SiO2 
 PCOD9277975
Probable space group: C 2/C
;
_chemical_formula_sum "Si O2"
_cell_formula_units_Z 56
_cell_length_a 14.258811
_cell_length_b 11.330194
_cell_length_c 28.838075
_cell_angle_alpha 90.000000
_cell_angle_beta 150.420623
_cell_angle_gamma 90.000000
_cell_volume 2299.786268
_symmetry_space_group_name_H-M "C 2/C"
_symmetry_group_IT_number 15
_symmetry_cell_setting 'monoclinic'
loop_
_space_group_symop_operation_xyz
x,y,z
-x,y,1/2-z
-x,-y,-z
x,-y,1/2+z
1/2+x,1/2+y,z
1/2-x,1/2+y,1/2-z
1/2-x,1/2-y,-z
1/2+x,1/2-y,1/2+z
loop_
_atom_site_type_symbol
_atom_site_label
_atom_site_fract_x
_atom_site_fract_y
_atom_site_fract_z
Si Si1 0.266186 0.498783 0.736153
Si Si2 0.824524 0.551102 0.034004
Si Si3 0.000000 0.005907 0.750000
Si Si4 0.804245 0.990249 0.851966
Si Si5 0.303863 0.257024 0.951009
Si Si6 0.614017 0.639738 0.381803
Si Si7 0.644038 0.344857 0.042689
Si Si8 0.500000 0.810426 0.750000
O O1 0.360873 0.556006 0.730999
O O2 0.314132 0.555662 0.806844
O O3 0.387714 0.375824 0.792467
O O4 0.043531 0.481866 0.635969
O O5 0.737731 0.616200 0.042272
O O6 0.721628 0.440844 0.965455
O O7 0.807883 0.654922 0.989556
O O8 0.134630 0.922603 0.840144
O O9 0.637031 0.894407 0.778880
O O10 0.763948 0.075152 0.877886
O O11 0.995200 0.919891 0.948190
O O12 0.137077 0.238897 0.842483
O O13 0.501583 0.259836 0.009291
O O14 0.700040 0.769369 0.416970
#
# Coordination Sequence:
#
# PCOD9277975 Si02
#       8
#     8   8   4   8   8   8   8   4
#     4  10  21  43  67  98 143 184 239 298 353 438
#     4  11  22  42  70  97 142 188 239 297 363 433
#     4   8  22  38  60  92 134 170 232 290 340 424
#     4  10  21  41  68  96 139 179 240 292 358 430
#     4  10  22  39  68  99 136 183 235 293 358 435
#     4  10  23  43  65  99 140 183 236 299 362 429
#     4  10  22  41  67  98 137 181 232 300 360 434
#     4  10  20  42  64 100 130 184 234 284 354 438
#
# _framework density 24.350088
#
# number of rings (size 3 to 8) (size 9 to 14) (size 15 to 20)
#    0.857    1.143    1.429    1.714    0.000    4.000 
#    5.143    2.857    0.000    0.000    0.000    0.000 
#    0.000    0.000    0.000    0.000    0.000    0.000 
#
# Total GULP energy -156441.430576 kJ/mol
# GULP energy per Si atom -5587.193949 kJ/mol
# Density = 2.429467 g / cm^3
# Si number density = 24.350088 Si / 1000 Ang^3
#
#
#
# Elastic Constant Matrix: (Units=GPa)
#
#
# Indices 1 2 3 4 5 6 
#
# 1 110.7877 31.7891 39.9228 0.0001 -21.6923 0.0000
# 2 31.7891 61.2783 23.2709 0.0001 0.3434 0.0000
# 3 39.9228 23.2709 116.3437 0.0001 -8.5385 0.0002
# 4 0.0001 0.0001 0.0001 10.8063 0.0002 -0.3671
# 5 -21.6923 0.3434 -8.5385 0.0002 44.7792 0.0001
# 6 0.0000 0.0000 0.0002 -0.3671 0.0001 32.5632
#
#
#
# Elastic Compliance Matrix: (Units=1/GPa)
#
#
# Indices 1 2 3 4 5 6 
#
# 1 0.012764 -0.005572 -0.002848 0.000000 0.005683 0.000000
# 2 -0.005572 0.020122 -0.002355 0.000000 -0.003303 0.000000
# 3 -0.002848 -0.002355 0.010085 0.000000 0.000561 0.000000
# 4 0.000000 0.000000 0.000000 0.092574 0.000000 0.001044
# 5 0.005683 -0.003303 0.000561 0.000000 0.025217 0.000000
# 6 0.000000 0.000000 0.000000 0.001044 0.000000 0.030721
#
#
# Mechanical properties :
#
#
# Convention : Reuss Voigt Hill
#
# Bulk Modulus (GPa) = 46.68424 53.15281 49.91853
# Shear Modulus (GPa) = 22.70916 30.52486 26.61701
#
# Velocity S-wave (km/s) = 3.05718 3.54444 3.30979
# Velocity P-wave (km/s) = 5.62810 6.21504 5.92884
#
# Compressibility (1/GPa) = 0.02142050
#
# Stress axis : x y z
#
# Youngs Moduli (GPa) = 78.34424 49.69592 99.15770
#
# Poissons Ratio (x) = 0.27689 0.28244
# Poissons Ratio (y) = 0.43651 0.23355
# Poissons Ratio (z) = 0.22316 0.11705
#
# Static dielectric constant tensor:
#      x y z
#    x 1.992320 0.000000 -0.011580 
#    y 0.000000 2.001160 0.000000 
#    z -0.011580 0.000000 1.899050 
# 
# From -- ./inp_files/313913.got.cif
#   From: 2010.05.17/outbox.cif.g08.bks.cpg/sg15_157_cif.got.tgz:313913.got - 2010.06.03 18:47:42.
