data_PCOD9277859
_publ_section_title
;
Structure prediction by ZEFSAII (Michael W. Deem and Ramdas Pophale) SiO2 
 PCOD9277859
Probable space group: C 2/C
;
_chemical_formula_sum "Si O2"
_cell_formula_units_Z 48
_cell_length_a 11.915630
_cell_length_b 21.680921
_cell_length_c 14.521579
_cell_angle_alpha 90.000000
_cell_angle_beta 35.411962
_cell_angle_gamma 90.000000
_cell_volume 2173.829854
_symmetry_space_group_name_H-M "C 2/C"
_symmetry_group_IT_number 15
_symmetry_cell_setting 'monoclinic'
loop_
_space_group_symop_operation_xyz
x,y,z
-x,y,1/2-z
-x,-y,-z
x,-y,1/2+z
1/2+x,1/2+y,z
1/2-x,1/2+y,1/2-z
1/2-x,1/2-y,-z
1/2+x,1/2-y,1/2+z
loop_
_atom_site_type_symbol
_atom_site_label
_atom_site_fract_x
_atom_site_fract_y
_atom_site_fract_z
Si Si1 0.000000 0.816360 0.250000
Si Si2 0.876584 0.404750 0.997077
Si Si3 0.500000 0.593012 0.250000
Si Si4 0.756473 0.173684 0.269983
Si Si5 0.298453 0.497369 0.517410
Si Si6 0.435634 0.296146 0.089132
Si Si7 0.708205 0.567154 0.794425
O O1 0.808071 0.858571 0.382432
O O2 0.008894 0.781973 0.341554
O O3 0.847185 0.451015 0.933342
O O4 0.848929 0.438941 0.113549
O O5 0.074205 0.367679 0.863462
O O6 0.385238 0.634679 0.254205
O O7 0.358991 0.549166 0.403104
O O8 0.681130 0.236792 0.366095
O O9 0.881110 0.191892 0.097532
O O10 0.232473 0.530131 0.654878
O O11 0.496554 0.459244 0.407413
O O12 0.316495 0.360071 0.168461
#
# Coordination Sequence:
#
# PCOD9277859 Si02
#       7
#     4   8   4   8   8   8   8
#     4  10  21  44  74 104 150 179 232 300 362 408
#     4  11  21  43  72 109 140 193 237 294 357 430
#     4  12  25  50  70 106 142 197 230 308 356 430
#     4  12  29  45  76 102 143 190 251 293 364 426
#     4  11  20  43  75 101 151 187 230 294 363 421
#     4  11  23  47  68 109 141 191 239 295 353 431
#     4  10  20  41  75 103 147 193 227 294 355 425
#
# _framework density 22.080846000000001
#
# number of rings (size 3 to 8) (size 9 to 14) (size 15 to 20)
#    0.000    1.000    6.667    2.000    0.000    4.667 
#    0.000    2.500    0.000    0.000    0.000    0.000 
#    0.000    0.000    0.000    0.000    0.000    0.000 
#
# Total GULP energy -134429.835726 kJ/mol
# GULP energy per Si atom -5601.243155 kJ/mol
# Density = 2.203059 g / cm^3
# Si number density = 22.080846 Si / 1000 Ang^3
#
#
#
# Elastic Constant Matrix: (Units=GPa)
#
#
# Indices 1 2 3 4 5 6 
#
# 1 83.9938 57.3371 52.2065 0.0154 -0.0733 0.0123
# 2 57.3371 126.6434 42.6669 0.0080 -5.8440 0.0083
# 3 52.2065 42.6669 93.3413 0.0130 2.8824 0.0124
# 4 0.0154 0.0080 0.0130 -13.8433 -0.0057 -43.0729
# 5 -0.0733 -5.8440 2.8824 -0.0057 30.8571 -0.0031
# 6 0.0123 0.0083 0.0124 -43.0729 -0.0031 -40.3124
#
#
#
# Elastic Compliance Matrix: (Units=1/GPa)
#
#
# Indices 1 2 3 4 5 6 
#
# 1 0.022560 -0.007076 -0.009371 -0.000002 -0.000411 0.000005
# 2 -0.007076 0.011700 -0.001463 0.000001 0.002336 -0.000001
# 3 -0.009371 -0.001463 0.016681 0.000001 -0.001857 0.000001
# 4 -0.000002 0.000001 0.000001 0.031076 0.000003 -0.033204
# 5 -0.000411 0.002336 -0.001857 0.000003 0.033022 -0.000005
# 6 0.000005 -0.000001 0.000001 -0.033204 -0.000005 0.010672
#
#
# Mechanical properties :
#
#
# Convention : Reuss Voigt Hill
#
# Bulk Modulus (GPa) = 66.12952 67.59994 66.86473
# Shear Modulus (GPa) = 30.01730 5.45813 17.73772
#
# Velocity S-wave (km/s) = 3.69104 1.57393 2.83734
# Velocity P-wave (km/s) = 6.94110 5.82960 6.40949
#
# Compressibility (1/GPa) = 0.01512184
#
# Stress axis : x y z
#
# Youngs Moduli (GPa) = 44.32635 85.46762 59.94972
#
# Poissons Ratio (x) = 0.60475 0.56178
# Poissons Ratio (y) = 0.31364 0.08770
# Poissons Ratio (z) = 0.41538 0.12503
#
# Static dielectric constant tensor:
#      x y z
#    x 1.811910 0.000000 -0.010900 
#    y 0.000000 1.798730 0.000000 
#    z -0.010900 0.000000 1.828000 
# 
# From -- ./inp_files/147398.got.cif
#   From: 2010.05.17/outbox.cif.g08.bks.cpg/sg15_74_cif.got.tgz:147398.got - 2010.06.03 18:47:42.
