data_PCOD9277794
_publ_section_title
;
Structure prediction by ZEFSAII (Michael W. Deem and Ramdas Pophale) SiO2 
 PCOD9277794
Probable space group: C 2/C
;
_chemical_formula_sum "Si O2"
_cell_formula_units_Z 44
_cell_length_a 14.515042
_cell_length_b 13.970930
_cell_length_c 14.150293
_cell_angle_alpha 90.000000
_cell_angle_beta 46.661577
_cell_angle_gamma 90.000000
_cell_volume 2087.037269
_symmetry_space_group_name_H-M "C 2/C"
_symmetry_group_IT_number 15
_symmetry_cell_setting 'monoclinic'
loop_
_space_group_symop_operation_xyz
x,y,z
-x,y,1/2-z
-x,-y,-z
x,-y,1/2+z
1/2+x,1/2+y,z
1/2-x,1/2+y,1/2-z
1/2-x,1/2-y,-z
1/2+x,1/2-y,1/2+z
loop_
_atom_site_type_symbol
_atom_site_label
_atom_site_fract_x
_atom_site_fract_y
_atom_site_fract_z
Si Si1 0.500000 0.530585 0.250000
Si Si2 0.229973 0.385954 0.970309
Si Si3 0.844767 0.385479 0.268214
Si Si4 0.478819 0.210388 0.008518
Si Si5 0.033048 0.537577 0.081713
Si Si6 0.068889 0.921503 0.389144
O O1 0.379368 0.598664 0.357191
O O2 0.539226 0.459322 0.306280
O O3 0.188232 0.348938 0.103537
O O4 0.156048 0.326267 0.940919
O O5 0.168994 0.493153 0.008284
O O6 0.718059 0.416452 0.304314
O O7 0.923323 0.313372 0.145814
O O8 0.929589 0.481576 0.215759
O O9 0.515976 0.148947 0.075747
O O10 0.478301 0.318685 0.041860
O O11 0.000000 0.500000 0.000000
O O12 0.000000 0.000000 0.500000
#
# Coordination Sequence:
#
# PCOD9277794 Si02
#       6
#     4   8   8   8   8   8
#     4  12  24  46  68 100 154 182 220 278 364 412
#     4  10  20  41  70 101 132 179 225 286 345 400
#     4  10  20  42  68 100 134 174 232 280 342 402
#     4  10  22  41  70  98 132 178 236 279 332 416
#     4   8  16  36  64  92 128 174 225 277 326 407
#     4  12  26  46  64 100 142 184 219 285 352 405
#
# _framework density 21.082519000000001
#
# number of rings (size 3 to 8) (size 9 to 14) (size 15 to 20)
#    0.000    2.182    1.818    5.455    0.000    3.636 
#    6.545    1.818    0.000    0.000    0.000    0.000 
#    0.000    0.000    0.000    0.000    0.000    0.000 
#
# Total GULP energy -122759.532774 kJ/mol
# GULP energy per Si atom -5579.978762 kJ/mol
# Density = 2.103453 g / cm^3
# Si number density = 21.082519 Si / 1000 Ang^3
#
#
#
# Elastic Constant Matrix: (Units=GPa)
#
#
# Indices 1 2 3 4 5 6 
#
# 1 55.7571 -12.1157 18.7769 0.0000 -14.1716 0.0000
# 2 -12.1157 119.1703 24.0646 0.0000 -13.5118 0.0000
# 3 18.7769 24.0646 98.8837 0.0000 -16.8869 0.0000
# 4 0.0000 0.0000 0.0000 15.2852 0.0000 1.8445
# 5 -14.1716 -13.5118 -16.8869 0.0000 47.3642 0.0000
# 6 0.0000 0.0000 0.0000 1.8445 0.0000 22.2240
#
#
#
# Elastic Compliance Matrix: (Units=1/GPa)
#
#
# Indices 1 2 3 4 5 6 
#
# 1 0.021624 0.003691 -0.003961 0.000000 0.006111 0.000000
# 2 0.003691 0.009613 -0.002538 0.000000 0.002942 0.000000
# 3 -0.003961 -0.002538 0.011880 0.000000 0.002326 0.000000
# 4 0.000000 0.000000 0.000000 0.066084 0.000000 -0.005485
# 5 0.006111 0.002942 0.002326 0.000000 0.024610 0.000000
# 6 0.000000 0.000000 0.000000 -0.005485 0.000000 0.045452
#
#
# Mechanical properties :
#
#
# Convention : Reuss Voigt Hill
#
# Bulk Modulus (GPa) = 26.66566 37.25144 31.95855
# Shear Modulus (GPa) = 25.33205 33.18037 29.25621
#
# Velocity S-wave (km/s) = 3.47012 3.97146 3.72923
# Velocity P-wave (km/s) = 5.36016 6.22396 5.80814
#
# Compressibility (1/GPa) = 0.03750142
#
# Stress axis : x y z
#
# Youngs Moduli (GPa) = 46.24480 104.02956 84.17548
#
# Poissons Ratio (x) = -0.38399 0.33341
# Poissons Ratio (y) = -0.17070 0.21363
# Poissons Ratio (z) = 0.18317 0.26402
#
# Static dielectric constant tensor:
#      x y z
#    x 1.456970 0.000000 -0.000990 
#    y 0.000000 1.804300 0.000000 
#    z -0.000990 0.000000 1.834720 
# 
# From -- ./inp_files/153229.got.cif
#   From: 2010.05.17/outbox.cif.g08.bks.cpg/sg15_77_cif.got.tgz:153229.got - 2010.06.03 18:47:42.
