data_PCOD9277942
_publ_section_title
;
Structure prediction by ZEFSAII (Michael W. Deem and Ramdas Pophale) SiO2 
 PCOD9277942
Probable space group: C 2/C
;
_chemical_formula_sum "Si O2"
_cell_formula_units_Z 56
_cell_length_a 12.585151
_cell_length_b 20.681694
_cell_length_c 11.254114
_cell_angle_alpha 90.000000
_cell_angle_beta 116.430208
_cell_angle_gamma 90.000000
_cell_volume 2623.073059
_symmetry_space_group_name_H-M "C 2/C"
_symmetry_group_IT_number 15
_symmetry_cell_setting 'monoclinic'
loop_
_space_group_symop_operation_xyz
x,y,z
-x,y,1/2-z
-x,-y,-z
x,-y,1/2+z
1/2+x,1/2+y,z
1/2-x,1/2+y,1/2-z
1/2-x,1/2-y,-z
1/2+x,1/2-y,1/2+z
loop_
_atom_site_type_symbol
_atom_site_label
_atom_site_fract_x
_atom_site_fract_y
_atom_site_fract_z
Si Si1 0.199278 0.327567 0.038117
Si Si2 0.630283 0.063225 0.878046
Si Si3 0.999014 0.767321 0.106917
Si Si4 0.331788 0.371800 0.323713
Si Si5 0.567851 0.491200 0.661909
Si Si6 0.724117 0.075315 0.358572
Si Si7 0.058740 0.371019 0.582916
O O1 0.262640 0.367638 0.965813
O O2 0.133627 0.259448 0.983840
O O3 0.083307 0.374315 0.998446
O O4 0.273506 0.327688 0.193782
O O5 0.500000 0.063040 0.750000
O O6 0.727815 0.108131 0.861358
O O7 0.686786 0.991620 0.903136
O O8 0.612723 0.091653 0.999588
O O9 0.054017 0.831283 0.076472
O O10 0.078081 0.706318 0.101855
O O11 0.000000 0.772987 0.250000
O O12 0.376391 0.438171 0.287666
O O13 0.500000 0.473159 0.750000
O O14 0.500000 0.500000 0.500000
O O15 0.672389 0.441871 0.682408
O O16 0.611688 0.099730 0.228353
#
# Coordination Sequence:
#
# PCOD9277942 Si02
#       7
#     8   8   8   8   8   8   8
#     4  10  20  42  62  97 126 163 222 271 319 383
#     4  11  22  36  63  98 131 172 208 269 334 393
#     4  10  21  42  61  93 128 167 224 278 311 394
#     4  11  24  40  67  94 129 180 212 271 335 381
#     4  11  26  46  65  97 137 173 224 271 338 417
#     4  11  23  37  69  94 130 167 214 277 335 384
#     4  10  21  40  61  96 134 159 219 273 322 388
#
# _framework density 21.349004999999998
#
# number of rings (size 3 to 8) (size 9 to 14) (size 15 to 20)
#    0.857    0.571    2.857    2.571    8.000    2.286 
#    2.571    0.000    0.000    0.000    0.000    0.000 
#    0.000    0.000    0.000    0.000    0.000    0.000 
#
# Total GULP energy -156218.293964 kJ/mol
# GULP energy per Si atom -5579.224784 kJ/mol
# Density = 2.130041 g / cm^3
# Si number density = 21.349005 Si / 1000 Ang^3
#
#
#
# Elastic Constant Matrix: (Units=GPa)
#
#
# Indices 1 2 3 4 5 6 
#
# 1 120.1683 49.0921 6.4499 0.0000 -8.5968 0.0000
# 2 49.0921 108.7409 1.1640 0.0000 -13.5902 0.0000
# 3 6.4499 1.1640 34.5397 0.0000 -0.8653 0.0000
# 4 0.0000 0.0000 0.0000 15.1842 0.0000 4.3421
# 5 -8.5968 -13.5902 -0.8653 0.0000 34.1460 0.0000
# 6 0.0000 0.0000 0.0000 4.3421 0.0000 -4.7534
#
#
#
# Elastic Compliance Matrix: (Units=1/GPa)
#
#
# Indices 1 2 3 4 5 6 
#
# 1 0.010328 -0.004551 -0.001757 0.000000 0.000745 0.000000
# 2 -0.004551 0.011685 0.000544 0.000000 0.003519 0.000000
# 3 -0.001757 0.000544 0.029275 0.000000 0.000516 0.000000
# 4 0.000000 0.000000 0.000000 0.052218 0.000000 0.047700
# 5 0.000745 0.003519 0.000516 0.000000 0.030887 0.000000
# 6 0.000000 0.000000 0.000000 0.047700 0.000000 -0.166804
#
#
# Mechanical properties :
#
#
# Convention : Reuss Voigt Hill
#
# Bulk Modulus (GPa) = 25.15031 41.87344 33.51187
# Shear Modulus (GPa) = -655.23448 22.69822 -316.26813
#
# Velocity S-wave (km/s) = -17.53802 3.26421 -12.18456
# Velocity P-wave (km/s) = 19.95753 5.81920 13.49889
#
# Compressibility (1/GPa) = 0.03976095
#
# Stress axis : x y z
#
# Youngs Moduli (GPa) = 96.82012 85.58211 34.15905
#
# Poissons Ratio (x) = 0.38949 0.06001
# Poissons Ratio (y) = 0.44063 -0.01859
# Poissons Ratio (z) = 0.17008 -0.04658
#
# Static dielectric constant tensor:
#      x y z
#    x 1.825770 0.000000 0.027730 
#    y 0.000000 1.796240 0.000000 
#    z 0.027730 0.000000 1.775780 
# 
# From -- ./inp_files/89666.got.cif
#   From: 2010.05.17/outbox.cif.g08.bks.cpg/sg15_45_cif.got.tgz:89666.got - 2010.06.03 18:47:42.
