data_PCOD9277877
_publ_section_title
;
Structure prediction by ZEFSAII (Michael W. Deem and Ramdas Pophale) SiO2 
 PCOD9277877
Probable space group: C 2/C
;
_chemical_formula_sum "Si O2"
_cell_formula_units_Z 60
_cell_length_a 26.142079
_cell_length_b 8.470108
_cell_length_c 18.786837
_cell_angle_alpha 90.000000
_cell_angle_beta 41.510041
_cell_angle_gamma 90.000000
_cell_volume 2756.978128
_symmetry_space_group_name_H-M "C 2/C"
_symmetry_group_IT_number 15
_symmetry_cell_setting 'monoclinic'
loop_
_space_group_symop_operation_xyz
x,y,z
-x,y,1/2-z
-x,-y,-z
x,-y,1/2+z
1/2+x,1/2+y,z
1/2-x,1/2+y,1/2-z
1/2-x,1/2-y,-z
1/2+x,1/2-y,1/2+z
loop_
_atom_site_type_symbol
_atom_site_label
_atom_site_fract_x
_atom_site_fract_y
_atom_site_fract_z
Si Si1 0.500000 0.548029 0.750000
Si Si2 0.450746 0.421224 0.653593
Si Si3 0.826842 0.500639 0.208294
Si Si4 0.282570 0.511436 0.365546
Si Si5 0.698092 0.683617 0.921464
Si Si6 0.070684 0.784446 0.430931
Si Si7 0.712130 0.754041 0.353554
Si Si8 0.162056 0.908835 0.050063
O O1 0.495156 0.452989 0.681096
O O2 0.420658 0.643890 0.834893
O O3 0.362826 0.398002 0.769870
O O4 0.494159 0.289887 0.561076
O O5 0.446983 0.581034 0.609367
O O6 0.779991 0.406176 0.318911
O O7 0.899163 0.620366 0.135957
O O8 0.755289 0.620524 0.263386
O O9 0.843221 0.363552 0.134538
O O10 0.215038 0.637129 0.425381
O O11 0.276893 0.374055 0.313615
O O12 0.281026 0.419467 0.442370
O O13 0.638866 0.669938 0.916768
O O14 0.661684 0.590747 0.025131
O O15 0.678044 0.682196 0.460610
#
# Coordination Sequence:
#
# PCOD9277877 Si02
#       8
#     4   8   8   8   8   8   8   8
#     4  10  20  42  60  88 122 170 218 260 306 394
#     4  10  22  37  64  90 126 172 219 258 323 391
#     4  11  20  35  60  93 128 158 211 268 326 370
#     4  11  20  39  61  92 127 164 215 272 319 393
#     4  11  21  37  64  95 125 163 211 273 325 381
#     4  11  20  37  60  93 125 166 215 266 318 393
#     4  11  20  35  59  93 120 162 212 270 322 380
#     4  10  23  36  63  90 122 170 216 261 323 391
#
# _framework density 21.762958000000001
#
# number of rings (size 3 to 8) (size 9 to 14) (size 15 to 20)
#    0.000    1.333    5.333    0.800    0.000    0.000 
#    0.000    0.667    0.000    3.200    0.000    0.000 
#    0.000    0.000    0.000    0.000    0.000    0.000 
#
# Total GULP energy -167042.225213 kJ/mol
# GULP energy per Si atom -5568.074174 kJ/mol
# Density = 2.171342 g / cm^3
# Si number density = 21.762958 Si / 1000 Ang^3
#
#
#
# Elastic Constant Matrix: (Units=GPa)
#
#
# Indices 1 2 3 4 5 6 
#
# 1 81.4749 18.6548 13.8995 -0.0021 15.6927 0.0009
# 2 18.6548 84.1094 23.0963 -0.0019 1.5154 0.0011
# 3 13.8995 23.0963 92.2434 -0.0028 7.1747 0.0018
# 4 -0.0021 -0.0019 -0.0028 31.8489 0.0039 9.5822
# 5 15.6927 1.5154 7.1747 0.0039 25.1620 -0.0026
# 6 0.0009 0.0011 0.0018 9.5822 -0.0026 24.1059
#
#
#
# Elastic Compliance Matrix: (Units=1/GPa)
#
#
# Indices 1 2 3 4 5 6 
#
# 1 0.014771 -0.002893 -0.000816 0.000002 -0.008805 -0.000002
# 2 -0.002893 0.013334 -0.003048 0.000000 0.001871 0.000000
# 3 -0.000816 -0.003048 0.011938 0.000002 -0.002711 -0.000002
# 4 0.000002 0.000000 0.000002 0.035663 -0.000009 -0.014176
# 5 -0.008805 0.001871 -0.002711 -0.000009 0.045894 0.000009
# 6 -0.000002 0.000000 -0.000002 -0.014176 0.000009 0.047119
#
#
# Mechanical properties :
#
#
# Convention : Reuss Voigt Hill
#
# Bulk Modulus (GPa) = 37.69640 41.01432 39.35536
# Shear Modulus (GPa) = 26.16718 29.70186 27.93452
#
# Velocity S-wave (km/s) = 3.47129 3.69831 3.58660
# Velocity P-wave (km/s) = 5.78147 6.09291 5.93923
#
# Compressibility (1/GPa) = 0.02652773
#
# Stress axis : x y z
#
# Youngs Moduli (GPa) = 67.69815 74.99441 83.76601
#
# Poissons Ratio (x) = 0.21698 0.06839
# Poissons Ratio (y) = 0.19587 0.25534
# Poissons Ratio (z) = 0.05527 0.22860
#
# Static dielectric constant tensor:
#      x y z
#    x 1.852790 0.000000 -0.017930 
#    y 0.000000 1.806750 0.000000 
#    z -0.017930 0.000000 1.864500 
# 
# From -- ./inp_files/258711.got.cif
#   From: 2010.05.17/outbox.cif.g08.bks.cpg/sg15_130_cif.got.tgz:258711.got - 2010.06.03 18:47:42.
