data_PCOD9277373
_publ_section_title
;
Structure prediction by ZEFSAII (Michael W. Deem and Ramdas Pophale) SiO2 
 PCOD9277373
Probable space group: C 2/C
;
_chemical_formula_sum "Si O2"
_cell_formula_units_Z 64
_cell_length_a 9.332607
_cell_length_b 12.660911
_cell_length_c 24.854077
_cell_angle_alpha 90.000000
_cell_angle_beta 97.508165
_cell_angle_gamma 90.000000
_cell_volume 2911.561628
_symmetry_space_group_name_H-M "C 2/C"
_symmetry_group_IT_number 15
_symmetry_cell_setting 'monoclinic'
loop_
_space_group_symop_operation_xyz
x,y,z
-x,y,1/2-z
-x,-y,-z
x,-y,1/2+z
1/2+x,1/2+y,z
1/2-x,1/2+y,1/2-z
1/2-x,1/2-y,-z
1/2+x,1/2-y,1/2+z
loop_
_atom_site_type_symbol
_atom_site_label
_atom_site_fract_x
_atom_site_fract_y
_atom_site_fract_z
Si Si1 0.770534 0.549900 0.835587
Si Si2 0.371897 0.587996 0.944591
Si Si3 0.805710 0.835160 0.546695
Si Si4 0.000917 0.921818 0.868840
Si Si5 0.596332 0.016412 0.882643
Si Si6 0.419330 0.734240 0.699633
Si Si7 0.979600 0.697315 0.406503
Si Si8 0.735893 0.057761 0.281006
O O1 0.643812 0.484177 0.857954
O O2 0.709955 0.668259 0.831870
O O3 0.773970 0.504033 0.775026
O O4 0.928412 0.545352 0.869292
O O5 0.419563 0.493300 0.908715
O O6 0.203308 0.597455 0.917226
O O7 0.476350 0.688479 0.936485
O O8 0.358738 0.573756 0.007886
O O9 0.750000 0.750000 0.500000
O O10 0.937353 0.821429 0.595202
O O11 0.663992 0.852865 0.575343
O O12 0.894208 0.913934 0.812819
O O13 0.596417 0.898612 0.911114
O O14 0.656021 0.004789 0.825007
O O15 0.500000 0.668585 0.750000
O O16 0.523213 0.769803 0.656372
O O17 0.350955 0.833211 0.726654
#
# Coordination Sequence:
#
# PCOD9277373 Si02
#       8
#     8   8   8   8   8   8   8   8
#     4  12  22  41  63  98 128 170 214 265 330 399
#     4  10  22  40  67  93 125 175 217 269 332 392
#     4  10  22  39  67  92 131 168 222 272 331 380
#     4  11  21  40  66  92 128 166 217 269 325 396
#     4  10  22  40  65  92 135 164 216 272 320 394
#     4  11  23  38  64  89 131 170 210 267 333 394
#     4  10  20  41  60  93 126 170 211 271 332 379
#     4  10  23  41  62  94 129 167 212 265 329 397
#
# _framework density 21.981331999999998
#
# number of rings (size 3 to 8) (size 9 to 14) (size 15 to 20)
#    0.000    1.500    2.500    3.375    1.750    2.500 
#    0.000    1.250    0.000    6.000    0.000    0.000 
#    0.000    0.000    0.000    0.000    0.000    0.000 
#
# Total GULP energy -178166.252567 kJ/mol
# GULP energy per Si atom -5567.695393 kJ/mol
# Density = 2.193130 g / cm^3
# Si number density = 21.981332 Si / 1000 Ang^3
#
#
#
# Elastic Constant Matrix: (Units=GPa)
#
#
# Indices 1 2 3 4 5 6 
#
# 1 95.5255 3.3854 48.5190 0.0000 -6.2548 0.0000
# 2 3.3854 44.1349 21.4055 0.0000 -5.5307 0.0000
# 3 48.5190 21.4055 76.6249 0.0000 -11.1220 0.0000
# 4 0.0000 0.0000 0.0000 35.9992 0.0000 -8.1099
# 5 -6.2548 -5.5307 -11.1220 0.0000 43.9279 0.0000
# 6 0.0000 0.0000 0.0000 -8.1099 0.0000 24.4448
#
#
#
# Elastic Compliance Matrix: (Units=1/GPa)
#
#
# Indices 1 2 3 4 5 6 
#
# 1 0.016105 0.004289 -0.011404 0.000000 -0.000054 0.000000
# 2 0.004289 0.027446 -0.010166 0.000000 0.001492 0.000000
# 3 -0.011404 -0.010166 0.023555 0.000000 0.003060 0.000000
# 4 0.000000 0.000000 0.000000 0.030022 0.000000 0.009960
# 5 -0.000054 0.001492 0.003060 0.000000 0.023720 0.000000
# 6 0.000000 0.000000 0.000000 0.009960 0.000000 0.044213
#
#
# Mechanical properties :
#
#
# Convention : Reuss Voigt Hill
#
# Bulk Modulus (GPa) = 30.72709 40.32278 35.52493
# Shear Modulus (GPa) = 23.75610 30.40608 27.08109
#
# Velocity S-wave (km/s) = 3.29103 3.72327 3.51380
# Velocity P-wave (km/s) = 5.33387 6.07186 5.71479
#
# Compressibility (1/GPa) = 0.03254457
#
# Stress axis : x y z
#
# Youngs Moduli (GPa) = 62.09278 36.43455 42.45293
#
# Poissons Ratio (x) = -0.15625 0.48411
# Poissons Ratio (y) = -0.26629 0.43159
# Poissons Ratio (z) = 0.70808 0.37040
#
# Static dielectric constant tensor:
#      x y z
#    x 1.860190 0.000000 0.027040 
#    y 0.000000 1.899960 0.000000 
#    z 0.027040 0.000000 1.817570 
# 
# From -- ./inp_files/264712.got.cif
#   From: 2010.05.17/outbox.cif.g08.bks.cpg/sg15_133_cif.got.tgz:264712.got - 2010.06.03 18:47:42.
