data_PCOD9277230
_publ_section_title
;
Structure prediction by ZEFSAII (Michael W. Deem and Ramdas Pophale) SiO2 
 PCOD9277230
Probable space group: C 2/C
;
_chemical_formula_sum "Si O2"
_cell_formula_units_Z 36
_cell_length_a 13.924585
_cell_length_b 11.992890
_cell_length_c 12.160885
_cell_angle_alpha 90.000000
_cell_angle_beta 138.676532
_cell_angle_gamma 90.000000
_cell_volume 1340.968955
_symmetry_space_group_name_H-M "C 2/C"
_symmetry_group_IT_number 15
_symmetry_cell_setting 'monoclinic'
loop_
_space_group_symop_operation_xyz
x,y,z
-x,y,1/2-z
-x,-y,-z
x,-y,1/2+z
1/2+x,1/2+y,z
1/2-x,1/2+y,1/2-z
1/2-x,1/2-y,-z
1/2+x,1/2-y,1/2+z
loop_
_atom_site_type_symbol
_atom_site_label
_atom_site_fract_x
_atom_site_fract_y
_atom_site_fract_z
Si Si1 0.000000 0.208800 0.750000
Si Si2 0.868761 0.966478 0.965370
Si Si3 0.324369 0.205100 0.330757
Si Si4 0.640742 0.141000 0.525269
Si Si5 0.659802 0.899351 0.439370
O O1 0.059834 0.117565 0.887088
O O2 0.120503 0.303524 0.887514
O O3 0.757755 0.896579 0.796956
O O4 0.779798 0.061704 0.953698
O O5 0.000000 0.000000 0.000000
O O6 0.495313 0.183824 0.461238
O O7 0.293152 0.195678 0.433289
O O8 0.270964 0.312299 0.213621
O O9 0.643121 0.010774 0.502065
O O10 0.500000 0.877582 0.250000
#
# Coordination Sequence:
#
# PCOD9277230 Si02
#       5
#     4   8   8   8   8
#     4  10  20  40  70 106 140 190 242 304 356 434
#     4  11  23  41  71 108 150 190 247 303 368 433
#     4  11  25  44  75 110 148 192 244 306 369 434
#     4  11  22  45  76 113 146 192 249 309 360 440
#     4  12  24  45  78 109 143 196 249 302 368 437
#
# _framework density 26.846260000000001
#
# number of rings (size 3 to 8) (size 9 to 14) (size 15 to 20)
#    0.000    0.889    3.333    3.333    0.000    5.333 
#    0.000    1.111    0.000    0.000    0.000    0.000 
#    0.000    0.000    0.000    0.000    0.000    0.000 
#
# Total GULP energy -100688.155106 kJ/mol
# GULP energy per Si atom -5593.786395 kJ/mol
# Density = 2.678516 g / cm^3
# Si number density = 26.846260 Si / 1000 Ang^3
#
#
#
# Elastic Constant Matrix: (Units=GPa)
#
#
# Indices 1 2 3 4 5 6 
#
# 1 134.5719 -3.2172 62.3429 0.0000 5.7264 0.0000
# 2 -3.2172 109.0324 66.2119 0.0000 -13.2819 0.0000
# 3 62.3429 66.2119 186.6687 0.0000 -25.3596 0.0000
# 4 0.0000 0.0000 0.0000 39.6882 0.0000 -9.0313
# 5 5.7264 -13.2819 -25.3596 0.0000 50.4210 0.0000
# 6 0.0000 0.0000 0.0000 -9.0313 0.0000 30.9357
#
#
#
# Elastic Compliance Matrix: (Units=1/GPa)
#
#
# Indices 1 2 3 4 5 6 
#
# 1 0.009739 0.002749 -0.004593 0.000000 -0.002692 0.000000
# 2 0.002749 0.012519 -0.005316 0.000000 0.000312 0.000000
# 3 -0.004593 -0.005316 0.009292 0.000000 0.003795 0.000000
# 4 0.000000 0.000000 0.000000 0.026989 0.000000 0.007879
# 5 -0.002692 0.000312 0.003795 0.000000 0.022130 0.000000
# 6 0.000000 0.000000 0.000000 0.007879 0.000000 0.034625
#
#
# Mechanical properties :
#
#
# Convention : Reuss Voigt Hill
#
# Bulk Modulus (GPa) = 58.04143 75.66091 66.85117
# Shear Modulus (GPa) = 36.93857 44.53801 40.73829
#
# Velocity S-wave (km/s) = 3.71338 4.07750 3.89969
# Velocity P-wave (km/s) = 6.32870 7.10016 6.72550
#
# Compressibility (1/GPa) = 0.01722907
#
# Stress axis : x y z
#
# Youngs Moduli (GPa) = 102.67716 79.87813 107.61426
#
# Poissons Ratio (x) = -0.21958 0.49432
# Poissons Ratio (y) = -0.28225 0.57211
# Poissons Ratio (z) = 0.47165 0.42465
#
# Static dielectric constant tensor:
#      x y z
#    x 2.550890 0.000000 -0.067900 
#    y 0.000000 2.151280 0.000000 
#    z -0.067900 0.000000 2.067080 
# 
# From -- ./inp_files/97255.got.cif
#   From: 2010.05.17/outbox.cif.g08.bks.cpg/sg15_49_cif.got.tgz:97255.got - 2010.06.03 18:47:42.
