data_PCOD9277752
_publ_section_title
;
Structure prediction by ZEFSAII (Michael W. Deem and Ramdas Pophale) SiO2 
 PCOD9277752
Probable space group: C 2/C
;
_chemical_formula_sum "Si O2"
_cell_formula_units_Z 44
_cell_length_a 19.025525
_cell_length_b 14.540614
_cell_length_c 15.694648
_cell_angle_alpha 90.000000
_cell_angle_beta 154.386083
_cell_angle_gamma 90.000000
_cell_volume 1876.985950
_symmetry_space_group_name_H-M "C 2/C"
_symmetry_group_IT_number 15
_symmetry_cell_setting 'monoclinic'
loop_
_space_group_symop_operation_xyz
x,y,z
-x,y,1/2-z
-x,-y,-z
x,-y,1/2+z
1/2+x,1/2+y,z
1/2-x,1/2+y,1/2-z
1/2-x,1/2-y,-z
1/2+x,1/2-y,1/2+z
loop_
_atom_site_type_symbol
_atom_site_label
_atom_site_fract_x
_atom_site_fract_y
_atom_site_fract_z
Si Si1 0.132196 0.609094 0.447266
Si Si2 0.500000 0.216568 0.750000
Si Si3 0.712383 0.680402 0.190198
Si Si4 0.724216 0.174487 0.847261
Si Si5 0.304399 0.517879 0.797633
Si Si6 0.083574 0.219472 0.727231
O O1 0.218846 0.560206 0.620557
O O2 0.288879 0.661797 0.576794
O O3 0.000000 0.550832 0.250000
O O4 0.011168 0.690859 0.344748
O O5 0.593504 0.159778 0.779177
O O6 0.377565 0.282708 0.564534
O O7 0.666229 0.742551 0.220833
O O8 0.781748 0.581387 0.287128
O O9 0.824549 0.744412 0.255665
O O10 0.560189 0.656542 0.963618
O O11 0.769580 0.087020 0.838373
O O12 0.500000 0.500000 0.000000
#
# Coordination Sequence:
#
# PCOD9277752 Si02
#       6
#     8   4   8   8   8   8
#     4  11  23  41  66 105 141 182 240 302 365 440
#     4  10  24  42  70 102 142 196 236 322 358 440
#     4  11  21  41  71  98 132 189 242 292 362 444
#     4  11  22  45  71 101 149 189 254 298 378 437
#     4  12  23  41  75 103 142 196 246 304 372 453
#     4  10  20  41  68  95 136 186 234 293 360 440
#
# _framework density 23.441837
#
# number of rings (size 3 to 8) (size 9 to 14) (size 15 to 20)
#    0.000    1.091    5.455    2.727    0.000    0.727 
#    1.636    3.636    2.000    0.000    0.000    0.000 
#    0.000    0.000    0.000    0.000    0.000    0.000 
#
# Total GULP energy -122743.857849 kJ/mol
# GULP energy per Si atom -5579.266266 kJ/mol
# Density = 2.338848 g / cm^3
# Si number density = 23.441837 Si / 1000 Ang^3
#
#
#
# Elastic Constant Matrix: (Units=GPa)
#
#
# Indices 1 2 3 4 5 6 
#
# 1 140.1836 43.4839 35.4415 -0.0002 -4.4417 -0.0002
# 2 43.4839 114.3464 12.1222 -0.0002 -10.8409 -0.0002
# 3 35.4415 12.1222 168.1277 0.0000 -9.5217 0.0000
# 4 -0.0002 -0.0002 0.0000 12.8977 -0.0001 -3.2523
# 5 -4.4417 -10.8409 -9.5217 -0.0001 24.9204 -0.0001
# 6 -0.0002 -0.0002 0.0000 -3.2523 -0.0001 15.5167
#
#
#
# Elastic Compliance Matrix: (Units=1/GPa)
#
#
# Indices 1 2 3 4 5 6 
#
# 1 0.008483 -0.003099 -0.001590 0.000000 -0.000444 0.000000
# 2 -0.003099 0.010286 0.000137 0.000000 0.003975 0.000000
# 3 -0.001590 0.000137 0.006399 0.000000 0.002221 0.000000
# 4 0.000000 0.000000 0.000000 0.081860 0.000001 0.017158
# 5 -0.000444 0.003975 0.002221 0.000001 0.042626 0.000001
# 6 0.000000 0.000000 0.000000 0.017158 0.000001 0.068043
#
#
# Mechanical properties :
#
#
# Convention : Reuss Voigt Hill
#
# Bulk Modulus (GPa) = 62.25430 67.19478 64.72454
# Shear Modulus (GPa) = 21.53716 32.77428 27.15572
#
# Velocity S-wave (km/s) = 3.03438 3.74319 3.40726
# Velocity P-wave (km/s) = 6.23628 6.88539 6.56886
#
# Compressibility (1/GPa) = 0.01606315
#
# Stress axis : x y z
#
# Youngs Moduli (GPa) = 117.88565 97.21654 156.27623
#
# Poissons Ratio (x) = 0.30131 0.24846
# Poissons Ratio (y) = 0.36537 -0.02138
# Poissons Ratio (z) = 0.18742 -0.01330
#
# Static dielectric constant tensor:
#      x y z
#    x 1.988330 0.000000 -0.021730 
#    y 0.000000 2.007350 0.000000 
#    z -0.021730 0.000000 1.992440 
# 
# From -- ./inp_files/219775.got.cif
#   From: 2010.05.17/outbox.cif.g08.bks.cpg/sg15_110_cif.got.tgz:219775.got - 2010.06.03 18:47:42.
