data_PCOD9277521
_publ_section_title
;
Structure prediction by ZEFSAII (Michael W. Deem and Ramdas Pophale) SiO2 
 PCOD9277521
Probable space group: C 2/C
;
_chemical_formula_sum "Si O2"
_cell_formula_units_Z 48
_cell_length_a 13.639015
_cell_length_b 7.480988
_cell_length_c 28.625601
_cell_angle_alpha 90.000000
_cell_angle_beta 140.235256
_cell_angle_gamma 90.000000
_cell_volume 1868.228700
_symmetry_space_group_name_H-M "C 2/C"
_symmetry_group_IT_number 15
_symmetry_cell_setting 'monoclinic'
loop_
_space_group_symop_operation_xyz
x,y,z
-x,y,1/2-z
-x,-y,-z
x,-y,1/2+z
1/2+x,1/2+y,z
1/2-x,1/2+y,1/2-z
1/2-x,1/2-y,-z
1/2+x,1/2-y,1/2+z
loop_
_atom_site_type_symbol
_atom_site_label
_atom_site_fract_x
_atom_site_fract_y
_atom_site_fract_z
Si Si1 0.879600 0.378979 0.761534
Si Si2 0.597081 0.703224 0.973552
Si Si3 0.349356 0.383848 0.569419
Si Si4 0.873433 0.798211 0.758534
Si Si5 0.715381 0.827398 0.611745
Si Si6 0.224450 0.397623 0.874469
O O1 0.885533 0.588973 0.754129
O O2 0.780436 0.331328 0.768984
O O3 0.789727 0.316363 0.682420
O O4 0.057970 0.335592 0.833479
O O5 0.566062 0.516862 0.935606
O O6 0.448981 0.827616 0.922765
O O7 0.750000 0.750000 0.000000
O O8 0.645054 0.672020 0.044292
O O9 0.250000 0.250000 0.500000
O O10 0.488251 0.335598 0.655528
O O11 0.227899 0.429593 0.566955
O O12 0.840637 0.886396 0.696192
O O13 0.750711 0.614112 0.615137
#
# Coordination Sequence:
#
# PCOD9277521 Si02
#       6
#     8   8   8   8   8   8
#     4  10  21  38  68  90 134 174 221 278 337 407
#     4  12  26  44  67 102 142 171 228 293 346 405
#     4  12  24  41  70 100 130 182 235 273 342 426
#     4  11  22  41  63 100 128 173 223 280 337 405
#     4  11  23  42  71  93 137 180 227 279 342 411
#     4  10  20  41  64  95 126 180 224 266 339 418
#
# _framework density 25.692785000000001
#
# number of rings (size 3 to 8) (size 9 to 14) (size 15 to 20)
#    0.000    1.000    3.333    4.000    2.333    0.667 
#    3.000    0.000    0.000    0.000    0.000    0.000 
#    0.000    0.000    0.000    0.000    0.000    0.000 
#
# Total GULP energy -133967.577689 kJ/mol
# GULP energy per Si atom -5581.982404 kJ/mol
# Density = 2.563431 g / cm^3
# Si number density = 25.692785 Si / 1000 Ang^3
#
#
#
# Elastic Constant Matrix: (Units=GPa)
#
#
# Indices 1 2 3 4 5 6 
#
# 1 121.5379 -6.8494 40.8475 0.0000 4.3732 0.0000
# 2 -6.8494 32.2735 20.4271 0.0000 -4.1126 0.0000
# 3 40.8475 20.4271 195.2765 0.0000 -23.3399 0.0000
# 4 0.0000 0.0000 0.0000 12.9095 0.0000 6.4801
# 5 4.3732 -4.1126 -23.3399 0.0000 47.0041 0.0000
# 6 0.0000 0.0000 0.0000 6.4801 0.0000 38.3968
#
#
#
# Elastic Compliance Matrix: (Units=1/GPa)
#
#
# Indices 1 2 3 4 5 6 
#
# 1 0.009329 0.003342 -0.002519 0.000000 -0.001826 0.000000
# 2 0.003342 0.034449 -0.004230 0.000000 0.000603 0.000000
# 3 -0.002519 -0.004230 0.006457 0.000000 0.003071 0.000000
# 4 0.000000 0.000000 0.000000 0.084632 0.000000 -0.014283
# 5 -0.001826 0.000603 0.003071 0.000000 0.023022 0.000000
# 6 0.000000 0.000000 0.000000 -0.014283 0.000000 0.028454
#
#
# Mechanical properties :
#
#
# Convention : Reuss Voigt Hill
#
# Bulk Modulus (GPa) = 23.03164 50.88202 36.95683
# Shear Modulus (GPa) = 24.08100 39.30627 31.69363
#
# Velocity S-wave (km/s) = 3.06480 3.91558 3.51602
# Velocity P-wave (km/s) = 4.63764 6.34739 5.55865
#
# Compressibility (1/GPa) = 0.04341853
#
# Stress axis : x y z
#
# Youngs Moduli (GPa) = 107.19736 29.02861 154.85988
#
# Poissons Ratio (x) = -0.09700 0.39012
# Poissons Ratio (y) = -0.35820 0.65513
# Poissons Ratio (z) = 0.27005 0.12281
#
# Static dielectric constant tensor:
#      x y z
#    x 2.070200 0.000000 0.054630 
#    y 0.000000 2.251080 0.000000 
#    z 0.054630 0.000000 2.053380 
# 
# From -- ./inp_files/312979.got.cif
#   From: 2010.05.17/outbox.cif.g08.bks.cpg/sg15_157_cif.got.tgz:312979.got - 2010.06.03 18:47:42.
