data_PCOD9277502
_publ_section_title
;
Structure prediction by ZEFSAII (Michael W. Deem and Ramdas Pophale) SiO2 
 PCOD9277502
Probable space group: C 2/C
;
_chemical_formula_sum "Si O2"
_cell_formula_units_Z 48
_cell_length_a 12.879505
_cell_length_b 24.024540
_cell_length_c 8.616988
_cell_angle_alpha 90.000000
_cell_angle_beta 45.634661
_cell_angle_gamma 90.000000
_cell_volume 1906.129893
_symmetry_space_group_name_H-M "C 2/C"
_symmetry_group_IT_number 15
_symmetry_cell_setting 'monoclinic'
loop_
_space_group_symop_operation_xyz
x,y,z
-x,y,1/2-z
-x,-y,-z
x,-y,1/2+z
1/2+x,1/2+y,z
1/2-x,1/2+y,1/2-z
1/2-x,1/2-y,-z
1/2+x,1/2-y,1/2+z
loop_
_atom_site_type_symbol
_atom_site_label
_atom_site_fract_x
_atom_site_fract_y
_atom_site_fract_z
Si Si1 0.145841 0.184438 0.522604
Si Si2 0.827918 0.680816 0.799521
Si Si3 0.458219 0.595412 0.121720
Si Si4 0.117138 0.268645 0.936120
Si Si5 0.640809 0.518714 0.717810
Si Si6 0.147968 0.607432 0.002397
O O1 0.091331 0.142408 0.444484
O O2 0.281802 0.218174 0.313841
O O3 0.223266 0.146981 0.571303
O O4 0.000000 0.209835 0.750000
O O5 0.671603 0.708709 0.935321
O O6 0.862117 0.625158 0.668484
O O7 0.945351 0.724745 0.603480
O O8 0.849022 0.686257 0.961846
O O9 0.500000 0.614205 0.250000
O O10 0.339975 0.545879 0.263310
O O11 0.589083 0.557900 0.914330
O O12 0.500000 0.523688 0.750000
O O13 0.791801 0.546772 0.515508
O O14 0.000000 0.618947 0.250000
#
# Coordination Sequence:
#
# PCOD9277502 Si02
#       6
#     8   8   8   8   8   8
#     4  12  24  41  64  98 131 170 221 267 320 393
#     4  10  24  44  67  91 131 170 215 267 327 387
#     4  10  21  37  67  93 123 167 220 265 313 378
#     4  10  24  45  64  95 128 169 219 269 318 394
#     4  10  20  41  64  91 128 168 215 266 317 382
#     4  12  23  41  63  95 134 170 208 266 333 384
#
# _framework density 25.181916000000001
#
# number of rings (size 3 to 8) (size 9 to 14) (size 15 to 20)
#    0.000    1.333    5.000    0.000    4.667    1.333 
#    3.000    0.833    3.667    0.000    0.000    0.000 
#    0.000    0.000    0.000    0.000    0.000    0.000 
#
# Total GULP energy -134161.118607 kJ/mol
# GULP energy per Si atom -5590.046609 kJ/mol
# Density = 2.512460 g / cm^3
# Si number density = 25.181916 Si / 1000 Ang^3
#
#
#
# Elastic Constant Matrix: (Units=GPa)
#
#
# Indices 1 2 3 4 5 6 
#
# 1 87.5963 28.5257 38.1094 0.0000 -2.4455 0.0000
# 2 28.5257 67.7842 33.7866 0.0000 -6.3306 0.0000
# 3 38.1094 33.7866 144.7036 0.0000 -5.0664 0.0000
# 4 0.0000 0.0000 0.0000 47.0420 0.0000 -1.2668
# 5 -2.4455 -6.3306 -5.0664 0.0000 54.4572 0.0000
# 6 0.0000 0.0000 0.0000 -1.2668 0.0000 26.8910
#
#
#
# Elastic Compliance Matrix: (Units=1/GPa)
#
#
# Indices 1 2 3 4 5 6 
#
# 1 0.014060 -0.004620 -0.002629 0.000000 -0.000150 0.000000
# 2 -0.004620 0.018351 -0.003010 0.000000 0.001646 0.000000
# 3 -0.002629 -0.003010 0.008317 0.000000 0.000306 0.000000
# 4 0.000000 0.000000 0.000000 0.021285 0.000000 0.001003
# 5 -0.000150 0.001646 0.000306 0.000000 0.018576 0.000000
# 6 0.000000 0.000000 0.000000 0.001003 0.000000 0.037234
#
#
# Mechanical properties :
#
#
# Convention : Reuss Voigt Hill
#
# Bulk Modulus (GPa) = 49.48530 55.65859 52.57195
# Shear Modulus (GPa) = 34.46374 38.98886 36.72630
#
# Velocity S-wave (km/s) = 3.70346 3.93910 3.82310
# Velocity P-wave (km/s) = 6.16290 6.54517 6.35691
#
# Compressibility (1/GPa) = 0.02020802
#
# Stress axis : x y z
#
# Youngs Moduli (GPa) = 71.12164 54.49200 120.23934
#
# Poissons Ratio (x) = 0.25178 0.31616
# Poissons Ratio (y) = 0.32862 0.36196
# Poissons Ratio (z) = 0.18701 0.16404
#
# Static dielectric constant tensor:
#      x y z
#    x 2.034950 0.000000 0.030690 
#    y 0.000000 2.040730 0.000000 
#    z 0.030690 0.000000 2.045370 
# 
# From -- ./inp_files/44397.got.cif
#   From: 2010.05.17/outbox.cif.g08.bks.cpg/sg15_23_cif.got.tgz:44397.got - 2010.06.03 18:47:42.
