data_PCOD9277054
_publ_section_title
;
Structure prediction by ZEFSAII (Michael W. Deem and Ramdas Pophale) SiO2 
 PCOD9277054
Probable space group: C 2/C
;
_chemical_formula_sum "Si O2"
_cell_formula_units_Z 60
_cell_length_a 13.878515
_cell_length_b 8.331856
_cell_length_c 22.090762
_cell_angle_alpha 90.000000
_cell_angle_beta 97.214024
_cell_angle_gamma 90.000000
_cell_volume 2534.217551
_symmetry_space_group_name_H-M "C 2/C"
_symmetry_group_IT_number 15
_symmetry_cell_setting 'monoclinic'
loop_
_space_group_symop_operation_xyz
x,y,z
-x,y,1/2-z
-x,-y,-z
x,-y,1/2+z
1/2+x,1/2+y,z
1/2-x,1/2+y,1/2-z
1/2-x,1/2-y,-z
1/2+x,1/2-y,1/2+z
loop_
_atom_site_type_symbol
_atom_site_label
_atom_site_fract_x
_atom_site_fract_y
_atom_site_fract_z
Si Si1 0.575879 0.127860 0.094885
Si Si2 0.000000 0.055985 0.750000
Si Si3 0.945059 0.526348 0.684116
Si Si4 0.937805 0.151193 0.130948
Si Si5 0.370553 0.206102 0.924016
Si Si6 0.179074 0.170001 0.691836
Si Si7 0.759131 0.321111 0.686426
Si Si8 0.427012 0.604107 0.534535
O O1 0.664674 0.227048 0.130488
O O2 0.495272 0.252852 0.065576
O O3 0.528934 0.034670 0.147228
O O4 0.605644 0.977753 0.055503
O O5 0.923372 0.161318 0.780727
O O6 0.954183 0.944844 0.694402
O O7 0.893310 0.678780 0.648052
O O8 0.867903 0.384765 0.685574
O O9 0.000000 0.573933 0.750000
O O10 0.037834 0.210900 0.104990
O O11 0.890244 0.021627 0.081892
O O12 0.282016 0.210685 0.869825
O O13 0.353509 0.314041 0.981885
O O14 0.250356 0.240168 0.748572
O O15 0.200310 0.986278 0.679971
O O16 0.500000 0.500000 0.500000
#
# Coordination Sequence:
#
# PCOD9277054 Si02
#       8
#     8   4   8   8   8   8   8   8
#     4  11  21  41  66  94 120 178 216 262 333 384
#     4  12  20  38  64  92 126 160 208 254 322 396
#     4  11  23  40  62  93 136 169 209 263 331 398
#     4  10  21  37  67  92 124 168 213 257 327 383
#     4  10  22  42  62  94 127 167 218 272 315 382
#     4  12  24  36  62  92 133 165 211 263 328 388
#     4  12  25  40  58  98 133 172 213 270 326 383
#     4  10  20  40  67  96 123 165 226 272 306 391
#
# _framework density 23.675948000000002
#
# number of rings (size 3 to 8) (size 9 to 14) (size 15 to 20)
#    0.000    1.067    4.667    2.800    3.733    0.000 
#    0.000    1.333    0.000    0.000    0.000    0.000 
#    0.000    0.000    0.000    0.000    0.000    0.000 
#
# Total GULP energy -167645.860281 kJ/mol
# GULP energy per Si atom -5588.195343 kJ/mol
# Density = 2.362206 g / cm^3
# Si number density = 23.675948 Si / 1000 Ang^3
#
#
#
# Elastic Constant Matrix: (Units=GPa)
#
#
# Indices 1 2 3 4 5 6 
#
# 1 36.6872 -7.2945 -11.9030 0.0000 5.2632 0.0000
# 2 -7.2945 97.8277 2.8160 0.0000 -1.3773 0.0000
# 3 -11.9030 2.8160 61.7737 0.0000 0.6647 0.0000
# 4 0.0000 0.0000 0.0000 -80.8365 0.0000 -17.0113
# 5 5.2632 -1.3773 0.6647 0.0000 21.1444 0.0000
# 6 0.0000 0.0000 0.0000 -17.0113 0.0000 29.6323
#
#
#
# Elastic Compliance Matrix: (Units=1/GPa)
#
#
# Indices 1 2 3 4 5 6 
#
# 1 0.030675 0.002009 0.005902 0.000000 -0.007690 0.000000
# 2 0.002009 0.010377 -0.000088 0.000000 0.000179 0.000000
# 3 0.005902 -0.000088 0.017351 0.000000 -0.002020 0.000000
# 4 0.000000 0.000000 0.000000 -0.011037 0.000000 -0.006336
# 5 -0.007690 0.000179 -0.002020 0.000000 0.049283 0.000000
# 6 0.000000 0.000000 0.000000 -0.006336 0.000000 0.030109
#
#
# Mechanical properties :
#
#
# Convention : Reuss Voigt Hill
#
# Bulk Modulus (GPa) = 13.50454 18.16952 15.83703
# Shear Modulus (GPa) = 36.82021 8.16606 22.49314
#
# Velocity S-wave (km/s) = 3.94785 1.85919 3.08562
# Velocity P-wave (km/s) = 5.14752 3.50709 4.40435
#
# Compressibility (1/GPa) = 0.07404915
#
# Stress axis : x y z
#
# Youngs Moduli (GPa) = 32.59990 96.36788 57.63331
#
# Poissons Ratio (x) = -0.19361 -0.34014
# Poissons Ratio (y) = -0.06550 0.00506
# Poissons Ratio (z) = -0.19240 0.00846
#
# Static dielectric constant tensor:
#      x y z
#    x 1.913320 0.000000 0.016420 
#    y 0.000000 1.923930 0.000000 
#    z 0.016420 0.000000 1.893020 
# 
# From -- ./inp_files/273130.got.cif
#   From: 2010.05.17/outbox.cif.g08.bks.cpg/sg15_137_cif.got.tgz:273130.got - 2010.06.03 18:47:42.
