data_PCOD9277953
_publ_section_title
;
Structure prediction by ZEFSAII (Michael W. Deem and Ramdas Pophale) SiO2 
 PCOD9277953
Probable space group: C 2/C
;
_chemical_formula_sum "Si O2"
_cell_formula_units_Z 56
_cell_length_a 23.023537
_cell_length_b 9.284435
_cell_length_c 18.215499
_cell_angle_alpha 90.000000
_cell_angle_beta 132.907126
_cell_angle_gamma 90.000000
_cell_volume 2852.012729
_symmetry_space_group_name_H-M "C 2/C"
_symmetry_group_IT_number 15
_symmetry_cell_setting 'monoclinic'
loop_
_space_group_symop_operation_xyz
x,y,z
-x,y,1/2-z
-x,-y,-z
x,-y,1/2+z
1/2+x,1/2+y,z
1/2-x,1/2+y,1/2-z
1/2-x,1/2-y,-z
1/2+x,1/2-y,1/2+z
loop_
_atom_site_type_symbol
_atom_site_label
_atom_site_fract_x
_atom_site_fract_y
_atom_site_fract_z
Si Si1 0.795775 0.284004 0.328274
Si Si2 0.194921 0.832868 0.510125
Si Si3 0.985467 0.670967 0.994871
Si Si4 0.530194 0.837395 0.858099
Si Si5 0.324837 0.643157 0.075204
Si Si6 0.250024 0.590699 0.156668
Si Si7 0.919979 0.659509 0.562562
O O1 0.775496 0.186242 0.381425
O O2 0.891563 0.299841 0.407624
O O3 0.756718 0.437822 0.309837
O O4 0.764637 0.213980 0.227842
O O5 0.250000 0.750000 0.500000
O O6 0.112702 0.746981 0.434680
O O7 0.186575 0.998737 0.481483
O O8 0.031374 0.729760 0.963113
O O9 0.012848 0.708668 0.101951
O O10 0.000000 0.500000 0.000000
O O11 0.500000 0.807617 0.750000
O O12 0.541801 0.010389 0.876265
O O13 0.318587 0.597074 0.154419
O O14 0.400578 0.730145 0.111216
O O15 0.250000 0.750000 0.000000
O O16 0.165141 0.613276 0.044480
#
# Coordination Sequence:
#
# PCOD9277953 Si02
#       7
#     8   8   8   8   8   8   8
#     4  11  23  38  64  96 125 165 217 265 322 379
#     4  11  20  42  63  85 127 167 205 269 314 377
#     4   9  18  40  62  85 127 167 212 265 306 387
#     4  10  21  38  63  93 120 170 222 254 319 383
#     4  10  22  38  62  91 124 162 211 264 321 374
#     4  11  22  40  58  98 127 157 218 262 318 388
#     4  10  20  42  63  88 131 166 214 269 316 381
#
# _framework density 19.635256999999999
#
# number of rings (size 3 to 8) (size 9 to 14) (size 15 to 20)
#    0.000    1.714    5.714    0.857    4.000    3.429 
#    0.000    5.000    0.000    0.000    0.000    0.000 
#    0.000    0.000    0.000    0.000    0.000    0.000 
#
# Total GULP energy -156116.674960 kJ/mol
# GULP energy per Si atom -5575.595534 kJ/mol
# Density = 1.959057 g / cm^3
# Si number density = 19.635257 Si / 1000 Ang^3
#
#
#
# Elastic Constant Matrix: (Units=GPa)
#
#
# Indices 1 2 3 4 5 6 
#
# 1 127.8485 26.8729 1.7364 0.0000 -28.4794 0.0000
# 2 26.8729 79.4833 -13.4231 0.0000 -6.3946 0.0000
# 3 1.7364 -13.4231 38.6651 0.0000 -14.0844 0.0000
# 4 0.0000 0.0000 0.0000 28.7889 0.0000 -9.3703
# 5 -28.4794 -6.3946 -14.0844 0.0000 16.2467 0.0000
# 6 0.0000 0.0000 0.0000 -9.3703 0.0000 32.4745
#
#
#
# Elastic Compliance Matrix: (Units=1/GPa)
#
#
# Indices 1 2 3 4 5 6 
#
# 1 0.017241 0.000215 0.015113 0.000000 0.043408 0.000000
# 2 0.000215 0.015783 0.011503 0.000000 0.016562 0.000000
# 3 0.015113 0.011503 0.059158 0.000000 0.082304 0.000000
# 4 0.000000 0.000000 0.000000 0.038336 0.000000 0.011062
# 5 0.043408 0.016562 0.082304 0.000000 0.215511 0.000000
# 6 0.000000 0.000000 0.000000 0.011062 0.000000 0.033985
#
#
# Mechanical properties :
#
#
# Convention : Reuss Voigt Hill
#
# Bulk Modulus (GPa) = 6.85664 30.70771 18.78217
# Shear Modulus (GPa) = 13.33447 30.88938 22.11193
#
# Velocity S-wave (km/s) = 2.60880 3.97061 3.35943
# Velocity P-wave (km/s) = 3.54599 6.05756 4.96327
#
# Compressibility (1/GPa) = 0.14584412
#
# Stress axis : x y z
#
# Youngs Moduli (GPa) = 58.00210 63.35772 16.90378
#
# Poissons Ratio (x) = -0.01365 -0.25546
# Poissons Ratio (y) = -0.01250 -0.19444
# Poissons Ratio (z) = -0.87657 -0.72878
#
# Static dielectric constant tensor:
#      x y z
#    x 1.715050 0.000000 -0.054080 
#    y 0.000000 1.667290 0.000000 
#    z -0.054080 0.000000 1.683490 
# 
# From -- ./inp_files/218660.got.cif
#   From: 2010.05.17/outbox.cif.g08.bks.cpg/sg15_110_cif.got.tgz:218660.got - 2010.06.03 18:47:42.
