data_PCOD9277437
_publ_section_title
;
Structure prediction by ZEFSAII (Michael W. Deem and Ramdas Pophale) SiO2 
 PCOD9277437
Probable space group: C 2/C
;
_chemical_formula_sum "Si O2"
_cell_formula_units_Z 60
_cell_length_a 10.146676
_cell_length_b 15.784411
_cell_length_c 15.918870
_cell_angle_alpha 90.000000
_cell_angle_beta 92.946768
_cell_angle_gamma 90.000000
_cell_volume 2546.183938
_symmetry_space_group_name_H-M "C 2/C"
_symmetry_group_IT_number 15
_symmetry_cell_setting 'monoclinic'
loop_
_space_group_symop_operation_xyz
x,y,z
-x,y,1/2-z
-x,-y,-z
x,-y,1/2+z
1/2+x,1/2+y,z
1/2-x,1/2+y,1/2-z
1/2-x,1/2-y,-z
1/2+x,1/2-y,1/2+z
loop_
_atom_site_type_symbol
_atom_site_label
_atom_site_fract_x
_atom_site_fract_y
_atom_site_fract_z
Si Si1 0.700301 0.034308 0.855718
Si Si2 0.439764 0.061094 0.928286
Si Si3 0.481092 0.248466 0.518803
Si Si4 0.000000 0.094135 0.250000
Si Si5 0.731421 0.281815 0.117918
Si Si6 0.367832 0.268224 0.204231
Si Si7 0.677550 0.542920 0.825806
Si Si8 0.813768 0.144814 0.389422
O O1 0.543303 0.046366 0.855831
O O2 0.758882 0.117977 0.901822
O O3 0.751360 0.034351 0.762431
O O4 0.751874 0.947734 0.898436
O O5 0.452261 0.158593 0.957018
O O6 0.292318 0.038430 0.897612
O O7 0.500000 0.000000 0.000000
O O8 0.401689 0.247286 0.428986
O O9 0.360421 0.260264 0.581661
O O10 0.588510 0.321195 0.536226
O O11 0.927324 0.032020 0.180879
O O12 0.897637 0.143412 0.304862
O O13 0.727738 0.274185 0.217665
O O14 0.500000 0.232218 0.250000
O O15 0.388911 0.364497 0.174394
O O16 0.303296 0.211063 0.131342
#
# Coordination Sequence:
#
# PCOD9277437 Si02
#       8
#     8   8   8   4   8   8   8   8
#     4   9  22  39  60  92 122 164 206 253 310 363
#     4  11  23  40  63  89 124 166 208 253 315 371
#     4  10  21  40  62  89 121 163 208 252 309 371
#     4  10  22  36  64  94 118 162 212 254 306 362
#     4   9  21  40  62  87 124 162 205 252 308 370
#     4  11  22  39  63  90 124 163 202 256 312 361
#     4  10  20  41  63  87 125 162 210 252 305 373
#     4  11  22  38  62  94 122 156 210 255 305 368
#
# _framework density 23.564677
#
# number of rings (size 3 to 8) (size 9 to 14) (size 15 to 20)
#    0.000    1.867    2.000    1.200    0.000    9.067 
#    2.400    1.333    0.000    0.000    0.000    0.000 
#    0.000    0.000    0.000    0.000    0.000    0.000 
#
# Total GULP energy -167880.152865 kJ/mol
# GULP energy per Si atom -5596.005096 kJ/mol
# Density = 2.351104 g / cm^3
# Si number density = 23.564677 Si / 1000 Ang^3
#
#
#
# Elastic Constant Matrix: (Units=GPa)
#
#
# Indices 1 2 3 4 5 6 
#
# 1 73.4210 33.9006 23.2494 0.0000 32.3947 0.0000
# 2 33.9006 93.9377 26.2259 0.0000 25.0516 0.0000
# 3 23.2494 26.2259 61.2034 0.0000 23.1031 0.0000
# 4 0.0000 0.0000 0.0000 20.3648 0.0000 5.8086
# 5 32.3947 25.0516 23.1031 0.0000 56.6327 0.0000
# 6 0.0000 0.0000 0.0000 5.8086 0.0000 36.2903
#
#
#
# Elastic Compliance Matrix: (Units=1/GPa)
#
#
# Indices 1 2 3 4 5 6 
#
# 1 0.020216 -0.004274 -0.002597 0.000000 -0.008614 0.000000
# 2 -0.004274 0.013739 -0.003419 0.000000 -0.002238 0.000000
# 3 -0.002597 -0.003419 0.020873 0.000000 -0.005517 0.000000
# 4 0.000000 0.000000 0.000000 0.051453 0.000000 -0.008236
# 5 -0.008614 -0.002238 -0.005517 0.000000 0.025826 0.000000
# 6 0.000000 0.000000 0.000000 -0.008236 0.000000 0.028874
#
#
# Mechanical properties :
#
#
# Convention : Reuss Voigt Hill
#
# Bulk Modulus (GPa) = 29.19686 43.92377 36.56031
# Shear Modulus (GPa) = 25.90989 32.33664 29.12326
#
# Velocity S-wave (km/s) = 3.31950 3.70841 3.51933
# Velocity P-wave (km/s) = 5.20664 6.08412 5.66240
#
# Compressibility (1/GPa) = 0.03425026
#
# Stress axis : x y z
#
# Youngs Moduli (GPa) = 49.46490 72.78547 47.90855
#
# Poissons Ratio (x) = 0.31105 0.12440
# Poissons Ratio (y) = 0.21139 0.16380
# Poissons Ratio (z) = 0.12844 0.24885
#
# Static dielectric constant tensor:
#      x y z
#    x 1.912830 0.000000 -0.052910 
#    y 0.000000 1.851710 0.000000 
#    z -0.052910 0.000000 1.898600 
# 
# From -- ./inp_files/198395.got.cif
#   From: 2010.05.17/outbox.cif.g08.bks.cpg/sg15_100_cif.got.tgz:198395.got - 2010.06.03 18:47:42.
