data_PCOD9277222
_publ_section_title
;
Structure prediction by ZEFSAII (Michael W. Deem and Ramdas Pophale) SiO2 
 PCOD9277222
Probable space group: C 2/C
;
_chemical_formula_sum "Si O2"
_cell_formula_units_Z 56
_cell_length_a 8.582265
_cell_length_b 14.825045
_cell_length_c 23.093788
_cell_angle_alpha 90.000000
_cell_angle_beta 115.897315
_cell_angle_gamma 90.000000
_cell_volume 2643.212385
_symmetry_space_group_name_H-M "C 2/C"
_symmetry_group_IT_number 15
_symmetry_cell_setting 'monoclinic'
loop_
_space_group_symop_operation_xyz
x,y,z
-x,y,1/2-z
-x,-y,-z
x,-y,1/2+z
1/2+x,1/2+y,z
1/2-x,1/2+y,1/2-z
1/2-x,1/2-y,-z
1/2+x,1/2-y,1/2+z
loop_
_atom_site_type_symbol
_atom_site_label
_atom_site_fract_x
_atom_site_fract_y
_atom_site_fract_z
Si Si1 0.411442 0.026517 0.145611
Si Si2 0.500000 0.163016 0.250000
Si Si3 0.218849 0.733282 0.926871
Si Si4 0.422644 0.451612 0.431268
Si Si5 0.000000 0.376161 0.250000
Si Si6 0.031682 0.342331 0.937695
Si Si7 0.789479 0.836290 0.083774
Si Si8 0.169889 0.286227 0.182662
O O1 0.519013 0.099940 0.197874
O O2 0.446764 0.058279 0.086142
O O3 0.203496 0.024781 0.118636
O O4 0.460755 0.936258 0.187582
O O5 0.324357 0.215608 0.211139
O O6 0.300554 0.633609 0.928886
O O7 0.338404 0.805764 0.913158
O O8 0.021236 0.741018 0.872198
O O9 0.250000 0.750000 0.000000
O O10 0.500000 0.500000 0.500000
O O11 0.570926 0.408446 0.415940
O O12 0.151122 0.317727 0.246429
O O13 0.133333 0.264840 0.916547
O O14 0.123478 0.341979 0.015105
O O15 0.738710 0.850821 0.142131
#
# Coordination Sequence:
#
# PCOD9277222 Si02
#       8
#     8   4   8   8   4   8   8   8
#     4  11  23  46  65  98 134 187 232 284 352 418
#     4  11  28  42  74  87 138 196 240 277 332 452
#     4  11  24  42  70 105 141 177 228 297 355 430
#     4  11  23  41  71 104 143 180 220 294 371 414
#     4  11  28  46  66  89 148 182 236 293 346 408
#     4  10  20  40  70 102 137 176 227 282 362 426
#     4  10  21  39  70 104 133 178 230 284 351 437
#     4  12  25  46  68 102 134 190 242 290 351 428
#
# _framework density 21.186340000000001
#
# number of rings (size 3 to 8) (size 9 to 14) (size 15 to 20)
#    0.000    1.143    5.714    0.000    6.000    0.000 
#    2.571    2.143    0.000    0.000    0.000    0.000 
#    0.000    0.000    0.000    0.000    0.000    0.000 
#
# Total GULP energy -156018.368278 kJ/mol
# GULP energy per Si atom -5572.084581 kJ/mol
# Density = 2.113812 g / cm^3
# Si number density = 21.186340 Si / 1000 Ang^3
#
#
#
# Elastic Constant Matrix: (Units=GPa)
#
#
# Indices 1 2 3 4 5 6 
#
# 1 113.9954 35.0267 38.7253 0.0000 5.8317 0.0000
# 2 35.0267 44.1337 31.4369 0.0000 -0.5981 0.0000
# 3 38.7253 31.4369 65.5579 0.0000 7.7031 0.0000
# 4 0.0000 0.0000 0.0000 45.1327 0.0000 -6.6680
# 5 5.8317 -0.5981 7.7031 0.0000 51.5262 0.0000
# 6 0.0000 0.0000 0.0000 -6.6680 0.0000 19.9304
#
#
#
# Elastic Compliance Matrix: (Units=1/GPa)
#
#
# Indices 1 2 3 4 5 6 
#
# 1 0.012266 -0.007081 -0.003743 0.000000 -0.000911 0.000000
# 2 -0.007081 0.038937 -0.014898 0.000000 0.003481 0.000000
# 3 -0.003743 -0.014898 0.025019 0.000000 -0.003490 0.000000
# 4 0.000000 0.000000 0.000000 0.023309 0.000000 0.007798
# 5 -0.000911 0.003481 -0.003490 0.000000 0.020073 0.000000
# 6 0.000000 0.000000 0.000000 0.007798 0.000000 0.052784
#
#
# Mechanical properties :
#
#
# Convention : Reuss Voigt Hill
#
# Bulk Modulus (GPa) = 40.35779 48.22942 44.29361
# Shear Modulus (GPa) = 21.54331 31.21773 26.38052
#
# Velocity S-wave (km/s) = 3.19227 3.84276 3.53252
# Velocity P-wave (km/s) = 5.71645 6.51943 6.13110
#
# Compressibility (1/GPa) = 0.02477836
#
# Stress axis : x y z
#
# Youngs Moduli (GPa) = 81.52460 25.68233 39.97039
#
# Poissons Ratio (x) = 0.18186 0.14961
# Poissons Ratio (y) = 0.57730 0.59546
# Poissons Ratio (z) = 0.30515 0.38260
#
# Static dielectric constant tensor:
#      x y z
#    x 1.836240 0.000000 0.023700 
#    y 0.000000 1.843670 0.000000 
#    z 0.023700 0.000000 1.807090 
# 
# From -- ./inp_files/264843.got.cif
#   From: 2010.05.17/outbox.cif.g08.bks.cpg/sg15_133_cif.got.tgz:264843.got - 2010.06.03 18:47:42.
