data_PCOD9277039
_publ_section_title
;
Structure prediction by ZEFSAII (Michael W. Deem and Ramdas Pophale) SiO2 
 PCOD9277039
Probable space group: C 2/C
;
_chemical_formula_sum "Si O2"
_cell_formula_units_Z 60
_cell_length_a 22.480654
_cell_length_b 8.087505
_cell_length_c 18.532573
_cell_angle_alpha 90.000000
_cell_angle_beta 57.333475
_cell_angle_gamma 90.000000
_cell_volume 2836.492888
_symmetry_space_group_name_H-M "C 2/C"
_symmetry_group_IT_number 15
_symmetry_cell_setting 'monoclinic'
loop_
_space_group_symop_operation_xyz
x,y,z
-x,y,1/2-z
-x,-y,-z
x,-y,1/2+z
1/2+x,1/2+y,z
1/2-x,1/2+y,1/2-z
1/2-x,1/2-y,-z
1/2+x,1/2-y,1/2+z
loop_
_atom_site_type_symbol
_atom_site_label
_atom_site_fract_x
_atom_site_fract_y
_atom_site_fract_z
Si Si1 0.024513 0.333815 0.389813
Si Si2 0.311311 0.489296 0.146787
Si Si3 0.760876 0.837099 0.822606
Si Si4 0.500000 0.797277 0.250000
Si Si5 0.052755 0.056529 0.861615
Si Si6 0.109434 0.482918 0.957711
Si Si7 0.109556 0.986661 0.674859
Si Si8 0.604135 0.324104 0.031648
O O1 0.076100 0.438384 0.406853
O O2 0.023773 0.390038 0.306620
O O3 0.946790 0.353409 0.474146
O O4 0.046963 0.142264 0.375064
O O5 0.251033 0.359000 0.165656
O O6 0.282856 0.611692 0.227188
O O7 0.378053 0.392329 0.139327
O O8 0.344214 0.584889 0.058100
O O9 0.819793 0.912662 0.836467
O O10 0.686289 0.915610 0.892228
O O11 0.437892 0.671893 0.315321
O O12 0.978317 0.134830 0.931553
O O13 0.068824 0.079800 0.766484
O O14 0.113239 0.630470 0.013502
O O15 0.119088 0.104303 0.600761
#
# Coordination Sequence:
#
# PCOD9277039 Si02
#       8
#     8   8   8   4   8   8   8   8
#     4  10  21  42  65  96 129 170 210 268 317 381
#     4  11  24  39  66  90 127 169 219 267 320 396
#     4  11  26  44  59  96 129 171 212 263 338 387
#     4  10  20  42  68  94 122 164 218 264 324 376
#     4  10  20  40  67  94 123 168 217 265 321 384
#     4  11  25  39  64  96 138 164 215 271 316 392
#     4  10  22  41  67  87 131 166 215 266 318 396
#     4  12  21  39  67  96 121 172 217 264 323 378
#
# _framework density 21.152882000000002
#
# number of rings (size 3 to 8) (size 9 to 14) (size 15 to 20)
#    0.000    1.333    4.000    2.000    7.467    1.067 
#    2.400    0.000    0.000    0.000    0.000    0.000 
#    0.000    0.000    0.000    0.000    0.000    0.000 
#
# Total GULP energy -167838.887412 kJ/mol
# GULP energy per Si atom -5594.629580 kJ/mol
# Density = 2.110474 g / cm^3
# Si number density = 21.152882 Si / 1000 Ang^3
#
#
#
# Elastic Constant Matrix: (Units=GPa)
#
#
# Indices 1 2 3 4 5 6 
#
# 1 77.0484 15.8139 39.5083 0.0000 -1.5869 -0.0001
# 2 15.8139 31.9082 23.3229 0.0004 -0.9945 0.0005
# 3 39.5083 23.3229 86.1196 0.0004 9.7303 0.0002
# 4 0.0000 0.0004 0.0004 10.2918 -0.0001 -9.2765
# 5 -1.5869 -0.9945 9.7303 -0.0001 44.5266 0.0000
# 6 -0.0001 0.0005 0.0002 -9.2765 0.0000 18.2957
#
#
#
# Elastic Compliance Matrix: (Units=1/GPa)
#
#
# Indices 1 2 3 4 5 6 
#
# 1 0.017470 -0.003184 -0.007397 0.000001 0.002168 0.000001
# 2 -0.003184 0.040124 -0.009735 -0.000004 0.002910 -0.000003
# 3 -0.007397 -0.009735 0.018144 -0.000001 -0.004446 0.000000
# 4 0.000001 -0.000004 -0.000001 0.178944 0.000001 0.090730
# 5 0.002168 0.002910 -0.004446 0.000001 0.023572 0.000000
# 6 0.000001 -0.000003 0.000000 0.090730 0.000000 0.100660
#
#
# Mechanical properties :
#
#
# Convention : Reuss Voigt Hill
#
# Bulk Modulus (GPa) = 28.48456 39.15181 33.81819
# Shear Modulus (GPa) = 11.59427 22.38491 16.98959
#
# Velocity S-wave (km/s) = 2.34373 3.25660 2.83712
# Velocity P-wave (km/s) = 4.56283 5.71749 5.17248
#
# Compressibility (1/GPa) = 0.03510673
#
# Stress axis : x y z
#
# Youngs Moduli (GPa) = 57.24065 24.92286 55.11467
#
# Poissons Ratio (x) = 0.07935 0.40770
# Poissons Ratio (y) = 0.18224 0.53651
# Poissons Ratio (z) = 0.42343 0.24261
#
# Static dielectric constant tensor:
#      x y z
#    x 1.782670 0.000000 0.019280 
#    y 0.000000 1.747880 0.000000 
#    z 0.019280 0.000000 1.753580 
# 
# From -- ./inp_files/214268.got.cif
#   From: 2010.05.17/outbox.cif.g08.bks.cpg/sg15_108_cif.got.tgz:214268.got - 2010.06.03 18:47:42.
