data_PCOD9277333
_publ_section_title
;
Structure prediction by ZEFSAII (Michael W. Deem and Ramdas Pophale) SiO2 
 PCOD9277333
Probable space group: C 2/C
;
_chemical_formula_sum "Si O2"
_cell_formula_units_Z 36
_cell_length_a 18.638683
_cell_length_b 4.694405
_cell_length_c 26.695701
_cell_angle_alpha 90.000000
_cell_angle_beta 147.385861
_cell_angle_gamma 90.000000
_cell_volume 1258.950569
_symmetry_space_group_name_H-M "C 2/C"
_symmetry_group_IT_number 15
_symmetry_cell_setting 'monoclinic'
loop_
_space_group_symop_operation_xyz
x,y,z
-x,y,1/2-z
-x,-y,-z
x,-y,1/2+z
1/2+x,1/2+y,z
1/2-x,1/2+y,1/2-z
1/2-x,1/2-y,-z
1/2+x,1/2-y,1/2+z
loop_
_atom_site_type_symbol
_atom_site_label
_atom_site_fract_x
_atom_site_fract_y
_atom_site_fract_z
Si Si1 0.802451 0.948199 0.574898
Si Si2 0.416805 0.758959 0.483139
Si Si3 0.196400 0.520587 0.788258
Si Si4 0.546687 0.418250 0.159005
Si Si5 0.500000 0.044650 0.750000
O O1 0.750000 0.750000 0.500000
O O2 0.892708 0.745598 0.661448
O O3 0.907751 0.146035 0.607150
O O4 0.690466 0.074953 0.544901
O O5 0.332652 0.547363 0.397089
O O6 0.507705 0.429391 0.429941
O O7 0.500000 0.000000 0.500000
O O8 0.124681 0.816639 0.730915
O O9 0.092127 0.376250 0.766430
O O10 0.162662 0.318475 0.721984
#
# Coordination Sequence:
#
# PCOD9277333 Si02
#       5
#     8   8   8   8   4
#     4  11  22  44  77 116 162 216 278 338 406 493
#     4  12  26  49  83 127 173 223 277 350 434 515
#     4  11  24  47  78 118 164 214 278 341 410 492
#     4  11  25  48  80 116 162 219 278 343 407 488
#     4  10  20  40  74 112 156 218 280 342 396 476
#
# _framework density 28.595245999999999
#
# number of rings (size 3 to 8) (size 9 to 14) (size 15 to 20)
#    0.000    0.889    0.000    8.667    0.000    2.667 
#    0.000   26.667    0.000    5.333    0.000    4.667 
#    0.000    0.000    0.000    0.000    0.000    0.000 
#
# Total GULP energy -100562.502286 kJ/mol
# GULP energy per Si atom -5586.805683 kJ/mol
# Density = 2.853016 g / cm^3
# Si number density = 28.595246 Si / 1000 Ang^3
#
#
#
# Elastic Constant Matrix: (Units=GPa)
#
#
# Indices 1 2 3 4 5 6 
#
# 1 505.8445 131.8733 394.2179 -0.0876 579.2302 -0.0325
# 2 131.8733 177.0289 209.8602 -0.0375 220.3897 0.0520
# 3 394.2179 209.8602 749.0149 -0.0987 727.6240 -0.1013
# 4 -0.0876 -0.0375 -0.0987 70.0527 -0.1620 0.6113
# 5 579.2302 220.3897 727.6240 -0.1620 1109.2078 -0.1917
# 6 -0.0325 0.0520 -0.1013 0.6113 -0.1917 41.4176
#
#
#
# Elastic Compliance Matrix: (Units=1/GPa)
#
#
# Indices 1 2 3 4 5 6 
#
# 1 0.004973 -0.000565 -0.000125 0.000000 -0.002402 -0.000007
# 2 -0.000565 0.008571 -0.002030 0.000001 -0.000076 -0.000017
# 3 -0.000125 -0.002030 0.004175 -0.000001 -0.002270 0.000002
# 4 0.000000 0.000001 -0.000001 0.014277 0.000002 -0.000211
# 5 -0.002402 -0.000076 -0.002270 0.000002 0.003660 0.000010
# 6 -0.000007 -0.000017 0.000002 -0.000211 0.000010 0.024148
#
#
# Mechanical properties :
#
#
# Convention : Reuss Voigt Hill
#
# Bulk Modulus (GPa) = 81.44446 322.64347 202.04397
# Shear Modulus (GPa) = 72.11243 290.53141 181.32192
#
# Velocity S-wave (km/s) = 5.02723 10.09068 7.97167
# Velocity P-wave (km/s) = 7.88930 15.77462 12.47156
#
# Compressibility (1/GPa) = 0.01227831
#
# Stress axis : x y z
#
# Youngs Moduli (GPa) = 201.10334 116.67028 239.53254
#
# Poissons Ratio (x) = 0.06594 0.02994
# Poissons Ratio (y) = 0.11366 0.48623
# Poissons Ratio (z) = 0.02514 0.23683
#
# Static dielectric constant tensor:
#      x y z
#    x 2.423320 0.000050 -0.173080 
#    y 0.000050 2.338280 -0.000070 
#    z -0.173080 -0.000070 2.440970 
# 
# From -- ./inp_files/300174.got.cif
#   From: 2010.05.17/outbox.cif.g08.bks.cpg/sg15_151_cif.got.tgz:300174.got - 2010.06.03 18:47:42.
