data_PCOD9277277
_publ_section_title
;
Structure prediction by ZEFSAII (Michael W. Deem and Ramdas Pophale) SiO2 
 PCOD9277277
Probable space group: C 2/C
;
_chemical_formula_sum "Si O2"
_cell_formula_units_Z 52
_cell_length_a 27.423136
_cell_length_b 17.304707
_cell_length_c 9.531249
_cell_angle_alpha 90.000000
_cell_angle_beta 34.341039
_cell_angle_gamma 90.000000
_cell_volume 2551.530950
_symmetry_space_group_name_H-M "C 2/C"
_symmetry_group_IT_number 15
_symmetry_cell_setting 'monoclinic'
loop_
_space_group_symop_operation_xyz
x,y,z
-x,y,1/2-z
-x,-y,-z
x,-y,1/2+z
1/2+x,1/2+y,z
1/2-x,1/2+y,1/2-z
1/2-x,1/2-y,-z
1/2+x,1/2-y,1/2+z
loop_
_atom_site_type_symbol
_atom_site_label
_atom_site_fract_x
_atom_site_fract_y
_atom_site_fract_z
Si Si1 0.078094 0.454842 0.891202
Si Si2 0.000000 0.067373 0.250000
Si Si3 0.500000 0.179377 0.750000
Si Si4 0.153966 0.947587 0.916556
Si Si5 0.237232 0.160790 0.989242
Si Si6 0.500000 0.328648 0.250000
Si Si7 0.057073 0.193994 0.314681
Si Si8 0.686092 0.039037 0.863533
O O1 0.114081 0.495516 0.944585
O O2 0.155096 0.451619 0.595961
O O3 0.000000 0.500000 0.000000
O O4 0.047497 0.372867 0.022751
O O5 0.998262 0.124578 0.120694
O O6 0.913379 0.015443 0.468587
O O7 0.441344 0.235329 0.795685
O O8 0.217444 0.900027 0.660822
O O9 0.223229 0.990400 0.854141
O O10 0.080636 0.880979 0.114417
O O11 0.151457 0.159487 0.101101
O O12 0.250000 0.250000 0.000000
O O13 0.308533 0.122353 0.723004
O O14 0.469723 0.285237 0.462506
#
# Coordination Sequence:
#
# PCOD9277277 Si02
#       8
#     8   4   4   8   8   4   8   8
#     4  12  26  46  71  96 124 180 238 288 329 395
#     4  10  20  40  70  99 137 176 230 264 334 404
#     4  11  26  47  69  93 136 176 228 283 340 403
#     4  10  22  39  70 101 137 177 225 272 329 411
#     4  11  25  41  66 102 143 177 219 285 344 397
#     4   9  22  39  67 104 139 176 214 259 342 411
#     4  10  23  42  66 100 140 181 213 277 340 403
#     4  12  24  44  71 101 130 178 232 283 336 398
#
# _framework density 20.379921
#
# number of rings (size 3 to 8) (size 9 to 14) (size 15 to 20)
#    0.000    1.231    4.615    0.000    6.462    4.308 
#    0.000    0.769    0.000    0.000    0.000    0.000 
#    0.000    0.000    0.000    0.000    0.000    0.000 
#
# Total GULP energy -144764.960151 kJ/mol
# GULP energy per Si atom -5567.883083 kJ/mol
# Density = 2.033354 g / cm^3
# Si number density = 20.379921 Si / 1000 Ang^3
#
#
#
# Elastic Constant Matrix: (Units=GPa)
#
#
# Indices 1 2 3 4 5 6 
#
# 1 82.0131 34.1624 -6.2073 0.0000 -5.0758 0.0000
# 2 34.1624 95.2619 11.7090 0.0000 11.6852 0.0000
# 3 -6.2073 11.7090 51.8119 0.0000 11.5031 0.0000
# 4 0.0000 0.0000 0.0000 -16.1374 0.0000 -16.7784
# 5 -5.0758 11.6852 11.5031 0.0000 31.7757 0.0000
# 6 0.0000 0.0000 0.0000 -16.7784 0.0000 16.1270
#
#
#
# Elastic Compliance Matrix: (Units=1/GPa)
#
#
# Indices 1 2 3 4 5 6 
#
# 1 0.015200 -0.006215 0.002370 0.000000 0.003856 0.000000
# 2 -0.006215 0.013678 -0.002717 0.000000 -0.005039 0.000000
# 3 0.002370 -0.002717 0.021631 0.000000 -0.006453 0.000000
# 4 0.000000 0.000000 0.000000 -0.029768 0.000000 -0.030970
# 5 0.003856 -0.005039 -0.006453 0.000000 0.036276 0.000000
# 6 0.000000 0.000000 0.000000 -0.030970 0.000000 0.029787
#
#
# Mechanical properties :
#
#
# Convention : Reuss Voigt Hill
#
# Bulk Modulus (GPa) = 26.74918 34.26835 30.50877
# Shear Modulus (GPa) = 44.48743 18.98124 31.73433
#
# Velocity S-wave (km/s) = 4.67723 3.05515 3.95034
# Velocity P-wave (km/s) = 6.50556 5.41262 5.98410
#
# Compressibility (1/GPa) = 0.03738432
#
# Stress axis : x y z
#
# Youngs Moduli (GPa) = 65.78906 73.10822 46.22963
#
# Poissons Ratio (x) = 0.45438 -0.10954
# Poissons Ratio (y) = 0.40889 0.12560
# Poissons Ratio (z) = -0.15589 0.19863
#
# Static dielectric constant tensor:
#      x y z
#    x 1.759090 0.000000 -0.000050 
#    y 0.000000 1.737610 0.000000 
#    z -0.000050 0.000000 1.749050 
# 
# From -- ./inp_files/66996.got.cif
#   From: 2010.05.17/outbox.cif.g08.bks.cpg/sg15_34_cif.got.tgz:66996.got - 2010.06.03 18:47:42.
