data_PCOD9277675
_publ_section_title
;
Structure prediction by ZEFSAII (Michael W. Deem and Ramdas Pophale) SiO2 
 PCOD9277675
Probable space group: C 2/C
;
_chemical_formula_sum "Si O2"
_cell_formula_units_Z 40
_cell_length_a 19.725167
_cell_length_b 6.764063
_cell_length_c 23.605726
_cell_angle_alpha 90.000000
_cell_angle_beta 148.081129
_cell_angle_gamma 90.000000
_cell_volume 1665.212753
_symmetry_space_group_name_H-M "C 2/C"
_symmetry_group_IT_number 15
_symmetry_cell_setting 'monoclinic'
loop_
_space_group_symop_operation_xyz
x,y,z
-x,y,1/2-z
-x,-y,-z
x,-y,1/2+z
1/2+x,1/2+y,z
1/2-x,1/2+y,1/2-z
1/2-x,1/2-y,-z
1/2+x,1/2-y,1/2+z
loop_
_atom_site_type_symbol
_atom_site_label
_atom_site_fract_x
_atom_site_fract_y
_atom_site_fract_z
Si Si1 0.365979 0.995537 0.333004
Si Si2 0.674632 0.506592 0.497305
Si Si3 0.560913 0.695590 0.014074
Si Si4 0.653483 0.393731 0.862089
Si Si5 0.378015 0.629080 0.282192
O O1 0.456606 0.184702 0.402309
O O2 0.221138 0.058769 0.240921
O O3 0.406977 0.846438 0.412491
O O4 0.376271 0.867737 0.283500
O O5 0.674796 0.361250 0.551186
O O6 0.687760 0.462848 0.439026
O O7 0.769254 0.690527 0.574047
O O8 0.525297 0.574203 0.393945
O O9 0.500000 0.500000 0.000000
O O10 0.500000 0.358854 0.750000
O O11 0.680503 0.455733 0.817227
#
# Coordination Sequence:
#
# PCOD9277675 Si02
#       5
#     8   8   8   8   8
#     4  11  25  38  66 106 139 175 227 283 344 416
#     4  10  20  41  67  91 133 179 225 271 344 402
#     4  11  22  42  66 101 136 181 225 283 341 409
#     4   9  21  39  68  92 127 183 223 277 338 398
#     4  11  22  39  65  97 138 175 221 278 343 399
#
# _framework density 24.020956000000002
#
# number of rings (size 3 to 8) (size 9 to 14) (size 15 to 20)
#    0.000    1.600    2.000    2.400    5.600    0.000 
#    0.000    1.000    0.000    0.000    0.000    0.000 
#    0.000    0.000    0.000    0.000    0.000    0.000 
#
# Total GULP energy -111644.948999 kJ/mol
# GULP energy per Si atom -5582.247450 kJ/mol
# Density = 2.396628 g / cm^3
# Si number density = 24.020956 Si / 1000 Ang^3
#
#
#
# Elastic Constant Matrix: (Units=GPa)
#
#
# Indices 1 2 3 4 5 6 
#
# 1 73.1210 31.9380 1.0712 0.0001 -26.5330 0.0009
# 2 31.9380 108.5491 27.9530 0.0004 0.3810 0.0026
# 3 1.0712 27.9530 73.6996 -0.0001 -8.2151 0.0001
# 4 0.0001 0.0004 -0.0001 44.7581 0.0000 3.3594
# 5 -26.5330 0.3810 -8.2151 0.0000 29.7656 0.0002
# 6 0.0009 0.0026 0.0001 3.3594 0.0002 30.5455
#
#
#
# Elastic Compliance Matrix: (Units=1/GPa)
#
#
# Indices 1 2 3 4 5 6 
#
# 1 0.027358 -0.009744 0.006222 0.000000 0.026229 0.000000
# 2 -0.009744 0.013724 -0.006244 0.000000 -0.010584 -0.000001
# 3 0.006222 -0.006244 0.016996 0.000000 0.010317 0.000000
# 4 0.000000 0.000000 0.000000 0.022528 0.000000 -0.002478
# 5 0.026229 -0.010584 0.010317 0.000000 0.059959 0.000000
# 6 0.000000 -0.000001 0.000000 -0.002478 0.000000 0.033011
#
#
# Mechanical properties :
#
#
# Convention : Reuss Voigt Hill
#
# Bulk Modulus (GPa) = 25.94209 41.92156 33.93182
# Shear Modulus (GPa) = 24.27692 33.97434 29.12563
#
# Velocity S-wave (km/s) = 3.18253 3.76488 3.48589
# Velocity P-wave (km/s) = 4.93233 6.03234 5.50985
#
# Compressibility (1/GPa) = 0.03854740
#
# Stress axis : x y z
#
# Youngs Moduli (GPa) = 36.55212 72.86376 58.83659
#
# Poissons Ratio (x) = 0.70996 -0.36606
# Poissons Ratio (y) = 0.35615 0.36735
# Poissons Ratio (z) = -0.22741 0.45493
#
# Static dielectric constant tensor:
#      x y z
#    x 2.014860 0.000000 -0.113660 
#    y 0.000000 1.946730 0.000000 
#    z -0.113660 0.000000 1.966880 
# 
# From -- ./inp_files/279100.got.cif
#   From: 2010.05.17/outbox.cif.g08.bks.cpg/sg15_140_cif.got.tgz:279100.got - 2010.06.03 18:47:42.
