data_PCOD9277836
_publ_section_title
;
Structure prediction by ZEFSAII (Michael W. Deem and Ramdas Pophale) SiO2 
 PCOD9277836
Probable space group: C 2/C
;
_chemical_formula_sum "Si O2"
_cell_formula_units_Z 40
_cell_length_a 25.568302
_cell_length_b 5.438038
_cell_length_c 23.541463
_cell_angle_alpha 90.000000
_cell_angle_beta 148.367282
_cell_angle_gamma 90.000000
_cell_volume 1716.722255
_symmetry_space_group_name_H-M "C 2/C"
_symmetry_group_IT_number 15
_symmetry_cell_setting 'monoclinic'
loop_
_space_group_symop_operation_xyz
x,y,z
-x,y,1/2-z
-x,-y,-z
x,-y,1/2+z
1/2+x,1/2+y,z
1/2-x,1/2+y,1/2-z
1/2-x,1/2-y,-z
1/2+x,1/2-y,1/2+z
loop_
_atom_site_type_symbol
_atom_site_label
_atom_site_fract_x
_atom_site_fract_y
_atom_site_fract_z
Si Si1 0.777191 0.950240 0.477239
Si Si2 0.185455 0.384709 0.693965
Si Si3 0.642087 0.090231 0.031581
Si Si4 0.151326 0.212263 0.785562
Si Si5 0.041680 0.727416 0.345358
O O1 0.750000 0.750000 0.500000
O O2 0.842019 0.846381 0.484651
O O3 0.685556 0.071477 0.359724
O O4 0.854498 0.143819 0.574769
O O5 0.240702 0.649969 0.749310
O O6 0.117281 0.397041 0.574763
O O7 0.136720 0.319504 0.708940
O O8 0.752509 0.964583 0.129168
O O9 0.568300 0.943958 0.922737
O O10 0.049356 0.103228 0.716352
O O11 0.000000 0.601850 0.250000
#
# Coordination Sequence:
#
# PCOD9277836 Si02
#       5
#     8   8   8   8   8
#     4  11  22  40  65  92 128 177 223 275 345 408
#     4  10  20  41  71  99 136 183 229 279 348 413
#     4  10  22  40  64  93 131 175 223 275 344 409
#     4  10  22  41  65  93 132 176 218 283 343 402
#     4  11  24  40  61  96 133 171 228 282 337 412
#
# _framework density 23.300218000000001
#
# number of rings (size 3 to 8) (size 9 to 14) (size 15 to 20)
#    0.000    1.600    2.000    2.400    0.000    8.000 
#    0.000    1.000    0.000    0.000    0.000    0.000 
#    0.000    0.000    0.000    0.000    0.000    0.000 
#
# Total GULP energy -111645.293962 kJ/mol
# GULP energy per Si atom -5582.264698 kJ/mol
# Density = 2.324719 g / cm^3
# Si number density = 23.300218 Si / 1000 Ang^3
#
#
#
# Elastic Constant Matrix: (Units=GPa)
#
#
# Indices 1 2 3 4 5 6 
#
# 1 117.4569 0.5735 59.3055 0.0006 -27.2178 0.0000
# 2 0.5735 40.6494 1.9315 -0.0003 -20.8574 -0.0002
# 3 59.3055 1.9315 113.7443 0.0000 -49.8251 -0.0008
# 4 0.0006 -0.0003 0.0000 12.6105 -0.0001 -15.9823
# 5 -27.2178 -20.8574 -49.8251 -0.0001 60.5816 -0.0001
# 6 0.0000 -0.0002 -0.0008 -15.9823 -0.0001 22.7360
#
#
#
# Elastic Compliance Matrix: (Units=1/GPa)
#
#
# Indices 1 2 3 4 5 6 
#
# 1 0.011566 0.000410 -0.005783 -0.000007 0.000582 -0.000005
# 2 0.000410 0.033035 0.006703 0.000015 0.017071 0.000011
# 3 -0.005783 0.006703 0.018079 0.000012 0.014579 0.000009
# 4 -0.000007 0.000015 0.000012 0.726879 0.000013 0.510961
# 5 0.000582 0.017071 0.014579 0.000013 0.034635 0.000010
# 6 -0.000005 0.000011 0.000009 0.510961 0.000010 0.403165
#
#
# Mechanical properties :
#
#
# Convention : Reuss Voigt Hill
#
# Bulk Modulus (GPa) = 15.30432 43.94129 29.62280
# Shear Modulus (GPa) = 4.01130 33.18830 18.59980
#
# Velocity S-wave (km/s) = 1.31351 3.77819 2.82843
# Velocity P-wave (km/s) = 2.98043 6.15895 4.83816
#
# Compressibility (1/GPa) = 0.06534104
#
# Stress axis : x y z
#
# Youngs Moduli (GPa) = 86.45775 30.27058 55.31257
#
# Poissons Ratio (x) = -0.01241 0.31986
# Poissons Ratio (y) = -0.03545 -0.37076
# Poissons Ratio (z) = 0.49997 -0.20290
#
# Static dielectric constant tensor:
#      x y z
#    x 1.872060 0.000000 0.018680 
#    y 0.000000 1.926440 0.000000 
#    z 0.018680 0.000000 1.935900 
# 
# From -- ./inp_files/175300.got.cif
#   From: 2010.05.17/outbox.cif.g08.bks.cpg/sg15_88_cif.got.tgz:175300.got - 2010.06.03 18:47:42.
