data_PCOD9277229
_publ_section_title
;
Structure prediction by ZEFSAII (Michael W. Deem and Ramdas Pophale) SiO2 
 PCOD9277229
Probable space group: C 2/C
;
_chemical_formula_sum "Si O2"
_cell_formula_units_Z 48
_cell_length_a 13.686963
_cell_length_b 29.140596
_cell_length_c 7.944050
_cell_angle_alpha 90.000000
_cell_angle_beta 141.013910
_cell_angle_gamma 90.000000
_cell_volume 1993.375247
_symmetry_space_group_name_H-M "C 2/C"
_symmetry_group_IT_number 15
_symmetry_cell_setting 'monoclinic'
loop_
_space_group_symop_operation_xyz
x,y,z
-x,y,1/2-z
-x,-y,-z
x,-y,1/2+z
1/2+x,1/2+y,z
1/2-x,1/2+y,1/2-z
1/2-x,1/2-y,-z
1/2+x,1/2-y,1/2+z
loop_
_atom_site_type_symbol
_atom_site_label
_atom_site_fract_x
_atom_site_fract_y
_atom_site_fract_z
Si Si1 0.798813 0.140451 0.609944
Si Si2 0.610282 0.792761 0.056435
Si Si3 0.312965 0.795556 0.849523
Si Si4 0.820006 0.452637 0.458784
Si Si5 0.819334 0.555904 0.558022
Si Si6 0.101926 0.860477 0.719230
O O1 0.684528 0.158727 0.605609
O O2 0.745379 0.170920 0.381064
O O3 0.770948 0.086218 0.560154
O O4 0.973616 0.148143 0.904057
O O5 0.500000 0.778993 0.750000
O O6 0.495933 0.793593 0.062001
O O7 0.743727 0.754981 0.241441
O O8 0.225320 0.819198 0.887768
O O9 0.775907 0.504986 0.438058
O O10 0.804791 0.443814 0.240175
O O11 0.000000 0.448384 0.750000
O O12 0.703505 0.593940 0.331481
O O13 0.000000 0.564684 0.750000
O O14 0.000000 0.864244 0.750000
#
# Coordination Sequence:
#
# PCOD9277229 Si02
#       6
#     8   8   8   8   8   8
#     4  11  23  42  70 102 139 179 231 279 342 410
#     4  10  20  40  70 106 137 174 236 288 337 407
#     4  11  23  41  73 101 138 186 231 287 340 408
#     4  11  23  44  73 104 135 175 233 279 343 413
#     4  11  26  45  72  98 140 180 232 286 343 409
#     4  12  26  45  62  98 144 181 226 287 334 409
#
# _framework density 24.07976
#
# number of rings (size 3 to 8) (size 9 to 14) (size 15 to 20)
#    0.000    1.000    1.667    8.000    7.000    0.667 
#    0.000    3.333    0.000    0.000    0.000    0.000 
#    0.000    0.000    0.000    0.000    0.000    0.000 
#
# Total GULP energy -134473.961992 kJ/mol
# GULP energy per Si atom -5603.081750 kJ/mol
# Density = 2.402495 g / cm^3
# Si number density = 24.079760 Si / 1000 Ang^3
#
#
#
# Elastic Constant Matrix: (Units=GPa)
#
#
# Indices 1 2 3 4 5 6 
#
# 1 118.3092 35.0505 19.7466 0.0000 12.6369 0.0000
# 2 35.0505 106.5938 24.6662 0.0000 18.9283 0.0000
# 3 19.7466 24.6662 81.2017 0.0000 13.9746 0.0000
# 4 0.0000 0.0000 0.0000 52.1040 0.0000 35.5306
# 5 12.6369 18.9283 13.9746 0.0000 49.9472 0.0000
# 6 0.0000 0.0000 0.0000 35.5306 0.0000 89.7650
#
#
#
# Elastic Compliance Matrix: (Units=1/GPa)
#
#
# Indices 1 2 3 4 5 6 
#
# 1 0.009574 -0.002652 -0.001343 0.000000 -0.001041 0.000000
# 2 -0.002652 0.011309 -0.002278 0.000000 -0.002977 0.000000
# 3 -0.001343 -0.002278 0.013791 0.000000 -0.002655 0.000000
# 4 0.000000 0.000000 0.000000 0.026288 0.000000 -0.010405
# 5 -0.001041 -0.002977 -0.002655 0.000000 0.022156 0.000000
# 6 0.000000 0.000000 0.000000 -0.010405 0.000000 0.015259
#
#
# Mechanical properties :
#
#
# Convention : Reuss Voigt Hill
#
# Bulk Modulus (GPa) = 45.19456 51.67013 48.43234
# Shear Modulus (GPa) = 42.26590 53.47267 47.86928
#
# Velocity S-wave (km/s) = 4.19411 4.71749 4.46348
# Velocity P-wave (km/s) = 6.50104 7.15384 6.83524
#
# Compressibility (1/GPa) = 0.02212656
#
# Stress axis : x y z
#
# Youngs Moduli (GPa) = 104.45375 88.42201 72.51311
#
# Poissons Ratio (x) = 0.23452 0.09740
# Poissons Ratio (y) = 0.27704 0.16518
# Poissons Ratio (z) = 0.14031 0.20142
#
# Static dielectric constant tensor:
#      x y z
#    x 2.027580 0.000000 -0.100530 
#    y 0.000000 1.850310 0.000000 
#    z -0.100530 0.000000 1.941480 
# 
# From -- ./inp_files/43929.got.cif
#   From: 2010.05.17/outbox.cif.g08.bks.cpg/sg15_22_cif.got.tgz:43929.got - 2010.06.03 18:47:42.
