data_PCOD9277983
_publ_section_title
;
Structure prediction by ZEFSAII (Michael W. Deem and Ramdas Pophale) SiO2 
 PCOD9277983
Probable space group: C 2/C
;
_chemical_formula_sum "Si O2"
_cell_formula_units_Z 36
_cell_length_a 21.003168
_cell_length_b 8.069013
_cell_length_c 14.415798
_cell_angle_alpha 90.000000
_cell_angle_beta 44.066985
_cell_angle_gamma 90.000000
_cell_volume 1699.183749
_symmetry_space_group_name_H-M "C 2/C"
_symmetry_group_IT_number 15
_symmetry_cell_setting 'monoclinic'
loop_
_space_group_symop_operation_xyz
x,y,z
-x,y,1/2-z
-x,-y,-z
x,-y,1/2+z
1/2+x,1/2+y,z
1/2-x,1/2+y,1/2-z
1/2-x,1/2-y,-z
1/2+x,1/2-y,1/2+z
loop_
_atom_site_type_symbol
_atom_site_label
_atom_site_fract_x
_atom_site_fract_y
_atom_site_fract_z
Si Si1 0.524669 0.305555 0.992889
Si Si2 0.872739 0.211278 0.786168
Si Si3 0.458838 0.144001 0.888081
Si Si4 0.000000 0.051609 0.250000
Si Si5 0.668397 0.149016 0.968842
O O1 0.441367 0.218665 0.137290
O O2 0.613838 0.281721 0.963160
O O3 0.500000 0.500000 0.000000
O O4 0.529868 0.197638 0.893438
O O5 0.850559 0.314280 0.902151
O O6 0.776702 0.158257 0.842840
O O7 0.934088 0.059432 0.758321
O O8 0.500000 0.066717 0.750000
O O9 0.433315 0.326778 0.877263
O O10 0.377738 0.027188 0.005173
#
# Coordination Sequence:
#
# PCOD9277983 Si02
#       5
#     8   8   8   4   8
#     4  12  21  41  66  89 132 165 203 254 314 370
#     4  11  22  42  66  92 126 165 209 252 317 373
#     4  10  22  40  64  90 125 167 205 255 310 364
#     4  10  20  42  64  86 126 170 196 256 318 360
#     4  11  24  39  66  96 124 163 210 261 306 374
#
# _framework density 21.186644000000001
#
# number of rings (size 3 to 8) (size 9 to 14) (size 15 to 20)
#    0.667    0.444    4.444    2.000    0.000    2.667 
#    0.000    2.222    0.000    0.000    0.000    0.000 
#    0.000    0.000    0.000    0.000    0.000    0.000 
#
# Total GULP energy -100255.453293 kJ/mol
# GULP energy per Si atom -5569.747405 kJ/mol
# Density = 2.113842 g / cm^3
# Si number density = 21.186644 Si / 1000 Ang^3
#
#
#
# Elastic Constant Matrix: (Units=GPa)
#
#
# Indices 1 2 3 4 5 6 
#
# 1 139.5838 33.9201 45.6262 0.0000 -22.9969 -0.0001
# 2 33.9201 77.2310 0.6192 -0.0001 -18.1443 0.0002
# 3 45.6262 0.6192 47.6990 -0.0001 -8.1351 0.0002
# 4 0.0000 -0.0001 -0.0001 15.3031 0.0000 3.4467
# 5 -22.9969 -18.1443 -8.1351 0.0000 43.0892 -0.0001
# 6 -0.0001 0.0002 0.0002 3.4467 -0.0001 5.6146
#
#
#
# Elastic Compliance Matrix: (Units=1/GPa)
#
#
# Indices 1 2 3 4 5 6 
#
# 1 0.012487 -0.004811 -0.011460 0.000000 0.002475 0.000001
# 2 -0.004811 0.016259 0.005291 0.000000 0.005278 -0.000001
# 3 -0.011460 0.005291 0.032233 0.000001 0.002197 -0.000002
# 4 0.000000 0.000000 0.000001 0.075831 0.000000 -0.046552
# 5 0.002475 0.005278 0.002197 0.000000 0.027166 0.000000
# 6 0.000001 -0.000001 -0.000002 -0.046552 0.000000 0.206685
#
#
# Mechanical properties :
#
#
# Convention : Reuss Voigt Hill
#
# Bulk Modulus (GPa) = 25.62875 47.20498 36.41686
# Shear Modulus (GPa) = 12.32664 25.09126 18.70895
#
# Velocity S-wave (km/s) = 2.41469 3.44509 2.97485
# Velocity P-wave (km/s) = 4.46063 6.17688 5.38753
#
# Compressibility (1/GPa) = 0.03901868
#
# Stress axis : x y z
#
# Youngs Moduli (GPa) = 80.08392 61.50575 31.02445
#
# Poissons Ratio (x) = 0.29590 0.35553
# Poissons Ratio (y) = 0.38528 -0.16415
# Poissons Ratio (z) = 0.91774 -0.32542
#
# Static dielectric constant tensor:
#      x y z
#    x 1.776500 0.000000 0.090930 
#    y 0.000000 1.792280 0.000000 
#    z 0.090930 0.000000 1.839380 
# 
# From -- ./inp_files/159069.got.cif
#   From: 2010.05.17/outbox.cif.g08.bks.cpg/sg15_80_cif.got.tgz:159069.got - 2010.06.03 18:47:42.
