data_PCOD9277035
_publ_section_title
;
Structure prediction by ZEFSAII (Michael W. Deem and Ramdas Pophale) SiO2 
 PCOD9277035
Probable space group: C 2/C
;
_chemical_formula_sum "Si O2"
_cell_formula_units_Z 56
_cell_length_a 29.520765
_cell_length_b 13.952500
_cell_length_c 16.104787
_cell_angle_alpha 90.000000
_cell_angle_beta 24.232614
_cell_angle_gamma 90.000000
_cell_volume 2722.617269
_symmetry_space_group_name_H-M "C 2/C"
_symmetry_group_IT_number 15
_symmetry_cell_setting 'monoclinic'
loop_
_space_group_symop_operation_xyz
x,y,z
-x,y,1/2-z
-x,-y,-z
x,-y,1/2+z
1/2+x,1/2+y,z
1/2-x,1/2+y,1/2-z
1/2-x,1/2-y,-z
1/2+x,1/2-y,1/2+z
loop_
_atom_site_type_symbol
_atom_site_label
_atom_site_fract_x
_atom_site_fract_y
_atom_site_fract_z
Si Si1 0.373339 0.567037 0.491147
Si Si2 0.516935 0.040675 0.380215
Si Si3 0.656144 0.294532 0.599476
Si Si4 0.805146 0.421347 0.703578
Si Si5 0.639384 0.779821 0.734774
Si Si6 0.387579 0.099231 0.894093
Si Si7 0.969072 0.902709 0.005546
O O1 0.500000 0.564340 0.250000
O O2 0.315353 0.649681 0.532902
O O3 0.309578 0.469330 0.580394
O O4 0.382340 0.584158 0.574598
O O5 0.558680 0.149271 0.317422
O O6 0.500000 0.000000 0.500000
O O7 0.395719 0.009011 0.549437
O O8 0.617362 0.981521 0.168157
O O9 0.750000 0.250000 0.500000
O O10 0.587879 0.201039 0.688059
O O11 0.582434 0.365047 0.776119
O O12 0.836310 0.340254 0.719605
O O13 0.801749 0.388430 0.612516
O O14 0.750000 0.750000 0.500000
O O15 0.577533 0.681696 0.859720
O O16 0.500000 0.071589 0.750000
O O17 0.000000 0.000000 0.000000
#
# Coordination Sequence:
#
# PCOD9277035 Si02
#       7
#     8   8   8   8   8   8   8
#     4  10  24  43  66  95 141 178 229 286 351 422
#     4   9  20  38  67  99 129 167 223 281 345 412
#     4  11  24  38  71  99 127 175 240 282 342 418
#     4  10  22  41  71  94 134 177 225 291 355 409
#     4  11  25  40  68 100 140 175 225 287 351 418
#     4  10  20  40  67  93 126 172 222 288 340 407
#     4  11  26  46  67  96 140 186 226 282 352 428
#
# _framework density 20.568442999999998
#
# number of rings (size 3 to 8) (size 9 to 14) (size 15 to 20)
#    0.000    1.714    0.000    4.714   14.000    0.000 
#    0.000    0.000    0.000    0.000    0.000    0.000 
#    0.000    0.000    0.000    0.000    0.000    0.000 
#
# Total GULP energy -155915.502840 kJ/mol
# GULP energy per Si atom -5568.410816 kJ/mol
# Density = 2.052163 g / cm^3
# Si number density = 20.568443 Si / 1000 Ang^3
#
#
#
# Elastic Constant Matrix: (Units=GPa)
#
#
# Indices 1 2 3 4 5 6 
#
# 1 84.4684 52.5402 33.1550 0.0000 16.6882 0.0000
# 2 52.5402 156.8592 44.7322 0.0000 19.8340 0.0000
# 3 33.1550 44.7322 51.9486 0.0000 13.1422 0.0000
# 4 0.0000 0.0000 0.0000 41.5082 0.0000 1.8958
# 5 16.6882 19.8340 13.1422 0.0000 22.2738 0.0000
# 6 0.0000 0.0000 0.0000 1.8958 0.0000 37.2308
#
#
#
# Elastic Compliance Matrix: (Units=1/GPa)
#
#
# Indices 1 2 3 4 5 6 
#
# 1 0.017829 -0.003154 -0.007046 0.000000 -0.006392 0.000000
# 2 -0.003154 0.009291 -0.005280 0.000000 -0.002794 0.000000
# 3 -0.007046 -0.005280 0.030290 0.000000 -0.007891 0.000000
# 4 0.000000 0.000000 0.000000 0.024148 0.000000 -0.001230
# 5 -0.006392 -0.002794 -0.007891 0.000000 0.056829 0.000000
# 6 0.000000 0.000000 0.000000 -0.001230 0.000000 0.026922
#
#
# Mechanical properties :
#
#
# Convention : Reuss Voigt Hill
#
# Bulk Modulus (GPa) = 37.80843 61.57011 49.68927
# Shear Modulus (GPa) = 24.38008 31.05914 27.71961
#
# Velocity S-wave (km/s) = 3.44658 3.89014 3.67505
# Velocity P-wave (km/s) = 5.85322 7.08356 6.49758
#
# Compressibility (1/GPa) = 0.02644913
#
# Stress axis : x y z
#
# Youngs Moduli (GPa) = 56.08758 107.63374 33.01471
#
# Poissons Ratio (x) = 0.33952 0.23262
# Poissons Ratio (y) = 0.17692 0.17432
# Poissons Ratio (z) = 0.39518 0.56830
#
# Static dielectric constant tensor:
#      x y z
#    x 1.847170 0.000000 0.028250 
#    y 0.000000 1.697520 0.000000 
#    z 0.028250 0.000000 1.796890 
# 
# From -- ./inp_files/178347.got.cif
#   From: 2010.05.17/outbox.cif.g08.bks.cpg/sg15_90_cif.got.tgz:178347.got - 2010.06.03 18:47:42.
