data_PCOD9277362
_publ_section_title
;
Structure prediction by ZEFSAII (Michael W. Deem and Ramdas Pophale) SiO2 
 PCOD9277362
Probable space group: C 2/C
;
_chemical_formula_sum "Si O2"
_cell_formula_units_Z 60
_cell_length_a 12.455452
_cell_length_b 19.263904
_cell_length_c 15.638615
_cell_angle_alpha 90.000000
_cell_angle_beta 122.730873
_cell_angle_gamma 90.000000
_cell_volume 3156.541094
_symmetry_space_group_name_H-M "C 2/C"
_symmetry_group_IT_number 15
_symmetry_cell_setting 'monoclinic'
loop_
_space_group_symop_operation_xyz
x,y,z
-x,y,1/2-z
-x,-y,-z
x,-y,1/2+z
1/2+x,1/2+y,z
1/2-x,1/2+y,1/2-z
1/2-x,1/2-y,-z
1/2+x,1/2-y,1/2+z
loop_
_atom_site_type_symbol
_atom_site_label
_atom_site_fract_x
_atom_site_fract_y
_atom_site_fract_z
Si Si1 0.591960 0.974422 0.115445
Si Si2 0.643166 0.187752 0.614151
Si Si3 0.000000 0.426773 0.250000
Si Si4 0.113734 0.865658 0.369074
Si Si5 0.849657 0.981333 0.656069
Si Si6 0.312347 0.799554 0.171443
Si Si7 0.514886 0.692910 0.520159
Si Si8 0.909350 0.837481 0.629551
O O1 0.609082 0.892296 0.109349
O O2 0.530735 0.975321 0.182827
O O3 0.732489 0.010023 0.172557
O O4 0.500000 0.000000 0.000000
O O5 0.777476 0.184619 0.622294
O O6 0.649906 0.217395 0.713947
O O7 0.539340 0.230201 0.517157
O O8 0.114428 0.371290 0.318619
O O9 0.160744 0.945434 0.397786
O O10 0.000000 0.865126 0.250000
O O11 0.065023 0.842186 0.439869
O O12 0.000000 0.980878 0.750000
O O13 0.826775 0.908070 0.598920
O O14 0.162177 0.809715 0.108370
O O15 0.342954 0.737125 0.118577
O O16 0.513733 0.659602 0.425453
O O17 0.000000 0.841202 0.750000
#
# Coordination Sequence:
#
# PCOD9277362 Si02
#       8
#     8   8   4   8   8   8   8   8
#     4  10  22  40  64  88 124 165 205 254 309 374
#     4  10  21  41  61  92 122 157 209 256 306 365
#     4  10  22  40  64  94 122 160 208 252 306 368
#     4  10  20  41  60  86 121 164 208 237 304 372
#     4   9  22  39  62  85 124 166 195 253 304 362
#     4  11  21  38  63  90 121 155 201 256 310 362
#     4  12  23  34  68  87 118 164 195 257 307 364
#     4  11  21  38  56  91 123 147 201 254 304 354
#
# _framework density 19.008147999999998
#
# number of rings (size 3 to 8) (size 9 to 14) (size 15 to 20)
#    0.000    1.600    3.333    1.600    5.600    0.533 
#    0.000    5.333    1.467    0.000    0.000    0.000 
#    0.000    0.000    0.000    0.000    0.000    0.000 
#
# Total GULP energy -167090.191800 kJ/mol
# GULP energy per Si atom -5569.673060 kJ/mol
# Density = 1.896488 g / cm^3
# Si number density = 19.008148 Si / 1000 Ang^3
#
#
#
# Elastic Constant Matrix: (Units=GPa)
#
#
# Indices 1 2 3 4 5 6 
#
# 1 128.6931 22.9861 49.7454 0.0000 -24.9410 0.0000
# 2 22.9861 45.5223 23.2930 0.0000 -14.9395 0.0000
# 3 49.7454 23.2930 83.4391 0.0000 -22.4451 0.0000
# 4 0.0000 0.0000 0.0000 -1.9320 0.0000 -7.8918
# 5 -24.9410 -14.9395 -22.4451 0.0000 47.6181 0.0000
# 6 0.0000 0.0000 0.0000 -7.8918 0.0000 21.7239
#
#
#
# Elastic Compliance Matrix: (Units=1/GPa)
#
#
# Indices 1 2 3 4 5 6 
#
# 1 0.010569 -0.001899 -0.005087 0.000000 0.002542 0.000000
# 2 -0.001899 0.027216 -0.005080 0.000000 0.005149 0.000000
# 3 -0.005087 -0.005080 0.017510 0.000000 0.003996 0.000000
# 4 0.000000 0.000000 0.000000 -0.208381 0.000000 -0.075700
# 5 0.002542 0.005149 0.003996 0.000000 0.025831 0.000000
# 6 0.000000 0.000000 0.000000 -0.075700 0.000000 0.018532
#
#
# Mechanical properties :
#
#
# Convention : Reuss Voigt Hill
#
# Bulk Modulus (GPa) = 32.09034 49.96704 41.02869
# Shear Modulus (GPa) = -67.38226 24.25734 -21.56246
#
# Velocity S-wave (km/s) = -5.96038 3.57621 -3.37171
# Velocity P-wave (km/s) = 5.51807 6.58761 2.54436
#
# Compressibility (1/GPa) = 0.03116202
#
# Stress axis : x y z
#
# Youngs Moduli (GPa) = 94.62005 36.74366 57.10884
#
# Poissons Ratio (x) = 0.06979 0.29050
# Poissons Ratio (y) = 0.17973 0.29011
# Poissons Ratio (z) = 0.48132 0.18666
#
# Static dielectric constant tensor:
#      x y z
#    x 1.727900 0.000000 -0.001880 
#    y 0.000000 1.685540 0.000000 
#    z -0.001880 0.000000 1.678700 
# 
# From -- ./inp_files/146107.got.cif
#   From: 2010.05.17/outbox.cif.g08.bks.cpg/sg15_74_cif.got.tgz:146107.got - 2010.06.03 18:47:42.
