data_PCOD9277078
_publ_section_title
;
Structure prediction by ZEFSAII (Michael W. Deem and Ramdas Pophale) SiO2 
 PCOD9277078
Probable space group: C 2/C
;
_chemical_formula_sum "Si O2"
_cell_formula_units_Z 56
_cell_length_a 16.482224
_cell_length_b 8.916602
_cell_length_c 15.736265
_cell_angle_alpha 90.000000
_cell_angle_beta 76.634055
_cell_angle_gamma 90.000000
_cell_volume 2250.044266
_symmetry_space_group_name_H-M "C 2/C"
_symmetry_group_IT_number 15
_symmetry_cell_setting 'monoclinic'
loop_
_space_group_symop_operation_xyz
x,y,z
-x,y,1/2-z
-x,-y,-z
x,-y,1/2+z
1/2+x,1/2+y,z
1/2-x,1/2+y,1/2-z
1/2-x,1/2-y,-z
1/2+x,1/2-y,1/2+z
loop_
_atom_site_type_symbol
_atom_site_label
_atom_site_fract_x
_atom_site_fract_y
_atom_site_fract_z
Si Si1 0.147733 0.877424 0.108900
Si Si2 0.417579 0.046637 0.156351
Si Si3 0.604416 0.601049 0.431144
Si Si4 0.330527 0.286541 0.865498
Si Si5 0.500000 0.816840 0.250000
Si Si6 0.423256 0.266608 0.004551
Si Si7 0.218389 0.294282 0.293479
Si Si8 0.500000 0.287355 0.250000
O O1 0.205845 0.788057 0.159204
O O2 0.053559 0.877244 0.168427
O O3 0.184210 0.043144 0.107290
O O4 0.140972 0.835014 0.011913
O O5 0.433350 0.125098 0.063197
O O6 0.434319 0.181471 0.217619
O O7 0.484346 0.925534 0.173385
O O8 0.332666 0.950965 0.183520
O O9 0.603842 0.421070 0.440811
O O10 0.511679 0.671841 0.446188
O O11 0.660113 0.659290 0.341161
O O12 0.417767 0.272468 0.792835
O O13 0.266005 0.224588 0.811422
O O14 0.354441 0.218962 0.951017
#
# Coordination Sequence:
#
# PCOD9277078 Si02
#       8
#     8   8   8   8   4   8   8   4
#     4  11  24  43  68  96 129 179 231 279 333 405
#     4  10  22  40  64  99 131 170 216 288 326 406
#     4  10  22  41  68 100 130 180 224 279 327 412
#     4  10  22  39  64  95 131 176 216 278 330 407
#     4   9  19  38  62  95 130 167 226 267 350 387
#     4  10  20  40  68 101 133 172 235 263 338 404
#     4  11  25  43  65  98 143 172 222 280 357 389
#     4  11  23  42  70  93 130 173 238 271 328 405
#
# _framework density 24.888397999999999
#
# number of rings (size 3 to 8) (size 9 to 14) (size 15 to 20)
#    0.000    1.714    1.429    2.571    4.000    2.286 
#    2.571    4.286    0.000    0.000    0.000    0.000 
#    0.000    0.000    0.000    0.000    0.000    0.000 
#
# Total GULP energy -156445.959178 kJ/mol
# GULP energy per Si atom -5587.355685 kJ/mol
# Density = 2.483175 g / cm^3
# Si number density = 24.888398 Si / 1000 Ang^3
#
#
#
# Elastic Constant Matrix: (Units=GPa)
#
#
# Indices 1 2 3 4 5 6 
#
# 1 73.7554 16.7840 33.9949 0.0000 21.5005 0.0000
# 2 16.7840 61.4418 46.8082 0.0000 9.9456 0.0000
# 3 33.9949 46.8082 129.4115 0.0000 42.0077 0.0000
# 4 0.0000 0.0000 0.0000 24.1471 0.0000 7.4822
# 5 21.5005 9.9456 42.0077 0.0000 39.5664 0.0000
# 6 0.0000 0.0000 0.0000 7.4822 0.0000 25.7518
#
#
#
# Elastic Compliance Matrix: (Units=1/GPa)
#
#
# Indices 1 2 3 4 5 6 
#
# 1 0.016779 -0.002551 -0.001119 0.000000 -0.007289 0.000000
# 2 -0.002551 0.023403 -0.009667 0.000000 0.005767 0.000000
# 3 -0.001119 -0.009667 0.016070 0.000000 -0.014023 0.000000
# 4 0.000000 0.000000 0.000000 0.045510 0.000000 -0.013223
# 5 -0.007289 0.005767 -0.014023 0.000000 0.042674 0.000000
# 6 0.000000 0.000000 0.000000 -0.013223 0.000000 0.042674
#
#
# Mechanical properties :
#
#
# Convention : Reuss Voigt Hill
#
# Bulk Modulus (GPa) = 33.80842 51.08697 42.44769
# Shear Modulus (GPa) = 22.35694 29.02784 25.69239
#
# Velocity S-wave (km/s) = 3.00040 3.41885 3.21643
# Velocity P-wave (km/s) = 5.06129 6.01296 5.55753
#
# Compressibility (1/GPa) = 0.02957843
#
# Stress axis : x y z
#
# Youngs Moduli (GPa) = 59.59690 42.72866 62.22864
#
# Poissons Ratio (x) = 0.10901 0.06964
# Poissons Ratio (y) = 0.15205 0.60155
# Poissons Ratio (z) = 0.06669 0.41305
#
# Static dielectric constant tensor:
#      x y z
#    x 2.065560 0.000000 0.037440 
#    y 0.000000 1.925840 0.000000 
#    z 0.037440 0.000000 2.004160 
# 
# From -- ./inp_files/166707.got.cif
#   From: 2010.05.17/outbox.cif.g08.bks.cpg/sg15_84_cif.got.tgz:166707.got - 2010.06.03 18:47:42.
