data_PCOD9277482
_publ_section_title
;
Structure prediction by ZEFSAII (Michael W. Deem and Ramdas Pophale) SiO2 
 PCOD9277482
Probable space group: C 2/C
;
_chemical_formula_sum "Si O2"
_cell_formula_units_Z 64
_cell_length_a 12.454247
_cell_length_b 12.223448
_cell_length_c 22.971121
_cell_angle_alpha 90.000000
_cell_angle_beta 107.027603
_cell_angle_gamma 90.000000
_cell_volume 3343.687540
_symmetry_space_group_name_H-M "C 2/C"
_symmetry_group_IT_number 15
_symmetry_cell_setting 'monoclinic'
loop_
_space_group_symop_operation_xyz
x,y,z
-x,y,1/2-z
-x,-y,-z
x,-y,1/2+z
1/2+x,1/2+y,z
1/2-x,1/2+y,1/2-z
1/2-x,1/2-y,-z
1/2+x,1/2-y,1/2+z
loop_
_atom_site_type_symbol
_atom_site_label
_atom_site_fract_x
_atom_site_fract_y
_atom_site_fract_z
Si Si1 0.186217 0.155465 0.953762
Si Si2 0.294761 0.115910 0.846161
Si Si3 0.389686 0.519626 0.765393
Si Si4 0.506341 0.085839 0.948232
Si Si5 0.556391 0.560791 0.593958
Si Si6 0.051419 0.180193 0.431245
Si Si7 0.055108 0.771776 0.702898
Si Si8 0.737343 0.573774 0.523345
O O1 0.228597 0.154426 0.893470
O O2 0.050264 0.141981 0.930583
O O3 0.250000 0.250000 0.000000
O O4 0.224867 0.043686 0.990816
O O5 0.215330 0.048882 0.791010
O O6 0.405923 0.056243 0.888668
O O7 0.345352 0.211823 0.814672
O O8 0.500000 0.562956 0.750000
O O9 0.397623 0.560823 0.832914
O O10 0.400580 0.389023 0.770036
O O11 0.495487 0.218020 0.957342
O O12 0.631922 0.084659 0.942946
O O13 0.500000 0.000000 0.000000
O O14 0.511896 0.436842 0.572115
O O15 0.657223 0.583794 0.566174
O O16 0.179268 0.157716 0.469049
O O17 0.038160 0.208903 0.361460
O O18 0.000000 0.714523 0.750000
#
# Coordination Sequence:
#
# PCOD9277482 Si02
#       8
#     8   8   8   8   8   8   8   8
#     4  11  23  37  65  96 131 164 202 260 332 381
#     4  11  23  41  65  90 128 162 207 256 323 381
#     4  10  20  41  64  87 118 162 219 259 294 374
#     4  11  23  38  57  90 128 166 194 249 322 373
#     4  10  22  39  65  93 121 164 217 263 305 365
#     4   9  20  39  61  88 123 160 213 256 299 371
#     4   9  21  36  63  88 116 166 212 252 306 366
#     4  11  23  37  60  94 127 163 205 256 311 374
#
# _framework density 19.140544999999999
#
# number of rings (size 3 to 8) (size 9 to 14) (size 15 to 20)
#    0.000    1.750    2.500    1.875   10.500    2.000 
#    0.000    2.500    0.000    0.000    0.000    0.000 
#    0.000    0.000    0.000    0.000    0.000    0.000 
#
# Total GULP energy -178399.247356 kJ/mol
# GULP energy per Si atom -5574.976480 kJ/mol
# Density = 1.909698 g / cm^3
# Si number density = 19.140545 Si / 1000 Ang^3
#
#
#
# Elastic Constant Matrix: (Units=GPa)
#
#
# Indices 1 2 3 4 5 6 
#
# 1 159.7053 38.4602 88.3537 0.0000 5.8711 0.0000
# 2 38.4602 78.7242 67.8479 0.0000 9.6982 0.0000
# 3 88.3537 67.8479 148.7079 0.0000 7.6398 0.0000
# 4 0.0000 0.0000 0.0000 30.7774 0.0000 5.3258
# 5 5.8711 9.6982 7.6398 0.0000 51.0913 0.0000
# 6 0.0000 0.0000 0.0000 5.3258 0.0000 19.4341
#
#
#
# Elastic Compliance Matrix: (Units=1/GPa)
#
#
# Indices 1 2 3 4 5 6 
#
# 1 0.009338 0.000400 -0.005716 0.000000 -0.000294 0.000000
# 2 0.000400 0.021290 -0.009817 0.000000 -0.002619 0.000000
# 3 -0.005716 -0.009817 0.014582 0.000000 0.000340 0.000000
# 4 0.000000 0.000000 0.000000 0.034109 0.000000 -0.009347
# 5 -0.000294 -0.002619 0.000340 0.000000 0.020053 0.000000
# 6 0.000000 0.000000 0.000000 -0.009347 0.000000 0.054018
#
#
# Mechanical properties :
#
#
# Convention : Reuss Voigt Hill
#
# Bulk Modulus (GPa) = 66.90872 86.27346 76.59109
# Shear Modulus (GPa) = 26.50600 33.09224 29.79912
#
# Velocity S-wave (km/s) = 3.72534 4.16252 3.94999
# Velocity P-wave (km/s) = 7.31687 8.26279 7.80418
#
# Compressibility (1/GPa) = 0.01494573
#
# Stress axis : x y z
#
# Youngs Moduli (GPa) = 107.08921 46.96945 68.57788
#
# Poissons Ratio (x) = -0.01879 0.39196
# Poissons Ratio (y) = -0.04285 0.67322
# Poissons Ratio (z) = 0.61207 0.46110
#
# Static dielectric constant tensor:
#      x y z
#    x 1.708110 0.000000 -0.008170 
#    y 0.000000 1.710630 0.000000 
#    z -0.008170 0.000000 1.687620 
# 
# From -- ./inp_files/268916.got.cif
#   From: 2010.05.17/outbox.cif.g08.bks.cpg/sg15_135_cif.got.tgz:268916.got - 2010.06.03 18:47:42.
