data_PCOD9277389
_publ_section_title
;
Structure prediction by ZEFSAII (Michael W. Deem and Ramdas Pophale) SiO2 
 PCOD9277389
Probable space group: C 2/C
;
_chemical_formula_sum "Si O2"
_cell_formula_units_Z 60
_cell_length_a 17.067366
_cell_length_b 18.730969
_cell_length_c 12.011122
_cell_angle_alpha 90.000000
_cell_angle_beta 38.610306
_cell_angle_gamma 90.000000
_cell_volume 2396.122111
_symmetry_space_group_name_H-M "C 2/C"
_symmetry_group_IT_number 15
_symmetry_cell_setting 'monoclinic'
loop_
_space_group_symop_operation_xyz
x,y,z
-x,y,1/2-z
-x,-y,-z
x,-y,1/2+z
1/2+x,1/2+y,z
1/2-x,1/2+y,1/2-z
1/2-x,1/2-y,-z
1/2+x,1/2-y,1/2+z
loop_
_atom_site_type_symbol
_atom_site_label
_atom_site_fract_x
_atom_site_fract_y
_atom_site_fract_z
Si Si1 0.047420 0.941798 0.360546
Si Si2 0.794011 0.065341 0.371248
Si Si3 0.889105 0.728140 0.527527
Si Si4 0.500000 0.664254 0.250000
Si Si5 0.208320 0.117906 0.385550
Si Si6 0.882970 0.794777 0.095716
Si Si7 0.438350 0.068296 0.715902
Si Si8 0.995400 0.592119 0.108791
O O1 0.090342 0.870897 0.376108
O O2 0.916394 0.926229 0.442674
O O3 0.167129 0.982832 0.181156
O O4 0.000000 0.000000 0.500000
O O5 0.909370 0.113239 0.281799
O O6 0.767614 0.098538 0.275321
O O7 0.700488 0.065835 0.580788
O O8 0.841792 0.802551 0.525828
O O9 0.764982 0.717112 0.738660
O O10 0.021704 0.744634 0.440765
O O11 0.919533 0.654191 0.431033
O O12 0.425438 0.709145 0.422179
O O13 0.345685 0.104273 0.280854
O O14 0.500000 0.110633 0.750000
O O15 0.508944 0.990738 0.628792
O O16 0.456515 0.096840 0.572748
#
# Coordination Sequence:
#
# PCOD9277389 Si02
#       8
#     8   8   8   4   8   8   8   8
#     4   9  19  37  62  85 119 169 204 263 310 375
#     4  11  22  38  63  92 130 164 213 268 318 392
#     4  11  22  42  61  90 125 178 214 258 319 400
#     4  12  22  36  56  96 126 162 212 256 322 394
#     4  10  20  41  61  92 127 169 215 261 319 381
#     4  11  23  38  61  90 125 169 216 261 321 388
#     4  11  25  42  64  98 130 162 215 269 329 386
#     4  11  24  42  68  91 130 175 208 269 329 388
#
# _framework density 25.040459999999999
#
# number of rings (size 3 to 8) (size 9 to 14) (size 15 to 20)
#    0.000    1.333    6.667    0.800    3.733    1.600 
#    3.600    0.000    0.000    7.200    0.000    0.000 
#    0.000    0.000    0.000    0.000    0.000    0.000 
#
# Total GULP energy -167302.205966 kJ/mol
# GULP energy per Si atom -5576.740199 kJ/mol
# Density = 2.498347 g / cm^3
# Si number density = 25.040460 Si / 1000 Ang^3
#
#
#
# Elastic Constant Matrix: (Units=GPa)
#
#
# Indices 1 2 3 4 5 6 
#
# 1 67.2926 -7.1548 17.3050 0.0000 13.8137 -0.0001
# 2 -7.1548 87.1893 8.2485 0.0000 -5.9322 0.0000
# 3 17.3050 8.2485 151.5942 -0.0001 -7.3189 -0.0002
# 4 0.0000 0.0000 -0.0001 48.8229 0.0001 41.2507
# 5 13.8137 -5.9322 -7.3189 0.0001 30.2766 0.0002
# 6 -0.0001 0.0000 -0.0002 41.2507 0.0002 100.9085
#
#
#
# Elastic Compliance Matrix: (Units=1/GPa)
#
#
# Indices 1 2 3 4 5 6 
#
# 1 0.017299 0.001087 -0.002433 0.000000 -0.008268 0.000000
# 2 0.001087 0.011735 -0.000684 0.000000 0.001638 0.000000
# 3 -0.002433 -0.000684 0.007041 0.000000 0.002678 0.000000
# 4 0.000000 0.000000 0.000000 0.031289 0.000000 -0.012791
# 5 -0.008268 0.001638 0.002678 0.000000 0.037769 0.000000
# 6 0.000000 0.000000 0.000000 -0.012791 0.000000 0.015139
#
#
# Mechanical properties :
#
#
# Convention : Reuss Voigt Hill
#
# Bulk Modulus (GPa) = 31.23476 38.09706 34.66591
# Shear Modulus (GPa) = 37.03641 55.18009 46.10825
#
# Velocity S-wave (km/s) = 3.85003 4.69938 4.29575
# Velocity P-wave (km/s) = 5.68018 6.68527 6.20312
#
# Compressibility (1/GPa) = 0.03201561
#
# Stress axis : x y z
#
# Youngs Moduli (GPa) = 57.80699 85.21794 142.02943
#
# Poissons Ratio (x) = -0.09265 0.34557
# Poissons Ratio (y) = -0.06285 0.09708
# Poissons Ratio (z) = 0.14065 0.05825
#
# Static dielectric constant tensor:
#      x y z
#    x 2.219670 0.000000 0.040090 
#    y 0.000000 2.057740 0.000000 
#    z 0.040090 0.000000 2.177670 
# 
# From -- ./inp_files/169467.got.cif
#   From: 2010.05.17/outbox.cif.g08.bks.cpg/sg15_85_cif.got.tgz:169467.got - 2010.06.03 18:47:42.
