data_PCOD9277253
_publ_section_title
;
Structure prediction by ZEFSAII (Michael W. Deem and Ramdas Pophale) SiO2 
 PCOD9277253
Probable space group: C 2/C
;
_chemical_formula_sum "Si O2"
_cell_formula_units_Z 44
_cell_length_a 8.645595
_cell_length_b 10.878111
_cell_length_c 19.048101
_cell_angle_alpha 90.000000
_cell_angle_beta 97.151425
_cell_angle_gamma 90.000000
_cell_volume 1777.494635
_symmetry_space_group_name_H-M "C 2/C"
_symmetry_group_IT_number 15
_symmetry_cell_setting 'monoclinic'
loop_
_space_group_symop_operation_xyz
x,y,z
-x,y,1/2-z
-x,-y,-z
x,-y,1/2+z
1/2+x,1/2+y,z
1/2-x,1/2+y,1/2-z
1/2-x,1/2-y,-z
1/2+x,1/2-y,1/2+z
loop_
_atom_site_type_symbol
_atom_site_label
_atom_site_fract_x
_atom_site_fract_y
_atom_site_fract_z
Si Si1 0.864413 0.644622 0.097723
Si Si2 0.732689 0.393593 0.729385
Si Si3 0.005849 0.371476 0.097875
Si Si4 0.591143 0.630798 0.369747
Si Si5 0.000000 0.590027 0.750000
Si Si6 0.665628 0.610261 0.960697
O O1 0.832704 0.681005 0.176751
O O2 0.953365 0.514269 0.094950
O O3 0.931066 0.768855 0.066896
O O4 0.705955 0.612331 0.045275
O O5 0.567572 0.407812 0.681327
O O6 0.711532 0.357516 0.809780
O O7 0.840558 0.514487 0.734918
O O8 0.899220 0.252420 0.079731
O O9 0.029165 0.337887 0.181222
O O10 0.163021 0.367235 0.063739
O O11 0.618313 0.516339 0.423360
#
# Coordination Sequence:
#
# PCOD9277253 Si02
#       6
#     8   8   8   8   4   8
#     4  10  24  42  66  93 138 170 220 261 333 379
#     4  10  21  42  66 101 125 179 210 275 322 393
#     4  11  22  43  66  96 130 173 213 277 318 390
#     4  11  23  40  72  95 135 166 227 267 331 377
#     4  10  20  40  70  92 136 164 222 264 334 380
#     4  11  23  46  64  97 132 178 211 274 316 401
#
# _framework density 24.753941999999999
#
# number of rings (size 3 to 8) (size 9 to 14) (size 15 to 20)
#    0.000    1.455    3.636    1.636    0.000    1.455 
#    6.545    9.091    0.000    0.000    0.000    0.000 
#    0.000    0.000    0.000    0.000    0.000    0.000 
#
# Total GULP energy -122500.231960 kJ/mol
# GULP energy per Si atom -5568.192362 kJ/mol
# Density = 2.469760 g / cm^3
# Si number density = 24.753942 Si / 1000 Ang^3
#
#
#
# Elastic Constant Matrix: (Units=GPa)
#
#
# Indices 1 2 3 4 5 6 
#
# 1 70.1371 32.9321 6.8757 0.0000 -20.2993 0.0000
# 2 32.9321 163.6591 19.6918 0.0000 -0.1682 0.0000
# 3 6.8757 19.6918 54.4429 0.0000 -13.2189 0.0000
# 4 0.0000 0.0000 0.0000 27.5440 0.0000 -1.6896
# 5 -20.2993 -0.1682 -13.2189 0.0000 30.5443 0.0000
# 6 0.0000 0.0000 0.0000 -1.6896 0.0000 27.9410
#
#
#
# Elastic Compliance Matrix: (Units=1/GPa)
#
#
# Indices 1 2 3 4 5 6 
#
# 1 0.020272 -0.004372 0.002555 0.000000 0.014554 0.000000
# 2 -0.004372 0.007363 -0.003136 0.000000 -0.004222 0.000000
# 3 0.002555 -0.003136 0.021888 0.000000 0.011153 0.000000
# 4 0.000000 0.000000 0.000000 0.036441 0.000000 0.002204
# 5 0.014554 -0.004222 0.011153 0.000000 0.047216 0.000000
# 6 0.000000 0.000000 0.000000 0.002204 0.000000 0.035923
#
#
# Mechanical properties :
#
#
# Convention : Reuss Voigt Hill
#
# Bulk Modulus (GPa) = 25.24181 45.24870 35.24525
# Shear Modulus (GPa) = 26.01269 32.45516 29.23392
#
# Velocity S-wave (km/s) = 3.24520 3.62485 3.44027
# Velocity P-wave (km/s) = 4.92554 5.98653 5.48176
#
# Compressibility (1/GPa) = 0.03961681
#
# Stress axis : x y z
#
# Youngs Moduli (GPa) = 49.32816 135.81465 45.68801
#
# Poissons Ratio (x) = 0.59375 -0.11673
# Poissons Ratio (y) = 0.21565 0.14329
# Poissons Ratio (z) = -0.12603 0.42594
#
# Static dielectric constant tensor:
#      x y z
#    x 2.045670 0.000000 0.019970 
#    y 0.000000 2.142490 0.000000 
#    z 0.019970 0.000000 2.067160 
# 
# From -- ./inp_files/230306.got.cif
#   From: 2010.05.17/outbox.cif.g08.bks.cpg/sg15_116_cif.got.tgz:230306.got - 2010.06.03 18:47:42.
