data_PCOD9277216
_publ_section_title
;
Structure prediction by ZEFSAII (Michael W. Deem and Ramdas Pophale) SiO2 
 PCOD9277216
Probable space group: C 2/C
;
_chemical_formula_sum "Si O2"
_cell_formula_units_Z 44
_cell_length_a 6.733313
_cell_length_b 15.238671
_cell_length_c 25.087736
_cell_angle_alpha 90.000000
_cell_angle_beta 51.859558
_cell_angle_gamma 90.000000
_cell_volume 2024.583550
_symmetry_space_group_name_H-M "C 2/C"
_symmetry_group_IT_number 15
_symmetry_cell_setting 'monoclinic'
loop_
_space_group_symop_operation_xyz
x,y,z
-x,y,1/2-z
-x,-y,-z
x,-y,1/2+z
1/2+x,1/2+y,z
1/2-x,1/2+y,1/2-z
1/2-x,1/2-y,-z
1/2+x,1/2-y,1/2+z
loop_
_atom_site_type_symbol
_atom_site_label
_atom_site_fract_x
_atom_site_fract_y
_atom_site_fract_z
Si Si1 0.295207 0.391446 0.560523
Si Si2 0.584793 0.723514 0.079215
Si Si3 0.736932 0.946257 0.887160
Si Si4 0.471097 0.440317 0.425411
Si Si5 0.500000 0.472991 0.250000
Si Si6 0.003904 0.358311 0.188970
O O1 0.324928 0.310617 0.595166
O O2 0.387527 0.373174 0.484991
O O3 0.473422 0.467109 0.554919
O O4 0.022757 0.433312 0.600185
O O5 0.715713 0.641684 0.087461
O O6 0.533253 0.793722 0.133666
O O7 0.750000 0.750000 0.000000
O O8 0.952332 0.965158 0.808535
O O9 0.749486 0.033945 0.921500
O O10 0.733776 0.413000 0.355701
O O11 0.749964 0.414574 0.219874
O O12 0.000000 0.319657 0.250000
#
# Coordination Sequence:
#
# PCOD9277216 Si02
#       6
#     8   8   8   8   4   8
#     4  10  21  41  70 100 135 175 233 289 345 419
#     4  11  26  46  69 103 142 182 230 295 362 419
#     4  11  24  42  69 102 135 185 235 287 352 428
#     4  10  20  40  70 100 132 178 231 295 342 416
#     4  12  26  44  70 100 134 194 238 278 360 432
#     4  12  25  46  67 101 147 182 235 297 362 429
#
# _framework density 21.732863999999999
#
# number of rings (size 3 to 8) (size 9 to 14) (size 15 to 20)
#    0.000    1.091    5.455    0.545    1.273    3.636 
#    0.000    0.000    0.000    0.000    0.000    0.000 
#    0.000    0.000    0.000    0.000    0.000    0.000 
#
# Total GULP energy -122746.510304 kJ/mol
# GULP energy per Si atom -5579.386832 kJ/mol
# Density = 2.168340 g / cm^3
# Si number density = 21.732864 Si / 1000 Ang^3
#
#
#
# Elastic Constant Matrix: (Units=GPa)
#
#
# Indices 1 2 3 4 5 6 
#
# 1 98.4668 36.4966 27.1222 0.0031 4.7618 -0.0028
# 2 36.4966 48.8579 43.7463 0.0015 17.2866 -0.0004
# 3 27.1222 43.7463 125.5170 0.0024 26.3123 -0.0023
# 4 0.0031 0.0015 0.0024 37.1678 -0.0023 16.4538
# 5 4.7618 17.2866 26.3123 -0.0023 42.7732 0.0027
# 6 -0.0028 -0.0004 -0.0023 16.4538 0.0027 37.9020
#
#
#
# Elastic Compliance Matrix: (Units=1/GPa)
#
#
# Indices 1 2 3 4 5 6 
#
# 1 0.014436 -0.012351 0.000546 -0.000001 0.003048 0.000001
# 2 -0.012351 0.041972 -0.009979 -0.000001 -0.009449 0.000000
# 3 0.000546 -0.009979 0.012048 -0.000001 -0.003439 0.000001
# 4 -0.000001 -0.000001 -0.000001 0.033306 0.000004 -0.014458
# 5 0.003048 -0.009449 -0.003439 0.000004 0.028974 -0.000004
# 6 0.000001 0.000000 0.000001 -0.014458 -0.000004 0.032660
#
#
# Mechanical properties :
#
#
# Convention : Reuss Voigt Hill
#
# Bulk Modulus (GPa) = 40.17947 54.17464 47.17705
# Shear Modulus (GPa) = 23.22786 34.60038 28.91412
#
# Velocity S-wave (km/s) = 3.27278 3.99441 3.65147
# Velocity P-wave (km/s) = 5.72796 6.80113 6.28748
#
# Compressibility (1/GPa) = 0.02488833
#
# Stress axis : x y z
#
# Youngs Moduli (GPa) = 69.27239 23.82556 83.00263
#
# Poissons Ratio (x) = 0.29428 -0.04535
# Poissons Ratio (y) = 0.85560 0.82825
# Poissons Ratio (z) = -0.03785 0.23775
#
# Static dielectric constant tensor:
#      x y z
#    x 1.840970 0.000000 0.043200 
#    y 0.000000 1.794330 0.000000 
#    z 0.043200 0.000000 1.834890 
# 
# From -- ./inp_files/226907.got.cif
#   From: 2010.05.17/outbox.cif.g08.bks.cpg/sg15_114_cif.got.tgz:226907.got - 2010.06.03 18:47:42.
