data_PCOD9277018
_publ_section_title
;
Structure prediction by ZEFSAII (Michael W. Deem and Ramdas Pophale) SiO2 
 PCOD9277018
Probable space group: C 2/C
;
_chemical_formula_sum "Si O2"
_cell_formula_units_Z 48
_cell_length_a 11.595065
_cell_length_b 7.633802
_cell_length_c 26.125844
_cell_angle_alpha 90.000000
_cell_angle_beta 54.850738
_cell_angle_gamma 90.000000
_cell_volume 1890.838879
_symmetry_space_group_name_H-M "C 2/C"
_symmetry_group_IT_number 15
_symmetry_cell_setting 'monoclinic'
loop_
_space_group_symop_operation_xyz
x,y,z
-x,y,1/2-z
-x,-y,-z
x,-y,1/2+z
1/2+x,1/2+y,z
1/2-x,1/2+y,1/2-z
1/2-x,1/2-y,-z
1/2+x,1/2-y,1/2+z
loop_
_atom_site_type_symbol
_atom_site_label
_atom_site_fract_x
_atom_site_fract_y
_atom_site_fract_z
Si Si1 0.137617 0.282761 0.093084
Si Si2 0.879160 0.014171 0.488314
Si Si3 0.159886 0.594034 0.190196
Si Si4 0.449062 0.291042 0.376288
Si Si5 0.105630 0.134134 0.291439
Si Si6 0.770321 0.698299 0.152251
O O1 0.088718 0.185229 0.054583
O O2 0.245624 0.159598 0.098874
O O3 0.004016 0.287262 0.165068
O O4 0.227607 0.447338 0.051866
O O5 0.000000 0.000000 0.500000
O O6 0.881122 0.861535 0.445971
O O7 0.255240 0.673517 0.210805
O O8 0.236540 0.407887 0.161118
O O9 0.000000 0.573392 0.250000
O O10 0.149137 0.711334 0.142319
O O11 0.529719 0.456650 0.329136
O O12 0.576086 0.166923 0.364051
O O13 0.156075 0.121241 0.220380
#
# Coordination Sequence:
#
# PCOD9277018 Si02
#       6
#     8   8   8   8   8   8
#     4  10  21  38  65  95 123 169 222 262 323 389
#     4  10  20  40  67  91 125 174 221 267 320 381
#     4  11  22  39  63  95 135 168 211 265 330 391
#     4  10  22  40  65  97 127 172 217 265 320 394
#     4  10  22  40  64  96 133 169 209 268 330 387
#     4  11  21  41  65  96 133 168 209 273 328 387
#
# _framework density 25.385556999999999
#
# number of rings (size 3 to 8) (size 9 to 14) (size 15 to 20)
#    0.000    1.667    3.333    1.500    0.000    2.667 
#    0.000    1.667    0.000    0.000    0.000    0.000 
#    0.000    0.000    0.000    0.000    0.000    0.000 
#
# Total GULP energy -134271.655658 kJ/mol
# GULP energy per Si atom -5594.652319 kJ/mol
# Density = 2.532778 g / cm^3
# Si number density = 25.385557 Si / 1000 Ang^3
#
#
#
# Elastic Constant Matrix: (Units=GPa)
#
#
# Indices 1 2 3 4 5 6 
#
# 1 136.6682 27.0438 14.5511 0.0000 30.5029 0.0000
# 2 27.0438 54.9201 21.6547 0.0000 11.8648 0.0000
# 3 14.5511 21.6547 113.5394 0.0000 24.7477 0.0000
# 4 0.0000 0.0000 0.0000 48.0773 0.0000 7.1477
# 5 30.5029 11.8648 24.7477 0.0000 52.8511 0.0000
# 6 0.0000 0.0000 0.0000 7.1477 0.0000 39.5977
#
#
#
# Elastic Compliance Matrix: (Units=1/GPa)
#
#
# Indices 1 2 3 4 5 6 
#
# 1 0.009018 -0.003656 0.000554 0.000000 -0.004643 0.000000
# 2 -0.003656 0.021597 -0.003401 0.000000 -0.001146 0.000000
# 3 0.000554 -0.003401 0.010344 0.000000 -0.004400 0.000000
# 4 0.000000 0.000000 0.000000 0.021373 0.000000 -0.003858
# 5 -0.004643 -0.001146 -0.004400 0.000000 0.023918 0.000000
# 6 0.000000 0.000000 0.000000 -0.003858 0.000000 0.025950
#
#
# Mechanical properties :
#
#
# Convention : Reuss Voigt Hill
#
# Bulk Modulus (GPa) = 35.77425 47.95855 41.86640
# Shear Modulus (GPa) = 37.16798 44.23042 40.69920
#
# Velocity S-wave (km/s) = 3.83056 4.17867 4.00839
# Velocity P-wave (km/s) = 5.80407 6.49729 6.16044
#
# Compressibility (1/GPa) = 0.02795307
#
# Stress axis : x y z
#
# Youngs Moduli (GPa) = 110.89264 46.30290 96.67291
#
# Poissons Ratio (x) = 0.16927 -0.05351
# Poissons Ratio (y) = 0.40539 0.32876
# Poissons Ratio (z) = -0.06139 0.15746
#
# Static dielectric constant tensor:
#      x y z
#    x 2.047200 0.000000 0.020260 
#    y 0.000000 2.105970 0.000000 
#    z 0.020260 0.000000 2.021980 
# 
# From -- ./inp_files/291038.got.cif
#   From: 2010.05.17/outbox.cif.g08.bks.cpg/sg15_146_cif.got.tgz:291038.got - 2010.06.03 18:47:42.
