data_PCOD9277925
_publ_section_title
;
Structure prediction by ZEFSAII (Michael W. Deem and Ramdas Pophale) SiO2 
 PCOD9277925
Probable space group: C 2/C
;
_chemical_formula_sum "Si O2"
_cell_formula_units_Z 44
_cell_length_a 28.932877
_cell_length_b 12.371126
_cell_length_c 17.483105
_cell_angle_alpha 90.000000
_cell_angle_beta 158.122332
_cell_angle_gamma 90.000000
_cell_volume 2331.807553
_symmetry_space_group_name_H-M "C 2/C"
_symmetry_group_IT_number 15
_symmetry_cell_setting 'monoclinic'
loop_
_space_group_symop_operation_xyz
x,y,z
-x,y,1/2-z
-x,-y,-z
x,-y,1/2+z
1/2+x,1/2+y,z
1/2-x,1/2+y,1/2-z
1/2-x,1/2-y,-z
1/2+x,1/2-y,1/2+z
loop_
_atom_site_type_symbol
_atom_site_label
_atom_site_fract_x
_atom_site_fract_y
_atom_site_fract_z
Si Si1 0.373734 0.024434 0.846924
Si Si2 0.626811 0.135254 0.490390
Si Si3 0.826767 0.881918 0.902674
Si Si4 0.204030 0.864066 0.959620
Si Si5 0.000000 0.059896 0.250000
Si Si6 0.850364 0.016353 0.278791
O O1 0.293394 0.088635 0.661520
O O2 0.307017 0.913914 0.770158
O O3 0.386450 0.091933 0.943882
O O4 0.500000 0.000000 0.000000
O O5 0.500000 0.106446 0.250000
O O6 0.636594 0.264747 0.511309
O O7 0.755237 0.081741 0.655164
O O8 0.831766 0.896776 0.818853
O O9 0.912791 0.977949 0.068531
O O10 0.072157 0.866600 0.800205
O O11 0.194753 0.941310 0.872220
O O12 0.250000 0.750000 0.000000
O O13 0.000000 0.000000 0.500000
#
# Coordination Sequence:
#
# PCOD9277925 Si02
#       6
#     8   8   8   8   4   8
#     4  10  23  43  58  92 132 160 209 266 316 379
#     4  11  23  41  67  96 124 173 218 264 325 383
#     4  10  21  40  66  91 128 164 208 270 320 370
#     4  11  23  42  65  91 125 172 207 258 322 377
#     4  10  20  42  62  92 128 156 212 268 306 376
#     4  11  23  42  65  97 132 167 221 264 314 398
#
# _framework density 18.869481
#
# number of rings (size 3 to 8) (size 9 to 14) (size 15 to 20)
#    0.000    1.455    2.727    2.182    0.000    2.909 
#    8.182    3.636    0.000    0.000    0.000    0.000 
#    0.000    0.000    0.000    0.000    0.000    0.000 
#
# Total GULP energy -122707.272087 kJ/mol
# GULP energy per Si atom -5577.603277 kJ/mol
# Density = 1.882653 g / cm^3
# Si number density = 18.869481 Si / 1000 Ang^3
#
#
#
# Elastic Constant Matrix: (Units=GPa)
#
#
# Indices 1 2 3 4 5 6 
#
# 1 179.0776 61.7213 73.6373 0.0000 7.8264 0.0000
# 2 61.7213 96.8001 46.3322 0.0000 11.2032 0.0000
# 3 73.6373 46.3322 117.6885 0.0000 1.8113 0.0000
# 4 0.0000 0.0000 0.0000 24.1492 0.0000 -1.9675
# 5 7.8264 11.2032 1.8113 0.0000 54.9807 0.0000
# 6 0.0000 0.0000 0.0000 -1.9675 0.0000 17.0299
#
#
#
# Elastic Compliance Matrix: (Units=1/GPa)
#
#
# Indices 1 2 3 4 5 6 
#
# 1 0.008385 -0.003445 -0.003884 0.000000 -0.000364 0.000000
# 2 -0.003445 0.014477 -0.003508 0.000000 -0.002344 0.000000
# 3 -0.003884 -0.003508 0.012295 0.000000 0.000863 0.000000
# 4 0.000000 0.000000 0.000000 0.041803 0.000000 0.004830
# 5 -0.000364 -0.002344 0.000863 0.000000 0.018689 0.000000
# 6 0.000000 0.000000 0.000000 0.004830 0.000000 0.059278
#
#
# Mechanical properties :
#
#
# Convention : Reuss Voigt Hill
#
# Bulk Modulus (GPa) = 74.16934 84.10530 79.13732
# Shear Modulus (GPa) = 27.60957 33.35698 30.48327
#
# Velocity S-wave (km/s) = 3.82931 4.20905 4.02366
# Velocity P-wave (km/s) = 7.67746 8.26380 7.97602
#
# Compressibility (1/GPa) = 0.01348266
#
# Stress axis : x y z
#
# Youngs Moduli (GPa) = 119.26492 69.07304 81.33187
#
# Poissons Ratio (x) = 0.23795 0.31593
# Poissons Ratio (y) = 0.41085 0.28531
# Poissons Ratio (z) = 0.46328 0.24231
#
# Static dielectric constant tensor:
#      x y z
#    x 1.637230 0.000000 0.022320 
#    y 0.000000 1.618600 0.000000 
#    z 0.022320 0.000000 1.676090 
# 
# From -- ./inp_files/95019.got.cif
#   From: 2010.05.17/outbox.cif.g08.bks.cpg/sg15_48_cif.got.tgz:95019.got - 2010.06.03 18:47:42.
