data_PCOD9277029
_publ_section_title
;
Structure prediction by ZEFSAII (Michael W. Deem and Ramdas Pophale) SiO2 
 PCOD9277029
Probable space group: C 2/C
;
_chemical_formula_sum "Si O2"
_cell_formula_units_Z 56
_cell_length_a 22.067688
_cell_length_b 7.385852
_cell_length_c 17.849434
_cell_angle_alpha 90.000000
_cell_angle_beta 126.953409
_cell_angle_gamma 90.000000
_cell_volume 2324.857815
_symmetry_space_group_name_H-M "C 2/C"
_symmetry_group_IT_number 15
_symmetry_cell_setting 'monoclinic'
loop_
_space_group_symop_operation_xyz
x,y,z
-x,y,1/2-z
-x,-y,-z
x,-y,1/2+z
1/2+x,1/2+y,z
1/2-x,1/2+y,1/2-z
1/2-x,1/2-y,-z
1/2+x,1/2-y,1/2+z
loop_
_atom_site_type_symbol
_atom_site_label
_atom_site_fract_x
_atom_site_fract_y
_atom_site_fract_z
Si Si1 0.340675 0.048929 0.674396
Si Si2 0.500000 0.571188 0.250000
Si Si3 0.433558 0.105831 0.605480
Si Si4 0.320710 0.337035 0.437103
Si Si5 0.623395 0.544673 0.246703
Si Si6 0.723285 0.746254 0.767970
Si Si7 0.000000 0.500000 0.500000
Si Si8 0.897755 0.855907 0.924083
O O1 0.400585 0.000756 0.653784
O O2 0.255000 0.086557 0.580701
O O3 0.364433 0.246627 0.722585
O O4 0.326033 0.905695 0.730159
O O5 0.530780 0.710269 0.335163
O O6 0.569434 0.461214 0.268848
O O7 0.359253 0.167108 0.503935
O O8 0.489747 0.026806 0.585467
O O9 0.298627 0.284266 0.334919
O O10 0.382567 0.498035 0.477138
O O11 0.700466 0.435420 0.294659
O O12 0.582550 0.533352 0.136307
O O13 0.811914 0.783424 0.843890
O O14 0.045548 0.692349 0.526722
#
# Coordination Sequence:
#
# PCOD9277029 Si02
#       8
#     8   4   8   8   8   8   4   8
#     4  10  22  42  66 101 134 172 229 274 355 393
#     4  10  22  46  60  88 138 178 220 266 352 400
#     4  11  25  41  67  92 139 183 219 287 333 414
#     4  10  22  41  71 102 132 172 231 286 343 402
#     4  10  20  40  67  92 129 177 216 276 333 399
#     4  10  22  41  72 101 130 174 230 284 332 410
#     4  12  26  42  64  96 136 186 230 276 342 408
#     4  10  22  42  65 100 133 173 228 279 339 413
#
# _framework density 24.087496000000002
#
# number of rings (size 3 to 8) (size 9 to 14) (size 15 to 20)
#    0.000    1.714    2.857    0.429    4.000    0.571 
#    5.143    4.286    0.000    0.000    0.000    0.000 
#    0.000    0.000    0.000    0.000    0.000    0.000 
#
# Total GULP energy -155918.576252 kJ/mol
# GULP energy per Si atom -5568.520580 kJ/mol
# Density = 2.403267 g / cm^3
# Si number density = 24.087496 Si / 1000 Ang^3
#
#
#
# Elastic Constant Matrix: (Units=GPa)
#
#
# Indices 1 2 3 4 5 6 
#
# 1 136.3533 29.1245 21.3799 0.0000 -21.2229 0.0000
# 2 29.1245 71.5847 17.3580 0.0000 0.1503 0.0000
# 3 21.3799 17.3580 47.6113 0.0000 -11.2636 0.0000
# 4 0.0000 0.0000 0.0000 30.6193 0.0000 1.6918
# 5 -21.2229 0.1503 -11.2636 0.0000 27.9106 0.0000
# 6 0.0000 0.0000 0.0000 1.6918 0.0000 20.8413
#
#
#
# Elastic Compliance Matrix: (Units=1/GPa)
#
#
# Indices 1 2 3 4 5 6 
#
# 1 0.009308 -0.003469 -0.001367 0.000000 0.006545 0.000000
# 2 -0.003469 0.016788 -0.005758 0.000000 -0.005052 0.000000
# 3 -0.001367 -0.005758 0.025956 0.000000 0.009467 0.000000
# 4 0.000000 0.000000 0.000000 0.032806 0.000000 -0.002663
# 5 0.006545 -0.005052 0.009467 0.000000 0.044653 0.000000
# 6 0.000000 0.000000 0.000000 -0.002663 0.000000 0.048198
#
#
# Mechanical properties :
#
#
# Convention : Reuss Voigt Hill
#
# Bulk Modulus (GPa) = 32.40001 43.47491 37.93746
# Shear Modulus (GPa) = 23.90247 28.38670 26.14458
#
# Velocity S-wave (km/s) = 3.15353 3.43663 3.29812
# Velocity P-wave (km/s) = 5.17105 5.81680 5.50341
#
# Compressibility (1/GPa) = 0.03086419
#
# Stress axis : x y z
#
# Youngs Moduli (GPa) = 107.43599 59.56735 38.52713
#
# Poissons Ratio (x) = 0.20666 0.05265
# Poissons Ratio (y) = 0.37273 0.22183
# Poissons Ratio (z) = 0.14682 0.34297
#
# Static dielectric constant tensor:
#      x y z
#    x 2.007650 0.000000 0.033360 
#    y 0.000000 1.918170 0.000000 
#    z 0.033360 0.000000 1.960280 
# 
# From -- ./inp_files/218712.got.cif
#   From: 2010.05.17/outbox.cif.g08.bks.cpg/sg15_110_cif.got.tgz:218712.got - 2010.06.03 18:47:42.
