data_PCOD9277026
_publ_section_title
;
Structure prediction by ZEFSAII (Michael W. Deem and Ramdas Pophale) SiO2 
 PCOD9277026
Probable space group: C 2/C
;
_chemical_formula_sum "Si O2"
_cell_formula_units_Z 60
_cell_length_a 13.300906
_cell_length_b 18.745875
_cell_length_c 26.573846
_cell_angle_alpha 90.000000
_cell_angle_beta 153.834771
_cell_angle_gamma 90.000000
_cell_volume 2921.741475
_symmetry_space_group_name_H-M "C 2/C"
_symmetry_group_IT_number 15
_symmetry_cell_setting 'monoclinic'
loop_
_space_group_symop_operation_xyz
x,y,z
-x,y,1/2-z
-x,-y,-z
x,-y,1/2+z
1/2+x,1/2+y,z
1/2-x,1/2+y,1/2-z
1/2-x,1/2-y,-z
1/2+x,1/2-y,1/2+z
loop_
_atom_site_type_symbol
_atom_site_label
_atom_site_fract_x
_atom_site_fract_y
_atom_site_fract_z
Si Si1 0.236541 0.990990 0.827240
Si Si2 0.763867 0.069039 0.356956
Si Si3 0.762966 0.878359 0.750510
Si Si4 0.054288 0.914443 0.083673
Si Si5 0.051685 0.620676 0.530855
Si Si6 0.230965 0.668934 0.510228
Si Si7 0.181939 0.222727 0.413933
Si Si8 0.000000 0.667576 0.750000
O O1 0.209170 0.958006 0.759739
O O2 0.000000 0.988838 0.750000
O O3 0.330463 0.070766 0.874496
O O4 0.401509 0.935869 0.930915
O O5 0.500000 0.051268 0.250000
O O6 0.773354 0.122774 0.314957
O O7 0.885667 0.099634 0.460819
O O8 0.899450 0.998898 0.399135
O O9 0.514714 0.854357 0.621501
O O10 0.962718 0.829261 0.818743
O O11 0.297224 0.878046 0.183264
O O12 0.926189 0.881288 0.074051
O O13 0.216901 0.657453 0.564103
O O14 0.888509 0.678156 0.482780
O O15 0.250000 0.750000 0.500000
O O16 0.250000 0.250000 0.500000
O O17 0.112170 0.284838 0.344186
#
# Coordination Sequence:
#
# PCOD9277026 Si02
#       8
#     8   8   8   8   8   8   8   4
#     4  10  20  40  67  92 126 165 216 282 338 398
#     4  11  23  44  65  97 137 165 227 290 331 409
#     4  11  23  40  69  90 128 178 212 278 345 388
#     4  11  24  42  68 100 127 181 223 275 346 397
#     4  10  23  41  64  99 126 170 223 275 337 401
#     4  11  23  41  66  94 136 175 219 267 342 413
#     4  12  25  44  68  99 137 182 232 276 336 423
#     4  12  24  46  72  92 138 180 228 278 330 422
#
# _framework density 20.535698
#
# number of rings (size 3 to 8) (size 9 to 14) (size 15 to 20)
#    0.000    1.067    3.333    4.000    1.867    2.133 
#    2.400    0.000    0.000    0.000    0.000    0.000 
#    0.000    0.000    0.000    0.000    0.000    0.000 
#
# Total GULP energy -167652.632546 kJ/mol
# GULP energy per Si atom -5588.421085 kJ/mol
# Density = 2.048896 g / cm^3
# Si number density = 20.535698 Si / 1000 Ang^3
#
#
#
# Elastic Constant Matrix: (Units=GPa)
#
#
# Indices 1 2 3 4 5 6 
#
# 1 100.1727 25.2723 27.7426 -0.0021 22.8244 0.0044
# 2 25.2723 65.0285 13.1578 0.0034 14.9181 -0.0003
# 3 27.7426 13.1578 61.2473 0.0044 17.9690 0.0164
# 4 -0.0021 0.0034 0.0044 132.8320 0.0076 -184.5418
# 5 22.8244 14.9181 17.9690 0.0076 41.6028 -0.0157
# 6 0.0044 -0.0003 0.0164 -184.5418 -0.0157 347.3939
#
#
#
# Elastic Compliance Matrix: (Units=1/GPa)
#
#
# Indices 1 2 3 4 5 6 
#
# 1 0.012833 -0.003237 -0.003885 0.000002 -0.004202 0.000001
# 2 -0.003237 0.017813 -0.001154 -0.000001 -0.004113 -0.000001
# 3 -0.003885 -0.001154 0.020140 -0.000008 -0.006154 -0.000005
# 4 0.000002 -0.000001 -0.000008 0.028736 0.000003 0.015265
# 5 -0.004202 -0.004113 -0.006154 0.000003 0.030475 0.000003
# 6 0.000001 -0.000001 -0.000005 0.015265 0.000003 0.010988
#
#
# Mechanical properties :
#
#
# Convention : Reuss Voigt Hill
#
# Bulk Modulus (GPa) = 29.21007 39.86599 34.53803
# Shear Modulus (GPa) = 33.56914 115.05080 74.30997
#
# Velocity S-wave (km/s) = 4.04749 7.49309 6.02199
# Velocity P-wave (km/s) = 6.00815 9.71170 8.07511
#
# Compressibility (1/GPa) = 0.03423477
#
# Stress axis : x y z
#
# Youngs Moduli (GPa) = 77.92616 56.13876 49.65214
#
# Poissons Ratio (x) = 0.18174 0.19287
# Poissons Ratio (y) = 0.25227 0.05728
# Poissons Ratio (z) = 0.30271 0.06477
#
# Static dielectric constant tensor:
#      x y z
#    x 1.776130 0.000000 -0.052720 
#    y 0.000000 1.729220 0.000000 
#    z -0.052720 0.000000 1.778320 
# 
# From -- ./inp_files/293561.got.cif
#   From: 2010.05.17/outbox.cif.g08.bks.cpg/sg15_147_cif.got.tgz:293561.got - 2010.06.03 18:47:42.
