data_PCOD9277721
_publ_section_title
;
Structure prediction by ZEFSAII (Michael W. Deem and Ramdas Pophale) SiO2 
 PCOD9277721
Probable space group: C 2/C
;
_chemical_formula_sum "Si O2"
_cell_formula_units_Z 48
_cell_length_a 12.600134
_cell_length_b 19.349794
_cell_length_c 16.009690
_cell_angle_alpha 90.000000
_cell_angle_beta 145.120527
_cell_angle_gamma 90.000000
_cell_volume 2232.122788
_symmetry_space_group_name_H-M "C 2/C"
_symmetry_group_IT_number 15
_symmetry_cell_setting 'monoclinic'
loop_
_space_group_symop_operation_xyz
x,y,z
-x,y,1/2-z
-x,-y,-z
x,-y,1/2+z
1/2+x,1/2+y,z
1/2-x,1/2+y,1/2-z
1/2-x,1/2-y,-z
1/2+x,1/2-y,1/2+z
loop_
_atom_site_type_symbol
_atom_site_label
_atom_site_fract_x
_atom_site_fract_y
_atom_site_fract_z
Si Si1 0.096051 0.075920 0.564701
Si Si2 0.538398 0.827605 0.998339
Si Si3 0.826971 0.926881 0.195067
Si Si4 0.500000 0.049209 0.750000
Si Si5 0.851734 0.805680 0.825753
Si Si6 0.343076 0.055976 0.479121
Si Si7 0.000000 0.153094 0.250000
O O1 0.118186 0.094135 0.676491
O O2 0.302491 0.081490 0.656014
O O3 0.953595 0.127666 0.428789
O O4 0.000000 0.000000 0.500000
O O5 0.368921 0.815046 0.826335
O O6 0.472835 0.885909 0.022610
O O7 0.718842 0.865026 0.079191
O O8 0.590976 0.759107 0.081957
O O9 0.000000 0.945236 0.250000
O O10 0.711097 0.998077 0.122404
O O11 0.426539 0.018716 0.614726
O O12 0.925788 0.801016 0.778194
O O13 0.162556 0.101714 0.384666
#
# Coordination Sequence:
#
# PCOD9277721 Si02
#       7
#     8   8   8   4   8   8   4
#     4  12  25  46  70 105 145 186 244 298 363 431
#     4  11  25  43  68  99 143 190 232 284 361 430
#     4  12  25  47  72  99 143 191 245 297 352 419
#     4  12  24  39  74 102 143 178 240 288 380 411
#     4  11  25  44  68 104 146 181 237 296 358 436
#     4  11  22  41  67 105 137 175 230 289 360 420
#     4  10  20  41  68 104 141 178 224 290 370 423
#
# _framework density 21.504193000000001
#
# number of rings (size 3 to 8) (size 9 to 14) (size 15 to 20)
#    0.000    0.667    4.167    4.500    2.333    3.333 
#    0.000    3.333    0.000    0.000    0.000    0.000 
#    0.000    0.000    0.000    0.000    0.000    0.000 
#
# Total GULP energy -133927.508342 kJ/mol
# GULP energy per Si atom -5580.312848 kJ/mol
# Density = 2.145525 g / cm^3
# Si number density = 21.504193 Si / 1000 Ang^3
#
#
#
# Elastic Constant Matrix: (Units=GPa)
#
#
# Indices 1 2 3 4 5 6 
#
# 1 44.6853 9.6834 18.4741 -0.0013 1.9811 -0.0006
# 2 9.6834 113.2201 33.4778 -0.0009 15.1713 -0.0008
# 3 18.4741 33.4778 128.3032 -0.0027 2.7648 -0.0023
# 4 -0.0013 -0.0009 -0.0027 38.8230 -0.0018 -6.3833
# 5 1.9811 15.1713 2.7648 -0.0018 34.5967 -0.0012
# 6 -0.0006 -0.0008 -0.0023 -6.3833 -0.0012 18.1597
#
#
#
# Elastic Compliance Matrix: (Units=1/GPa)
#
#
# Indices 1 2 3 4 5 6 
#
# 1 0.023939 -0.001022 -0.003166 0.000001 -0.000670 0.000001
# 2 -0.001022 0.010202 -0.002424 0.000000 -0.004222 0.000000
# 3 -0.003166 -0.002424 0.008871 0.000001 0.000535 0.000001
# 4 0.000001 0.000000 0.000001 0.027338 0.000002 0.009610
# 5 -0.000670 -0.004222 0.000535 0.000002 0.030751 0.000002
# 6 0.000001 0.000000 0.000001 0.009610 0.000002 0.058445
#
#
# Mechanical properties :
#
#
# Convention : Reuss Voigt Hill
#
# Bulk Modulus (GPa) = 33.56959 45.49769 39.53364
# Shear Modulus (GPa) = 27.36754 33.28742 30.32748
#
# Velocity S-wave (km/s) = 3.57131 3.93867 3.75948
# Velocity P-wave (km/s) = 5.71404 6.47207 6.10483
#
# Compressibility (1/GPa) = 0.02978887
#
# Stress axis : x y z
#
# Youngs Moduli (GPa) = 41.77343 98.01857 112.72902
#
# Poissons Ratio (x) = 0.10013 0.35689
# Poissons Ratio (y) = 0.04267 0.27325
# Poissons Ratio (z) = 0.13225 0.23759
#
# Static dielectric constant tensor:
#      x y z
#    x 1.921670 0.000000 0.152820 
#    y 0.000000 1.746580 0.000000 
#    z 0.152820 0.000000 1.902880 
# 
# From -- ./inp_files/206535.got.cif
#   From: 2010.05.17/outbox.cif.g08.bks.cpg/sg15_104_cif.got.tgz:206535.got - 2010.06.03 18:47:42.
