data_PCOD9277152
_publ_section_title
;
Structure prediction by ZEFSAII (Michael W. Deem and Ramdas Pophale) SiO2 
 PCOD9277152
Probable space group: C 2/C
;
_chemical_formula_sum "Si O2"
_cell_formula_units_Z 44
_cell_length_a 26.075807
_cell_length_b 13.735226
_cell_length_c 10.537119
_cell_angle_alpha 90.000000
_cell_angle_beta 29.498919
_cell_angle_gamma 90.000000
_cell_volume 1858.316971
_symmetry_space_group_name_H-M "C 2/C"
_symmetry_group_IT_number 15
_symmetry_cell_setting 'monoclinic'
loop_
_space_group_symop_operation_xyz
x,y,z
-x,y,1/2-z
-x,-y,-z
x,-y,1/2+z
1/2+x,1/2+y,z
1/2-x,1/2+y,1/2-z
1/2-x,1/2-y,-z
1/2+x,1/2-y,1/2+z
loop_
_atom_site_type_symbol
_atom_site_label
_atom_site_fract_x
_atom_site_fract_y
_atom_site_fract_z
Si Si1 0.184355 0.335029 0.704824
Si Si2 0.948032 0.689176 0.637700
Si Si3 0.500000 0.875322 0.750000
Si Si4 0.823806 0.505525 0.481780
Si Si5 0.330797 0.607983 0.079762
Si Si6 0.028659 0.890619 0.981395
O O1 0.250000 0.250000 0.500000
O O2 0.207640 0.432937 0.574341
O O3 0.231337 0.332785 0.744260
O O4 0.060409 0.330436 0.960135
O O5 0.873064 0.598094 0.830954
O O6 0.936763 0.805047 0.688964
O O7 0.957087 0.684185 0.463153
O O8 0.587799 0.940478 0.627718
O O9 0.724529 0.496831 0.788702
O O10 0.380607 0.613088 0.109964
O O11 0.420503 0.633170 0.787490
O O12 0.000000 0.000000 0.000000
#
# Coordination Sequence:
#
# PCOD9277152 Si02
#       6
#     8   8   4   8   8   8
#     4  11  22  41  68  99 133 177 224 286 354 421
#     4  11  23  42  68  96 133 174 227 290 351 414
#     4  10  20  40  68  96 130 172 218 288 358 406
#     4  11  23  40  68 102 133 169 236 293 343 421
#     4  11  23  43  65  93 133 180 225 279 354 410
#     4  11  25  45  63  93 137 185 230 279 341 432
#
# _framework density 23.677337999999999
#
# number of rings (size 3 to 8) (size 9 to 14) (size 15 to 20)
#    0.000    1.091    1.818    6.545    2.545    0.727 
#    3.273    1.818    0.000    0.000    0.000    0.000 
#    0.000    0.000    0.000    0.000    0.000    0.000 
#
# Total GULP energy -122491.129814 kJ/mol
# GULP energy per Si atom -5567.778628 kJ/mol
# Density = 2.362345 g / cm^3
# Si number density = 23.677338 Si / 1000 Ang^3
#
#
#
# Elastic Constant Matrix: (Units=GPa)
#
#
# Indices 1 2 3 4 5 6 
#
# 1 128.7192 42.6050 24.7533 0.0000 -31.5212 0.0000
# 2 42.6050 162.2575 41.8138 0.0000 -5.7190 0.0000
# 3 24.7533 41.8138 49.3554 0.0000 -8.0840 0.0000
# 4 0.0000 0.0000 0.0000 27.9758 0.0000 8.7014
# 5 -31.5212 -5.7190 -8.0840 0.0000 24.3436 0.0000
# 6 0.0000 0.0000 0.0000 8.7014 0.0000 7.0366
#
#
#
# Elastic Compliance Matrix: (Units=1/GPa)
#
#
# Indices 1 2 3 4 5 6 
#
# 1 0.012600 -0.002284 -0.001903 0.000000 0.015146 0.000000
# 2 -0.002284 0.008302 -0.006401 0.000000 -0.003133 0.000000
# 3 -0.001903 -0.006401 0.027484 0.000000 0.005158 0.000000
# 4 0.000000 0.000000 0.000000 0.058087 0.000000 -0.071829
# 5 0.015146 -0.003133 0.005158 0.000000 0.061668 0.000000
# 6 0.000000 0.000000 0.000000 -0.071829 0.000000 0.230938
#
#
# Mechanical properties :
#
#
# Convention : Reuss Voigt Hill
#
# Bulk Modulus (GPa) = 36.75306 62.07514 49.41410
# Shear Modulus (GPa) = 11.64621 27.28185 19.46403
#
# Velocity S-wave (km/s) = 2.22022 3.39814 2.87026
# Velocity P-wave (km/s) = 4.70411 6.45527 5.64797
#
# Compressibility (1/GPa) = 0.02720862
#
# Stress axis : x y z
#
# Youngs Moduli (GPa) = 79.36514 120.45449 36.38543
#
# Poissons Ratio (x) = 0.27513 0.06926
# Poissons Ratio (y) = 0.18128 0.23290
# Poissons Ratio (z) = 0.15106 0.77102
#
# Static dielectric constant tensor:
#      x y z
#    x 1.967550 0.000000 0.096430 
#    y 0.000000 2.033280 0.000000 
#    z 0.096430 0.000000 2.013150 
# 
# From -- ./inp_files/123251.got.cif
#   From: 2010.05.17/outbox.cif.g08.bks.cpg/sg15_62_cif.got.tgz:123251.got - 2010.06.03 18:47:42.
