data_PCOD9277262
_publ_section_title
;
Structure prediction by ZEFSAII (Michael W. Deem and Ramdas Pophale) SiO2 
 PCOD9277262
Probable space group: C 2/C
;
_chemical_formula_sum "Si O2"
_cell_formula_units_Z 48
_cell_length_a 27.128095
_cell_length_b 10.222906
_cell_length_c 13.892205
_cell_angle_alpha 90.000000
_cell_angle_beta 149.288600
_cell_angle_gamma 90.000000
_cell_volume 1967.626230
_symmetry_space_group_name_H-M "C 2/C"
_symmetry_group_IT_number 15
_symmetry_cell_setting 'monoclinic'
loop_
_space_group_symop_operation_xyz
x,y,z
-x,y,1/2-z
-x,-y,-z
x,-y,1/2+z
1/2+x,1/2+y,z
1/2-x,1/2+y,1/2-z
1/2-x,1/2-y,-z
1/2+x,1/2-y,1/2+z
loop_
_atom_site_type_symbol
_atom_site_label
_atom_site_fract_x
_atom_site_fract_y
_atom_site_fract_z
Si Si1 0.372361 0.238901 0.919973
Si Si2 0.790748 0.734175 0.228491
Si Si3 0.000000 0.137190 0.250000
Si Si4 0.868736 0.364451 0.067532
Si Si5 0.500000 0.106844 0.250000
Si Si6 0.591722 0.511632 0.585163
Si Si7 0.380129 0.983407 0.290180
O O1 0.322231 0.254116 0.939829
O O2 0.361050 0.369771 0.840474
O O3 0.340069 0.115662 0.803845
O O4 0.482505 0.200510 0.130177
O O5 0.821867 0.695910 0.391577
O O6 0.835639 0.870935 0.270356
O O7 0.831165 0.621895 0.228639
O O8 0.939327 0.241792 0.211201
O O9 0.057665 0.047036 0.419922
O O10 0.915211 0.499706 0.107011
O O11 0.842200 0.417502 0.128260
O O12 0.500000 0.500000 0.500000
O O13 0.500000 0.000000 0.500000
#
# Coordination Sequence:
#
# PCOD9277262 Si02
#       7
#     8   8   4   8   4   8   8
#     4  12  24  41  67  99 138 178 225 286 343 391
#     4  11  25  44  65 101 142 173 223 294 339 395
#     4   9  19  40  62  94 126 166 216 276 326 390
#     4  10  20  40  70  96 123 177 236 272 324 409
#     4  11  21  40  70  96 130 178 228 280 332 400
#     4  11  23  40  64  95 134 176 217 270 347 403
#     4  12  21  41  74  99 126 188 241 270 331 422
#
# _framework density 24.394876
#
# number of rings (size 3 to 8) (size 9 to 14) (size 15 to 20)
#    0.000    1.000    3.333    5.500    0.000    0.667 
#    0.000    4.167    0.000    0.000    0.000    0.000 
#    0.000    0.000    0.000    0.000    0.000    0.000 
#
# Total GULP energy -133777.051075 kJ/mol
# GULP energy per Si atom -5574.043795 kJ/mol
# Density = 2.433935 g / cm^3
# Si number density = 24.394876 Si / 1000 Ang^3
#
#
#
# Elastic Constant Matrix: (Units=GPa)
#
#
# Indices 1 2 3 4 5 6 
#
# 1 107.2154 32.2282 0.6004 0.0000 13.0165 0.0000
# 2 32.2282 144.7598 6.3274 0.0000 13.0329 0.0000
# 3 0.6004 6.3274 38.9105 0.0000 -8.6793 0.0000
# 4 0.0000 0.0000 0.0000 4.5446 0.0000 4.0083
# 5 13.0165 13.0329 -8.6793 0.0000 35.5848 0.0000
# 6 0.0000 0.0000 0.0000 4.0083 0.0000 46.4233
#
#
#
# Elastic Compliance Matrix: (Units=1/GPa)
#
#
# Indices 1 2 3 4 5 6 
#
# 1 0.010313 -0.001986 -0.000545 0.000000 -0.003178 0.000000
# 2 -0.001986 0.007654 -0.001774 0.000000 -0.002509 0.000000
# 3 -0.000545 -0.001774 0.027693 0.000000 0.007603 0.000000
# 4 0.000000 0.000000 0.000000 0.238180 0.000000 -0.020565
# 5 -0.003178 -0.002509 0.007603 0.000000 0.032038 0.000000
# 6 0.000000 0.000000 0.000000 -0.020565 0.000000 0.023317
#
#
# Mechanical properties :
#
#
# Convention : Reuss Voigt Hill
#
# Bulk Modulus (GPa) = 26.99064 41.02196 34.00630
# Shear Modulus (GPa) = 13.88299 34.09251 23.98775
#
# Velocity S-wave (km/s) = 2.38816 3.74241 3.13918
# Velocity P-wave (km/s) = 4.32348 5.96041 5.20668
#
# Compressibility (1/GPa) = 0.03704988
#
# Stress axis : x y z
#
# Youngs Moduli (GPa) = 96.96619 130.65763 36.11041
#
# Poissons Ratio (x) = 0.25949 0.01968
# Poissons Ratio (y) = 0.19258 0.06405
# Poissons Ratio (z) = 0.05285 0.23174
#
# Static dielectric constant tensor:
#      x y z
#    x 2.015810 0.000000 0.079160 
#    y 0.000000 1.885020 0.000000 
#    z 0.079160 0.000000 2.903400 
# 
# From -- ./inp_files/177040.got.cif
#   From: 2010.05.17/outbox.cif.g08.bks.cpg/sg15_89_cif.got.tgz:177040.got - 2010.06.03 18:47:42.
