data_PCOD9277995
_publ_section_title
;
Structure prediction by ZEFSAII (Michael W. Deem and Ramdas Pophale) SiO2 
 PCOD9277995
Probable space group: C 2/C
;
_chemical_formula_sum "Si O2"
_cell_formula_units_Z 28
_cell_length_a 25.369274
_cell_length_b 4.992316
_cell_length_c 19.573945
_cell_angle_alpha 90.000000
_cell_angle_beta 157.518634
_cell_angle_gamma 90.000000
_cell_volume 947.953386
_symmetry_space_group_name_H-M "C 2/C"
_symmetry_group_IT_number 15
_symmetry_cell_setting 'monoclinic'
loop_
_space_group_symop_operation_xyz
x,y,z
-x,y,1/2-z
-x,-y,-z
x,-y,1/2+z
1/2+x,1/2+y,z
1/2-x,1/2+y,1/2-z
1/2-x,1/2-y,-z
1/2+x,1/2-y,1/2+z
loop_
_atom_site_type_symbol
_atom_site_label
_atom_site_fract_x
_atom_site_fract_y
_atom_site_fract_z
Si Si1 0.288536 0.032193 0.695950
Si Si2 0.914649 0.593187 0.487984
Si Si3 0.090864 0.239214 0.772825
Si Si4 0.500000 0.236962 0.750000
O O1 0.318319 0.918230 0.806994
O O2 0.294170 0.799667 0.646727
O O3 0.159363 0.233819 0.541644
O O4 0.433643 0.192120 0.854252
O O5 0.951889 0.299861 0.561078
O O6 0.091145 0.497217 0.821649
O O7 0.079048 0.970503 0.799062
#
# Coordination Sequence:
#
# PCOD9277995 Si02
#       4
#     8   8   8   4
#     4   9  20  39  62  96 129 160 210 262 328 379
#     4   9  20  39  62  96 129 160 210 262 328 379
#     4   9  21  40  64  92 127 169 210 270 300 391
#     4  10  20  42  64  90 126 174 222 248 322 358
#
# _framework density 29.537315
#
# number of rings (size 3 to 8) (size 9 to 14) (size 15 to 20)
#    1.714    1.143    0.000    0.000    0.000    5.714 
#    0.000    8.571    0.000    0.000    0.000    0.000 
#    0.000    0.000    0.000    0.000    0.000    0.000 
#
# Total GULP energy -78031.730933 kJ/mol
# GULP energy per Si atom -5573.695067 kJ/mol
# Density = 2.947009 g / cm^3
# Si number density = 29.537315 Si / 1000 Ang^3
#
#
#
# Elastic Constant Matrix: (Units=GPa)
#
#
# Indices 1 2 3 4 5 6 
#
# 1 141.9086 68.8267 -19.1173 -0.0027 8.4006 -0.0013
# 2 68.8267 218.6621 26.4536 0.0040 -1.4521 0.0012
# 3 -19.1173 26.4536 109.8380 -0.0027 -1.0636 -0.0012
# 4 -0.0027 0.0040 -0.0027 -699.8943 -0.0008 -363.5594
# 5 8.4006 -1.4521 -1.0636 -0.0008 47.7894 -0.0005
# 6 -0.0013 0.0012 -0.0012 -363.5594 -0.0005 -118.3797
#
#
#
# Elastic Compliance Matrix: (Units=1/GPa)
#
#
# Indices 1 2 3 4 5 6 
#
# 1 0.008959 -0.003108 0.002292 0.000000 -0.001618 0.000000
# 2 -0.003108 0.005789 -0.001929 0.000000 0.000679 0.000000
# 3 0.002292 -0.001929 0.009965 0.000000 -0.000240 0.000000
# 4 0.000000 0.000000 0.000000 0.002400 0.000000 -0.007371
# 5 -0.001618 0.000679 -0.000240 0.000000 0.021225 0.000000
# 6 0.000000 0.000000 0.000000 -0.007371 0.000000 0.014190
#
#
# Mechanical properties :
#
#
# Convention : Reuss Voigt Hill
#
# Bulk Modulus (GPa) = 52.01674 69.19274 60.60474
# Shear Modulus (GPa) = 67.18083 -127.81388 -30.31652
#
# Velocity S-wave (km/s) = 4.77428 -6.58528 -3.20719
# Velocity P-wave (km/s) = 6.93112 5.86045 2.61683
#
# Compressibility (1/GPa) = 0.01922458
#
# Stress axis : x y z
#
# Youngs Moduli (GPa) = 111.62294 172.73051 100.34671
#
# Poissons Ratio (x) = 0.53683 -0.23001
# Poissons Ratio (y) = 0.34692 0.19354
# Poissons Ratio (z) = -0.25585 0.33314
#
# Static dielectric constant tensor:
#      x y z
#    x 0.657590 0.000000 1.196150 
#    y 0.000000 2.167750 0.000000 
#    z 1.196150 0.000000 1.603170 
# 
# From -- ./inp_files/303874.got.cif
#   From: 2010.05.17/outbox.cif.g08.bks.cpg/sg15_152_cif.got.tgz:303874.got - 2010.06.03 18:47:42.
