data_PCOD9277260
_publ_section_title
;
Structure prediction by ZEFSAII (Michael W. Deem and Ramdas Pophale) SiO2 
 PCOD9277260
Probable space group: C 2/C
;
_chemical_formula_sum "Si O2"
_cell_formula_units_Z 52
_cell_length_a 23.826375
_cell_length_b 10.569031
_cell_length_c 24.313196
_cell_angle_alpha 90.000000
_cell_angle_beta 157.351127
_cell_angle_gamma 90.000000
_cell_volume 2357.703440
_symmetry_space_group_name_H-M "C 2/C"
_symmetry_group_IT_number 15
_symmetry_cell_setting 'monoclinic'
loop_
_space_group_symop_operation_xyz
x,y,z
-x,y,1/2-z
-x,-y,-z
x,-y,1/2+z
1/2+x,1/2+y,z
1/2-x,1/2+y,1/2-z
1/2-x,1/2-y,-z
1/2+x,1/2-y,1/2+z
loop_
_atom_site_type_symbol
_atom_site_label
_atom_site_fract_x
_atom_site_fract_y
_atom_site_fract_z
Si Si1 0.488553 0.692057 0.873428
Si Si2 0.704678 0.690761 0.163155
Si Si3 0.000000 0.801332 0.750000
Si Si4 0.423642 0.914298 0.262833
Si Si5 0.149169 0.987112 0.451191
Si Si6 0.883599 0.638009 0.099297
Si Si7 0.375870 0.944622 0.347270
O O1 0.335060 0.759923 0.741378
O O2 0.506355 0.566857 0.852530
O O3 0.594003 0.788617 0.936656
O O4 0.558713 0.669603 0.996223
O O5 0.758104 0.558663 0.237265
O O6 0.680295 0.810420 0.180848
O O7 0.933024 0.716223 0.738104
O O8 0.885372 0.892831 0.616815
O O9 0.556699 0.997218 0.360103
O O10 0.430165 0.916632 0.334412
O O11 0.272298 0.980512 0.107532
O O12 0.224611 0.881568 0.480721
O O13 0.000000 0.685938 0.250000
O O14 0.500000 0.000000 0.500000
#
# Coordination Sequence:
#
# PCOD9277260 Si02
#       7
#     8   8   4   8   8   8   8
#     4  12  24  45  72 102 141 182 241 304 356 442
#     4  12  26  48  76 104 143 189 254 303 378 436
#     4  12  26  40  66 106 144 188 232 282 370 450
#     4  11  22  46  68  91 146 187 225 292 364 433
#     4  11  24  40  65 105 140 180 235 287 360 435
#     4  10  20  40  70  95 136 183 224 282 356 425
#     4  12  26  51  75 108 142 199 251 316 375 439
#
# _framework density 22.055361000000001
#
# number of rings (size 3 to 8) (size 9 to 14) (size 15 to 20)
#    0.000    0.615    6.923    1.846    3.231    3.077 
#    0.000    0.000    0.000    0.000    0.000    0.000 
#    0.000    0.000    0.000    0.000    0.000    0.000 
#
# Total GULP energy -145353.383700 kJ/mol
# GULP energy per Si atom -5590.514758 kJ/mol
# Density = 2.200516 g / cm^3
# Si number density = 22.055361 Si / 1000 Ang^3
#
#
#
# Elastic Constant Matrix: (Units=GPa)
#
#
# Indices 1 2 3 4 5 6 
#
# 1 100.8655 31.0942 18.9454 -0.0002 -20.0092 -0.0001
# 2 31.0942 102.4505 16.2059 -0.0003 -21.3833 -0.0003
# 3 18.9454 16.2059 67.3018 -0.0005 -24.5671 -0.0005
# 4 -0.0002 -0.0003 -0.0005 38.8002 -0.0002 -6.9500
# 5 -20.0092 -21.3833 -24.5671 -0.0002 35.2073 -0.0001
# 6 -0.0001 -0.0003 -0.0005 -6.9500 -0.0001 34.8923
#
#
#
# Elastic Compliance Matrix: (Units=1/GPa)
#
#
# Indices 1 2 3 4 5 6 
#
# 1 0.011759 -0.002474 -0.001105 0.000000 0.004410 0.000000
# 2 -0.002474 0.011702 -0.000054 0.000000 0.005664 0.000000
# 3 -0.001105 -0.000054 0.020048 0.000000 0.013328 0.000000
# 4 0.000000 0.000000 0.000000 0.026727 0.000001 0.005324
# 5 0.004410 0.005664 0.013328 0.000001 0.043649 0.000001
# 6 0.000000 0.000000 0.000000 0.005324 0.000001 0.029720
#
#
# Mechanical properties :
#
#
# Convention : Reuss Voigt Hill
#
# Bulk Modulus (GPa) = 27.59105 44.78987 36.19046
# Shear Modulus (GPa) = 30.68394 35.40478 33.04436
#
# Velocity S-wave (km/s) = 3.73396 4.01093 3.87492
# Velocity P-wave (km/s) = 5.57916 6.46545 6.03859
#
# Compressibility (1/GPa) = 0.03624363
#
# Stress axis : x y z
#
# Youngs Moduli (GPa) = 85.04066 85.45317 49.88113
#
# Poissons Ratio (x) = 0.21140 0.05511
# Poissons Ratio (y) = 0.21038 0.00269
# Poissons Ratio (z) = 0.09396 0.00462
#
# Static dielectric constant tensor:
#      x y z
#    x 1.813750 0.000000 0.004220 
#    y 0.000000 1.857670 0.000000 
#    z 0.004220 0.000000 1.809140 
# 
# From -- ./inp_files/252760.got.cif
#   From: 2010.05.17/outbox.cif.g08.bks.cpg/sg15_127_cif.got.tgz:252760.got - 2010.06.03 18:47:42.
