data_PCOD9277288
_publ_section_title
;
Structure prediction by ZEFSAII (Michael W. Deem and Ramdas Pophale) SiO2 
 PCOD9277288
Probable space group: C 2/C
;
_chemical_formula_sum "Si O2"
_cell_formula_units_Z 40
_cell_length_a 13.081535
_cell_length_b 7.172383
_cell_length_c 19.571523
_cell_angle_alpha 90.000000
_cell_angle_beta 62.331166
_cell_angle_gamma 90.000000
_cell_volume 1626.324248
_symmetry_space_group_name_H-M "C 2/C"
_symmetry_group_IT_number 15
_symmetry_cell_setting 'monoclinic'
loop_
_space_group_symop_operation_xyz
x,y,z
-x,y,1/2-z
-x,-y,-z
x,-y,1/2+z
1/2+x,1/2+y,z
1/2-x,1/2+y,1/2-z
1/2-x,1/2-y,-z
1/2+x,1/2-y,1/2+z
loop_
_atom_site_type_symbol
_atom_site_label
_atom_site_fract_x
_atom_site_fract_y
_atom_site_fract_z
Si Si1 0.464210 0.479966 0.433400
Si Si2 0.490573 0.956278 0.582832
Si Si3 0.758645 0.315065 0.179839
Si Si4 0.400758 0.369375 0.735398
Si Si5 0.231945 0.432390 0.553501
O O1 0.500000 0.500000 0.500000
O O2 0.494955 0.264067 0.408020
O O3 0.535712 0.589194 0.355557
O O4 0.332333 0.547783 0.484460
O O5 0.607137 0.024012 0.584604
O O6 0.500000 0.000000 0.500000
O O7 0.369213 0.050012 0.636939
O O8 0.644158 0.442140 0.213962
O O9 0.751429 0.153795 0.123686
O O10 0.785126 0.235687 0.247272
O O11 0.500000 0.276077 0.750000
O O12 0.250000 0.250000 0.500000
#
# Coordination Sequence:
#
# PCOD9277288 Si02
#       5
#     8   8   8   8   8
#     4  11  21  44  69 100 137 177 228 284 338 409
#     4  11  21  39  69  99 131 179 227 279 340 406
#     4  12  25  47  67 100 141 180 230 284 345 415
#     4  12  27  45  69 102 141 180 229 288 348 410
#     4  10  20  40  71  95 134 173 226 278 344 399
#
# _framework density 24.595341000000001
#
# number of rings (size 3 to 8) (size 9 to 14) (size 15 to 20)
#    0.000    0.800    6.000    3.600    0.000    1.600 
#    3.600    3.000    0.000    0.000    0.000    0.000 
#    0.000    0.000    0.000    0.000    0.000    0.000 
#
# Total GULP energy -111512.794915 kJ/mol
# GULP energy per Si atom -5575.639746 kJ/mol
# Density = 2.453936 g / cm^3
# Si number density = 24.595341 Si / 1000 Ang^3
#
#
#
# Elastic Constant Matrix: (Units=GPa)
#
#
# Indices 1 2 3 4 5 6 
#
# 1 142.1162 12.2147 32.5035 0.0000 -8.8863 0.0000
# 2 12.2147 61.7761 16.6208 0.0000 -8.8311 0.0000
# 3 32.5035 16.6208 86.1625 0.0000 -18.6394 0.0000
# 4 0.0000 0.0000 0.0000 39.6161 0.0000 -2.9600
# 5 -8.8863 -8.8311 -18.6394 0.0000 47.1476 0.0000
# 6 0.0000 0.0000 0.0000 -2.9600 0.0000 35.7955
#
#
#
# Elastic Compliance Matrix: (Units=1/GPa)
#
#
# Indices 1 2 3 4 5 6 
#
# 1 0.007739 -0.000764 -0.002720 0.000000 0.000240 0.000000
# 2 -0.000764 0.017336 -0.002608 0.000000 0.002072 0.000000
# 3 -0.002720 -0.002608 0.014127 0.000000 0.004584 0.000000
# 4 0.000000 0.000000 0.000000 0.025399 0.000000 0.002100
# 5 0.000240 0.002072 0.004584 0.000000 0.023456 0.000000
# 6 0.000000 0.000000 0.000000 0.002100 0.000000 0.028110
#
#
# Mechanical properties :
#
#
# Convention : Reuss Voigt Hill
#
# Bulk Modulus (GPa) = 37.01153 45.85920 41.43537
# Shear Modulus (GPa) = 36.40137 39.75954 38.08045
#
# Velocity S-wave (km/s) = 3.85126 4.02499 3.93909
# Velocity P-wave (km/s) = 5.90400 6.34718 6.12960
#
# Compressibility (1/GPa) = 0.02701861
#
# Stress axis : x y z
#
# Youngs Moduli (GPa) = 129.21027 57.68211 70.78767
#
# Poissons Ratio (x) = 0.04407 0.19256
# Poissons Ratio (y) = 0.09872 0.18459
# Poissons Ratio (z) = 0.35148 0.15042
#
# Static dielectric constant tensor:
#      x y z
#    x 1.384640 0.000000 0.499700 
#    y 0.000000 1.800790 0.000000 
#    z 0.499700 0.000000 1.693080 
# 
# From -- ./inp_files/241903.got.cif
#   From: 2010.05.17/outbox.cif.g08.bks.cpg/sg15_121_cif.got.tgz:241903.got - 2010.06.03 18:47:42.
