data_PCOD9277469
_publ_section_title
;
Structure prediction by ZEFSAII (Michael W. Deem and Ramdas Pophale) SiO2 
 PCOD9277469
Probable space group: C 2/C
;
_chemical_formula_sum "Si O2"
_cell_formula_units_Z 60
_cell_length_a 21.808006
_cell_length_b 8.304318
_cell_length_c 19.313991
_cell_angle_alpha 90.000000
_cell_angle_beta 49.669654
_cell_angle_gamma 90.000000
_cell_volume 2666.444151
_symmetry_space_group_name_H-M "C 2/C"
_symmetry_group_IT_number 15
_symmetry_cell_setting 'monoclinic'
loop_
_space_group_symop_operation_xyz
x,y,z
-x,y,1/2-z
-x,-y,-z
x,-y,1/2+z
1/2+x,1/2+y,z
1/2-x,1/2+y,1/2-z
1/2-x,1/2-y,-z
1/2+x,1/2-y,1/2+z
loop_
_atom_site_type_symbol
_atom_site_label
_atom_site_fract_x
_atom_site_fract_y
_atom_site_fract_z
Si Si1 0.366747 0.937075 0.256271
Si Si2 0.937142 0.110974 0.883605
Si Si3 0.688918 0.512990 0.412640
Si Si4 0.067090 0.072103 0.898970
Si Si5 0.859471 0.831293 0.860717
Si Si6 0.176993 0.347784 0.985464
Si Si7 0.410372 0.053728 0.079888
Si Si8 0.000000 0.606655 0.250000
O O1 0.373859 0.952815 0.169082
O O2 0.444008 0.010720 0.237765
O O3 0.284837 0.030235 0.338610
O O4 0.364676 0.752113 0.282912
O O5 0.021608 0.065760 0.859150
O O6 0.945656 0.276954 0.837311
O O7 0.915766 0.971978 0.844721
O O8 0.866378 0.113839 0.993691
O O9 0.648187 0.515808 0.366059
O O10 0.678656 0.330751 0.449926
O O11 0.084189 0.260669 0.899523
O O12 0.000000 0.000000 0.000000
O O13 0.768100 0.894001 0.935237
O O14 0.868319 0.683582 0.909454
O O15 0.137338 0.457792 0.957046
O O16 0.500000 0.000000 0.000000
#
# Coordination Sequence:
#
# PCOD9277469 Si02
#       8
#     8   8   8   8   8   8   8   4
#     4  11  24  43  64  94 133 171 222 273 324 390
#     4  10  20  41  63  97 128 165 213 267 331 390
#     4   8  18  40  70  89 121 173 214 264 322 388
#     4   9  18  41  68  89 128 169 211 261 322 393
#     4   9  19  40  69  94 120 171 220 264 318 395
#     4   8  17  38  67  93 124 163 218 267 315 383
#     4  11  23  41  63  96 136 172 213 274 334 387
#     4  12  26  40  60  92 140 164 206 284 328 392
#
# _framework density 22.501878999999999
#
# number of rings (size 3 to 8) (size 9 to 14) (size 15 to 20)
#    0.000    2.400    1.333    1.600    1.867    1.067 
#    9.600    9.333    0.000    0.000    0.000    0.000 
#    0.000    0.000    0.000    0.000    0.000    0.000 
#
# Total GULP energy -167528.456193 kJ/mol
# GULP energy per Si atom -5584.281873 kJ/mol
# Density = 2.245066 g / cm^3
# Si number density = 22.501879 Si / 1000 Ang^3
#
#
#
# Elastic Constant Matrix: (Units=GPa)
#
#
# Indices 1 2 3 4 5 6 
#
# 1 127.7104 3.3995 12.8214 -0.0006 3.9066 -0.0008
# 2 3.3995 25.4924 3.4912 -0.0015 -2.7923 -0.0007
# 3 12.8214 3.4912 78.9489 0.0001 3.3928 -0.0002
# 4 -0.0006 -0.0015 0.0001 16.3880 0.0000 8.5853
# 5 3.9066 -2.7923 3.3928 0.0000 31.8738 0.0000
# 6 -0.0008 -0.0007 -0.0002 8.5853 0.0000 31.5453
#
#
#
# Elastic Compliance Matrix: (Units=1/GPa)
#
#
# Indices 1 2 3 4 5 6 
#
# 1 0.008008 -0.001004 -0.001216 0.000000 -0.000940 0.000000
# 2 -0.001004 0.040022 -0.001771 0.000004 0.003818 0.000000
# 3 -0.001216 -0.001771 0.013002 0.000000 -0.001390 0.000000
# 4 0.000000 0.000004 0.000000 0.071167 0.000000 -0.019369
# 5 -0.000940 0.003818 -0.001390 0.000000 0.031971 0.000000
# 6 0.000000 0.000000 0.000000 -0.019369 0.000000 0.036972
#
#
# Mechanical properties :
#
#
# Convention : Reuss Voigt Hill
#
# Bulk Modulus (GPa) = 18.85012 30.17510 24.51261
# Shear Modulus (GPa) = 22.04518 30.12406 26.08462
#
# Velocity S-wave (km/s) = 3.13342 3.66284 3.40843
# Velocity P-wave (km/s) = 4.63534 5.59712 5.13878
#
# Compressibility (1/GPa) = 0.05305005
#
# Stress axis : x y z
#
# Youngs Moduli (GPa) = 124.87903 24.98628 76.91188
#
# Poissons Ratio (x) = 0.02509 0.09350
# Poissons Ratio (y) = 0.12542 0.13619
# Poissons Ratio (z) = 0.15181 0.04425
#
# Static dielectric constant tensor:
#      x y z
#    x 1.849140 0.000000 0.016090 
#    y 0.000000 1.836990 0.000000 
#    z 0.016090 0.000000 1.895080 
# 
# From -- ./inp_files/214271.got.cif
#   From: 2010.05.17/outbox.cif.g08.bks.cpg/sg15_108_cif.got.tgz:214271.got - 2010.06.03 18:47:42.
