data_PCOD9277419
_publ_section_title
;
Structure prediction by ZEFSAII (Michael W. Deem and Ramdas Pophale) SiO2 
 PCOD9277419
Probable space group: C 2/C
;
_chemical_formula_sum "Si O2"
_cell_formula_units_Z 40
_cell_length_a 12.647644
_cell_length_b 20.845495
_cell_length_c 12.621878
_cell_angle_alpha 90.000000
_cell_angle_beta 36.807095
_cell_angle_gamma 90.000000
_cell_volume 1993.708378
_symmetry_space_group_name_H-M "C 2/C"
_symmetry_group_IT_number 15
_symmetry_cell_setting 'monoclinic'
loop_
_space_group_symop_operation_xyz
x,y,z
-x,y,1/2-z
-x,-y,-z
x,-y,1/2+z
1/2+x,1/2+y,z
1/2-x,1/2+y,1/2-z
1/2-x,1/2-y,-z
1/2+x,1/2-y,1/2+z
loop_
_atom_site_type_symbol
_atom_site_label
_atom_site_fract_x
_atom_site_fract_y
_atom_site_fract_z
Si Si1 0.863264 0.320352 0.021541
Si Si2 0.000000 0.780454 0.250000
Si Si3 0.070987 0.570825 0.464008
Si Si4 0.384402 0.653675 0.236236
Si Si5 0.500000 0.131073 0.750000
Si Si6 0.713256 0.285441 0.370537
O O1 0.677642 0.322233 0.107734
O O2 0.796924 0.299449 0.190032
O O3 0.980351 0.268010 0.865655
O O4 0.970691 0.384299 0.958948
O O5 0.278210 0.590060 0.288645
O O6 0.000000 0.500000 0.500000
O O7 0.028273 0.589869 0.620736
O O8 0.500000 0.645128 0.250000
O O9 0.236028 0.709480 0.369178
O O10 0.522453 0.683220 0.041301
O O11 0.661564 0.177725 0.647406
#
# Coordination Sequence:
#
# PCOD9277419 Si02
#       6
#     8   4   8   8   4   8
#     4  10  22  38  63  89 126 162 211 260 313 373
#     4  10  20  41  62  93 118 164 210 268 318 358
#     4  11  25  43  59  89 126 173 208 249 304 377
#     4  12  21  35  63  98 130 159 199 260 327 373
#     4  10  20  41  64  87 128 154 210 264 312 370
#     4  11  20  36  64 101 125 155 200 275 331 367
#
# _framework density 20.063115
#
# number of rings (size 3 to 8) (size 9 to 14) (size 15 to 20)
#    0.000    1.200    3.000    5.400    0.000    2.400 
#    1.800    4.000    0.000    0.000    0.000    0.000 
#    0.000    0.000    0.000    0.000    0.000    0.000 
#
# Total GULP energy -111603.958319 kJ/mol
# GULP energy per Si atom -5580.197916 kJ/mol
# Density = 2.001745 g / cm^3
# Si number density = 20.063115 Si / 1000 Ang^3
#
#
#
# Elastic Constant Matrix: (Units=GPa)
#
#
# Indices 1 2 3 4 5 6 
#
# 1 76.7882 61.9381 23.2491 -0.0038 -11.1889 0.0018
# 2 61.9381 103.4515 24.5396 -0.0071 -14.7678 0.0038
# 3 23.2491 24.5396 107.7112 -0.0079 -3.1603 0.0055
# 4 -0.0038 -0.0071 -0.0079 16.5304 0.0037 0.3524
# 5 -11.1889 -14.7678 -3.1603 0.0037 48.3484 -0.0014
# 6 0.0018 0.0038 0.0055 0.3524 -0.0014 38.2969
#
#
#
# Elastic Compliance Matrix: (Units=1/GPa)
#
#
# Indices 1 2 3 4 5 6 
#
# 1 0.025731 -0.014703 -0.002165 -0.000002 0.001322 0.000001
# 2 -0.014703 0.019066 -0.001101 0.000004 0.002349 -0.000001
# 3 -0.002165 -0.001101 0.009997 0.000004 -0.000184 -0.000001
# 4 -0.000002 0.000004 0.000004 0.060507 -0.000004 -0.000557
# 5 0.001322 0.002349 -0.000184 -0.000004 0.021695 0.000001
# 6 0.000001 -0.000001 -0.000001 -0.000557 0.000001 0.026117
#
#
# Mechanical properties :
#
#
# Convention : Reuss Voigt Hill
#
# Bulk Modulus (GPa) = 53.03812 56.37828 54.70820
# Shear Modulus (GPa) = 24.35039 32.51673 28.43356
#
# Velocity S-wave (km/s) = 3.48758 4.03019 3.76866
# Velocity P-wave (km/s) = 6.53534 7.05819 6.80179
#
# Compressibility (1/GPa) = 0.01885436
#
# Stress axis : x y z
#
# Youngs Moduli (GPa) = 38.86417 52.44989 100.03046
#
# Poissons Ratio (x) = 0.77117 0.21660
# Poissons Ratio (y) = 0.57142 0.11016
# Poissons Ratio (z) = 0.08415 0.05776
#
# Static dielectric constant tensor:
#      x y z
#    x 1.806980 0.000000 -0.016670 
#    y 0.000000 1.674030 0.000000 
#    z -0.016670 0.000000 1.758350 
# 
# From -- ./inp_files/50478.got.cif
#   From: 2010.05.17/outbox.cif.g08.bks.cpg/sg15_26_cif.got.tgz:50478.got - 2010.06.03 18:47:42.
