data_PCOD9277719
_publ_section_title
;
Structure prediction by ZEFSAII (Michael W. Deem and Ramdas Pophale) SiO2 
 PCOD9277719
Probable space group: C 2/C
;
_chemical_formula_sum "Si O2"
_cell_formula_units_Z 40
_cell_length_a 5.106418
_cell_length_b 15.254061
_cell_length_c 20.008095
_cell_angle_alpha 90.000000
_cell_angle_beta 114.666160
_cell_angle_gamma 90.000000
_cell_volume 1416.296914
_symmetry_space_group_name_H-M "C 2/C"
_symmetry_group_IT_number 15
_symmetry_cell_setting 'monoclinic'
loop_
_space_group_symop_operation_xyz
x,y,z
-x,y,1/2-z
-x,-y,-z
x,-y,1/2+z
1/2+x,1/2+y,z
1/2-x,1/2+y,1/2-z
1/2-x,1/2-y,-z
1/2+x,1/2-y,1/2+z
loop_
_atom_site_type_symbol
_atom_site_label
_atom_site_fract_x
_atom_site_fract_y
_atom_site_fract_z
Si Si1 0.820071 0.097417 0.943251
Si Si2 0.678792 0.702052 0.674767
Si Si3 0.000000 0.051922 0.750000
Si Si4 0.500000 0.156419 0.250000
Si Si5 0.779284 0.518315 0.407407
Si Si6 0.690744 0.158658 0.408008
O O1 0.680289 0.167779 0.877733
O O2 0.025910 0.029138 0.923617
O O3 0.024844 0.141216 0.020050
O O4 0.561851 0.042582 0.946832
O O5 0.672617 0.617884 0.720930
O O6 0.716905 0.780600 0.731643
O O7 0.376917 0.739194 0.611614
O O8 0.186466 0.995471 0.819951
O O9 0.682400 0.117205 0.331234
O O10 0.918273 0.616040 0.418144
#
# Coordination Sequence:
#
# PCOD9277719 Si02
#       6
#     8   8   4   4   8   8
#     4  11  23  44  71  96 137 175 222 272 336 397
#     4   8  18  40  66  94 131 176 222 268 328 391
#     4   9  20  44  64  94 135 174 222 267 334 390
#     4   7  18  34  66  88 135 160 228 255 334 366
#     4  11  25  42  70  99 134 177 219 275 335 397
#     4  10  20  41  68 102 134 174 225 278 330 394
#
# _framework density 28.242666
#
# number of rings (size 3 to 8) (size 9 to 14) (size 15 to 20)
#    1.200    1.200    0.000    1.800    0.000    6.400 
#    0.000   15.000    4.400    0.000    0.000    0.000 
#    0.000    0.000    0.000    0.000    0.000    0.000 
#
# Total GULP energy -111624.650310 kJ/mol
# GULP energy per Si atom -5581.232515 kJ/mol
# Density = 2.817838 g / cm^3
# Si number density = 28.242666 Si / 1000 Ang^3
#
#
#
# Elastic Constant Matrix: (Units=GPa)
#
#
# Indices 1 2 3 4 5 6 
#
# 1 156.4486 46.9614 47.6445 0.0000 -20.0655 0.0000
# 2 46.9614 67.9590 26.0570 0.0000 -2.5652 0.0000
# 3 47.6445 26.0570 181.7707 0.0000 -11.0731 0.0000
# 4 0.0000 0.0000 0.0000 47.0552 0.0000 -9.7636
# 5 -20.0655 -2.5652 -11.0731 0.0000 38.8874 0.0000
# 6 0.0000 0.0000 0.0000 -9.7636 0.0000 8.0955
#
#
#
# Elastic Compliance Matrix: (Units=1/GPa)
#
#
# Indices 1 2 3 4 5 6 
#
# 1 0.008952 -0.005535 -0.001317 0.000000 0.003879 0.000000
# 2 -0.005535 0.018999 -0.001395 0.000000 -0.002000 0.000000
# 3 -0.001317 -0.001395 0.006105 0.000000 0.000967 0.000000
# 4 0.000000 0.000000 0.000000 0.028345 0.000000 0.034185
# 5 0.003879 -0.002000 0.000967 0.000000 0.027860 0.000000
# 6 0.000000 0.000000 0.000000 0.034185 0.000000 0.164754
#
#
# Mechanical properties :
#
#
# Convention : Reuss Voigt Hill
#
# Bulk Modulus (GPa) = 56.93490 71.94489 64.43990
# Shear Modulus (GPa) = 18.02703 37.84200 27.93452
#
# Velocity S-wave (km/s) = 2.52918 3.66442 3.14839
# Velocity P-wave (km/s) = 5.36022 6.59038 6.00687
#
# Compressibility (1/GPa) = 0.01756392
#
# Stress axis : x y z
#
# Youngs Moduli (GPa) = 111.71099 52.63569 163.78994
#
# Poissons Ratio (x) = 0.29132 0.21566
# Poissons Ratio (y) = 0.61827 0.22842
# Poissons Ratio (z) = 0.14709 0.07341
#
# Static dielectric constant tensor:
#      x y z
#    x 2.251340 0.000000 0.036750 
#    y 0.000000 2.256610 0.000000 
#    z 0.036750 0.000000 2.404230 
# 
# From -- ./inp_files/260242.got.cif
#   From: 2010.05.17/outbox.cif.g08.bks.cpg/sg15_131_cif.got.tgz:260242.got - 2010.06.03 18:47:42.
