data_PCOD9277570
_publ_section_title
;
Structure prediction by ZEFSAII (Michael W. Deem and Ramdas Pophale) SiO2 
 PCOD9277570
Probable space group: C 2/C
;
_chemical_formula_sum "Si O2"
_cell_formula_units_Z 56
_cell_length_a 27.962449
_cell_length_b 11.235609
_cell_length_c 8.748883
_cell_angle_alpha 90.000000
_cell_angle_beta 110.402681
_cell_angle_gamma 90.000000
_cell_volume 2576.244898
_symmetry_space_group_name_H-M "C 2/C"
_symmetry_group_IT_number 15
_symmetry_cell_setting 'monoclinic'
loop_
_space_group_symop_operation_xyz
x,y,z
-x,y,1/2-z
-x,-y,-z
x,-y,1/2+z
1/2+x,1/2+y,z
1/2-x,1/2+y,1/2-z
1/2-x,1/2-y,-z
1/2+x,1/2-y,1/2+z
loop_
_atom_site_type_symbol
_atom_site_label
_atom_site_fract_x
_atom_site_fract_y
_atom_site_fract_z
Si Si1 0.869247 0.105836 0.270297
Si Si2 0.018995 0.294965 0.438592
Si Si3 0.736288 0.868058 0.073200
Si Si4 0.797406 0.043274 0.922476
Si Si5 0.378145 0.217092 0.024925
Si Si6 0.045275 0.531195 0.419062
Si Si7 0.447180 0.598310 0.787347
O O1 0.882973 0.232008 0.358090
O O2 0.831312 0.045396 0.354132
O O3 0.919265 0.023332 0.305148
O O4 0.837575 0.109248 0.077793
O O5 0.062315 0.398286 0.479233
O O6 0.035907 0.181600 0.553027
O O7 0.000000 0.259871 0.250000
O O8 0.976875 0.377368 0.478844
O O9 0.765618 0.879138 0.266868
O O10 0.750000 0.750000 0.000000
O O11 0.676888 0.843455 0.027913
O O12 0.757870 0.973737 0.989199
O O13 0.412734 0.108305 0.113194
O O14 0.402144 0.327302 0.149498
O O15 0.000000 0.515288 0.250000
O O16 0.500000 0.582646 0.750000
#
# Coordination Sequence:
#
# PCOD9277570 Si02
#       7
#     8   8   8   8   8   8   8
#     4  11  23  44  71 100 140 188 232 293 359 421
#     4  10  21  39  66  95 135 184 232 288 343 403
#     4  11  23  46  75 100 140 185 233 299 366 416
#     4  10  23  47  70 104 138 181 242 303 356 425
#     4  12  22  42  70  99 136 187 228 288 362 425
#     4  10  20  41  65  93 141 180 221 289 351 415
#     4  12  24  46  69  98 146 193 232 284 349 432
#
# _framework density 21.737062999999999
#
# number of rings (size 3 to 8) (size 9 to 14) (size 15 to 20)
#    0.000    1.143    5.714    0.857    0.000    3.429 
#    0.000    0.714    0.000    0.000    0.000    0.000 
#    0.000    0.000    0.000    0.000    0.000    0.000 
#
# Total GULP energy -156123.495379 kJ/mol
# GULP energy per Si atom -5575.839121 kJ/mol
# Density = 2.168759 g / cm^3
# Si number density = 21.737063 Si / 1000 Ang^3
#
#
#
# Elastic Constant Matrix: (Units=GPa)
#
#
# Indices 1 2 3 4 5 6 
#
# 1 75.4042 47.1138 43.3420 0.0000 12.4449 0.0000
# 2 47.1138 74.4135 36.0834 0.0000 8.9289 0.0000
# 3 43.3420 36.0834 162.6746 0.0000 5.0551 0.0000
# 4 0.0000 0.0000 0.0000 32.7172 0.0000 -4.5923
# 5 12.4449 8.9289 5.0551 0.0000 22.6318 0.0000
# 6 0.0000 0.0000 0.0000 -4.5923 0.0000 27.4127
#
#
#
# Elastic Compliance Matrix: (Units=1/GPa)
#
#
# Indices 1 2 3 4 5 6 
#
# 1 0.024627 -0.013008 -0.003439 0.000000 -0.007642 0.000000
# 2 -0.013008 0.022570 -0.001497 0.000000 -0.001417 0.000000
# 3 -0.003439 -0.001497 0.007369 0.000000 0.000835 0.000000
# 4 0.000000 0.000000 0.000000 0.031301 0.000000 0.005244
# 5 -0.007642 -0.001417 0.000835 0.000000 0.048760 0.000000
# 6 0.000000 0.000000 0.000000 0.005244 0.000000 0.037358
#
#
# Mechanical properties :
#
#
# Convention : Reuss Voigt Hill
#
# Bulk Modulus (GPa) = 53.53248 62.84121 58.18685
# Shear Modulus (GPa) = 23.35365 28.94921 26.15143
#
# Velocity S-wave (km/s) = 3.28131 3.65333 3.47231
# Velocity P-wave (km/s) = 6.24794 6.83873 6.55000
#
# Compressibility (1/GPa) = 0.01868025
#
# Stress axis : x y z
#
# Youngs Moduli (GPa) = 40.60538 44.30660 135.69581
#
# Poissons Ratio (x) = 0.57634 0.46662
# Poissons Ratio (y) = 0.52819 0.20307
# Poissons Ratio (z) = 0.13963 0.06631
#
# Static dielectric constant tensor:
#      x y z
#    x 1.789650 0.000000 -0.051640 
#    y 0.000000 1.881890 0.000000 
#    z -0.051640 0.000000 1.808920 
# 
# From -- ./inp_files/65548.got.cif
#   From: 2010.05.17/outbox.cif.g08.bks.cpg/sg15_33_cif.got.tgz:65548.got - 2010.06.03 18:47:42.
