data_PCOD9277407
_publ_section_title
;
Structure prediction by ZEFSAII (Michael W. Deem and Ramdas Pophale) SiO2 
 PCOD9277407
Probable space group: C 2/C
;
_chemical_formula_sum "Si O2"
_cell_formula_units_Z 60
_cell_length_a 21.282630
_cell_length_b 7.236605
_cell_length_c 22.871238
_cell_angle_alpha 90.000000
_cell_angle_beta 44.386450
_cell_angle_gamma 90.000000
_cell_volume 2463.962247
_symmetry_space_group_name_H-M "C 2/C"
_symmetry_group_IT_number 15
_symmetry_cell_setting 'monoclinic'
loop_
_space_group_symop_operation_xyz
x,y,z
-x,y,1/2-z
-x,-y,-z
x,-y,1/2+z
1/2+x,1/2+y,z
1/2-x,1/2+y,1/2-z
1/2-x,1/2-y,-z
1/2+x,1/2-y,1/2+z
loop_
_atom_site_type_symbol
_atom_site_label
_atom_site_fract_x
_atom_site_fract_y
_atom_site_fract_z
Si Si1 0.500000 0.031287 0.250000
Si Si2 0.410115 0.105693 0.628443
Si Si3 0.108314 0.509280 0.491332
Si Si4 0.328638 0.132688 0.805480
Si Si5 0.458828 0.536564 0.603711
Si Si6 0.361675 0.575649 0.559608
Si Si7 0.274788 0.414205 0.938140
Si Si8 0.955402 0.886889 0.337263
O O1 0.447715 0.171269 0.327503
O O2 0.575306 0.919604 0.232935
O O3 0.502379 0.986518 0.576146
O O4 0.340684 0.099205 0.728125
O O5 0.437919 0.320180 0.612764
O O6 0.377483 0.057200 0.584876
O O7 0.121485 0.732552 0.484514
O O8 0.189460 0.454730 0.480189
O O9 0.239930 0.013891 0.880569
O O10 0.304914 0.324960 0.854864
O O11 0.384708 0.626616 0.611806
O O12 0.559752 0.563311 0.511075
O O13 0.470804 0.591477 0.661785
O O14 0.359943 0.518542 0.909261
O O15 0.250000 0.250000 0.000000
O O16 0.000000 0.973805 0.250000
#
# Coordination Sequence:
#
# PCOD9277407 Si02
#       8
#     4   8   8   8   8   8   8   8
#     4  10  28  40  60  94 132 168 216 266 338 388
#     4  10  21  37  63  92 128 163 214 264 323 387
#     4   9  21  39  59  96 124 167 208 264 326 385
#     4  11  24  41  63  96 121 172 219 271 328 393
#     4  10  20  41  62  88 120 169 204 258 327 384
#     4   9  21  39  63  87 124 157 209 260 315 387
#     4  11  23  41  70  95 129 171 225 271 328 412
#     4  10  23  41  60  89 126 169 204 268 329 385
#
# _framework density 24.351023999999999
#
# number of rings (size 3 to 8) (size 9 to 14) (size 15 to 20)
#    0.400    1.600    0.000    3.200    6.533    4.267 
#    0.000    2.667    0.000    0.000    0.000    0.000 
#    0.000    0.000    0.000    0.000    0.000    0.000 
#
# Total GULP energy -167382.293707 kJ/mol
# GULP energy per Si atom -5579.409790 kJ/mol
# Density = 2.429560 g / cm^3
# Si number density = 24.351024 Si / 1000 Ang^3
#
#
#
# Elastic Constant Matrix: (Units=GPa)
#
#
# Indices 1 2 3 4 5 6 
#
# 1 107.6119 -10.3668 12.8108 0.0004 -7.3678 0.0018
# 2 -10.3668 28.7513 9.0018 -0.0093 -3.3319 -0.0040
# 3 12.8108 9.0018 100.6378 0.0013 -1.6216 0.0011
# 4 0.0004 -0.0093 0.0013 25.7078 0.0008 0.1932
# 5 -7.3678 -3.3319 -1.6216 0.0008 51.0230 -0.0003
# 6 0.0018 -0.0040 0.0011 0.1932 -0.0003 29.0576
#
#
#
# Elastic Compliance Matrix: (Units=1/GPa)
#
#
# Indices 1 2 3 4 5 6 
#
# 1 0.010018 0.004318 -0.001634 0.000001 0.001677 0.000000
# 2 0.004318 0.037901 -0.003892 0.000014 0.002975 0.000005
# 3 -0.001634 -0.003892 0.010490 -0.000002 -0.000157 -0.000001
# 4 0.000001 0.000014 -0.000002 0.038901 0.000000 -0.000259
# 5 0.001677 0.002975 -0.000157 0.000000 0.020030 0.000000
# 6 0.000000 0.000005 -0.000001 -0.000259 0.000000 0.034416
#
#
# Mechanical properties :
#
#
# Convention : Reuss Voigt Hill
#
# Bulk Modulus (GPa) = 17.85933 28.87698 23.36815
# Shear Modulus (GPa) = 28.92890 36.19469 32.56180
#
# Velocity S-wave (km/s) = 3.45047 3.85953 3.66072
# Velocity P-wave (km/s) = 4.81917 5.63433 5.24262
#
# Compressibility (1/GPa) = 0.05599315
#
# Stress axis : x y z
#
# Youngs Moduli (GPa) = 99.82010 26.38432 95.32630
#
# Poissons Ratio (x) = -0.11393 0.15581
# Poissons Ratio (y) = -0.43104 0.37100
# Poissons Ratio (z) = 0.16316 0.10269
#
# Static dielectric constant tensor:
#      x y z
#    x 1.984140 0.000000 0.034530 
#    y 0.000000 1.965690 0.000000 
#    z 0.034530 0.000000 2.029350 
# 
# From -- ./inp_files/252117.got.cif
#   From: 2010.05.17/outbox.cif.g08.bks.cpg/sg15_127_cif.got.tgz:252117.got - 2010.06.03 18:47:42.
