data_PCOD9277278
_publ_section_title
;
Structure prediction by ZEFSAII (Michael W. Deem and Ramdas Pophale) SiO2 
 PCOD9277278
Probable space group: C 2/C
;
_chemical_formula_sum "Si O2"
_cell_formula_units_Z 52
_cell_length_a 14.511642
_cell_length_b 9.863393
_cell_length_c 24.164693
_cell_angle_alpha 90.000000
_cell_angle_beta 140.967499
_cell_angle_gamma 90.000000
_cell_volume 2178.211387
_symmetry_space_group_name_H-M "C 2/C"
_symmetry_group_IT_number 15
_symmetry_cell_setting 'monoclinic'
loop_
_space_group_symop_operation_xyz
x,y,z
-x,y,1/2-z
-x,-y,-z
x,-y,1/2+z
1/2+x,1/2+y,z
1/2-x,1/2+y,1/2-z
1/2-x,1/2-y,-z
1/2+x,1/2-y,1/2+z
loop_
_atom_site_type_symbol
_atom_site_label
_atom_site_fract_x
_atom_site_fract_y
_atom_site_fract_z
Si Si1 0.894046 0.408617 0.413102
Si Si2 0.659678 0.946326 0.727242
Si Si3 0.500000 0.365181 0.750000
Si Si4 0.349851 0.125645 0.089298
Si Si5 0.834640 0.070936 0.599470
Si Si6 0.449774 0.349255 0.985276
Si Si7 0.726829 0.717324 0.681078
O O1 0.867840 0.481166 0.344131
O O2 0.746799 0.403247 0.380607
O O3 0.000000 0.500000 0.500000
O O4 0.947091 0.254023 0.432859
O O5 0.753466 0.056097 0.803015
O O6 0.499921 0.936923 0.680089
O O7 0.722241 0.801799 0.736498
O O8 0.449408 0.457031 0.672868
O O9 0.358622 0.278741 0.704852
O O10 0.393035 0.285528 0.103320
O O11 0.288995 0.047645 0.005962
O O12 0.210958 0.133737 0.064129
O O13 0.567084 0.272628 0.078998
O O14 0.500000 0.500000 0.000000
#
# Coordination Sequence:
#
# PCOD9277278 Si02
#       7
#     8   8   4   8   8   8   8
#     4  11  19  43  69  97 127 186 229 281 343 423
#     4  12  26  46  71 105 143 185 239 295 357 424
#     4  12  26  44  68 104 152 184 234 296 370 414
#     4  10  23  42  74 100 137 184 247 281 346 425
#     4  10  20  40  71 100 131 184 234 285 341 427
#     4  11  26  46  71 100 142 187 242 296 349 424
#     4  12  29  46  69 105 148 183 234 301 362 421
#
# _framework density 23.872796000000001
#
# number of rings (size 3 to 8) (size 9 to 14) (size 15 to 20)
#    0.000    0.923    4.615    1.846    8.615    0.000 
#    2.769    1.538    0.000    0.000    0.000    0.000 
#    0.000    0.000    0.000    0.000    0.000    0.000 
#
# Total GULP energy -145097.460139 kJ/mol
# GULP energy per Si atom -5580.671544 kJ/mol
# Density = 2.381846 g / cm^3
# Si number density = 23.872796 Si / 1000 Ang^3
#
#
#
# Elastic Constant Matrix: (Units=GPa)
#
#
# Indices 1 2 3 4 5 6 
#
# 1 79.1131 14.0869 31.6802 0.0000 26.4293 0.0000
# 2 14.0869 107.4827 27.1380 0.0000 9.2448 0.0000
# 3 31.6802 27.1380 90.3795 0.0000 1.7510 0.0000
# 4 0.0000 0.0000 0.0000 45.6269 0.0000 0.6270
# 5 26.4293 9.2448 1.7510 0.0000 35.8232 0.0000
# 6 0.0000 0.0000 0.0000 0.6270 0.0000 26.6677
#
#
#
# Elastic Compliance Matrix: (Units=1/GPa)
#
#
# Indices 1 2 3 4 5 6 
#
# 1 0.020261 0.000357 -0.006924 0.000000 -0.014701 0.000000
# 2 0.000357 0.010293 -0.003162 0.000000 -0.002765 0.000000
# 3 -0.006924 -0.003162 0.014340 0.000000 0.005224 0.000000
# 4 0.000000 0.000000 0.000000 0.021924 0.000000 -0.000515
# 5 -0.014701 -0.002765 0.005224 0.000000 0.039220 0.000000
# 6 0.000000 0.000000 0.000000 -0.000515 0.000000 0.037511
#
#
# Mechanical properties :
#
#
# Convention : Reuss Voigt Hill
#
# Bulk Modulus (GPa) = 39.31567 46.97618 43.14592
# Shear Modulus (GPa) = 29.15704 35.22823 32.19264
#
# Velocity S-wave (km/s) = 3.49857 3.84560 3.67619
# Velocity P-wave (km/s) = 5.72927 6.28002 6.01096
#
# Compressibility (1/GPa) = 0.02543515
#
# Stress axis : x y z
#
# Youngs Moduli (GPa) = 49.35692 97.15039 69.73510
#
# Poissons Ratio (x) = -0.03472 0.48287
# Poissons Ratio (y) = -0.01764 0.22053
# Poissons Ratio (z) = 0.34176 0.30723
#
# Static dielectric constant tensor:
#      x y z
#    x 1.922020 0.000000 0.015640 
#    y 0.000000 1.986510 0.000000 
#    z 0.015640 0.000000 2.008510 
# 
# From -- ./inp_files/313225.got.cif
#   From: 2010.05.17/outbox.cif.g08.bks.cpg/sg15_157_cif.got.tgz:313225.got - 2010.06.03 18:47:42.
