data_PCOD9277907
_publ_section_title
;
Structure prediction by ZEFSAII (Michael W. Deem and Ramdas Pophale) SiO2 
 PCOD9277907
Probable space group: C 2/C
;
_chemical_formula_sum "Si O2"
_cell_formula_units_Z 48
_cell_length_a 20.029763
_cell_length_b 7.605113
_cell_length_c 20.816426
_cell_angle_alpha 90.000000
_cell_angle_beta 48.370460
_cell_angle_gamma 90.000000
_cell_volume 2370.135098
_symmetry_space_group_name_H-M "C 2/C"
_symmetry_group_IT_number 15
_symmetry_cell_setting 'monoclinic'
loop_
_space_group_symop_operation_xyz
x,y,z
-x,y,1/2-z
-x,-y,-z
x,-y,1/2+z
1/2+x,1/2+y,z
1/2-x,1/2+y,1/2-z
1/2-x,1/2-y,-z
1/2+x,1/2-y,1/2+z
loop_
_atom_site_type_symbol
_atom_site_label
_atom_site_fract_x
_atom_site_fract_y
_atom_site_fract_z
Si Si1 0.541371 0.348943 0.116916
Si Si2 0.330453 0.482765 0.570771
Si Si3 0.376552 0.766863 0.640542
Si Si4 0.638589 0.143538 0.706892
Si Si5 0.000000 0.385831 0.750000
Si Si6 0.192492 0.333800 0.314934
Si Si7 0.000000 0.108727 0.250000
O O1 0.471380 0.254968 0.114318
O O2 0.564601 0.221804 0.161558
O O3 0.493819 0.501473 0.188187
O O4 0.621674 0.425188 0.024588
O O5 0.378871 0.645649 0.575587
O O6 0.230040 0.554223 0.626402
O O7 0.331038 0.313247 0.617742
O O8 0.299410 0.679542 0.735021
O O9 0.343775 0.967984 0.648786
O O10 0.654719 0.212944 0.768327
O O11 0.592229 0.282479 0.689560
O O12 0.562076 0.996980 0.756922
#
# Coordination Sequence:
#
# PCOD9277907 Si02
#       7
#     8   8   8   8   4   8   4
#     4  11  23  41  61  94 125 166 215 258 320 371
#     4  11  24  39  63  99 126 160 211 274 310 377
#     4  11  21  39  64  94 125 164 207 260 325 377
#     4  10  21  41  62  92 122 168 217 246 319 378
#     4  10  20  42  62  80 126 172 206 250 302 388
#     4  11  20  39  68  92 125 167 206 263 322 375
#     4  10  24  40  68  82 130 182 206 264 302 384
#
# _framework density 20.252009999999999
#
# number of rings (size 3 to 8) (size 9 to 14) (size 15 to 20)
#    0.000    1.333    5.000    1.500    2.333    2.000 
#    6.000    0.000    0.000    0.000    0.000    0.000 
#    0.000    0.000    0.000    0.000    0.000    0.000 
#
# Total GULP energy -133771.682562 kJ/mol
# GULP energy per Si atom -5573.820107 kJ/mol
# Density = 2.020592 g / cm^3
# Si number density = 20.252010 Si / 1000 Ang^3
#
#
#
# Elastic Constant Matrix: (Units=GPa)
#
#
# Indices 1 2 3 4 5 6 
#
# 1 70.5207 15.9718 12.2359 0.0001 -8.6011 0.0000
# 2 15.9718 74.9488 -3.4155 0.0002 -5.4850 0.0003
# 3 12.2359 -3.4155 56.1118 0.0002 0.8424 -0.0001
# 4 0.0001 0.0002 0.0002 -16.2832 0.0000 -22.5305
# 5 -8.6011 -5.4850 0.8424 0.0000 11.5151 0.0000
# 6 0.0000 0.0003 -0.0001 -22.5305 0.0000 1.6133
#
#
#
# Elastic Compliance Matrix: (Units=1/GPa)
#
#
# Indices 1 2 3 4 5 6 
#
# 1 0.016962 -0.002953 -0.004052 0.000000 0.011559 0.000000
# 2 -0.002953 0.014370 0.001451 0.000000 0.004533 0.000000
# 3 -0.004052 0.001451 0.018849 0.000000 -0.003715 0.000000
# 4 0.000000 0.000000 0.000000 -0.003022 0.000000 -0.042200
# 5 0.011559 0.004533 -0.003715 0.000000 0.097908 0.000000
# 6 0.000000 0.000000 0.000000 -0.042200 0.000000 0.030499
#
#
# Mechanical properties :
#
#
# Convention : Reuss Voigt Hill
#
# Bulk Modulus (GPa) = 25.59425 27.90729 26.75077
# Shear Modulus (GPa) = 25.03765 11.15496 18.09630
#
# Velocity S-wave (km/s) = 3.51993 2.34948 2.99248
# Velocity P-wave (km/s) = 5.40233 4.60108 5.01773
#
# Compressibility (1/GPa) = 0.03907127
#
# Stress axis : x y z
#
# Youngs Moduli (GPa) = 58.95515 69.59128 53.05256
#
# Poissons Ratio (x) = 0.20553 0.21497
# Poissons Ratio (y) = 0.17412 -0.07696
# Poissons Ratio (z) = 0.23889 -0.10095
#
# Static dielectric constant tensor:
#      x y z
#    x 1.720410 0.000000 0.009090 
#    y 0.000000 1.821990 0.000000 
#    z 0.009090 0.000000 1.694010 
# 
# From -- ./inp_files/180731.got.cif
#   From: 2010.05.17/outbox.cif.g08.bks.cpg/sg15_91_cif.got.tgz:180731.got - 2010.06.03 18:47:42.
