data_PCOD9277305
_publ_section_title
;
Structure prediction by ZEFSAII (Michael W. Deem and Ramdas Pophale) SiO2 
 PCOD9277305
Probable space group: C 2/C
;
_chemical_formula_sum "Si O2"
_cell_formula_units_Z 44
_cell_length_a 20.885768
_cell_length_b 6.759788
_cell_length_c 11.639899
_cell_angle_alpha 90.000000
_cell_angle_beta 84.790419
_cell_angle_gamma 90.000000
_cell_volume 1636.571752
_symmetry_space_group_name_H-M "C 2/C"
_symmetry_group_IT_number 15
_symmetry_cell_setting 'monoclinic'
loop_
_space_group_symop_operation_xyz
x,y,z
-x,y,1/2-z
-x,-y,-z
x,-y,1/2+z
1/2+x,1/2+y,z
1/2-x,1/2+y,1/2-z
1/2-x,1/2-y,-z
1/2+x,1/2-y,1/2+z
loop_
_atom_site_type_symbol
_atom_site_label
_atom_site_fract_x
_atom_site_fract_y
_atom_site_fract_z
Si Si1 0.868564 0.430091 0.459313
Si Si2 0.331966 0.225860 0.270955
Si Si3 0.297695 0.368669 0.842225
Si Si4 0.500000 0.941539 0.750000
Si Si5 0.951459 0.829527 0.083381
Si Si6 0.905240 0.744431 0.638828
O O1 0.856706 0.550663 0.345560
O O2 0.815138 0.260334 0.450246
O O3 0.931787 0.296620 0.474310
O O4 0.870196 0.601929 0.553427
O O5 0.308542 0.399912 0.358888
O O6 0.270779 0.170365 0.203848
O O7 0.390362 0.715872 0.678162
O O8 0.351419 0.322911 0.735382
O O9 0.491166 0.781108 0.857056
O O10 0.452483 0.098291 0.698271
O O11 0.945611 0.068430 0.078319
#
# Coordination Sequence:
#
# PCOD9277305 Si02
#       6
#     8   8   8   4   8   8
#     4  11  21  39  64  92 127 164 211 247 312 370
#     4  11  23  41  60  89 130 166 203 253 307 367
#     4  11  23  41  60  89 130 166 203 253 307 367
#     4  10  20  40  72  88 124 160 210 258 308 366
#     4  10  23  42  63  94 124 164 208 255 310 368
#     4  10  23  42  63  94 124 164 208 255 310 368
#
# _framework density 26.885467999999999
#
# number of rings (size 3 to 8) (size 9 to 14) (size 15 to 20)
#    0.000    1.455    1.818    3.818    0.000    1.455 
#    0.000   14.545    0.000   26.182    0.000    0.000 
#    0.000    0.000    0.000    0.000    0.000    0.000 
#
# Total GULP energy -123030.877078 kJ/mol
# GULP energy per Si atom -5592.312594 kJ/mol
# Density = 2.682428 g / cm^3
# Si number density = 26.885468 Si / 1000 Ang^3
#
#
#
# Elastic Constant Matrix: (Units=GPa)
#
#
# Indices 1 2 3 4 5 6 
#
# 1 77.5603 25.5984 31.9237 0.0000 15.3199 0.0000
# 2 25.5984 216.3442 64.1070 0.0000 22.4871 0.0000
# 3 31.9237 64.1070 154.1418 0.0000 44.5417 0.0000
# 4 0.0000 0.0000 0.0000 60.4840 0.0000 5.6626
# 5 15.3199 22.4871 44.5417 0.0000 34.8353 0.0000
# 6 0.0000 0.0000 0.0000 5.6626 0.0000 31.5187
#
#
#
# Elastic Compliance Matrix: (Units=1/GPa)
#
#
# Indices 1 2 3 4 5 6 
#
# 1 0.014579 -0.000866 -0.001535 0.000000 -0.003890 0.000000
# 2 -0.000866 0.005343 -0.001834 0.000000 -0.000724 0.000000
# 3 -0.001535 -0.001834 0.011151 0.000000 -0.012399 0.000000
# 4 0.000000 0.000000 0.000000 0.016816 0.000000 -0.003021
# 5 -0.003890 -0.000724 -0.012399 0.000000 0.046738 0.000000
# 6 0.000000 0.000000 0.000000 -0.003021 0.000000 0.032270
#
#
# Mechanical properties :
#
#
# Convention : Reuss Voigt Hill
#
# Bulk Modulus (GPa) = 44.24075 76.81161 60.52618
# Shear Modulus (GPa) = 34.98880 47.12873 41.05877
#
# Velocity S-wave (km/s) = 3.61141 4.19136 3.91215
# Velocity P-wave (km/s) = 5.82071 7.21494 6.55500
#
# Compressibility (1/GPa) = 0.02260360
#
# Stress axis : x y z
#
# Youngs Moduli (GPa) = 68.59092 187.14921 89.67661
#
# Poissons Ratio (x) = 0.16203 0.13769
# Poissons Ratio (y) = 0.05939 0.16445
# Poissons Ratio (z) = 0.10532 0.34320
#
# Static dielectric constant tensor:
#      x y z
#    x 2.284810 0.000000 -0.117170 
#    y 0.000000 2.148010 0.000000 
#    z -0.117170 0.000000 2.107290 
# 
# From -- ./inp_files/175781.got.cif
#   From: 2010.05.17/outbox.cif.g08.bks.cpg/sg15_88_cif.got.tgz:175781.got - 2010.06.03 18:47:42.
