data_PCOD9277633
_publ_section_title
;
Structure prediction by ZEFSAII (Michael W. Deem and Ramdas Pophale) SiO2 
 PCOD9277633
Probable space group: C 2/C
;
_chemical_formula_sum "Si O2"
_cell_formula_units_Z 40
_cell_length_a 8.687255
_cell_length_b 24.199901
_cell_length_c 18.116243
_cell_angle_alpha 90.000000
_cell_angle_beta 27.884562
_cell_angle_gamma 90.000000
_cell_volume 1781.246127
_symmetry_space_group_name_H-M "C 2/C"
_symmetry_group_IT_number 15
_symmetry_cell_setting 'monoclinic'
loop_
_space_group_symop_operation_xyz
x,y,z
-x,y,1/2-z
-x,-y,-z
x,-y,1/2+z
1/2+x,1/2+y,z
1/2-x,1/2+y,1/2-z
1/2-x,1/2-y,-z
1/2+x,1/2-y,1/2+z
loop_
_atom_site_type_symbol
_atom_site_label
_atom_site_fract_x
_atom_site_fract_y
_atom_site_fract_z
Si Si1 0.872785 0.159595 0.621086
Si Si2 0.683324 0.761607 0.939582
Si Si3 0.626427 0.538076 0.883025
Si Si4 0.662922 0.133871 0.866360
Si Si5 0.704744 0.537518 0.094226
O O1 0.500000 0.154339 0.750000
O O2 0.012902 0.209745 0.513671
O O3 0.033679 0.099065 0.548965
O O4 0.797757 0.167585 0.738759
O O5 0.000000 0.766666 0.750000
O O6 0.750000 0.750000 0.000000
O O7 0.491366 0.819297 0.016814
O O8 0.538387 0.502627 0.848117
O O9 0.000000 0.544841 0.750000
O O10 0.500000 0.500000 0.000000
O O11 0.000000 0.105649 0.750000
O O12 0.383353 0.087241 0.973122
O O13 0.500000 0.561288 0.250000
O O14 0.000000 0.500000 0.000000
#
# Coordination Sequence:
#
# PCOD9277633 Si02
#       5
#     8   8   8   8   8
#     4  10  20  41  66  94 138 182 233 288 360 419
#     4  11  22  44  73 101 139 189 239 295 368 433
#     4  11  23  40  66  98 137 186 236 292 358 429
#     4  12  25  43  70 104 143 193 241 302 361 434
#     4  12  24  43  69 104 146 193 244 299 369 444
#
# _framework density 22.456189999999999
#
# number of rings (size 3 to 8) (size 9 to 14) (size 15 to 20)
#    0.000    0.800    4.000    7.200    0.000    0.800 
#    0.000    1.000    0.000    0.000    0.000    0.000 
#    0.000    0.000    0.000    0.000    0.000    0.000 
#
# Total GULP energy -111399.831341 kJ/mol
# GULP energy per Si atom -5569.991567 kJ/mol
# Density = 2.240508 g / cm^3
# Si number density = 22.456190 Si / 1000 Ang^3
#
#
#
# Elastic Constant Matrix: (Units=GPa)
#
#
# Indices 1 2 3 4 5 6 
#
# 1 84.9836 23.3523 34.3456 0.0062 9.9908 0.0012
# 2 23.3523 175.6699 47.9161 0.0011 9.5765 -0.0005
# 3 34.3456 47.9161 84.0800 0.1561 18.4885 0.0014
# 4 0.0062 0.0011 0.1561 101.5063 -0.0182 17.7874
# 5 9.9908 9.5765 18.4885 -0.0182 37.2933 -0.0031
# 6 0.0012 -0.0005 0.0014 17.7874 -0.0031 34.9219
#
#
#
# Elastic Compliance Matrix: (Units=1/GPa)
#
#
# Indices 1 2 3 4 5 6 
#
# 1 0.014149 -0.000367 -0.005340 0.000008 -0.001049 -0.000004
# 2 -0.000367 0.006751 -0.003746 0.000006 0.000222 -0.000003
# 3 -0.005340 -0.003746 0.017602 -0.000030 -0.006334 0.000014
# 4 0.000008 0.000006 -0.000030 0.010817 0.000016 -0.005510
# 5 -0.001049 0.000222 -0.006334 0.000016 0.030179 -0.000005
# 6 -0.000004 -0.000003 0.000014 -0.005510 -0.000005 0.031442
#
#
# Mechanical properties :
#
#
# Convention : Reuss Voigt Hill
#
# Bulk Modulus (GPa) = 51.03009 61.77351 56.40180
# Shear Modulus (GPa) = 36.66258 50.68558 43.67408
#
# Velocity S-wave (km/s) = 4.04496 4.75604 4.41484
# Velocity P-wave (km/s) = 6.67752 7.59789 7.15253
#
# Compressibility (1/GPa) = 0.01959628
#
# Stress axis : x y z
#
# Youngs Moduli (GPa) = 70.67497 148.12588 56.81025
#
# Poissons Ratio (x) = 0.05439 0.30336
# Poissons Ratio (y) = 0.02595 0.21282
# Poissons Ratio (z) = 0.37740 0.55490
#
# Static dielectric constant tensor:
#      x y z
#    x -4.395130 0.003240 -0.364850 
#    y 0.003240 2.018570 0.000230 
#    z -0.364850 0.000230 1.804110 
# 
# From -- ./inp_files/78987.got.cif
#   From: 2010.05.17/outbox.cif.g08.bks.cpg/sg15_40_cif.got.tgz:78987.got - 2010.06.03 18:47:42.
