data_PCOD9277876
_publ_section_title
;
Structure prediction by ZEFSAII (Michael W. Deem and Ramdas Pophale) SiO2 
 PCOD9277876
Probable space group: C 2/C
;
_chemical_formula_sum "Si O2"
_cell_formula_units_Z 32
_cell_length_a 5.075565
_cell_length_b 23.700905
_cell_length_c 10.489831
_cell_angle_alpha 90.000000
_cell_angle_beta 102.471160
_cell_angle_gamma 90.000000
_cell_volume 1232.105038
_symmetry_space_group_name_H-M "C 2/C"
_symmetry_group_IT_number 15
_symmetry_cell_setting 'monoclinic'
loop_
_space_group_symop_operation_xyz
x,y,z
-x,y,1/2-z
-x,-y,-z
x,-y,1/2+z
1/2+x,1/2+y,z
1/2-x,1/2+y,1/2-z
1/2-x,1/2-y,-z
1/2+x,1/2-y,1/2+z
loop_
_atom_site_type_symbol
_atom_site_label
_atom_site_fract_x
_atom_site_fract_y
_atom_site_fract_z
Si Si1 0.749844 0.172394 0.126064
Si Si2 0.896439 0.434465 0.973162
Si Si3 0.000000 0.974592 0.750000
Si Si4 0.194645 0.200143 0.661240
Si Si5 0.000000 0.553396 0.750000
O O1 0.539964 0.119201 0.110012
O O2 0.621491 0.233350 0.137575
O O3 0.000000 0.165775 0.250000
O O4 0.841836 0.176168 0.986241
O O5 0.594823 0.443492 0.887795
O O6 0.963079 0.412565 0.119276
O O7 0.000000 0.500000 0.000000
O O8 0.755208 0.013128 0.766162
O O9 0.500000 0.199883 0.750000
O O10 0.000000 0.174413 0.750000
#
# Coordination Sequence:
#
# PCOD9277876 Si02
#       5
#     8   8   4   8   4
#     4  10  22  43  74 106 145 192 242 301 370 431
#     4  10  21  41  66  99 137 183 236 292 348 430
#     4  10  20  42  60  87 128 173 230 278 338 406
#     4  10  24  48  74 108 146 184 244 306 369 436
#     4  10  22  38  62  87 130 177 220 284 334 410
#
# _framework density 25.971813999999998
#
# number of rings (size 3 to 8) (size 9 to 14) (size 15 to 20)
#    0.000    2.000    1.250    0.750    1.750    9.000 
#   11.250   12.500    0.000    0.000    0.000    0.000 
#    0.000    0.000    0.000    0.000    0.000    0.000 
#
# Total GULP energy -89133.567184 kJ/mol
# GULP energy per Si atom -5570.847949 kJ/mol
# Density = 2.591270 g / cm^3
# Si number density = 25.971814 Si / 1000 Ang^3
#
#
#
# Elastic Constant Matrix: (Units=GPa)
#
#
# Indices 1 2 3 4 5 6 
#
# 1 91.5429 3.7872 32.2011 0.0000 -5.3527 0.0000
# 2 3.7872 163.4811 52.7150 0.0000 22.8587 0.0000
# 3 32.2011 52.7150 236.5482 0.0000 3.2966 0.0000
# 4 0.0000 0.0000 0.0000 53.8464 0.0000 16.0801
# 5 -5.3527 22.8587 3.2966 0.0000 48.1950 0.0000
# 6 0.0000 0.0000 0.0000 16.0801 0.0000 -12.0965
#
#
#
# Elastic Compliance Matrix: (Units=1/GPa)
#
#
# Indices 1 2 3 4 5 6 
#
# 1 0.011566 0.000059 -0.001607 0.000000 0.001366 0.000000
# 2 0.000059 0.007064 -0.001537 0.000000 -0.003239 0.000000
# 3 -0.001607 -0.001537 0.004786 0.000000 0.000223 0.000000
# 4 0.000000 0.000000 0.000000 0.013294 0.000000 0.017672
# 5 0.001366 -0.003239 0.000223 0.000000 0.022422 0.000000
# 6 0.000000 0.000000 0.000000 0.017672 0.000000 -0.059177
#
#
# Mechanical properties :
#
#
# Convention : Reuss Voigt Hill
#
# Bulk Modulus (GPa) = 57.98253 74.33097 66.15675
# Shear Modulus (GPa) = 421.10526 44.84690 232.97608
#
# Velocity S-wave (km/s) = 12.74721 4.15993 9.48146
# Velocity P-wave (km/s) = 15.46055 7.19412 12.05786
#
# Compressibility (1/GPa) = 0.01724657
#
# Stress axis : x y z
#
# Youngs Moduli (GPa) = 86.45668 141.56167 208.95866
#
# Poissons Ratio (x) = -0.00836 0.33574
# Poissons Ratio (y) = -0.00511 0.32120
# Poissons Ratio (z) = 0.13891 0.21760
#
# Static dielectric constant tensor:
#      x y z
#    x 2.026210 0.000000 -0.090530 
#    y 0.000000 2.176380 0.000000 
#    z -0.090530 0.000000 2.072010 
# 
# From -- ./inp_files/72776.got.cif
#   From: 2010.05.17/outbox.cif.g08.bks.cpg/sg15_37_cif.got.tgz:72776.got - 2010.06.03 18:47:42.
