data_PCOD9277541
_publ_section_title
;
Structure prediction by ZEFSAII (Michael W. Deem and Ramdas Pophale) SiO2 
 PCOD9277541
Probable space group: C 2/C
;
_chemical_formula_sum "Si O2"
_cell_formula_units_Z 52
_cell_length_a 10.791938
_cell_length_b 22.835301
_cell_length_c 14.489533
_cell_angle_alpha 90.000000
_cell_angle_beta 135.417071
_cell_angle_gamma 90.000000
_cell_volume 2506.461883
_symmetry_space_group_name_H-M "C 2/C"
_symmetry_group_IT_number 15
_symmetry_cell_setting 'monoclinic'
loop_
_space_group_symop_operation_xyz
x,y,z
-x,y,1/2-z
-x,-y,-z
x,-y,1/2+z
1/2+x,1/2+y,z
1/2-x,1/2+y,1/2-z
1/2-x,1/2-y,-z
1/2+x,1/2-y,1/2+z
loop_
_atom_site_type_symbol
_atom_site_label
_atom_site_fract_x
_atom_site_fract_y
_atom_site_fract_z
Si Si1 0.974267 0.711195 0.903009
Si Si2 0.242433 0.367830 0.459918
Si Si3 0.686345 0.972312 0.698605
Si Si4 0.000000 0.465627 0.250000
Si Si5 0.375318 0.298520 0.370519
Si Si6 0.367811 0.090356 0.945398
Si Si7 0.500000 0.643394 0.750000
Si Si8 0.000000 0.915177 0.750000
O O1 0.137250 0.691737 0.926472
O O2 0.810589 0.731293 0.754595
O O3 0.919749 0.649048 0.918922
O O4 0.015141 0.756040 0.005765
O O5 0.107488 0.421759 0.374473
O O6 0.335671 0.356034 0.411450
O O7 0.372556 0.379855 0.613433
O O8 0.530173 0.925116 0.598440
O O9 0.868932 0.949626 0.751215
O O10 0.650831 0.994046 0.783736
O O11 0.648079 0.032149 0.623442
O O12 0.458408 0.317174 0.317416
O O13 0.168016 0.104450 0.869536
#
# Coordination Sequence:
#
# PCOD9277541 Si02
#       8
#     8   8   8   4   8   8   4   4
#     4  11  22  44  67  98 134 181 223 287 341 408
#     4  12  23  44  66  98 136 181 229 292 342 408
#     4  11  22  40  65  99 130 185 225 286 343 407
#     4  12  22  42  70  94 139 183 234 278 362 410
#     4  11  25  39  72  98 135 180 230 279 356 411
#     4  10  20  41  65  86 139 178 220 274 347 397
#     4  10  23  44  65 104 137 186 225 286 346 430
#     4  12  27  40  71 104 140 177 241 294 332 420
#
# _framework density 20.746375
#
# number of rings (size 3 to 8) (size 9 to 14) (size 15 to 20)
#    0.000    0.923    4.615    2.769    2.154    4.308 
#    0.000    0.769    0.000    0.000    0.000    0.000 
#    0.000    0.000    0.000    0.000    0.000    0.000 
#
# Total GULP energy -144985.180578 kJ/mol
# GULP energy per Si atom -5576.353099 kJ/mol
# Density = 2.069916 g / cm^3
# Si number density = 20.746375 Si / 1000 Ang^3
#
#
#
# Elastic Constant Matrix: (Units=GPa)
#
#
# Indices 1 2 3 4 5 6 
#
# 1 142.7705 32.7600 37.6592 0.0002 -1.7112 -0.0002
# 2 32.7600 30.3353 28.3974 -0.0001 6.5995 0.0001
# 3 37.6592 28.3974 124.5121 0.0003 4.8582 -0.0002
# 4 0.0002 -0.0001 0.0003 480.4976 0.0005 -413.8294
# 5 -1.7112 6.5995 4.8582 0.0005 30.1613 -0.0004
# 6 -0.0002 0.0001 -0.0002 -413.8294 -0.0004 384.7942
#
#
#
# Elastic Compliance Matrix: (Units=1/GPa)
#
#
# Indices 1 2 3 4 5 6 
#
# 1 0.009594 -0.010392 -0.000646 0.000000 0.002922 0.000000
# 2 -0.010392 0.055016 -0.008968 0.000000 -0.011183 0.000000
# 3 -0.000646 -0.008968 0.010261 0.000000 0.000273 0.000000
# 4 0.000000 0.000000 0.000000 0.028215 0.000000 0.030344
# 5 0.002922 -0.011183 0.000273 0.000000 0.035724 0.000000
# 6 0.000000 0.000000 0.000000 0.030344 0.000000 0.035233
#
#
# Mechanical properties :
#
#
# Convention : Reuss Voigt Hill
#
# Bulk Modulus (GPa) = 28.68663 55.02789 41.85726
# Shear Modulus (GPa) = 22.15582 192.34403 107.24992
#
# Velocity S-wave (km/s) = 3.27148 9.63916 7.19778
# Velocity P-wave (km/s) = 5.30353 12.26647 9.44970
#
# Compressibility (1/GPa) = 0.03485945
#
# Stress axis : x y z
#
# Youngs Moduli (GPa) = 104.22946 18.17660 97.45380
#
# Poissons Ratio (x) = 0.18890 0.06292
# Poissons Ratio (y) = 1.08320 0.87395
# Poissons Ratio (z) = 0.06729 0.16301
#
# Static dielectric constant tensor:
#      x y z
#    x 1.837950 0.000000 0.041930 
#    y 0.000000 1.718460 0.000000 
#    z 0.041930 0.000000 1.765850 
# 
# From -- ./inp_files/148158.got.cif
#   From: 2010.05.17/outbox.cif.g08.bks.cpg/sg15_75_cif.got.tgz:148158.got - 2010.06.03 18:47:42.
