data_PCOD9277113
_publ_section_title
;
Structure prediction by ZEFSAII (Michael W. Deem and Ramdas Pophale) SiO2 
 PCOD9277113
Probable space group: C 2/C
;
_chemical_formula_sum "Si O2"
_cell_formula_units_Z 60
_cell_length_a 22.332884
_cell_length_b 20.216014
_cell_length_c 11.666218
_cell_angle_alpha 90.000000
_cell_angle_beta 29.355174
_cell_angle_gamma 90.000000
_cell_volume 2582.041537
_symmetry_space_group_name_H-M "C 2/C"
_symmetry_group_IT_number 15
_symmetry_cell_setting 'monoclinic'
loop_
_space_group_symop_operation_xyz
x,y,z
-x,y,1/2-z
-x,-y,-z
x,-y,1/2+z
1/2+x,1/2+y,z
1/2-x,1/2+y,1/2-z
1/2-x,1/2-y,-z
1/2+x,1/2-y,1/2+z
loop_
_atom_site_type_symbol
_atom_site_label
_atom_site_fract_x
_atom_site_fract_y
_atom_site_fract_z
Si Si1 0.168114 0.457914 0.661801
Si Si2 0.731175 0.261142 0.896449
Si Si3 0.026603 0.128869 0.450941
Si Si4 0.500000 0.644263 0.750000
Si Si5 0.632994 0.536771 0.084994
Si Si6 0.034712 0.409188 0.325238
Si Si7 0.253188 0.617373 0.806645
Si Si8 0.493486 0.764119 0.128791
O O1 0.301400 0.468275 0.493924
O O2 0.126250 0.532499 0.704793
O O3 0.171929 0.419748 0.535808
O O4 0.078616 0.423809 0.901019
O O5 0.704965 0.191807 0.875851
O O6 0.864976 0.282557 0.631385
O O7 0.750000 0.250000 0.000000
O O8 0.619566 0.310368 0.070625
O O9 0.031441 0.111501 0.575887
O O10 0.107843 0.079983 0.240130
O O11 0.887518 0.123268 0.638960
O O12 0.054173 0.205723 0.373486
O O13 0.500000 0.528963 0.250000
O O14 0.721376 0.576346 0.850106
O O15 0.000000 0.416629 0.250000
O O16 0.077444 0.333198 0.266031
O O17 0.500000 0.739539 0.250000
#
# Coordination Sequence:
#
# PCOD9277113 Si02
#       8
#     8   8   8   4   8   8   8   8
#     4  11  23  41  64  93 127 177 229 259 318 390
#     4  11  21  41  64  97 135 166 218 267 333 391
#     4  10  22  40  63  99 127 165 210 262 331 389
#     4  12  24  38  66 106 126 170 218 264 336 406
#     4  10  23  44  65  94 134 171 219 271 326 386
#     4  10  23  40  62  93 130 171 216 269 323 380
#     4  10  21  43  66  88 135 176 210 275 320 377
#     4  10  20  40  68  90 132 170 204 271 332 380
#
# _framework density 23.237425000000002
#
# number of rings (size 3 to 8) (size 9 to 14) (size 15 to 20)
#    0.000    1.600    2.667    3.600    0.000    5.333 
#    7.200    2.000    0.000    0.000    0.000    0.000 
#    0.000    0.000    0.000    0.000    0.000    0.000 
#
# Total GULP energy -167843.287074 kJ/mol
# GULP energy per Si atom -5594.776236 kJ/mol
# Density = 2.318454 g / cm^3
# Si number density = 23.237425 Si / 1000 Ang^3
#
#
#
# Elastic Constant Matrix: (Units=GPa)
#
#
# Indices 1 2 3 4 5 6 
#
# 1 67.9646 12.1240 19.7798 -0.0003 32.7376 0.0003
# 2 12.1240 86.3227 4.0507 -0.0005 9.3607 0.0004
# 3 19.7798 4.0507 100.1612 -0.0009 29.4636 0.0008
# 4 -0.0003 -0.0005 -0.0009 -25.7795 0.0007 52.3301
# 5 32.7376 9.3607 29.4636 0.0007 40.8765 -0.0006
# 6 0.0003 0.0004 0.0008 52.3301 -0.0006 -8.4058
#
#
#
# Elastic Compliance Matrix: (Units=1/GPa)
#
#
# Indices 1 2 3 4 5 6 
#
# 1 0.024201 -0.001294 0.001126 0.000000 -0.019898 0.000000
# 2 -0.001294 0.011962 0.000346 0.000000 -0.001952 0.000000
# 3 0.001126 0.000346 0.012737 0.000000 -0.010162 0.000000
# 4 0.000000 0.000000 0.000000 0.003333 0.000001 0.020752
# 5 -0.019898 -0.001952 -0.010162 0.000001 0.048172 -0.000001
# 6 0.000000 0.000000 0.000000 0.020752 -0.000001 0.010223
#
#
# Mechanical properties :
#
#
# Convention : Reuss Voigt Hill
#
# Bulk Modulus (GPa) = 20.30205 36.26192 28.28199
# Shear Modulus (GPa) = 39.46643 15.90450 27.68546
#
# Velocity S-wave (km/s) = 4.12564 2.61901 3.45544
# Velocity P-wave (km/s) = 5.60805 4.97840 5.30258
#
# Compressibility (1/GPa) = 0.04925610
#
# Stress axis : x y z
#
# Youngs Moduli (GPa) = 41.32022 83.60044 78.51304
#
# Poissons Ratio (x) = 0.10819 -0.08843
# Poissons Ratio (y) = 0.05348 -0.02717
# Poissons Ratio (z) = -0.04654 -0.02893
#
# Static dielectric constant tensor:
#      x y z
#    x 1.885100 0.000000 0.030930 
#    y 0.000000 1.923810 0.000000 
#    z 0.030930 0.000000 2.027580 
# 
# From -- ./inp_files/119955.got.cif
#   From: 2010.05.17/outbox.cif.g08.bks.cpg/sg15_60_cif.got.tgz:119955.got - 2010.06.03 18:47:42.
