data_PCOD9277048
_publ_section_title
;
Structure prediction by ZEFSAII (Michael W. Deem and Ramdas Pophale) SiO2 
 PCOD9277048
Probable space group: C 2/C
;
_chemical_formula_sum "Si O2"
_cell_formula_units_Z 40
_cell_length_a 11.339225
_cell_length_b 9.749813
_cell_length_c 16.535393
_cell_angle_alpha 90.000000
_cell_angle_beta 82.573873
_cell_angle_gamma 90.000000
_cell_volume 1812.742420
_symmetry_space_group_name_H-M "C 2/C"
_symmetry_group_IT_number 15
_symmetry_cell_setting 'monoclinic'
loop_
_space_group_symop_operation_xyz
x,y,z
-x,y,1/2-z
-x,-y,-z
x,-y,1/2+z
1/2+x,1/2+y,z
1/2-x,1/2+y,1/2-z
1/2-x,1/2-y,-z
1/2+x,1/2-y,1/2+z
loop_
_atom_site_type_symbol
_atom_site_label
_atom_site_fract_x
_atom_site_fract_y
_atom_site_fract_z
Si Si1 0.796943 0.993463 0.917257
Si Si2 0.863047 0.220097 0.286738
Si Si3 0.762790 0.279191 0.869508
Si Si4 0.501715 0.653343 0.845456
Si Si5 0.738724 0.406835 0.408394
O O1 0.797352 0.910270 0.833699
O O2 0.731228 0.141298 0.922970
O O3 0.935633 0.037895 0.905424
O O4 0.760521 0.901156 0.995109
O O5 0.789402 0.254320 0.213462
O O6 0.851910 0.341771 0.353606
O O7 0.000000 0.196184 0.250000
O O8 0.906931 0.277118 0.858032
O O9 0.721706 0.430380 0.894840
O O10 0.500000 0.616953 0.750000
O O11 0.628911 0.668584 0.873889
#
# Coordination Sequence:
#
# PCOD9277048 Si02
#       5
#     8   8   8   8   8
#     4  10  23  41  68  97 127 173 227 277 346 395
#     4  12  24  42  64  93 136 182 223 275 341 410
#     4  10  23  41  68  94 127 173 235 268 334 412
#     4  10  20  40  67  95 124 177 220 269 329 406
#     4  12  22  43  67  99 136 167 223 292 337 392
#
# _framework density 22.066015
#
# number of rings (size 3 to 8) (size 9 to 14) (size 15 to 20)
#    1.200    0.000    2.000    6.000    0.000    0.800 
#    3.600    1.000    0.000    0.000    0.000    0.000 
#    0.000    0.000    0.000    0.000    0.000    0.000 
#
# Total GULP energy -111380.399058 kJ/mol
# GULP energy per Si atom -5569.019953 kJ/mol
# Density = 2.201579 g / cm^3
# Si number density = 22.066015 Si / 1000 Ang^3
#
#
#
# Elastic Constant Matrix: (Units=GPa)
#
#
# Indices 1 2 3 4 5 6 
#
# 1 64.9915 13.9774 3.3838 0.0000 6.8587 0.0000
# 2 13.9774 64.0298 -6.9907 0.0000 -3.3281 0.0000
# 3 3.3838 -6.9907 66.9766 0.0000 -0.0321 0.0000
# 4 0.0000 0.0000 0.0000 29.4523 0.0000 -6.5306
# 5 6.8587 -3.3281 -0.0321 0.0000 19.6204 0.0000
# 6 0.0000 0.0000 0.0000 -6.5306 0.0000 15.1815
#
#
#
# Elastic Compliance Matrix: (Units=1/GPa)
#
#
# Indices 1 2 3 4 5 6 
#
# 1 0.017066 -0.004215 -0.001305 0.000000 -0.006683 0.000000
# 2 -0.004215 0.016981 0.001987 0.000000 0.004357 0.000000
# 3 -0.001305 0.001987 0.015204 0.000000 0.000818 0.000000
# 4 0.000000 0.000000 0.000000 0.037533 0.000000 0.016146
# 5 -0.006683 0.004357 0.000818 0.000000 0.054044 0.000000
# 6 0.000000 0.000000 0.000000 0.016146 0.000000 0.072815
#
#
# Mechanical properties :
#
#
# Convention : Reuss Voigt Hill
#
# Bulk Modulus (GPa) = 23.70481 24.08211 23.89346
# Shear Modulus (GPa) = 21.29717 25.22601 23.26159
#
# Velocity S-wave (km/s) = 3.11007 3.38480 3.25034
# Velocity P-wave (km/s) = 4.86443 5.11988 4.99379
#
# Compressibility (1/GPa) = 0.04218553
#
# Stress axis : x y z
#
# Youngs Moduli (GPa) = 58.59434 58.88792 65.77054
#
# Poissons Ratio (x) = 0.24824 0.08586
# Poissons Ratio (y) = 0.24700 -0.13072
# Poissons Ratio (z) = 0.07649 -0.11704
#
# Static dielectric constant tensor:
#      x y z
#    x 1.767890 0.000000 -0.027370 
#    y 0.000000 1.848130 0.000000 
#    z -0.027370 0.000000 1.853520 
# 
# From -- ./inp_files/195102.got.cif
#   From: 2010.05.17/outbox.cif.g08.bks.cpg/sg15_98_cif.got.tgz:195102.got - 2010.06.03 18:47:42.
