data_PCOD9277011
_publ_section_title
;
Structure prediction by ZEFSAII (Michael W. Deem and Ramdas Pophale) SiO2 
 PCOD9277011
Probable space group: C 2/C
;
_chemical_formula_sum "Si O2"
_cell_formula_units_Z 40
_cell_length_a 17.847348
_cell_length_b 6.822745
_cell_length_c 17.498007
_cell_angle_alpha 90.000000
_cell_angle_beta 134.940124
_cell_angle_gamma 90.000000
_cell_volume 1508.202992
_symmetry_space_group_name_H-M "C 2/C"
_symmetry_group_IT_number 15
_symmetry_cell_setting 'monoclinic'
loop_
_space_group_symop_operation_xyz
x,y,z
-x,y,1/2-z
-x,-y,-z
x,-y,1/2+z
1/2+x,1/2+y,z
1/2-x,1/2+y,1/2-z
1/2-x,1/2-y,-z
1/2+x,1/2-y,1/2+z
loop_
_atom_site_type_symbol
_atom_site_label
_atom_site_fract_x
_atom_site_fract_y
_atom_site_fract_z
Si Si1 0.206902 0.045216 0.865624
Si Si2 0.629608 0.194416 0.187507
Si Si3 0.888831 0.767822 0.063149
Si Si4 0.424111 0.829792 0.264289
Si Si5 0.575643 0.371349 0.999200
O O1 0.202135 0.141410 0.778637
O O2 0.355863 0.013556 0.762081
O O3 0.153410 0.834691 0.825799
O O4 0.318913 0.085469 0.985743
O O5 0.508858 0.236527 0.126918
O O6 0.630384 0.218707 0.096716
O O7 0.868934 0.818030 0.136272
O O8 0.853549 0.966486 0.992688
O O9 0.500000 0.903252 0.250000
O O10 0.502024 0.729560 0.382786
O O11 0.500000 0.500000 0.000000
#
# Coordination Sequence:
#
# PCOD9277011 Si02
#       5
#     8   8   8   8   8
#     4  11  21  41  67  98 140 180 236 286 342 416
#     4  11  23  42  67  97 139 182 232 290 352 409
#     4  10  21  41  67 100 138 185 231 291 344 420
#     4  12  21  39  70 100 135 187 231 282 350 416
#     4  10  20  40  67  89 136 183 226 283 350 406
#
# _framework density 26.521626999999999
#
# number of rings (size 3 to 8) (size 9 to 14) (size 15 to 20)
#    0.000    1.200    6.000    2.400    0.000    0.000 
#    3.600    9.000    0.000    0.000    0.000    0.000 
#    0.000    0.000    0.000    0.000    0.000    0.000 
#
# Total GULP energy -112107.611003 kJ/mol
# GULP energy per Si atom -5605.380550 kJ/mol
# Density = 2.646126 g / cm^3
# Si number density = 26.521627 Si / 1000 Ang^3
#
#
#
# Elastic Constant Matrix: (Units=GPa)
#
#
# Indices 1 2 3 4 5 6 
#
# 1 109.8182 21.1557 33.8838 0.0000 -23.7169 0.0000
# 2 21.1557 118.5690 36.2503 0.0000 -5.6386 0.0000
# 3 33.8838 36.2503 107.8649 0.0000 -8.8942 0.0000
# 4 0.0000 0.0000 0.0000 63.4791 0.0000 -10.3505
# 5 -23.7169 -5.6386 -8.8942 0.0000 44.2803 0.0000
# 6 0.0000 0.0000 0.0000 -10.3505 0.0000 29.2668
#
#
#
# Elastic Compliance Matrix: (Units=1/GPa)
#
#
# Indices 1 2 3 4 5 6 
#
# 1 0.011307 -0.000904 -0.002805 0.000000 0.005378 0.000000
# 2 -0.000904 0.009486 -0.002892 0.000000 0.000143 0.000000
# 3 -0.002805 -0.002892 0.011154 0.000000 0.000370 0.000000
# 4 0.000000 0.000000 0.000000 0.016717 0.000000 0.005912
# 5 0.005378 0.000143 0.000370 0.000000 0.025556 0.000000
# 6 0.000000 0.000000 0.000000 0.005912 0.000000 0.036259
#
#
# Mechanical properties :
#
#
# Convention : Reuss Voigt Hill
#
# Bulk Modulus (GPa) = 53.34634 57.64797 55.49716
# Shear Modulus (GPa) = 38.48202 43.73606 41.10904
#
# Velocity S-wave (km/s) = 3.81329 4.06528 3.94130
# Velocity P-wave (km/s) = 6.28858 6.61957 6.45620
#
# Compressibility (1/GPa) = 0.01874543
#
# Stress axis : x y z
#
# Youngs Moduli (GPa) = 88.44201 105.41534 89.65101
#
# Poissons Ratio (x) = 0.09532 0.25143
# Poissons Ratio (y) = 0.07997 0.25929
# Poissons Ratio (z) = 0.24804 0.30489
#
# Static dielectric constant tensor:
#      x y z
#    x 2.004710 0.000000 -0.000480 
#    y 0.000000 2.169460 0.000000 
#    z -0.000480 0.000000 2.079720 
# 
# From -- ./inp_files/214129.got.cif
#   From: 2010.05.17/outbox.cif.g08.bks.cpg/sg15_108_cif.got.tgz:214129.got - 2010.06.03 18:47:42.
