data_PCOD9277873
_publ_section_title
;
Structure prediction by ZEFSAII (Michael W. Deem and Ramdas Pophale) SiO2 
 PCOD9277873
Probable space group: C 2/C
;
_chemical_formula_sum "Si O2"
_cell_formula_units_Z 56
_cell_length_a 16.880364
_cell_length_b 21.784947
_cell_length_c 8.896948
_cell_angle_alpha 90.000000
_cell_angle_beta 133.039155
_cell_angle_gamma 90.000000
_cell_volume 2391.276966
_symmetry_space_group_name_H-M "C 2/C"
_symmetry_group_IT_number 15
_symmetry_cell_setting 'monoclinic'
loop_
_space_group_symop_operation_xyz
x,y,z
-x,y,1/2-z
-x,-y,-z
x,-y,1/2+z
1/2+x,1/2+y,z
1/2-x,1/2+y,1/2-z
1/2-x,1/2-y,-z
1/2+x,1/2-y,1/2+z
loop_
_atom_site_type_symbol
_atom_site_label
_atom_site_fract_x
_atom_site_fract_y
_atom_site_fract_z
Si Si1 0.609625 0.742116 0.818551
Si Si2 0.374896 0.828669 0.154658
Si Si3 0.743274 0.260894 0.227821
Si Si4 0.181202 0.440088 0.588189
Si Si5 0.325720 0.117908 0.114144
Si Si6 0.500000 0.017499 0.250000
Si Si7 0.500000 0.517394 0.250000
Si Si8 0.850853 0.949736 0.294496
O O1 0.500000 0.720149 0.750000
O O2 0.638799 0.717251 0.691377
O O3 0.615104 0.816776 0.822617
O O4 0.696671 0.725808 0.058795
O O5 0.500000 0.827685 0.250000
O O6 0.334975 0.804091 0.267155
O O7 0.308051 0.783209 0.961027
O O8 0.330059 0.897658 0.074263
O O9 0.205563 0.394650 0.755101
O O10 0.271400 0.491845 0.709491
O O11 0.065068 0.473440 0.446973
O O12 0.409695 0.062865 0.194847
O O13 0.226853 0.103453 0.872403
O O14 0.433226 0.472685 0.273197
O O15 0.581045 0.556796 0.462414
#
# Coordination Sequence:
#
# PCOD9277873 Si02
#       8
#     8   8   8   8   8   4   4   8
#     4  11  22  42  71  94 130 175 220 284 364 407
#     4  11  22  42  71  92 133 178 221 284 359 401
#     4  10  24  40  64  96 125 170 232 278 326 418
#     4  11  21  38  63 103 136 172 213 278 337 420
#     4  11  21  38  63 104 135 170 212 277 338 422
#     4  10  22  34  60 108 144 174 208 256 344 444
#     4  10  20  42  60  82 120 200 218 258 308 380
#     4  10  22  38  68  90 136 173 227 266 329 399
#
# _framework density 23.418451000000001
#
# number of rings (size 3 to 8) (size 9 to 14) (size 15 to 20)
#    0.000    1.429    4.286    1.286    0.000    1.143 
#    2.571    0.000   47.143    0.000    0.000    0.000 
#    0.000    0.000    0.000    0.000    0.000    0.000 
#
# Total GULP energy -156129.190771 kJ/mol
# GULP energy per Si atom -5576.042528 kJ/mol
# Density = 2.336515 g / cm^3
# Si number density = 23.418451 Si / 1000 Ang^3
#
#
#
# Elastic Constant Matrix: (Units=GPa)
#
#
# Indices 1 2 3 4 5 6 
#
# 1 107.3289 13.9428 39.4244 0.0000 -6.3242 0.0000
# 2 13.9428 86.4306 29.6143 0.0000 -1.8502 0.0000
# 3 39.4244 29.6143 102.0599 0.0000 -3.0154 0.0000
# 4 0.0000 0.0000 0.0000 25.9207 0.0000 6.6105
# 5 -6.3242 -1.8502 -3.0154 0.0000 36.1133 0.0000
# 6 0.0000 0.0000 0.0000 6.6105 0.0000 16.5525
#
#
#
# Elastic Compliance Matrix: (Units=1/GPa)
#
#
# Indices 1 2 3 4 5 6 
#
# 1 0.010954 -0.000333 -0.004089 0.000000 0.001560 0.000000
# 2 -0.000333 0.012862 -0.003595 0.000000 0.000301 0.000000
# 3 -0.004089 -0.003595 0.012425 0.000000 0.000137 0.000000
# 4 0.000000 0.000000 0.000000 0.042954 0.000000 -0.017154
# 5 0.001560 0.000301 0.000137 0.000000 0.027991 0.000000
# 6 0.000000 0.000000 0.000000 -0.017154 0.000000 0.067265
#
#
# Mechanical properties :
#
#
# Convention : Reuss Voigt Hill
#
# Bulk Modulus (GPa) = 49.48465 51.30915 50.39690
# Shear Modulus (GPa) = 25.35260 29.90649 27.62955
#
# Velocity S-wave (km/s) = 3.29384 3.57746 3.43858
# Velocity P-wave (km/s) = 5.97012 6.24672 6.10999
#
# Compressibility (1/GPa) = 0.02020829
#
# Stress axis : x y z
#
# Youngs Moduli (GPa) = 91.28904 77.75001 80.48471
#
# Poissons Ratio (x) = 0.02587 0.32909
# Poissons Ratio (y) = 0.03038 0.28931
# Poissons Ratio (z) = 0.37327 0.27948
#
# Static dielectric constant tensor:
#      x y z
#    x 2.040440 0.000000 0.007600 
#    y 0.000000 1.876380 0.000000 
#    z 0.007600 0.000000 1.939550 
# 
# From -- ./inp_files/51600.got.cif
#   From: 2010.05.17/outbox.cif.g08.bks.cpg/sg15_26_cif.got.tgz:51600.got - 2010.06.03 18:47:42.
