data_PCOD9277781
_publ_section_title
;
Structure prediction by ZEFSAII (Michael W. Deem and Ramdas Pophale) SiO2 
 PCOD9277781
Probable space group: C 2/C
;
_chemical_formula_sum "Si O2"
_cell_formula_units_Z 60
_cell_length_a 19.511136
_cell_length_b 11.217629
_cell_length_c 13.361334
_cell_angle_alpha 90.000000
_cell_angle_beta 62.856062
_cell_angle_gamma 90.000000
_cell_volume 2602.296019
_symmetry_space_group_name_H-M "C 2/C"
_symmetry_group_IT_number 15
_symmetry_cell_setting 'monoclinic'
loop_
_space_group_symop_operation_xyz
x,y,z
-x,y,1/2-z
-x,-y,-z
x,-y,1/2+z
1/2+x,1/2+y,z
1/2-x,1/2+y,1/2-z
1/2-x,1/2-y,-z
1/2+x,1/2-y,1/2+z
loop_
_atom_site_type_symbol
_atom_site_label
_atom_site_fract_x
_atom_site_fract_y
_atom_site_fract_z
Si Si1 0.589479 0.474379 0.558422
Si Si2 0.040234 0.151754 0.888338
Si Si3 0.463935 0.844461 0.082281
Si Si4 0.384297 0.027086 0.014799
Si Si5 0.760650 0.433791 0.962274
Si Si6 0.500000 0.704713 0.250000
Si Si7 0.768042 0.634998 0.230700
Si Si8 0.709021 0.372785 0.208331
O O1 0.531702 0.584719 0.614252
O O2 0.570797 0.429059 0.459843
O O3 0.678985 0.500786 0.505188
O O4 0.563740 0.374109 0.652524
O O5 0.117795 0.160396 0.771144
O O6 0.001800 0.264628 0.969151
O O7 0.455704 0.771400 0.189571
O O8 0.392341 0.911798 0.081205
O O9 0.529331 0.939433 0.068854
O O10 0.342475 0.124662 0.110762
O O11 0.332828 0.010115 0.952152
O O12 0.743200 0.356734 0.073958
O O13 0.780765 0.385843 0.839938
O O14 0.720116 0.515409 0.227368
O O15 0.749622 0.777245 0.244442
#
# Coordination Sequence:
#
# PCOD9277781 Si02
#       8
#     8   8   8   8   8   4   8   8
#     4  10  21  40  65 100 132 178 230 279 348 405
#     4  10  20  41  69  94 139 178 224 289 339 407
#     4  10  22  44  69  97 134 178 232 287 353 414
#     4  10  24  45  68 101 133 183 229 284 358 416
#     4  11  24  43  68 100 141 183 233 282 347 424
#     4  10  22  40  70 100 130 176 236 294 338 418
#     4  11  24  45  68  99 145 181 231 288 344 415
#     4  11  23  44  67 101 139 184 231 283 348 412
#
# _framework density 23.056563000000001
#
# number of rings (size 3 to 8) (size 9 to 14) (size 15 to 20)
#    0.000    1.600    2.667    1.200    1.867    3.200 
#   14.400    5.333    0.000    0.000    0.000    0.000 
#    0.000    0.000    0.000    0.000    0.000    0.000 
#
# Total GULP energy -167270.940752 kJ/mol
# GULP energy per Si atom -5575.698025 kJ/mol
# Density = 2.300409 g / cm^3
# Si number density = 23.056563 Si / 1000 Ang^3
#
#
#
# Elastic Constant Matrix: (Units=GPa)
#
#
# Indices 1 2 3 4 5 6 
#
# 1 103.2998 22.5888 -6.0501 0.0000 -0.6744 0.0000
# 2 22.5888 59.7607 -17.9988 0.0000 4.8427 0.0000
# 3 -6.0501 -17.9988 58.4017 0.0000 7.8735 0.0000
# 4 0.0000 0.0000 0.0000 1.7303 0.0000 1.5817
# 5 -0.6744 4.8427 7.8735 0.0000 22.9035 0.0000
# 6 0.0000 0.0000 0.0000 1.5817 0.0000 -7.5766
#
#
#
# Elastic Compliance Matrix: (Units=1/GPa)
#
#
# Indices 1 2 3 4 5 6 
#
# 1 0.010591 -0.004228 -0.000386 0.000000 0.001339 0.000000
# 2 -0.004228 0.020995 0.006971 0.000000 -0.006960 0.000000
# 3 -0.000386 0.006971 0.020376 0.000000 -0.008490 0.000000
# 4 0.000000 0.000000 0.000000 0.485322 0.000000 0.101319
# 5 0.001339 -0.006960 -0.008490 0.000000 0.048091 0.000000
# 6 0.000000 0.000000 0.000000 0.101319 0.000000 -0.110834
#
#
# Mechanical properties :
#
#
# Convention : Reuss Voigt Hill
#
# Bulk Modulus (GPa) = 17.64464 24.28243 20.96353
# Shear Modulus (GPa) = 10.23081 18.27293 14.25187
#
# Velocity S-wave (km/s) = 2.10877 2.81824 2.48891
# Velocity P-wave (km/s) = 3.68762 4.59831 4.16792
#
# Compressibility (1/GPa) = 0.05667443
#
# Stress axis : x y z
#
# Youngs Moduli (GPa) = 94.41750 47.63019 49.07816
#
# Poissons Ratio (x) = 0.20139 0.01896
# Poissons Ratio (y) = 0.39922 -0.34211
# Poissons Ratio (z) = 0.03648 -0.33202
#
# Static dielectric constant tensor:
#      x y z
#    x 1.860090 0.000000 -0.004060 
#    y 0.000000 2.005320 0.000000 
#    z -0.004060 0.000000 1.853320 
# 
# From -- ./inp_files/167608.got.cif
#   From: 2010.05.17/outbox.cif.g08.bks.cpg/sg15_84_cif.got.tgz:167608.got - 2010.06.03 18:47:42.
