data_PCOD9277364
_publ_section_title
;
Structure prediction by ZEFSAII (Michael W. Deem and Ramdas Pophale) SiO2 
 PCOD9277364
Probable space group: C 2/C
;
_chemical_formula_sum "Si O2"
_cell_formula_units_Z 64
_cell_length_a 8.876267
_cell_length_b 23.569931
_cell_length_c 14.456937
_cell_angle_alpha 90.000000
_cell_angle_beta 84.069819
_cell_angle_gamma 90.000000
_cell_volume 3008.393233
_symmetry_space_group_name_H-M "C 2/C"
_symmetry_group_IT_number 15
_symmetry_cell_setting 'monoclinic'
loop_
_space_group_symop_operation_xyz
x,y,z
-x,y,1/2-z
-x,-y,-z
x,-y,1/2+z
1/2+x,1/2+y,z
1/2-x,1/2+y,1/2-z
1/2-x,1/2-y,-z
1/2+x,1/2-y,1/2+z
loop_
_atom_site_type_symbol
_atom_site_label
_atom_site_fract_x
_atom_site_fract_y
_atom_site_fract_z
Si Si1 0.114459 0.846880 0.664068
Si Si2 0.559889 0.329403 0.350261
Si Si3 0.488129 0.589089 0.010735
Si Si4 0.506991 0.008356 0.856094
Si Si5 0.163279 0.727933 0.599656
Si Si6 0.083846 0.725718 0.024363
Si Si7 0.750239 0.498215 0.008425
Si Si8 0.964355 0.625418 0.150196
O O1 0.022561 0.858640 0.575975
O O2 0.148931 0.780419 0.669891
O O3 0.282477 0.872860 0.647640
O O4 0.000000 0.867836 0.750000
O O5 0.500000 0.330250 0.250000
O O6 0.508289 0.385757 0.407454
O O7 0.739636 0.321055 0.358487
O O8 0.493752 0.273294 0.405095
O O9 0.329032 0.557485 0.028929
O O10 0.614639 0.542727 0.030187
O O11 0.500000 0.027884 0.750000
O O12 0.489967 0.939971 0.856873
O O13 0.661392 0.018316 0.903474
O O14 0.369587 0.027151 0.930846
O O15 0.250000 0.750000 0.500000
O O16 0.998804 0.716424 0.568771
O O17 0.056049 0.665670 0.075815
O O18 0.250000 0.750000 0.000000
O O19 0.000000 0.647504 0.250000
#
# Coordination Sequence:
#
# PCOD9277364 Si02
#       8
#     8   8   8   8   8   8   8   8
#     4  12  24  38  67  96 128 166 214 264 319 376
#     4  11  23  41  63  89 132 174 209 254 319 387
#     4  11  23  43  64  94 123 165 220 267 317 376
#     4  10  23  42  65  92 125 164 209 264 333 385
#     4  10  20  41  60  86 130 169 203 260 305 375
#     4  11  23  37  64  93 128 169 210 258 314 385
#     4  10  24  42  67  90 124 164 214 275 322 376
#     4  11  23  38  61  95 130 163 207 266 317 379
#
# _framework density 21.273813000000001
#
# number of rings (size 3 to 8) (size 9 to 14) (size 15 to 20)
#    0.000    1.250    6.250    0.375    7.000    1.000 
#    0.000    2.500    0.000    0.750    0.000    0.000 
#    0.000    0.000    0.000    0.000    0.000    0.000 
#
# Total GULP energy -178570.060755 kJ/mol
# GULP energy per Si atom -5580.314399 kJ/mol
# Density = 2.122539 g / cm^3
# Si number density = 21.273813 Si / 1000 Ang^3
#
#
#
# Elastic Constant Matrix: (Units=GPa)
#
#
# Indices 1 2 3 4 5 6 
#
# 1 115.9334 8.8247 52.9213 0.0000 17.7707 0.0000
# 2 8.8247 15.6478 -16.1885 0.0000 1.5758 0.0000
# 3 52.9213 -16.1885 93.5981 0.0000 28.6486 0.0000
# 4 0.0000 0.0000 0.0000 19.5369 0.0000 5.5837
# 5 17.7707 1.5758 28.6486 0.0000 31.0407 0.0000
# 6 0.0000 0.0000 0.0000 5.5837 0.0000 2.0052
#
#
#
# Elastic Compliance Matrix: (Units=1/GPa)
#
#
# Indices 1 2 3 4 5 6 
#
# 1 0.017291 -0.027703 -0.016681 0.000000 0.006903 0.000000
# 2 -0.027703 0.135854 0.050755 0.000000 -0.037880 0.000000
# 3 -0.016681 0.050755 0.037295 0.000000 -0.027448 0.000000
# 4 0.000000 0.000000 0.000000 0.250764 0.000000 -0.698301
# 5 0.006903 -0.037880 -0.027448 0.000000 0.055520 0.000000
# 6 0.000000 0.000000 0.000000 -0.698301 0.000000 2.443276
#
#
# Mechanical properties :
#
#
# Convention : Reuss Voigt Hill
#
# Bulk Modulus (GPa) = 4.92168 35.14381 20.03275
# Shear Modulus (GPa) = 1.66946 22.49132 12.08039
#
# Velocity S-wave (km/s) = 0.88682 3.25504 2.38555
# Velocity P-wave (km/s) = 1.83497 5.53919 4.12612
#
# Compressibility (1/GPa) = 0.20318255
#
# Stress axis : x y z
#
# Youngs Moduli (GPa) = 57.83449 7.36083 26.81309
#
# Poissons Ratio (x) = 0.20392 0.44726
# Poissons Ratio (y) = 1.60221 -1.36091
# Poissons Ratio (z) = 0.96472 -0.37360
#
# Static dielectric constant tensor:
#      x y z
#    x 1.787800 0.000000 0.000380 
#    y 0.000000 1.768860 0.000000 
#    z 0.000380 0.000000 1.803590 
# 
# From -- ./inp_files/137871.got.cif
#   From: 2010.05.17/outbox.cif.g08.bks.cpg/sg15_69_cif.got.tgz:137871.got - 2010.06.03 18:47:42.
