data_PCOD9277772
_publ_section_title
;
Structure prediction by ZEFSAII (Michael W. Deem and Ramdas Pophale) SiO2 
 PCOD9277772
Probable space group: C 2/C
;
_chemical_formula_sum "Si O2"
_cell_formula_units_Z 48
_cell_length_a 27.920503
_cell_length_b 12.968538
_cell_length_c 12.642416
_cell_angle_alpha 90.000000
_cell_angle_beta 153.035865
_cell_angle_gamma 90.000000
_cell_volume 2075.664443
_symmetry_space_group_name_H-M "C 2/C"
_symmetry_group_IT_number 15
_symmetry_cell_setting 'monoclinic'
loop_
_space_group_symop_operation_xyz
x,y,z
-x,y,1/2-z
-x,-y,-z
x,-y,1/2+z
1/2+x,1/2+y,z
1/2-x,1/2+y,1/2-z
1/2-x,1/2-y,-z
1/2+x,1/2-y,1/2+z
loop_
_atom_site_type_symbol
_atom_site_label
_atom_site_fract_x
_atom_site_fract_y
_atom_site_fract_z
Si Si1 0.112990 0.861823 0.921960
Si Si2 0.264756 0.364429 0.981584
Si Si3 0.177041 0.370539 0.574795
Si Si4 0.337639 0.328883 0.710768
Si Si5 0.180872 0.416047 0.028785
Si Si6 0.539670 0.712944 0.719306
O O1 0.130563 0.891250 0.832961
O O2 0.000000 0.893095 0.750000
O O3 0.117861 0.735896 0.933935
O O4 0.215667 0.896406 0.193390
O O5 0.218994 0.433448 0.983349
O O6 0.387924 0.367701 0.199743
O O7 0.250000 0.250000 0.000000
O O8 0.207768 0.369684 0.757915
O O9 0.282595 0.374840 0.708084
O O10 0.122599 0.479825 0.447286
O O11 0.250000 0.250000 0.500000
O O12 0.439808 0.265880 0.950170
O O13 0.106924 0.314667 0.882672
O O14 0.500000 0.665923 0.750000
#
# Coordination Sequence:
#
# PCOD9277772 Si02
#       6
#     8   8   8   8   8   8
#     4  11  23  45  64  97 138 173 215 285 341 390
#     4  10  20  41  69  92 130 179 223 269 329 404
#     4  11  23  44  66  98 135 172 225 279 332 399
#     4  10  22  40  64  96 132 173 215 278 336 388
#     4  11  25  41  69 100 131 178 227 274 332 406
#     4  11  19  41  71  95 125 179 223 266 332 401
#
# _framework density 23.125126999999999
#
# number of rings (size 3 to 8) (size 9 to 14) (size 15 to 20)
#    0.000    1.333    5.000    2.000    4.667    0.667 
#    3.000    5.000    0.000    0.000    0.000    0.000 
#    0.000    0.000    0.000    0.000    0.000    0.000 
#
# Total GULP energy -133979.772380 kJ/mol
# GULP energy per Si atom -5582.490516 kJ/mol
# Density = 2.307249 g / cm^3
# Si number density = 23.125127 Si / 1000 Ang^3
#
#
#
# Elastic Constant Matrix: (Units=GPa)
#
#
# Indices 1 2 3 4 5 6 
#
# 1 179.7000 10.4698 37.9225 0.0000 -18.3113 0.0000
# 2 10.4698 96.6223 4.2028 0.0000 -4.8810 0.0000
# 3 37.9225 4.2028 103.3810 0.0000 -8.6409 0.0000
# 4 0.0000 0.0000 0.0000 5.1520 0.0000 -8.7117
# 5 -18.3113 -4.8810 -8.6409 0.0000 44.1177 0.0000
# 6 0.0000 0.0000 0.0000 -8.7117 0.0000 24.7290
#
#
#
# Elastic Compliance Matrix: (Units=1/GPa)
#
#
# Indices 1 2 3 4 5 6 
#
# 1 0.006252 -0.000479 -0.002096 0.000000 0.002132 0.000000
# 2 -0.000479 0.010456 -0.000172 0.000000 0.000924 0.000000
# 3 -0.002096 -0.000172 0.010547 0.000000 0.001177 0.000000
# 4 0.000000 0.000000 0.000000 0.480087 0.000000 0.169129
# 5 0.002132 0.000924 0.001177 0.000000 0.023884 0.000000
# 6 0.000000 0.000000 0.000000 0.169129 0.000000 0.100020
#
#
# Mechanical properties :
#
#
# Convention : Reuss Voigt Hill
#
# Bulk Modulus (GPa) = 45.95255 53.87706 49.91480
# Shear Modulus (GPa) = 7.76405 36.60696 22.18551
#
# Velocity S-wave (km/s) = 1.83431 3.98300 3.10073
# Velocity P-wave (km/s) = 4.93970 6.67091 5.86949
#
# Compressibility (1/GPa) = 0.02176158
#
# Stress axis : x y z
#
# Youngs Moduli (GPa) = 159.94344 95.64226 94.81267
#
# Poissons Ratio (x) = 0.04578 0.19871
# Poissons Ratio (y) = 0.07655 0.01633
# Poissons Ratio (z) = 0.33521 0.01647
#
# Static dielectric constant tensor:
#      x y z
#    x 1.923360 0.000000 0.026490 
#    y 0.000000 1.887390 0.000000 
#    z 0.026490 0.000000 1.844070 
# 
# From -- ./inp_files/123591.got.cif
#   From: 2010.05.17/outbox.cif.g08.bks.cpg/sg15_62_cif.got.tgz:123591.got - 2010.06.03 18:47:42.
