data_PCOD9277413
_publ_section_title
;
Structure prediction by ZEFSAII (Michael W. Deem and Ramdas Pophale) SiO2 
 PCOD9277413
Probable space group: C 2/C
;
_chemical_formula_sum "Si O2"
_cell_formula_units_Z 56
_cell_length_a 26.914620
_cell_length_b 6.697246
_cell_length_c 14.848087
_cell_angle_alpha 90.000000
_cell_angle_beta 98.379580
_cell_angle_gamma 90.000000
_cell_volume 2647.851951
_symmetry_space_group_name_H-M "C 2/C"
_symmetry_group_IT_number 15
_symmetry_cell_setting 'monoclinic'
loop_
_space_group_symop_operation_xyz
x,y,z
-x,y,1/2-z
-x,-y,-z
x,-y,1/2+z
1/2+x,1/2+y,z
1/2-x,1/2+y,1/2-z
1/2-x,1/2-y,-z
1/2+x,1/2-y,1/2+z
loop_
_atom_site_type_symbol
_atom_site_label
_atom_site_fract_x
_atom_site_fract_y
_atom_site_fract_z
Si Si1 0.896254 0.193940 0.868202
Si Si2 0.686595 0.617882 0.219396
Si Si3 0.981561 0.102014 0.341615
Si Si4 0.085306 0.262248 0.427911
Si Si5 0.750736 0.562326 0.066729
Si Si6 0.402172 0.076772 0.754150
Si Si7 0.811330 0.819702 0.587222
O O1 0.901049 0.360377 0.794493
O O2 0.848899 0.057691 0.828346
O O3 0.944722 0.051101 0.879753
O O4 0.896564 0.300245 0.966065
O O5 0.730330 0.633828 0.157602
O O6 0.648518 0.804657 0.227505
O O7 0.709285 0.588687 0.325311
O O8 0.947895 0.294342 0.307432
O O9 0.000000 0.018205 0.250000
O O10 0.030722 0.165736 0.409068
O O11 0.087600 0.429257 0.350652
O O12 0.129917 0.123420 0.400365
O O13 0.799778 0.419371 0.085805
O O14 0.750000 0.750000 0.000000
O O15 0.712462 0.409595 0.008226
#
# Coordination Sequence:
#
# PCOD9277413 Si02
#       7
#     8   8   8   8   8   8   8
#     4  11  21  40  67  92 125 176 210 256 330 371
#     4  10  23  43  65  93 129 162 211 270 312 377
#     4   9  20  39  61  92 129 166 214 262 311 383
#     4  10  20  41  62  89 136 160 207 271 304 378
#     4  11  25  42  67  93 120 168 214 253 326 375
#     4   9  22  39  60  94 130 167 214 264 314 375
#     4  10  24  44  61  95 129 159 211 267 304 384
#
# _framework density 21.149218000000001
#
# number of rings (size 3 to 8) (size 9 to 14) (size 15 to 20)
#    0.000    2.000    1.429    1.286    4.000    4.571 
#    0.000    4.286    0.000    0.000    0.000    0.000 
#    0.000    0.000    0.000    0.000    0.000    0.000 
#
# Total GULP energy -156043.815754 kJ/mol
# GULP energy per Si atom -5572.993420 kJ/mol
# Density = 2.110108 g / cm^3
# Si number density = 21.149218 Si / 1000 Ang^3
#
#
#
# Elastic Constant Matrix: (Units=GPa)
#
#
# Indices 1 2 3 4 5 6 
#
# 1 60.4277 21.9139 -11.7400 0.0000 3.9022 0.0000
# 2 21.9139 69.0111 23.7974 0.0000 -1.9788 0.0000
# 3 -11.7400 23.7974 93.4898 0.0000 0.5551 0.0000
# 4 0.0000 0.0000 0.0000 22.4101 0.0000 -7.7293
# 5 3.9022 -1.9788 0.5551 0.0000 32.6291 0.0000
# 6 0.0000 0.0000 0.0000 -7.7293 0.0000 -10.4114
#
#
#
# Elastic Compliance Matrix: (Units=1/GPa)
#
#
# Indices 1 2 3 4 5 6 
#
# 1 0.020665 -0.008277 0.004720 0.000000 -0.003054 0.000000
# 2 -0.008277 0.019235 -0.005949 0.000000 0.002258 0.000000
# 3 0.004720 -0.005949 0.012810 0.000000 -0.001143 0.000000
# 4 0.000000 0.000000 0.000000 0.035526 0.000000 -0.026374
# 5 -0.003054 0.002258 -0.001143 0.000000 0.031169 0.000000
# 6 0.000000 0.000000 0.000000 -0.026374 0.000000 -0.076469
#
#
# Mechanical properties :
#
#
# Convention : Reuss Voigt Hill
#
# Bulk Modulus (GPa) = 29.67577 32.31901 30.99739
# Shear Modulus (GPa) = 68.32413 21.52271 44.92342
#
# Velocity S-wave (km/s) = 5.68998 3.19354 4.61381
# Velocity P-wave (km/s) = 7.56505 5.37707 6.56288
#
# Compressibility (1/GPa) = 0.03369753
#
# Stress axis : x y z
#
# Youngs Moduli (GPa) = 48.39214 51.98895 78.06321
#
# Poissons Ratio (x) = 0.43031 -0.36846
# Poissons Ratio (y) = 0.40054 0.46439
# Poissons Ratio (z) = -0.22841 0.30928
#
# Static dielectric constant tensor:
#      x y z
#    x 1.806800 0.000000 0.026740 
#    y 0.000000 1.756610 0.000000 
#    z 0.026740 0.000000 1.816090 
# 
# From -- ./inp_files/180124.got.cif
#   From: 2010.05.17/outbox.cif.g08.bks.cpg/sg15_91_cif.got.tgz:180124.got - 2010.06.03 18:47:42.
