data_PCOD9277782
_publ_section_title
;
Structure prediction by ZEFSAII (Michael W. Deem and Ramdas Pophale) SiO2 
 PCOD9277782
Probable space group: C 2/C
;
_chemical_formula_sum "Si O2"
_cell_formula_units_Z 60
_cell_length_a 22.173221
_cell_length_b 9.121695
_cell_length_c 19.713230
_cell_angle_alpha 90.000000
_cell_angle_beta 138.398035
_cell_angle_gamma 90.000000
_cell_volume 2647.272891
_symmetry_space_group_name_H-M "C 2/C"
_symmetry_group_IT_number 15
_symmetry_cell_setting 'monoclinic'
loop_
_space_group_symop_operation_xyz
x,y,z
-x,y,1/2-z
-x,-y,-z
x,-y,1/2+z
1/2+x,1/2+y,z
1/2-x,1/2+y,1/2-z
1/2-x,1/2-y,-z
1/2+x,1/2-y,1/2+z
loop_
_atom_site_type_symbol
_atom_site_label
_atom_site_fract_x
_atom_site_fract_y
_atom_site_fract_z
Si Si1 0.359922 0.905744 0.883219
Si Si2 0.162351 0.399219 0.907456
Si Si3 0.724883 0.536370 0.378481
Si Si4 0.456753 0.678176 0.604491
Si Si5 0.165932 0.735388 0.275005
Si Si6 0.439169 0.228318 0.940134
Si Si7 0.500000 0.119374 0.750000
Si Si8 0.960353 0.137857 0.314842
O O1 0.311790 0.842157 0.776207
O O2 0.301429 0.879515 0.901043
O O3 0.382149 0.077636 0.890656
O O4 0.455900 0.823993 0.971343
O O5 0.109241 0.265285 0.900204
O O6 0.205260 0.343392 0.874015
O O7 0.087628 0.517444 0.823408
O O8 0.233002 0.471718 0.018082
O O9 0.698124 0.401364 0.306714
O O10 0.630665 0.619615 0.306771
O O11 0.555774 0.758699 0.690475
O O12 0.422591 0.694677 0.498440
O O13 0.479428 0.509003 0.639540
O O14 0.429459 0.329647 0.865974
O O15 0.493266 0.220104 0.677752
#
# Coordination Sequence:
#
# PCOD9277782 Si02
#       8
#     8   8   8   8   8   8   4   8
#     4  10  21  39  66  97 129 173 225 265 322 401
#     4  12  22  45  71  94 126 181 224 262 325 414
#     4  11  25  40  64  97 138 164 218 275 339 385
#     4  10  21  40  71  94 126 172 223 268 318 395
#     4  10  22  39  63  97 127 171 214 269 325 386
#     4  10  20  41  69  95 125 177 225 266 319 399
#     4  12  26  42  72  92 126 182 220 266 330 390
#     4  11  26  41  64 100 137 163 216 286 332 378
#
# _framework density 22.664832000000001
#
# number of rings (size 3 to 8) (size 9 to 14) (size 15 to 20)
#    0.000    1.333    2.667    2.400    7.467    0.533 
#    0.000    0.000    0.000    0.000    0.000    0.000 
#    0.000    0.000    0.000    0.000    0.000    0.000 
#
# Total GULP energy -167926.442340 kJ/mol
# GULP energy per Si atom -5597.548078 kJ/mol
# Density = 2.261325 g / cm^3
# Si number density = 22.664832 Si / 1000 Ang^3
#
#
#
# Elastic Constant Matrix: (Units=GPa)
#
#
# Indices 1 2 3 4 5 6 
#
# 1 45.9865 7.9529 11.4764 0.0000 -13.0547 0.0000
# 2 7.9529 77.9555 13.7765 0.0000 -1.4980 0.0000
# 3 11.4764 13.7765 74.2960 0.0000 -20.5040 0.0000
# 4 0.0000 0.0000 0.0000 23.9608 0.0000 -5.9337
# 5 -13.0547 -1.4980 -20.5040 0.0000 29.6502 0.0000
# 6 0.0000 0.0000 0.0000 -5.9337 0.0000 24.1160
#
#
#
# Elastic Compliance Matrix: (Units=1/GPa)
#
#
# Indices 1 2 3 4 5 6 
#
# 1 0.025298 -0.002280 -0.000547 0.000000 0.010645 0.000000
# 2 -0.002280 0.013507 -0.002770 0.000000 -0.002237 0.000000
# 3 -0.000547 -0.002770 0.017244 0.000000 0.011543 0.000000
# 4 0.000000 0.000000 0.000000 0.044443 0.000000 0.010935
# 5 0.010645 -0.002237 0.011543 0.000000 0.046283 0.000000
# 6 0.000000 0.000000 0.000000 0.010935 0.000000 0.044157
#
#
# Mechanical properties :
#
#
# Convention : Reuss Voigt Hill
#
# Bulk Modulus (GPa) = 22.29383 29.40551 25.84967
# Shear Modulus (GPa) = 23.03338 26.54756 24.79047
#
# Velocity S-wave (km/s) = 3.19134 3.42615 3.31083
# Velocity P-wave (km/s) = 4.84120 5.35291 5.10347
#
# Compressibility (1/GPa) = 0.04485547
#
# Stress axis : x y z
#
# Youngs Moduli (GPa) = 39.52841 74.03638 57.99274
#
# Poissons Ratio (x) = 0.16877 0.03174
# Poissons Ratio (y) = 0.09011 0.16062
# Poissons Ratio (z) = 0.02164 0.20506
#
# Static dielectric constant tensor:
#      x y z
#    x 1.853470 0.000000 0.021890 
#    y 0.000000 1.806870 0.000000 
#    z 0.021890 0.000000 1.860300 
# 
# From -- ./inp_files/255182.got.cif
#   From: 2010.05.17/outbox.cif.g08.bks.cpg/sg15_128_cif.got.tgz:255182.got - 2010.06.03 18:47:42.
