data_PCOD9277209
_publ_section_title
;
Structure prediction by ZEFSAII (Michael W. Deem and Ramdas Pophale) SiO2 
 PCOD9277209
Probable space group: C 2/C
;
_chemical_formula_sum "Si O2"
_cell_formula_units_Z 56
_cell_length_a 8.094779
_cell_length_b 29.156284
_cell_length_c 11.760873
_cell_angle_alpha 90.000000
_cell_angle_beta 111.617077
_cell_angle_gamma 90.000000
_cell_volume 2580.500903
_symmetry_space_group_name_H-M "C 2/C"
_symmetry_group_IT_number 15
_symmetry_cell_setting 'monoclinic'
loop_
_space_group_symop_operation_xyz
x,y,z
-x,y,1/2-z
-x,-y,-z
x,-y,1/2+z
1/2+x,1/2+y,z
1/2-x,1/2+y,1/2-z
1/2-x,1/2-y,-z
1/2+x,1/2-y,1/2+z
loop_
_atom_site_type_symbol
_atom_site_label
_atom_site_fract_x
_atom_site_fract_y
_atom_site_fract_z
Si Si1 0.400894 0.511011 0.096980
Si Si2 0.357479 0.181750 0.545574
Si Si3 0.792889 0.079277 0.660460
Si Si4 0.500000 0.894220 0.250000
Si Si5 0.693451 0.345385 0.519712
Si Si6 0.000000 0.307108 0.750000
Si Si7 0.107184 0.114164 0.393228
Si Si8 0.961470 0.240661 0.935225
O O1 0.500000 0.512087 0.250000
O O2 0.274827 0.467416 0.084151
O O3 0.326134 0.562494 0.066409
O O4 0.500000 0.500000 0.000000
O O5 0.424342 0.140780 0.638657
O O6 0.255539 0.153398 0.421852
O O7 0.208349 0.211050 0.572372
O O8 0.494751 0.219865 0.538101
O O9 0.660718 0.078205 0.733618
O O10 0.752438 0.123017 0.571733
O O11 0.000000 0.084084 0.750000
O O12 0.855032 0.336691 0.646473
O O13 0.531404 0.371147 0.543296
O O14 0.617984 0.295844 0.463307
O O15 0.914027 0.271150 0.815605
O O16 0.000000 0.113553 0.250000
#
# Coordination Sequence:
#
# PCOD9277209 Si02
#       8
#     8   8   8   4   8   4   8   8
#     4  10  21  40  75 107 139 186 243 289 362 449
#     4  10  23  41  61  91 132 173 230 287 348 412
#     4  11  24  45  73 102 142 185 239 291 362 431
#     4  12  26  40  70 101 138 182 233 294 346 426
#     4  11  23  39  65  95 135 183 237 291 356 428
#     4  12  24  36  60  93 136 170 237 286 352 412
#     4  10  20  40  69  97 131 181 229 290 365 424
#     4  10  23  39  59  90 126 183 230 282 349 421
#
# _framework density 21.701215000000001
#
# number of rings (size 3 to 8) (size 9 to 14) (size 15 to 20)
#    0.000    1.429    1.429    3.857    7.000    0.000 
#    2.571    0.714    0.000    6.857    0.000    0.000 
#    0.000    0.000    0.000    0.000    0.000    0.000 
#
# Total GULP energy -156223.682088 kJ/mol
# GULP energy per Si atom -5579.417217 kJ/mol
# Density = 2.165182 g / cm^3
# Si number density = 21.701215 Si / 1000 Ang^3
#
#
#
# Elastic Constant Matrix: (Units=GPa)
#
#
# Indices 1 2 3 4 5 6 
#
# 1 112.3200 62.7148 25.3040 0.0000 -17.8375 0.0000
# 2 62.7148 160.8690 32.7276 0.0000 -8.0000 0.0000
# 3 25.3040 32.7276 67.9125 0.0000 -6.6313 0.0000
# 4 0.0000 0.0000 0.0000 59.9589 0.0000 -14.3646
# 5 -17.8375 -8.0000 -6.6313 0.0000 32.7334 0.0000
# 6 0.0000 0.0000 0.0000 -14.3646 0.0000 -5.4761
#
#
#
# Elastic Compliance Matrix: (Units=1/GPa)
#
#
# Indices 1 2 3 4 5 6 
#
# 1 0.012590 -0.004205 -0.002137 0.000000 0.005400 0.000000
# 2 -0.004205 0.008331 -0.002523 0.000000 -0.000766 0.000000
# 3 -0.002137 -0.002523 0.016897 0.000000 0.001642 0.000000
# 4 0.000000 0.000000 0.000000 0.010242 0.000000 -0.026866
# 5 0.005400 -0.000766 0.001642 0.000000 0.033638 0.000000
# 6 0.000000 0.000000 0.000000 -0.026866 0.000000 -0.112139
#
#
# Mechanical properties :
#
#
# Convention : Reuss Voigt Hill
#
# Bulk Modulus (GPa) = 49.78090 64.73268 57.25679
# Shear Modulus (GPa) = -831.19490 32.13358 -399.53066
#
# Velocity S-wave (km/s) = -19.59207 3.85220 -13.58326
# Velocity P-wave (km/s) = 22.10905 7.04838 14.81773
#
# Compressibility (1/GPa) = 0.02008803
#
# Stress axis : x y z
#
# Youngs Moduli (GPa) = 79.42783 120.03916 59.18129
#
# Poissons Ratio (x) = 0.50475 0.12649
# Poissons Ratio (y) = 0.33398 0.14930
# Poissons Ratio (z) = 0.16977 0.30282
#
# Static dielectric constant tensor:
#      x y z
#    x 1.834720 0.000000 -0.042930 
#    y 0.000000 1.779160 0.000000 
#    z -0.042930 0.000000 1.819430 
# 
# From -- ./inp_files/82732.got.cif
#   From: 2010.05.17/outbox.cif.g08.bks.cpg/sg15_42_cif.got.tgz:82732.got - 2010.06.03 18:47:42.
