data_PCOD9277868
_publ_section_title
;
Structure prediction by ZEFSAII (Michael W. Deem and Ramdas Pophale) SiO2 
 PCOD9277868
Probable space group: C 2/C
;
_chemical_formula_sum "Si O2"
_cell_formula_units_Z 44
_cell_length_a 14.029526
_cell_length_b 4.826857
_cell_length_c 29.694696
_cell_angle_alpha 90.000000
_cell_angle_beta 112.447597
_cell_angle_gamma 90.000000
_cell_volume 1858.514597
_symmetry_space_group_name_H-M "C 2/C"
_symmetry_group_IT_number 15
_symmetry_cell_setting 'monoclinic'
loop_
_space_group_symop_operation_xyz
x,y,z
-x,y,1/2-z
-x,-y,-z
x,-y,1/2+z
1/2+x,1/2+y,z
1/2-x,1/2+y,1/2-z
1/2-x,1/2-y,-z
1/2+x,1/2-y,1/2+z
loop_
_atom_site_type_symbol
_atom_site_label
_atom_site_fract_x
_atom_site_fract_y
_atom_site_fract_z
Si Si1 0.608991 0.374306 0.638904
Si Si2 0.484662 0.887638 0.649363
Si Si3 0.722394 0.610665 0.773485
Si Si4 0.000000 0.861463 0.250000
Si Si5 0.860435 0.268901 0.543630
Si Si6 0.483823 0.280728 0.536510
O O1 0.569736 0.687000 0.639700
O O2 0.719325 0.271534 0.676088
O O3 0.588275 0.279184 0.584250
O O4 0.528200 0.195764 0.653717
O O5 0.476519 0.805739 0.699784
O O6 0.383140 0.865685 0.599152
O O7 0.786069 0.355217 0.764968
O O8 0.609047 0.490343 0.761988
O O9 0.750000 0.250000 0.500000
O O10 0.931547 0.479203 0.525957
O O11 0.901658 0.956097 0.551061
O O12 0.500000 0.500000 0.500000
#
# Coordination Sequence:
#
# PCOD9277868 Si02
#       6
#     8   8   8   4   8   8
#     4  10  20  42  58  86 128 164 206 270 322 367
#     4  10  22  38  62  88 122 170 212 259 322 389
#     4  12  24  41  63  91 128 165 212 270 317 375
#     4  12  24  40  68  94 124 172 226 246 336 396
#     4  10  21  39  61  89 130 162 207 278 321 370
#     4  10  21  37  64  89 121 170 213 257 325 396
#
# _framework density 23.674821000000001
#
# number of rings (size 3 to 8) (size 9 to 14) (size 15 to 20)
#    0.000    1.455    3.636    1.091    0.000    4.364 
#    0.000    1.818    0.000    0.000    0.000    0.000 
#    0.000    0.000    0.000    0.000    0.000    0.000 
#
# Total GULP energy -122648.146984 kJ/mol
# GULP energy per Si atom -5574.915772 kJ/mol
# Density = 2.362094 g / cm^3
# Si number density = 23.674821 Si / 1000 Ang^3
#
#
#
# Elastic Constant Matrix: (Units=GPa)
#
#
# Indices 1 2 3 4 5 6 
#
# 1 63.6733 9.6596 45.2054 0.0000 25.6285 0.0000
# 2 9.6596 113.4454 4.4582 0.0000 4.2475 0.0000
# 3 45.2054 4.4582 170.1525 0.0000 36.8755 0.0000
# 4 0.0000 0.0000 0.0000 27.2743 0.0000 12.4667
# 5 25.6285 4.2475 36.8755 0.0000 45.6094 0.0000
# 6 0.0000 0.0000 0.0000 12.4667 0.0000 8.7615
#
#
#
# Elastic Compliance Matrix: (Units=1/GPa)
#
#
# Indices 1 2 3 4 5 6 
#
# 1 0.022444 -0.001409 -0.003905 0.000000 -0.009323 0.000000
# 2 -0.001409 0.008935 0.000181 0.000000 -0.000187 0.000000
# 3 -0.003905 0.000181 0.007806 0.000000 -0.004133 0.000000
# 4 0.000000 0.000000 0.000000 0.104872 0.000000 -0.149222
# 5 -0.009323 -0.000187 -0.004133 0.000000 0.030523 0.000000
# 6 0.000000 0.000000 0.000000 -0.149222 0.000000 0.326464
#
#
# Mechanical properties :
#
#
# Convention : Reuss Voigt Hill
#
# Bulk Modulus (GPa) = 34.58124 51.76863 43.17493
# Shear Modulus (GPa) = 9.59785 35.52557 22.56171
#
# Velocity S-wave (km/s) = 2.01565 3.87791 3.09039
# Velocity P-wave (km/s) = 4.47835 6.47804 5.56869
#
# Compressibility (1/GPa) = 0.02891741
#
# Stress axis : x y z
#
# Youngs Moduli (GPa) = 44.55534 111.92393 128.11155
#
# Poissons Ratio (x) = 0.15765 0.50034
# Poissons Ratio (y) = 0.06276 -0.02313
# Poissons Ratio (z) = 0.17401 -0.02021
#
# Static dielectric constant tensor:
#      x y z
#    x 1.957850 0.000000 -0.022440 
#    y 0.000000 1.839540 0.000000 
#    z -0.022440 0.000000 2.085360 
# 
# From -- ./inp_files/294278.got.cif
#   From: 2010.05.17/outbox.cif.g08.bks.cpg/sg15_148_cif.got.tgz:294278.got - 2010.06.03 18:47:42.
