data_PCOD9277940
_publ_section_title
;
Structure prediction by ZEFSAII (Michael W. Deem and Ramdas Pophale) SiO2 
 PCOD9277940
Probable space group: C 2/C
;
_chemical_formula_sum "Si O2"
_cell_formula_units_Z 36
_cell_length_a 15.084910
_cell_length_b 15.511596
_cell_length_c 13.001817
_cell_angle_alpha 90.000000
_cell_angle_beta 33.274771
_cell_angle_gamma 90.000000
_cell_volume 1669.176988
_symmetry_space_group_name_H-M "C 2/C"
_symmetry_group_IT_number 15
_symmetry_cell_setting 'monoclinic'
loop_
_space_group_symop_operation_xyz
x,y,z
-x,y,1/2-z
-x,-y,-z
x,-y,1/2+z
1/2+x,1/2+y,z
1/2-x,1/2+y,1/2-z
1/2-x,1/2-y,-z
1/2+x,1/2-y,1/2+z
loop_
_atom_site_type_symbol
_atom_site_label
_atom_site_fract_x
_atom_site_fract_y
_atom_site_fract_z
Si Si1 0.500000 0.756541 0.250000
Si Si2 0.723177 0.629098 0.116535
Si Si3 0.810137 0.846821 0.414923
Si Si4 0.328495 0.008308 0.858285
Si Si5 0.186656 0.026029 0.786178
O O1 0.577930 0.695516 0.260910
O O2 0.370698 0.814108 0.433417
O O3 0.751711 0.565914 0.181884
O O4 0.695551 0.560697 0.052157
O O5 0.750000 0.750000 0.500000
O O6 0.718366 0.909063 0.584292
O O7 0.794596 0.897908 0.318324
O O8 0.000000 0.847660 0.250000
O O9 0.500000 0.018889 0.750000
O O10 0.302083 0.044951 0.770900
O O11 0.000000 0.000000 0.000000
#
# Coordination Sequence:
#
# PCOD9277940 Si02
#       5
#     4   8   8   8   8
#     4  10  20  42  62  96 136 174 222 300 348 416
#     4  10  22  40  66  95 140 176 230 293 356 416
#     4  11  24  46  71 103 145 189 241 303 358 437
#     4  11  23  45  69 100 142 186 242 297 358 425
#     4  11  23  45  74 101 137 198 241 282 376 433
#
# _framework density 21.567513999999999
#
# number of rings (size 3 to 8) (size 9 to 14) (size 15 to 20)
#    0.000    1.333    3.333    2.000    3.111    3.556 
#   12.000    0.000    0.000    0.000    0.000    0.000 
#    0.000    0.000    0.000    0.000    0.000    0.000 
#
# Total GULP energy -100233.090534 kJ/mol
# GULP energy per Si atom -5568.505030 kJ/mol
# Density = 2.151843 g / cm^3
# Si number density = 21.567514 Si / 1000 Ang^3
#
#
#
# Elastic Constant Matrix: (Units=GPa)
#
#
# Indices 1 2 3 4 5 6 
#
# 1 134.4070 33.5283 34.1937 0.0007 4.4992 -0.0003
# 2 33.5283 141.4082 22.1904 0.0010 -6.3645 -0.0006
# 3 34.1937 22.1904 44.3491 0.0013 -1.8298 -0.0007
# 4 0.0007 0.0010 0.0013 37.8705 -0.0009 -1.4921
# 5 4.4992 -6.3645 -1.8298 -0.0009 35.9471 0.0005
# 6 -0.0003 -0.0006 -0.0007 -1.4921 0.0005 4.1185
#
#
#
# Elastic Compliance Matrix: (Units=1/GPa)
#
#
# Indices 1 2 3 4 5 6 
#
# 1 0.009546 -0.001277 -0.006794 0.000000 -0.001767 0.000000
# 2 -0.001277 0.007894 -0.002907 0.000000 0.001409 0.000000
# 3 -0.006794 -0.002907 0.029317 -0.000001 0.001828 0.000004
# 4 0.000000 0.000000 -0.000001 0.026788 0.000001 0.009705
# 5 -0.001767 0.001409 0.001828 0.000001 0.028382 -0.000003
# 6 0.000000 0.000000 0.000004 0.009705 -0.000003 0.246326
#
#
# Mechanical properties :
#
#
# Convention : Reuss Voigt Hill
#
# Bulk Modulus (GPa) = 40.32175 55.55435 47.93805
# Shear Modulus (GPa) = 13.21084 30.93735 22.07409
#
# Velocity S-wave (km/s) = 2.47763 3.79151 3.20267
# Velocity P-wave (km/s) = 5.18855 6.70684 5.99595
#
# Compressibility (1/GPa) = 0.02480051
#
# Stress axis : x y z
#
# Youngs Moduli (GPa) = 104.75341 126.67662 34.10995
#
# Poissons Ratio (x) = 0.16174 0.23175
# Poissons Ratio (y) = 0.13375 0.09917
# Poissons Ratio (z) = 0.71173 0.36829
#
# Static dielectric constant tensor:
#      x y z
#    x 1.777230 0.000000 -0.053070 
#    y 0.000000 1.807540 0.000000 
#    z -0.053070 0.000000 1.826200 
# 
# From -- ./inp_files/46877.got.cif
#   From: 2010.05.17/outbox.cif.g08.bks.cpg/sg15_24_cif.got.tgz:46877.got - 2010.06.03 18:47:42.
