data_PCOD9277358
_publ_section_title
;
Structure prediction by ZEFSAII (Michael W. Deem and Ramdas Pophale) SiO2 
 PCOD9277358
Probable space group: C 2/C
;
_chemical_formula_sum "Si O2"
_cell_formula_units_Z 52
_cell_length_a 19.141735
_cell_length_b 14.337737
_cell_length_c 9.653192
_cell_angle_alpha 90.000000
_cell_angle_beta 48.991666
_cell_angle_gamma 90.000000
_cell_volume 1999.207144
_symmetry_space_group_name_H-M "C 2/C"
_symmetry_group_IT_number 15
_symmetry_cell_setting 'monoclinic'
loop_
_space_group_symop_operation_xyz
x,y,z
-x,y,1/2-z
-x,-y,-z
x,-y,1/2+z
1/2+x,1/2+y,z
1/2-x,1/2+y,1/2-z
1/2-x,1/2-y,-z
1/2+x,1/2-y,1/2+z
loop_
_atom_site_type_symbol
_atom_site_label
_atom_site_fract_x
_atom_site_fract_y
_atom_site_fract_z
Si Si1 0.228844 0.443368 0.574186
Si Si2 0.740625 0.261368 0.676052
Si Si3 0.086307 0.005776 0.043210
Si Si4 0.500000 0.194692 0.750000
Si Si5 0.340167 0.937913 0.560746
Si Si6 0.376454 0.300793 0.446487
Si Si7 0.573433 0.311371 0.417396
O O1 0.312365 0.513148 0.514838
O O2 0.186021 0.470353 0.485346
O O3 0.280969 0.345116 0.506336
O O4 0.146943 0.450609 0.793407
O O5 0.750000 0.250000 0.500000
O O6 0.748321 0.373676 0.679848
O O7 0.831207 0.219790 0.631365
O O8 0.654821 0.235190 0.886962
O O9 0.000000 0.036024 0.250000
O O10 0.077654 0.893591 0.044005
O O11 0.080371 0.075609 0.920993
O O12 0.584766 0.123873 0.615425
O O13 0.499331 0.262287 0.616510
O O14 0.427888 0.272470 0.237902
#
# Coordination Sequence:
#
# PCOD9277358 Si02
#       7
#     8   8   8   4   8   8   8
#     4   9  20  37  64  88 120 150 207 254 309 362
#     4  10  21  37  62  89 127 164 211 249 314 375
#     4  10  21  37  59  95 125 160 208 256 313 369
#     4  10  24  38  60  88 126 164 208 252 326 370
#     4  10  20  41  59  92 117 159 203 261 307 379
#     4   9  22  37  62  93 121 163 210 257 304 375
#     4  11  20  40  60  88 127 169 202 257 317 374
#
# _framework density 26.010311999999999
#
# number of rings (size 3 to 8) (size 9 to 14) (size 15 to 20)
#    0.923    1.231    0.769    2.308    0.000    1.231 
#    5.538    0.000    0.000    3.692    0.000    0.000 
#    0.000    0.000    0.000    0.000    0.000    0.000 
#
# Total GULP energy -145033.589441 kJ/mol
# GULP energy per Si atom -5578.214979 kJ/mol
# Density = 2.595111 g / cm^3
# Si number density = 26.010312 Si / 1000 Ang^3
#
#
#
# Elastic Constant Matrix: (Units=GPa)
#
#
# Indices 1 2 3 4 5 6 
#
# 1 69.1021 27.6666 40.0332 0.0000 17.9209 0.0000
# 2 27.6666 65.0611 29.3946 0.0000 7.0468 0.0000
# 3 40.0332 29.3946 210.1601 0.0000 13.9056 0.0000
# 4 0.0000 0.0000 0.0000 25.5201 0.0000 3.0018
# 5 17.9209 7.0468 13.9056 0.0000 42.2212 0.0000
# 6 0.0000 0.0000 0.0000 3.0018 0.0000 20.7443
#
#
#
# Elastic Compliance Matrix: (Units=1/GPa)
#
#
# Indices 1 2 3 4 5 6 
#
# 1 0.020376 -0.006817 -0.002485 0.000000 -0.006692 0.000000
# 2 -0.006817 0.018859 -0.001352 0.000000 0.000191 0.000000
# 3 -0.002485 -0.001352 0.005455 0.000000 -0.000516 0.000000
# 4 0.000000 0.000000 0.000000 0.039863 0.000000 -0.005768
# 5 -0.006692 0.000191 -0.000516 0.000000 0.026663 0.000000
# 6 0.000000 0.000000 0.000000 -0.005768 0.000000 0.049041
#
#
# Mechanical properties :
#
#
# Convention : Reuss Voigt Hill
#
# Bulk Modulus (GPa) = 42.76797 59.83469 51.30133
# Shear Modulus (GPa) = 26.40478 34.17905 30.29191
#
# Velocity S-wave (km/s) = 3.18962 3.62893 3.41634
# Velocity P-wave (km/s) = 5.48118 6.37283 5.94375
#
# Compressibility (1/GPa) = 0.02338198
#
# Stress axis : x y z
#
# Youngs Moduli (GPa) = 49.07726 53.02476 183.32157
#
# Poissons Ratio (x) = 0.36147 0.45557
# Poissons Ratio (y) = 0.33456 0.24782
# Poissons Ratio (z) = 0.12196 0.07168
#
# Static dielectric constant tensor:
#      x y z
#    x 2.153620 0.000000 -0.026240 
#    y 0.000000 2.068640 0.000000 
#    z -0.026240 0.000000 2.237660 
# 
# From -- ./inp_files/56963.got.cif
#   From: 2010.05.17/outbox.cif.g08.bks.cpg/sg15_29_cif.got.tgz:56963.got - 2010.06.03 18:47:42.
