data_PCOD9277252
_publ_section_title
;
Structure prediction by ZEFSAII (Michael W. Deem and Ramdas Pophale) SiO2 
 PCOD9277252
Probable space group: C 2/C
;
_chemical_formula_sum "Si O2"
_cell_formula_units_Z 44
_cell_length_a 12.387851
_cell_length_b 8.763317
_cell_length_c 16.374927
_cell_angle_alpha 90.000000
_cell_angle_beta 117.285941
_cell_angle_gamma 90.000000
_cell_volume 1579.841743
_symmetry_space_group_name_H-M "C 2/C"
_symmetry_group_IT_number 15
_symmetry_cell_setting 'monoclinic'
loop_
_space_group_symop_operation_xyz
x,y,z
-x,y,1/2-z
-x,-y,-z
x,-y,1/2+z
1/2+x,1/2+y,z
1/2-x,1/2+y,1/2-z
1/2-x,1/2-y,-z
1/2+x,1/2-y,1/2+z
loop_
_atom_site_type_symbol
_atom_site_label
_atom_site_fract_x
_atom_site_fract_y
_atom_site_fract_z
Si Si1 0.067766 0.683691 0.862691
Si Si2 0.198802 0.338974 0.625866
Si Si3 0.000000 0.836641 0.250000
Si Si4 0.281736 0.434140 0.263836
Si Si5 0.404555 0.623934 0.430051
Si Si6 0.577190 0.156330 0.432128
O O1 0.193210 0.782804 0.895216
O O2 0.000000 0.653864 0.750000
O O3 0.976619 0.782230 0.885938
O O4 0.096119 0.523399 0.920471
O O5 0.200387 0.508237 0.662709
O O6 0.055547 0.315655 0.569128
O O7 0.234716 0.239225 0.718023
O O8 0.065164 0.732995 0.339381
O O9 0.913062 0.944560 0.269744
O O10 0.294783 0.524742 0.352456
O O11 0.500000 0.500000 0.500000
O O12 0.350282 0.735252 0.480603
#
# Coordination Sequence:
#
# PCOD9277252 Si02
#       6
#     8   8   4   8   8   8
#     4  12  24  45  73 100 138 188 231 288 359 420
#     4  11  24  41  73 102 135 184 243 283 346 437
#     4  10  20  40  70  92 134 190 220 280 354 418
#     4  11  23  42  68 102 134 183 235 287 346 425
#     4  12  24  45  68 100 144 183 222 295 366 407
#     4  11  25  45  71 100 142 179 236 294 351 421
#
# _framework density 27.850891000000001
#
# number of rings (size 3 to 8) (size 9 to 14) (size 15 to 20)
#    0.000    0.727    6.364    2.727    2.545    0.727 
#    0.000    0.909    4.000    0.000    0.000    0.000 
#    0.000    0.000    0.000    0.000    0.000    0.000 
#
# Total GULP energy -123034.979582 kJ/mol
# GULP energy per Si atom -5592.499072 kJ/mol
# Density = 2.778750 g / cm^3
# Si number density = 27.850891 Si / 1000 Ang^3
#
#
#
# Elastic Constant Matrix: (Units=GPa)
#
#
# Indices 1 2 3 4 5 6 
#
# 1 123.4072 5.2767 9.1727 0.0000 -20.6623 0.0000
# 2 5.2767 113.9333 50.5894 0.0000 -18.5191 0.0000
# 3 9.1727 50.5894 109.8238 0.0000 -20.5690 0.0000
# 4 0.0000 0.0000 0.0000 71.5424 0.0000 -3.4252
# 5 -20.6623 -18.5191 -20.5690 0.0000 36.9892 0.0000
# 6 0.0000 0.0000 0.0000 -3.4252 0.0000 28.0304
#
#
#
# Elastic Compliance Matrix: (Units=1/GPa)
#
#
# Indices 1 2 3 4 5 6 
#
# 1 0.008959 0.000419 0.000040 0.000000 0.005236 0.000000
# 2 0.000419 0.011362 -0.004643 0.000000 0.003341 0.000000
# 3 0.000040 -0.004643 0.012067 0.000000 0.004407 0.000000
# 4 0.000000 0.000000 0.000000 0.014060 0.000000 0.001718
# 5 0.005236 0.003341 0.004407 0.000000 0.034083 0.000000
# 6 0.000000 0.000000 0.000000 0.001718 0.000000 0.035886
#
#
# Mechanical properties :
#
#
# Convention : Reuss Voigt Hill
#
# Bulk Modulus (GPa) = 41.63579 53.02690 47.33135
# Shear Modulus (GPa) = 37.65259 46.12076 41.88668
#
# Velocity S-wave (km/s) = 3.68086 4.07380 3.88230
# Velocity P-wave (km/s) = 5.74865 6.41940 6.09326
#
# Compressibility (1/GPa) = 0.02401780
#
# Stress axis : x y z
#
# Youngs Moduli (GPa) = 111.61822 88.00943 82.87373
#
# Poissons Ratio (x) = -0.03684 -0.00328
# Poissons Ratio (y) = -0.04672 0.38481
# Poissons Ratio (z) = -0.00442 0.40866
#
# Static dielectric constant tensor:
#      x y z
#    x 2.260310 0.000000 0.207340 
#    y 0.000000 2.214530 0.000000 
#    z 0.207340 0.000000 2.508490 
# 
# From -- ./inp_files/202802.got.cif
#   From: 2010.05.17/outbox.cif.g08.bks.cpg/sg15_102_cif.got.tgz:202802.got - 2010.06.03 18:47:42.
