data_PCOD9277913
_publ_section_title
;
Structure prediction by ZEFSAII (Michael W. Deem and Ramdas Pophale) SiO2 
 PCOD9277913
Probable space group: C 2/C
;
_chemical_formula_sum "Si O2"
_cell_formula_units_Z 32
_cell_length_a 11.427926
_cell_length_b 9.624227
_cell_length_c 21.002449
_cell_angle_alpha 90.000000
_cell_angle_beta 143.932951
_cell_angle_gamma 90.000000
_cell_volume 1359.942512
_symmetry_space_group_name_H-M "C 2/C"
_symmetry_group_IT_number 15
_symmetry_cell_setting 'monoclinic'
loop_
_space_group_symop_operation_xyz
x,y,z
-x,y,1/2-z
-x,-y,-z
x,-y,1/2+z
1/2+x,1/2+y,z
1/2-x,1/2+y,1/2-z
1/2-x,1/2-y,-z
1/2+x,1/2-y,1/2+z
loop_
_atom_site_type_symbol
_atom_site_label
_atom_site_fract_x
_atom_site_fract_y
_atom_site_fract_z
Si Si1 0.134425 0.557354 0.247286
Si Si2 0.973207 0.910586 0.076722
Si Si3 0.118105 0.497904 0.985703
Si Si4 0.507195 0.292178 0.545958
O O1 0.295460 0.434755 0.308269
O O2 0.004222 0.565836 0.127123
O O3 0.278603 0.688034 0.325837
O O4 0.000000 0.533571 0.250000
O O5 0.955735 0.795689 0.014108
O O6 0.906504 0.057340 0.013866
O O7 0.831305 0.920660 0.075422
O O8 0.116708 0.666420 0.980304
O O9 0.000000 0.500000 0.000000
#
# Coordination Sequence:
#
# PCOD9277913 Si02
#       4
#     8   8   8   8
#     4  10  20  42  62  86 122 173 217 256 326 389
#     4   9  20  42  63  88 123 171 213 253 324 383
#     4  12  24  38  62  99 130 162 216 268 320 384
#     4   9  20  41  66  85 126 167 213 259 317 382
#
# _framework density 23.530405999999999
#
# number of rings (size 3 to 8) (size 9 to 14) (size 15 to 20)
#    1.500    0.500    2.500    0.750    0.000    4.000 
#    4.500    0.000    0.000    0.000    0.000    0.000 
#    0.000    0.000    0.000    0.000    0.000    0.000 
#
# Total GULP energy -89073.912010 kJ/mol
# GULP energy per Si atom -5567.119501 kJ/mol
# Density = 2.347685 g / cm^3
# Si number density = 23.530406 Si / 1000 Ang^3
#
#
#
# Elastic Constant Matrix: (Units=GPa)
#
#
# Indices 1 2 3 4 5 6 
#
# 1 185.5742 29.6006 37.1717 0.0000 4.5181 0.0000
# 2 29.6006 39.0245 7.0712 0.0000 -4.9880 0.0000
# 3 37.1717 7.0712 50.4706 0.0001 -8.1145 0.0000
# 4 0.0000 0.0000 0.0001 -13.0344 0.0000 18.2428
# 5 4.5181 -4.9880 -8.1145 0.0000 35.7798 0.0000
# 6 0.0000 0.0000 0.0000 18.2428 0.0000 35.5029
#
#
#
# Elastic Compliance Matrix: (Units=1/GPa)
#
#
# Indices 1 2 3 4 5 6 
#
# 1 0.007266 -0.004940 -0.005104 0.000000 -0.002764 0.000000
# 2 -0.004940 0.029952 0.000222 0.000000 0.004850 0.000000
# 3 -0.005104 0.000222 0.024545 0.000000 0.006242 0.000000
# 4 0.000000 0.000000 0.000000 -0.044626 0.000000 0.022931
# 5 -0.002764 0.004850 0.006242 0.000000 0.030389 0.000000
# 6 0.000000 0.000000 0.000000 0.022931 0.000000 0.016384
#
#
# Mechanical properties :
#
#
# Convention : Reuss Voigt Hill
#
# Bulk Modulus (GPa) = 23.74253 46.97291 35.35772
# Shear Modulus (GPa) = 51.23271 25.06472 38.14872
#
# Velocity S-wave (km/s) = 4.67121 3.26729 4.03085
# Velocity P-wave (km/s) = 6.26145 5.85146 6.05992
#
# Compressibility (1/GPa) = 0.04211850
#
# Stress axis : x y z
#
# Youngs Moduli (GPa) = 137.62231 33.38710 40.74151
#
# Poissons Ratio (x) = 0.16493 0.20794
# Poissons Ratio (y) = 0.67985 -0.00903
# Poissons Ratio (z) = 0.70240 -0.00740
#
# Static dielectric constant tensor:
#      x y z
#    x 2.019980 0.000000 0.016770 
#    y 0.000000 2.130750 0.000000 
#    z 0.016770 0.000000 1.860360 
# 
# From -- ./inp_files/83847.got.cif
#   From: 2010.05.17/outbox.cif.g08.bks.cpg/sg15_42_cif.got.tgz:83847.got - 2010.06.03 18:47:42.
