data_PCOD9277030
_publ_section_title
;
Structure prediction by ZEFSAII (Michael W. Deem and Ramdas Pophale) SiO2 
 PCOD9277030
Probable space group: C 2/C
;
_chemical_formula_sum "Si O2"
_cell_formula_units_Z 48
_cell_length_a 16.348855
_cell_length_b 7.053977
_cell_length_c 15.466850
_cell_angle_alpha 90.000000
_cell_angle_beta 87.831505
_cell_angle_gamma 90.000000
_cell_volume 1782.428566
_symmetry_space_group_name_H-M "C 2/C"
_symmetry_group_IT_number 15
_symmetry_cell_setting 'monoclinic'
loop_
_space_group_symop_operation_xyz
x,y,z
-x,y,1/2-z
-x,-y,-z
x,-y,1/2+z
1/2+x,1/2+y,z
1/2-x,1/2+y,1/2-z
1/2-x,1/2-y,-z
1/2+x,1/2-y,1/2+z
loop_
_atom_site_type_symbol
_atom_site_label
_atom_site_fract_x
_atom_site_fract_y
_atom_site_fract_z
Si Si1 0.215713 0.675150 0.246556
Si Si2 0.069374 0.863952 0.533218
Si Si3 0.117271 0.458378 0.504205
Si Si4 0.937854 0.505564 0.684603
Si Si5 0.723316 0.433319 0.402995
Si Si6 0.428632 0.330665 0.350118
O O1 0.149272 0.507360 0.262978
O O2 0.274308 0.605415 0.167330
O O3 0.240821 0.752069 0.339628
O O4 0.147823 0.820563 0.212227
O O5 0.063178 0.638351 0.536708
O O6 0.142837 0.898478 0.462102
O O7 0.068139 0.948606 0.629373
O O8 0.000000 0.000000 0.500000
O O9 0.094052 0.426621 0.406561
O O10 0.207688 0.524764 0.528374
O O11 0.103911 0.275769 0.563011
O O12 0.000000 0.600398 0.750000
O O13 0.988152 0.298856 0.667627
#
# Coordination Sequence:
#
# PCOD9277030 Si02
#       6
#     8   8   8   8   8   8
#     4  10  23  41  63  91 137 173 211 278 334 393
#     4  12  24  42  70  98 128 176 229 281 333 403
#     4  11  23  42  68  97 134 177 226 275 340 399
#     4  10  20  40  67  92 130 176 213 278 338 389
#     4  11  25  42  64 103 131 183 224 274 347 400
#     4  10  23  41  68  95 130 174 224 268 336 402
#
# _framework density 26.929549000000002
#
# number of rings (size 3 to 8) (size 9 to 14) (size 15 to 20)
#    0.000    1.333    3.333    1.000    2.333    4.000 
#    0.000    0.000    0.000    1.000    0.000    0.000 
#    0.000    0.000    0.000    0.000    0.000    0.000 
#
# Total GULP energy -133795.444730 kJ/mol
# GULP energy per Si atom -5574.810197 kJ/mol
# Density = 2.686826 g / cm^3
# Si number density = 26.929549 Si / 1000 Ang^3
#
#
#
# Elastic Constant Matrix: (Units=GPa)
#
#
# Indices 1 2 3 4 5 6 
#
# 1 96.5878 30.9151 48.5200 0.0000 -2.6034 0.0000
# 2 30.9151 77.4370 23.6686 0.0000 -6.6390 0.0000
# 3 48.5200 23.6686 148.3051 0.0000 30.3855 0.0000
# 4 0.0000 0.0000 0.0000 32.3256 0.0000 1.3221
# 5 -2.6034 -6.6390 30.3855 0.0000 47.0479 0.0000
# 6 0.0000 0.0000 0.0000 1.3221 0.0000 18.5027
#
#
#
# Elastic Compliance Matrix: (Units=1/GPa)
#
#
# Indices 1 2 3 4 5 6 
#
# 1 0.014009 -0.003907 -0.004617 0.000000 0.003205 0.000000
# 2 -0.003907 0.015289 -0.001797 0.000000 0.003102 0.000000
# 3 -0.004617 -0.001797 0.009963 0.000000 -0.006943 0.000000
# 4 0.000000 0.000000 0.000000 0.031026 0.000000 -0.002217
# 5 0.003205 0.003102 -0.006943 0.000000 0.026354 0.000000
# 6 0.000000 0.000000 0.000000 -0.002217 0.000000 0.054205
#
#
# Mechanical properties :
#
#
# Convention : Reuss Voigt Hill
#
# Bulk Modulus (GPa) = 53.70866 58.72635 56.21751
# Shear Modulus (GPa) = 28.13830 34.19032 31.16431
#
# Velocity S-wave (km/s) = 3.23598 3.56704 3.40553
# Velocity P-wave (km/s) = 5.82662 6.23055 6.03197
#
# Compressibility (1/GPa) = 0.01861897
#
# Stress axis : x y z
#
# Youngs Moduli (GPa) = 71.38123 65.40728 100.37505
#
# Poissons Ratio (x) = 0.25555 0.46338
# Poissons Ratio (y) = 0.27889 0.18040
# Poissons Ratio (z) = 0.32953 0.11756
#
# Static dielectric constant tensor:
#      x y z
#    x 2.408110 0.000000 0.777520 
#    y 0.000000 2.408940 0.000000 
#    z 0.777520 0.000000 4.289170 
# 
# From -- ./inp_files/159710.got.cif
#   From: 2010.05.17/outbox.cif.g08.bks.cpg/sg15_80_cif.got.tgz:159710.got - 2010.06.03 18:47:42.
