data_PCOD9277717
_publ_section_title
;
Structure prediction by ZEFSAII (Michael W. Deem and Ramdas Pophale) SiO2 
 PCOD9277717
Probable space group: C 2/C
;
_chemical_formula_sum "Si O2"
_cell_formula_units_Z 44
_cell_length_a 20.528092
_cell_length_b 17.757330
_cell_length_c 5.134638
_cell_angle_alpha 90.000000
_cell_angle_beta 115.709943
_cell_angle_gamma 90.000000
_cell_volume 1686.404362
_symmetry_space_group_name_H-M "C 2/C"
_symmetry_group_IT_number 15
_symmetry_cell_setting 'monoclinic'
loop_
_space_group_symop_operation_xyz
x,y,z
-x,y,1/2-z
-x,-y,-z
x,-y,1/2+z
1/2+x,1/2+y,z
1/2-x,1/2+y,1/2-z
1/2-x,1/2-y,-z
1/2+x,1/2-y,1/2+z
loop_
_atom_site_type_symbol
_atom_site_label
_atom_site_fract_x
_atom_site_fract_y
_atom_site_fract_z
Si Si1 0.756230 0.611669 0.670420
Si Si2 0.350305 0.191678 0.206604
Si Si3 0.876576 0.519647 0.347383
Si Si4 0.881031 0.047732 0.805373
Si Si5 0.500000 0.747766 0.750000
Si Si6 0.750000 0.250000 0.000000
Si Si7 0.000000 0.156558 0.250000
O O1 0.810733 0.542579 0.715878
O O2 0.697423 0.580978 0.764697
O O3 0.722238 0.660072 0.381179
O O4 0.800534 0.687527 0.853762
O O5 0.350789 0.104449 0.291979
O O6 0.430642 0.210314 0.251642
O O7 0.317463 0.239854 0.380905
O O8 0.920207 0.498902 0.671207
O O9 0.888713 0.022089 0.521753
O O10 0.940324 0.105882 0.004792
O O11 0.470736 0.703933 0.444560
#
# Coordination Sequence:
#
# PCOD9277717 Si02
#       7
#     8   8   8   8   4   4   4
#     4  11  25  42  74 114 156 194 263 336 401 468
#     4  11  26  47  74 114 157 210 265 331 399 485
#     4  10  20  41  68 101 148 187 243 322 380 457
#     4  12  26  46  80 115 153 208 260 329 408 484
#     4  12  30  51  76 109 166 220 262 326 406 480
#     4  12  24  42  76 108 154 196 266 326 402 452
#     4  12  28  53  76 109 166 210 270 326 396 504
#
# _framework density 26.091011999999999
#
# number of rings (size 3 to 8) (size 9 to 14) (size 15 to 20)
#    0.000    0.727    1.818    5.455    7.636    0.000 
#    0.000    3.636    0.000    0.000    0.000    0.000 
#    0.000    0.000    0.000    0.000    0.000    0.000 
#
# Total GULP energy -122649.720388 kJ/mol
# GULP energy per Si atom -5574.987290 kJ/mol
# Density = 2.603163 g / cm^3
# Si number density = 26.091012 Si / 1000 Ang^3
#
#
#
# Elastic Constant Matrix: (Units=GPa)
#
#
# Indices 1 2 3 4 5 6 
#
# 1 170.9722 79.2107 37.5269 0.0000 0.8820 0.0000
# 2 79.2107 148.8310 30.0542 0.0000 -5.1158 0.0000
# 3 37.5269 30.0542 96.1495 0.0000 -24.8634 0.0000
# 4 0.0000 0.0000 0.0000 32.4497 0.0000 -10.9900
# 5 0.8820 -5.1158 -24.8634 0.0000 44.9230 0.0000
# 6 0.0000 0.0000 0.0000 -10.9900 0.0000 5.4661
#
#
#
# Elastic Compliance Matrix: (Units=1/GPa)
#
#
# Indices 1 2 3 4 5 6 
#
# 1 0.008236 -0.003948 -0.002496 0.000000 -0.001993 0.000000
# 2 -0.003948 0.009074 -0.001176 0.000000 0.000460 0.000000
# 3 -0.002496 -0.001176 0.013678 0.000000 0.007485 0.000000
# 4 0.000000 0.000000 0.000000 0.096589 0.000000 0.194202
# 5 -0.001993 0.000460 0.007485 0.000000 0.026495 0.000000
# 6 0.000000 0.000000 0.000000 0.194202 0.000000 0.573408
#
#
# Mechanical properties :
#
#
# Convention : Reuss Voigt Hill
#
# Bulk Modulus (GPa) = 63.50300 78.83736 71.17018
# Shear Modulus (GPa) = 6.68477 34.51181 20.59829
#
# Velocity S-wave (km/s) = 1.60239 3.64090 2.81281
# Velocity P-wave (km/s) = 5.27403 6.92508 6.15517
#
# Compressibility (1/GPa) = 0.01574729
#
# Stress axis : x y z
#
# Youngs Moduli (GPa) = 121.41805 110.21070 73.11050
#
# Poissons Ratio (x) = 0.43510 0.18247
# Poissons Ratio (y) = 0.47934 0.08601
# Poissons Ratio (z) = 0.30303 0.12966
#
# Static dielectric constant tensor:
#      x y z
#    x 2.093830 0.000000 0.137810 
#    y 0.000000 2.292460 0.000000 
#    z 0.137810 0.000000 3.209730 
# 
# From -- ./inp_files/12984.got.cif
#   From: 2010.05.17/outbox.cif.g08.bks.cpg/sg15_7_cif.got.tgz:12984.got - 2010.06.03 18:47:42.
