data_PCOD9277108
_publ_section_title
;
Structure prediction by ZEFSAII (Michael W. Deem and Ramdas Pophale) SiO2 
 PCOD9277108
Probable space group: C 2/C
;
_chemical_formula_sum "Si O2"
_cell_formula_units_Z 56
_cell_length_a 6.435524
_cell_length_b 29.806948
_cell_length_c 21.370486
_cell_angle_alpha 90.000000
_cell_angle_beta 141.184390
_cell_angle_gamma 90.000000
_cell_volume 2569.543515
_symmetry_space_group_name_H-M "C 2/C"
_symmetry_group_IT_number 15
_symmetry_cell_setting 'monoclinic'
loop_
_space_group_symop_operation_xyz
x,y,z
-x,y,1/2-z
-x,-y,-z
x,-y,1/2+z
1/2+x,1/2+y,z
1/2-x,1/2+y,1/2-z
1/2-x,1/2-y,-z
1/2+x,1/2-y,1/2+z
loop_
_atom_site_type_symbol
_atom_site_label
_atom_site_fract_x
_atom_site_fract_y
_atom_site_fract_z
Si Si1 0.175381 0.164298 0.073865
Si Si2 0.290848 0.591280 0.639751
Si Si3 0.123491 0.014325 0.927754
Si Si4 0.760782 0.217319 0.062920
Si Si5 0.327887 0.244156 0.277202
Si Si6 0.939664 0.176779 0.589634
Si Si7 0.000764 0.931602 0.972535
O O1 0.471628 0.200631 0.149350
O O2 0.951417 0.174343 0.081323
O O3 0.964545 0.171205 0.960267
O O4 0.237415 0.111451 0.088557
O O5 0.500000 0.603675 0.750000
O O6 0.457809 0.546364 0.649542
O O7 0.349061 0.630432 0.602354
O O8 0.895628 0.582989 0.560907
O O9 0.076807 0.044223 0.979586
O O10 0.500000 0.000000 0.000000
O O11 0.945816 0.967920 0.904512
O O12 0.955954 0.233200 0.169304
O O13 0.750000 0.250000 0.000000
O O14 0.394424 0.205390 0.993489
O O15 0.500000 0.251973 0.250000
O O16 0.349722 0.291305 0.317106
#
# Coordination Sequence:
#
# PCOD9277108 Si02
#       7
#     8   8   8   8   8   8   8
#     4  11  22  38  63  92 121 166 216 261 311 388
#     4  11  23  37  65  96 135 164 212 265 323 393
#     4   9  20  41  67  90 120 163 208 265 326 388
#     4  11  23  41  62  84 129 173 209 265 323 369
#     4  10  22  39  60  88 128 168 218 260 313 381
#     4  12  22  40  62  94 131 170 211 267 323 383
#     4  10  20  40  68  90 122 169 211 260 332 378
#
# _framework density 21.793752999999999
#
# number of rings (size 3 to 8) (size 9 to 14) (size 15 to 20)
#    0.000    1.429    5.714    0.857    0.000    1.143 
#    0.000    1.429   28.286    0.000    0.000    0.000 
#    0.000    0.000    0.000    0.000    0.000    0.000 
#
# Total GULP energy -156204.878924 kJ/mol
# GULP energy per Si atom -5578.745676 kJ/mol
# Density = 2.174415 g / cm^3
# Si number density = 21.793753 Si / 1000 Ang^3
#
#
#
# Elastic Constant Matrix: (Units=GPa)
#
#
# Indices 1 2 3 4 5 6 
#
# 1 76.2225 22.5080 7.8675 0.0000 -9.1893 0.0000
# 2 22.5080 128.0915 35.1202 0.0000 -10.4357 0.0000
# 3 7.8675 35.1202 91.9384 0.0000 -7.6075 0.0000
# 4 0.0000 0.0000 0.0000 26.0908 0.0000 -12.6581
# 5 -9.1893 -10.4357 -7.6075 0.0000 30.8057 0.0000
# 6 0.0000 0.0000 0.0000 -12.6581 0.0000 40.7662
#
#
#
# Elastic Compliance Matrix: (Units=1/GPa)
#
#
# Indices 1 2 3 4 5 6 
#
# 1 0.014193 -0.002186 -0.000092 0.000000 0.003470 0.000000
# 2 -0.002186 0.009202 -0.003189 0.000000 0.001678 0.000000
# 3 -0.000092 -0.003189 0.012262 0.000000 0.001920 0.000000
# 4 0.000000 0.000000 0.000000 0.045126 0.000000 0.014012
# 5 0.003470 0.001678 0.001920 0.000000 0.034539 0.000000
# 6 0.000000 0.000000 0.000000 0.014012 0.000000 0.028881
#
#
# Mechanical properties :
#
#
# Convention : Reuss Voigt Hill
#
# Bulk Modulus (GPa) = 40.45007 47.47152 43.96080
# Shear Modulus (GPa) = 30.60381 34.91633 32.76007
#
# Velocity S-wave (km/s) = 3.75139 4.00700 3.88130
# Velocity P-wave (km/s) = 6.11266 6.57552 6.34831
#
# Compressibility (1/GPa) = 0.02472183
#
# Stress axis : x y z
#
# Youngs Moduli (GPa) = 70.45787 108.67033 81.55309
#
# Poissons Ratio (x) = 0.23754 0.00753
# Poissons Ratio (y) = 0.15401 0.26010
# Poissons Ratio (z) = 0.00651 0.34658
#
# Static dielectric constant tensor:
#      x y z
#    x 1.925660 0.000000 -0.099200 
#    y 0.000000 1.850140 0.000000 
#    z -0.099200 0.000000 1.985350 
# 
# From -- ./inp_files/186774.got.cif
#   From: 2010.05.17/outbox.cif.g08.bks.cpg/sg15_94_cif.got.tgz:186774.got - 2010.06.03 18:47:42.
