data_PCOD9277705
_publ_section_title
;
Structure prediction by ZEFSAII (Michael W. Deem and Ramdas Pophale) SiO2 
 PCOD9277705
Probable space group: C 2/C
;
_chemical_formula_sum "Si O2"
_cell_formula_units_Z 56
_cell_length_a 14.344500
_cell_length_b 20.254800
_cell_length_c 12.132480
_cell_angle_alpha 90.000000
_cell_angle_beta 49.676815
_cell_angle_gamma 90.000000
_cell_volume 2687.506799
_symmetry_space_group_name_H-M "C 2/C"
_symmetry_group_IT_number 15
_symmetry_cell_setting 'monoclinic'
loop_
_space_group_symop_operation_xyz
x,y,z
-x,y,1/2-z
-x,-y,-z
x,-y,1/2+z
1/2+x,1/2+y,z
1/2-x,1/2+y,1/2-z
1/2-x,1/2-y,-z
1/2+x,1/2-y,1/2+z
loop_
_atom_site_type_symbol
_atom_site_label
_atom_site_fract_x
_atom_site_fract_y
_atom_site_fract_z
Si Si1 0.138683 0.908851 0.119972
Si Si2 0.108637 0.190228 0.439682
Si Si3 0.360315 0.730328 0.530124
Si Si4 0.958883 0.443370 0.115060
Si Si5 0.810894 0.156129 0.360775
Si Si6 0.705755 0.036299 0.560111
Si Si7 0.795019 0.669494 0.674732
O O1 0.195767 0.871125 0.181292
O O2 0.000000 0.933031 0.250000
O O3 0.126959 0.857378 0.028129
O O4 0.234608 0.966117 0.014691
O O5 0.138480 0.152913 0.301465
O O6 0.185658 0.257807 0.391018
O O7 0.972027 0.216495 0.524581
O O8 0.317740 0.805530 0.556795
O O9 0.380485 0.704907 0.391503
O O10 0.250016 0.687468 0.667642
O O11 0.837770 0.462413 0.279353
O O12 0.916287 0.375465 0.090253
O O13 0.079374 0.442429 0.097866
O O14 0.000000 0.500000 0.000000
O O15 0.799728 0.088990 0.436914
#
# Coordination Sequence:
#
# PCOD9277705 Si02
#       7
#     8   8   8   8   8   8   8
#     4  12  26  45  65  94 143 186 230 275 336 415
#     4  11  24  40  68  97 131 178 230 280 338 409
#     4  10  20  41  67  98 131 170 218 287 343 402
#     4  11  23  44  70  94 136 175 228 283 337 413
#     4  10  22  40  67  98 134 164 225 275 345 404
#     4  11  25  43  66 103 132 177 224 279 347 404
#     4  11  22  45  67  96 134 179 229 283 339 400
#
# _framework density 20.837156
#
# number of rings (size 3 to 8) (size 9 to 14) (size 15 to 20)
#    0.000    1.143    4.286    1.714    2.000    1.143 
#    0.000    2.143    0.000    0.000    0.000    0.000 
#    0.000    0.000    0.000    0.000    0.000    0.000 
#
# Total GULP energy -156131.884151 kJ/mol
# GULP energy per Si atom -5576.138720 kJ/mol
# Density = 2.078973 g / cm^3
# Si number density = 20.837156 Si / 1000 Ang^3
#
#
#
# Elastic Constant Matrix: (Units=GPa)
#
#
# Indices 1 2 3 4 5 6 
#
# 1 81.9867 19.1556 6.1180 0.0000 -0.2755 0.0000
# 2 19.1556 101.5025 44.6297 0.0000 -2.2964 0.0000
# 3 6.1180 44.6297 87.3290 0.0000 5.4786 0.0000
# 4 0.0000 0.0000 0.0000 24.6625 0.0000 1.2486
# 5 -0.2755 -2.2964 5.4786 0.0000 30.7922 0.0000
# 6 0.0000 0.0000 0.0000 1.2486 0.0000 19.5649
#
#
#
# Elastic Compliance Matrix: (Units=1/GPa)
#
#
# Indices 1 2 3 4 5 6 
#
# 1 0.012773 -0.002612 0.000450 0.000000 -0.000161 0.000000
# 2 -0.002612 0.013381 -0.006792 0.000000 0.002183 0.000000
# 3 0.000450 -0.006792 0.015091 0.000000 -0.003187 0.000000
# 4 0.000000 0.000000 0.000000 0.040679 0.000000 -0.002596
# 5 -0.000161 0.002183 -0.003187 0.000000 0.033204 0.000000
# 6 0.000000 0.000000 0.000000 -0.002596 0.000000 0.051278
#
#
# Mechanical properties :
#
#
# Convention : Reuss Voigt Hill
#
# Bulk Modulus (GPa) = 42.85189 45.62499 44.23844
# Shear Modulus (GPa) = 26.02913 28.39825 27.21369
#
# Velocity S-wave (km/s) = 3.53819 3.69571 3.61781
# Velocity P-wave (km/s) = 6.10750 6.33676 6.22318
#
# Compressibility (1/GPa) = 0.02333620
#
# Stress axis : x y z
#
# Youngs Moduli (GPa) = 78.28843 74.73382 66.26653
#
# Poissons Ratio (x) = 0.19522 -0.02983
# Poissons Ratio (y) = 0.20450 0.45010
# Poissons Ratio (z) = -0.03524 0.50761
#
# Static dielectric constant tensor:
#      x y z
#    x 1.953900 0.000000 0.019760 
#    y 0.000000 1.751890 0.000000 
#    z 0.019760 0.000000 1.801880 
# 
# From -- ./inp_files/98665.got.cif
#   From: 2010.05.17/outbox.cif.g08.bks.cpg/sg15_50_cif.got.tgz:98665.got - 2010.06.03 18:47:42.
