data_PCOD9277713
_publ_section_title
;
Structure prediction by ZEFSAII (Michael W. Deem and Ramdas Pophale) SiO2 
 PCOD9277713
Probable space group: C 2/C
;
_chemical_formula_sum "Si O2"
_cell_formula_units_Z 32
_cell_length_a 9.860873
_cell_length_b 9.956853
_cell_length_c 20.895443
_cell_angle_alpha 90.000000
_cell_angle_beta 41.443502
_cell_angle_gamma 90.000000
_cell_volume 1357.904066
_symmetry_space_group_name_H-M "C 2/C"
_symmetry_group_IT_number 15
_symmetry_cell_setting 'monoclinic'
loop_
_space_group_symop_operation_xyz
x,y,z
-x,y,1/2-z
-x,-y,-z
x,-y,1/2+z
1/2+x,1/2+y,z
1/2-x,1/2+y,1/2-z
1/2-x,1/2-y,-z
1/2+x,1/2-y,1/2+z
loop_
_atom_site_type_symbol
_atom_site_label
_atom_site_fract_x
_atom_site_fract_y
_atom_site_fract_z
Si Si1 0.215986 0.750246 0.087682
Si Si2 0.429874 0.376893 0.977299
Si Si3 0.555424 0.489787 0.796901
Si Si4 0.985916 0.459829 0.328210
O O1 0.095014 0.613743 0.146642
O O2 0.250000 0.750000 0.000000
O O3 0.436832 0.745368 0.043273
O O4 0.084918 0.878001 0.152532
O O5 0.000483 0.089090 0.118775
O O6 0.186522 0.376371 0.072772
O O7 0.500000 0.500000 0.000000
O O8 0.500000 0.417683 0.750000
O O9 0.791627 0.533588 0.718920
O O10 0.000000 0.411308 0.250000
#
# Coordination Sequence:
#
# PCOD9277713 Si02
#       4
#     8   8   8   8
#     4  11  20  42  73  99 135 185 230 283 353 399
#     4  10  20  41  68 100 142 180 229 291 338 411
#     4  12  25  40  69 106 140 181 232 289 344 411
#     4  11  20  41  70  96 140 184 232 280 340 418
#
# _framework density 23.565729999999999
#
# number of rings (size 3 to 8) (size 9 to 14) (size 15 to 20)
#    0.000    1.000   10.000    0.750    0.000    1.000 
#    0.000    5.000    0.000    0.000    0.000    0.000 
#    0.000    0.000    0.000    0.000    0.000    0.000 
#
# Total GULP energy -89626.712937 kJ/mol
# GULP energy per Si atom -5601.669559 kJ/mol
# Density = 2.351209 g / cm^3
# Si number density = 23.565730 Si / 1000 Ang^3
#
#
#
# Elastic Constant Matrix: (Units=GPa)
#
#
# Indices 1 2 3 4 5 6 
#
# 1 215.2850 14.0440 109.0547 0.0000 5.2388 0.0000
# 2 14.0440 63.3127 18.2460 0.0000 -5.2060 0.0000
# 3 109.0547 18.2460 189.2353 0.0000 -7.0064 0.0000
# 4 0.0000 0.0000 0.0000 18.2503 0.0000 -10.7460
# 5 5.2388 -5.2060 -7.0064 0.0000 52.6527 0.0000
# 6 0.0000 0.0000 0.0000 -10.7460 0.0000 31.9970
#
#
#
# Elastic Compliance Matrix: (Units=1/GPa)
#
#
# Indices 1 2 3 4 5 6 
#
# 1 0.006645 -0.000471 -0.003829 0.000000 -0.001217 0.000000
# 2 -0.000471 0.016383 -0.001253 0.000000 0.001500 0.000000
# 3 -0.003829 -0.001253 0.007659 0.000000 0.001276 0.000000
# 4 0.000000 0.000000 0.000000 0.068300 0.000000 0.022938
# 5 -0.001217 0.001500 0.001276 0.000000 0.019432 0.000000
# 6 0.000000 0.000000 0.000000 0.022938 0.000000 0.038956
#
#
# Mechanical properties :
#
#
# Convention : Reuss Voigt Hill
#
# Bulk Modulus (GPa) = 51.06661 83.39137 67.22899
# Shear Modulus (GPa) = 28.57010 42.34591 35.45801
#
# Velocity S-wave (km/s) = 3.48567 4.24362 3.88318
# Velocity P-wave (km/s) = 6.15766 7.71198 6.97823
#
# Compressibility (1/GPa) = 0.01958227
#
# Stress axis : x y z
#
# Youngs Moduli (GPa) = 150.48855 61.03732 130.56176
#
# Poissons Ratio (x) = 0.02872 0.49994
# Poissons Ratio (y) = 0.07081 0.16359
# Poissons Ratio (z) = 0.57625 0.07648
#
# Static dielectric constant tensor:
#      x y z
#    x 1.959960 0.000000 -0.001380 
#    y 0.000000 1.939650 0.000000 
#    z -0.001380 0.000000 1.884610 
# 
# From -- ./inp_files/194984.got.cif
#   From: 2010.05.17/outbox.cif.g08.bks.cpg/sg15_98_cif.got.tgz:194984.got - 2010.06.03 18:47:42.
