data_PCOD9277746
_publ_section_title
;
Structure prediction by ZEFSAII (Michael W. Deem and Ramdas Pophale) SiO2 
 PCOD9277746
Probable space group: C 2/C
;
_chemical_formula_sum "Si O2"
_cell_formula_units_Z 52
_cell_length_a 6.348972
_cell_length_b 30.141044
_cell_length_c 12.906846
_cell_angle_alpha 90.000000
_cell_angle_beta 99.531228
_cell_angle_gamma 90.000000
_cell_volume 2435.818065
_symmetry_space_group_name_H-M "C 2/C"
_symmetry_group_IT_number 15
_symmetry_cell_setting 'monoclinic'
loop_
_space_group_symop_operation_xyz
x,y,z
-x,y,1/2-z
-x,-y,-z
x,-y,1/2+z
1/2+x,1/2+y,z
1/2-x,1/2+y,1/2-z
1/2-x,1/2-y,-z
1/2+x,1/2-y,1/2+z
loop_
_atom_site_type_symbol
_atom_site_label
_atom_site_fract_x
_atom_site_fract_y
_atom_site_fract_z
Si Si1 0.303547 0.071893 0.923914
Si Si2 0.500000 0.896768 0.750000
Si Si3 0.381889 0.449828 0.888100
Si Si4 0.210551 0.384943 0.549907
Si Si5 0.847932 0.160416 0.638252
Si Si6 0.179129 0.207967 0.558259
Si Si7 0.500000 0.472139 0.250000
Si Si8 0.000000 0.691730 0.750000
O O1 0.166268 0.116805 0.930944
O O2 0.207563 0.054999 0.807317
O O3 0.227380 0.040672 0.010294
O O4 0.546494 0.086272 0.964838
O O5 0.698700 0.925636 0.806331
O O6 0.590872 0.874332 0.650763
O O7 0.586888 0.417035 0.911516
O O8 0.436537 0.495419 0.837184
O O9 0.267816 0.338414 0.497195
O O10 0.616954 0.165515 0.669029
O O11 0.000000 0.153632 0.750000
O O12 0.936636 0.200737 0.577528
O O13 0.250000 0.250000 0.500000
O O14 0.310744 0.215339 0.675389
#
# Coordination Sequence:
#
# PCOD9277746 Si02
#       8
#     8   4   8   8   8   8   4   4
#     4  11  23  40  68  96 130 185 229 276 357 411
#     4  10  22  44  69  91 134 184 225 274 359 422
#     4  11  23  45  64  96 137 173 228 292 340 416
#     4  11  22  44  70  94 135 185 222 284 356 409
#     4  10  20  41  68  94 135 178 223 276 341 407
#     4  11  24  43  69 105 134 178 232 287 342 418
#     4  12  24  44  63 101 136 176 235 293 344 408
#     4  10  22  44  64 100 140 172 224 281 339 406
#
# _framework density 21.348064999999998
#
# number of rings (size 3 to 8) (size 9 to 14) (size 15 to 20)
#    0.000    1.231    5.385    0.462    0.000    1.231 
#    9.692    0.000    0.000    0.000    0.000    0.000 
#    0.000    0.000    0.000    0.000    0.000    0.000 
#
# Total GULP energy -144816.339100 kJ/mol
# GULP energy per Si atom -5569.859196 kJ/mol
# Density = 2.129948 g / cm^3
# Si number density = 21.348065 Si / 1000 Ang^3
#
#
#
# Elastic Constant Matrix: (Units=GPa)
#
#
# Indices 1 2 3 4 5 6 
#
# 1 108.8175 40.8330 36.4331 0.0000 10.2864 0.0000
# 2 40.8330 74.5550 33.1694 0.0000 8.8844 0.0000
# 3 36.4331 33.1694 99.3590 0.0000 17.1745 0.0000
# 4 0.0000 0.0000 0.0000 -11.3559 0.0000 -30.7556
# 5 10.2864 8.8844 17.1745 0.0000 42.4453 0.0000
# 6 0.0000 0.0000 0.0000 -30.7556 0.0000 -4.8313
#
#
#
# Elastic Compliance Matrix: (Units=1/GPa)
#
#
# Indices 1 2 3 4 5 6 
#
# 1 0.012144 -0.005445 -0.002498 0.000000 -0.000792 0.000000
# 2 -0.005445 0.018257 -0.003941 0.000000 -0.000907 0.000000
# 3 -0.002498 -0.003941 0.012955 0.000000 -0.003812 0.000000
# 4 0.000000 0.000000 0.000000 0.005422 0.000000 -0.034516
# 5 -0.000792 -0.000907 -0.003812 0.000000 0.025484 0.000000
# 6 0.000000 0.000000 0.000000 -0.034516 0.000000 0.012745
#
#
# Mechanical properties :
#
#
# Convention : Reuss Voigt Hill
#
# Bulk Modulus (GPa) = 51.05557 55.95584 53.50571
# Shear Modulus (GPa) = 42.62364 16.73801 29.68083
#
# Velocity S-wave (km/s) = 4.47319 2.80313 3.73276
# Velocity P-wave (km/s) = 7.11666 6.06175 6.61028
#
# Compressibility (1/GPa) = 0.01958650
#
# Stress axis : x y z
#
# Youngs Moduli (GPa) = 82.34230 54.77391 77.18942
#
# Poissons Ratio (x) = 0.29827 0.19284
# Poissons Ratio (y) = 0.44839 0.30422
# Poissons Ratio (z) = 0.20571 0.21588
#
# Static dielectric constant tensor:
#      x y z
#    x 1.296660 0.000000 0.027720 
#    y 0.000000 1.774920 0.000000 
#    z 0.027720 0.000000 1.808640 
# 
# From -- ./inp_files/130900.got.cif
#   From: 2010.05.17/outbox.cif.g08.bks.cpg/sg15_66_cif.got.tgz:130900.got - 2010.06.03 18:47:42.
