data_PCOD9277622
_publ_section_title
;
Structure prediction by ZEFSAII (Michael W. Deem and Ramdas Pophale) SiO2 
 PCOD9277622
Probable space group: C 2/C
;
_chemical_formula_sum "Si O2"
_cell_formula_units_Z 56
_cell_length_a 18.282669
_cell_length_b 19.223824
_cell_length_c 13.075806
_cell_angle_alpha 90.000000
_cell_angle_beta 32.370607
_cell_angle_gamma 90.000000
_cell_volume 2460.486612
_symmetry_space_group_name_H-M "C 2/C"
_symmetry_group_IT_number 15
_symmetry_cell_setting 'monoclinic'
loop_
_space_group_symop_operation_xyz
x,y,z
-x,y,1/2-z
-x,-y,-z
x,-y,1/2+z
1/2+x,1/2+y,z
1/2-x,1/2+y,1/2-z
1/2-x,1/2-y,-z
1/2+x,1/2-y,1/2+z
loop_
_atom_site_type_symbol
_atom_site_label
_atom_site_fract_x
_atom_site_fract_y
_atom_site_fract_z
Si Si1 0.147357 0.597031 0.610118
Si Si2 0.833837 0.652652 0.691462
Si Si3 0.187499 0.188920 0.241254
Si Si4 0.142648 0.670792 0.251200
Si Si5 0.521541 0.533798 0.584662
Si Si6 0.238900 0.963192 0.978905
Si Si7 0.406050 0.326772 0.166480
O O1 0.169393 0.606987 0.704329
O O2 0.254505 0.640795 0.416491
O O3 0.152372 0.513633 0.597796
O O4 0.000000 0.623964 0.750000
O O5 0.789855 0.728515 0.787415
O O6 0.724737 0.638467 0.731603
O O7 0.986257 0.652283 0.464914
O O8 0.265913 0.167588 0.253470
O O9 0.023196 0.185490 0.442887
O O10 0.205578 0.616011 0.095867
O O11 0.133736 0.753466 0.235265
O O12 0.500000 0.500000 0.500000
O O13 0.675690 0.523614 0.440170
O O14 0.485570 0.616131 0.637886
O O15 0.395256 0.509496 0.801922
#
# Coordination Sequence:
#
# PCOD9277622 Si02
#       7
#     8   8   8   8   8   8   8
#     4  12  24  40  61  96 137 179 224 284 350 406
#     4  10  22  38  65 100 127 174 225 275 343 405
#     4  10  20  41  66  92 134 175 224 282 338 407
#     4  10  21  42  63  95 131 172 225 273 336 408
#     4  11  23  44  68  98 135 174 224 282 333 403
#     4  11  26  40  66  98 131 181 229 267 339 412
#     4  10  21  39  71  92 126 179 218 281 340 390
#
# _framework density 22.759725
#
# number of rings (size 3 to 8) (size 9 to 14) (size 15 to 20)
#    0.000    1.429    2.857    2.143    0.000    4.000 
#    0.000    0.000    3.143    0.000    0.000    0.000 
#    0.000    0.000    0.000    0.000    0.000    0.000 
#
# Total GULP energy -155939.568319 kJ/mol
# GULP energy per Si atom -5569.270297 kJ/mol
# Density = 2.270792 g / cm^3
# Si number density = 22.759725 Si / 1000 Ang^3
#
#
#
# Elastic Constant Matrix: (Units=GPa)
#
#
# Indices 1 2 3 4 5 6 
#
# 1 45.3497 14.3951 33.9153 -0.0003 -21.1900 0.0000
# 2 14.3951 60.9183 42.9952 -0.0003 2.7914 0.0001
# 3 33.9153 42.9952 71.6008 -0.0009 -25.9529 0.0004
# 4 -0.0003 -0.0003 -0.0009 28.2428 0.0005 -1.8310
# 5 -21.1900 2.7914 -25.9529 0.0005 35.5826 -0.0001
# 6 0.0000 0.0001 0.0004 -1.8310 -0.0001 25.8657
#
#
#
# Elastic Compliance Matrix: (Units=1/GPa)
#
#
# Indices 1 2 3 4 5 6 
#
# 1 0.038084 -0.000472 -0.012944 0.000000 0.013276 0.000000
# 2 -0.000472 0.045050 -0.038350 0.000000 -0.031787 0.000000
# 3 -0.012944 -0.038350 0.056309 0.000001 0.036370 -0.000001
# 4 0.000000 0.000000 0.000001 0.035571 0.000000 0.002518
# 5 0.013276 -0.031787 0.036370 0.000000 0.065031 0.000000
# 6 0.000000 0.000000 -0.000001 0.002518 0.000000 0.038839
#
#
# Mechanical properties :
#
#
# Convention : Reuss Voigt Hill
#
# Bulk Modulus (GPa) = 27.84609 40.05334 33.94972
# Shear Modulus (GPa) = 12.67790 23.70910 18.19350
#
# Velocity S-wave (km/s) = 2.36271 3.23106 2.83039
# Velocity P-wave (km/s) = 4.43899 5.61749 5.06265
#
# Compressibility (1/GPa) = 0.03591168
#
# Stress axis : x y z
#
# Youngs Moduli (GPa) = 26.25764 22.19739 17.75906
#
# Poissons Ratio (x) = 0.01048 0.22987
# Poissons Ratio (y) = 0.01239 0.68106
# Poissons Ratio (z) = 0.33988 0.85127
#
# Static dielectric constant tensor:
#      x y z
#    x 2.032650 0.000000 -0.048590 
#    y 0.000000 1.951880 0.000000 
#    z -0.048590 0.000000 1.971520 
# 
# From -- ./inp_files/169103.got.cif
#   From: 2010.05.17/outbox.cif.g08.bks.cpg/sg15_85_cif.got.tgz:169103.got - 2010.06.03 18:47:42.
