data_PCOD9277569
_publ_section_title
;
Structure prediction by ZEFSAII (Michael W. Deem and Ramdas Pophale) SiO2 
 PCOD9277569
Probable space group: C 2/C
;
_chemical_formula_sum "Si O2"
_cell_formula_units_Z 60
_cell_length_a 18.584387
_cell_length_b 25.131814
_cell_length_c 11.210443
_cell_angle_alpha 90.000000
_cell_angle_beta 31.286127
_cell_angle_gamma 90.000000
_cell_volume 2719.088753
_symmetry_space_group_name_H-M "C 2/C"
_symmetry_group_IT_number 15
_symmetry_cell_setting 'monoclinic'
loop_
_space_group_symop_operation_xyz
x,y,z
-x,y,1/2-z
-x,-y,-z
x,-y,1/2+z
1/2+x,1/2+y,z
1/2-x,1/2+y,1/2-z
1/2-x,1/2-y,-z
1/2+x,1/2-y,1/2+z
loop_
_atom_site_type_symbol
_atom_site_label
_atom_site_fract_x
_atom_site_fract_y
_atom_site_fract_z
Si Si1 0.000000 0.131567 0.250000
Si Si2 0.193648 0.895482 0.149519
Si Si3 0.894843 0.541045 0.511741
Si Si4 0.539581 0.754392 0.558652
Si Si5 0.872035 0.573028 0.019968
Si Si6 0.336091 0.295809 0.153681
Si Si7 0.071191 0.368488 0.857013
Si Si8 0.444481 0.560469 0.094374
O O1 0.026197 0.091689 0.323442
O O2 0.885393 0.172517 0.465969
O O3 0.223047 0.840512 0.173984
O O4 0.031098 0.906473 0.371519
O O5 0.251479 0.940707 0.156276
O O6 0.290957 0.892669 0.898274
O O7 0.884819 0.482196 0.578477
O O8 0.000000 0.541027 0.250000
O O9 0.947763 0.588694 0.518428
O O10 0.500000 0.735325 0.750000
O O11 0.464148 0.726123 0.552746
O O12 0.706855 0.756641 0.313273
O O13 0.478275 0.814267 0.630803
O O14 0.000000 0.569940 0.750000
O O15 0.889655 0.629101 0.060924
O O16 0.719638 0.566197 0.184751
O O17 0.500000 0.500000 0.000000
#
# Coordination Sequence:
#
# PCOD9277569 Si02
#       8
#     4   8   8   8   8   8   8   8
#     4  10  28  50  74  96 148 188 228 292 366 432
#     4  10  20  41  65  93 137 176 232 282 356 411
#     4   9  17  37  61  92 130 172 221 272 342 415
#     4  12  24  44  75 106 139 182 244 306 370 429
#     4  11  25  39  62 103 141 182 241 280 340 439
#     4  11  25  47  72 103 138 187 237 303 368 435
#     4  11  22  39  68  98 134 186 230 294 354 413
#     4  11  24  45  68 101 141 188 234 285 348 420
#
# _framework density 22.066216000000001
#
# number of rings (size 3 to 8) (size 9 to 14) (size 15 to 20)
#    0.000    1.333    4.000    1.200    1.867    4.267 
#    1.200    0.000    0.000    0.000    0.000    0.000 
#    0.000    0.000    0.000    0.000    0.000    0.000 
#
# Total GULP energy -167099.765760 kJ/mol
# GULP energy per Si atom -5569.992192 kJ/mol
# Density = 2.201599 g / cm^3
# Si number density = 22.066216 Si / 1000 Ang^3
#
#
#
# Elastic Constant Matrix: (Units=GPa)
#
#
# Indices 1 2 3 4 5 6 
#
# 1 56.7977 20.8960 41.8595 0.0005 -12.2256 -0.0002
# 2 20.8960 44.5228 14.7783 0.0015 -0.7526 -0.0010
# 3 41.8595 14.7783 123.2110 0.0011 -23.3679 -0.0010
# 4 0.0005 0.0015 0.0011 20.3326 -0.0001 -3.2432
# 5 -12.2256 -0.7526 -23.3679 -0.0001 29.1297 0.0001
# 6 -0.0002 -0.0010 -0.0010 -3.2432 0.0001 34.2227
#
#
#
# Elastic Compliance Matrix: (Units=1/GPa)
#
#
# Indices 1 2 3 4 5 6 
#
# 1 0.028054 -0.010694 -0.007157 0.000001 0.005757 0.000000
# 2 -0.010694 0.027562 -0.000459 -0.000002 -0.004144 0.000001
# 3 -0.007157 -0.000459 0.011831 0.000000 0.006475 0.000000
# 4 0.000001 -0.000002 0.000000 0.049937 0.000000 0.004732
# 5 0.005757 -0.004144 0.006475 0.000000 0.041833 0.000000
# 6 0.000000 0.000001 0.000000 0.004732 0.000000 0.029669
#
#
# Mechanical properties :
#
#
# Convention : Reuss Voigt Hill
#
# Bulk Modulus (GPa) = 32.43802 42.17768 37.30785
# Shear Modulus (GPa) = 21.20630 26.53687 23.87158
#
# Velocity S-wave (km/s) = 3.10341 3.47162 3.29267
# Velocity P-wave (km/s) = 5.25107 5.93508 5.60352
#
# Compressibility (1/GPa) = 0.03082803
#
# Stress axis : x y z
#
# Youngs Moduli (GPa) = 35.64533 36.28238 84.52670
#
# Poissons Ratio (x) = 0.38800 0.60492
# Poissons Ratio (y) = 0.38119 0.03877
# Poissons Ratio (z) = 0.25510 0.01664
#
# Static dielectric constant tensor:
#      x y z
#    x 1.905880 0.000000 -0.041170 
#    y 0.000000 1.844310 0.000000 
#    z -0.041170 0.000000 1.854880 
# 
# From -- ./inp_files/108404.got.cif
#   From: 2010.05.17/outbox.cif.g08.bks.cpg/sg15_55_cif.got.tgz:108404.got - 2010.06.03 18:47:42.
