data_PCOD9277700
_publ_section_title
;
Structure prediction by ZEFSAII (Michael W. Deem and Ramdas Pophale) SiO2 
 PCOD9277700
Probable space group: C 2/C
;
_chemical_formula_sum "Si O2"
_cell_formula_units_Z 48
_cell_length_a 11.754418
_cell_length_b 12.529054
_cell_length_c 14.103800
_cell_angle_alpha 90.000000
_cell_angle_beta 74.324655
_cell_angle_gamma 90.000000
_cell_volume 1999.840170
_symmetry_space_group_name_H-M "C 2/C"
_symmetry_group_IT_number 15
_symmetry_cell_setting 'monoclinic'
loop_
_space_group_symop_operation_xyz
x,y,z
-x,y,1/2-z
-x,-y,-z
x,-y,1/2+z
1/2+x,1/2+y,z
1/2-x,1/2+y,1/2-z
1/2-x,1/2-y,-z
1/2+x,1/2-y,1/2+z
loop_
_atom_site_type_symbol
_atom_site_label
_atom_site_fract_x
_atom_site_fract_y
_atom_site_fract_z
Si Si1 0.408279 0.696770 0.855724
Si Si2 0.404494 0.060667 0.960684
Si Si3 0.000000 0.102423 0.250000
Si Si4 0.000000 0.427873 0.250000
Si Si5 0.103523 0.226745 0.941190
Si Si6 0.360963 0.486899 0.955845
Si Si7 0.697003 0.763999 0.262403
O O1 0.500000 0.661062 0.750000
O O2 0.498119 0.767748 0.896686
O O3 0.371352 0.614204 0.947707
O O4 0.289988 0.732883 0.828017
O O5 0.425910 0.019247 0.849639
O O6 0.404943 0.190767 0.969424
O O7 0.276078 0.034171 0.026923
O O8 0.500000 0.000000 0.000000
O O9 0.063576 0.041260 0.152634
O O10 0.106102 0.167007 0.276239
O O11 0.103844 0.361770 0.280281
O O12 0.221564 0.236115 0.850781
O O13 0.100718 0.101700 0.974264
#
# Coordination Sequence:
#
# PCOD9277700 Si02
#       7
#     8   8   4   4   8   8   8
#     4  10  23  41  65 101 141 175 222 285 345 402
#     4  12  26  46  70 103 139 179 232 287 339 409
#     4  11  22  38  72  99 124 184 230 275 342 407
#     4  11  22  44  70  97 132 180 228 279 342 407
#     4  11  22  43  68  97 135 180 227 281 343 408
#     4  12  22  43  68 100 134 178 234 274 335 421
#     4  10  20  41  67  97 133 177 229 283 338 405
#
# _framework density 24.001918
#
# number of rings (size 3 to 8) (size 9 to 14) (size 15 to 20)
#    0.000    1.000    4.167    4.000    0.000    0.000 
#    4.500    9.167    0.000    0.000    0.000    0.000 
#    0.000    0.000    0.000    0.000    0.000    0.000 
#
# Total GULP energy -133771.981962 kJ/mol
# GULP energy per Si atom -5573.832582 kJ/mol
# Density = 2.394729 g / cm^3
# Si number density = 24.001918 Si / 1000 Ang^3
#
#
#
# Elastic Constant Matrix: (Units=GPa)
#
#
# Indices 1 2 3 4 5 6 
#
# 1 187.3249 5.6859 33.6251 0.0000 18.3725 0.0000
# 2 5.6859 27.2104 6.0652 0.0000 -0.3660 0.0000
# 3 33.6251 6.0652 93.8594 0.0000 -25.7245 0.0000
# 4 0.0000 0.0000 0.0000 -8.1374 0.0000 8.6133
# 5 18.3725 -0.3660 -25.7245 0.0000 29.0633 0.0000
# 6 0.0000 0.0000 0.0000 8.6133 0.0000 8.8751
#
#
#
# Elastic Compliance Matrix: (Units=1/GPa)
#
#
# Indices 1 2 3 4 5 6 
#
# 1 0.007114 -0.000502 -0.004952 0.000000 -0.008886 0.000000
# 2 -0.000502 0.037430 -0.002670 0.000000 -0.001575 0.000000
# 3 -0.004952 -0.002670 0.017757 0.000000 0.018814 0.000000
# 4 0.000000 0.000000 0.000000 -0.060619 0.000000 0.058830
# 5 -0.008886 -0.001575 0.018814 0.000000 0.056658 0.000000
# 6 0.000000 0.000000 0.000000 0.058830 0.000000 0.055580
#
#
# Mechanical properties :
#
#
# Convention : Reuss Voigt Hill
#
# Bulk Modulus (GPa) = 21.71455 44.34970 33.03213
# Shear Modulus (GPa) = 34.35990 23.49478 28.92734
#
# Velocity S-wave (km/s) = 3.78769 3.13209 3.47538
# Velocity P-wave (km/s) = 5.30993 5.62118 5.46777
#
# Compressibility (1/GPa) = 0.04605207
#
# Stress axis : x y z
#
# Youngs Moduli (GPa) = 140.56937 26.71682 56.31565
#
# Poissons Ratio (x) = 0.01342 0.27885
# Poissons Ratio (y) = 0.07061 0.15038
# Poissons Ratio (z) = 0.69604 0.07134
#
# Static dielectric constant tensor:
#      x y z
#    x 1.957740 0.000000 0.043890 
#    y 0.000000 2.055240 0.000000 
#    z 0.043890 0.000000 1.927750 
# 
# From -- ./inp_files/143474.got.cif
#   From: 2010.05.17/outbox.cif.g08.bks.cpg/sg15_72_cif.got.tgz:143474.got - 2010.06.03 18:47:42.
