data_PCOD9277476
_publ_section_title
;
Structure prediction by ZEFSAII (Michael W. Deem and Ramdas Pophale) SiO2 
 PCOD9277476
Probable space group: C 2/C
;
_chemical_formula_sum "Si O2"
_cell_formula_units_Z 60
_cell_length_a 17.341409
_cell_length_b 28.959306
_cell_length_c 12.360096
_cell_angle_alpha 90.000000
_cell_angle_beta 149.948238
_cell_angle_gamma 90.000000
_cell_volume 3108.445375
_symmetry_space_group_name_H-M "C 2/C"
_symmetry_group_IT_number 15
_symmetry_cell_setting 'monoclinic'
loop_
_space_group_symop_operation_xyz
x,y,z
-x,y,1/2-z
-x,-y,-z
x,-y,1/2+z
1/2+x,1/2+y,z
1/2-x,1/2+y,1/2-z
1/2-x,1/2-y,-z
1/2+x,1/2-y,1/2+z
loop_
_atom_site_type_symbol
_atom_site_label
_atom_site_fract_x
_atom_site_fract_y
_atom_site_fract_z
Si Si1 0.885794 0.457764 0.331889
Si Si2 0.619731 0.309175 0.798848
Si Si3 0.081772 0.294528 0.235353
Si Si4 0.306373 0.441423 0.192035
Si Si5 0.605570 0.611094 0.114029
Si Si6 0.500000 0.888675 0.750000
Si Si7 0.147736 0.961508 0.855376
Si Si8 0.420521 0.134167 0.387304
O O1 0.750180 0.456042 0.256825
O O2 0.000000 0.500000 0.500000
O O3 0.981899 0.410597 0.457186
O O4 0.801822 0.460404 0.114875
O O5 0.500000 0.309110 0.750000
O O6 0.634941 0.257231 0.768718
O O7 0.579846 0.343860 0.655883
O O8 0.772294 0.324006 0.049151
O O9 0.000000 0.288037 0.250000
O O10 0.977515 0.321749 0.024729
O O11 0.446203 0.405529 0.368566
O O12 0.366420 0.486208 0.203031
O O13 0.151448 0.420126 0.952330
O O14 0.656120 0.571570 0.261351
O O15 0.743364 0.622239 0.198446
O O16 0.537183 0.860199 0.687136
O O17 0.000000 0.948635 0.750000
#
# Coordination Sequence:
#
# PCOD9277476 Si02
#       8
#     8   8   8   8   8   4   8   8
#     4  11  24  41  60  87 126 175 214 264 314 379
#     4  10  22  36  66 100 136 161 199 263 329 389
#     4  10  20  41  64 103 130 166 203 256 333 389
#     4  11  25  41  60  88 122 171 222 256 318 372
#     4  12  24  39  64  97 125 166 212 272 323 382
#     4  10  26  46  62  88 122 180 216 264 310 386
#     4  12  24  37  61  92 129 165 214 268 322 372
#     4  11  24  41  67  90 131 166 219 261 319 387
#
# _framework density 19.302253
#
# number of rings (size 3 to 8) (size 9 to 14) (size 15 to 20)
#    0.000    1.067    2.667    4.000    7.467    1.067 
#    0.000    0.000    0.000    3.200    0.000    0.000 
#    0.000    0.000    0.000    0.000    0.000    0.000 
#
# Total GULP energy -167556.019852 kJ/mol
# GULP energy per Si atom -5585.200662 kJ/mol
# Density = 1.925832 g / cm^3
# Si number density = 19.302253 Si / 1000 Ang^3
#
#
#
# Elastic Constant Matrix: (Units=GPa)
#
#
# Indices 1 2 3 4 5 6 
#
# 1 88.8946 26.2048 23.4117 0.0000 5.1968 0.0000
# 2 26.2048 85.6842 40.2869 0.0000 -11.8430 0.0000
# 3 23.4117 40.2869 114.3673 0.0000 3.1106 0.0000
# 4 0.0000 0.0000 0.0000 22.2669 0.0000 -4.6332
# 5 5.1968 -11.8430 3.1106 0.0000 30.2468 0.0000
# 6 0.0000 0.0000 0.0000 -4.6332 0.0000 39.2455
#
#
#
# Elastic Compliance Matrix: (Units=1/GPa)
#
#
# Indices 1 2 3 4 5 6 
#
# 1 0.012920 -0.003902 -0.001172 0.000000 -0.003627 0.000000
# 2 -0.003902 0.016343 -0.005165 0.000000 0.007601 0.000000
# 3 -0.001172 -0.005165 0.010883 0.000000 -0.002940 0.000000
# 4 0.000000 0.000000 0.000000 0.046041 0.000000 0.005435
# 5 -0.003627 0.007601 -0.002940 0.000000 0.036963 0.000000
# 6 0.000000 0.000000 0.000000 0.005435 0.000000 0.026122
#
#
# Mechanical properties :
#
#
# Convention : Reuss Voigt Hill
#
# Bulk Modulus (GPa) = 50.84099 52.08364 51.46231
# Shear Modulus (GPa) = 28.35990 31.62137 29.99064
#
# Velocity S-wave (km/s) = 3.83724 4.05189 3.94602
# Velocity P-wave (km/s) = 6.78448 6.99515 6.89062
#
# Compressibility (1/GPa) = 0.01966917
#
# Stress axis : x y z
#
# Youngs Moduli (GPa) = 77.39886 61.18822 91.88642
#
# Poissons Ratio (x) = 0.23874 0.10767
# Poissons Ratio (y) = 0.30199 0.47459
# Poissons Ratio (z) = 0.09069 0.31604
#
# Static dielectric constant tensor:
#      x y z
#    x 1.809440 0.000000 0.060300 
#    y 0.000000 1.672120 0.000000 
#    z 0.060300 0.000000 1.712910 
# 
# From -- ./inp_files/108448.got.cif
#   From: 2010.05.17/outbox.cif.g08.bks.cpg/sg15_55_cif.got.tgz:108448.got - 2010.06.03 18:47:42.
