data_PCOD9277243
_publ_section_title
;
Structure prediction by ZEFSAII (Michael W. Deem and Ramdas Pophale) SiO2 
 PCOD9277243
Probable space group: C 2/C
;
_chemical_formula_sum "Si O2"
_cell_formula_units_Z 36
_cell_length_a 8.506106
_cell_length_b 26.679946
_cell_length_c 7.659937
_cell_angle_alpha 90.000000
_cell_angle_beta 104.971720
_cell_angle_gamma 90.000000
_cell_volume 1679.353381
_symmetry_space_group_name_H-M "C 2/C"
_symmetry_group_IT_number 15
_symmetry_cell_setting 'monoclinic'
loop_
_space_group_symop_operation_xyz
x,y,z
-x,y,1/2-z
-x,-y,-z
x,-y,1/2+z
1/2+x,1/2+y,z
1/2-x,1/2+y,1/2-z
1/2-x,1/2-y,-z
1/2+x,1/2-y,1/2+z
loop_
_atom_site_type_symbol
_atom_site_label
_atom_site_fract_x
_atom_site_fract_y
_atom_site_fract_z
Si Si1 0.155683 0.842794 0.606333
Si Si2 0.000000 0.365841 0.750000
Si Si3 0.365441 0.102511 0.577175
Si Si4 0.324577 0.304324 0.493283
Si Si5 0.019702 0.942064 0.049361
O O1 0.346778 0.836335 0.619557
O O2 0.158554 0.827348 0.808814
O O3 0.009384 0.810831 0.474770
O O4 0.102528 0.900800 0.567980
O O5 0.069009 0.395493 0.602276
O O6 0.500000 0.083517 0.750000
O O7 0.305708 0.157821 0.627576
O O8 0.200304 0.071706 0.540554
O O9 0.250000 0.250000 0.500000
O O10 0.000000 0.934995 0.250000
O O11 0.000000 0.000000 0.000000
#
# Coordination Sequence:
#
# PCOD9277243 Si02
#       5
#     8   4   8   8   8
#     4   9  20  39  62  94 139 173 228 282 340 410
#     4  10  20  40  70  90 144 186 214 294 358 400
#     4  10  22  41  66  97 138 176 228 292 347 424
#     4   9  19  36  69  97 130 187 227 281 347 404
#     4  11  25  43  72  99 132 186 239 291 357 416
#
# _framework density 21.436823
#
# number of rings (size 3 to 8) (size 9 to 14) (size 15 to 20)
#    0.000    2.222    0.000    2.667   12.444    0.000 
#    2.000    6.667   39.111    0.000    0.000    0.000 
#    0.000    0.000    0.000    0.000    0.000    0.000 
#
# Total GULP energy -100251.407064 kJ/mol
# GULP energy per Si atom -5569.522615 kJ/mol
# Density = 2.138803 g / cm^3
# Si number density = 21.436823 Si / 1000 Ang^3
#
#
#
# Elastic Constant Matrix: (Units=GPa)
#
#
# Indices 1 2 3 4 5 6 
#
# 1 174.2424 38.8134 34.7267 0.0000 15.2333 0.0000
# 2 38.8134 144.1123 17.4423 0.0000 20.1601 0.0000
# 3 34.7267 17.4423 89.9467 0.0000 -4.2311 0.0000
# 4 0.0000 0.0000 0.0000 -8.7007 0.0000 -16.2221
# 5 15.2333 20.1601 -4.2311 0.0000 40.8570 0.0000
# 6 0.0000 0.0000 0.0000 -16.2221 0.0000 6.5683
#
#
#
# Elastic Compliance Matrix: (Units=1/GPa)
#
#
# Indices 1 2 3 4 5 6 
#
# 1 0.006683 -0.001203 -0.002448 0.000000 -0.002152 0.000000
# 2 -0.001203 0.007914 -0.001239 0.000000 -0.003585 0.000000
# 3 -0.002448 -0.001239 0.012435 0.000000 0.002812 0.000000
# 4 0.000000 0.000000 0.000000 -0.020506 0.000000 -0.050646
# 5 -0.002152 -0.003585 0.002812 0.000000 0.027338 0.000000
# 6 0.000000 0.000000 0.000000 -0.050646 0.000000 0.027164
#
#
# Mechanical properties :
#
#
# Convention : Reuss Voigt Hill
#
# Bulk Modulus (GPa) = 57.96045 65.58513 61.77279
# Shear Modulus (GPa) = 65.30868 28.89952 47.10410
#
# Velocity S-wave (km/s) = 5.52556 3.67567 4.69267
# Velocity P-wave (km/s) = 8.23441 6.97675 7.63153
#
# Compressibility (1/GPa) = 0.01725315
#
# Stress axis : x y z
#
# Youngs Moduli (GPa) = 149.63163 126.35146 80.41510
#
# Poissons Ratio (x) = 0.15195 0.19687
# Poissons Ratio (y) = 0.17995 0.09964
# Poissons Ratio (z) = 0.36633 0.15656
#
# Static dielectric constant tensor:
#      x y z
#    x 1.890180 0.000000 0.041050 
#    y 0.000000 1.800570 0.000000 
#    z 0.041050 0.000000 1.809160 
# 
# From -- ./inp_files/24642.got.cif
#   From: 2010.05.17/outbox.cif.g08.bks.cpg/sg15_13_cif.got.tgz:24642.got - 2010.06.03 18:47:42.
