data_PCOD9277392
_publ_section_title
;
Structure prediction by ZEFSAII (Michael W. Deem and Ramdas Pophale) SiO2 
 PCOD9277392
Probable space group: C 2/C
;
_chemical_formula_sum "Si O2"
_cell_formula_units_Z 56
_cell_length_a 21.520740
_cell_length_b 8.897968
_cell_length_c 13.828884
_cell_angle_alpha 90.000000
_cell_angle_beta 89.707152
_cell_angle_gamma 90.000000
_cell_volume 2648.070243
_symmetry_space_group_name_H-M "C 2/C"
_symmetry_group_IT_number 15
_symmetry_cell_setting 'monoclinic'
loop_
_space_group_symop_operation_xyz
x,y,z
-x,y,1/2-z
-x,-y,-z
x,-y,1/2+z
1/2+x,1/2+y,z
1/2-x,1/2+y,1/2-z
1/2-x,1/2-y,-z
1/2+x,1/2-y,1/2+z
loop_
_atom_site_type_symbol
_atom_site_label
_atom_site_fract_x
_atom_site_fract_y
_atom_site_fract_z
Si Si1 0.707828 0.071970 0.282772
Si Si2 0.353863 0.995599 0.412056
Si Si3 0.201551 0.683255 0.923089
Si Si4 0.381081 0.551951 0.035659
Si Si5 0.088220 0.776487 0.326705
Si Si6 0.453322 0.756525 0.886217
Si Si7 0.197771 0.812741 0.575966
O O1 0.694973 0.052614 0.169361
O O2 0.647029 0.164293 0.321363
O O3 0.766889 0.157891 0.324497
O O4 0.718611 0.905723 0.327111
O O5 0.330559 0.051681 0.514901
O O6 0.416912 0.086018 0.394898
O O7 0.353450 0.816778 0.411140
O O8 0.154438 0.817928 0.906592
O O9 0.250000 0.750000 0.000000
O O10 0.400407 0.425471 0.111334
O O11 0.432249 0.640622 0.970485
O O12 0.333546 0.463539 0.964756
O O13 0.070528 0.811252 0.215677
O O14 0.026067 0.710229 0.376006
O O15 0.250000 0.750000 0.500000
#
# Coordination Sequence:
#
# PCOD9277392 Si02
#       7
#     8   8   8   8   8   8   8
#     4  11  23  37  61  87 117 160 189 240 299 351
#     4  10  23  38  58  86 115 156 197 236 296 343
#     4  11  21  38  53  87 124 149 190 241 286 353
#     4  11  21  36  62  87 120 153 195 242 297 344
#     4  10  20  41  62  83 119 160 199 240 297 341
#     4   9  22  40  60  87 117 154 204 249 282 346
#     4  12  21  39  59  86 121 153 194 239 293 361
#
# _framework density 21.147476000000001
#
# number of rings (size 3 to 8) (size 9 to 14) (size 15 to 20)
#    0.000    1.429    4.286    0.429    2.000    2.286 
#    0.000    7.857    0.000    3.429    0.000    0.000 
#    0.000    0.000    0.000    0.000    0.000    0.000 
#
# Total GULP energy -156281.299403 kJ/mol
# GULP energy per Si atom -5581.474979 kJ/mol
# Density = 2.109934 g / cm^3
# Si number density = 21.147476 Si / 1000 Ang^3
#
#
#
# Elastic Constant Matrix: (Units=GPa)
#
#
# Indices 1 2 3 4 5 6 
#
# 1 30.2092 19.5176 1.3528 0.0000 2.7567 0.0000
# 2 19.5176 114.2528 30.9238 0.0000 1.2832 0.0000
# 3 1.3528 30.9238 58.4273 0.0000 -2.8530 0.0000
# 4 0.0000 0.0000 0.0000 32.0222 0.0000 1.8455
# 5 2.7567 1.2832 -2.8530 0.0000 20.5323 0.0000
# 6 0.0000 0.0000 0.0000 1.8455 0.0000 15.0542
#
#
#
# Elastic Compliance Matrix: (Units=1/GPa)
#
#
# Indices 1 2 3 4 5 6 
#
# 1 0.038010 -0.007179 0.002710 0.000000 -0.004278 0.000000
# 2 -0.007179 0.011612 -0.006009 0.000000 -0.000597 0.000000
# 3 0.002710 -0.006009 0.020372 0.000000 0.002842 0.000000
# 4 0.000000 0.000000 0.000000 0.031450 0.000000 -0.003855
# 5 -0.004278 -0.000597 0.002842 0.000000 0.049710 0.000000
# 6 0.000000 0.000000 0.000000 -0.003855 0.000000 0.066899
#
#
# Mechanical properties :
#
#
# Convention : Reuss Voigt Hill
#
# Bulk Modulus (GPa) = 20.39189 34.05308 27.22249
# Shear Modulus (GPa) = 19.58072 23.59476 21.58774
#
# Velocity S-wave (km/s) = 3.04618 3.34387 3.19849
# Velocity P-wave (km/s) = 4.69425 5.57192 5.15181
#
# Compressibility (1/GPa) = 0.04903910
#
# Stress axis : x y z
#
# Youngs Moduli (GPa) = 26.30921 86.11873 49.08806
#
# Poissons Ratio (x) = 0.61822 -0.13305
# Poissons Ratio (y) = 0.18887 0.29496
# Poissons Ratio (z) = -0.07131 0.51746
#
# Static dielectric constant tensor:
#      x y z
#    x 1.823440 0.000000 -0.035670 
#    y 0.000000 1.781060 0.000000 
#    z -0.035670 0.000000 1.793310 
# 
# From -- ./inp_files/166641.got.cif
#   From: 2010.05.17/outbox.cif.g08.bks.cpg/sg15_84_cif.got.tgz:166641.got - 2010.06.03 18:47:42.
