data_PCOD9277466
_publ_section_title
;
Structure prediction by ZEFSAII (Michael W. Deem and Ramdas Pophale) SiO2 
 PCOD9277466
Probable space group: C 2/C
;
_chemical_formula_sum "Si O2"
_cell_formula_units_Z 28
_cell_length_a 11.694537
_cell_length_b 18.966759
_cell_length_c 12.915876
_cell_angle_alpha 90.000000
_cell_angle_beta 157.100531
_cell_angle_gamma 90.000000
_cell_volume 1114.752509
_symmetry_space_group_name_H-M "C 2/C"
_symmetry_group_IT_number 15
_symmetry_cell_setting 'monoclinic'
loop_
_space_group_symop_operation_xyz
x,y,z
-x,y,1/2-z
-x,-y,-z
x,-y,1/2+z
1/2+x,1/2+y,z
1/2-x,1/2+y,1/2-z
1/2-x,1/2-y,-z
1/2+x,1/2-y,1/2+z
loop_
_atom_site_type_symbol
_atom_site_label
_atom_site_fract_x
_atom_site_fract_y
_atom_site_fract_z
Si Si1 0.874115 0.473613 0.751191
Si Si2 0.048602 0.203802 0.483564
Si Si3 0.129202 0.102128 0.743536
Si Si4 0.000000 0.608565 0.750000
O O1 0.532430 0.467290 0.437997
O O2 0.000000 0.439633 0.750000
O O3 0.003328 0.552339 0.847437
O O4 0.033812 0.423347 0.965564
O O5 0.046115 0.160227 0.589191
O O6 0.227241 0.157968 0.548792
O O7 0.744742 0.228497 0.180005
O O8 0.000000 0.119856 0.750000
#
# Coordination Sequence:
#
# PCOD9277466 Si02
#       4
#     8   8   8   4
#     4   8  19  37  63  95 117 157 198 269 322 341
#     4  12  27  42  63  92 130 178 204 248 306 382
#     4  10  20  41  63  95 124 155 213 257 318 364
#     4  10  24  44  66  94 128 160 216 258 316 372
#
# _framework density 25.117683
#
# number of rings (size 3 to 8) (size 9 to 14) (size 15 to 20)
#    0.857    1.143    0.000    2.571    0.000    8.000 
#    0.000    0.000    0.000    0.000    0.000    0.000 
#    0.000    0.000    0.000    0.000    0.000    0.000 
#
# Total GULP energy -77975.307438 kJ/mol
# GULP energy per Si atom -5569.664817 kJ/mol
# Density = 2.506051 g / cm^3
# Si number density = 25.117683 Si / 1000 Ang^3
#
#
#
# Elastic Constant Matrix: (Units=GPa)
#
#
# Indices 1 2 3 4 5 6 
#
# 1 74.3873 22.7777 -18.5063 -0.0010 -48.3542 0.0072
# 2 22.7777 78.0835 4.9861 0.0008 -9.6182 0.0016
# 3 -18.5063 4.9861 83.8488 -0.0019 -15.3430 0.0157
# 4 -0.0010 0.0008 -0.0019 20.0531 -0.0027 -18.7668
# 5 -48.3542 -9.6182 -15.3430 -0.0027 7.2026 0.0126
# 6 0.0072 0.0016 0.0157 -18.7668 0.0126 82.4378
#
#
#
# Elastic Compliance Matrix: (Units=1/GPa)
#
#
# Indices 1 2 3 4 5 6 
#
# 1 -0.001560 -0.002026 -0.004320 0.000001 -0.022382 0.000005
# 2 -0.002026 0.013887 -0.000604 -0.000001 0.003656 -0.000001
# 3 -0.004320 -0.000604 0.009103 -0.000001 -0.010414 0.000000
# 4 0.000001 -0.000001 -0.000001 0.063368 0.000002 0.014426
# 5 -0.022382 0.003656 -0.010414 0.000002 -0.028725 0.000009
# 6 0.000005 -0.000001 0.000000 0.014426 0.000009 0.015414
#
#
# Mechanical properties :
#
#
# Convention : Reuss Voigt Hill
#
# Bulk Modulus (GPa) = 132.79301 28.31495 80.55398
# Shear Modulus (GPa) = 56.88546 37.07617 46.98082
#
# Velocity S-wave (km/s) = 4.76411 3.84617 4.32954
# Velocity P-wave (km/s) = 9.12389 5.56969 7.55867
#
# Compressibility (1/GPa) = 0.00753052
#
# Stress axis : x y z
#
# Youngs Moduli (GPa) = -640.86641 72.01139 109.85085
#
# Poissons Ratio (x) = 0.14590 0.47450
# Poissons Ratio (y) = -1.29840 0.06635
# Poissons Ratio (z) = -2.76824 0.04349
#
# Static dielectric constant tensor:
#      x y z
#    x 2.122940 0.000000 0.117210 
#    y 0.000000 2.013690 0.000000 
#    z 0.117210 0.000000 2.139430 
# 
# From -- ./inp_files/6481.got.cif
#   From: 2010.05.17/outbox.cif.g08.bks.cpg/sg15_4_cif.got.tgz:6481.got - 2010.06.03 18:47:42.
