data_PCOD9277436
_publ_section_title
;
Structure prediction by ZEFSAII (Michael W. Deem and Ramdas Pophale) SiO2 
 PCOD9277436
Probable space group: C 2/C
;
_chemical_formula_sum "Si O2"
_cell_formula_units_Z 60
_cell_length_a 19.073563
_cell_length_b 6.314358
_cell_length_c 23.089239
_cell_angle_alpha 90.000000
_cell_angle_beta 74.290029
_cell_angle_gamma 90.000000
_cell_volume 2676.927724
_symmetry_space_group_name_H-M "C 2/C"
_symmetry_group_IT_number 15
_symmetry_cell_setting 'monoclinic'
loop_
_space_group_symop_operation_xyz
x,y,z
-x,y,1/2-z
-x,-y,-z
x,-y,1/2+z
1/2+x,1/2+y,z
1/2-x,1/2+y,1/2-z
1/2-x,1/2-y,-z
1/2+x,1/2-y,1/2+z
loop_
_atom_site_type_symbol
_atom_site_label
_atom_site_fract_x
_atom_site_fract_y
_atom_site_fract_z
Si Si1 0.500000 0.321457 0.750000
Si Si2 0.867573 0.503231 0.259455
Si Si3 0.288019 0.248228 0.872169
Si Si4 0.905619 0.877479 0.335735
Si Si5 0.056645 0.725391 0.485342
Si Si6 0.385198 0.672231 0.038023
Si Si7 0.635868 0.055165 0.058354
Si Si8 0.644671 0.991630 0.873469
O O1 0.566095 0.164353 0.749392
O O2 0.523436 0.480891 0.693262
O O3 0.804009 0.392101 0.311101
O O4 0.887255 0.728034 0.284638
O O5 0.852512 0.529157 0.195435
O O6 0.344895 0.444156 0.861089
O O7 0.305588 0.085796 0.920420
O O8 0.211392 0.362885 0.885751
O O9 0.905763 0.707967 0.387314
O O10 0.971387 0.773169 0.509359
O O11 0.856360 0.735281 0.604797
O O12 0.082480 0.603389 0.536730
O O13 0.109866 0.925540 0.470049
O O14 0.425710 0.102755 0.078108
O O15 0.339200 0.790462 0.998835
#
# Coordination Sequence:
#
# PCOD9277436 Si02
#       8
#     4   8   8   8   8   8   8   8
#     4  10  22  40  60  96 122 160 218 262 330 378
#     4  10  24  41  63  93 129 167 213 268 316 390
#     4  10  24  41  61  92 124 170 215 258 315 382
#     4  10  22  39  63  89 123 166 205 266 322 374
#     4  10  23  41  63  95 126 161 212 265 323 382
#     4  10  23  40  64  94 126 165 207 266 328 377
#     4  10  20  41  63  87 123 161 206 262 307 380
#     4  11  24  41  63  91 126 169 213 258 317 382
#
# _framework density 22.413755999999999
#
# number of rings (size 3 to 8) (size 9 to 14) (size 15 to 20)
#    0.000    1.867    0.000    2.800    1.867   17.067 
#    0.000    4.000    0.000    0.000    0.000    0.000 
#    0.000    0.000    0.000    0.000    0.000    0.000 
#
# Total GULP energy -167526.936876 kJ/mol
# GULP energy per Si atom -5584.231229 kJ/mol
# Density = 2.236274 g / cm^3
# Si number density = 22.413756 Si / 1000 Ang^3
#
#
#
# Elastic Constant Matrix: (Units=GPa)
#
#
# Indices 1 2 3 4 5 6 
#
# 1 43.2902 22.7221 12.7846 -0.0004 -0.1927 -0.0005
# 2 22.7221 135.1690 31.9531 -0.0007 12.9497 -0.0010
# 3 12.7846 31.9531 83.6920 -0.0002 31.7837 -0.0003
# 4 -0.0004 -0.0007 -0.0002 35.0186 0.0000 -7.2879
# 5 -0.1927 12.9497 31.7837 0.0000 35.9973 0.0000
# 6 -0.0005 -0.0010 -0.0003 -7.2879 0.0000 23.8137
#
#
#
# Elastic Compliance Matrix: (Units=1/GPa)
#
#
# Indices 1 2 3 4 5 6 
#
# 1 0.026572 -0.003893 -0.004752 0.000000 0.005739 0.000000
# 2 -0.003893 0.008704 -0.002304 0.000000 -0.001118 0.000000
# 3 -0.004752 -0.002304 0.019933 0.000000 -0.016796 0.000000
# 4 0.000000 0.000000 0.000000 0.030499 0.000000 0.009334
# 5 0.005739 -0.001118 -0.016796 0.000000 0.043043 0.000000
# 6 0.000000 0.000000 0.000000 0.009334 0.000000 0.044849
#
#
# Mechanical properties :
#
#
# Convention : Reuss Voigt Hill
#
# Bulk Modulus (GPa) = 30.02030 44.11899 37.06965
# Shear Modulus (GPa) = 24.20105 31.94536 28.07321
#
# Velocity S-wave (km/s) = 3.28951 3.77935 3.54291
# Velocity P-wave (km/s) = 5.27736 6.22666 5.77156
#
# Compressibility (1/GPa) = 0.03331079
#
# Stress axis : x y z
#
# Youngs Moduli (GPa) = 37.63307 114.88494 50.16842
#
# Poissons Ratio (x) = 0.44728 0.23841
# Poissons Ratio (y) = 0.14652 0.11559
# Poissons Ratio (z) = 0.17884 0.26470
#
# Static dielectric constant tensor:
#      x y z
#    x 1.816560 0.000000 -0.012030 
#    y 0.000000 1.886740 0.000000 
#    z -0.012030 0.000000 1.835480 
# 
# From -- ./inp_files/299902.got.cif
#   From: 2010.05.17/outbox.cif.g08.bks.cpg/sg15_150_cif.got.tgz:299902.got - 2010.06.03 18:47:42.
