data_PCOD9277600
_publ_section_title
;
Structure prediction by ZEFSAII (Michael W. Deem and Ramdas Pophale) SiO2 
 PCOD9277600
Probable space group: C 2/C
;
_chemical_formula_sum "Si O2"
_cell_formula_units_Z 64
_cell_length_a 22.501363
_cell_length_b 18.737169
_cell_length_c 15.187873
_cell_angle_alpha 90.000000
_cell_angle_beta 156.382421
_cell_angle_gamma 90.000000
_cell_volume 2565.390026
_symmetry_space_group_name_H-M "C 2/C"
_symmetry_group_IT_number 15
_symmetry_cell_setting 'monoclinic'
loop_
_space_group_symop_operation_xyz
x,y,z
-x,y,1/2-z
-x,-y,-z
x,-y,1/2+z
1/2+x,1/2+y,z
1/2-x,1/2+y,1/2-z
1/2-x,1/2-y,-z
1/2+x,1/2-y,1/2+z
loop_
_atom_site_type_symbol
_atom_site_label
_atom_site_fract_x
_atom_site_fract_y
_atom_site_fract_z
Si Si1 0.402854 0.172994 0.344435
Si Si2 0.163213 0.177352 0.809012
Si Si3 0.658527 0.896350 0.090689
Si Si4 0.623667 0.538419 0.843179
Si Si5 0.371958 0.263938 0.740065
Si Si6 0.161871 0.535190 0.973992
Si Si7 0.819940 0.854201 0.813559
Si Si8 0.963214 0.091152 0.096413
O O1 0.361780 0.238180 0.222013
O O2 0.507193 0.119602 0.433896
O O3 0.507731 0.205912 0.565644
O O4 0.261907 0.143078 0.204818
O O5 0.997312 0.146892 0.562688
O O6 0.281405 0.166647 0.891338
O O7 0.195239 0.116136 0.923519
O O8 0.790926 0.907040 0.339749
O O9 0.647100 0.962874 0.009951
O O10 0.500000 0.550999 0.750000
O O11 0.522144 0.486283 0.641949
O O12 0.767950 0.485940 0.025746
O O13 0.250000 0.250000 0.500000
O O14 0.286667 0.280974 0.715712
O O15 0.459222 0.336297 0.831188
O O16 0.000000 0.569117 0.750000
O O17 0.259746 0.585774 0.167573
O O18 0.000000 0.089500 0.250000
#
# Coordination Sequence:
#
# PCOD9277600 Si02
#       8
#     8   8   8   8   8   8   8   8
#     4  11  24  37  60  92 128 165 209 257 329 395
#     4  10  20  41  66  89 123 165 220 265 320 392
#     4  11  22  43  62  88 130 173 211 268 324 384
#     4  10  22  41  67  93 120 164 223 277 317 375
#     4  11  23  35  57  92 132 167 200 248 309 394
#     4  11  25  42  64  91 128 169 218 271 331 378
#     4  11  23  39  61  92 126 168 208 261 317 391
#     4  11  21  36  64  93 126 168 212 252 310 395
#
# _framework density 24.947475000000001
#
# number of rings (size 3 to 8) (size 9 to 14) (size 15 to 20)
#    0.000    1.250    3.750    3.000    3.500    5.500 
#    0.000    0.625    0.000    3.750    0.000    0.000 
#    0.000    0.000    0.000    0.000    0.000    0.000 
#
# Total GULP energy -178464.482978 kJ/mol
# GULP energy per Si atom -5577.015093 kJ/mol
# Density = 2.489069 g / cm^3
# Si number density = 24.947475 Si / 1000 Ang^3
#
#
#
# Elastic Constant Matrix: (Units=GPa)
#
#
# Indices 1 2 3 4 5 6 
#
# 1 117.3215 -3.4093 31.7422 0.0000 25.2747 0.0000
# 2 -3.4093 62.8105 8.6570 0.0000 4.3296 0.0000
# 3 31.7422 8.6570 88.7754 0.0000 12.1080 0.0000
# 4 0.0000 0.0000 0.0000 16.2919 0.0000 1.7646
# 5 25.2747 4.3296 12.1080 0.0000 37.7984 0.0000
# 6 0.0000 0.0000 0.0000 1.7646 0.0000 30.1461
#
#
#
# Elastic Compliance Matrix: (Units=1/GPa)
#
#
# Indices 1 2 3 4 5 6 
#
# 1 0.010786 0.001456 -0.003129 0.000000 -0.006377 0.000000
# 2 0.001456 0.016406 -0.001811 0.000000 -0.002273 0.000000
# 3 -0.003129 -0.001811 0.012806 0.000000 -0.001802 0.000000
# 4 0.000000 0.000000 0.000000 0.061772 0.000000 -0.003616
# 5 -0.006377 -0.002273 -0.001802 0.000000 0.031558 0.000000
# 6 0.000000 0.000000 0.000000 -0.003616 0.000000 0.033383
#
#
# Mechanical properties :
#
#
# Convention : Reuss Voigt Hill
#
# Bulk Modulus (GPa) = 30.27409 38.09859 34.18634
# Shear Modulus (GPa) = 27.07267 32.30845 29.69056
#
# Velocity S-wave (km/s) = 3.29779 3.60260 3.45356
# Velocity P-wave (km/s) = 5.16353 5.71048 5.44388
#
# Compressibility (1/GPa) = 0.03303155
#
# Stress axis : x y z
#
# Youngs Moduli (GPa) = 92.71047 60.95262 78.09112
#
# Poissons Ratio (x) = -0.08876 0.24434
# Poissons Ratio (y) = -0.13501 0.14139
# Poissons Ratio (z) = 0.29009 0.11036
#
# Static dielectric constant tensor:
#      x y z
#    x 2.113830 0.000000 -0.062300 
#    y 0.000000 2.028040 0.000000 
#    z -0.062300 0.000000 2.062460 
# 
# From -- ./inp_files/220279.got.cif
#   From: 2010.05.17/outbox.cif.g08.bks.cpg/sg15_111_cif.got.tgz:220279.got - 2010.06.03 18:47:42.
