data_PCOD9277390
_publ_section_title
;
Structure prediction by ZEFSAII (Michael W. Deem and Ramdas Pophale) SiO2 
 PCOD9277390
Probable space group: C 2/C
;
_chemical_formula_sum "Si O2"
_cell_formula_units_Z 48
_cell_length_a 10.658346
_cell_length_b 18.559763
_cell_length_c 20.000047
_cell_angle_alpha 90.000000
_cell_angle_beta 153.119454
_cell_angle_gamma 90.000000
_cell_volume 1788.786023
_symmetry_space_group_name_H-M "C 2/C"
_symmetry_group_IT_number 15
_symmetry_cell_setting 'monoclinic'
loop_
_space_group_symop_operation_xyz
x,y,z
-x,y,1/2-z
-x,-y,-z
x,-y,1/2+z
1/2+x,1/2+y,z
1/2-x,1/2+y,1/2-z
1/2-x,1/2-y,-z
1/2+x,1/2-y,1/2+z
loop_
_atom_site_type_symbol
_atom_site_label
_atom_site_fract_x
_atom_site_fract_y
_atom_site_fract_z
Si Si1 0.378693 0.137344 0.562762
Si Si2 0.214665 0.123673 0.956859
Si Si3 0.000000 0.979758 0.250000
Si Si4 0.240157 0.017741 0.728826
Si Si5 0.000000 0.731006 0.750000
Si Si6 0.274398 0.631555 0.306411
Si Si7 0.608742 0.229877 0.554160
O O1 0.463723 0.055171 0.618808
O O2 0.432728 0.182062 0.654746
O O3 0.563933 0.174110 0.594014
O O4 0.052416 0.145204 0.394567
O O5 0.486444 0.130710 0.130111
O O6 0.219998 0.069054 0.895735
O O7 0.185945 0.199431 0.904690
O O8 0.963091 0.086636 0.877804
O O9 0.156193 0.014897 0.262138
O O10 0.209256 0.952574 0.663206
O O11 0.705074 0.768260 0.623961
O O12 0.302247 0.692551 0.375889
#
# Coordination Sequence:
#
# PCOD9277390 Si02
#       7
#     8   8   4   8   4   8   8
#     4  11  21  41  62  89 126 162 213 263 319 376
#     4  10  20  41  61  93 129 167 205 264 323 379
#     4   8  20  38  59  89 134 154 204 250 338 356
#     4  10  21  41  61  94 130 164 206 267 320 376
#     4  10  22  36  63  89 124 166 208 264 316 372
#     4  11  23  35  67  95 124 167 218 256 314 380
#     4  11  20  40  59  92 123 165 209 259 314 385
#
# _framework density 26.833841
#
# number of rings (size 3 to 8) (size 9 to 14) (size 15 to 20)
#    1.000    0.667    1.667    5.000    0.000    2.000 
#    0.000   13.333    0.000    6.000    0.000    0.000 
#    0.000    0.000    0.000    0.000    0.000    0.000 
#
# Total GULP energy -134149.153105 kJ/mol
# GULP energy per Si atom -5589.548046 kJ/mol
# Density = 2.677277 g / cm^3
# Si number density = 26.833841 Si / 1000 Ang^3
#
#
#
# Elastic Constant Matrix: (Units=GPa)
#
#
# Indices 1 2 3 4 5 6 
#
# 1 63.5050 33.9659 30.7466 0.0003 23.8737 -0.0030
# 2 33.9659 161.8042 55.0472 -0.0083 4.3527 -0.0041
# 3 30.7466 55.0472 175.4256 -0.0160 24.0986 -0.0375
# 4 0.0003 -0.0083 -0.0160 48.5968 -0.0001 -13.1461
# 5 23.8737 4.3527 24.0986 -0.0001 30.4720 -0.0077
# 6 -0.0030 -0.0041 -0.0375 -13.1461 -0.0077 8.2107
#
#
#
# Elastic Compliance Matrix: (Units=1/GPa)
#
#
# Indices 1 2 3 4 5 6 
#
# 1 0.025656 -0.004741 -0.000382 -0.000008 -0.019121 -0.000026
# 2 -0.004741 0.007813 -0.002219 -0.000001 0.004353 -0.000005
# 3 -0.000382 -0.002219 0.007156 0.000016 -0.005043 0.000053
# 4 -0.000008 -0.000001 0.000016 0.036300 0.000009 0.058119
# 5 -0.019121 0.004353 -0.005043 0.000009 0.051164 0.000034
# 6 -0.000026 -0.000005 0.000053 0.058119 0.000034 0.214846
#
#
# Mechanical properties :
#
#
# Convention : Reuss Voigt Hill
#
# Bulk Modulus (GPa) = 38.54869 71.13935 54.84402
# Shear Modulus (GPa) = 13.65122 36.18758 24.91940
#
# Velocity S-wave (km/s) = 2.25795 3.67629 3.05069
# Velocity P-wave (km/s) = 4.60377 6.67748 5.73513
#
# Compressibility (1/GPa) = 0.02594122
#
# Stress axis : x y z
#
# Youngs Moduli (GPa) = 38.97721 127.98617 139.73389
#
# Poissons Ratio (x) = 0.60682 0.05341
# Poissons Ratio (y) = 0.18480 0.31004
# Poissons Ratio (z) = 0.01490 0.28397
#
# Static dielectric constant tensor:
#      x y z
#    x 2.088800 0.000000 0.056980 
#    y 0.000000 2.146650 -0.000010 
#    z 0.056980 -0.000010 2.095240 
# 
# From -- ./inp_files/299292.got.cif
#   From: 2010.05.17/outbox.cif.g08.bks.cpg/sg15_150_cif.got.tgz:299292.got - 2010.06.03 18:47:42.
