data_PCOD9277472
_publ_section_title
;
Structure prediction by ZEFSAII (Michael W. Deem and Ramdas Pophale) SiO2 
 PCOD9277472
Probable space group: C 2/C
;
_chemical_formula_sum "Si O2"
_cell_formula_units_Z 64
_cell_length_a 12.051110
_cell_length_b 22.576341
_cell_length_c 10.890532
_cell_angle_alpha 90.000000
_cell_angle_beta 79.288043
_cell_angle_gamma 90.000000
_cell_volume 2911.353780
_symmetry_space_group_name_H-M "C 2/C"
_symmetry_group_IT_number 15
_symmetry_cell_setting 'monoclinic'
loop_
_space_group_symop_operation_xyz
x,y,z
-x,y,1/2-z
-x,-y,-z
x,-y,1/2+z
1/2+x,1/2+y,z
1/2-x,1/2+y,1/2-z
1/2-x,1/2-y,-z
1/2+x,1/2-y,1/2+z
loop_
_atom_site_type_symbol
_atom_site_label
_atom_site_fract_x
_atom_site_fract_y
_atom_site_fract_z
Si Si1 0.631524 0.883570 0.222098
Si Si2 0.528772 0.272949 0.890277
Si Si3 0.138763 0.861155 0.449828
Si Si4 0.408688 0.048419 0.995251
Si Si5 0.916144 0.355102 0.010536
Si Si6 0.795485 0.124453 0.098583
Si Si7 0.820321 0.951257 0.835281
Si Si8 0.963578 0.049252 0.905208
O O1 0.500000 0.860667 0.250000
O O2 0.736397 0.850639 0.133571
O O3 0.622211 0.942431 0.141455
O O4 0.649657 0.886757 0.362375
O O5 0.500000 0.268929 0.750000
O O6 0.560815 0.211282 0.948422
O O7 0.635572 0.316616 0.881460
O O8 0.427746 0.303389 0.990045
O O9 0.143814 0.901528 0.572086
O O10 0.065902 0.903020 0.372566
O O11 0.465287 0.110283 0.026966
O O12 0.300224 0.030131 0.090912
O O13 0.500000 0.000000 0.000000
O O14 0.832074 0.360950 0.913980
O O15 0.806557 0.079986 0.209433
O O16 0.865092 0.091136 0.978709
O O17 0.901745 0.007362 0.818652
O O18 0.000000 0.000000 0.000000
#
# Coordination Sequence:
#
# PCOD9277472 Si02
#       8
#     8   8   8   8   8   8   8   8
#     4   9  20  43  66  93 140 176 230 276 343 410
#     4  11  21  42  74  98 133 180 232 293 345 411
#     4   9  19  39  70 102 128 177 232 287 341 407
#     4  10  21  42  64  92 131 180 232 285 342 411
#     4  11  24  44  61 100 135 183 225 283 352 408
#     4  11  23  42  65  97 140 178 222 289 348 410
#     4  10  20  41  63  98 132 177 230 278 344 411
#     4   9  20  38  60  99 134 169 221 277 340 404
#
# _framework density 21.982900999999998
#
# number of rings (size 3 to 8) (size 9 to 14) (size 15 to 20)
#    0.000    2.000    1.250    2.250    0.000    0.500 
#   36.000    5.625    2.750    0.000    0.000    0.000 
#    0.000    0.000    0.000    0.000    0.000    0.000 
#
# Total GULP energy -178552.652764 kJ/mol
# GULP energy per Si atom -5579.770399 kJ/mol
# Density = 2.193287 g / cm^3
# Si number density = 21.982901 Si / 1000 Ang^3
#
#
#
# Elastic Constant Matrix: (Units=GPa)
#
#
# Indices 1 2 3 4 5 6 
#
# 1 136.8660 59.5857 60.3323 0.0000 -5.2468 0.0000
# 2 59.5857 126.3912 37.2753 0.0000 7.2314 0.0000
# 3 60.3323 37.2753 79.8979 0.0000 -2.1209 0.0000
# 4 0.0000 0.0000 0.0000 39.3994 0.0000 8.2636
# 5 -5.2468 7.2314 -2.1209 0.0000 42.2590 0.0000
# 6 0.0000 0.0000 0.0000 8.2636 0.0000 29.4581
#
#
#
# Elastic Compliance Matrix: (Units=1/GPa)
#
#
# Indices 1 2 3 4 5 6 
#
# 1 0.012290 -0.003679 -0.007517 0.000000 0.001778 0.000000
# 2 -0.003679 0.010412 -0.002142 0.000000 -0.002346 0.000000
# 3 -0.007517 -0.002142 0.019202 0.000000 0.000397 0.000000
# 4 0.000000 0.000000 0.000000 0.026968 0.000000 -0.007565
# 5 0.001778 -0.002346 0.000397 0.000000 0.024306 0.000000
# 6 0.000000 0.000000 0.000000 -0.007565 0.000000 0.036069
#
#
# Mechanical properties :
#
#
# Convention : Reuss Voigt Hill
#
# Bulk Modulus (GPa) = 65.66530 73.06018 69.36274
# Shear Modulus (GPa) = 31.05652 34.62074 32.83863
#
# Velocity S-wave (km/s) = 3.76275 3.97280 3.86920
# Velocity P-wave (km/s) = 6.98667 7.37234 7.18209
#
# Compressibility (1/GPa) = 0.01522874
#
# Stress axis : x y z
#
# Youngs Moduli (GPa) = 81.36995 96.04117 52.07846
#
# Poissons Ratio (x) = 0.35331 0.39145
# Poissons Ratio (y) = 0.29934 0.11156
# Poissons Ratio (z) = 0.61163 0.20573
#
# Static dielectric constant tensor:
#      x y z
#    x 1.820970 0.000000 0.012850 
#    y 0.000000 1.844320 0.000000 
#    z 0.012850 0.000000 1.879900 
# 
# From -- ./inp_files/90803.got.cif
#   From: 2010.05.17/outbox.cif.g08.bks.cpg/sg15_46_cif.got.tgz:90803.got - 2010.06.03 18:47:42.
