data_PCOD9277647
_publ_section_title
;
Structure prediction by ZEFSAII (Michael W. Deem and Ramdas Pophale) SiO2 
 PCOD9277647
Probable space group: C 2/C
;
_chemical_formula_sum "Si O2"
_cell_formula_units_Z 56
_cell_length_a 33.546289
_cell_length_b 5.601083
_cell_length_c 12.317066
_cell_angle_alpha 90.000000
_cell_angle_beta 94.376018
_cell_angle_gamma 90.000000
_cell_volume 2307.575114
_symmetry_space_group_name_H-M "C 2/C"
_symmetry_group_IT_number 15
_symmetry_cell_setting 'monoclinic'
loop_
_space_group_symop_operation_xyz
x,y,z
-x,y,1/2-z
-x,-y,-z
x,-y,1/2+z
1/2+x,1/2+y,z
1/2-x,1/2+y,1/2-z
1/2-x,1/2-y,-z
1/2+x,1/2-y,1/2+z
loop_
_atom_site_type_symbol
_atom_site_label
_atom_site_fract_x
_atom_site_fract_y
_atom_site_fract_z
Si Si1 0.028455 0.457758 0.675686
Si Si2 0.029198 0.808910 0.954694
Si Si3 0.892434 0.292638 0.300467
Si Si4 0.251056 0.548210 0.180328
Si Si5 0.891297 0.024515 0.509853
Si Si6 0.666422 0.841206 0.610646
Si Si7 0.162478 0.942348 0.335641
O O1 0.040539 0.353870 0.560792
O O2 0.070391 0.550362 0.731390
O O3 0.000000 0.301473 0.750000
O O4 0.996354 0.660556 0.635996
O O5 0.069306 0.932006 0.921743
O O6 0.000000 0.000000 0.000000
O O7 0.861551 0.439753 0.366935
O O8 0.865278 0.163559 0.206591
O O9 0.907749 0.109143 0.396198
O O10 0.244415 0.298337 0.248383
O O11 0.211836 0.583488 0.098072
O O12 0.292485 0.511977 0.124634
O O13 0.857380 0.828459 0.475378
O O14 0.865152 0.194134 0.582966
O O15 0.668109 0.703177 0.726167
#
# Coordination Sequence:
#
# PCOD9277647 Si02
#       7
#     8   8   8   8   8   8   8
#     4  11  24  40  63  89 117 162 208 251 316 381
#     4  11  23  42  59  88 125 156 199 265 309 366
#     4  11  21  42  62  89 123 158 206 260 311 372
#     4  10  20  41  66  96 133 172 217 270 324 385
#     4  11  23  41  62  92 124 158 210 258 317 379
#     4  10  22  40  64  89 128 162 204 265 311 374
#     4  10  23  39  66  91 120 169 206 251 324 383
#
# _framework density 24.267900999999998
#
# number of rings (size 3 to 8) (size 9 to 14) (size 15 to 20)
#    0.000    1.429    4.286    0.857    0.000    3.429 
#    0.000    0.714    0.000    0.000    0.000    0.000 
#    0.000    0.000    0.000    0.000    0.000    0.000 
#
# Total GULP energy -156264.179529 kJ/mol
# GULP energy per Si atom -5580.863555 kJ/mol
# Density = 2.421267 g / cm^3
# Si number density = 24.267901 Si / 1000 Ang^3
#
#
#
# Elastic Constant Matrix: (Units=GPa)
#
#
# Indices 1 2 3 4 5 6 
#
# 1 179.9773 6.4050 18.8379 0.0000 -9.5347 0.0000
# 2 6.4050 36.5264 -9.9765 0.0000 6.0857 0.0000
# 3 18.8379 -9.9765 43.2067 0.0000 -11.5444 0.0000
# 4 0.0000 0.0000 0.0000 -48.3417 0.0000 -9.8030
# 5 -9.5347 6.0857 -11.5444 0.0000 40.1741 0.0000
# 6 0.0000 0.0000 0.0000 -9.8030 0.0000 26.4557
#
#
#
# Elastic Compliance Matrix: (Units=1/GPa)
#
#
# Indices 1 2 3 4 5 6 
#
# 1 0.005969 -0.001966 -0.002814 0.000000 0.000906 0.000000
# 2 -0.001966 0.030140 0.007010 0.000000 -0.003018 0.000000
# 3 -0.002814 0.007010 0.027651 0.000000 0.006216 0.000000
# 4 0.000000 0.000000 0.000000 -0.019240 0.000000 -0.007129
# 5 0.000906 -0.003018 0.006216 0.000000 0.027350 0.000000
# 6 0.000000 0.000000 0.000000 -0.007129 0.000000 0.035157
#
#
# Mechanical properties :
#
#
# Convention : Reuss Voigt Hill
#
# Bulk Modulus (GPa) = 14.65867 32.24922 23.45395
# Shear Modulus (GPa) = 39.90201 19.95390 29.92795
#
# Velocity S-wave (km/s) = 4.05931 2.87057 3.51555
# Velocity P-wave (km/s) = 5.29378 4.92997 5.11511
#
# Compressibility (1/GPa) = 0.06821902
#
# Stress axis : x y z
#
# Youngs Moduli (GPa) = 167.53825 33.17876 36.16488
#
# Poissons Ratio (x) = 0.06524 0.10178
# Poissons Ratio (y) = 0.32942 -0.25353
# Poissons Ratio (z) = 0.47151 -0.23259
#
# Static dielectric constant tensor:
#      x y z
#    x 1.887510 0.000000 -0.045650 
#    y 0.000000 2.195920 0.000000 
#    z -0.045650 0.000000 2.453970 
# 
# From -- ./inp_files/180102.got.cif
#   From: 2010.05.17/outbox.cif.g08.bks.cpg/sg15_91_cif.got.tgz:180102.got - 2010.06.03 18:47:42.
