data_PCOD9277185
_publ_section_title
;
Structure prediction by ZEFSAII (Michael W. Deem and Ramdas Pophale) SiO2 
 PCOD9277185
Probable space group: C 2/C
;
_chemical_formula_sum "Si O2"
_cell_formula_units_Z 44
_cell_length_a 8.053546
_cell_length_b 17.301442
_cell_length_c 12.267972
_cell_angle_alpha 90.000000
_cell_angle_beta 102.966232
_cell_angle_gamma 90.000000
_cell_volume 1665.808856
_symmetry_space_group_name_H-M "C 2/C"
_symmetry_group_IT_number 15
_symmetry_cell_setting 'monoclinic'
loop_
_space_group_symop_operation_xyz
x,y,z
-x,y,1/2-z
-x,-y,-z
x,-y,1/2+z
1/2+x,1/2+y,z
1/2-x,1/2+y,1/2-z
1/2-x,1/2-y,-z
1/2+x,1/2-y,1/2+z
loop_
_atom_site_type_symbol
_atom_site_label
_atom_site_fract_x
_atom_site_fract_y
_atom_site_fract_z
Si Si1 0.597885 0.408791 0.428092
Si Si2 0.500000 0.720682 0.750000
Si Si3 0.612064 0.437618 0.662032
Si Si4 0.000000 0.724066 0.750000
Si Si5 0.195338 0.697357 0.096156
Si Si6 0.977171 0.593179 0.929465
Si Si7 0.000000 0.532733 0.250000
O O1 0.599271 0.343460 0.336937
O O2 0.564076 0.386852 0.549046
O O3 0.456305 0.474688 0.379302
O O4 0.797557 0.430147 0.457008
O O5 0.455714 0.774725 0.846432
O O6 0.500000 0.422216 0.750000
O O7 0.811530 0.429477 0.721143
O O8 0.844325 0.779113 0.700505
O O9 0.963671 0.667766 0.846898
O O10 0.250000 0.750000 0.000000
O O11 0.127081 0.617994 0.034218
O O12 0.016596 0.523613 0.855614
#
# Coordination Sequence:
#
# PCOD9277185 Si02
#       7
#     8   4   8   4   8   8   4
#     4  11  23  43  73 102 140 189 243 295 368 424
#     4  12  22  46  71  95 140 196 226 298 364 426
#     4  11  24  45  72 109 139 186 248 303 358 438
#     4   9  18  40  62 103 145 180 232 290 337 428
#     4  10  23  39  70 104 138 188 246 281 353 442
#     4  10  20  40  69 105 133 190 232 283 362 428
#     4  11  22  44  79  96 145 186 232 300 375 418
#
# _framework density 26.413594
#
# number of rings (size 3 to 8) (size 9 to 14) (size 15 to 20)
#    0.000    1.455    4.545    0.000    5.091    1.455 
#    0.000    2.727    4.000    1.091    0.000    0.000 
#    0.000    0.000    0.000    0.000    0.000    0.000 
#
# Total GULP energy -122780.305910 kJ/mol
# GULP energy per Si atom -5580.922996 kJ/mol
# Density = 2.635348 g / cm^3
# Si number density = 26.413594 Si / 1000 Ang^3
#
#
#
# Elastic Constant Matrix: (Units=GPa)
#
#
# Indices 1 2 3 4 5 6 
#
# 1 110.2758 30.5666 25.8556 0.0000 2.2680 0.0000
# 2 30.5666 90.8292 42.6882 0.0000 17.6140 0.0000
# 3 25.8556 42.6882 160.4794 0.0000 -10.2126 0.0000
# 4 0.0000 0.0000 0.0000 42.0015 0.0000 7.8942
# 5 2.2680 17.6140 -10.2126 0.0000 51.0502 0.0000
# 6 0.0000 0.0000 0.0000 7.8942 0.0000 -7.6471
#
#
#
# Elastic Compliance Matrix: (Units=1/GPa)
#
#
# Indices 1 2 3 4 5 6 
#
# 1 0.010106 -0.003135 -0.000764 0.000000 0.000480 0.000000
# 2 -0.003135 0.015003 -0.003855 0.000000 -0.005809 0.000000
# 3 -0.000764 -0.003855 0.007563 0.000000 0.002877 0.000000
# 4 0.000000 0.000000 0.000000 0.019940 0.000000 0.020584
# 5 0.000480 -0.005809 0.002877 0.000000 0.022147 0.000000
# 6 0.000000 0.000000 0.000000 0.020584 0.000000 -0.109519
#
#
# Mechanical properties :
#
#
# Convention : Reuss Voigt Hill
#
# Bulk Modulus (GPa) = 58.26213 62.20059 60.23136
# Shear Modulus (GPa) = -369.57499 34.57918 -167.49790
#
# Velocity S-wave (km/s) = -11.84155 3.62213 -7.97190
# Velocity P-wave (km/s) = 12.83968 6.41038 7.86653
#
# Compressibility (1/GPa) = 0.01716381
#
# Stress axis : x y z
#
# Youngs Moduli (GPa) = 98.94710 66.65255 132.22199
#
# Poissons Ratio (x) = 0.20897 0.10099
# Poissons Ratio (y) = 0.31022 0.50977
# Poissons Ratio (z) = 0.07557 0.25697
#
# Static dielectric constant tensor:
#      x y z
#    x 5.519090 0.000000 0.284600 
#    y 0.000000 2.138030 0.000000 
#    z 0.284600 0.000000 2.110240 
# 
# From -- ./inp_files/78321.got.cif
#   From: 2010.05.17/outbox.cif.g08.bks.cpg/sg15_40_cif.got.tgz:78321.got - 2010.06.03 18:47:42.
