data_PCOD9277315
_publ_section_title
;
Structure prediction by ZEFSAII (Michael W. Deem and Ramdas Pophale) SiO2 
 PCOD9277315
Probable space group: C 2/C
;
_chemical_formula_sum "Si O2"
_cell_formula_units_Z 48
_cell_length_a 9.012188
_cell_length_b 20.409842
_cell_length_c 20.387734
_cell_angle_alpha 90.000000
_cell_angle_beta 150.224558
_cell_angle_gamma 90.000000
_cell_volume 1862.289896
_symmetry_space_group_name_H-M "C 2/C"
_symmetry_group_IT_number 15
_symmetry_cell_setting 'monoclinic'
loop_
_space_group_symop_operation_xyz
x,y,z
-x,y,1/2-z
-x,-y,-z
x,-y,1/2+z
1/2+x,1/2+y,z
1/2-x,1/2+y,1/2-z
1/2-x,1/2-y,-z
1/2+x,1/2-y,1/2+z
loop_
_atom_site_type_symbol
_atom_site_label
_atom_site_fract_x
_atom_site_fract_y
_atom_site_fract_z
Si Si1 0.427744 0.245086 0.312579
Si Si2 0.880331 0.078418 0.970600
Si Si3 0.000000 0.374158 0.750000
Si Si4 0.308242 0.539081 0.533595
Si Si5 0.500000 0.553400 0.750000
Si Si6 0.007216 0.340869 0.409478
Si Si7 0.979879 0.666708 0.447348
O O1 0.533844 0.176814 0.322483
O O2 0.167657 0.274400 0.169343
O O3 0.689119 0.299414 0.416556
O O4 0.326511 0.220763 0.344112
O O5 0.203579 0.083075 0.130425
O O6 0.929653 0.070377 0.911928
O O7 0.722729 0.019369 0.950760
O O8 0.704084 0.142582 0.922875
O O9 0.402727 0.518802 0.644070
O O10 0.054529 0.594475 0.447542
O O11 0.235998 0.602259 0.670860
O O12 0.179082 0.339537 0.543896
#
# Coordination Sequence:
#
# PCOD9277315 Si02
#       7
#     8   8   4   8   4   8   8
#     4  11  20  41  70  94 140 184 227 278 357 411
#     4  11  27  42  70 100 141 181 243 287 347 416
#     4  12  23  46  64  98 140 197 220 302 350 398
#     4  10  22  47  67 104 137 186 230 289 348 428
#     4  10  21  42  74  98 138 179 218 282 360 404
#     4  11  21  43  68 106 130 183 232 285 345 422
#     4  10  20  40  72  96 136 183 221 292 349 409
#
# _framework density 25.774721
#
# number of rings (size 3 to 8) (size 9 to 14) (size 15 to 20)
#    0.000    1.333    6.667    0.000    0.000    6.667 
#    3.000    1.667    0.000    0.000    0.000    0.000 
#    0.000    0.000    0.000    0.000    0.000    0.000 
#
# Total GULP energy -134069.593592 kJ/mol
# GULP energy per Si atom -5586.233066 kJ/mol
# Density = 2.571606 g / cm^3
# Si number density = 25.774721 Si / 1000 Ang^3
#
#
#
# Elastic Constant Matrix: (Units=GPa)
#
#
# Indices 1 2 3 4 5 6 
#
# 1 125.6067 30.6439 25.1381 -0.0012 -20.1976 0.0004
# 2 30.6439 74.8600 9.7305 -0.0022 -2.0733 0.0012
# 3 25.1381 9.7305 34.3560 0.0105 -2.9680 0.0022
# 4 -0.0012 -0.0022 0.0105 15.9900 0.0052 -8.1940
# 5 -20.1976 -2.0733 -2.9680 0.0052 29.8365 -0.0089
# 6 0.0004 0.0012 0.0022 -8.1940 -0.0089 25.0987
#
#
#
# Elastic Compliance Matrix: (Units=1/GPa)
#
#
# Indices 1 2 3 4 5 6 
#
# 1 0.011232 -0.003550 -0.006634 0.000005 0.006697 0.000005
# 2 -0.003550 0.015001 -0.001784 0.000004 -0.001538 0.000000
# 3 -0.006634 -0.001784 0.034363 -0.000030 -0.001197 -0.000013
# 4 0.000005 0.000004 -0.000030 0.075104 -0.000005 0.024519
# 5 0.006697 -0.001538 -0.001197 -0.000005 0.037823 0.000012
# 6 0.000005 0.000000 -0.000013 0.024519 0.000012 0.047848
#
#
# Mechanical properties :
#
#
# Convention : Reuss Voigt Hill
#
# Bulk Modulus (GPa) = 27.27824 40.64974 33.96399
# Shear Modulus (GPa) = 19.41539 25.47237 22.44388
#
# Velocity S-wave (km/s) = 2.74756 3.14709 2.95408
# Velocity P-wave (km/s) = 4.54662 5.38618 4.98411
#
# Compressibility (1/GPa) = 0.03665926
#
# Stress axis : x y z
#
# Youngs Moduli (GPa) = 89.03084 66.66329 29.10082
#
# Poissons Ratio (x) = 0.23666 0.19307
# Poissons Ratio (y) = 0.31606 0.05192
# Poissons Ratio (z) = 0.59067 0.11893
#
# Static dielectric constant tensor:
#      x y z
#    x 2.076930 -0.000010 -0.060030 
#    y -0.000010 2.000780 -0.000010 
#    z -0.060030 -0.000010 2.066060 
# 
# From -- ./inp_files/233999.got.cif
#   From: 2010.05.17/outbox.cif.g08.bks.cpg/sg15_117_cif.got.tgz:233999.got - 2010.06.03 18:47:42.
