data_PCOD9277377
_publ_section_title
;
Structure prediction by ZEFSAII (Michael W. Deem and Ramdas Pophale) SiO2 
 PCOD9277377
Probable space group: C 2/C
;
_chemical_formula_sum "Si O2"
_cell_formula_units_Z 60
_cell_length_a 22.739762
_cell_length_b 17.890826
_cell_length_c 8.586988
_cell_angle_alpha 90.000000
_cell_angle_beta 116.749841
_cell_angle_gamma 90.000000
_cell_volume 3119.600553
_symmetry_space_group_name_H-M "C 2/C"
_symmetry_group_IT_number 15
_symmetry_cell_setting 'monoclinic'
loop_
_space_group_symop_operation_xyz
x,y,z
-x,y,1/2-z
-x,-y,-z
x,-y,1/2+z
1/2+x,1/2+y,z
1/2-x,1/2+y,1/2-z
1/2-x,1/2-y,-z
1/2+x,1/2-y,1/2+z
loop_
_atom_site_type_symbol
_atom_site_label
_atom_site_fract_x
_atom_site_fract_y
_atom_site_fract_z
Si Si1 0.659487 0.208546 0.740334
Si Si2 0.000000 0.825711 0.750000
Si Si3 0.730433 0.931954 0.441074
Si Si4 0.816469 0.428894 0.765620
Si Si5 0.965486 0.567908 0.374674
Si Si6 0.982401 0.272067 0.546432
Si Si7 0.356576 0.668143 0.023734
Si Si8 0.715776 0.241898 0.294534
O O1 0.680938 0.122917 0.788079
O O2 0.596385 0.214273 0.554551
O O3 0.644014 0.253094 0.881100
O O4 0.723924 0.250158 0.753773
O O5 0.004556 0.781587 0.587970
O O6 0.071003 0.864804 0.858175
O O7 0.698235 0.939204 0.570986
O O8 0.799815 0.887788 0.516536
O O9 0.734064 0.015090 0.377919
O O10 0.888557 0.449212 0.790560
O O11 0.811527 0.340945 0.734931
O O12 0.000000 0.570757 0.250000
O O13 0.000000 0.500000 0.500000
O O14 0.980307 0.651090 0.454859
O O15 0.000000 0.251994 0.750000
O O16 0.336517 0.695771 0.825863
O O17 0.750000 0.250000 0.500000
#
# Coordination Sequence:
#
# PCOD9277377 Si02
#       8
#     8   4   8   8   8   8   8   8
#     4  10  20  41  61  84 124 164 198 258 304 363
#     4  10  22  38  70  86 120 162 196 258 328 368
#     4  11  23  39  61  89 122 157 213 253 308 369
#     4  12  24  39  60  87 123 163 205 253 305 369
#     4  11  24  37  53  80 122 159 199 237 294 370
#     4  10  23  36  58  91 123 157 207 251 301 377
#     4  10  20  43  62  91 117 161 203 250 317 375
#     4  11  23  35  64  91 122 157 207 258 303 363
#
# _framework density 19.233232000000001
#
# number of rings (size 3 to 8) (size 9 to 14) (size 15 to 20)
#    0.000    1.333    2.667    3.200   12.133    0.000 
#    0.000    0.000    0.000    0.800    1.733    0.000 
#    0.000    0.000    0.000    0.000    0.000    0.000 
#
# Total GULP energy -167155.205441 kJ/mol
# GULP energy per Si atom -5571.840181 kJ/mol
# Density = 1.918946 g / cm^3
# Si number density = 19.233232 Si / 1000 Ang^3
#
#
#
# Elastic Constant Matrix: (Units=GPa)
#
#
# Indices 1 2 3 4 5 6 
#
# 1 89.9418 23.1909 41.1931 0.0000 16.9214 0.0000
# 2 23.1909 38.5630 5.7709 0.0000 -2.0085 0.0000
# 3 41.1931 5.7709 102.8332 0.0000 8.8506 0.0000
# 4 0.0000 0.0000 0.0000 18.5886 0.0000 14.1320
# 5 16.9214 -2.0085 8.8506 0.0000 32.6514 0.0000
# 6 0.0000 0.0000 0.0000 14.1320 0.0000 -27.1471
#
#
#
# Elastic Compliance Matrix: (Units=1/GPa)
#
#
# Indices 1 2 3 4 5 6 
#
# 1 0.018120 -0.010445 -0.005948 0.000000 -0.008421 0.000000
# 2 -0.010445 0.032308 0.001776 0.000000 0.006919 0.000000
# 3 -0.005948 0.001776 0.012013 0.000000 -0.000065 0.000000
# 4 0.000000 0.000000 0.000000 0.038543 0.000000 0.020064
# 5 -0.008421 0.006919 -0.000065 0.000000 0.035434 0.000000
# 6 0.000000 0.000000 0.000000 0.020064 0.000000 -0.026391
#
#
# Mechanical properties :
#
#
# Convention : Reuss Voigt Hill
#
# Bulk Modulus (GPa) = 30.11505 41.29419 35.70462
# Shear Modulus (GPa) = 33.26044 15.56411 24.41227
#
# Velocity S-wave (km/s) = 4.16302 2.84778 3.56655
# Velocity P-wave (km/s) = 6.22892 5.68595 5.96362
#
# Compressibility (1/GPa) = 0.03320599
#
# Stress axis : x y z
#
# Youngs Moduli (GPa) = 55.18825 30.95220 83.24400
#
# Poissons Ratio (x) = 0.32331 0.49509
# Poissons Ratio (y) = 0.57646 -0.14781
# Poissons Ratio (z) = 0.32823 -0.05496
#
# Static dielectric constant tensor:
#      x y z
#    x 1.686830 0.000000 0.021330 
#    y 0.000000 1.806430 0.000000 
#    z 0.021330 0.000000 1.779780 
# 
# From -- ./inp_files/62742.got.cif
#   From: 2010.05.17/outbox.cif.g08.bks.cpg/sg15_32_cif.got.tgz:62742.got - 2010.06.03 18:47:42.
