data_PCOD9277650
_publ_section_title
;
Structure prediction by ZEFSAII (Michael W. Deem and Ramdas Pophale) SiO2 
 PCOD9277650
Probable space group: C 2/C
;
_chemical_formula_sum "Si O2"
_cell_formula_units_Z 56
_cell_length_a 15.001311
_cell_length_b 12.295101
_cell_length_c 12.454239
_cell_angle_alpha 90.000000
_cell_angle_beta 75.587083
_cell_angle_gamma 90.000000
_cell_volume 2224.796410
_symmetry_space_group_name_H-M "C 2/C"
_symmetry_group_IT_number 15
_symmetry_cell_setting 'monoclinic'
loop_
_space_group_symop_operation_xyz
x,y,z
-x,y,1/2-z
-x,-y,-z
x,-y,1/2+z
1/2+x,1/2+y,z
1/2-x,1/2+y,1/2-z
1/2-x,1/2-y,-z
1/2+x,1/2-y,1/2+z
loop_
_atom_site_type_symbol
_atom_site_label
_atom_site_fract_x
_atom_site_fract_y
_atom_site_fract_z
Si Si1 0.649409 0.964771 0.069427
Si Si2 0.602489 0.819094 0.672634
Si Si3 0.488790 0.381979 0.633887
Si Si4 0.726617 0.878634 0.841601
Si Si5 0.633247 0.803767 0.255222
Si Si6 0.860904 0.057708 0.570990
Si Si7 0.304783 0.615417 0.811477
O O1 0.606608 0.897446 0.180642
O O2 0.758074 0.970129 0.067219
O O3 0.608604 0.085717 0.082356
O O4 0.652607 0.897915 0.957930
O O5 0.500000 0.810300 0.750000
O O6 0.672171 0.861938 0.746175
O O7 0.641157 0.699098 0.629020
O O8 0.500000 0.432776 0.750000
O O9 0.447733 0.264320 0.668776
O O10 0.415500 0.449978 0.587878
O O11 0.581225 0.384313 0.538178
O O12 0.798064 0.779193 0.829033
O O13 0.790685 0.986740 0.826793
O O14 0.699788 0.847715 0.327885
O O15 0.854815 0.128314 0.680974
#
# Coordination Sequence:
#
# PCOD9277650 Si02
#       7
#     8   8   8   8   8   8   8
#     4  11  23  43  72  96 132 180 234 276 343 417
#     4  11  25  45  64  99 142 180 226 287 342 415
#     4  11  22  36  63  97 136 166 219 285 343 384
#     4  11  21  43  74  92 130 184 229 277 350 405
#     4  10  20  41  66  97 128 170 227 287 329 407
#     4  10  21  40  63 100 130 173 223 280 332 409
#     4  10  21  44  68  90 136 182 221 276 347 411
#
# _framework density 25.170842
#
# number of rings (size 3 to 8) (size 9 to 14) (size 15 to 20)
#    0.000    1.429    4.286    2.143    0.000    4.571 
#    5.143    0.000    0.000    0.000    0.000    0.000 
#    0.000    0.000    0.000    0.000    0.000    0.000 
#
# Total GULP energy -156690.898232 kJ/mol
# GULP energy per Si atom -5596.103508 kJ/mol
# Density = 2.511355 g / cm^3
# Si number density = 25.170842 Si / 1000 Ang^3
#
#
#
# Elastic Constant Matrix: (Units=GPa)
#
#
# Indices 1 2 3 4 5 6 
#
# 1 64.3419 18.3248 16.5783 0.0000 -18.2925 0.0000
# 2 18.3248 114.4782 8.8596 0.0000 -10.1656 0.0000
# 3 16.5783 8.8596 87.9044 0.0000 -18.0263 0.0000
# 4 0.0000 0.0000 0.0000 18.7463 0.0000 -14.1881
# 5 -18.2925 -10.1656 -18.0263 0.0000 33.0747 0.0000
# 6 0.0000 0.0000 0.0000 -14.1881 0.0000 19.1938
#
#
#
# Elastic Compliance Matrix: (Units=1/GPa)
#
#
# Indices 1 2 3 4 5 6 
#
# 1 0.019128 -0.002137 -0.001528 0.000000 0.009090 0.000000
# 2 -0.002137 0.009230 -0.000212 0.000000 0.001540 0.000000
# 3 -0.001528 -0.000212 0.012946 0.000000 0.006145 0.000000
# 4 0.000000 0.000000 0.000000 0.121087 0.000000 0.089508
# 5 0.009090 0.001540 0.006145 0.000000 0.039085 0.000000
# 6 0.000000 0.000000 0.000000 0.089508 0.000000 0.118265
#
#
# Mechanical properties :
#
#
# Convention : Reuss Voigt Hill
#
# Bulk Modulus (GPa) = 29.80439 39.36112 34.58276
# Shear Modulus (GPa) = 14.76331 29.06709 21.91520
#
# Velocity S-wave (km/s) = 2.42445 3.40191 2.95389
# Velocity P-wave (km/s) = 4.43890 5.57693 5.04014
#
# Compressibility (1/GPa) = 0.03355211
#
# Stress axis : x y z
#
# Youngs Moduli (GPa) = 52.27818 108.33753 77.24543
#
# Poissons Ratio (x) = 0.23146 0.11804
# Poissons Ratio (y) = 0.11169 0.01634
# Poissons Ratio (z) = 0.07989 0.02292
#
# Static dielectric constant tensor:
#      x y z
#    x 1.957000 0.000000 0.031890 
#    y 0.000000 2.045980 0.000000 
#    z 0.031890 0.000000 2.056850 
# 
# From -- ./inp_files/160830.got.cif
#   From: 2010.05.17/outbox.cif.g08.bks.cpg/sg15_81_cif.got.tgz:160830.got - 2010.06.03 18:47:42.
