data_PCOD9277414
_publ_section_title
;
Structure prediction by ZEFSAII (Michael W. Deem and Ramdas Pophale) SiO2 
 PCOD9277414
Probable space group: C 2/C
;
_chemical_formula_sum "Si O2"
_cell_formula_units_Z 40
_cell_length_a 18.945727
_cell_length_b 10.642978
_cell_length_c 9.961912
_cell_angle_alpha 90.000000
_cell_angle_beta 118.103473
_cell_angle_gamma 90.000000
_cell_volume 1771.879291
_symmetry_space_group_name_H-M "C 2/C"
_symmetry_group_IT_number 15
_symmetry_cell_setting 'monoclinic'
loop_
_space_group_symop_operation_xyz
x,y,z
-x,y,1/2-z
-x,-y,-z
x,-y,1/2+z
1/2+x,1/2+y,z
1/2-x,1/2+y,1/2-z
1/2-x,1/2-y,-z
1/2+x,1/2-y,1/2+z
loop_
_atom_site_type_symbol
_atom_site_label
_atom_site_fract_x
_atom_site_fract_y
_atom_site_fract_z
Si Si1 0.000000 0.798177 0.250000
Si Si2 0.782727 0.886685 0.893367
Si Si3 0.649485 0.137151 0.464321
Si Si4 0.121316 0.991206 0.262105
Si Si5 0.952754 0.566800 0.573312
Si Si6 0.500000 0.697406 0.250000
O O1 0.066179 0.711529 0.377362
O O2 0.049704 0.887091 0.190758
O O3 0.690237 0.883939 0.855542
O O4 0.821216 0.968417 0.808944
O O5 0.801684 0.736783 0.901981
O O6 0.825831 0.939682 0.067011
O O7 0.633444 0.998093 0.504390
O O8 0.071435 0.114571 0.256754
O O9 0.000000 0.528112 0.750000
O O10 0.000000 0.500000 0.500000
O O11 0.961734 0.715187 0.598631
#
# Coordination Sequence:
#
# PCOD9277414 Si02
#       6
#     4   8   8   8   8   4
#     4   9  19  38  68  90 115 161 220 248 298 371
#     4  10  23  39  65  89 128 160 204 256 316 365
#     4  10  20  41  62  90 120 167 204 253 306 371
#     4  10  21  41  63  93 123 164 205 254 309 367
#     4  10  21  36  58  86 118 156 200 249 298 356
#     4   9  21  38  62  90 123 157 208 256 294 363
#
# _framework density 22.574902000000002
#
# number of rings (size 3 to 8) (size 9 to 14) (size 15 to 20)
#    0.600    1.600    1.000    1.200    0.000   10.400 
#    7.200    1.000    0.000    0.000    0.000    0.000 
#    0.000    0.000    0.000    0.000    0.000    0.000 
#
# Total GULP energy -111396.717050 kJ/mol
# GULP energy per Si atom -5569.835852 kJ/mol
# Density = 2.252352 g / cm^3
# Si number density = 22.574902 Si / 1000 Ang^3
#
#
#
# Elastic Constant Matrix: (Units=GPa)
#
#
# Indices 1 2 3 4 5 6 
#
# 1 122.7663 35.4325 29.6283 0.0000 -14.2307 0.0000
# 2 35.4325 111.9229 21.5455 0.0000 -2.6689 0.0000
# 3 29.6283 21.5455 57.1061 0.0000 -24.4242 0.0000
# 4 0.0000 0.0000 0.0000 45.6588 0.0000 -21.7254
# 5 -14.2307 -2.6689 -24.4242 0.0000 28.5621 0.0000
# 6 0.0000 0.0000 0.0000 -21.7254 0.0000 76.1343
#
#
#
# Elastic Compliance Matrix: (Units=1/GPa)
#
#
# Indices 1 2 3 4 5 6 
#
# 1 0.009883 -0.002418 -0.003478 0.000000 0.001724 0.000000
# 2 -0.002418 0.010451 -0.004393 0.000000 -0.003984 0.000000
# 3 -0.003478 -0.004393 0.031621 0.000000 0.024897 0.000000
# 4 0.000000 0.000000 0.000000 0.025343 0.000000 0.007232
# 5 0.001724 -0.003984 0.024897 0.000000 0.056788 0.000000
# 6 0.000000 0.000000 0.000000 0.007232 0.000000 0.015198
#
#
# Mechanical properties :
#
#
# Convention : Reuss Voigt Hill
#
# Bulk Modulus (GPa) = 31.86933 51.66754 41.76844
# Shear Modulus (GPa) = 27.72852 43.75030 35.73941
#
# Velocity S-wave (km/s) = 3.50850 4.40706 3.98320
# Velocity P-wave (km/s) = 5.52816 6.98806 6.30054
#
# Compressibility (1/GPa) = 0.03137813
#
# Stress axis : x y z
#
# Youngs Moduli (GPa) = 101.18800 95.68648 31.62425
#
# Poissons Ratio (x) = 0.23137 0.10998
# Poissons Ratio (y) = 0.24468 0.13891
# Poissons Ratio (z) = 0.35190 0.42031
#
# Static dielectric constant tensor:
#      x y z
#    x 1.917340 0.000000 0.055600 
#    y 0.000000 1.906950 0.000000 
#    z 0.055600 0.000000 1.882290 
# 
# From -- ./inp_files/103377.got.cif
#   From: 2010.05.17/outbox.cif.g08.bks.cpg/sg15_52_cif.got.tgz:103377.got - 2010.06.03 18:47:42.
