data_PCOD9277317
_publ_section_title
;
Structure prediction by ZEFSAII (Michael W. Deem and Ramdas Pophale) SiO2 
 PCOD9277317
Probable space group: C 2/C
;
_chemical_formula_sum "Si O2"
_cell_formula_units_Z 44
_cell_length_a 17.976933
_cell_length_b 12.021784
_cell_length_c 10.419427
_cell_angle_alpha 90.000000
_cell_angle_beta 56.634076
_cell_angle_gamma 90.000000
_cell_volume 1880.640993
_symmetry_space_group_name_H-M "C 2/C"
_symmetry_group_IT_number 15
_symmetry_cell_setting 'monoclinic'
loop_
_space_group_symop_operation_xyz
x,y,z
-x,y,1/2-z
-x,-y,-z
x,-y,1/2+z
1/2+x,1/2+y,z
1/2-x,1/2+y,1/2-z
1/2-x,1/2-y,-z
1/2+x,1/2-y,1/2+z
loop_
_atom_site_type_symbol
_atom_site_label
_atom_site_fract_x
_atom_site_fract_y
_atom_site_fract_z
Si Si1 0.664349 0.537541 0.031530
Si Si2 0.500000 0.606114 0.750000
Si Si3 0.260277 0.919155 0.178289
Si Si4 0.099177 0.280338 0.105628
Si Si5 0.105331 0.476061 0.627883
Si Si6 0.367785 0.770205 0.721171
O O1 0.569136 0.474429 0.110020
O O2 0.713874 0.478924 0.101289
O O3 0.651303 0.666842 0.080317
O O4 0.716076 0.533102 0.848040
O O5 0.439166 0.685751 0.718369
O O6 0.227145 0.792087 0.201360
O O7 0.363026 0.940794 0.045825
O O8 0.134208 0.396756 0.128521
O O9 0.000000 0.263565 0.250000
O O10 0.099468 0.296553 0.952264
O O11 0.140238 0.378943 0.685998
O O12 0.000000 0.475748 0.750000
#
# Coordination Sequence:
#
# PCOD9277317 Si02
#       6
#     8   4   8   8   8   8
#     4  10  22  42  69  99 132 166 218 268 324 376
#     4  10  20  40  72  98 124 174 212 258 328 388
#     4  10  24  42  68  97 130 169 216 277 313 384
#     4  10  23  39  65  96 132 166 211 272 313 387
#     4  11  24  44  62  91 128 177 214 259 326 390
#     4  10  22  43  66  95 128 168 220 263 320 386
#
# _framework density 23.396277000000001
#
# number of rings (size 3 to 8) (size 9 to 14) (size 15 to 20)
#    0.000    1.818    1.818    0.545    5.091    5.818 
#    3.273    0.000    0.000    0.000    0.000    0.000 
#    0.000    0.000    0.000    0.000    0.000    0.000 
#
# Total GULP energy -123076.249566 kJ/mol
# GULP energy per Si atom -5594.374980 kJ/mol
# Density = 2.334303 g / cm^3
# Si number density = 23.396277 Si / 1000 Ang^3
#
#
#
# Elastic Constant Matrix: (Units=GPa)
#
#
# Indices 1 2 3 4 5 6 
#
# 1 42.7499 31.3897 36.2722 0.0000 -8.3291 0.0000
# 2 31.3897 162.8167 73.2606 0.0000 2.2404 0.0000
# 3 36.2722 73.2606 204.6473 0.0000 -8.8477 0.0000
# 4 0.0000 0.0000 0.0000 11.6957 0.0000 2.3302
# 5 -8.3291 2.2404 -8.8477 0.0000 38.9434 0.0000
# 6 0.0000 0.0000 0.0000 2.3302 0.0000 35.1715
#
#
#
# Elastic Compliance Matrix: (Units=1/GPa)
#
#
# Indices 1 2 3 4 5 6 
#
# 1 0.030885 -0.004400 -0.003638 0.000000 0.006032 0.000000
# 2 -0.004400 0.007989 -0.002162 0.000000 -0.001892 0.000000
# 3 -0.003638 -0.002162 0.006339 0.000000 0.000786 0.000000
# 4 0.000000 0.000000 0.000000 0.086645 0.000000 -0.005740
# 5 0.006032 -0.001892 0.000786 0.000000 0.027256 0.000000
# 6 0.000000 0.000000 0.000000 -0.005740 0.000000 0.028812
#
#
# Mechanical properties :
#
#
# Convention : Reuss Voigt Hill
#
# Bulk Modulus (GPa) = 40.30204 76.89544 58.59874
# Shear Modulus (GPa) = 23.08425 35.11489 29.09957
#
# Velocity S-wave (km/s) = 3.14453 3.87832 3.53054
# Velocity P-wave (km/s) = 5.51791 7.27963 6.45911
#
# Compressibility (1/GPa) = 0.02481264
#
# Stress axis : x y z
#
# Youngs Moduli (GPa) = 32.37816 125.17232 157.74946
#
# Poissons Ratio (x) = 0.55081 0.57390
# Poissons Ratio (y) = 0.14248 0.34102
# Poissons Ratio (z) = 0.11779 0.27060
#
# Static dielectric constant tensor:
#      x y z
#    x 1.934910 0.000000 -0.066950 
#    y 0.000000 1.870760 0.000000 
#    z -0.066950 0.000000 1.904350 
# 
# From -- ./inp_files/103631.got.cif
#   From: 2010.05.17/outbox.cif.g08.bks.cpg/sg15_52_cif.got.tgz:103631.got - 2010.06.03 18:47:42.
