data_PCOD9277623
_publ_section_title
;
Structure prediction by ZEFSAII (Michael W. Deem and Ramdas Pophale) SiO2 
 PCOD9277623
Probable space group: C 2/C
;
_chemical_formula_sum "Si O2"
_cell_formula_units_Z 48
_cell_length_a 17.287082
_cell_length_b 28.757882
_cell_length_c 9.813992
_cell_angle_alpha 90.000000
_cell_angle_beta 25.261740
_cell_angle_gamma 90.000000
_cell_volume 2082.101734
_symmetry_space_group_name_H-M "C 2/C"
_symmetry_group_IT_number 15
_symmetry_cell_setting 'monoclinic'
loop_
_space_group_symop_operation_xyz
x,y,z
-x,y,1/2-z
-x,-y,-z
x,-y,1/2+z
1/2+x,1/2+y,z
1/2-x,1/2+y,1/2-z
1/2-x,1/2-y,-z
1/2+x,1/2-y,1/2+z
loop_
_atom_site_type_symbol
_atom_site_label
_atom_site_fract_x
_atom_site_fract_y
_atom_site_fract_z
Si Si1 0.807222 0.980802 0.863406
Si Si2 0.500000 0.622529 0.750000
Si Si3 0.458180 0.765376 0.161397
Si Si4 0.083979 0.636976 0.767637
Si Si5 0.994819 0.836691 0.966710
Si Si6 0.160603 0.445560 0.810591
Si Si7 0.000000 0.906818 0.750000
O O1 0.692226 0.967046 0.912044
O O2 0.877687 0.939965 0.851000
O O3 0.000000 0.000000 0.500000
O O4 0.697141 0.016740 0.133980
O O5 0.476185 0.651776 0.652751
O O6 0.672779 0.590084 0.461102
O O7 0.500000 0.775145 0.250000
O O8 0.250000 0.750000 0.500000
O O9 0.489922 0.815570 0.041704
O O10 0.555781 0.717219 0.969412
O O11 0.295081 0.650528 0.407442
O O12 0.000000 0.632620 0.750000
O O13 0.013129 0.587769 0.939282
O O14 0.895634 0.872321 0.022053
#
# Coordination Sequence:
#
# PCOD9277623 Si02
#       7
#     8   4   8   8   8   8   4
#     4  12  21  38  65  96 131 175 230 279 326 399
#     4  12  21  36  66  96 132 176 220 275 342 394
#     4   9  19  37  68 102 131 175 225 276 341 421
#     4  10  20  41  66  92 137 172 219 272 347 403
#     4  11  22  38  68 102 127 172 224 276 336 408
#     4  12  23  40  68  94 131 181 224 280 335 399
#     4  12  19  36  64  94 126 162 230 271 308 408
#
# _framework density 23.053629000000001
#
# number of rings (size 3 to 8) (size 9 to 14) (size 15 to 20)
#    0.000    1.000    7.500    0.000    0.000    0.000 
#    0.000    4.167    0.000    5.000    0.000    0.000 
#    0.000    0.000    0.000    0.000    0.000    0.000 
#
# Total GULP energy -133849.105026 kJ/mol
# GULP energy per Si atom -5577.046043 kJ/mol
# Density = 2.300116 g / cm^3
# Si number density = 23.053629 Si / 1000 Ang^3
#
#
#
# Elastic Constant Matrix: (Units=GPa)
#
#
# Indices 1 2 3 4 5 6 
#
# 1 82.0373 52.0855 48.0631 -0.0012 21.8431 -0.0014
# 2 52.0855 216.9288 56.6591 -0.0009 37.8545 -0.0001
# 3 48.0631 56.6591 77.3495 -0.0024 8.5051 -0.0016
# 4 -0.0012 -0.0009 -0.0024 -2.5850 0.0018 -13.5316
# 5 21.8431 37.8545 8.5051 0.0018 49.2451 0.0016
# 6 -0.0014 -0.0001 -0.0016 -13.5316 0.0016 10.6851
#
#
#
# Elastic Compliance Matrix: (Units=1/GPa)
#
#
# Indices 1 2 3 4 5 6 
#
# 1 0.021617 -0.000844 -0.012060 -0.000002 -0.006857 0.000000
# 2 -0.000844 0.006496 -0.003798 0.000000 -0.003963 0.000000
# 3 -0.012060 -0.003798 0.022727 -0.000002 0.004344 -0.000002
# 4 -0.000002 0.000000 -0.000002 -0.050706 0.000005 -0.064215
# 5 -0.006857 -0.003963 0.004344 0.000005 0.025644 0.000002
# 6 0.000000 0.000000 -0.000002 -0.064215 0.000002 0.012267
#
#
# Mechanical properties :
#
#
# Convention : Reuss Voigt Hill
#
# Bulk Modulus (GPa) = 57.35523 76.65899 67.00711
# Shear Modulus (GPa) = 64.71639 26.10291 45.40965
#
# Velocity S-wave (km/s) = 5.30406 3.36857 4.44299
# Velocity P-wave (km/s) = 7.90214 6.96092 7.44641
#
# Compressibility (1/GPa) = 0.01743520
#
# Stress axis : x y z
#
# Youngs Moduli (GPa) = 46.26093 153.93927 44.00103
#
# Poissons Ratio (x) = 0.12989 0.53065
# Poissons Ratio (y) = 0.03904 0.16713
# Poissons Ratio (z) = 0.55790 0.58471
#
# Static dielectric constant tensor:
#      x y z
#    x 1.910250 0.000000 -0.107020 
#    y 0.000000 2.012330 0.000000 
#    z -0.107020 0.000000 1.885540 
# 
# From -- ./inp_files/52754.got.cif
#   From: 2010.05.17/outbox.cif.g08.bks.cpg/sg15_27_cif.got.tgz:52754.got - 2010.06.03 18:47:42.
