data_PCOD9277532
_publ_section_title
;
Structure prediction by ZEFSAII (Michael W. Deem and Ramdas Pophale) SiO2 
 PCOD9277532
Probable space group: C 2/C
;
_chemical_formula_sum "Si O2"
_cell_formula_units_Z 44
_cell_length_a 5.314693
_cell_length_b 26.324724
_cell_length_c 15.342342
_cell_angle_alpha 90.000000
_cell_angle_beta 68.582228
_cell_angle_gamma 90.000000
_cell_volume 1998.281050
_symmetry_space_group_name_H-M "C 2/C"
_symmetry_group_IT_number 15
_symmetry_cell_setting 'monoclinic'
loop_
_space_group_symop_operation_xyz
x,y,z
-x,y,1/2-z
-x,-y,-z
x,-y,1/2+z
1/2+x,1/2+y,z
1/2-x,1/2+y,1/2-z
1/2-x,1/2-y,-z
1/2+x,1/2-y,1/2+z
loop_
_atom_site_type_symbol
_atom_site_label
_atom_site_fract_x
_atom_site_fract_y
_atom_site_fract_z
Si Si1 0.823414 0.352754 0.691988
Si Si2 0.453184 0.882320 0.100825
Si Si3 0.828291 0.958056 0.086572
Si Si4 0.507884 0.783610 0.993504
Si Si5 0.876797 0.443840 0.930708
Si Si6 0.500000 0.557340 0.750000
O O1 0.500000 0.357080 0.750000
O O2 0.000000 0.331590 0.750000
O O3 0.880567 0.316597 0.602112
O O4 0.966635 0.407407 0.654740
O O5 0.735285 0.899534 0.106401
O O6 0.426490 0.824736 0.076981
O O7 0.237928 0.905218 0.192436
O O8 0.439801 0.915682 0.013226
O O9 0.930382 0.973089 0.170095
O O10 0.581012 0.996652 0.094988
O O11 0.049552 0.951464 0.981011
O O12 0.250000 0.750000 0.000000
O O13 0.750000 0.750000 0.000000
#
# Coordination Sequence:
#
# PCOD9277532 Si02
#       6
#     8   8   8   8   8   4
#     4  11  25  46  70 106 144 178 231 298 348 411
#     4  10  22  40  69  90 138 172 230 281 343 408
#     4  10  20  41  64  99 137 187 230 271 337 418
#     4  11  26  48  76  99 133 183 230 286 360 422
#     4   9  22  39  67  95 137 186 230 270 343 410
#     4  10  22  38  60 100 140 172 222 286 334 402
#
# _framework density 22.018926
#
# number of rings (size 3 to 8) (size 9 to 14) (size 15 to 20)
#    0.000    1.818    0.000    2.182   12.727    1.455 
#    8.182    0.000    0.000    0.000    0.000    0.000 
#    0.000    0.000    0.000    0.000    0.000    0.000 
#
# Total GULP energy -122500.531457 kJ/mol
# GULP energy per Si atom -5568.205975 kJ/mol
# Density = 2.196881 g / cm^3
# Si number density = 22.018926 Si / 1000 Ang^3
#
#
#
# Elastic Constant Matrix: (Units=GPa)
#
#
# Indices 1 2 3 4 5 6 
#
# 1 106.9812 59.0031 37.8371 0.0000 -15.4174 0.0000
# 2 59.0031 139.4813 37.2554 0.0000 -3.3276 0.0000
# 3 37.8371 37.2554 111.6473 0.0000 -18.7337 0.0000
# 4 0.0000 0.0000 0.0000 28.7689 0.0000 5.9555
# 5 -15.4174 -3.3276 -18.7337 0.0000 30.3626 0.0000
# 6 0.0000 0.0000 0.0000 5.9555 0.0000 27.9468
#
#
#
# Elastic Compliance Matrix: (Units=1/GPa)
#
#
# Indices 1 2 3 4 5 6 
#
# 1 0.013616 -0.005087 -0.002064 0.000000 0.005083 0.000000
# 2 -0.005087 0.009791 -0.002004 0.000000 -0.002747 0.000000
# 3 -0.002064 -0.002004 0.011280 0.000000 0.005692 0.000000
# 4 0.000000 0.000000 0.000000 0.036364 0.000000 -0.007749
# 5 0.005083 -0.002747 0.005692 0.000000 0.038727 0.000000
# 6 0.000000 0.000000 0.000000 -0.007749 0.000000 0.037434
#
#
# Mechanical properties :
#
#
# Convention : Reuss Voigt Hill
#
# Bulk Modulus (GPa) = 61.06269 69.58902 65.32586
# Shear Modulus (GPa) = 29.24309 32.34992 30.79651
#
# Velocity S-wave (km/s) = 3.64825 3.83716 3.74389
# Velocity P-wave (km/s) = 6.74822 7.16271 6.95855
#
# Compressibility (1/GPa) = 0.01637661
#
# Stress axis : x y z
#
# Youngs Moduli (GPa) = 73.44535 102.13355 88.65183
#
# Poissons Ratio (x) = 0.51956 0.18297
# Poissons Ratio (y) = 0.37362 0.17766
# Poissons Ratio (z) = 0.15159 0.20468
#
# Static dielectric constant tensor:
#      x y z
#    x 2.144820 0.000000 -0.184900 
#    y 0.000000 1.882970 0.000000 
#    z -0.184900 0.000000 2.086410 
# 
# From -- ./inp_files/129721.got.cif
#   From: 2010.05.17/outbox.cif.g08.bks.cpg/sg15_65_cif.got.tgz:129721.got - 2010.06.03 18:47:42.
