data_PCOD9277958
_publ_section_title
;
Structure prediction by ZEFSAII (Michael W. Deem and Ramdas Pophale) SiO2 
 PCOD9277958
Probable space group: C 2/C
;
_chemical_formula_sum "Si O2"
_cell_formula_units_Z 56
_cell_length_a 14.065473
_cell_length_b 12.107712
_cell_length_c 22.033772
_cell_angle_alpha 90.000000
_cell_angle_beta 127.429762
_cell_angle_gamma 90.000000
_cell_volume 2979.750710
_symmetry_space_group_name_H-M "C 2/C"
_symmetry_group_IT_number 15
_symmetry_cell_setting 'monoclinic'
loop_
_space_group_symop_operation_xyz
x,y,z
-x,y,1/2-z
-x,-y,-z
x,-y,1/2+z
1/2+x,1/2+y,z
1/2-x,1/2+y,1/2-z
1/2-x,1/2-y,-z
1/2+x,1/2-y,1/2+z
loop_
_atom_site_type_symbol
_atom_site_label
_atom_site_fract_x
_atom_site_fract_y
_atom_site_fract_z
Si Si1 0.490191 0.508972 0.398491
Si Si2 0.375627 0.470654 0.665619
Si Si3 0.470832 0.687709 0.497656
Si Si4 0.228849 0.581441 0.764858
Si Si5 0.391592 0.864356 0.753892
Si Si6 0.316840 0.799394 0.857242
Si Si7 0.228281 0.677313 0.637346
O O1 0.585241 0.553891 0.387531
O O2 0.470177 0.604746 0.440046
O O3 0.538885 0.397935 0.450005
O O4 0.363842 0.471902 0.318143
O O5 0.500000 0.461851 0.750000
O O6 0.272792 0.392843 0.653426
O O7 0.326878 0.595828 0.648010
O O8 0.593274 0.753936 0.557020
O O9 0.369613 0.779297 0.447450
O O10 0.145441 0.491600 0.763197
O O11 0.239355 0.694758 0.805308
O O12 0.184583 0.610588 0.680080
O O13 0.500000 0.843497 0.750000
O O14 0.393550 0.835563 0.826936
O O15 0.288324 0.786085 0.688175
#
# Coordination Sequence:
#
# PCOD9277958 Si02
#       7
#     8   8   8   8   8   8   8
#     4  10  21  43  67  88 125 172 210 247 317 380
#     4  12  23  40  66  95 124 167 216 257 308 372
#     4  10  23  42  63  90 132 167 203 259 318 375
#     4  10  20  42  63  91 123 164 210 258 306 367
#     4  11  22  40  63  93 122 163 213 266 306 365
#     4  10  24  42  62  93 130 164 209 260 312 375
#     4  11  22  38  66  91 124 162 206 264 304 369
#
# _framework density 18.793519
#
# number of rings (size 3 to 8) (size 9 to 14) (size 15 to 20)
#    0.000    1.429    4.286    0.429    6.000    2.286 
#    0.000    0.000    0.000    0.000    0.000    0.000 
#    0.000    0.000    0.000    0.000    0.000    0.000 
#
# Total GULP energy -156089.313063 kJ/mol
# GULP energy per Si atom -5574.618324 kJ/mol
# Density = 1.875074 g / cm^3
# Si number density = 18.793519 Si / 1000 Ang^3
#
#
#
# Elastic Constant Matrix: (Units=GPa)
#
#
# Indices 1 2 3 4 5 6 
#
# 1 55.3084 30.0948 12.4918 0.0000 -2.1863 0.0000
# 2 30.0948 96.7124 31.4390 0.0000 6.8142 0.0000
# 3 12.4918 31.4390 62.5187 0.0000 7.1787 0.0000
# 4 0.0000 0.0000 0.0000 16.1502 0.0000 13.0786
# 5 -2.1863 6.8142 7.1787 0.0000 12.5426 0.0000
# 6 0.0000 0.0000 0.0000 13.0786 0.0000 18.1562
#
#
#
# Elastic Compliance Matrix: (Units=1/GPa)
#
#
# Indices 1 2 3 4 5 6 
#
# 1 0.022724 -0.007043 -0.002026 0.000000 0.008947 0.000000
# 2 -0.007043 0.014679 -0.005264 0.000000 -0.006190 0.000000
# 3 -0.002026 -0.005264 0.020079 0.000000 -0.008986 0.000000
# 4 0.000000 0.000000 0.000000 0.148609 0.000000 -0.107049
# 5 0.008947 -0.006190 -0.008986 0.000000 0.089794 0.000000
# 6 0.000000 0.000000 0.000000 -0.107049 0.000000 0.132189
#
#
# Mechanical properties :
#
#
# Convention : Reuss Voigt Hill
#
# Bulk Modulus (GPa) = 34.70265 40.28784 37.49524
# Shear Modulus (GPa) = 10.72170 18.73738 14.72954
#
# Velocity S-wave (km/s) = 2.39111 3.16098 2.80260
# Velocity P-wave (km/s) = 5.11160 5.89966 5.51971
#
# Compressibility (1/GPa) = 0.02881625
#
# Stress axis : x y z
#
# Youngs Moduli (GPa) = 44.00644 68.12576 49.80404
#
# Poissons Ratio (x) = 0.47981 0.10091
# Poissons Ratio (y) = 0.30994 0.26215
# Poissons Ratio (z) = 0.08916 0.35858
#
# Static dielectric constant tensor:
#      x y z
#    x 1.673310 0.000000 -0.026410 
#    y 0.000000 1.651330 0.000000 
#    z -0.026410 0.000000 1.665230 
# 
# From -- ./inp_files/295949.got.cif
#   From: 2010.05.17/outbox.cif.g08.bks.cpg/sg15_148_cif.got.tgz:295949.got - 2010.06.03 18:47:42.
