data_PCOD9277987
_publ_section_title
;
Structure prediction by ZEFSAII (Michael W. Deem and Ramdas Pophale) SiO2 
 PCOD9277987
Probable space group: C 2/C
;
_chemical_formula_sum "Si O2"
_cell_formula_units_Z 44
_cell_length_a 13.717827
_cell_length_b 18.885354
_cell_length_c 10.409614
_cell_angle_alpha 90.000000
_cell_angle_beta 134.305863
_cell_angle_gamma 90.000000
_cell_volume 1929.871145
_symmetry_space_group_name_H-M "C 2/C"
_symmetry_group_IT_number 15
_symmetry_cell_setting 'monoclinic'
loop_
_space_group_symop_operation_xyz
x,y,z
-x,y,1/2-z
-x,-y,-z
x,-y,1/2+z
1/2+x,1/2+y,z
1/2-x,1/2+y,1/2-z
1/2-x,1/2-y,-z
1/2+x,1/2-y,1/2+z
loop_
_atom_site_type_symbol
_atom_site_label
_atom_site_fract_x
_atom_site_fract_y
_atom_site_fract_z
Si Si1 0.577630 0.126276 0.205967
Si Si2 0.298056 0.732275 0.399084
Si Si3 0.495061 0.613609 0.953075
Si Si4 0.283031 0.507022 0.453288
Si Si5 0.307614 0.887549 0.320268
Si Si6 0.000000 0.919770 0.750000
O O1 0.500000 0.165645 0.250000
O O2 0.681431 0.179923 0.235419
O O3 0.668075 0.066192 0.358013
O O4 0.457353 0.094279 0.011240
O O5 0.250000 0.750000 0.500000
O O6 0.433384 0.684914 0.528353
O O7 0.315465 0.801816 0.328283
O O8 0.595056 0.548771 0.008898
O O9 0.482869 0.618807 0.097540
O O10 0.344024 0.604819 0.754817
O O11 0.213771 0.441724 0.315292
O O12 0.364671 0.467847 0.640689
#
# Coordination Sequence:
#
# PCOD9277987 Si02
#       6
#     8   8   8   8   8   4
#     4  11  23  37  60  95 129 161 200 266 320 373
#     4  11  23  41  62  94 126 164 208 259 323 374
#     4  10  24  39  65  91 123 166 212 264 308 382
#     4  10  24  39  62  91 122 169 208 262 310 374
#     4  11  21  39  61  90 125 161 209 251 320 373
#     4  10  20  42  64  88 122 168 222 254 312 376
#
# _framework density 22.799448999999999
#
# number of rings (size 3 to 8) (size 9 to 14) (size 15 to 20)
#    0.000    1.455    1.818    3.818    5.091    0.000 
#    0.000    3.636    2.000    0.000    0.000    0.000 
#    0.000    0.000    0.000    0.000    0.000    0.000 
#
# Total GULP energy -122589.706609 kJ/mol
# GULP energy per Si atom -5572.259391 kJ/mol
# Density = 2.274756 g / cm^3
# Si number density = 22.799449 Si / 1000 Ang^3
#
#
#
# Elastic Constant Matrix: (Units=GPa)
#
#
# Indices 1 2 3 4 5 6 
#
# 1 44.7292 17.5958 22.7925 0.0000 13.0843 0.0000
# 2 17.5958 108.6032 32.2669 0.0000 -1.4147 0.0000
# 3 22.7925 32.2669 155.3869 0.0000 39.4961 0.0000
# 4 0.0000 0.0000 0.0000 32.5256 0.0000 7.0772
# 5 13.0843 -1.4147 39.4961 0.0000 36.3377 0.0000
# 6 0.0000 0.0000 0.0000 7.0772 0.0000 32.5901
#
#
#
# Elastic Compliance Matrix: (Units=1/GPa)
#
#
# Indices 1 2 3 4 5 6 
#
# 1 0.027090 -0.004276 -0.000779 0.000000 -0.009074 0.000000
# 2 -0.004276 0.010839 -0.002932 0.000000 0.005149 0.000000
# 3 -0.000779 -0.002932 0.009833 0.000000 -0.010521 0.000000
# 4 0.000000 0.000000 0.000000 0.032270 0.000000 -0.007008
# 5 -0.009074 0.005149 -0.010521 0.000000 0.042423 0.000000
# 6 0.000000 0.000000 0.000000 -0.007008 0.000000 0.032206
#
#
# Mechanical properties :
#
#
# Convention : Reuss Voigt Hill
#
# Bulk Modulus (GPa) = 31.45906 50.44773 40.95339
# Shear Modulus (GPa) = 27.58900 36.02828 31.80864
#
# Velocity S-wave (km/s) = 3.48238 3.97952 3.73922
# Velocity P-wave (km/s) = 5.47699 6.57953 6.05341
#
# Compressibility (1/GPa) = 0.03178734
#
# Stress axis : x y z
#
# Youngs Moduli (GPa) = 36.91365 92.26065 101.69770
#
# Poissons Ratio (x) = 0.39449 0.07926
# Poissons Ratio (y) = 0.15783 0.29820
# Poissons Ratio (z) = 0.02877 0.27053
#
# Static dielectric constant tensor:
#      x y z
#    x 1.878250 0.000000 -0.002240 
#    y 0.000000 1.878350 0.000000 
#    z -0.002240 0.000000 1.920070 
# 
# From -- ./inp_files/99669.got.cif
#   From: 2010.05.17/outbox.cif.g08.bks.cpg/sg15_50_cif.got.tgz:99669.got - 2010.06.03 18:47:42.
