data_PCOD9277830
_publ_section_title
;
Structure prediction by ZEFSAII (Michael W. Deem and Ramdas Pophale) SiO2 
 PCOD9277830
Probable space group: C 2/C
;
_chemical_formula_sum "Si O2"
_cell_formula_units_Z 56
_cell_length_a 15.413245
_cell_length_b 8.316793
_cell_length_c 21.118614
_cell_angle_alpha 90.000000
_cell_angle_beta 112.466941
_cell_angle_gamma 90.000000
_cell_volume 2501.695472
_symmetry_space_group_name_H-M "C 2/C"
_symmetry_group_IT_number 15
_symmetry_cell_setting 'monoclinic'
loop_
_space_group_symop_operation_xyz
x,y,z
-x,y,1/2-z
-x,-y,-z
x,-y,1/2+z
1/2+x,1/2+y,z
1/2-x,1/2+y,1/2-z
1/2-x,1/2-y,-z
1/2+x,1/2-y,1/2+z
loop_
_atom_site_type_symbol
_atom_site_label
_atom_site_fract_x
_atom_site_fract_y
_atom_site_fract_z
Si Si1 0.202431 0.969849 0.845216
Si Si2 0.223800 0.230333 0.065352
Si Si3 0.520538 0.823388 0.059902
Si Si4 0.451453 0.234740 0.673037
Si Si5 0.666785 0.326100 0.219756
Si Si6 0.683456 0.011904 0.313979
Si Si7 0.411915 0.827861 0.912560
O O1 0.211366 0.136461 0.883842
O O2 0.160549 0.023668 0.765782
O O3 0.138131 0.845401 0.863364
O O4 0.308251 0.901901 0.874060
O O5 0.116329 0.272755 0.051896
O O6 0.249461 0.432447 0.890402
O O7 0.250000 0.250000 0.000000
O O8 0.515194 0.758273 0.129287
O O9 0.520091 0.016771 0.071980
O O10 0.564134 0.230348 0.009959
O O11 0.500000 0.293653 0.750000
O O12 0.410283 0.059601 0.680914
O O13 0.764634 0.370655 0.211136
O O14 0.586855 0.300733 0.143932
O O15 0.669702 0.162006 0.262152
#
# Coordination Sequence:
#
# PCOD9277830 Si02
#       7
#     8   8   8   8   8   8   8
#     4  10  23  42  70  96 137 184 225 282 346 412
#     4  10  25  48  70  96 138 182 231 283 352 418
#     4  10  25  42  70 101 136 181 229 287 345 409
#     4  12  26  43  68 106 139 179 235 288 345 411
#     4  11  20  41  69  99 132 186 230 272 339 416
#     4  11  23  39  72  97 134 182 232 276 345 415
#     4  10  20  41  71  95 135 177 232 279 337 410
#
# _framework density 22.384819
#
# number of rings (size 3 to 8) (size 9 to 14) (size 15 to 20)
#    0.000    1.429    2.857    0.857   12.000    1.714 
#    2.571    2.857    0.000    0.000    0.000    0.000 
#    0.000    0.000    0.000    0.000    0.000    0.000 
#
# Total GULP energy -156185.578776 kJ/mol
# GULP energy per Si atom -5578.056385 kJ/mol
# Density = 2.233387 g / cm^3
# Si number density = 22.384819 Si / 1000 Ang^3
#
#
#
# Elastic Constant Matrix: (Units=GPa)
#
#
# Indices 1 2 3 4 5 6 
#
# 1 61.6133 29.0418 59.3145 0.0000 -12.5794 0.0000
# 2 29.0418 44.1187 22.9746 0.0000 0.6010 0.0000
# 3 59.3145 22.9746 177.7213 0.0000 -7.3444 0.0000
# 4 0.0000 0.0000 0.0000 22.7373 0.0000 9.7663
# 5 -12.5794 0.6010 -7.3444 0.0000 41.7997 0.0000
# 6 0.0000 0.0000 0.0000 9.7663 0.0000 26.6993
#
#
#
# Elastic Compliance Matrix: (Units=1/GPa)
#
#
# Indices 1 2 3 4 5 6 
#
# 1 0.035933 -0.019022 -0.009142 0.000000 0.009481 0.000000
# 2 -0.019022 0.034406 0.001656 0.000000 -0.005928 0.000000
# 3 -0.009142 0.001656 0.008410 0.000000 -0.001297 0.000000
# 4 0.000000 0.000000 0.000000 0.052179 0.000000 -0.019086
# 5 0.009481 -0.005928 -0.001297 0.000000 0.026634 0.000000
# 6 0.000000 0.000000 0.000000 -0.019086 0.000000 0.044436
#
#
# Mechanical properties :
#
#
# Convention : Reuss Voigt Hill
#
# Bulk Modulus (GPa) = 38.86009 56.23499 47.54754
# Shear Modulus (GPa) = 18.96879 29.72210 24.34544
#
# Velocity S-wave (km/s) = 2.91416 3.64782 3.30144
# Velocity P-wave (km/s) = 5.35918 6.55123 5.98496
#
# Compressibility (1/GPa) = 0.02573334
#
# Stress axis : x y z
#
# Youngs Moduli (GPa) = 27.82983 29.06465 118.90362
#
# Poissons Ratio (x) = 0.55286 1.08698
# Poissons Ratio (y) = 0.52937 -0.19688
# Poissons Ratio (z) = 0.25441 -0.04812
#
# Static dielectric constant tensor:
#      x y z
#    x 1.825700 0.000000 -0.004100 
#    y 0.000000 1.873920 0.000000 
#    z -0.004100 0.000000 1.935090 
# 
# From -- ./inp_files/246979.got.cif
#   From: 2010.05.17/outbox.cif.g08.bks.cpg/sg15_124_cif.got.tgz:246979.got - 2010.06.03 18:47:42.
