data_PCOD9277515
_publ_section_title
;
Structure prediction by ZEFSAII (Michael W. Deem and Ramdas Pophale) SiO2 
 PCOD9277515
Probable space group: C 2/C
;
_chemical_formula_sum "Si O2"
_cell_formula_units_Z 64
_cell_length_a 8.280346
_cell_length_b 13.257157
_cell_length_c 25.640279
_cell_angle_alpha 90.000000
_cell_angle_beta 90.914089
_cell_angle_gamma 90.000000
_cell_volume 2814.273872
_symmetry_space_group_name_H-M "C 2/C"
_symmetry_group_IT_number 15
_symmetry_cell_setting 'monoclinic'
loop_
_space_group_symop_operation_xyz
x,y,z
-x,y,1/2-z
-x,-y,-z
x,-y,1/2+z
1/2+x,1/2+y,z
1/2-x,1/2+y,1/2-z
1/2-x,1/2-y,-z
1/2+x,1/2-y,1/2+z
loop_
_atom_site_type_symbol
_atom_site_label
_atom_site_fract_x
_atom_site_fract_y
_atom_site_fract_z
Si Si1 0.124894 0.408089 0.505094
Si Si2 0.657491 0.513320 0.402194
Si Si3 0.133407 0.413127 0.679753
Si Si4 0.334540 0.411672 0.403982
Si Si5 0.809458 0.299949 0.370815
Si Si6 0.466380 0.791323 0.587704
Si Si7 0.586349 0.104470 0.818142
Si Si8 0.321968 0.723232 0.745294
O O1 0.259015 0.431428 0.549437
O O2 0.215166 0.394357 0.451464
O O3 0.022786 0.317952 0.529941
O O4 0.000000 0.500000 0.500000
O O5 0.694826 0.566869 0.347323
O O6 0.472256 0.494001 0.413549
O O7 0.751657 0.407199 0.393980
O O8 0.025598 0.371633 0.630942
O O9 0.156671 0.330723 0.725046
O O10 0.043648 0.516835 0.695106
O O11 0.435908 0.309168 0.395208
O O12 0.229385 0.440538 0.353705
O O13 0.726293 0.221768 0.409489
O O14 0.722724 0.273562 0.315470
O O15 0.993756 0.315081 0.355216
O O16 0.678961 0.162643 0.772903
O O17 0.500000 0.673538 0.750000
#
# Coordination Sequence:
#
# PCOD9277515 Si02
#       8
#     8   8   8   8   8   8   8   8
#     4  11  22  39  63  99 136 178 233 284 349 424
#     4   9  21  40  66  95 134 178 223 285 348 411
#     4  10  21  42  65  96 133 173 224 286 343 419
#     4  11  20  41  66  96 134 184 226 283 350 417
#     4  10  21  41  64  91 131 174 224 284 346 411
#     4  10  20  41  64  93 131 175 221 280 345 406
#     4  11  24  43  67  98 134 182 227 288 353 418
#     4  12  22  42  69  95 134 180 229 283 354 419
#
# _framework density 22.741212999999998
#
# number of rings (size 3 to 8) (size 9 to 14) (size 15 to 20)
#    0.000    1.500    2.500    4.125    0.000    2.000 
#    4.500    6.875    0.000    0.000    0.000    0.000 
#    0.000    0.000    0.000    0.000    0.000    0.000 
#
# Total GULP energy -178724.240566 kJ/mol
# GULP energy per Si atom -5585.132518 kJ/mol
# Density = 2.268945 g / cm^3
# Si number density = 22.741213 Si / 1000 Ang^3
#
#
#
# Elastic Constant Matrix: (Units=GPa)
#
#
# Indices 1 2 3 4 5 6 
#
# 1 92.5771 17.6844 21.1354 0.0000 -28.8165 0.0000
# 2 17.6844 58.5244 15.9808 0.0000 -15.1883 0.0000
# 3 21.1354 15.9808 89.4603 0.0000 -28.4851 0.0000
# 4 0.0000 0.0000 0.0000 36.3402 0.0000 -5.9937
# 5 -28.8165 -15.1883 -28.4851 0.0000 43.9792 0.0000
# 6 0.0000 0.0000 0.0000 -5.9937 0.0000 36.5360
#
#
#
# Elastic Compliance Matrix: (Units=1/GPa)
#
#
# Indices 1 2 3 4 5 6 
#
# 1 0.013786 -0.001965 -0.000310 0.000000 0.008154 0.000000
# 2 -0.001965 0.019238 -0.001596 0.000000 0.004323 0.000000
# 3 -0.000310 -0.001596 0.014231 0.000000 0.008463 0.000000
# 4 0.000000 0.000000 0.000000 0.028283 0.000000 0.004640
# 5 0.008154 0.004323 0.008463 0.000000 0.035055 0.000000
# 6 0.000000 0.000000 0.000000 0.004640 0.000000 0.028131
#
#
# Mechanical properties :
#
#
# Convention : Reuss Voigt Hill
#
# Bulk Modulus (GPa) = 25.30755 38.90699 32.10727
# Shear Modulus (GPa) = 31.32089 35.75517 33.53803
#
# Velocity S-wave (km/s) = 3.71519 3.96948 3.84444
# Velocity P-wave (km/s) = 5.43656 6.17695 5.81854
#
# Compressibility (1/GPa) = 0.03951391
#
# Stress axis : x y z
#
# Youngs Moduli (GPa) = 72.53791 51.97960 70.26787
#
# Poissons Ratio (x) = 0.10214 0.02176
# Poissons Ratio (y) = 0.14254 0.11215
# Poissons Ratio (z) = 0.02247 0.08296
#
# Static dielectric constant tensor:
#      x y z
#    x 1.870910 0.000000 -0.037620 
#    y 0.000000 1.901650 0.000000 
#    z -0.037620 0.000000 1.831800 
# 
# From -- ./inp_files/288758.got.cif
#   From: 2010.05.17/outbox.cif.g08.bks.cpg/sg15_145_cif.got.tgz:288758.got - 2010.06.03 18:47:42.
