data_PCOD9277986
_publ_section_title
;
Structure prediction by ZEFSAII (Michael W. Deem and Ramdas Pophale) SiO2 
 PCOD9277986
Probable space group: C 2/C
;
_chemical_formula_sum "Si O2"
_cell_formula_units_Z 36
_cell_length_a 19.235989
_cell_length_b 6.829709
_cell_length_c 15.330904
_cell_angle_alpha 90.000000
_cell_angle_beta 134.489978
_cell_angle_gamma 90.000000
_cell_volume 1436.816067
_symmetry_space_group_name_H-M "C 2/C"
_symmetry_group_IT_number 15
_symmetry_cell_setting 'monoclinic'
loop_
_space_group_symop_operation_xyz
x,y,z
-x,y,1/2-z
-x,-y,-z
x,-y,1/2+z
1/2+x,1/2+y,z
1/2-x,1/2+y,1/2-z
1/2-x,1/2-y,-z
1/2+x,1/2-y,1/2+z
loop_
_atom_site_type_symbol
_atom_site_label
_atom_site_fract_x
_atom_site_fract_y
_atom_site_fract_z
Si Si1 0.929953 0.062056 0.352784
Si Si2 0.922651 0.618420 0.992209
Si Si3 0.000000 0.407905 0.750000
Si Si4 0.180577 0.684307 0.861949
Si Si5 0.860611 0.204601 0.924399
O O1 0.896560 0.203693 0.404939
O O2 0.874312 0.123621 0.219396
O O3 0.043693 0.120460 0.440622
O O4 0.895010 0.853000 0.357441
O O5 0.848308 0.435482 0.934746
O O6 0.959742 0.679912 0.121785
O O7 0.000000 0.500000 0.000000
O O8 0.094030 0.534564 0.804255
O O9 0.258000 0.609004 0.858508
O O10 0.250000 0.750000 0.000000
#
# Coordination Sequence:
#
# PCOD9277986 Si02
#       5
#     8   8   4   8   8
#     4  10  23  42  63  96 124 162 218 253 314 380
#     4  10  20  42  64  87 129 166 199 265 312 363
#     4  12  22  40  64  98 126 164 218 254 316 384
#     4  12  22  37  65  94 128 169 208 259 317 374
#     4  10  22  39  65  91 120 171 205 255 319 363
#
# _framework density 25.055396999999999
#
# number of rings (size 3 to 8) (size 9 to 14) (size 15 to 20)
#    0.000    1.333    6.667    0.000    3.111    0.000 
#    0.000    8.889    0.000    0.000    0.000    0.000 
#    0.000    0.000    0.000    0.000    0.000    0.000 
#
# Total GULP energy -100306.171966 kJ/mol
# GULP energy per Si atom -5572.565109 kJ/mol
# Density = 2.499837 g / cm^3
# Si number density = 25.055397 Si / 1000 Ang^3
#
#
#
# Elastic Constant Matrix: (Units=GPa)
#
#
# Indices 1 2 3 4 5 6 
#
# 1 117.5703 2.3312 0.9556 0.0000 31.8463 0.0000
# 2 2.3312 77.6168 9.1266 0.0000 -5.6657 0.0000
# 3 0.9556 9.1266 130.9053 0.0000 -6.4534 0.0000
# 4 0.0000 0.0000 0.0000 30.0160 0.0000 -9.5023
# 5 31.8463 -5.6657 -6.4534 0.0000 51.6346 0.0000
# 6 0.0000 0.0000 0.0000 -9.5023 0.0000 30.4940
#
#
#
# Elastic Compliance Matrix: (Units=1/GPa)
#
#
# Indices 1 2 3 4 5 6 
#
# 1 0.010273 -0.000740 -0.000342 0.000000 -0.006460 0.000000
# 2 -0.000740 0.013134 -0.000822 0.000000 0.001795 0.000000
# 3 -0.000342 -0.000822 0.007753 0.000000 0.001090 0.000000
# 4 0.000000 0.000000 0.000000 0.036962 0.000000 0.011518
# 5 -0.006460 0.001795 0.001090 0.000000 0.023684 0.000000
# 6 0.000000 0.000000 0.000000 0.011518 0.000000 0.036382
#
#
# Mechanical properties :
#
#
# Convention : Reuss Voigt Hill
#
# Bulk Modulus (GPa) = 36.56042 38.99101 37.77571
# Shear Modulus (GPa) = 35.43292 43.34086 39.38689
#
# Velocity S-wave (km/s) = 3.76464 4.16360 3.96914
# Velocity P-wave (km/s) = 5.78966 6.22172 6.00958
#
# Compressibility (1/GPa) = 0.02735199
#
# Stress axis : x y z
#
# Youngs Moduli (GPa) = 97.34489 76.14020 128.98869
#
# Poissons Ratio (x) = 0.05633 0.04410
# Poissons Ratio (y) = 0.07202 0.10600
# Poissons Ratio (z) = 0.03328 0.06257
#
# Static dielectric constant tensor:
#      x y z
#    x 2.185860 0.000000 -0.043710 
#    y 0.000000 2.256360 0.000000 
#    z -0.043710 0.000000 2.054770 
# 
# From -- ./inp_files/159042.got.cif
#   From: 2010.05.17/outbox.cif.g08.bks.cpg/sg15_80_cif.got.tgz:159042.got - 2010.06.03 18:47:42.
