data_PCOD9277770
_publ_section_title
;
Structure prediction by ZEFSAII (Michael W. Deem and Ramdas Pophale) SiO2 
 PCOD9277770
Probable space group: C 2/C
;
_chemical_formula_sum "Si O2"
_cell_formula_units_Z 64
_cell_length_a 28.964179
_cell_length_b 15.447330
_cell_length_c 20.868223
_cell_angle_alpha 90.000000
_cell_angle_beta 20.547884
_cell_angle_gamma 90.000000
_cell_volume 3277.139605
_symmetry_space_group_name_H-M "C 2/C"
_symmetry_group_IT_number 15
_symmetry_cell_setting 'monoclinic'
loop_
_space_group_symop_operation_xyz
x,y,z
-x,y,1/2-z
-x,-y,-z
x,-y,1/2+z
1/2+x,1/2+y,z
1/2-x,1/2+y,1/2-z
1/2-x,1/2-y,-z
1/2+x,1/2-y,1/2+z
loop_
_atom_site_type_symbol
_atom_site_label
_atom_site_fract_x
_atom_site_fract_y
_atom_site_fract_z
Si Si1 0.713898 0.002329 0.690789
Si Si2 0.086822 0.901320 0.813070
Si Si3 0.092271 0.839294 0.068564
Si Si4 0.471614 0.400995 0.097471
Si Si5 0.206873 0.337554 0.375852
Si Si6 0.055816 0.500217 0.030084
Si Si7 0.845292 0.176965 0.560045
Si Si8 0.629299 0.140976 0.539014
O O1 0.807231 0.919889 0.559979
O O2 0.596088 0.004225 0.792691
O O3 0.794061 0.092159 0.589225
O O4 0.643246 0.994610 0.851952
O O5 0.239088 0.894707 0.597952
O O6 0.027325 0.997816 0.885572
O O7 0.071138 0.881746 0.909570
O O8 0.993061 0.840291 0.893472
O O9 0.000000 0.841772 0.250000
O O10 0.008038 0.848713 0.112933
O O11 0.165432 0.748023 0.966899
O O12 0.329063 0.381103 0.253647
O O13 0.093459 0.409069 0.514727
O O14 0.257780 0.314192 0.238257
O O15 0.097938 0.422075 0.020628
O O16 0.839642 0.262820 0.525854
O O17 0.500000 0.141891 0.750000
#
# Coordination Sequence:
#
# PCOD9277770 Si02
#       8
#     8   8   8   8   8   8   8   8
#     4  10  22  43  67  92 122 160 213 266 308 356
#     4  10  20  41  69  90 116 161 219 263 294 355
#     4  12  26  40  60  93 134 167 196 248 317 387
#     4  10  20  41  69  90 116 161 219 263 294 355
#     4  10  22  41  67  93 119 161 216 264 302 357
#     4  10  22  43  67  92 122 160 213 266 308 356
#     4  10  22  41  67  93 119 161 216 264 302 357
#     4  12  26  40  60  93 134 167 196 248 317 387
#
# _framework density 19.529226000000001
#
# number of rings (size 3 to 8) (size 9 to 14) (size 15 to 20)
#    0.000    1.500    2.500    2.250    3.500    3.000 
#    0.000    0.000    0.000    0.000    0.000    0.000 
#    0.000    0.000    0.000    0.000    0.000    0.000 
#
# Total GULP energy -178871.647097 kJ/mol
# GULP energy per Si atom -5589.738972 kJ/mol
# Density = 1.948478 g / cm^3
# Si number density = 19.529226 Si / 1000 Ang^3
#
#
#
# Elastic Constant Matrix: (Units=GPa)
#
#
# Indices 1 2 3 4 5 6 
#
# 1 27.6256 7.9287 22.1432 -0.0001 -16.6040 -0.0003
# 2 7.9287 96.7101 33.6548 0.0000 -6.8714 0.0000
# 3 22.1432 33.6548 85.6215 0.0002 -18.0147 -0.0002
# 4 -0.0001 0.0000 0.0002 -10.9335 -0.0001 -24.3051
# 5 -16.6040 -6.8714 -18.0147 -0.0001 17.3912 0.0002
# 6 -0.0003 0.0000 -0.0002 -24.3051 0.0002 3.3764
#
#
#
# Elastic Compliance Matrix: (Units=1/GPa)
#
#
# Indices 1 2 3 4 5 6 
#
# 1 0.087689 0.000621 -0.006720 0.000000 0.077004 -0.000001
# 2 0.000621 0.011984 -0.004795 0.000000 0.000360 0.000000
# 3 -0.006720 -0.004795 0.017331 0.000000 0.009641 0.000000
# 4 0.000000 0.000000 0.000000 -0.005379 0.000000 -0.038724
# 5 0.077004 0.000360 0.009641 0.000000 0.141148 -0.000001
# 6 -0.000001 0.000000 0.000000 -0.038724 -0.000001 0.017420
#
#
# Mechanical properties :
#
#
# Convention : Reuss Voigt Hill
#
# Bulk Modulus (GPa) = 10.50268 37.49007 23.99637
# Shear Modulus (GPa) = 15.44556 11.71554 13.58055
#
# Velocity S-wave (km/s) = 2.81534 2.45194 2.63990
# Velocity P-wave (km/s) = 3.99472 5.22059 4.64824
#
# Compressibility (1/GPa) = 0.09521383
#
# Stress axis : x y z
#
# Youngs Moduli (GPa) = 11.40397 83.44772 57.70159
#
# Poissons Ratio (x) = -0.05180 0.38777
# Poissons Ratio (y) = -0.00708 0.27668
# Poissons Ratio (z) = 0.07664 0.40013
#
# Static dielectric constant tensor:
#      x y z
#    x 1.662040 0.000000 -0.000140 
#    y 0.000000 1.656870 0.000000 
#    z -0.000140 0.000000 1.670450 
# 
# From -- ./inp_files/259430.got.cif
#   From: 2010.05.17/outbox.cif.g08.bks.cpg/sg15_130_cif.got.tgz:259430.got - 2010.06.03 18:47:42.
