data_PCOD9277715
_publ_section_title
;
Structure prediction by ZEFSAII (Michael W. Deem and Ramdas Pophale) SiO2 
 PCOD9277715
Probable space group: C 2/C
;
_chemical_formula_sum "Si O2"
_cell_formula_units_Z 48
_cell_length_a 22.152625
_cell_length_b 8.791844
_cell_length_c 23.850316
_cell_angle_alpha 90.000000
_cell_angle_beta 153.800486
_cell_angle_gamma 90.000000
_cell_volume 2050.823500
_symmetry_space_group_name_H-M "C 2/C"
_symmetry_group_IT_number 15
_symmetry_cell_setting 'monoclinic'
loop_
_space_group_symop_operation_xyz
x,y,z
-x,y,1/2-z
-x,-y,-z
x,-y,1/2+z
1/2+x,1/2+y,z
1/2-x,1/2+y,1/2-z
1/2-x,1/2-y,-z
1/2+x,1/2-y,1/2+z
loop_
_atom_site_type_symbol
_atom_site_label
_atom_site_fract_x
_atom_site_fract_y
_atom_site_fract_z
Si Si1 0.218586 0.145919 0.797509
Si Si2 0.077166 0.590108 0.227671
Si Si3 0.989483 0.279745 0.358799
Si Si4 0.213763 0.580379 0.454112
Si Si5 0.209855 0.105695 0.386648
Si Si6 0.881184 0.091071 0.371792
O O1 0.085643 0.245185 0.706039
O O2 0.314156 0.287113 0.858323
O O3 0.244583 0.033710 0.872116
O O4 0.209273 0.034609 0.736446
O O5 0.076186 0.446642 0.186519
O O6 0.196765 0.570931 0.373470
O O7 0.936420 0.562221 0.143778
O O8 0.912514 0.204294 0.241358
O O9 0.948595 0.182126 0.377425
O O10 0.152707 0.294963 0.492643
O O11 0.250000 0.750000 0.500000
O O12 0.312301 0.469140 0.570809
O O13 0.000000 0.000000 0.500000
#
# Coordination Sequence:
#
# PCOD9277715 Si02
#       6
#     8   8   8   8   8   8
#     4  11  24  43  65  99 134 179 225 284 337 404
#     4  10  22  40  70  95 137 174 219 285 338 400
#     4  10  24  44  66  99 138 175 228 278 338 400
#     4  10  20  41  68 101 128 172 225 270 338 410
#     4  10  23  44  70  99 139 180 224 279 344 399
#     4  11  27  41  67  96 132 182 233 272 345 399
#
# _framework density 23.40523
#
# number of rings (size 3 to 8) (size 9 to 14) (size 15 to 20)
#    0.000    1.667    1.667    1.000   11.667    1.333 
#    3.000    0.000    0.000    0.000    0.000    0.000 
#    0.000    0.000    0.000    0.000    0.000    0.000 
#
# Total GULP energy -134035.903892 kJ/mol
# GULP energy per Si atom -5584.829329 kJ/mol
# Density = 2.335196 g / cm^3
# Si number density = 23.405230 Si / 1000 Ang^3
#
#
#
# Elastic Constant Matrix: (Units=GPa)
#
#
# Indices 1 2 3 4 5 6 
#
# 1 46.9258 36.4356 21.2919 0.0000 -9.4029 0.0000
# 2 36.4356 143.5904 57.7397 -0.0001 -1.9192 -0.0001
# 3 21.2919 57.7397 112.9719 -0.0002 -15.1185 -0.0001
# 4 0.0000 -0.0001 -0.0002 39.0204 -0.0002 5.9140
# 5 -9.4029 -1.9192 -15.1185 -0.0002 18.0556 -0.0001
# 6 0.0000 -0.0001 -0.0001 5.9140 -0.0001 45.1816
#
#
#
# Elastic Compliance Matrix: (Units=1/GPa)
#
#
# Indices 1 2 3 4 5 6 
#
# 1 0.030058 -0.007497 0.000174 0.000000 0.015003 0.000000
# 2 -0.007497 0.010800 -0.005041 0.000000 -0.006977 0.000000
# 3 0.000174 -0.005041 0.012766 0.000000 0.010244 0.000000
# 4 0.000000 0.000000 0.000000 0.026146 0.000000 -0.003422
# 5 0.015003 -0.006977 0.010244 0.000000 0.071034 0.000000
# 6 0.000000 0.000000 0.000000 -0.003422 0.000000 0.022581
#
#
# Mechanical properties :
#
#
# Convention : Reuss Voigt Hill
#
# Bulk Modulus (GPa) = 34.60435 59.38029 46.99232
# Shear Modulus (GPa) = 24.06798 32.98624 28.52711
#
# Velocity S-wave (km/s) = 3.21022 3.75821 3.49497
# Velocity P-wave (km/s) = 5.34393 6.65265 6.03388
#
# Compressibility (1/GPa) = 0.02889810
#
# Stress axis : x y z
#
# Youngs Moduli (GPa) = 33.26879 92.59073 78.33178
#
# Poissons Ratio (x) = 0.69412 -0.01364
# Poissons Ratio (y) = 0.24941 0.39485
# Poissons Ratio (z) = -0.00579 0.46673
#
# Static dielectric constant tensor:
#      x y z
#    x 1.492720 0.000000 -0.113740 
#    y 0.000000 1.928800 0.000000 
#    z -0.113740 0.000000 1.867240 
# 
# From -- ./inp_files/281720.got.cif
#   From: 2010.05.17/outbox.cif.g08.bks.cpg/sg15_141_cif.got.tgz:281720.got - 2010.06.03 18:47:42.
