data_PCOD9277012
_publ_section_title
;
Structure prediction by ZEFSAII (Michael W. Deem and Ramdas Pophale) SiO2 
 PCOD9277012
Probable space group: C 2/C
;
_chemical_formula_sum "Si O2"
_cell_formula_units_Z 48
_cell_length_a 8.340123
_cell_length_b 18.723160
_cell_length_c 12.455237
_cell_angle_alpha 90.000000
_cell_angle_beta 89.756100
_cell_angle_gamma 90.000000
_cell_volume 1944.910698
_symmetry_space_group_name_H-M "C 2/C"
_symmetry_group_IT_number 15
_symmetry_cell_setting 'monoclinic'
loop_
_space_group_symop_operation_xyz
x,y,z
-x,y,1/2-z
-x,-y,-z
x,-y,1/2+z
1/2+x,1/2+y,z
1/2-x,1/2+y,1/2-z
1/2-x,1/2-y,-z
1/2+x,1/2-y,1/2+z
loop_
_atom_site_type_symbol
_atom_site_label
_atom_site_fract_x
_atom_site_fract_y
_atom_site_fract_z
Si Si1 0.612747 0.930093 0.894695
Si Si2 0.668195 0.873319 0.224510
Si Si3 0.417995 0.214938 0.973943
Si Si4 0.237276 0.502735 0.087765
Si Si5 0.128611 0.227960 0.650287
Si Si6 0.327567 0.632323 0.202683
O O1 0.709016 0.901762 0.792574
O O2 0.444037 0.970200 0.885084
O O3 0.569033 0.860345 0.964852
O O4 0.729524 0.979523 0.964672
O O5 0.500000 0.909876 0.250000
O O6 0.605897 0.807888 0.149281
O O7 0.769530 0.931462 0.157803
O O8 0.763676 0.841146 0.324401
O O9 0.250000 0.250000 0.000000
O O10 0.545513 0.265661 0.034130
O O11 0.346855 0.569575 0.115488
O O12 0.239273 0.297441 0.662007
O O13 0.000000 0.230313 0.750000
O O14 0.500000 0.649797 0.250000
#
# Coordination Sequence:
#
# PCOD9277012 Si02
#       6
#     8   8   8   8   8   8
#     4  10  20  40  67  90 121 168 214 250 313 384
#     4  11  24  40  63  97 129 158 209 266 318 375
#     4  11  21  39  68  93 120 169 215 256 311 380
#     4  10  22  41  66  89 123 170 208 256 315 382
#     4  12  22  41  68  90 124 170 213 258 314 377
#     4  12  23  39  64  93 127 164 211 263 315 375
#
# _framework density 24.679794999999999
#
# number of rings (size 3 to 8) (size 9 to 14) (size 15 to 20)
#    0.000    1.000    5.000    2.000    0.000    2.000 
#    0.000    0.000    0.000    0.000    0.000    0.000 
#    0.000    0.000    0.000    0.000    0.000    0.000 
#
# Total GULP energy -134280.840246 kJ/mol
# GULP energy per Si atom -5595.035010 kJ/mol
# Density = 2.462362 g / cm^3
# Si number density = 24.679795 Si / 1000 Ang^3
#
#
#
# Elastic Constant Matrix: (Units=GPa)
#
#
# Indices 1 2 3 4 5 6 
#
# 1 57.8107 14.4463 15.2058 0.0000 18.6829 0.0000
# 2 14.4463 98.6956 26.5188 0.0000 21.2518 0.0000
# 3 15.2058 26.5188 61.0267 0.0000 17.6260 0.0000
# 4 0.0000 0.0000 0.0000 39.3609 0.0000 3.2477
# 5 18.6829 21.2518 17.6260 0.0000 48.4381 0.0000
# 6 0.0000 0.0000 0.0000 3.2477 0.0000 26.2291
#
#
#
# Elastic Compliance Matrix: (Units=1/GPa)
#
#
# Indices 1 2 3 4 5 6 
#
# 1 0.020336 -0.000823 -0.002847 0.000000 -0.006446 0.000000
# 2 -0.000823 0.012095 -0.004034 0.000000 -0.003521 0.000000
# 3 -0.002847 -0.004034 0.020136 0.000000 -0.004459 0.000000
# 4 0.000000 0.000000 0.000000 0.025668 0.000000 -0.003178
# 5 -0.006446 -0.003521 -0.004459 0.000000 0.026299 0.000000
# 6 0.000000 0.000000 0.000000 -0.003178 0.000000 0.038519
#
#
# Mechanical properties :
#
#
# Convention : Reuss Voigt Hill
#
# Bulk Modulus (GPa) = 26.91189 36.65275 31.78232
# Shear Modulus (GPa) = 29.26581 33.56310 31.41446
#
# Velocity S-wave (km/s) = 3.44731 3.69174 3.57162
# Velocity P-wave (km/s) = 5.17430 5.74939 5.46941
#
# Compressibility (1/GPa) = 0.03715830
#
# Stress axis : x y z
#
# Youngs Moduli (GPa) = 49.17432 82.68114 49.66111
#
# Poissons Ratio (x) = 0.06809 0.14140
# Poissons Ratio (y) = 0.04049 0.20031
# Poissons Ratio (z) = 0.14001 0.33350
#
# Static dielectric constant tensor:
#      x y z
#    x 1.919690 0.000000 0.010470 
#    y 0.000000 1.823710 0.000000 
#    z 0.010470 0.000000 2.001630 
# 
# From -- ./inp_files/136194.got.cif
#   From: 2010.05.17/outbox.cif.g08.bks.cpg/sg15_69_cif.got.tgz:136194.got - 2010.06.03 18:47:42.
