data_PCOD9277829
_publ_section_title
;
Structure prediction by ZEFSAII (Michael W. Deem and Ramdas Pophale) SiO2 
 PCOD9277829
Probable space group: C 2/C
;
_chemical_formula_sum "Si O2"
_cell_formula_units_Z 48
_cell_length_a 23.723264
_cell_length_b 11.284194
_cell_length_c 9.707239
_cell_angle_alpha 90.000000
_cell_angle_beta 113.655187
_cell_angle_gamma 90.000000
_cell_volume 2380.264011
_symmetry_space_group_name_H-M "C 2/C"
_symmetry_group_IT_number 15
_symmetry_cell_setting 'monoclinic'
loop_
_space_group_symop_operation_xyz
x,y,z
-x,y,1/2-z
-x,-y,-z
x,-y,1/2+z
1/2+x,1/2+y,z
1/2-x,1/2+y,1/2-z
1/2-x,1/2-y,-z
1/2+x,1/2-y,1/2+z
loop_
_atom_site_type_symbol
_atom_site_label
_atom_site_fract_x
_atom_site_fract_y
_atom_site_fract_z
Si Si1 0.669609 0.985724 0.695944
Si Si2 0.440295 0.555626 0.013590
Si Si3 0.077290 0.336281 0.181145
Si Si4 0.247608 0.393858 0.515391
Si Si5 0.115038 0.932989 0.768113
Si Si6 0.436813 0.160699 0.512721
O O1 0.712614 0.932750 0.620044
O O2 0.612517 0.891042 0.643541
O O3 0.628311 0.103973 0.635077
O O4 0.713040 0.030186 0.863196
O O5 0.384271 0.512236 0.865355
O O6 0.438619 0.697062 0.012912
O O7 0.500000 0.500000 0.000000
O O8 0.430306 0.516584 0.160006
O O9 0.089812 0.196224 0.199945
O O10 0.082364 0.375055 0.348385
O O11 0.008793 0.369709 0.065921
O O12 0.250000 0.250000 0.500000
O O13 0.318760 0.425497 0.599310
#
# Coordination Sequence:
#
# PCOD9277829 Si02
#       6
#     8   8   8   8   8   8
#     4  12  23  45  70 102 131 180 234 278 346 412
#     4  11  21  40  67 101 133 179 227 280 341 406
#     4  10  20  41  71  95 134 180 220 282 345 410
#     4  12  25  46  70  96 143 186 227 283 343 422
#     4  11  22  42  65  96 134 181 227 273 342 404
#     4  10  21  40  68 101 136 173 224 284 350 400
#
# _framework density 20.16583
#
# number of rings (size 3 to 8) (size 9 to 14) (size 15 to 20)
#    0.000    1.000    5.000    3.000    0.000    0.000 
#    3.000    1.667    0.000    0.000    0.000    0.000 
#    0.000    0.000    0.000    0.000    0.000    0.000 
#
# Total GULP energy -133742.647530 kJ/mol
# GULP energy per Si atom -5572.610314 kJ/mol
# Density = 2.011993 g / cm^3
# Si number density = 20.165830 Si / 1000 Ang^3
#
#
#
# Elastic Constant Matrix: (Units=GPa)
#
#
# Indices 1 2 3 4 5 6 
#
# 1 125.4288 37.7364 47.2327 0.0000 13.5715 0.0000
# 2 37.7364 71.5228 55.0106 0.0000 -2.9898 0.0000
# 3 47.2327 55.0106 96.5952 0.0000 20.7282 0.0000
# 4 0.0000 0.0000 0.0000 35.9309 0.0000 3.7384
# 5 13.5715 -2.9898 20.7282 0.0000 38.6341 0.0000
# 6 0.0000 0.0000 0.0000 3.7384 0.0000 35.5048
#
#
#
# Elastic Compliance Matrix: (Units=1/GPa)
#
#
# Indices 1 2 3 4 5 6 
#
# 1 0.010257 -0.003741 -0.002316 0.000000 -0.002650 0.000000
# 2 -0.003741 0.030957 -0.018756 0.000000 0.013773 0.000000
# 3 -0.002316 -0.018756 0.025206 0.000000 -0.014161 0.000000
# 4 0.000000 0.000000 0.000000 0.028139 0.000000 -0.002963
# 5 -0.002650 0.013773 -0.014161 0.000000 0.035478 0.000000
# 6 0.000000 0.000000 0.000000 -0.002963 0.000000 0.028477
#
#
# Mechanical properties :
#
#
# Convention : Reuss Voigt Hill
#
# Bulk Modulus (GPa) = 59.54991 63.72290 61.63641
# Shear Modulus (GPa) = 23.39291 32.25176 27.82234
#
# Velocity S-wave (km/s) = 3.40961 4.00350 3.71843
# Velocity P-wave (km/s) = 6.71527 7.28277 7.00477
#
# Compressibility (1/GPa) = 0.01679264
#
# Stress axis : x y z
#
# Youngs Moduli (GPa) = 97.49289 32.30268 39.67365
#
# Poissons Ratio (x) = 0.12084 0.09190
# Poissons Ratio (y) = 0.36471 0.74413
# Poissons Ratio (z) = 0.22584 0.60588
#
# Static dielectric constant tensor:
#      x y z
#    x 1.766380 0.000000 0.026620 
#    y 0.000000 1.707970 0.000000 
#    z 0.026620 0.000000 1.761380 
# 
# From -- ./inp_files/60835.got.cif
#   From: 2010.05.17/outbox.cif.g08.bks.cpg/sg15_31_cif.got.tgz:60835.got - 2010.06.03 18:47:42.
