data_PCOD9277605
_publ_section_title
;
Structure prediction by ZEFSAII (Michael W. Deem and Ramdas Pophale) SiO2 
 PCOD9277605
Probable space group: C 2/C
;
_chemical_formula_sum "Si O2"
_cell_formula_units_Z 56
_cell_length_a 11.183988
_cell_length_b 23.641855
_cell_length_c 11.157792
_cell_angle_alpha 90.000000
_cell_angle_beta 105.284970
_cell_angle_gamma 90.000000
_cell_volume 2845.874465
_symmetry_space_group_name_H-M "C 2/C"
_symmetry_group_IT_number 15
_symmetry_cell_setting 'monoclinic'
loop_
_space_group_symop_operation_xyz
x,y,z
-x,y,1/2-z
-x,-y,-z
x,-y,1/2+z
1/2+x,1/2+y,z
1/2-x,1/2+y,1/2-z
1/2-x,1/2-y,-z
1/2+x,1/2-y,1/2+z
loop_
_atom_site_type_symbol
_atom_site_label
_atom_site_fract_x
_atom_site_fract_y
_atom_site_fract_z
Si Si1 0.822984 0.609322 0.929053
Si Si2 0.854828 0.693453 0.747908
Si Si3 0.786714 0.893254 0.454952
Si Si4 0.132032 0.967282 0.221103
Si Si5 0.854069 0.180926 0.195845
Si Si6 0.429075 0.058066 0.460854
Si Si7 0.725739 0.082303 0.305653
O O1 0.813376 0.672417 0.870161
O O2 0.733594 0.565779 0.831804
O O3 0.800439 0.595120 0.062587
O O4 0.971037 0.600210 0.955831
O O5 0.797226 0.643857 0.653929
O O6 0.804483 0.755557 0.700750
O O7 0.000000 0.694789 0.750000
O O8 0.883151 0.927540 0.400066
O O9 0.834727 0.848622 0.563223
O O10 0.698921 0.937715 0.500625
O O11 0.000000 0.974549 0.250000
O O12 0.189362 0.026913 0.194189
O O13 0.792445 0.137788 0.271996
O O14 0.000000 0.183407 0.250000
O O15 0.391719 0.071048 0.313952
O O16 0.500000 0.000000 0.500000
#
# Coordination Sequence:
#
# PCOD9277605 Si02
#       7
#     8   8   8   8   8   8   8
#     4  11  23  39  65  93 128 165 212 267 319 381
#     4  10  20  41  66  90 121 165 213 267 317 378
#     4  10  22  39  67  92 123 167 216 264 312 387
#     4  11  25  40  62  92 132 175 210 258 318 383
#     4  10  23  40  63  90 124 171 214 261 315 383
#     4  11  20  39  64  96 129 162 209 263 327 383
#     4  11  24  39  61  95 131 169 208 266 322 381
#
# _framework density 19.677606999999998
#
# number of rings (size 3 to 8) (size 9 to 14) (size 15 to 20)
#    0.000    1.429    2.857    2.143    4.000    1.143 
#    0.000    0.000    0.000    0.000    0.000    0.000 
#    0.000    0.000    0.000    0.000    0.000    0.000 
#
# Total GULP energy -156079.703807 kJ/mol
# GULP energy per Si atom -5574.275136 kJ/mol
# Density = 1.963282 g / cm^3
# Si number density = 19.677607 Si / 1000 Ang^3
#
#
#
# Elastic Constant Matrix: (Units=GPa)
#
#
# Indices 1 2 3 4 5 6 
#
# 1 78.1688 28.3027 30.4657 0.0000 -11.8732 0.0000
# 2 28.3027 121.6497 37.3396 0.0000 -14.6178 0.0000
# 3 30.4657 37.3396 93.9252 0.0000 -16.7656 0.0000
# 4 0.0000 0.0000 0.0000 10.9789 0.0000 11.3419
# 5 -11.8732 -14.6178 -16.7656 0.0000 24.7008 0.0000
# 6 0.0000 0.0000 0.0000 11.3419 0.0000 22.6375
#
#
#
# Elastic Compliance Matrix: (Units=1/GPa)
#
#
# Indices 1 2 3 4 5 6 
#
# 1 0.015495 -0.002063 -0.003521 0.000000 0.003837 0.000000
# 2 -0.002063 0.009900 -0.002728 0.000000 0.003015 0.000000
# 3 -0.003521 -0.002728 0.013976 0.000000 0.006180 0.000000
# 4 0.000000 0.000000 0.000000 0.188807 0.000000 -0.094596
# 5 0.003837 0.003015 0.006180 0.000000 0.048308 0.000000
# 6 0.000000 0.000000 0.000000 -0.094596 0.000000 0.091569
#
#
# Mechanical properties :
#
#
# Convention : Reuss Voigt Hill
#
# Bulk Modulus (GPa) = 43.96197 53.99550 48.97874
# Shear Modulus (GPa) = 12.74657 24.83917 18.79287
#
# Velocity S-wave (km/s) = 2.54789 3.55675 3.09372
# Velocity P-wave (km/s) = 5.57183 6.66085 6.14053
#
# Compressibility (1/GPa) = 0.02274693
#
# Stress axis : x y z
#
# Youngs Moduli (GPa) = 64.53726 101.00908 71.54904
#
# Poissons Ratio (x) = 0.20840 0.25191
# Poissons Ratio (y) = 0.13315 0.19521
# Poissons Ratio (z) = 0.22722 0.27558
#
# Static dielectric constant tensor:
#      x y z
#    x 1.686160 0.000000 0.011100 
#    y 0.000000 1.702880 0.000000 
#    z 0.011100 0.000000 1.806970 
# 
# From -- ./inp_files/89656.got.cif
#   From: 2010.05.17/outbox.cif.g08.bks.cpg/sg15_45_cif.got.tgz:89656.got - 2010.06.03 18:47:42.
