data_PCOD9277496
_publ_section_title
;
Structure prediction by ZEFSAII (Michael W. Deem and Ramdas Pophale) SiO2 
 PCOD9277496
Probable space group: C 2/C
;
_chemical_formula_sum "Si O2"
_cell_formula_units_Z 40
_cell_length_a 14.454132
_cell_length_b 25.767249
_cell_length_c 10.838312
_cell_angle_alpha 90.000000
_cell_angle_beta 151.215263
_cell_angle_gamma 90.000000
_cell_volume 1943.731382
_symmetry_space_group_name_H-M "C 2/C"
_symmetry_group_IT_number 15
_symmetry_cell_setting 'monoclinic'
loop_
_space_group_symop_operation_xyz
x,y,z
-x,y,1/2-z
-x,-y,-z
x,-y,1/2+z
1/2+x,1/2+y,z
1/2-x,1/2+y,1/2-z
1/2-x,1/2-y,-z
1/2+x,1/2-y,1/2+z
loop_
_atom_site_type_symbol
_atom_site_label
_atom_site_fract_x
_atom_site_fract_y
_atom_site_fract_z
Si Si1 0.561494 0.803887 0.018154
Si Si2 0.082240 0.808569 0.208727
Si Si3 0.257440 0.631741 0.228557
Si Si4 0.006360 0.539963 0.895872
Si Si5 0.772301 0.861780 0.472259
O O1 0.690514 0.811751 0.046588
O O2 0.709189 0.818595 0.300561
O O3 0.487059 0.745299 0.933375
O O4 0.380888 0.841174 0.833042
O O5 0.000000 0.806887 0.250000
O O6 0.973997 0.856074 0.017227
O O7 0.211938 0.654465 0.040094
O O8 0.201832 0.572254 0.146979
O O9 0.841585 0.585317 0.699458
O O10 0.000000 0.516776 0.750000
O O11 0.000000 0.500000 0.000000
O O12 0.000000 0.870432 0.750000
#
# Coordination Sequence:
#
# PCOD9277496 Si02
#       5
#     8   8   8   8   8
#     4  11  22  38  60  83 122 167 201 245 301 352
#     4  12  24  38  55  87 125 167 210 247 297 353
#     4  10  22  41  61  88 123 159 199 254 304 363
#     4   9  20  42  65  90 122 155 199 255 316 365
#     4  10  20  41  64  89 121 156 202 255 302 361
#
# _framework density 20.578975
#
# number of rings (size 3 to 8) (size 9 to 14) (size 15 to 20)
#    0.000    1.600    4.000    2.400    0.000    0.800 
#   10.800    5.000    0.000    0.000    0.000    0.000 
#    0.000    0.000    0.000    0.000    0.000    0.000 
#
# Total GULP energy -111593.088236 kJ/mol
# GULP energy per Si atom -5579.654412 kJ/mol
# Density = 2.053214 g / cm^3
# Si number density = 20.578975 Si / 1000 Ang^3
#
#
#
# Elastic Constant Matrix: (Units=GPa)
#
#
# Indices 1 2 3 4 5 6 
#
# 1 136.4896 39.6208 24.7497 0.0000 -3.6562 0.0000
# 2 39.6208 48.1210 27.9390 0.0000 -21.3641 0.0000
# 3 24.7497 27.9390 97.5390 0.0000 8.3809 0.0000
# 4 0.0000 0.0000 0.0000 17.2348 0.0000 -9.0173
# 5 -3.6562 -21.3641 8.3809 0.0000 41.7068 0.0000
# 6 0.0000 0.0000 0.0000 -9.0173 0.0000 30.9831
#
#
#
# Elastic Compliance Matrix: (Units=1/GPa)
#
#
# Indices 1 2 3 4 5 6 
#
# 1 0.010302 -0.011413 0.001099 0.000000 -0.005164 0.000000
# 2 -0.011413 0.050609 -0.013984 0.000000 0.027734 0.000000
# 3 0.001099 -0.013984 0.014842 0.000000 -0.010049 0.000000
# 4 0.000000 0.000000 0.000000 0.068444 0.000000 0.019920
# 5 -0.005164 0.027734 -0.010049 0.000000 0.039750 0.000000
# 6 0.000000 0.000000 0.000000 0.019920 0.000000 0.038073
#
#
# Mechanical properties :
#
#
# Convention : Reuss Voigt Hill
#
# Bulk Modulus (GPa) = 36.82070 51.86320 44.34195
# Shear Modulus (GPa) = 17.87826 30.64094 24.25960
#
# Velocity S-wave (km/s) = 2.95068 3.86287 3.43717
# Velocity P-wave (km/s) = 5.43506 6.71956 6.11115
#
# Compressibility (1/GPa) = 0.02715864
#
# Stress axis : x y z
#
# Youngs Moduli (GPa) = 97.06935 19.75921 67.37423
#
# Poissons Ratio (x) = 0.22550 -0.07402
# Poissons Ratio (y) = 1.10781 0.94214
# Poissons Ratio (z) = -0.10665 0.27631
#
# Static dielectric constant tensor:
#      x y z
#    x 1.842700 0.000000 0.010980 
#    y 0.000000 1.692090 0.000000 
#    z 0.010980 0.000000 1.762370 
# 
# From -- ./inp_files/31749.got.cif
#   From: 2010.05.17/outbox.cif.g08.bks.cpg/sg15_16_cif.got.tgz:31749.got - 2010.06.03 18:47:42.
