data_PCOD9277539
_publ_section_title
;
Structure prediction by ZEFSAII (Michael W. Deem and Ramdas Pophale) SiO2 
 PCOD9277539
Probable space group: C 2/C
;
_chemical_formula_sum "Si O2"
_cell_formula_units_Z 52
_cell_length_a 11.342216
_cell_length_b 24.773046
_cell_length_c 9.530152
_cell_angle_alpha 90.000000
_cell_angle_beta 54.136691
_cell_angle_gamma 90.000000
_cell_volume 2170.129643
_symmetry_space_group_name_H-M "C 2/C"
_symmetry_group_IT_number 15
_symmetry_cell_setting 'monoclinic'
loop_
_space_group_symop_operation_xyz
x,y,z
-x,y,1/2-z
-x,-y,-z
x,-y,1/2+z
1/2+x,1/2+y,z
1/2-x,1/2+y,1/2-z
1/2-x,1/2-y,-z
1/2+x,1/2-y,1/2+z
loop_
_atom_site_type_symbol
_atom_site_label
_atom_site_fract_x
_atom_site_fract_y
_atom_site_fract_z
Si Si1 0.425323 0.214279 0.604410
Si Si2 0.740420 0.189914 0.372391
Si Si3 0.123979 0.027843 0.319290
Si Si4 0.500000 0.626815 0.250000
Si Si5 0.662634 0.100246 0.193022
Si Si6 0.500000 0.743043 0.750000
Si Si7 0.500000 0.441974 0.250000
Si Si8 0.305559 0.643926 0.810455
O O1 0.591414 0.211583 0.543555
O O2 0.334224 0.264439 0.727854
O O3 0.443661 0.223943 0.422635
O O4 0.335845 0.158304 0.682298
O O5 0.860387 0.162231 0.388930
O O6 0.682480 0.145857 0.299401
O O7 0.272074 0.044173 0.292280
O O8 0.061833 0.085718 0.319655
O O9 0.128816 0.987331 0.183257
O O10 0.000000 0.000000 0.500000
O O11 0.500000 0.095183 0.250000
O O12 0.755635 0.120020 0.994839
O O13 0.377708 0.702231 0.780363
O O14 0.566708 0.398184 0.315014
#
# Coordination Sequence:
#
# PCOD9277539 Si02
#       8
#     8   8   8   4   8   4   4   8
#     4  12  21  34  57  87 124 163 195 242 296 346
#     4  11  23  38  58  85 125 164 198 244 287 359
#     4  10  20  41  65  84 112 155 197 248 303 357
#     4   9  24  41  60  88 112 164 205 235 296 366
#     4  11  20  35  58  88 116 145 192 247 307 345
#     4  11  20  31  52  90 122 154 197 238 293 346
#     4  10  22  38  58  90 116 150 202 243 295 362
#     4  11  20  31  54  88 118 147 188 249 288 344
#
# _framework density 23.961701000000001
#
# number of rings (size 3 to 8) (size 9 to 14) (size 15 to 20)
#    0.000    1.231    6.154    1.385    0.000    0.615 
#    0.000    2.308    0.000    0.000    0.000    0.000 
#    0.000    0.000    0.000    0.000    0.000    0.000 
#
# Total GULP energy -144954.731205 kJ/mol
# GULP energy per Si atom -5575.181969 kJ/mol
# Density = 2.390716 g / cm^3
# Si number density = 23.961701 Si / 1000 Ang^3
#
#
#
# Elastic Constant Matrix: (Units=GPa)
#
#
# Indices 1 2 3 4 5 6 
#
# 1 145.5077 68.3855 37.2286 0.0000 -49.3230 0.0000
# 2 68.3855 132.8565 30.2319 0.0000 -24.1859 0.0000
# 3 37.2286 30.2319 83.8017 0.0000 -23.9771 0.0000
# 4 0.0000 0.0000 0.0000 25.9362 0.0000 -6.4840
# 5 -49.3230 -24.1859 -23.9771 0.0000 47.0421 0.0000
# 6 0.0000 0.0000 0.0000 -6.4840 0.0000 43.2791
#
#
#
# Elastic Compliance Matrix: (Units=1/GPa)
#
#
# Indices 1 2 3 4 5 6 
#
# 1 0.012829 -0.004426 -0.001059 0.000000 0.010635 0.000000
# 2 -0.004426 0.010152 -0.001792 0.000000 -0.000335 0.000000
# 3 -0.001059 -0.001792 0.014597 0.000000 0.005408 0.000000
# 4 0.000000 0.000000 0.000000 0.040056 0.000000 0.006001
# 5 0.010635 -0.000335 0.005408 0.000000 0.034993 0.000000
# 6 0.000000 0.000000 0.000000 0.006001 0.000000 0.024005
#
#
# Mechanical properties :
#
#
# Convention : Reuss Voigt Hill
#
# Bulk Modulus (GPa) = 43.43441 70.42866 56.93154
# Shear Modulus (GPa) = 31.47389 38.33947 34.90668
#
# Velocity S-wave (km/s) = 3.62817 4.00438 3.82091
# Velocity P-wave (km/s) = 5.97640 7.12994 6.57851
#
# Compressibility (1/GPa) = 0.02302322
#
# Stress axis : x y z
#
# Youngs Moduli (GPa) = 77.94948 98.50215 68.50558
#
# Poissons Ratio (x) = 0.43599 0.07258
# Poissons Ratio (y) = 0.34502 0.12275
# Poissons Ratio (z) = 0.08258 0.17650
#
# Static dielectric constant tensor:
#      x y z
#    x 2.042680 0.000000 0.012340 
#    y 0.000000 1.931820 0.000000 
#    z 0.012340 0.000000 2.154170 
# 
# From -- ./inp_files/91219.got.cif
#   From: 2010.05.17/outbox.cif.g08.bks.cpg/sg15_46_cif.got.tgz:91219.got - 2010.06.03 18:47:42.
