data_PCOD9277117
_publ_section_title
;
Structure prediction by ZEFSAII (Michael W. Deem and Ramdas Pophale) SiO2 
 PCOD9277117
Probable space group: C 2/C
;
_chemical_formula_sum "Si O2"
_cell_formula_units_Z 60
_cell_length_a 13.419426
_cell_length_b 27.116382
_cell_length_c 12.484212
_cell_angle_alpha 90.000000
_cell_angle_beta 32.574263
_cell_angle_gamma 90.000000
_cell_volume 2445.826590
_symmetry_space_group_name_H-M "C 2/C"
_symmetry_group_IT_number 15
_symmetry_cell_setting 'monoclinic'
loop_
_space_group_symop_operation_xyz
x,y,z
-x,y,1/2-z
-x,-y,-z
x,-y,1/2+z
1/2+x,1/2+y,z
1/2-x,1/2+y,1/2-z
1/2-x,1/2-y,-z
1/2+x,1/2-y,1/2+z
loop_
_atom_site_type_symbol
_atom_site_label
_atom_site_fract_x
_atom_site_fract_y
_atom_site_fract_z
Si Si1 0.517490 0.943228 0.458908
Si Si2 0.722356 0.829122 0.032138
Si Si3 0.218656 0.939889 0.466139
Si Si4 0.410381 0.583327 0.635871
Si Si5 0.344560 0.221541 0.317523
Si Si6 0.795784 0.191752 0.695801
Si Si7 0.360176 0.840398 0.619774
Si Si8 0.500000 0.522494 0.750000
O O1 0.588136 0.941027 0.272447
O O2 0.696643 0.926370 0.364052
O O3 0.368868 0.899865 0.607225
O O4 0.500000 0.000000 0.500000
O O5 0.500000 0.829507 0.250000
O O6 0.803516 0.799647 0.060000
O O7 0.794561 0.885001 0.977670
O O8 0.745438 0.817473 0.886524
O O9 0.076520 0.942569 0.492623
O O10 0.170739 0.983585 0.589567
O O11 0.405446 0.641474 0.620966
O O12 0.524039 0.557340 0.625200
O O13 0.500000 0.196419 0.250000
O O14 0.250000 0.250000 0.500000
O O15 0.369833 0.264909 0.205087
O O16 0.272676 0.178500 0.308087
O O17 0.576303 0.179251 0.918898
#
# Coordination Sequence:
#
# PCOD9277117 Si02
#       8
#     8   8   8   8   8   8   8   4
#     4   9  19  39  60  92 124 158 216 272 324 386
#     4   9  16  36  68  89 118 156 209 274 332 379
#     4   9  20  34  55  85 125 165 201 269 321 387
#     4   8  20  36  54  83 124 167 209 262 309 390
#     4  12  25  43  67  92 130 173 217 269 330 394
#     4   9  19  41  62  90 121 166 213 271 333 388
#     4  10  20  40  68  91 126 166 214 277 336 385
#     4  12  20  32  56  86 130 178 216 246 334 402
#
# _framework density 24.531585
#
# number of rings (size 3 to 8) (size 9 to 14) (size 15 to 20)
#    0.800    1.600    4.000    0.400    2.800    0.533 
#    2.400    2.667    0.000    0.000    0.000    0.000 
#    0.000    0.000    0.000    0.000    0.000    0.000 
#
# Total GULP energy -167158.057795 kJ/mol
# GULP energy per Si atom -5571.935260 kJ/mol
# Density = 2.447575 g / cm^3
# Si number density = 24.531585 Si / 1000 Ang^3
#
#
#
# Elastic Constant Matrix: (Units=GPa)
#
#
# Indices 1 2 3 4 5 6 
#
# 1 136.3223 59.7271 43.5769 0.0000 47.8996 0.0000
# 2 59.7271 142.9305 32.8316 0.0000 20.1448 0.0000
# 3 43.5769 32.8316 62.4301 0.0000 19.8855 0.0000
# 4 0.0000 0.0000 0.0000 21.7020 0.0000 6.7535
# 5 47.8996 20.1448 19.8855 0.0000 37.1052 0.0000
# 6 0.0000 0.0000 0.0000 6.7535 0.0000 34.9815
#
#
#
# Elastic Compliance Matrix: (Units=1/GPa)
#
#
# Indices 1 2 3 4 5 6 
#
# 1 0.015939 -0.003393 -0.004069 0.000000 -0.016553 0.000000
# 2 -0.003393 0.008878 -0.002605 0.000000 0.000956 0.000000
# 3 -0.004069 -0.002605 0.021831 0.000000 -0.005033 0.000000
# 4 0.000000 0.000000 0.000000 0.049024 0.000000 -0.009465
# 5 -0.016553 0.000956 -0.005033 0.000000 0.050498 0.000000
# 6 0.000000 0.000000 0.000000 -0.009465 0.000000 0.030414
#
#
# Mechanical properties :
#
#
# Convention : Reuss Voigt Hill
#
# Bulk Modulus (GPa) = 37.71503 68.21713 52.96608
# Shear Modulus (GPa) = 24.32440 32.46088 28.39264
#
# Velocity S-wave (km/s) = 3.15231 3.64157 3.40574
# Velocity P-wave (km/s) = 5.35321 6.74904 6.09124
#
# Compressibility (1/GPa) = 0.02651463
#
# Stress axis : x y z
#
# Youngs Moduli (GPa) = 62.73902 112.63988 45.80623
#
# Poissons Ratio (x) = 0.38217 0.18637
# Poissons Ratio (y) = 0.21287 0.11933
# Poissons Ratio (z) = 0.25527 0.29344
#
# Static dielectric constant tensor:
#      x y z
#    x 2.039170 0.000000 0.031420 
#    y 0.000000 1.924150 0.000000 
#    z 0.031420 0.000000 2.255070 
# 
# From -- ./inp_files/92595.got.cif
#   From: 2010.05.17/outbox.cif.g08.bks.cpg/sg15_47_cif.got.tgz:92595.got - 2010.06.03 18:47:42.
