data_PCOD9277549
_publ_section_title
;
Structure prediction by ZEFSAII (Michael W. Deem and Ramdas Pophale) SiO2 
 PCOD9277549
Probable space group: C 2/C
;
_chemical_formula_sum "Si O2"
_cell_formula_units_Z 48
_cell_length_a 19.215075
_cell_length_b 14.021105
_cell_length_c 23.518506
_cell_angle_alpha 90.000000
_cell_angle_beta 161.382232
_cell_angle_gamma 90.000000
_cell_volume 2022.876287
_symmetry_space_group_name_H-M "C 2/C"
_symmetry_group_IT_number 15
_symmetry_cell_setting 'monoclinic'
loop_
_space_group_symop_operation_xyz
x,y,z
-x,y,1/2-z
-x,-y,-z
x,-y,1/2+z
1/2+x,1/2+y,z
1/2-x,1/2+y,1/2-z
1/2-x,1/2-y,-z
1/2+x,1/2-y,1/2+z
loop_
_atom_site_type_symbol
_atom_site_label
_atom_site_fract_x
_atom_site_fract_y
_atom_site_fract_z
Si Si1 0.327975 0.335954 0.929034
Si Si2 0.367182 0.551942 0.569154
Si Si3 0.869312 0.226241 0.014898
Si Si4 0.202058 0.324702 0.709859
Si Si5 0.500000 0.714305 0.750000
Si Si6 0.196055 0.893458 0.830311
Si Si7 0.000000 0.582733 0.750000
O O1 0.395634 0.418818 0.024957
O O2 0.526083 0.260148 0.075273
O O3 0.225065 0.371194 0.789825
O O4 0.143566 0.277313 0.819563
O O5 0.355651 0.645068 0.598673
O O6 0.585009 0.493711 0.754662
O O7 0.151962 0.487641 0.404560
O O8 0.819578 0.337909 0.975297
O O9 0.670882 0.153444 0.851589
O O10 0.054122 0.216133 0.110262
O O11 0.992824 0.180108 0.163586
O O12 0.180325 0.388070 0.635301
#
# Coordination Sequence:
#
# PCOD9277549 Si02
#       7
#     8   8   8   8   4   8   4
#     4  12  23  43  67  88 130 174 216 269 320 396
#     4  11  25  41  62 100 128 162 226 269 313 382
#     4   9  19  39  64  90 127 169 206 250 339 377
#     4  10  20  41  65  90 124 170 209 254 328 382
#     4  12  27  43  62  96 124 182 212 265 343 364
#     4   9  20  40  63  94 126 162 217 256 321 384
#     4  10  23  41  64  96 132 168 214 267 311 396
#
# _framework density 23.728588999999999
#
# number of rings (size 3 to 8) (size 9 to 14) (size 15 to 20)
#    1.000    0.667    3.333    1.000    2.333    5.333 
#    0.000    3.333    0.000    0.000    0.000    0.000 
#    0.000    0.000    0.000    0.000    0.000    0.000 
#
# Total GULP energy -133861.445619 kJ/mol
# GULP energy per Si atom -5577.560234 kJ/mol
# Density = 2.367458 g / cm^3
# Si number density = 23.728589 Si / 1000 Ang^3
#
#
#
# Elastic Constant Matrix: (Units=GPa)
#
#
# Indices 1 2 3 4 5 6 
#
# 1 109.8617 15.0945 15.7261 -0.0137 12.6146 0.0052
# 2 15.0945 67.1486 9.0800 -0.0155 15.7179 0.1278
# 3 15.7261 9.0800 59.0775 0.0048 30.8835 0.0792
# 4 -0.0137 -0.0155 0.0048 13.5392 -0.0084 -3.3414
# 5 12.6146 15.7179 30.8835 -0.0084 38.5804 0.0121
# 6 0.0052 0.1278 0.0792 -3.3414 0.0121 29.2645
#
#
#
# Elastic Compliance Matrix: (Units=1/GPa)
#
#
# Indices 1 2 3 4 5 6 
#
# 1 0.009711 -0.001693 -0.001763 0.000011 -0.001074 0.000012
# 2 -0.001693 0.016855 0.001996 -0.000007 -0.007911 -0.000076
# 3 -0.001763 0.001996 0.029600 -0.000046 -0.023931 -0.000084
# 4 0.000011 -0.000007 -0.000046 0.076002 0.000050 0.008678
# 5 -0.001074 -0.007911 -0.023931 0.000050 0.048651 0.000085
# 6 0.000012 -0.000076 -0.000084 0.008678 0.000085 0.035162
#
#
# Mechanical properties :
#
#
# Convention : Reuss Voigt Hill
#
# Bulk Modulus (GPa) = 18.78144 35.09878 26.94011
# Shear Modulus (GPa) = 21.12822 29.35596 25.24209
#
# Velocity S-wave (km/s) = 2.98721 3.52114 3.26511
# Velocity P-wave (km/s) = 4.45311 5.59956 5.05892
#
# Compressibility (1/GPa) = 0.05324405
#
# Stress axis : x y z
#
# Youngs Moduli (GPa) = 102.97930 59.32977 33.78367
#
# Poissons Ratio (x) = 0.10045 0.05958
# Poissons Ratio (y) = 0.17436 -0.06742
# Poissons Ratio (z) = 0.18160 -0.11841
#
# Static dielectric constant tensor:
#      x y z
#    x 2.000780 0.000000 -0.001000 
#    y 0.000000 1.879410 -0.000030 
#    z -0.001000 -0.000030 2.048130 
# 
# From -- ./inp_files/300993.got.cif
#   From: 2010.05.17/outbox.cif.g08.bks.cpg/sg15_151_cif.got.tgz:300993.got - 2010.06.03 18:47:42.
