data_PCOD9277799
_publ_section_title
;
Structure prediction by ZEFSAII (Michael W. Deem and Ramdas Pophale) SiO2 
 PCOD9277799
Probable space group: C 2/C
;
_chemical_formula_sum "Si O2"
_cell_formula_units_Z 52
_cell_length_a 6.679737
_cell_length_b 27.186679
_cell_length_c 15.568815
_cell_angle_alpha 90.000000
_cell_angle_beta 57.987241
_cell_angle_gamma 90.000000
_cell_volume 2397.348201
_symmetry_space_group_name_H-M "C 2/C"
_symmetry_group_IT_number 15
_symmetry_cell_setting 'monoclinic'
loop_
_space_group_symop_operation_xyz
x,y,z
-x,y,1/2-z
-x,-y,-z
x,-y,1/2+z
1/2+x,1/2+y,z
1/2-x,1/2+y,1/2-z
1/2-x,1/2-y,-z
1/2+x,1/2-y,1/2+z
loop_
_atom_site_type_symbol
_atom_site_label
_atom_site_fract_x
_atom_site_fract_y
_atom_site_fract_z
Si Si1 0.500000 0.269820 0.750000
Si Si2 0.884037 0.791353 0.053197
Si Si3 0.408244 0.627268 0.865527
Si Si4 0.038221 0.383501 0.642768
Si Si5 0.776326 0.720214 0.345644
Si Si6 0.496986 0.442447 0.017448
Si Si7 0.846229 0.625383 0.009718
O O1 0.309730 0.237526 0.847020
O O2 0.364570 0.298013 0.706358
O O3 0.008243 0.828801 0.090933
O O4 0.763525 0.825212 0.007035
O O5 0.083489 0.759360 0.956916
O O6 0.500000 0.635232 0.750000
O O7 0.521249 0.577620 0.880853
O O8 0.125132 0.625156 0.927102
O O9 0.121659 0.326905 0.629566
O O10 0.254125 0.417725 0.564828
O O11 0.000000 0.397847 0.750000
O O12 0.838655 0.382984 0.614434
O O13 0.000000 0.747683 0.250000
O O14 0.500000 0.500000 0.000000
O O15 0.292725 0.417638 0.007252
#
# Coordination Sequence:
#
# PCOD9277799 Si02
#       7
#     4   8   8   8   8   8   8
#     4  12  28  40  68  96 130 176 226 298 330 398
#     4  11  23  45  64  97 126 169 230 272 339 396
#     4  10  21  40  66  93 125 172 216 260 328 396
#     4  10  22  41  64  95 125 176 221 260 331 405
#     4  11  25  43  63  93 128 171 223 276 338 400
#     4  10  22  42  63 100 130 161 214 266 329 397
#     4  10  20  41  70  84 128 175 200 278 317 391
#
# _framework density 21.690633999999999
#
# number of rings (size 3 to 8) (size 9 to 14) (size 15 to 20)
#    0.000    1.538    4.615    1.385    4.308    7.385 
#    5.538    0.000    0.000    0.000    0.000    0.000 
#    0.000    0.000    0.000    0.000    0.000    0.000 
#
# Total GULP energy -145127.009659 kJ/mol
# GULP energy per Si atom -5581.808064 kJ/mol
# Density = 2.164126 g / cm^3
# Si number density = 21.690634 Si / 1000 Ang^3
#
#
#
# Elastic Constant Matrix: (Units=GPa)
#
#
# Indices 1 2 3 4 5 6 
#
# 1 152.5087 44.0139 58.7280 0.0000 29.8029 0.0000
# 2 44.0139 92.4633 32.9059 0.0000 0.4051 0.0000
# 3 58.7280 32.9059 175.3466 0.0000 2.6094 0.0000
# 4 0.0000 0.0000 0.0000 1.6275 0.0000 6.8695
# 5 29.8029 0.4051 2.6094 0.0000 47.5667 0.0000
# 6 0.0000 0.0000 0.0000 6.8695 0.0000 17.8936
#
#
#
# Elastic Compliance Matrix: (Units=1/GPa)
#
#
# Indices 1 2 3 4 5 6 
#
# 1 0.009749 -0.003733 -0.002476 0.000000 -0.005940 0.000000
# 2 -0.003733 0.013019 -0.001227 0.000000 0.002296 0.000000
# 3 -0.002476 -0.001227 0.006745 0.000000 0.001192 0.000000
# 4 0.000000 0.000000 0.000000 -0.990304 0.000000 0.380186
# 5 -0.005940 0.002296 0.001192 0.000000 0.024660 0.000000
# 6 0.000000 0.000000 0.000000 0.380186 0.000000 -0.090071
#
#
# Mechanical properties :
#
#
# Convention : Reuss Voigt Hill
#
# Bulk Modulus (GPa) = 68.30744 76.84601 72.57672
# Shear Modulus (GPa) = -4.96796 32.39561 13.71383
#
# Velocity S-wave (km/s) = -1.51504 3.86881 2.51718
# Velocity P-wave (km/s) = 5.33850 7.44729 6.47926
#
# Compressibility (1/GPa) = 0.01463969
#
# Stress axis : x y z
#
# Youngs Moduli (GPa) = 102.57645 76.81197 148.26220
#
# Poissons Ratio (x) = 0.28677 0.36711
# Poissons Ratio (y) = 0.38295 0.18190
# Poissons Ratio (z) = 0.25399 0.09424
#
# Static dielectric constant tensor:
#      x y z
#    x 1.826320 0.000000 -0.021410 
#    y 0.000000 1.760250 0.000000 
#    z -0.021410 0.000000 1.881130 
# 
# From -- ./inp_files/130715.got.cif
#   From: 2010.05.17/outbox.cif.g08.bks.cpg/sg15_66_cif.got.tgz:130715.got - 2010.06.03 18:47:42.
