data_PCOD9277664
_publ_section_title
;
Structure prediction by ZEFSAII (Michael W. Deem and Ramdas Pophale) SiO2 
 PCOD9277664
Probable space group: C 2/C
;
_chemical_formula_sum "Si O2"
_cell_formula_units_Z 40
_cell_length_a 7.713767
_cell_length_b 22.834306
_cell_length_c 9.709917
_cell_angle_alpha 90.000000
_cell_angle_beta 94.460496
_cell_angle_gamma 90.000000
_cell_volume 1705.110231
_symmetry_space_group_name_H-M "C 2/C"
_symmetry_group_IT_number 15
_symmetry_cell_setting 'monoclinic'
loop_
_space_group_symop_operation_xyz
x,y,z
-x,y,1/2-z
-x,-y,-z
x,-y,1/2+z
1/2+x,1/2+y,z
1/2-x,1/2+y,1/2-z
1/2-x,1/2-y,-z
1/2+x,1/2-y,1/2+z
loop_
_atom_site_type_symbol
_atom_site_label
_atom_site_fract_x
_atom_site_fract_y
_atom_site_fract_z
Si Si1 0.669109 0.589494 0.663389
Si Si2 0.669867 0.726503 0.659443
Si Si3 0.110311 0.484373 0.873466
Si Si4 0.446258 0.588149 0.400362
Si Si5 0.095146 0.227343 0.088504
O O1 0.500000 0.584936 0.750000
O O2 0.721368 0.657514 0.660172
O O3 0.815740 0.542071 0.700619
O O4 0.602344 0.571501 0.508916
O O5 0.500000 0.729778 0.750000
O O6 0.826579 0.757610 0.754053
O O7 0.580312 0.747203 0.508020
O O8 0.271262 0.444633 0.927023
O O9 0.000000 0.451087 0.750000
O O10 0.000000 0.500000 0.000000
O O11 0.500000 0.573512 0.250000
O O12 0.418210 0.657307 0.415461
O O13 0.250000 0.250000 0.000000
#
# Coordination Sequence:
#
# PCOD9277664 Si02
#       5
#     8   8   8   8   8
#     4  10  20  41  67  88 120 170 213 249 311 397
#     4   8  16  32  58  88 118 156 203 251 304 366
#     4  12  25  40  61  95 126 157 208 272 324 364
#     4  11  23  42  64  89 126 173 212 252 318 395
#     4   9  18  35  59  88 121 162 207 256 310 370
#
# _framework density 23.458891999999999
#
# number of rings (size 3 to 8) (size 9 to 14) (size 15 to 20)
#    0.000    2.000    0.000    4.800    0.000    2.400 
#    0.000    9.000    0.000    0.000    0.000    0.000 
#    0.000    0.000    0.000    0.000    0.000    0.000 
#
# Total GULP energy -111724.696180 kJ/mol
# GULP energy per Si atom -5586.234809 kJ/mol
# Density = 2.340550 g / cm^3
# Si number density = 23.458892 Si / 1000 Ang^3
#
#
#
# Elastic Constant Matrix: (Units=GPa)
#
#
# Indices 1 2 3 4 5 6 
#
# 1 124.1912 36.7266 19.0829 0.0000 30.7169 0.0000
# 2 36.7266 69.4842 1.9153 0.0000 20.8695 0.0000
# 3 19.0829 1.9153 151.6362 0.0000 10.9975 0.0000
# 4 0.0000 0.0000 0.0000 44.2865 0.0000 25.7926
# 5 30.7169 20.8695 10.9975 0.0000 50.5410 0.0000
# 6 0.0000 0.0000 0.0000 25.7926 0.0000 46.0948
#
#
#
# Elastic Compliance Matrix: (Units=1/GPa)
#
#
# Indices 1 2 3 4 5 6 
#
# 1 0.010547 -0.004207 -0.000950 0.000000 -0.004466 0.000000
# 2 -0.004207 0.018120 0.000668 0.000000 -0.005071 0.000000
# 3 -0.000950 0.000668 0.006791 0.000000 -0.001176 0.000000
# 4 0.000000 0.000000 0.000000 0.033496 0.000000 -0.018743
# 5 -0.004466 -0.005071 -0.001176 0.000000 0.024850 0.000000
# 6 0.000000 0.000000 0.000000 -0.018743 0.000000 0.032182
#
#
# Mechanical properties :
#
#
# Convention : Reuss Voigt Hill
#
# Bulk Modulus (GPa) = 37.76434 51.19568 44.48001
# Shear Modulus (GPa) = 34.77270 47.35692 41.06481
#
# Velocity S-wave (km/s) = 3.85422 4.49789 4.18844
# Velocity P-wave (km/s) = 5.99497 6.98897 6.51097
#
# Compressibility (1/GPa) = 0.02648001
#
# Stress axis : x y z
#
# Youngs Moduli (GPa) = 94.81485 55.18763 147.24985
#
# Poissons Ratio (x) = 0.23218 0.13992
# Poissons Ratio (y) = 0.39890 -0.09841
# Poissons Ratio (z) = 0.09010 -0.03688
#
# Static dielectric constant tensor:
#      x y z
#    x 1.787390 0.000000 -0.054440 
#    y 0.000000 1.680580 0.000000 
#    z -0.054440 0.000000 1.903720 
# 
# From -- ./inp_files/23760.got.cif
#   From: 2010.05.17/outbox.cif.g08.bks.cpg/sg15_12_cif.got.tgz:23760.got - 2010.06.03 18:47:42.
