data_PCOD9277330
_publ_section_title
;
Structure prediction by ZEFSAII (Michael W. Deem and Ramdas Pophale) SiO2 
 PCOD9277330
Probable space group: C 2/C
;
_chemical_formula_sum "Si O2"
_cell_formula_units_Z 56
_cell_length_a 16.206515
_cell_length_b 11.964141
_cell_length_c 24.678154
_cell_angle_alpha 90.000000
_cell_angle_beta 28.653583
_cell_angle_gamma 90.000000
_cell_volume 2294.478416
_symmetry_space_group_name_H-M "C 2/C"
_symmetry_group_IT_number 15
_symmetry_cell_setting 'monoclinic'
loop_
_space_group_symop_operation_xyz
x,y,z
-x,y,1/2-z
-x,-y,-z
x,-y,1/2+z
1/2+x,1/2+y,z
1/2-x,1/2+y,1/2-z
1/2-x,1/2-y,-z
1/2+x,1/2-y,1/2+z
loop_
_atom_site_type_symbol
_atom_site_label
_atom_site_fract_x
_atom_site_fract_y
_atom_site_fract_z
Si Si1 0.500000 0.000000 0.500000
Si Si2 0.440375 0.382161 0.603209
Si Si3 0.877309 0.512017 0.446642
Si Si4 0.601460 0.258746 0.417990
Si Si5 0.975382 0.040859 0.679188
Si Si6 0.500000 0.380227 0.750000
Si Si7 0.435897 0.217182 0.183152
Si Si8 0.509711 0.778448 0.158807
O O1 0.479239 0.006859 0.444873
O O2 0.460646 0.860511 0.521557
O O3 0.535634 0.362317 0.492024
O O4 0.437509 0.494444 0.641132
O O5 0.524879 0.291987 0.595376
O O6 0.900204 0.203710 0.347114
O O7 0.676039 0.522508 0.573768
O O8 0.923289 0.402103 0.386438
O O9 0.924866 0.623115 0.385411
O O10 0.807112 0.273162 0.291003
O O11 0.529490 0.257370 0.398291
O O12 0.889679 0.959631 0.773386
O O13 0.744668 0.844799 0.708683
O O14 0.427501 0.333151 0.219415
#
# Coordination Sequence:
#
# PCOD9277330 Si02
#       8
#     4   8   8   8   8   4   8   8
#     4  10  20  40  74 102 136 192 238 286 378 436
#     4  10  23  40  70  97 139 183 238 302 352 424
#     4  11  23  43  72 100 147 184 237 307 361 440
#     4  10  21  39  67 100 134 186 238 293 356 435
#     4  11  25  45  68 102 142 189 244 303 364 433
#     4  10  24  40  66  98 138 178 234 298 356 420
#     4  10  25  43  67 102 141 187 247 293 365 441
#     4  10  22  39  65 107 135 178 243 297 359 421
#
# _framework density 24.406419
#
# number of rings (size 3 to 8) (size 9 to 14) (size 15 to 20)
#    0.000    1.714    1.429    1.286    6.000    7.429 
#    0.000    0.714    0.000    0.000    0.000    0.000 
#    0.000    0.000    0.000    0.000    0.000    0.000 
#
# Total GULP energy -156105.523925 kJ/mol
# GULP energy per Si atom -5575.197283 kJ/mol
# Density = 2.435087 g / cm^3
# Si number density = 24.406419 Si / 1000 Ang^3
#
#
#
# Elastic Constant Matrix: (Units=GPa)
#
#
# Indices 1 2 3 4 5 6 
#
# 1 39.3665 10.5943 4.2188 0.0001 9.9238 -0.0001
# 2 10.5943 152.9411 28.7631 -0.0002 -12.9298 -0.0001
# 3 4.2188 28.7631 63.2415 -0.0017 7.7417 0.0000
# 4 0.0001 -0.0002 -0.0017 29.9399 0.0003 10.8686
# 5 9.9238 -12.9298 7.7417 0.0003 17.5016 0.0001
# 6 -0.0001 -0.0001 0.0000 10.8686 0.0001 29.2444
#
#
#
# Elastic Compliance Matrix: (Units=1/GPa)
#
#
# Indices 1 2 3 4 5 6 
#
# 1 0.032145 -0.004691 0.002796 0.000000 -0.022930 0.000000
# 2 -0.004691 0.008781 -0.005075 0.000000 0.011392 0.000000
# 3 0.002796 -0.005075 0.019651 0.000001 -0.014028 0.000000
# 4 0.000000 0.000000 0.000001 0.038609 -0.000002 -0.014349
# 5 -0.022930 0.011392 -0.014028 -0.000002 0.084761 0.000000
# 6 0.000000 0.000000 0.000000 -0.014349 0.000000 0.039527
#
#
# Mechanical properties :
#
#
# Convention : Reuss Voigt Hill
#
# Bulk Modulus (GPa) = 21.44209 38.07795 29.76002
# Shear Modulus (GPa) = 19.76585 29.46872 24.61729
#
# Velocity S-wave (km/s) = 2.84890 3.47856 3.17935
# Velocity P-wave (km/s) = 4.43014 5.63643 5.06929
#
# Compressibility (1/GPa) = 0.04663725
#
# Stress axis : x y z
#
# Youngs Moduli (GPa) = 31.10859 113.88170 50.88686
#
# Poissons Ratio (x) = 0.53423 -0.14229
# Poissons Ratio (y) = 0.14593 0.25827
# Poissons Ratio (z) = -0.08698 0.57799
#
# Static dielectric constant tensor:
#      x y z
#    x 2.194330 0.000010 -0.352680 
#    y 0.000010 1.942540 -0.000010 
#    z -0.352680 -0.000010 2.598180 
# 
# From -- ./inp_files/316330.got.cif
#   From: 2010.05.17/outbox.cif.g08.bks.cpg/sg15_159_cif.got.tgz:316330.got - 2010.06.03 18:47:42.
