data_PCOD9277684
_publ_section_title
;
Structure prediction by ZEFSAII (Michael W. Deem and Ramdas Pophale) SiO2 
 PCOD9277684
Probable space group: C 2/C
;
_chemical_formula_sum "Si O2"
_cell_formula_units_Z 56
_cell_length_a 21.187367
_cell_length_b 9.134898
_cell_length_c 14.570384
_cell_angle_alpha 90.000000
_cell_angle_beta 95.541416
_cell_angle_gamma 90.000000
_cell_volume 2806.837853
_symmetry_space_group_name_H-M "C 2/C"
_symmetry_group_IT_number 15
_symmetry_cell_setting 'monoclinic'
loop_
_space_group_symop_operation_xyz
x,y,z
-x,y,1/2-z
-x,-y,-z
x,-y,1/2+z
1/2+x,1/2+y,z
1/2-x,1/2+y,1/2-z
1/2-x,1/2-y,-z
1/2+x,1/2-y,1/2+z
loop_
_atom_site_type_symbol
_atom_site_label
_atom_site_fract_x
_atom_site_fract_y
_atom_site_fract_z
Si Si1 0.662613 0.854739 0.196519
Si Si2 0.943053 0.870811 0.415776
Si Si3 0.334908 0.140632 0.425875
Si Si4 0.425911 0.608214 0.262187
Si Si5 0.273331 0.134090 0.605752
Si Si6 0.919200 0.059676 0.583074
Si Si7 0.700004 0.651103 0.045962
O O1 0.600853 0.769648 0.225337
O O2 0.700282 0.906020 0.291240
O O3 0.694959 0.723507 0.144768
O O4 0.656993 0.985157 0.122450
O O5 0.893909 0.739210 0.402106
O O6 0.016170 0.846192 0.396228
O O7 0.919194 0.006296 0.350561
O O8 0.940909 0.926751 0.519989
O O9 0.328208 0.139426 0.535977
O O10 0.267782 0.217659 0.390637
O O11 0.500000 0.616860 0.250000
O O12 0.396220 0.515699 0.173671
O O13 0.224900 0.013049 0.560766
O O14 0.864547 0.145940 0.522056
O O15 0.750000 0.750000 0.000000
#
# Coordination Sequence:
#
# PCOD9277684 Si02
#       7
#     8   8   8   8   8   8   8
#     4  12  24  40  65  98 133 172 214 272 334 383
#     4  10  20  41  67  93 123 169 219 263 320 382
#     4  11  23  41  62  96 132 169 218 270 329 395
#     4  10  22  41  68  96 126 174 223 264 321 389
#     4  11  24  41  63  91 134 177 214 262 331 397
#     4  10  21  40  71  90 124 170 222 267 307 388
#     4  12  24  43  65  98 130 171 226 263 318 396
#
# _framework density 19.951276
#
# number of rings (size 3 to 8) (size 9 to 14) (size 15 to 20)
#    0.000    1.143    4.286    1.714    2.000    3.429 
#    0.000    4.286    0.000    0.000    0.000    0.000 
#    0.000    0.000    0.000    0.000    0.000    0.000 
#
# Total GULP energy -156266.791187 kJ/mol
# GULP energy per Si atom -5580.956828 kJ/mol
# Density = 1.990587 g / cm^3
# Si number density = 19.951276 Si / 1000 Ang^3
#
#
#
# Elastic Constant Matrix: (Units=GPa)
#
#
# Indices 1 2 3 4 5 6 
#
# 1 82.9837 39.6601 28.3813 0.0000 -3.6810 0.0000
# 2 39.6601 81.0748 25.9268 0.0000 -8.2762 0.0000
# 3 28.3813 25.9268 97.4960 0.0000 0.6993 0.0000
# 4 0.0000 0.0000 0.0000 27.9130 0.0000 -11.0123
# 5 -3.6810 -8.2762 0.6993 0.0000 23.9622 0.0000
# 6 0.0000 0.0000 0.0000 -11.0123 0.0000 34.4830
#
#
#
# Elastic Compliance Matrix: (Units=1/GPa)
#
#
# Indices 1 2 3 4 5 6 
#
# 1 0.016442 -0.007100 -0.002900 0.000000 0.000158 0.000000
# 2 -0.007100 0.017112 -0.002519 0.000000 0.004893 0.000000
# 3 -0.002900 -0.002519 0.011783 0.000000 -0.001659 0.000000
# 4 0.000000 0.000000 0.000000 0.040990 0.000000 0.013090
# 5 0.000158 0.004893 -0.001659 0.000000 0.043495 0.000000
# 6 0.000000 0.000000 0.000000 0.013090 0.000000 0.033180
#
#
# Mechanical properties :
#
#
# Convention : Reuss Voigt Hill
#
# Bulk Modulus (GPa) = 49.25918 49.94344 49.60131
# Shear Modulus (GPa) = 25.66647 28.44406 27.05527
#
# Velocity S-wave (km/s) = 3.59061 3.77991 3.68648
# Velocity P-wave (km/s) = 6.47560 6.64359 6.56013
#
# Compressibility (1/GPa) = 0.02030079
#
# Stress axis : x y z
#
# Youngs Moduli (GPa) = 60.81802 58.43696 84.87051
#
# Poissons Ratio (x) = 0.41490 0.24608
# Poissons Ratio (y) = 0.43180 0.21378
# Poissons Ratio (z) = 0.17634 0.14720
#
# Static dielectric constant tensor:
#      x y z
#    x 1.767610 0.000000 -0.029850 
#    y 0.000000 1.677630 0.000000 
#    z -0.029850 0.000000 1.749820 
# 
# From -- ./inp_files/166659.got.cif
#   From: 2010.05.17/outbox.cif.g08.bks.cpg/sg15_84_cif.got.tgz:166659.got - 2010.06.03 18:47:42.
