data_PCOD9277816
_publ_section_title
;
Structure prediction by ZEFSAII (Michael W. Deem and Ramdas Pophale) SiO2 
 PCOD9277816
Probable space group: C 2/C
;
_chemical_formula_sum "Si O2"
_cell_formula_units_Z 40
_cell_length_a 20.557126
_cell_length_b 7.349680
_cell_length_c 12.314948
_cell_angle_alpha 90.000000
_cell_angle_beta 58.693585
_cell_angle_gamma 90.000000
_cell_volume 1589.735912
_symmetry_space_group_name_H-M "C 2/C"
_symmetry_group_IT_number 15
_symmetry_cell_setting 'monoclinic'
loop_
_space_group_symop_operation_xyz
x,y,z
-x,y,1/2-z
-x,-y,-z
x,-y,1/2+z
1/2+x,1/2+y,z
1/2-x,1/2+y,1/2-z
1/2-x,1/2-y,-z
1/2+x,1/2-y,1/2+z
loop_
_atom_site_type_symbol
_atom_site_label
_atom_site_fract_x
_atom_site_fract_y
_atom_site_fract_z
Si Si1 0.855456 0.231232 0.416158
Si Si2 0.410963 0.639806 0.806712
Si Si3 0.807215 0.610393 0.507411
Si Si4 0.446785 0.241172 0.055215
Si Si5 0.105400 0.664907 0.862167
O O1 0.796001 0.393147 0.501175
O O2 0.917238 0.256447 0.458512
O O3 0.876682 0.277915 0.274422
O O4 0.858176 0.012280 0.407329
O O5 0.500000 0.604953 0.750000
O O6 0.386289 0.832885 0.879003
O O7 0.402441 0.641348 0.683491
O O8 0.750000 0.750000 0.500000
O O9 0.822099 0.656096 0.620689
O O10 0.429436 0.037225 0.110491
O O11 0.536630 0.281384 0.974239
#
# Coordination Sequence:
#
# PCOD9277816 Si02
#       5
#     8   8   8   8   8
#     4  11  25  42  70 105 138 183 244 300 358 431
#     4  12  24  41  72 106 145 188 243 302 368 423
#     4  11  26  49  68  98 145 199 242 296 363 438
#     4  10  21  38  71 106 140 176 237 303 366 416
#     4  10  20  41  70  99 142 183 233 303 357 422
#
# _framework density 25.161408999999999
#
# number of rings (size 3 to 8) (size 9 to 14) (size 15 to 20)
#    0.000    1.200    4.000    1.800    2.800    3.200 
#    3.600    0.000    0.000    0.000    0.000    0.000 
#    0.000    0.000    0.000    0.000    0.000    0.000 
#
# Total GULP energy -111659.326398 kJ/mol
# GULP energy per Si atom -5582.966320 kJ/mol
# Density = 2.510414 g / cm^3
# Si number density = 25.161409 Si / 1000 Ang^3
#
#
#
# Elastic Constant Matrix: (Units=GPa)
#
#
# Indices 1 2 3 4 5 6 
#
# 1 83.3212 24.0616 14.3913 0.0000 9.3959 0.0000
# 2 24.0616 117.5277 0.5696 0.0000 4.0381 0.0000
# 3 14.3913 0.5696 87.1499 0.0000 44.8399 0.0000
# 4 0.0000 0.0000 0.0000 56.6093 0.0000 -0.9859
# 5 9.3959 4.0381 44.8399 0.0000 36.5241 0.0000
# 6 0.0000 0.0000 0.0000 -0.9859 0.0000 23.7247
#
#
#
# Elastic Compliance Matrix: (Units=1/GPa)
#
#
# Indices 1 2 3 4 5 6 
#
# 1 0.013168 -0.002647 -0.001533 0.000000 -0.001212 0.000000
# 2 -0.002647 0.009117 0.001482 0.000000 -0.002146 0.000000
# 3 -0.001533 0.001482 0.031491 0.000000 -0.038430 0.000000
# 4 0.000000 0.000000 0.000000 0.017678 0.000000 0.000735
# 5 -0.001212 -0.002146 -0.038430 0.000000 0.075108 0.000000
# 6 0.000000 0.000000 0.000000 0.000735 0.000000 0.042181
#
#
# Mechanical properties :
#
#
# Convention : Reuss Voigt Hill
#
# Bulk Modulus (GPa) = 20.67025 40.67151 30.67088
# Shear Modulus (GPa) = 23.77950 39.97003 31.87477
#
# Velocity S-wave (km/s) = 3.07755 3.98998 3.56309
# Velocity P-wave (km/s) = 4.56742 6.11767 5.39848
#
# Compressibility (1/GPa) = 0.04837871
#
# Stress axis : x y z
#
# Youngs Moduli (GPa) = 75.94381 109.68448 31.75528
#
# Poissons Ratio (x) = 0.29031 0.04869
# Poissons Ratio (y) = 0.20100 -0.04705
# Poissons Ratio (z) = 0.11645 -0.16252
#
# Static dielectric constant tensor:
#      x y z
#    x 2.132840 0.000000 -0.026520 
#    y 0.000000 1.730700 0.000000 
#    z -0.026520 0.000000 1.928400 
# 
# From -- ./inp_files/115905.got.cif
#   From: 2010.05.17/outbox.cif.g08.bks.cpg/sg15_58_cif.got.tgz:115905.got - 2010.06.03 18:47:42.
