data_PCOD9277948
_publ_section_title
;
Structure prediction by ZEFSAII (Michael W. Deem and Ramdas Pophale) SiO2 
 PCOD9277948
Probable space group: C 2/C
;
_chemical_formula_sum "Si O2"
_cell_formula_units_Z 32
_cell_length_a 10.489917
_cell_length_b 25.295528
_cell_length_c 4.926971
_cell_angle_alpha 90.000000
_cell_angle_beta 105.365272
_cell_angle_gamma 90.000000
_cell_volume 1260.631748
_symmetry_space_group_name_H-M "C 2/C"
_symmetry_group_IT_number 15
_symmetry_cell_setting 'monoclinic'
loop_
_space_group_symop_operation_xyz
x,y,z
-x,y,1/2-z
-x,-y,-z
x,-y,1/2+z
1/2+x,1/2+y,z
1/2-x,1/2+y,1/2-z
1/2-x,1/2-y,-z
1/2+x,1/2-y,1/2+z
loop_
_atom_site_type_symbol
_atom_site_label
_atom_site_fract_x
_atom_site_fract_y
_atom_site_fract_z
Si Si1 0.500000 0.459946 0.250000
Si Si2 0.800204 0.317947 0.782461
Si Si3 0.000000 0.597687 0.250000
Si Si4 0.780479 0.464355 0.315690
Si Si5 0.866878 0.801387 0.330361
O O1 0.500000 0.500000 0.500000
O O2 0.643897 0.433223 0.310712
O O3 0.902625 0.364769 0.863239
O O4 0.868377 0.261835 0.889448
O O5 0.751467 0.312143 0.446774
O O6 0.675089 0.326489 0.908715
O O7 0.090650 0.564623 0.505198
O O8 0.778565 0.482526 0.003191
O O9 0.000000 0.816285 0.250000
#
# Coordination Sequence:
#
# PCOD9277948 Si02
#       5
#     4   8   4   8   8
#     4   8  16  36  62  87 116 166 212 247 312 390
#     4  10  23  36  63  95 122 173 210 282 319 394
#     4  12  24  42  62 105 138 166 228 271 338 388
#     4  10  22  40  66  94 133 175 212 267 332 399
#     4  10  20  42  63  85 127 171 228 257 339 384
#
# _framework density 25.3841
#
# number of rings (size 3 to 8) (size 9 to 14) (size 15 to 20)
#    0.000    2.000    1.250    1.500    0.000    5.000 
#    2.250    0.000   16.500    0.000    0.000    0.000 
#    0.000    0.250    0.000    0.000    0.000    0.000 
#
# Total GULP energy -89607.226582 kJ/mol
# GULP energy per Si atom -5600.451661 kJ/mol
# Density = 2.532632 g / cm^3
# Si number density = 25.384100 Si / 1000 Ang^3
#
#
#
# Elastic Constant Matrix: (Units=GPa)
#
#
# Indices 1 2 3 4 5 6 
#
# 1 128.9560 39.7181 8.8770 0.0000 8.0919 0.0000
# 2 39.7181 63.0486 -0.3126 0.0000 5.5971 0.0000
# 3 8.8770 -0.3126 97.3948 0.0000 -13.1861 0.0000
# 4 0.0000 0.0000 0.0000 11.1106 0.0000 3.8453
# 5 8.0919 5.5971 -13.1861 0.0000 51.4570 0.0000
# 6 0.0000 0.0000 0.0000 3.8453 0.0000 44.6669
#
#
#
# Elastic Compliance Matrix: (Units=1/GPa)
#
#
# Indices 1 2 3 4 5 6 
#
# 1 0.009765 -0.006055 -0.001065 0.000000 -0.001150 0.000000
# 2 -0.006055 0.019773 0.000469 0.000000 -0.001078 0.000000
# 3 -0.001065 0.000469 0.010755 0.000000 0.002872 0.000000
# 4 0.000000 0.000000 0.000000 0.092768 0.000000 -0.007986
# 5 -0.001150 -0.001078 0.002872 0.000000 0.020468 0.000000
# 6 0.000000 0.000000 0.000000 -0.007986 0.000000 0.023075
#
#
# Mechanical properties :
#
#
# Convention : Reuss Voigt Hill
#
# Bulk Modulus (GPa) = 37.04817 42.88494 39.96656
# Shear Modulus (GPa) = 25.13794 37.52136 31.32965
#
# Velocity S-wave (km/s) = 3.15032 3.84884 3.51696
# Velocity P-wave (km/s) = 5.27820 6.05660 5.68075
#
# Compressibility (1/GPa) = 0.02699189
#
# Stress axis : x y z
#
# Youngs Moduli (GPa) = 102.40767 50.57392 92.98023
#
# Poissons Ratio (x) = 0.30621 0.09904
# Poissons Ratio (y) = 0.62005 -0.04364
# Poissons Ratio (z) = 0.10908 -0.02374
#
# Static dielectric constant tensor:
#      x y z
#    x 2.061740 0.000000 0.016600 
#    y 0.000000 2.016070 0.000000 
#    z 0.016600 0.000000 1.899560 
# 
# From -- ./inp_files/4171.got.cif
#   From: 2010.05.17/outbox.cif.g08.bks.cpg/sg15_3_cif.got.tgz:4171.got - 2010.06.03 18:47:42.
