data_PCOD9277788
_publ_section_title
;
Structure prediction by ZEFSAII (Michael W. Deem and Ramdas Pophale) SiO2 
 PCOD9277788
Probable space group: C 2/C
;
_chemical_formula_sum "Si O2"
_cell_formula_units_Z 56
_cell_length_a 14.967329
_cell_length_b 14.247875
_cell_length_c 16.746157
_cell_angle_alpha 90.000000
_cell_angle_beta 39.175960
_cell_angle_gamma 90.000000
_cell_volume 2255.917713
_symmetry_space_group_name_H-M "C 2/C"
_symmetry_group_IT_number 15
_symmetry_cell_setting 'monoclinic'
loop_
_space_group_symop_operation_xyz
x,y,z
-x,y,1/2-z
-x,-y,-z
x,-y,1/2+z
1/2+x,1/2+y,z
1/2-x,1/2+y,1/2-z
1/2-x,1/2-y,-z
1/2+x,1/2-y,1/2+z
loop_
_atom_site_type_symbol
_atom_site_label
_atom_site_fract_x
_atom_site_fract_y
_atom_site_fract_z
Si Si1 0.885416 0.935960 0.961396
Si Si2 0.844853 0.416869 0.817452
Si Si3 0.762490 0.788570 0.347236
Si Si4 0.200796 0.225265 0.870071
Si Si5 0.035225 0.426772 0.543146
Si Si6 0.500000 0.182687 0.750000
Si Si7 0.825192 0.398183 0.510650
Si Si8 0.000000 0.072408 0.750000
O O1 0.902430 0.854742 0.017745
O O2 0.820585 0.876558 0.933193
O O3 0.766609 0.003609 0.082746
O O4 0.985924 0.005698 0.840039
O O5 0.778737 0.314514 0.873079
O O6 0.000000 0.421056 0.750000
O O7 0.894778 0.423426 0.692089
O O8 0.785770 0.787477 0.234560
O O9 0.607842 0.829474 0.472843
O O10 0.875336 0.855898 0.312066
O O11 0.355191 0.219775 0.807168
O O12 0.155150 0.329916 0.928660
O O13 0.163997 0.490049 0.490607
O O14 0.000000 0.500000 0.500000
O O15 0.557523 0.125356 0.635316
#
# Coordination Sequence:
#
# PCOD9277788 Si02
#       8
#     8   8   8   8   8   4   8   4
#     4  11  24  45  72 102 141 194 242 298 374 429
#     4  12  24  44  76 100 143 197 242 300 361 431
#     4  12  27  46  70 110 145 192 245 296 371 434
#     4  11  26  43  70 107 139 183 248 302 370 435
#     4  12  24  45  74 104 144 189 248 302 354 434
#     4  10  20  41  69  96 138 174 230 311 357 420
#     4  11  21  42  69 105 134 185 246 292 369 431
#     4  12  26  47  71  96 156 192 236 299 363 448
#
# _framework density 24.823599999999999
#
# number of rings (size 3 to 8) (size 9 to 14) (size 15 to 20)
#    0.000    0.571    3.571    6.000    3.000    4.000 
#    0.000    0.000    0.000    0.000    0.000    0.000 
#    0.000    0.000    0.000    0.000    0.000    0.000 
#
# Total GULP energy -156148.700453 kJ/mol
# GULP energy per Si atom -5576.739302 kJ/mol
# Density = 2.476710 g / cm^3
# Si number density = 24.823600 Si / 1000 Ang^3
#
#
#
# Elastic Constant Matrix: (Units=GPa)
#
#
# Indices 1 2 3 4 5 6 
#
# 1 47.9626 -0.7216 2.0970 0.0000 0.1287 0.0000
# 2 -0.7216 130.9818 36.3277 0.0000 -2.3274 0.0000
# 3 2.0970 36.3277 86.1351 0.0001 12.5584 -0.0001
# 4 0.0000 0.0000 0.0001 22.2735 -0.0001 6.2327
# 5 0.1287 -2.3274 12.5584 -0.0001 29.6946 0.0001
# 6 0.0000 0.0000 -0.0001 6.2327 0.0001 23.8610
#
#
#
# Elastic Compliance Matrix: (Units=1/GPa)
#
#
# Indices 1 2 3 4 5 6 
#
# 1 0.020883 0.000304 -0.000668 0.000000 0.000216 0.000000
# 2 0.000304 0.008809 -0.004074 0.000000 0.002412 0.000000
# 3 -0.000668 -0.004074 0.014270 0.000000 -0.006352 0.000000
# 4 0.000000 0.000000 0.000000 0.048437 0.000000 -0.012652
# 5 0.000216 0.002412 -0.006352 0.000000 0.036550 0.000000
# 6 0.000000 0.000000 0.000000 -0.012652 0.000000 0.045214
#
#
# Mechanical properties :
#
#
# Convention : Reuss Voigt Hill
#
# Bulk Modulus (GPa) = 28.50172 37.83175 33.16674
# Shear Modulus (GPa) = 25.67580 30.32425 28.00003
#
# Velocity S-wave (km/s) = 3.21959 3.49892 3.36216
# Velocity P-wave (km/s) = 5.03266 5.62108 5.33499
#
# Compressibility (1/GPa) = 0.03508560
#
# Stress axis : x y z
#
# Youngs Moduli (GPa) = 47.88631 113.51731 70.07510
#
# Poissons Ratio (x) = -0.03453 0.04682
# Poissons Ratio (y) = -0.01457 0.28552
# Poissons Ratio (z) = 0.03200 0.46252
#
# Static dielectric constant tensor:
#      x y z
#    x 2.011260 0.000000 -0.093540 
#    y 0.000000 2.107250 0.000000 
#    z -0.093540 0.000000 1.959200 
# 
# From -- ./inp_files/211206.got.cif
#   From: 2010.05.17/outbox.cif.g08.bks.cpg/sg15_106_cif.got.tgz:211206.got - 2010.06.03 18:47:42.
