data_PCOD9277063
_publ_section_title
;
Structure prediction by ZEFSAII (Michael W. Deem and Ramdas Pophale) SiO2 
 PCOD9277063
Probable space group: C 2/C
;
_chemical_formula_sum "Si O2"
_cell_formula_units_Z 60
_cell_length_a 12.000997
_cell_length_b 28.816881
_cell_length_c 9.657923
_cell_angle_alpha 90.000000
_cell_angle_beta 74.300738
_cell_angle_gamma 90.000000
_cell_volume 3215.413713
_symmetry_space_group_name_H-M "C 2/C"
_symmetry_group_IT_number 15
_symmetry_cell_setting 'monoclinic'
loop_
_space_group_symop_operation_xyz
x,y,z
-x,y,1/2-z
-x,-y,-z
x,-y,1/2+z
1/2+x,1/2+y,z
1/2-x,1/2+y,1/2-z
1/2-x,1/2-y,-z
1/2+x,1/2-y,1/2+z
loop_
_atom_site_type_symbol
_atom_site_label
_atom_site_fract_x
_atom_site_fract_y
_atom_site_fract_z
Si Si1 0.220653 0.081583 0.687711
Si Si2 0.500000 0.214798 0.750000
Si Si3 0.085550 0.494339 0.346954
Si Si4 0.271842 0.156124 0.902345
Si Si5 0.383245 0.616172 0.063239
Si Si6 0.475488 0.695250 0.413999
Si Si7 0.919709 0.955704 0.027311
Si Si8 0.757990 0.421802 0.631398
O O1 0.333339 0.049695 0.654418
O O2 0.235686 0.126082 0.781069
O O3 0.181716 0.096532 0.549274
O O4 0.127394 0.050979 0.802438
O O5 0.383733 0.185633 0.818257
O O6 0.496876 0.250587 0.620271
O O7 0.158016 0.542173 0.319339
O O8 0.000000 0.486375 0.250000
O O9 0.000000 0.500000 0.500000
O O10 0.156365 0.184331 0.992999
O O11 0.303787 0.118599 0.012392
O O12 0.427507 0.668769 0.029736
O O13 0.311619 0.604420 0.224594
O O14 0.502770 0.588252 0.036154
O O15 0.500000 0.675679 0.250000
O O16 0.818085 0.954186 0.947677
O O17 0.000000 0.000000 0.000000
#
# Coordination Sequence:
#
# PCOD9277063 Si02
#       8
#     8   4   8   8   8   8   8   8
#     4  11  25  37  60  94 127 168 217 267 324 386
#     4  10  24  40  72  96 122 170 226 270 322 408
#     4  12  25  42  57  83 127 177 223 264 304 372
#     4  11  22  42  67  97 125 169 224 266 322 399
#     4  12  20  38  59  94 129 160 198 271 337 387
#     4  10  20  40  67  98 126 161 208 271 342 385
#     4  11  21  36  59  89 127 165 210 257 320 389
#     4  11  22  38  61  88 124 172 218 260 319 383
#
# _framework density 18.660118000000001
#
# number of rings (size 3 to 8) (size 9 to 14) (size 15 to 20)
#    0.400    0.533    4.000    5.200    2.800    1.067 
#    0.000    0.667    0.000    1.600    0.000    0.000 
#    0.000    0.000    0.000    0.000    0.000    0.000 
#
# Total GULP energy -167276.957288 kJ/mol
# GULP energy per Si atom -5575.898576 kJ/mol
# Density = 1.861765 g / cm^3
# Si number density = 18.660118 Si / 1000 Ang^3
#
#
#
# Elastic Constant Matrix: (Units=GPa)
#
#
# Indices 1 2 3 4 5 6 
#
# 1 99.1526 50.0084 43.1468 0.0000 -9.5766 0.0000
# 2 50.0084 76.5801 32.6517 0.0000 -13.9882 0.0000
# 3 43.1468 32.6517 99.9223 0.0000 -11.3023 0.0000
# 4 0.0000 0.0000 0.0000 27.7120 0.0000 -3.4913
# 5 -9.5766 -13.9882 -11.3023 0.0000 39.2435 0.0000
# 6 0.0000 0.0000 0.0000 -3.4913 0.0000 24.0244
#
#
#
# Elastic Compliance Matrix: (Units=1/GPa)
#
#
# Indices 1 2 3 4 5 6 
#
# 1 0.016411 -0.009005 -0.004190 0.000000 -0.000412 0.000000
# 2 -0.009005 0.020785 -0.002392 0.000000 0.004522 0.000000
# 3 -0.004190 -0.002392 0.012804 0.000000 0.001812 0.000000
# 4 0.000000 0.000000 0.000000 0.036759 0.000000 0.005342
# 5 -0.000412 0.004522 0.001812 0.000000 0.027515 0.000000
# 6 0.000000 0.000000 0.000000 0.005342 0.000000 0.042401
#
#
# Mechanical properties :
#
#
# Convention : Reuss Voigt Hill
#
# Bulk Modulus (GPa) = 53.12177 58.58542 55.85360
# Shear Modulus (GPa) = 25.75678 28.18584 26.97131
#
# Velocity S-wave (km/s) = 3.71929 3.89071 3.80596
# Velocity P-wave (km/s) = 6.85376 7.18664 7.02217
#
# Compressibility (1/GPa) = 0.01882467
#
# Stress axis : x y z
#
# Youngs Moduli (GPa) = 60.93468 48.11216 78.10237
#
# Poissons Ratio (x) = 0.43327 0.32727
# Poissons Ratio (y) = 0.54874 0.18680
# Poissons Ratio (z) = 0.25533 0.11507
#
# Static dielectric constant tensor:
#      x y z
#    x 1.674210 0.000000 -0.055470 
#    y 0.000000 1.720930 0.000000 
#    z -0.055470 0.000000 1.702380 
# 
# From -- ./inp_files/35654.got.cif
#   From: 2010.05.17/outbox.cif.g08.bks.cpg/sg15_18_cif.got.tgz:35654.got - 2010.06.03 18:47:42.
