data_PCOD9277517
_publ_section_title
;
Structure prediction by ZEFSAII (Michael W. Deem and Ramdas Pophale) SiO2 
 PCOD9277517
Probable space group: C 2/C
;
_chemical_formula_sum "Si O2"
_cell_formula_units_Z 64
_cell_length_a 27.123817
_cell_length_b 14.550278
_cell_length_c 13.854429
_cell_angle_alpha 90.000000
_cell_angle_beta 144.856164
_cell_angle_gamma 90.000000
_cell_volume 3147.421661
_symmetry_space_group_name_H-M "C 2/C"
_symmetry_group_IT_number 15
_symmetry_cell_setting 'monoclinic'
loop_
_space_group_symop_operation_xyz
x,y,z
-x,y,1/2-z
-x,-y,-z
x,-y,1/2+z
1/2+x,1/2+y,z
1/2-x,1/2+y,1/2-z
1/2-x,1/2-y,-z
1/2+x,1/2-y,1/2+z
loop_
_atom_site_type_symbol
_atom_site_label
_atom_site_fract_x
_atom_site_fract_y
_atom_site_fract_z
Si Si1 0.690330 0.106264 0.721873
Si Si2 0.426609 0.251925 0.873702
Si Si3 0.871591 0.179024 0.083528
Si Si4 0.406667 0.477467 0.102827
Si Si5 0.736533 0.409406 0.371474
Si Si6 0.885028 0.250559 0.896447
Si Si7 0.907113 0.962795 0.885259
Si Si8 0.223413 0.409720 0.856182
O O1 0.613352 0.173313 0.624423
O O2 0.707135 0.086678 0.635509
O O3 0.686655 0.009159 0.770030
O O4 0.773684 0.157848 0.898847
O O5 0.384226 0.260764 0.698883
O O6 0.411849 0.353234 0.894006
O O7 0.526435 0.234650 0.016354
O O8 0.911597 0.076536 0.163948
O O9 0.906717 0.224775 0.041853
O O10 0.500000 0.432006 0.250000
O O11 0.390516 0.501038 0.965806
O O12 0.326483 0.417211 0.006848
O O13 0.665713 0.332233 0.235629
O O14 0.679027 0.499814 0.303466
O O15 0.789532 0.386686 0.552168
O O16 0.821290 0.336209 0.784209
O O17 0.000000 0.000000 0.000000
#
# Coordination Sequence:
#
# PCOD9277517 Si02
#       8
#     8   8   8   8   8   8   8   8
#     4  10  24  42  61  96 126 166 215 260 309 384
#     4  12  24  38  67  95 125 166 212 264 315 379
#     4  10  20  41  64  94 130 155 206 276 324 363
#     4  11  21  37  63  98 128 160 210 264 319 380
#     4  11  22  42  62  90 133 162 203 268 326 368
#     4  11  23  40  63  91 127 172 211 256 315 378
#     4  12  20  37  65  97 128 158 202 268 325 371
#     4  11  24  42  63  85 129 179 208 253 318 376
#
# _framework density 20.334102999999999
#
# number of rings (size 3 to 8) (size 9 to 14) (size 15 to 20)
#    0.000    1.000    5.000    4.875    3.500    1.500 
#    0.000    0.625    0.000    0.000    0.000    0.000 
#    0.000    0.000    0.000    0.000    0.000    0.000 
#
# Total GULP energy -178736.671295 kJ/mol
# GULP energy per Si atom -5585.520978 kJ/mol
# Density = 2.028782 g / cm^3
# Si number density = 20.334103 Si / 1000 Ang^3
#
#
#
# Elastic Constant Matrix: (Units=GPa)
#
#
# Indices 1 2 3 4 5 6 
#
# 1 116.9221 47.4402 30.2753 0.0000 -2.9734 0.0000
# 2 47.4402 89.3741 38.6962 0.0000 21.6390 0.0000
# 3 30.2753 38.6962 46.6266 0.0000 -1.7321 0.0000
# 4 0.0000 0.0000 0.0000 20.1330 0.0000 0.5583
# 5 -2.9734 21.6390 -1.7321 0.0000 34.1553 0.0000
# 6 0.0000 0.0000 0.0000 0.5583 0.0000 25.2558
#
#
#
# Elastic Compliance Matrix: (Units=1/GPa)
#
#
# Indices 1 2 3 4 5 6 
#
# 1 0.011929 -0.006752 -0.001949 0.000000 0.005217 0.000000
# 2 -0.006752 0.027837 -0.019432 0.000000 -0.019209 0.000000
# 3 -0.001949 -0.019432 0.039365 0.000000 0.014138 0.000000
# 4 0.000000 0.000000 0.000000 0.049700 0.000000 -0.001099
# 5 0.005217 -0.019209 0.014138 0.000000 0.042619 0.000000
# 6 0.000000 0.000000 0.000000 -0.001099 0.000000 0.039619
#
#
# Mechanical properties :
#
#
# Convention : Reuss Voigt Hill
#
# Bulk Modulus (GPa) = 43.73310 53.97178 48.85244
# Shear Modulus (GPa) = 18.18466 25.00957 21.59712
#
# Velocity S-wave (km/s) = 2.99372 3.51084 3.26254
# Velocity P-wave (km/s) = 5.78824 6.56009 6.18622
#
# Compressibility (1/GPa) = 0.02286598
#
# Stress axis : x y z
#
# Youngs Moduli (GPa) = 83.82655 35.92329 25.40342
#
# Poissons Ratio (x) = 0.24254 0.04951
# Poissons Ratio (y) = 0.56596 0.49364
# Poissons Ratio (z) = 0.16337 0.69807
#
# Static dielectric constant tensor:
#      x y z
#    x 1.757880 0.000000 -0.029140 
#    y 0.000000 1.728230 0.000000 
#    z -0.029140 0.000000 1.790690 
# 
# From -- ./inp_files/173698.got.cif
#   From: 2010.05.17/outbox.cif.g08.bks.cpg/sg15_87_cif.got.tgz:173698.got - 2010.06.03 18:47:42.
