data_PCOD9277497
_publ_section_title
;
Structure prediction by ZEFSAII (Michael W. Deem and Ramdas Pophale) SiO2 
 PCOD9277497
Probable space group: C 2/C
;
_chemical_formula_sum "Si O2"
_cell_formula_units_Z 44
_cell_length_a 13.898703
_cell_length_b 14.543951
_cell_length_c 19.474099
_cell_angle_alpha 90.000000
_cell_angle_beta 27.371300
_cell_angle_gamma 90.000000
_cell_volume 1809.841419
_symmetry_space_group_name_H-M "C 2/C"
_symmetry_group_IT_number 15
_symmetry_cell_setting 'monoclinic'
loop_
_space_group_symop_operation_xyz
x,y,z
-x,y,1/2-z
-x,-y,-z
x,-y,1/2+z
1/2+x,1/2+y,z
1/2-x,1/2+y,1/2-z
1/2-x,1/2-y,-z
1/2+x,1/2-y,1/2+z
loop_
_atom_site_type_symbol
_atom_site_label
_atom_site_fract_x
_atom_site_fract_y
_atom_site_fract_z
Si Si1 0.409816 0.144662 0.579990
Si Si2 0.722451 0.917377 0.706581
Si Si3 0.843648 0.022261 0.504833
Si Si4 0.311327 0.995403 0.034766
Si Si5 0.000000 0.680894 0.750000
Si Si6 0.776522 0.752863 0.191070
O O1 0.287303 0.090873 0.599375
O O2 0.265865 0.157242 0.737129
O O3 0.515702 0.238362 0.485326
O O4 0.614288 0.083030 0.468655
O O5 0.516336 0.973491 0.858463
O O6 0.699686 0.823162 0.764022
O O7 0.931014 0.958100 0.607542
O O8 0.752205 0.935510 0.606229
O O9 0.693162 0.111663 0.611436
O O10 0.863206 0.009880 0.410959
O O11 0.920232 0.743309 0.736925
#
# Coordination Sequence:
#
# PCOD9277497 Si02
#       6
#     8   8   8   8   4   8
#     4  10  22  40  63  93 135 169 217 273 333 386
#     4  10  22  36  60  95 130 168 221 266 329 393
#     4  11  20  38  65  91 128 179 218 265 325 404
#     4  10  20  41  64  89 129 180 220 267 323 403
#     4  12  22  36  68  94 138 166 222 274 344 384
#     4  11  23  37  61  98 132 165 210 281 334 380
#
# _framework density 24.311522
#
# number of rings (size 3 to 8) (size 9 to 14) (size 15 to 20)
#    0.000    1.455    3.636    1.091    2.545    2.909 
#    0.000    0.909    0.000   13.091    0.000    0.000 
#    0.000    0.000    0.000    0.000    0.000    0.000 
#
# Total GULP energy -122873.738039 kJ/mol
# GULP energy per Si atom -5585.169911 kJ/mol
# Density = 2.425619 g / cm^3
# Si number density = 24.311522 Si / 1000 Ang^3
#
#
#
# Elastic Constant Matrix: (Units=GPa)
#
#
# Indices 1 2 3 4 5 6 
#
# 1 108.6965 15.4332 -8.8090 -0.0097 10.1562 -0.0108
# 2 15.4332 58.1649 3.3912 -0.0196 1.3846 -0.0020
# 3 -8.8090 3.3912 59.2636 -0.0342 -3.4312 -0.0066
# 4 -0.0097 -0.0196 -0.0342 25.1663 0.0038 3.2372
# 5 10.1562 1.3846 -3.4312 0.0038 30.9041 0.0035
# 6 -0.0108 -0.0020 -0.0066 3.2372 0.0035 33.5436
#
#
#
# Elastic Compliance Matrix: (Units=1/GPa)
#
#
# Indices 1 2 3 4 5 6 
#
# 1 0.009976 -0.002661 0.001462 0.000004 -0.002997 0.000003
# 2 -0.002661 0.017984 -0.001430 0.000011 -0.000090 -0.000001
# 3 0.001462 -0.001430 0.017260 0.000023 0.001500 0.000001
# 4 0.000004 0.000011 0.000023 0.040235 -0.000004 -0.003883
# 5 -0.002997 -0.000090 0.001500 -0.000004 0.033514 -0.000004
# 6 0.000003 -0.000001 0.000001 -0.003883 -0.000004 0.030187
#
#
# Mechanical properties :
#
#
# Convention : Reuss Voigt Hill
#
# Bulk Modulus (GPa) = 25.02394 27.35066 26.18730
# Shear Modulus (GPa) = 29.80903 32.33010 31.06957
#
# Velocity S-wave (km/s) = 3.50541 3.65063 3.57876
# Velocity P-wave (km/s) = 5.16713 5.38925 5.27936
#
# Compressibility (1/GPa) = 0.03996173
#
# Stress axis : x y z
#
# Youngs Moduli (GPa) = 100.23836 55.60484 57.93843
#
# Poissons Ratio (x) = 0.14796 -0.08468
# Poissons Ratio (y) = 0.26673 0.08284
# Poissons Ratio (z) = -0.14651 0.07951
#
# Static dielectric constant tensor:
#      x y z
#    x 1.908580 0.000000 0.027330 
#    y 0.000000 1.983590 0.000010 
#    z 0.027330 0.000010 1.953640 
# 
# From -- ./inp_files/244484.got.cif
#   From: 2010.05.17/outbox.cif.g08.bks.cpg/sg15_123_cif.got.tgz:244484.got - 2010.06.03 18:47:42.
