data_PCOD9277332
_publ_section_title
;
Structure prediction by ZEFSAII (Michael W. Deem and Ramdas Pophale) SiO2 
 PCOD9277332
Probable space group: C 2/C
;
_chemical_formula_sum "Si O2"
_cell_formula_units_Z 36
_cell_length_a 15.922575
_cell_length_b 7.322741
_cell_length_c 15.369282
_cell_angle_alpha 90.000000
_cell_angle_beta 48.988323
_cell_angle_gamma 90.000000
_cell_volume 1352.207880
_symmetry_space_group_name_H-M "C 2/C"
_symmetry_group_IT_number 15
_symmetry_cell_setting 'monoclinic'
loop_
_space_group_symop_operation_xyz
x,y,z
-x,y,1/2-z
-x,-y,-z
x,-y,1/2+z
1/2+x,1/2+y,z
1/2-x,1/2+y,1/2-z
1/2-x,1/2-y,-z
1/2+x,1/2-y,1/2+z
loop_
_atom_site_type_symbol
_atom_site_label
_atom_site_fract_x
_atom_site_fract_y
_atom_site_fract_z
Si Si1 0.943324 0.193771 0.560424
Si Si2 0.194456 0.387727 0.224835
Si Si3 0.879225 0.545405 0.529328
Si Si4 0.704857 0.541156 0.017930
Si Si5 0.500000 0.335813 0.750000
O O1 0.815976 0.183302 0.676862
O O2 0.924882 0.337818 0.492843
O O3 0.029788 0.306785 0.559650
O O4 0.000000 0.000000 0.500000
O O5 0.145261 0.436229 0.351723
O O6 0.095791 0.274526 0.241077
O O7 0.248454 0.508914 0.109557
O O8 0.771707 0.567283 0.545004
O O9 0.576129 0.545289 0.132819
O O10 0.750000 0.750000 0.000000
#
# Coordination Sequence:
#
# PCOD9277332 Si02
#       5
#     8   8   8   8   4
#     4  11  26  46  75 110 152 193 253 313 378 457
#     4  11  24  42  78 112 145 200 255 309 380 454
#     4  11  25  48  78 106 149 203 247 308 387 447
#     4  10  21  44  74 109 144 203 250 307 381 452
#     4  10  20  40  74 112 154 202 250 312 384 454
#
# _framework density 26.623127
#
# number of rings (size 3 to 8) (size 9 to 14) (size 15 to 20)
#    0.000    1.333    4.444    1.333   12.444    1.778 
#    0.000    1.111    4.889    0.000    0.000    0.000 
#    0.000    0.000    0.000    0.000    0.000    0.000 
#
# Total GULP energy -100204.047462 kJ/mol
# GULP energy per Si atom -5566.891526 kJ/mol
# Density = 2.656253 g / cm^3
# Si number density = 26.623127 Si / 1000 Ang^3
#
#
#
# Elastic Constant Matrix: (Units=GPa)
#
#
# Indices 1 2 3 4 5 6 
#
# 1 181.2078 40.6760 112.8359 0.0000 -13.6052 0.0000
# 2 40.6760 103.8461 26.5865 0.0000 -17.6215 0.0000
# 3 112.8359 26.5865 209.9740 0.0000 -23.2884 0.0000
# 4 0.0000 0.0000 0.0000 10.6158 0.0000 -6.8401
# 5 -13.6052 -17.6215 -23.2884 0.0000 76.0718 0.0000
# 6 0.0000 0.0000 0.0000 -6.8401 0.0000 42.1981
#
#
#
# Elastic Compliance Matrix: (Units=1/GPa)
#
#
# Indices 1 2 3 4 5 6 
#
# 1 0.008808 -0.002363 -0.004472 0.000000 -0.000341 0.000000
# 2 -0.002363 0.010885 0.000129 0.000000 0.002138 0.000000
# 3 -0.004472 0.000129 0.007312 0.000000 0.001469 0.000000
# 4 0.000000 0.000000 0.000000 0.105185 0.000000 0.017050
# 5 -0.000341 0.002138 0.001469 0.000000 0.014029 0.000000
# 6 0.000000 0.000000 0.000000 0.017050 0.000000 0.026461
#
#
# Mechanical properties :
#
#
# Convention : Reuss Voigt Hill
#
# Bulk Modulus (GPa) = 73.56760 95.02498 84.29629
# Shear Modulus (GPa) = 26.22961 46.77243 36.50102
#
# Velocity S-wave (km/s) = 3.14223 4.19601 3.70676
# Velocity P-wave (km/s) = 6.39200 7.69711 7.07471
#
# Compressibility (1/GPa) = 0.01359294
#
# Stress axis : x y z
#
# Youngs Moduli (GPa) = 113.53450 91.86873 136.75884
#
# Poissons Ratio (x) = 0.21709 0.61156
# Poissons Ratio (y) = 0.26828 -0.01761
# Poissons Ratio (z) = 0.50771 -0.01183
#
# Static dielectric constant tensor:
#      x y z
#    x 2.430380 0.000000 -0.184390 
#    y 0.000000 2.308820 0.000000 
#    z -0.184390 0.000000 2.231110 
# 
# From -- ./inp_files/208844.got.cif
#   From: 2010.05.17/outbox.cif.g08.bks.cpg/sg15_105_cif.got.tgz:208844.got - 2010.06.03 18:47:42.
