data_PCOD9277159
_publ_section_title
;
Structure prediction by ZEFSAII (Michael W. Deem and Ramdas Pophale) SiO2 
 PCOD9277159
Probable space group: C 2/C
;
_chemical_formula_sum "Si O2"
_cell_formula_units_Z 48
_cell_length_a 8.614908
_cell_length_b 17.037391
_cell_length_c 29.337655
_cell_angle_alpha 90.000000
_cell_angle_beta 149.442779
_cell_angle_gamma 90.000000
_cell_volume 2189.190171
_symmetry_space_group_name_H-M "C 2/C"
_symmetry_group_IT_number 15
_symmetry_cell_setting 'monoclinic'
loop_
_space_group_symop_operation_xyz
x,y,z
-x,y,1/2-z
-x,-y,-z
x,-y,1/2+z
1/2+x,1/2+y,z
1/2-x,1/2+y,1/2-z
1/2-x,1/2-y,-z
1/2+x,1/2-y,1/2+z
loop_
_atom_site_type_symbol
_atom_site_label
_atom_site_fract_x
_atom_site_fract_y
_atom_site_fract_z
Si Si1 0.762005 0.720751 0.283860
Si Si2 0.874358 0.997452 0.019584
Si Si3 0.863326 0.110980 0.840107
Si Si4 0.106152 0.836600 0.577325
Si Si5 0.212938 0.954272 0.340895
Si Si6 0.516490 0.204495 0.878734
O O1 0.500000 0.688420 0.250000
O O2 0.911061 0.796187 0.346766
O O3 0.601501 0.759805 0.198609
O O4 0.036874 0.661673 0.343798
O O5 0.988556 0.081250 0.067891
O O6 0.510408 0.996917 0.928664
O O7 0.003787 0.926353 0.080912
O O8 0.000000 0.000000 0.000000
O O9 0.500000 0.098077 0.750000
O O10 0.023785 0.070129 0.837520
O O11 0.875263 0.814435 0.477478
O O12 0.068722 0.768350 0.604821
O O13 0.341885 0.875658 0.348048
O O14 0.000000 0.994661 0.250000
#
# Coordination Sequence:
#
# PCOD9277159 Si02
#       6
#     8   8   8   8   8   8
#     4  11  23  40  68 102 132 168 225 286 330 394
#     4  11  26  43  63  97 141 179 222 275 335 409
#     4  11  23  40  66  98 131 179 222 270 337 406
#     4  10  22  41  67  93 128 175 215 276 330 392
#     4  11  19  40  69  92 128 177 225 272 332 404
#     4  10  20  40  68  97 124 167 223 274 336 394
#
# _framework density 21.925915
#
# number of rings (size 3 to 8) (size 9 to 14) (size 15 to 20)
#    0.000    1.333    3.333    2.000    7.000    2.000 
#    0.000    2.500    0.000    0.000    0.000    0.000 
#    0.000    0.000    0.000    0.000    0.000    0.000 
#
# Total GULP energy -134246.829413 kJ/mol
# GULP energy per Si atom -5593.617892 kJ/mol
# Density = 2.187601 g / cm^3
# Si number density = 21.925915 Si / 1000 Ang^3
#
#
#
# Elastic Constant Matrix: (Units=GPa)
#
#
# Indices 1 2 3 4 5 6 
#
# 1 97.5868 -13.0936 38.0259 0.0010 10.6332 0.0004
# 2 -13.0936 43.4023 32.1905 0.0045 -8.9546 0.0015
# 3 38.0259 32.1905 101.2074 0.0118 -0.8701 0.0029
# 4 0.0010 0.0045 0.0118 4.4950 0.0045 -11.4425
# 5 10.6332 -8.9546 -0.8701 0.0045 30.4920 0.0008
# 6 0.0004 0.0015 0.0029 -11.4425 0.0008 17.9985
#
#
#
# Elastic Compliance Matrix: (Units=1/GPa)
#
#
# Indices 1 2 3 4 5 6 
#
# 1 0.015750 0.011324 -0.009540 -0.000022 -0.002439 -0.000014
# 2 0.011324 0.040722 -0.017142 0.000015 0.007521 0.000008
# 3 -0.009540 -0.017142 0.018908 0.000053 -0.001168 0.000032
# 4 -0.000022 0.000015 0.000053 -0.359763 0.000072 -0.228720
# 5 -0.002439 0.007521 -0.001168 0.000072 0.035821 0.000044
# 6 -0.000014 0.000008 0.000032 -0.228720 0.000044 -0.089848
#
#
# Mechanical properties :
#
#
# Convention : Reuss Voigt Hill
#
# Bulk Modulus (GPa) = 22.39011 39.60468 30.99740
# Shear Modulus (GPa) = -17.07619 22.93534 2.92957
#
# Velocity S-wave (km/s) = -2.79375 3.23776 1.15716
# Velocity P-wave (km/s) = 0.41574 5.66389 3.99417
#
# Compressibility (1/GPa) = 0.04466258
#
# Stress axis : x y z
#
# Youngs Moduli (GPa) = 63.49210 24.55653 52.88875
#
# Poissons Ratio (x) = -0.27808 0.50458
# Poissons Ratio (y) = -0.71899 0.90664
# Poissons Ratio (z) = 0.60574 0.42096
#
# Static dielectric constant tensor:
#      x y z
#    x 1.796180 0.000000 0.005520 
#    y 0.000000 1.808470 0.000000 
#    z 0.005520 0.000000 1.825390 
# 
# From -- ./inp_files/308842.got.cif
#   From: 2010.05.17/outbox.cif.g08.bks.cpg/sg15_155_cif.got.tgz:308842.got - 2010.06.03 18:47:42.
