data_PCOD9277759
_publ_section_title
;
Structure prediction by ZEFSAII (Michael W. Deem and Ramdas Pophale) SiO2 
 PCOD9277759
Probable space group: C 2/C
;
_chemical_formula_sum "Si O2"
_cell_formula_units_Z 52
_cell_length_a 22.732138
_cell_length_b 5.775277
_cell_length_c 20.312500
_cell_angle_alpha 90.000000
_cell_angle_beta 117.825230
_cell_angle_gamma 90.000000
_cell_volume 2358.376794
_symmetry_space_group_name_H-M "C 2/C"
_symmetry_group_IT_number 15
_symmetry_cell_setting 'monoclinic'
loop_
_space_group_symop_operation_xyz
x,y,z
-x,y,1/2-z
-x,-y,-z
x,-y,1/2+z
1/2+x,1/2+y,z
1/2-x,1/2+y,1/2-z
1/2-x,1/2-y,-z
1/2+x,1/2-y,1/2+z
loop_
_atom_site_type_symbol
_atom_site_label
_atom_site_fract_x
_atom_site_fract_y
_atom_site_fract_z
Si Si1 0.886443 0.573727 0.433451
Si Si2 0.420194 0.164248 0.130290
Si Si3 0.671447 0.785646 0.464691
Si Si4 0.009414 0.200629 0.951751
Si Si5 0.753336 0.515773 0.788394
Si Si6 0.000000 0.317336 0.250000
Si Si7 0.124962 0.973341 0.810496
O O1 0.858995 0.741095 0.477882
O O2 0.937403 0.387065 0.491607
O O3 0.821624 0.469038 0.365633
O O4 0.934720 0.700959 0.407239
O O5 0.457960 0.341918 0.102045
O O6 0.472105 0.964493 0.174581
O O7 0.400443 0.269956 0.189539
O O8 0.354152 0.044854 0.066505
O O9 0.750000 0.750000 0.500000
O O10 0.643599 0.621910 0.392917
O O11 0.000000 0.000000 0.000000
O O12 0.742427 0.771048 0.750083
O O13 0.689509 0.469393 0.800474
O O14 0.061898 0.171953 0.255160
#
# Coordination Sequence:
#
# PCOD9277759 Si02
#       7
#     8   8   8   8   8   4   8
#     4  10  23  44  67 105 141 182 242 300 361 432
#     4  10  23  40  67 100 132 182 233 288 352 424
#     4  10  20  41  68  99 134 176 233 296 354 416
#     4  10  22  42  70 101 137 181 239 301 367 417
#     4  12  31  49  72 107 148 198 241 294 368 441
#     4  10  24  42  66  96 138 180 238 286 350 428
#     4  11  24  45  70  99 138 185 240 293 359 423
#
# _framework density 22.049064000000001
#
# number of rings (size 3 to 8) (size 9 to 14) (size 15 to 20)
#    0.000    1.538    1.538    1.385    8.615    3.077 
#    0.000    0.000    0.000    0.000    0.000    0.000 
#    0.000    0.000    0.000    0.000    0.000    0.000 
#
# Total GULP energy -145008.553840 kJ/mol
# GULP energy per Si atom -5577.252071 kJ/mol
# Density = 2.199888 g / cm^3
# Si number density = 22.049064 Si / 1000 Ang^3
#
#
#
# Elastic Constant Matrix: (Units=GPa)
#
#
# Indices 1 2 3 4 5 6 
#
# 1 206.0374 48.2064 47.3049 -0.0001 15.4864 0.0000
# 2 48.2064 48.0480 10.8109 0.0006 2.7163 0.0007
# 3 47.3049 10.8109 64.1391 0.0001 24.8095 0.0001
# 4 -0.0001 0.0006 0.0001 19.4905 -0.0001 -2.6212
# 5 15.4864 2.7163 24.8095 -0.0001 41.3221 0.0001
# 6 0.0000 0.0007 0.0001 -2.6212 0.0001 29.4794
#
#
#
# Elastic Compliance Matrix: (Units=1/GPa)
#
#
# Indices 1 2 3 4 5 6 
#
# 1 0.007350 -0.006386 -0.004482 0.000000 0.000356 0.000000
# 2 -0.006386 0.027213 -0.000144 -0.000001 0.000691 -0.000001
# 3 -0.004482 -0.000144 0.023794 0.000000 -0.012596 0.000000
# 4 0.000000 -0.000001 0.000000 0.051928 0.000000 0.004617
# 5 0.000356 0.000691 -0.012596 0.000000 0.031584 0.000000
# 6 0.000000 -0.000001 0.000000 0.004617 0.000000 0.034333
#
#
# Mechanical properties :
#
#
# Convention : Reuss Voigt Hill
#
# Bulk Modulus (GPa) = 27.52445 58.98543 43.25494
# Shear Modulus (GPa) = 23.77150 32.18522 27.97836
#
# Velocity S-wave (km/s) = 3.28703 3.82476 3.56605
# Velocity P-wave (km/s) = 5.18811 6.80551 6.05110
#
# Compressibility (1/GPa) = 0.03633133
#
# Stress axis : x y z
#
# Youngs Moduli (GPa) = 136.05664 36.74751 42.02806
#
# Poissons Ratio (x) = 0.23466 0.18838
# Poissons Ratio (y) = 0.86882 0.00607
# Poissons Ratio (z) = 0.60985 0.00531
#
# Static dielectric constant tensor:
#      x y z
#    x 1.606870 0.000000 -0.152930 
#    y 0.000000 1.912990 0.000000 
#    z -0.152930 0.000000 1.740160 
# 
# From -- ./inp_files/278875.got.cif
#   From: 2010.05.17/outbox.cif.g08.bks.cpg/sg15_140_cif.got.tgz:278875.got - 2010.06.03 18:47:42.
