data_PCOD9277972
_publ_section_title
;
Structure prediction by ZEFSAII (Michael W. Deem and Ramdas Pophale) SiO2 
 PCOD9277972
Probable space group: C 2/C
;
_chemical_formula_sum "Si O2"
_cell_formula_units_Z 56
_cell_length_a 22.944622
_cell_length_b 10.458858
_cell_length_c 23.423353
_cell_angle_alpha 90.000000
_cell_angle_beta 156.297489
_cell_angle_gamma 90.000000
_cell_volume 2259.577409
_symmetry_space_group_name_H-M "C 2/C"
_symmetry_group_IT_number 15
_symmetry_cell_setting 'monoclinic'
loop_
_space_group_symop_operation_xyz
x,y,z
-x,y,1/2-z
-x,-y,-z
x,-y,1/2+z
1/2+x,1/2+y,z
1/2-x,1/2+y,1/2-z
1/2-x,1/2-y,-z
1/2+x,1/2-y,1/2+z
loop_
_atom_site_type_symbol
_atom_site_label
_atom_site_fract_x
_atom_site_fract_y
_atom_site_fract_z
Si Si1 0.119090 0.608429 0.807621
Si Si2 0.748406 0.530250 0.214240
Si Si3 0.999710 0.091823 0.077998
Si Si4 0.483751 0.121656 0.559537
Si Si5 0.692071 0.390274 0.854745
Si Si6 0.606416 0.161771 0.250957
Si Si7 0.764788 0.355580 0.464011
O O1 0.048171 0.621459 0.681456
O O2 0.209664 0.742397 0.891179
O O3 0.159452 0.456618 0.839994
O O4 0.000000 0.619438 0.750000
O O5 0.634686 0.542728 0.162384
O O6 0.887519 0.448099 0.358032
O O7 0.828291 0.646696 0.253895
O O8 0.647084 0.477072 0.071836
O O9 0.975803 0.234085 0.032991
O O10 0.045658 0.094393 0.185774
O O11 0.320915 0.078800 0.425264
O O12 0.713548 0.496500 0.923185
O O13 0.659464 0.296095 0.321904
O O14 0.432961 0.149612 0.096421
O O15 0.750000 0.250000 0.500000
#
# Coordination Sequence:
#
# PCOD9277972 Si02
#       7
#     8   8   8   8   8   8   8
#     4  10  21  41  68  96 135 175 227 288 345 395
#     4  10  22  44  66  93 137 178 220 291 356 407
#     4  10  22  40  69 100 130 177 231 284 353 419
#     4  10  20  42  63  97 136 170 224 291 338 402
#     4  11  24  43  70 105 132 179 237 285 343 420
#     4  11  25  47  66 100 142 186 232 294 347 422
#     4  12  26  47  69  97 146 190 235 284 353 421
#
# _framework density 24.783394000000001
#
# number of rings (size 3 to 8) (size 9 to 14) (size 15 to 20)
#    0.000    1.429    2.857    3.857    2.000    3.429 
#    7.714    0.000    0.000    0.000    0.000    0.000 
#    0.000    0.000    0.000    0.000    0.000    0.000 
#
# Total GULP energy -156160.865468 kJ/mol
# GULP energy per Si atom -5577.173767 kJ/mol
# Density = 2.472699 g / cm^3
# Si number density = 24.783394 Si / 1000 Ang^3
#
#
#
# Elastic Constant Matrix: (Units=GPa)
#
#
# Indices 1 2 3 4 5 6 
#
# 1 -37.3385 5.9229 66.6672 0.0004 23.8115 -0.0003
# 2 5.9229 107.0835 18.7789 0.0004 4.9798 -0.0001
# 3 66.6672 18.7789 54.3149 0.0014 1.0936 -0.0003
# 4 0.0004 0.0004 0.0014 -12.2384 0.0006 21.8661
# 5 23.8115 4.9798 1.0936 0.0006 33.2433 -0.0002
# 6 -0.0003 -0.0001 -0.0003 21.8661 -0.0002 20.7353
#
#
#
# Elastic Compliance Matrix: (Units=1/GPa)
#
#
# Indices 1 2 3 4 5 6 
#
# 1 -0.007222 -0.001462 0.009268 0.000000 0.005087 0.000000
# 2 -0.001462 0.009709 -0.001555 0.000000 -0.000356 0.000000
# 3 0.009268 -0.001555 0.007707 0.000000 -0.006659 0.000000
# 4 0.000000 0.000000 0.000000 -0.028331 0.000000 0.029876
# 5 0.005087 -0.000356 -0.006659 0.000000 0.026710 0.000000
# 6 0.000000 0.000000 0.000000 0.029876 0.000000 0.016721
#
#
# Mechanical properties :
#
#
# Convention : Reuss Voigt Hill
#
# Bulk Modulus (GPa) = 44.06184 34.08867 39.07526
# Shear Modulus (GPa) = 245.61545 10.52743 128.07144
#
# Velocity S-wave (km/s) = 9.96594 2.06325 7.19642
# Velocity P-wave (km/s) = 12.25741 4.41141 9.21153
#
# Compressibility (1/GPa) = 0.02269537
#
# Stress axis : x y z
#
# Youngs Moduli (GPa) = -138.46229 103.00199 129.74925
#
# Poissons Ratio (x) = 0.15063 -1.20249
# Poissons Ratio (y) = -0.20249 0.20170
# Poissons Ratio (z) = 1.28324 0.16012
#
# Static dielectric constant tensor:
#      x y z
#    x 1.574020 0.000000 -0.389600 
#    y 0.000000 1.998630 0.000000 
#    z -0.389600 0.000000 1.641360 
# 
# From -- ./inp_files/319538.got.cif
#   From: 2010.05.17/outbox.cif.g08.bks.cpg/sg15_160_cif.got.tgz:319538.got - 2010.06.03 18:47:42.
