data_PCOD9277646
_publ_section_title
;
Structure prediction by ZEFSAII (Michael W. Deem and Ramdas Pophale) SiO2 
 PCOD9277646
Probable space group: C 2/C
;
_chemical_formula_sum "Si O2"
_cell_formula_units_Z 52
_cell_length_a 19.850708
_cell_length_b 9.150330
_cell_length_c 14.795903
_cell_angle_alpha 90.000000
_cell_angle_beta 76.533433
_cell_angle_gamma 90.000000
_cell_volume 2613.644472
_symmetry_space_group_name_H-M "C 2/C"
_symmetry_group_IT_number 15
_symmetry_cell_setting 'monoclinic'
loop_
_space_group_symop_operation_xyz
x,y,z
-x,y,1/2-z
-x,-y,-z
x,-y,1/2+z
1/2+x,1/2+y,z
1/2-x,1/2+y,1/2-z
1/2-x,1/2-y,-z
1/2+x,1/2-y,1/2+z
loop_
_atom_site_type_symbol
_atom_site_label
_atom_site_fract_x
_atom_site_fract_y
_atom_site_fract_z
Si Si1 0.504385 0.111299 0.415125
Si Si2 0.648451 0.216988 0.284291
Si Si3 0.852139 0.052324 0.856840
Si Si4 0.737378 0.927222 0.264503
Si Si5 0.000000 0.573010 0.750000
Si Si6 0.112994 0.205735 0.286790
Si Si7 0.567452 0.401057 0.992970
O O1 0.582987 0.161461 0.362765
O O2 0.461504 0.251073 0.457345
O O3 0.500000 0.000000 0.500000
O O4 0.472976 0.029785 0.338034
O O5 0.622845 0.298131 0.200736
O O6 0.696602 0.351550 0.307834
O O7 0.699134 0.077996 0.250175
O O8 0.770723 0.051091 0.854381
O O9 0.882292 0.914546 0.792863
O O10 0.876812 0.043065 0.951451
O O11 0.681477 0.800596 0.277403
O O12 0.055226 0.677467 0.779100
O O13 0.098072 0.127639 0.385331
O O14 0.500000 0.500000 0.000000
#
# Coordination Sequence:
#
# PCOD9277646 Si02
#       7
#     8   8   8   8   4   8   8
#     4  12  24  43  66 101 133 176 225 278 341 404
#     4  10  20  41  69  95 134 177 223 279 335 410
#     4  10  23  42  68  93 131 179 222 272 347 392
#     4  10  20  41  66  96 129 175 226 272 337 402
#     4  12  24  40  74  96 140 178 220 280 350 390
#     4  12  23  44  67  97 137 175 222 285 335 406
#     4  12  26  42  66 102 135 172 229 281 336 408
#
# _framework density 19.895589000000001
#
# number of rings (size 3 to 8) (size 9 to 14) (size 15 to 20)
#    0.923    0.000    4.615    2.769    0.000    1.846 
#    0.000    0.000    0.000    3.692    0.000    0.000 
#    0.000    0.000    0.000    0.000    0.000    0.000 
#
# Total GULP energy -144875.215614 kJ/mol
# GULP energy per Si atom -5572.123677 kJ/mol
# Density = 1.985031 g / cm^3
# Si number density = 19.895589 Si / 1000 Ang^3
#
#
#
# Elastic Constant Matrix: (Units=GPa)
#
#
# Indices 1 2 3 4 5 6 
#
# 1 50.3446 6.2383 1.9595 0.0000 10.5410 0.0000
# 2 6.2383 92.8765 14.5756 0.0000 5.4245 0.0000
# 3 1.9595 14.5756 69.5653 0.0000 24.7146 0.0000
# 4 0.0000 0.0000 0.0000 -32.2364 0.0000 48.8647
# 5 10.5410 5.4245 24.7146 0.0000 31.6490 0.0000
# 6 0.0000 0.0000 0.0000 48.8647 0.0000 1.0668
#
#
#
# Elastic Compliance Matrix: (Units=1/GPa)
#
#
# Indices 1 2 3 4 5 6 
#
# 1 0.021888 -0.001394 0.003018 0.000000 -0.009408 0.000000
# 2 -0.001394 0.011222 -0.002482 0.000000 0.000479 0.000000
# 3 0.003018 -0.002482 0.020781 0.000000 -0.016808 0.000000
# 4 0.000000 0.000000 0.000000 -0.000440 0.000000 0.020174
# 5 -0.009408 0.000479 -0.016808 0.000000 0.047773 0.000000
# 6 0.000000 0.000000 0.000000 0.020174 0.000000 0.013309
#
#
# Mechanical properties :
#
#
# Convention : Reuss Voigt Hill
#
# Bulk Modulus (GPa) = 19.16654 28.70370 23.93512
# Shear Modulus (GPa) = 37.41326 12.76341 25.08834
#
# Velocity S-wave (km/s) = 4.34115 2.53557 3.55491
# Velocity P-wave (km/s) = 5.89762 4.79903 5.37646
#
# Compressibility (1/GPa) = 0.05217426
#
# Stress axis : x y z
#
# Youngs Moduli (GPa) = 45.68673 89.10903 48.11978
#
# Poissons Ratio (x) = 0.12425 -0.14522
# Poissons Ratio (y) = 0.06370 0.11945
# Poissons Ratio (z) = -0.13788 0.22120
#
# Static dielectric constant tensor:
#      x y z
#    x 1.702250 0.000000 0.017640 
#    y 0.000000 1.761580 0.000000 
#    z 0.017640 0.000000 1.673070 
# 
# From -- ./inp_files/166219.got.cif
#   From: 2010.05.17/outbox.cif.g08.bks.cpg/sg15_84_cif.got.tgz:166219.got - 2010.06.03 18:47:42.
