data_PCOD9277880
_publ_section_title
;
Structure prediction by ZEFSAII (Michael W. Deem and Ramdas Pophale) SiO2 
 PCOD9277880
Probable space group: C 2/C
;
_chemical_formula_sum "Si O2"
_cell_formula_units_Z 36
_cell_length_a 8.909186
_cell_length_b 28.264904
_cell_length_c 12.446530
_cell_angle_alpha 90.000000
_cell_angle_beta 143.593398
_cell_angle_gamma 90.000000
_cell_volume 1860.214661
_symmetry_space_group_name_H-M "C 2/C"
_symmetry_group_IT_number 15
_symmetry_cell_setting 'monoclinic'
loop_
_space_group_symop_operation_xyz
x,y,z
-x,y,1/2-z
-x,-y,-z
x,-y,1/2+z
1/2+x,1/2+y,z
1/2-x,1/2+y,1/2-z
1/2-x,1/2-y,-z
1/2+x,1/2-y,1/2+z
loop_
_atom_site_type_symbol
_atom_site_label
_atom_site_fract_x
_atom_site_fract_y
_atom_site_fract_z
Si Si1 0.500000 0.520250 0.250000
Si Si2 0.799643 0.093049 0.308461
Si Si3 0.229146 0.722416 0.600795
Si Si4 0.285898 0.571607 0.545961
Si Si5 0.316008 0.696498 0.243165
O O1 0.411870 0.554271 0.293724
O O2 0.710173 0.483903 0.417713
O O3 0.863048 0.079158 0.466956
O O4 0.893216 0.146140 0.337432
O O5 0.496932 0.091542 0.114270
O O6 0.500000 0.696764 0.750000
O O7 0.250000 0.750000 0.500000
O O8 0.195298 0.761717 0.674977
O O9 0.976293 0.692119 0.461605
O O10 0.500000 0.591307 0.750000
O O11 0.500000 0.708198 0.250000
#
# Coordination Sequence:
#
# PCOD9277880 Si02
#       5
#     4   8   8   8   8
#     4  10  20  42  60  90 124 166 200 256 318 346
#     4  11  21  40  64  91 122 164 208 252 303 371
#     4   9  21  39  64  88 118 158 199 248 310 377
#     4   9  23  37  63  87 127 164 204 257 299 369
#     4  11  22  40  63  90 125 159 200 261 314 362
#
# _framework density 19.352606000000002
#
# number of rings (size 3 to 8) (size 9 to 14) (size 15 to 20)
#    0.667    1.333    1.111    2.000    9.333    0.889 
#    4.000    0.000    0.000    0.000    0.000    0.000 
#    0.000    0.000    0.000    0.000    0.000    0.000 
#
# Total GULP energy -100216.725669 kJ/mol
# GULP energy per Si atom -5567.595870 kJ/mol
# Density = 1.930856 g / cm^3
# Si number density = 19.352606 Si / 1000 Ang^3
#
#
#
# Elastic Constant Matrix: (Units=GPa)
#
#
# Indices 1 2 3 4 5 6 
#
# 1 143.7255 40.7210 45.8964 0.0000 -18.8848 0.0000
# 2 40.7210 111.4815 17.8589 0.0000 -20.6265 0.0000
# 3 45.8964 17.8589 102.5374 0.0000 -14.1431 0.0000
# 4 0.0000 0.0000 0.0000 8.9810 0.0000 -19.0037
# 5 -18.8848 -20.6265 -14.1431 0.0000 31.9443 0.0000
# 6 0.0000 0.0000 0.0000 -19.0037 0.0000 29.2492
#
#
#
# Elastic Compliance Matrix: (Units=1/GPa)
#
#
# Indices 1 2 3 4 5 6 
#
# 1 0.008973 -0.002315 -0.003289 0.000000 0.002354 0.000000
# 2 -0.002315 0.010867 -0.000082 0.000000 0.005612 0.000000
# 3 -0.003289 -0.000082 0.011676 0.000000 0.003172 0.000000
# 4 0.000000 0.000000 0.000000 -0.297096 0.000000 -0.193028
# 5 0.002354 0.005612 0.003172 0.000000 0.037724 0.000000
# 6 0.000000 0.000000 0.000000 -0.193028 0.000000 -0.091224
#
#
# Mechanical properties :
#
#
# Convention : Reuss Voigt Hill
#
# Bulk Modulus (GPa) = 49.64146 62.96634 56.30390
# Shear Modulus (GPa) = -16.61176 30.91946 7.15385
#
# Velocity S-wave (km/s) = -2.93298 4.00145 1.92474
# Velocity P-wave (km/s) = 3.77318 7.34546 5.83921
#
# Compressibility (1/GPa) = 0.02014445
#
# Stress axis : x y z
#
# Youngs Moduli (GPa) = 111.44433 92.01896 85.64281
#
# Poissons Ratio (x) = 0.21305 0.28164
# Poissons Ratio (y) = 0.25803 0.00705
# Poissons Ratio (z) = 0.36648 0.00758
#
# Static dielectric constant tensor:
#      x y z
#    x 1.613010 0.000000 -0.021260 
#    y 0.000000 1.661050 0.000000 
#    z -0.021260 0.000000 1.688440 
# 
# From -- ./inp_files/81034.got.cif
#   From: 2010.05.17/outbox.cif.g08.bks.cpg/sg15_41_cif.got.tgz:81034.got - 2010.06.03 18:47:42.
