data_PCOD9277808
_publ_section_title
;
Structure prediction by ZEFSAII (Michael W. Deem and Ramdas Pophale) SiO2 
 PCOD9277808
Probable space group: C 2/C
;
_chemical_formula_sum "Si O2"
_cell_formula_units_Z 48
_cell_length_a 5.207324
_cell_length_b 17.850424
_cell_length_c 23.757543
_cell_angle_alpha 90.000000
_cell_angle_beta 61.788721
_cell_angle_gamma 90.000000
_cell_volume 1946.006470
_symmetry_space_group_name_H-M "C 2/C"
_symmetry_group_IT_number 15
_symmetry_cell_setting 'monoclinic'
loop_
_space_group_symop_operation_xyz
x,y,z
-x,y,1/2-z
-x,-y,-z
x,-y,1/2+z
1/2+x,1/2+y,z
1/2-x,1/2+y,1/2-z
1/2-x,1/2-y,-z
1/2+x,1/2-y,1/2+z
loop_
_atom_site_type_symbol
_atom_site_label
_atom_site_fract_x
_atom_site_fract_y
_atom_site_fract_z
Si Si1 0.885862 0.006786 0.909881
Si Si2 0.312296 0.639489 0.101046
Si Si3 0.714035 0.152018 0.985585
Si Si4 0.124130 0.290889 0.083792
Si Si5 0.215334 0.556043 0.307649
Si Si6 0.964516 0.403281 0.312650
O O1 0.155665 0.057265 0.858848
O O2 0.717313 0.065380 0.966046
O O3 0.999984 0.934798 0.931624
O O4 0.740240 0.969367 0.870322
O O5 0.502412 0.707333 0.105579
O O6 0.061514 0.609857 0.168414
O O7 0.167710 0.660586 0.056610
O O8 0.479562 0.188985 0.968593
O O9 0.035896 0.188625 0.943326
O O10 0.965350 0.348865 0.142813
O O11 0.500000 0.590316 0.250000
O O12 0.169426 0.475359 0.284158
O O13 0.000000 0.360814 0.250000
#
# Coordination Sequence:
#
# PCOD9277808 Si02
#       6
#     8   8   8   8   8   8
#     4  10  22  40  68  98 135 181 238 290 350 422
#     4  11  26  40  68 105 144 180 232 297 362 419
#     4  11  24  45  70 104 143 189 231 286 355 438
#     4  11  25  44  70 105 140 187 231 287 362 426
#     4  11  22  41  73  93 135 184 243 295 354 415
#     4  10  20  41  70  96 129 185 241 291 344 431
#
# _framework density 24.665900000000001
#
# number of rings (size 3 to 8) (size 9 to 14) (size 15 to 20)
#    0.000    1.333    3.333    1.500    4.667    0.667 
#    0.000    0.833   11.000    0.000    0.000    0.000 
#    0.000    0.000    0.000    0.000    0.000    0.000 
#
# Total GULP energy -134309.051655 kJ/mol
# GULP energy per Si atom -5596.210486 kJ/mol
# Density = 2.460976 g / cm^3
# Si number density = 24.665900 Si / 1000 Ang^3
#
#
#
# Elastic Constant Matrix: (Units=GPa)
#
#
# Indices 1 2 3 4 5 6 
#
# 1 113.1131 52.9466 17.6169 0.0000 -0.8737 0.0000
# 2 52.9466 170.8411 41.2336 0.0000 -17.7232 0.0000
# 3 17.6169 41.2336 70.2805 0.0000 -1.8555 0.0000
# 4 0.0000 0.0000 0.0000 6.8429 0.0000 7.4876
# 5 -0.8737 -17.7232 -1.8555 0.0000 51.4164 0.0000
# 6 0.0000 0.0000 0.0000 7.4876 0.0000 34.4300
#
#
#
# Elastic Compliance Matrix: (Units=1/GPa)
#
#
# Indices 1 2 3 4 5 6 
#
# 1 0.010425 -0.003135 -0.000799 0.000000 -0.000932 0.000000
# 2 -0.003135 0.008022 -0.003853 0.000000 0.002573 0.000000
# 3 -0.000799 -0.003853 0.016670 0.000000 -0.000740 0.000000
# 4 0.000000 0.000000 0.000000 0.191773 0.000000 -0.041706
# 5 -0.000932 0.002573 -0.000740 0.000000 0.020293 0.000000
# 6 0.000000 0.000000 0.000000 -0.041706 0.000000 0.038114
#
#
# Mechanical properties :
#
#
# Convention : Reuss Voigt Hill
#
# Bulk Modulus (GPa) = 51.16558 64.20323 57.68441
# Shear Modulus (GPa) = 16.26628 34.70035 25.48332
#
# Velocity S-wave (km/s) = 2.57079 3.75482 3.21774
# Velocity P-wave (km/s) = 5.44063 6.69954 6.10264
#
# Compressibility (1/GPa) = 0.01954439
#
# Stress axis : x y z
#
# Youngs Moduli (GPa) = 95.92041 124.66160 59.98920
#
# Poissons Ratio (x) = 0.39081 0.04791
# Poissons Ratio (y) = 0.30071 0.23111
# Poissons Ratio (z) = 0.07660 0.48027
#
# Static dielectric constant tensor:
#      x y z
#    x 2.083690 0.000000 0.021700 
#    y 0.000000 1.964650 0.000000 
#    z 0.021700 0.000000 1.963340 
# 
# From -- ./inp_files/227372.got.cif
#   From: 2010.05.17/outbox.cif.g08.bks.cpg/sg15_114_cif.got.tgz:227372.got - 2010.06.03 18:47:42.
