data_PCOD9277574
_publ_section_title
;
Structure prediction by ZEFSAII (Michael W. Deem and Ramdas Pophale) SiO2 
 PCOD9277574
Probable space group: C 2/C
;
_chemical_formula_sum "Si O2"
_cell_formula_units_Z 56
_cell_length_a 21.449804
_cell_length_b 6.900323
_cell_length_c 23.464186
_cell_angle_alpha 90.000000
_cell_angle_beta 136.317277
_cell_angle_gamma 90.000000
_cell_volume 2398.641243
_symmetry_space_group_name_H-M "C 2/C"
_symmetry_group_IT_number 15
_symmetry_cell_setting 'monoclinic'
loop_
_space_group_symop_operation_xyz
x,y,z
-x,y,1/2-z
-x,-y,-z
x,-y,1/2+z
1/2+x,1/2+y,z
1/2-x,1/2+y,1/2-z
1/2-x,1/2-y,-z
1/2+x,1/2-y,1/2+z
loop_
_atom_site_type_symbol
_atom_site_label
_atom_site_fract_x
_atom_site_fract_y
_atom_site_fract_z
Si Si1 0.472664 0.040377 0.855279
Si Si2 0.574064 0.153996 0.024535
Si Si3 0.785097 0.063093 0.058369
Si Si4 0.179066 0.022181 0.643441
Si Si5 0.126430 0.687136 0.418102
Si Si6 0.650323 0.893244 0.326259
Si Si7 0.309110 0.079651 0.828459
O O1 0.529265 0.849389 0.880189
O O2 0.436493 0.115658 0.771685
O O3 0.382652 0.005789 0.831527
O O4 0.540923 0.172579 0.937641
O O5 0.591536 0.358479 0.066125
O O6 0.670823 0.055051 0.104266
O O7 0.500000 0.000000 0.000000
O O8 0.833963 0.176787 0.140664
O O9 0.853920 0.912659 0.075239
O O10 0.750000 0.250000 0.000000
O O11 0.700595 0.915839 0.007731
O O12 0.259873 0.053564 0.650906
O O13 0.216785 0.079247 0.731585
O O14 0.163742 0.794772 0.636923
O O15 0.136429 0.558910 0.366066
#
# Coordination Sequence:
#
# PCOD9277574 Si02
#       7
#     8   8   8   8   8   8   8
#     4  10  22  40  61  94 141 176 217 285 344 407
#     4  10  22  40  62  93 134 174 223 284 342 402
#     4   9  20  39  66  93 124 172 229 277 334 403
#     4  11  21  40  67  95 131 175 232 280 334 418
#     4  10  20  41  65  94 133 173 230 285 342 407
#     4  10  22  39  62  96 134 182 226 278 340 414
#     4  10  22  40  66  96 131 180 225 279 340 411
#
# _framework density 23.346551000000002
#
# number of rings (size 3 to 8) (size 9 to 14) (size 15 to 20)
#    0.000    2.000    1.429    1.286    0.000    6.857 
#    0.000   12.857    0.000    1.714    0.000    0.000 
#    0.000    0.000    0.000    0.000    0.000    0.000 
#
# Total GULP energy -156124.288144 kJ/mol
# GULP energy per Si atom -5575.867434 kJ/mol
# Density = 2.329341 g / cm^3
# Si number density = 23.346551 Si / 1000 Ang^3
#
#
#
# Elastic Constant Matrix: (Units=GPa)
#
#
# Indices 1 2 3 4 5 6 
#
# 1 60.6323 39.7549 9.7758 0.0000 10.7246 -0.0001
# 2 39.7549 159.2894 37.0771 -0.0001 9.2303 -0.0007
# 3 9.7758 37.0771 136.3592 0.0000 -4.6554 -0.0001
# 4 0.0000 -0.0001 0.0000 22.9615 0.0000 11.4866
# 5 10.7246 9.2303 -4.6554 0.0000 27.4208 0.0000
# 6 -0.0001 -0.0007 -0.0001 11.4866 0.0000 29.2829
#
#
#
# Elastic Compliance Matrix: (Units=1/GPa)
#
#
# Indices 1 2 3 4 5 6 
#
# 1 0.020826 -0.004711 -0.000439 0.000000 -0.006634 0.000000
# 2 -0.004711 0.007954 -0.001864 0.000000 -0.001152 0.000000
# 3 -0.000439 -0.001864 0.007945 0.000000 0.002148 0.000000
# 4 0.000000 0.000000 0.000000 0.054184 0.000000 -0.021254
# 5 -0.006634 -0.001152 0.002148 0.000000 0.039816 0.000000
# 6 0.000000 0.000000 0.000000 -0.021254 0.000000 0.042487
#
#
# Mechanical properties :
#
#
# Convention : Reuss Voigt Hill
#
# Bulk Modulus (GPa) = 44.05795 58.83295 51.44545
# Shear Modulus (GPa) = 25.66659 33.91125 29.78892
#
# Velocity S-wave (km/s) = 3.31928 3.81532 3.57591
# Velocity P-wave (km/s) = 5.79676 6.68307 6.25563
#
# Compressibility (1/GPa) = 0.02269738
#
# Stress axis : x y z
#
# Youngs Moduli (GPa) = 48.01700 125.71689 125.86068
#
# Poissons Ratio (x) = 0.59228 0.05519
# Poissons Ratio (y) = 0.22622 0.23466
# Poissons Ratio (z) = 0.02106 0.23439
#
# Static dielectric constant tensor:
#      x y z
#    x 2.001000 0.000000 -0.055990 
#    y 0.000000 1.839360 0.000000 
#    z -0.055990 0.000000 1.996850 
# 
# From -- ./inp_files/302941.got.cif
#   From: 2010.05.17/outbox.cif.g08.bks.cpg/sg15_152_cif.got.tgz:302941.got - 2010.06.03 18:47:42.
