data_PCOD9277755
_publ_section_title
;
Structure prediction by ZEFSAII (Michael W. Deem and Ramdas Pophale) SiO2 
 PCOD9277755
Probable space group: C 2/C
;
_chemical_formula_sum "Si O2"
_cell_formula_units_Z 56
_cell_length_a 17.386670
_cell_length_b 14.829789
_cell_length_c 18.198026
_cell_angle_alpha 90.000000
_cell_angle_beta 147.687478
_cell_angle_gamma 90.000000
_cell_volume 2508.149920
_symmetry_space_group_name_H-M "C 2/C"
_symmetry_group_IT_number 15
_symmetry_cell_setting 'monoclinic'
loop_
_space_group_symop_operation_xyz
x,y,z
-x,y,1/2-z
-x,-y,-z
x,-y,1/2+z
1/2+x,1/2+y,z
1/2-x,1/2+y,1/2-z
1/2-x,1/2-y,-z
1/2+x,1/2-y,1/2+z
loop_
_atom_site_type_symbol
_atom_site_label
_atom_site_fract_x
_atom_site_fract_y
_atom_site_fract_z
Si Si1 0.260475 0.334950 0.379328
Si Si2 0.881825 0.111481 0.461697
Si Si3 0.169269 0.852242 0.865401
Si Si4 0.562683 0.893982 0.720444
Si Si5 0.453490 0.216559 0.437781
Si Si6 0.464203 0.917467 0.088979
Si Si7 0.958010 0.044321 0.367176
O O1 0.215820 0.250512 0.392667
O O2 0.326957 0.283751 0.362177
O O3 0.393161 0.396572 0.514501
O O4 0.113666 0.384458 0.244273
O O5 0.729606 0.089955 0.372731
O O6 0.913505 0.213873 0.464377
O O7 0.887599 0.057806 0.389556
O O8 0.001221 0.060467 0.607621
O O9 0.000000 0.852762 0.750000
O O10 0.152378 0.913293 0.778528
O O11 0.318504 0.893770 0.016677
O O12 0.500000 0.872977 0.750000
O O13 0.568422 0.820011 0.661117
O O14 0.482247 0.975536 0.612809
O O15 0.462167 0.138677 0.508774
#
# Coordination Sequence:
#
# PCOD9277755 Si02
#       7
#     8   8   8   8   8   8   8
#     4  10  20  41  68  97 128 171 223 274 330 388
#     4  10  21  43  68  89 126 172 228 270 321 391
#     4  11  24  37  59  95 138 178 215 267 331 406
#     4  12  26  42  65 100 137 175 216 273 338 397
#     4  10  22  43  69  98 127 171 228 279 322 390
#     4  11  23  42  67  96 135 170 223 280 326 387
#     4  10  21  40  66  94 126 175 223 273 329 390
#
# _framework density 22.327214000000001
#
# number of rings (size 3 to 8) (size 9 to 14) (size 15 to 20)
#    0.000    1.429    1.429    5.571    2.000    3.429 
#    2.571    0.714    0.000    0.000    0.000    0.000 
#    0.000    0.000    0.000    0.000    0.000    0.000 
#
# Total GULP energy -155946.212419 kJ/mol
# GULP energy per Si atom -5569.507586 kJ/mol
# Density = 2.227640 g / cm^3
# Si number density = 22.327214 Si / 1000 Ang^3
#
#
#
# Elastic Constant Matrix: (Units=GPa)
#
#
# Indices 1 2 3 4 5 6 
#
# 1 90.1067 28.4012 43.0925 0.0000 11.5035 0.0000
# 2 28.4012 65.0077 14.6653 -0.0004 -2.0753 -0.0002
# 3 43.0925 14.6653 85.9669 -0.0008 28.5958 -0.0005
# 4 0.0000 -0.0004 -0.0008 12.1258 -0.0002 -2.8009
# 5 11.5035 -2.0753 28.5958 -0.0002 34.8342 -0.0001
# 6 0.0000 -0.0002 -0.0005 -2.8009 -0.0001 8.4310
#
#
#
# Elastic Compliance Matrix: (Units=1/GPa)
#
#
# Indices 1 2 3 4 5 6 
#
# 1 0.016285 -0.005448 -0.007342 -0.000001 0.000324 -0.000001
# 2 -0.005448 0.018325 -0.001866 0.000001 0.004423 0.000001
# 3 -0.007342 -0.001866 0.020444 0.000001 -0.014469 0.000001
# 4 -0.000001 0.000001 0.000001 0.089323 0.000000 0.029675
# 5 0.000324 0.004423 -0.014469 0.000000 0.040742 0.000000
# 6 -0.000001 0.000001 0.000001 0.029675 0.000000 0.128469
#
#
# Mechanical properties :
#
#
# Convention : Reuss Voigt Hill
#
# Bulk Modulus (GPa) = 38.84741 45.93326 42.39034
# Shear Modulus (GPa) = 14.22554 21.40636 17.81595
#
# Velocity S-wave (km/s) = 2.52690 3.09974 2.82786
# Velocity P-wave (km/s) = 5.09417 5.78175 5.44881
#
# Compressibility (1/GPa) = 0.02574174
#
# Stress axis : x y z
#
# Youngs Moduli (GPa) = 61.40712 54.56944 48.91430
#
# Poissons Ratio (x) = 0.29730 0.35911
# Poissons Ratio (y) = 0.33455 0.09130
# Poissons Ratio (z) = 0.45082 0.10185
#
# Static dielectric constant tensor:
#      x y z
#    x 1.883250 0.000000 -0.004190 
#    y 0.000000 1.875160 0.000000 
#    z -0.004190 0.000000 1.848270 
# 
# From -- ./inp_files/249296.got.cif
#   From: 2010.05.17/outbox.cif.g08.bks.cpg/sg15_125_cif.got.tgz:249296.got - 2010.06.03 18:47:42.
