data_PCOD9277393
_publ_section_title
;
Structure prediction by ZEFSAII (Michael W. Deem and Ramdas Pophale) SiO2 
 PCOD9277393
Probable space group: C 2/C
;
_chemical_formula_sum "Si O2"
_cell_formula_units_Z 60
_cell_length_a 32.058130
_cell_length_b 18.752948
_cell_length_c 5.121689
_cell_angle_alpha 90.000000
_cell_angle_beta 61.081560
_cell_angle_gamma 90.000000
_cell_volume 2695.146048
_symmetry_space_group_name_H-M "C 2/C"
_symmetry_group_IT_number 15
_symmetry_cell_setting 'monoclinic'
loop_
_space_group_symop_operation_xyz
x,y,z
-x,y,1/2-z
-x,-y,-z
x,-y,1/2+z
1/2+x,1/2+y,z
1/2-x,1/2+y,1/2-z
1/2-x,1/2-y,-z
1/2+x,1/2-y,1/2+z
loop_
_atom_site_type_symbol
_atom_site_label
_atom_site_fract_x
_atom_site_fract_y
_atom_site_fract_z
Si Si1 0.128935 0.236667 0.289257
Si Si2 0.334796 0.046697 0.196739
Si Si3 0.405510 0.857804 0.794052
Si Si4 0.270152 0.546064 0.881800
Si Si5 0.500000 0.126647 0.250000
Si Si6 0.145555 0.153112 0.751010
Si Si7 0.557057 0.548275 0.090265
Si Si8 0.456829 0.244902 0.750580
O O1 0.126044 0.319218 0.386474
O O2 0.148158 0.188040 0.460147
O O3 0.073707 0.219078 0.382294
O O4 0.153204 0.214295 0.946522
O O5 0.375634 0.097549 0.179731
O O6 0.282208 0.078265 0.405843
O O7 0.338264 0.979556 0.388807
O O8 0.450539 0.902719 0.775523
O O9 0.425025 0.788830 0.575688
O O10 0.272530 0.520442 0.575960
O O11 0.313660 0.595898 0.822812
O O12 0.479824 0.176714 0.538631
O O13 0.094055 0.113490 0.935328
O O14 0.500000 0.562651 0.250000
O O15 0.567175 0.510587 0.336015
O O16 0.500000 0.286107 0.750000
#
# Coordination Sequence:
#
# PCOD9277393 Si02
#       8
#     8   8   8   8   4   8   8   8
#     4  11  23  36  56  91 122 156 203 244 299 358
#     4  10  24  41  68  95 115 153 208 254 305 370
#     4  10  20  41  62  85 132 161 196 251 306 356
#     4  10  21  42  65  89 117 157 205 261 314 357
#     4   8  18  32  64  86 114 172 196 224 298 362
#     4  12  22  37  59  89 118 156 211 251 295 372
#     4  10  21  38  54  76 113 153 192 245 306 343
#     4   9  18  37  58  82 118 168 199 234 290 361
#
# _framework density 22.262243000000002
#
# number of rings (size 3 to 8) (size 9 to 14) (size 15 to 20)
#    0.000    1.867    1.333    2.400    3.733    0.533 
#    7.200    2.000    0.000    0.000    0.000    0.000 
#    0.000    0.000    0.000    0.000    0.000    0.000 
#
# Total GULP energy -167354.744354 kJ/mol
# GULP energy per Si atom -5578.491478 kJ/mol
# Density = 2.221157 g / cm^3
# Si number density = 22.262243 Si / 1000 Ang^3
#
#
#
# Elastic Constant Matrix: (Units=GPa)
#
#
# Indices 1 2 3 4 5 6 
#
# 1 122.7069 13.2019 7.7211 0.0000 8.1665 0.0000
# 2 13.2019 24.5678 2.7414 0.0000 -4.5765 0.0000
# 3 7.7211 2.7414 55.5767 0.0000 25.4569 0.0000
# 4 0.0000 0.0000 0.0000 24.0896 0.0000 74.4542
# 5 8.1665 -4.5765 25.4569 0.0000 29.7420 0.0000
# 6 0.0000 0.0000 0.0000 74.4542 0.0000 356.6603
#
#
#
# Elastic Compliance Matrix: (Units=1/GPa)
#
#
# Indices 1 2 3 4 5 6 
#
# 1 0.008980 -0.005700 0.000929 0.000000 -0.004138 0.000000
# 2 -0.005700 0.047961 -0.009329 0.000000 0.016930 0.000000
# 3 0.000929 -0.009329 0.031415 0.000000 -0.028579 0.000000
# 4 0.000000 0.000000 0.000000 0.116999 0.000000 -0.024424
# 5 -0.004138 0.016930 -0.028579 0.000000 0.061826 0.000000
# 6 0.000000 0.000000 0.000000 -0.024424 0.000000 0.007902
#
#
# Mechanical properties :
#
#
# Convention : Reuss Voigt Hill
#
# Bulk Modulus (GPa) = 16.62311 27.79780 22.21045
# Shear Modulus (GPa) = 15.46385 94.04418 54.75401
#
# Velocity S-wave (km/s) = 2.63843 6.50657 4.96472
# Velocity P-wave (km/s) = 4.09450 8.30427 6.54698
#
# Compressibility (1/GPa) = 0.06015723
#
# Stress axis : x y z
#
# Youngs Moduli (GPa) = 111.36261 20.85014 31.83185
#
# Poissons Ratio (x) = 0.11884 -0.02957
# Poissons Ratio (y) = 0.63475 0.29694
# Poissons Ratio (z) = -0.10345 0.19450
#
# Static dielectric constant tensor:
#      x y z
#    x 1.859520 0.000000 -0.031560 
#    y 0.000000 1.844620 0.000000 
#    z -0.031560 0.000000 1.898650 
# 
# From -- ./inp_files/18433.got.cif
#   From: 2010.05.17/outbox.cif.g08.bks.cpg/sg15_10_cif.got.tgz:18433.got - 2010.06.03 18:47:42.
