data_PCOD9277399
_publ_section_title
;
Structure prediction by ZEFSAII (Michael W. Deem and Ramdas Pophale) SiO2 
 PCOD9277399
Probable space group: C 2/C
;
_chemical_formula_sum "Si O2"
_cell_formula_units_Z 40
_cell_length_a 11.257607
_cell_length_b 17.639819
_cell_length_c 13.585692
_cell_angle_alpha 90.000000
_cell_angle_beta 140.662573
_cell_angle_gamma 90.000000
_cell_volume 1710.146395
_symmetry_space_group_name_H-M "C 2/C"
_symmetry_group_IT_number 15
_symmetry_cell_setting 'monoclinic'
loop_
_space_group_symop_operation_xyz
x,y,z
-x,y,1/2-z
-x,-y,-z
x,-y,1/2+z
1/2+x,1/2+y,z
1/2-x,1/2+y,1/2-z
1/2-x,1/2-y,-z
1/2+x,1/2-y,1/2+z
loop_
_atom_site_type_symbol
_atom_site_label
_atom_site_fract_x
_atom_site_fract_y
_atom_site_fract_z
Si Si1 0.242201 0.183068 0.798736
Si Si2 0.296135 0.650279 0.298030
Si Si3 0.395414 0.455855 0.580785
Si Si4 0.545638 0.923468 0.469797
Si Si5 0.330623 0.634474 0.528209
O O1 0.334445 0.260322 0.820331
O O2 0.255393 0.163546 0.924517
O O3 0.021402 0.182477 0.636861
O O4 0.350715 0.114516 0.817352
O O5 0.478047 0.594734 0.410496
O O6 0.157952 0.627399 0.121681
O O7 0.210908 0.641192 0.352713
O O8 0.500000 0.439160 0.750000
O O9 0.180679 0.434394 0.463436
O O10 0.394198 0.546736 0.572821
O O11 0.500000 0.000000 0.500000
#
# Coordination Sequence:
#
# PCOD9277399 Si02
#       5
#     8   8   8   8   8
#     4  11  22  40  64  92 131 168 208 275 334 374
#     4  11  24  37  64  97 123 166 220 268 330 390
#     4  10  20  41  62  86 126 175 207 268 329 385
#     4  11  22  43  66  90 129 177 220 268 325 397
#     4  11  21  42  63  88 134 169 212 268 332 388
#
# _framework density 23.389809
#
# number of rings (size 3 to 8) (size 9 to 14) (size 15 to 20)
#    0.000    1.200    4.000    3.600    0.000    3.200 
#    0.000    5.000    0.000    0.000    0.000    0.000 
#    0.000    0.000    0.000    0.000    0.000    0.000 
#
# Total GULP energy -111699.211316 kJ/mol
# GULP energy per Si atom -5584.960566 kJ/mol
# Density = 2.333657 g / cm^3
# Si number density = 23.389809 Si / 1000 Ang^3
#
#
#
# Elastic Constant Matrix: (Units=GPa)
#
#
# Indices 1 2 3 4 5 6 
#
# 1 65.8760 16.8860 22.7664 0.0000 3.6248 0.0000
# 2 16.8860 138.1535 2.4268 0.0001 12.4026 0.0000
# 3 22.7664 2.4268 30.6648 0.0001 7.9816 0.0000
# 4 0.0000 0.0001 0.0001 16.4303 0.0000 -7.6671
# 5 3.6248 12.4026 7.9816 0.0000 43.8556 0.0000
# 6 0.0000 0.0000 0.0000 -7.6671 0.0000 28.8161
#
#
#
# Elastic Compliance Matrix: (Units=1/GPa)
#
#
# Indices 1 2 3 4 5 6 
#
# 1 0.021273 -0.002486 -0.016084 0.000000 0.001872 0.000000
# 2 -0.002486 0.007717 0.001836 0.000000 -0.002311 0.000000
# 3 -0.016084 0.001836 0.046393 0.000000 -0.007633 0.000000
# 4 0.000000 0.000000 0.000000 0.069491 0.000000 0.018489
# 5 0.001872 -0.002311 -0.007633 0.000000 0.024690 0.000000
# 6 0.000000 0.000000 0.000000 0.018489 0.000000 0.039622
#
#
# Mechanical properties :
#
#
# Convention : Reuss Voigt Hill
#
# Bulk Modulus (GPa) = 23.85680 35.42808 29.64244
# Shear Modulus (GPa) = 19.48357 30.66139 25.07248
#
# Velocity S-wave (km/s) = 2.88929 3.62455 3.27760
# Velocity P-wave (km/s) = 4.62088 5.71805 5.19849
#
# Compressibility (1/GPa) = 0.04191677
#
# Stress axis : x y z
#
# Youngs Moduli (GPa) = 47.00850 129.57779 21.55476
#
# Poissons Ratio (x) = 0.32208 0.34669
# Poissons Ratio (y) = 0.11685 -0.03958
# Poissons Ratio (z) = 0.75609 -0.23793
#
# Static dielectric constant tensor:
#      x y z
#    x 1.936720 0.000000 0.002700 
#    y 0.000000 1.904160 0.000000 
#    z 0.002700 0.000000 1.902020 
# 
# From -- ./inp_files/199358.got.cif
#   From: 2010.05.17/outbox.cif.g08.bks.cpg/sg15_100_cif.got.tgz:199358.got - 2010.06.03 18:47:42.
