data_PCOD9277689
_publ_section_title
;
Structure prediction by ZEFSAII (Michael W. Deem and Ramdas Pophale) SiO2 
 PCOD9277689
Probable space group: C 2/C
;
_chemical_formula_sum "Si O2"
_cell_formula_units_Z 40
_cell_length_a 24.018522
_cell_length_b 5.451457
_cell_length_c 12.953297
_cell_angle_alpha 90.000000
_cell_angle_beta 100.399554
_cell_angle_gamma 90.000000
_cell_volume 1668.190859
_symmetry_space_group_name_H-M "C 2/C"
_symmetry_group_IT_number 15
_symmetry_cell_setting 'monoclinic'
loop_
_space_group_symop_operation_xyz
x,y,z
-x,y,1/2-z
-x,-y,-z
x,-y,1/2+z
1/2+x,1/2+y,z
1/2-x,1/2+y,1/2-z
1/2-x,1/2-y,-z
1/2+x,1/2-y,1/2+z
loop_
_atom_site_type_symbol
_atom_site_label
_atom_site_fract_x
_atom_site_fract_y
_atom_site_fract_z
Si Si1 0.492743 0.249190 0.065521
Si Si2 0.125548 0.543183 0.452552
Si Si3 0.805659 0.558797 0.691066
Si Si4 0.807301 0.859387 0.896368
Si Si5 0.387523 0.264837 0.341885
O O1 0.430397 0.200601 0.090092
O O2 0.546164 0.260205 0.160962
O O3 0.500000 0.500000 0.000000
O O4 0.500000 0.000000 0.000000
O O5 0.147331 0.347919 0.375192
O O6 0.178229 0.722909 0.493736
O O7 0.117846 0.411394 0.559987
O O8 0.791742 0.693069 0.792890
O O9 0.745402 0.540299 0.614956
O O10 0.842021 0.321797 0.742348
O O11 0.865924 0.978356 0.877923
#
# Coordination Sequence:
#
# PCOD9277689 Si02
#       5
#     8   8   8   8   8
#     4  10  20  41  67  93 128 169 216 271 327 384
#     4  10  23  39  65  90 121 171 221 261 330 396
#     4  11  23  39  60  94 127 167 218 267 326 399
#     4  11  21  40  60  90 130 167 208 274 330 385
#     4  10  22  40  63  89 126 168 208 270 331 383
#
# _framework density 23.978071
#
# number of rings (size 3 to 8) (size 9 to 14) (size 15 to 20)
#    0.000    1.600    4.000    0.600    0.000    3.200 
#    0.000    0.000    0.000    0.000    0.000    0.000 
#    0.000    0.000    0.000    0.000    0.000    0.000 
#
# Total GULP energy -111405.352891 kJ/mol
# GULP energy per Si atom -5570.267645 kJ/mol
# Density = 2.392350 g / cm^3
# Si number density = 23.978071 Si / 1000 Ang^3
#
#
#
# Elastic Constant Matrix: (Units=GPa)
#
#
# Indices 1 2 3 4 5 6 
#
# 1 131.5290 -7.6720 28.8986 0.0000 17.9008 0.0000
# 2 -7.6720 51.0323 -0.9182 0.0000 3.2114 0.0000
# 3 28.8986 -0.9182 76.2790 0.0000 12.1924 0.0000
# 4 0.0000 0.0000 0.0000 2.0225 0.0000 12.1203
# 5 17.9008 3.2114 12.1924 0.0000 35.1428 0.0000
# 6 0.0000 0.0000 0.0000 12.1203 0.0000 21.3096
#
#
#
# Elastic Compliance Matrix: (Units=1/GPa)
#
#
# Indices 1 2 3 4 5 6 
#
# 1 0.008789 0.001503 -0.002725 0.000000 -0.003669 0.000000
# 2 0.001503 0.019988 0.000091 0.000000 -0.002624 0.000000
# 3 -0.002725 0.000091 0.014740 0.000000 -0.003734 0.000000
# 4 0.000000 0.000000 0.000000 -0.205288 0.000000 0.116762
# 5 -0.003669 -0.002624 -0.003734 0.000000 0.031859 0.000000
# 6 0.000000 0.000000 0.000000 0.116762 0.000000 -0.019484
#
#
# Mechanical properties :
#
#
# Convention : Reuss Voigt Hill
#
# Bulk Modulus (GPa) = 24.24018 33.27299 28.75659
# Shear Modulus (GPa) = -37.48657 27.59709 -4.94474
#
# Velocity S-wave (km/s) = -3.95824 3.39622 -1.43759
# Velocity P-wave (km/s) = 3.28008 5.41162 3.04357
#
# Compressibility (1/GPa) = 0.04125382
#
# Stress axis : x y z
#
# Youngs Moduli (GPa) = 113.78395 50.02966 67.84198
#
# Poissons Ratio (x) = -0.07520 0.18488
# Poissons Ratio (y) = -0.17102 -0.00614
# Poissons Ratio (z) = 0.31007 -0.00453
#
# Static dielectric constant tensor:
#      x y z
#    x 1.500710 0.000000 0.076620 
#    y 0.000000 1.327750 0.000000 
#    z 0.076620 0.000000 1.987100 
# 
# From -- ./inp_files/120703.got.cif
#   From: 2010.05.17/outbox.cif.g08.bks.cpg/sg15_61_cif.got.tgz:120703.got - 2010.06.03 18:47:42.
