data_PCOD9277459
_publ_section_title
;
Structure prediction by ZEFSAII (Michael W. Deem and Ramdas Pophale) SiO2 
 PCOD9277459
Probable space group: C 2/C
;
_chemical_formula_sum "Si O2"
_cell_formula_units_Z 64
_cell_length_a 16.757989
_cell_length_b 19.570817
_cell_length_c 13.768760
_cell_angle_alpha 90.000000
_cell_angle_beta 145.600189
_cell_angle_gamma 90.000000
_cell_volume 2551.212761
_symmetry_space_group_name_H-M "C 2/C"
_symmetry_group_IT_number 15
_symmetry_cell_setting 'monoclinic'
loop_
_space_group_symop_operation_xyz
x,y,z
-x,y,1/2-z
-x,-y,-z
x,-y,1/2+z
1/2+x,1/2+y,z
1/2-x,1/2+y,1/2-z
1/2-x,1/2-y,-z
1/2+x,1/2-y,1/2+z
loop_
_atom_site_type_symbol
_atom_site_label
_atom_site_fract_x
_atom_site_fract_y
_atom_site_fract_z
Si Si1 0.601776 0.707563 0.554099
Si Si2 0.777700 0.875614 0.864781
Si Si3 0.583088 0.155323 0.925038
Si Si4 0.466193 0.094879 0.109218
Si Si5 0.932789 0.244119 0.580280
Si Si6 0.371722 0.612898 0.236664
Si Si7 0.934362 0.999579 0.043003
Si Si8 0.673428 0.910350 0.221647
O O1 0.625722 0.782438 0.536965
O O2 0.525189 0.718638 0.580671
O O3 0.496143 0.668623 0.372886
O O4 0.741964 0.661842 0.702709
O O5 0.620945 0.900796 0.720122
O O6 0.813973 0.886282 0.788965
O O7 0.892155 0.924095 0.032731
O O8 0.791203 0.799330 0.919344
O O9 0.500000 0.183731 0.750000
O O10 0.472533 0.104832 0.867878
O O11 0.731094 0.125649 0.035284
O O12 0.500000 0.065511 0.250000
O O13 0.415325 0.174124 0.066604
O O14 0.365047 0.063037 0.925764
O O15 0.000000 0.224178 0.750000
O O16 0.444235 0.542133 0.282963
O O17 0.786480 0.040267 0.885366
O O18 0.000000 0.000000 0.000000
#
# Coordination Sequence:
#
# PCOD9277459 Si02
#       8
#     8   8   8   8   8   8   8   8
#     4  10  21  37  63  95 130 175 215 263 331 394
#     4  10  20  41  63  92 130 171 216 256 320 388
#     4  12  24  40  64  96 129 168 218 281 338 383
#     4  11  24  36  61 102 136 167 209 267 330 394
#     4  10  22  36  62  97 136 170 205 257 321 398
#     4   9  19  40  63  89 125 165 220 268 315 389
#     4   9  21  44  71  89 118 180 223 261 322 386
#     4  11  23  41  68  93 130 173 219 272 327 386
#
# _framework density 25.086110000000001
#
# number of rings (size 3 to 8) (size 9 to 14) (size 15 to 20)
#    0.000    1.750    2.500    1.500    5.250    3.500 
#    0.000    3.750    0.000    0.000    0.000    0.000 
#    0.000    0.000    0.000    0.000    0.000    0.000 
#
# Total GULP energy -178975.646625 kJ/mol
# GULP energy per Si atom -5592.988957 kJ/mol
# Density = 2.502901 g / cm^3
# Si number density = 25.086110 Si / 1000 Ang^3
#
#
#
# Elastic Constant Matrix: (Units=GPa)
#
#
# Indices 1 2 3 4 5 6 
#
# 1 62.7781 -0.0209 20.2781 0.0000 -6.5760 0.0000
# 2 -0.0209 51.2546 14.0664 0.0000 12.7407 0.0000
# 3 20.2781 14.0664 124.9688 0.0000 14.1511 0.0000
# 4 0.0000 0.0000 0.0000 -7.7787 0.0000 6.1942
# 5 -6.5760 12.7407 14.1511 0.0000 40.3841 0.0000
# 6 0.0000 0.0000 0.0000 6.1942 0.0000 0.5165
#
#
#
# Elastic Compliance Matrix: (Units=1/GPa)
#
#
# Indices 1 2 3 4 5 6 
#
# 1 0.017404 -0.000093 -0.003268 0.000000 0.004008 0.000000
# 2 -0.000093 0.021521 -0.001704 0.000000 -0.006207 0.000000
# 3 -0.003268 -0.001704 0.009084 0.000000 -0.003177 0.000000
# 4 0.000000 0.000000 0.000000 -0.012185 0.000000 0.146139
# 5 0.004008 -0.006207 -0.003177 0.000000 0.028487 0.000000
# 6 0.000000 0.000000 0.000000 0.146139 0.000000 0.183521
#
#
# Mechanical properties :
#
#
# Convention : Reuss Voigt Hill
#
# Bulk Modulus (GPa) = 26.39893 34.18319 30.29106
# Shear Modulus (GPa) = 18.47828 20.26957 19.37393
#
# Velocity S-wave (km/s) = 2.71697 2.84562 2.78204
# Velocity P-wave (km/s) = 4.51539 4.94496 4.73505
#
# Compressibility (1/GPa) = 0.03788032
#
# Stress axis : x y z
#
# Youngs Moduli (GPa) = 57.45655 46.46582 110.08513
#
# Poissons Ratio (x) = 0.00430 0.35972
# Poissons Ratio (y) = 0.00531 0.18764
# Poissons Ratio (z) = 0.18775 0.07920
#
# Static dielectric constant tensor:
#      x y z
#    x 2.006740 0.000000 -0.023490 
#    y 0.000000 2.096490 0.000000 
#    z -0.023490 0.000000 2.038170 
# 
# From -- ./inp_files/164261.got.cif
#   From: 2010.05.17/outbox.cif.g08.bks.cpg/sg15_83_cif.got.tgz:164261.got - 2010.06.03 18:47:42.
