data_PCOD9277049
_publ_section_title
;
Structure prediction by ZEFSAII (Michael W. Deem and Ramdas Pophale) SiO2 
 PCOD9277049
Probable space group: C 2/C
;
_chemical_formula_sum "Si O2"
_cell_formula_units_Z 56
_cell_length_a 8.022720
_cell_length_b 18.280312
_cell_length_c 20.035021
_cell_angle_alpha 90.000000
_cell_angle_beta 112.609837
_cell_angle_gamma 90.000000
_cell_volume 2712.467842
_symmetry_space_group_name_H-M "C 2/C"
_symmetry_group_IT_number 15
_symmetry_cell_setting 'monoclinic'
loop_
_space_group_symop_operation_xyz
x,y,z
-x,y,1/2-z
-x,-y,-z
x,-y,1/2+z
1/2+x,1/2+y,z
1/2-x,1/2+y,1/2-z
1/2-x,1/2-y,-z
1/2+x,1/2-y,1/2+z
loop_
_atom_site_type_symbol
_atom_site_label
_atom_site_fract_x
_atom_site_fract_y
_atom_site_fract_z
Si Si1 0.851008 0.333793 0.774256
Si Si2 0.243736 0.524296 0.619876
Si Si3 0.908895 0.618902 0.565996
Si Si4 0.713390 0.148181 0.095443
Si Si5 0.795995 0.503739 0.735921
Si Si6 0.942053 0.048466 0.926260
Si Si7 0.481237 0.235374 0.817908
O O1 0.911480 0.335107 0.860154
O O2 0.810767 0.417354 0.750928
O O3 0.678006 0.287882 0.729305
O O4 0.000000 0.302199 0.750000
O O5 0.272541 0.437262 0.610648
O O6 0.275804 0.535847 0.704538
O O7 0.372367 0.566387 0.586363
O O8 0.033015 0.546471 0.577779
O O9 0.876070 0.654360 0.489413
O O10 0.710596 0.604332 0.568002
O O11 0.027511 0.673602 0.628340
O O12 0.869818 0.207423 0.131596
O O13 0.671360 0.513237 0.652260
O O14 0.000000 0.528417 0.750000
O O15 0.000000 0.000000 0.000000
O O16 0.500000 0.193848 0.750000
#
# Coordination Sequence:
#
# PCOD9277049 Si02
#       7
#     8   8   8   8   8   8   8
#     4   9  20  39  68  92 118 170 230 268 310 402
#     4  11  23  42  69  98 133 174 223 274 329 406
#     4  12  25  42  66 100 142 169 216 286 348 390
#     4  10  21  43  66  93 128 175 219 268 334 399
#     4  10  20  40  67  95 131 172 222 273 327 397
#     4  12  25  39  65 101 135 174 215 275 341 402
#     4  10  23  44  67  88 133 181 220 270 336 404
#
# _framework density 20.645406000000001
#
# number of rings (size 3 to 8) (size 9 to 14) (size 15 to 20)
#    0.000    1.429    2.857    2.143    2.000    2.286 
#    5.143    0.714    0.000    0.000    0.000    0.000 
#    0.000    0.000    0.000    0.000    0.000    0.000 
#
# Total GULP energy -155872.703459 kJ/mol
# GULP energy per Si atom -5566.882266 kJ/mol
# Density = 2.059842 g / cm^3
# Si number density = 20.645406 Si / 1000 Ang^3
#
#
#
# Elastic Constant Matrix: (Units=GPa)
#
#
# Indices 1 2 3 4 5 6 
#
# 1 81.9377 8.7640 33.2708 0.0000 -21.1552 0.0000
# 2 8.7640 63.0494 17.9630 0.0000 -3.1456 0.0000
# 3 33.2708 17.9630 185.7423 0.0000 -26.4545 0.0000
# 4 0.0000 0.0000 0.0000 18.8989 0.0000 -9.4951
# 5 -21.1552 -3.1456 -26.4545 0.0000 30.5679 0.0000
# 6 0.0000 0.0000 0.0000 -9.4951 0.0000 -6.8668
#
#
#
# Elastic Compliance Matrix: (Units=1/GPa)
#
#
# Indices 1 2 3 4 5 6 
#
# 1 0.015271 -0.001292 -0.001282 0.000000 0.009326 0.000000
# 2 -0.001292 0.016423 -0.001418 0.000000 -0.000432 0.000000
# 3 -0.001282 -0.001418 0.006391 0.000000 0.004498 0.000000
# 4 0.000000 0.000000 0.000000 0.031222 0.000000 -0.043173
# 5 0.009326 -0.000432 0.004498 0.000000 0.043017 0.000000
# 6 0.000000 0.000000 0.000000 -0.043173 0.000000 -0.085930
#
#
# Mechanical properties :
#
#
# Convention : Reuss Voigt Hill
#
# Bulk Modulus (GPa) = 33.22265 50.08055 41.65160
# Shear Modulus (GPa) = 112.58130 26.56877 69.57503
#
# Velocity S-wave (km/s) = 7.39252 3.59124 5.81147
# Velocity P-wave (km/s) = 9.43359 6.44253 8.07771
#
# Compressibility (1/GPa) = 0.03009995
#
# Stress axis : x y z
#
# Youngs Moduli (GPa) = 65.48310 60.89128 156.46409
#
# Poissons Ratio (x) = 0.07868 0.20061
# Poissons Ratio (y) = 0.08461 0.22191
# Poissons Ratio (z) = 0.08396 0.08636
#
# Static dielectric constant tensor:
#      x y z
#    x 1.867770 0.000000 -0.027080 
#    y 0.000000 1.720530 0.000000 
#    z -0.027080 0.000000 1.707430 
# 
# From -- ./inp_files/232768.got.cif
#   From: 2010.05.17/outbox.cif.g08.bks.cpg/sg15_117_cif.got.tgz:232768.got - 2010.06.03 18:47:42.
