data_PCOD9277511
_publ_section_title
;
Structure prediction by ZEFSAII (Michael W. Deem and Ramdas Pophale) SiO2 
 PCOD9277511
Probable space group: C 2/C
;
_chemical_formula_sum "Si O2"
_cell_formula_units_Z 52
_cell_length_a 27.148372
_cell_length_b 14.839964
_cell_length_c 8.558384
_cell_angle_alpha 90.000000
_cell_angle_beta 135.944628
_cell_angle_gamma 90.000000
_cell_volume 2397.584298
_symmetry_space_group_name_H-M "C 2/C"
_symmetry_group_IT_number 15
_symmetry_cell_setting 'monoclinic'
loop_
_space_group_symop_operation_xyz
x,y,z
-x,y,1/2-z
-x,-y,-z
x,-y,1/2+z
1/2+x,1/2+y,z
1/2-x,1/2+y,1/2-z
1/2-x,1/2-y,-z
1/2+x,1/2-y,1/2+z
loop_
_atom_site_type_symbol
_atom_site_label
_atom_site_fract_x
_atom_site_fract_y
_atom_site_fract_z
Si Si1 0.385927 0.740448 0.301407
Si Si2 0.640443 0.062489 0.829160
Si Si3 0.579846 0.701343 0.473558
Si Si4 0.500000 0.623831 0.750000
Si Si5 0.698914 0.590162 0.294724
Si Si6 0.120708 0.053041 0.809198
Si Si7 0.575897 0.095920 0.004121
O O1 0.389642 0.847968 0.323607
O O2 0.385628 0.718571 0.116100
O O3 0.450113 0.689768 0.534518
O O4 0.315998 0.695512 0.214684
O O5 0.631973 0.080008 0.993702
O O6 0.596590 0.974432 0.683195
O O7 0.723553 0.057889 0.982697
O O8 0.500000 0.671669 0.250000
O O9 0.617109 0.629107 0.667615
O O10 0.575833 0.798788 0.549228
O O11 0.548245 0.563661 0.743888
O O12 0.640224 0.538656 0.266358
O O13 0.681168 0.568909 0.075389
O O14 0.500000 0.079014 0.750000
#
# Coordination Sequence:
#
# PCOD9277511 Si02
#       7
#     8   8   8   4   8   8   8
#     4  10  22  39  63  92 130 166 217 265 320 378
#     4  11  23  42  65  90 134 169 215 268 316 393
#     4  10  20  41  64  92 131 161 209 270 329 373
#     4  10  22  38  64 100 122 174 216 270 328 370
#     4  11  24  42  59  94 128 180 215 254 324 389
#     4  11  23  41  65  90 135 168 219 267 314 392
#     4  10  23  40  67  98 123 164 213 272 331 376
#
# _framework density 21.688497999999999
#
# number of rings (size 3 to 8) (size 9 to 14) (size 15 to 20)
#    0.000    1.538    1.538    2.769    1.077    4.923 
#    6.923    8.462    0.000    0.000    0.000    0.000 
#    0.000    0.000    0.000    0.000    0.000    0.000 
#
# Total GULP energy -145315.942644 kJ/mol
# GULP energy per Si atom -5589.074717 kJ/mol
# Density = 2.163913 g / cm^3
# Si number density = 21.688498 Si / 1000 Ang^3
#
#
#
# Elastic Constant Matrix: (Units=GPa)
#
#
# Indices 1 2 3 4 5 6 
#
# 1 39.3657 22.8203 29.1265 0.0000 -1.6760 0.0000
# 2 22.8203 66.9453 15.9268 0.0000 1.9210 0.0000
# 3 29.1265 15.9268 49.8054 0.0000 11.1865 0.0000
# 4 0.0000 0.0000 0.0000 150.1874 0.0000 35.1510
# 5 -1.6760 1.9210 11.1865 0.0000 31.5357 0.0000
# 6 0.0000 0.0000 0.0000 35.1510 0.0000 40.0827
#
#
#
# Elastic Compliance Matrix: (Units=1/GPa)
#
#
# Indices 1 2 3 4 5 6 
#
# 1 0.057960 -0.012236 -0.033512 0.000000 0.015713 0.000000
# 2 -0.012236 0.018775 0.001689 0.000000 -0.002393 0.000000
# 3 -0.033512 0.001689 0.042984 0.000000 -0.017131 0.000000
# 4 0.000000 0.000000 0.000000 0.008378 0.000000 -0.007347
# 5 0.015713 -0.002393 -0.017131 0.000000 0.038768 0.000000
# 6 0.000000 0.000000 0.000000 -0.007347 0.000000 0.031392
#
#
# Mechanical properties :
#
#
# Convention : Reuss Voigt Hill
#
# Bulk Modulus (GPa) = 31.64352 32.42929 32.03640
# Shear Modulus (GPa) = 16.84029 50.24402 33.54216
#
# Velocity S-wave (km/s) = 2.78953 4.81835 3.93688
# Velocity P-wave (km/s) = 4.99970 6.77791 5.95555
#
# Compressibility (1/GPa) = 0.03160205
#
# Stress axis : x y z
#
# Youngs Moduli (GPa) = 17.25328 53.26151 23.26467
#
# Poissons Ratio (x) = 0.65168 0.77964
# Poissons Ratio (y) = 0.21110 -0.03929
# Poissons Ratio (z) = 0.57819 -0.08996
#
# Static dielectric constant tensor:
#      x y z
#    x 1.831060 0.000000 0.015190 
#    y 0.000000 1.802320 0.000000 
#    z 0.015190 0.000000 1.761650 
# 
# From -- ./inp_files/61430.got.cif
#   From: 2010.05.17/outbox.cif.g08.bks.cpg/sg15_31_cif.got.tgz:61430.got - 2010.06.03 18:47:42.
