data_PCOD9277784
_publ_section_title
;
Structure prediction by ZEFSAII (Michael W. Deem and Ramdas Pophale) SiO2 
 PCOD9277784
Probable space group: C 2/C
;
_chemical_formula_sum "Si O2"
_cell_formula_units_Z 60
_cell_length_a 25.023028
_cell_length_b 25.066427
_cell_length_c 13.688209
_cell_angle_alpha 90.000000
_cell_angle_beta 21.198837
_cell_angle_gamma 90.000000
_cell_volume 3104.660564
_symmetry_space_group_name_H-M "C 2/C"
_symmetry_group_IT_number 15
_symmetry_cell_setting 'monoclinic'
loop_
_space_group_symop_operation_xyz
x,y,z
-x,y,1/2-z
-x,-y,-z
x,-y,1/2+z
1/2+x,1/2+y,z
1/2-x,1/2+y,1/2-z
1/2-x,1/2-y,-z
1/2+x,1/2-y,1/2+z
loop_
_atom_site_type_symbol
_atom_site_label
_atom_site_fract_x
_atom_site_fract_y
_atom_site_fract_z
Si Si1 0.000000 0.426237 0.750000
Si Si2 0.241036 0.501937 0.431102
Si Si3 0.977267 0.981884 0.176450
Si Si4 0.644005 0.178339 0.948126
Si Si5 0.845712 0.376281 0.459105
Si Si6 0.960812 0.855960 0.427422
Si Si7 0.864600 0.292249 0.261447
Si Si8 0.862744 0.777340 0.232573
O O1 0.108303 0.461758 0.632065
O O2 0.104626 0.384734 0.512914
O O3 0.317505 0.497774 0.406684
O O4 0.184302 0.561321 0.507236
O O5 0.385379 0.492531 0.116422
O O6 0.000000 0.995422 0.250000
O O7 0.990798 0.917727 0.142796
O O8 0.660094 0.199247 0.811635
O O9 0.779288 0.192902 0.787172
O O10 0.500000 0.202032 0.250000
O O11 0.847061 0.345511 0.354273
O O12 0.000000 0.368655 0.250000
O O13 0.712704 0.354238 0.752864
O O14 0.043352 0.819490 0.364772
O O15 0.000000 0.840078 0.250000
O O16 0.750000 0.250000 0.500000
O O17 0.027515 0.267600 0.994837
O O18 0.750000 0.750000 0.500000
#
# Coordination Sequence:
#
# PCOD9277784 Si02
#       8
#     4   8   8   8   8   8   8   8
#     4  10  20  44  68  96 140 168 220 280 340 396
#     4  10  20  41  69  95 135 173 217 278 335 400
#     4   9  20  39  64  96 128 172 222 267 331 401
#     4  10  25  44  64  97 132 172 226 270 335 407
#     4  11  25  44  65 102 136 173 222 278 341 401
#     4  10  23  41  67  97 130 175 226 267 328 407
#     4  12  27  45  66  98 137 174 225 281 337 388
#     4  12  24  41  71  93 126 180 223 273 328 394
#
# _framework density 19.325783000000001
#
# number of rings (size 3 to 8) (size 9 to 14) (size 15 to 20)
#    0.400    1.067    3.333    0.800    5.600    1.067 
#    4.800    1.333    0.000    0.000    0.000    0.000 
#    0.000    0.000    0.000    0.000    0.000    0.000 
#
# Total GULP energy -167518.320786 kJ/mol
# GULP energy per Si atom -5583.944026 kJ/mol
# Density = 1.928180 g / cm^3
# Si number density = 19.325783 Si / 1000 Ang^3
#
#
#
# Elastic Constant Matrix: (Units=GPa)
#
#
# Indices 1 2 3 4 5 6 
#
# 1 163.1382 54.9291 70.6189 -0.0017 -11.3784 0.0005
# 2 54.9291 71.6337 48.4228 0.0050 -6.0272 -0.0018
# 3 70.6189 48.4228 122.9848 0.0101 -10.2179 -0.0025
# 4 -0.0017 0.0050 0.0101 10.7548 0.0015 7.4155
# 5 -11.3784 -6.0272 -10.2179 0.0015 38.4622 0.0009
# 6 0.0005 -0.0018 -0.0025 7.4155 0.0009 22.4202
#
#
#
# Elastic Compliance Matrix: (Units=1/GPa)
#
#
# Indices 1 2 3 4 5 6 
#
# 1 0.009254 -0.004733 -0.003359 0.000010 0.001104 -0.000004
# 2 -0.004733 0.021482 -0.005703 -0.000008 0.000451 0.000004
# 3 -0.003359 -0.005703 0.012422 -0.000014 0.001413 0.000005
# 4 0.000010 -0.000008 -0.000014 0.120451 -0.000006 -0.039839
# 5 0.001104 0.000451 0.001413 -0.000006 0.026772 0.000001
# 6 -0.000004 0.000004 0.000005 -0.039839 0.000001 0.057779
#
#
# Mechanical properties :
#
#
# Convention : Reuss Voigt Hill
#
# Bulk Modulus (GPa) = 64.22725 78.41092 71.31908
# Shear Modulus (GPa) = 17.79736 26.57985 22.18860
#
# Velocity S-wave (km/s) = 3.03795 3.71260 3.39209
# Velocity P-wave (km/s) = 6.75364 7.68370 7.23363
#
# Compressibility (1/GPa) = 0.01556972
#
# Stress axis : x y z
#
# Youngs Moduli (GPa) = 108.05850 46.55010 80.49922
#
# Poissons Ratio (x) = 0.22032 0.27037
# Poissons Ratio (y) = 0.51144 0.45909
# Poissons Ratio (z) = 0.36293 0.26548
#
# Static dielectric constant tensor:
#      x y z
#    x 1.651440 -0.000010 0.000510 
#    y -0.000010 1.672270 0.000000 
#    z 0.000510 0.000000 1.668210 
# 
# From -- ./inp_files/179278.got.cif
#   From: 2010.05.17/outbox.cif.g08.bks.cpg/sg15_90_cif.got.tgz:179278.got - 2010.06.03 18:47:42.
