data_PCOD9277415
_publ_section_title
;
Structure prediction by ZEFSAII (Michael W. Deem and Ramdas Pophale) SiO2 
 PCOD9277415
Probable space group: C 2/C
;
_chemical_formula_sum "Si O2"
_cell_formula_units_Z 44
_cell_length_a 6.328590
_cell_length_b 13.490825
_cell_length_c 27.475655
_cell_angle_alpha 90.000000
_cell_angle_beta 107.259320
_cell_angle_gamma 90.000000
_cell_volume 2240.185714
_symmetry_space_group_name_H-M "C 2/C"
_symmetry_group_IT_number 15
_symmetry_cell_setting 'monoclinic'
loop_
_space_group_symop_operation_xyz
x,y,z
-x,y,1/2-z
-x,-y,-z
x,-y,1/2+z
1/2+x,1/2+y,z
1/2-x,1/2+y,1/2-z
1/2-x,1/2-y,-z
1/2+x,1/2-y,1/2+z
loop_
_atom_site_type_symbol
_atom_site_label
_atom_site_fract_x
_atom_site_fract_y
_atom_site_fract_z
Si Si1 0.903263 0.809922 0.839699
Si Si2 0.315246 0.530475 0.200219
Si Si3 0.956084 0.607705 0.888385
Si Si4 0.000000 0.352250 0.750000
Si Si5 0.718515 0.935503 0.024400
Si Si6 0.836774 0.943536 0.927875
O O1 0.013291 0.708756 0.864982
O O2 0.691407 0.791932 0.790581
O O3 0.824836 0.870144 0.881860
O O4 0.068517 0.880658 0.821481
O O5 0.500000 0.489739 0.250000
O O6 0.220489 0.451199 0.156433
O O7 0.120077 0.577446 0.218996
O O8 0.845378 0.629713 0.933349
O O9 0.163125 0.533779 0.909285
O O10 0.785039 0.892207 0.976395
O O11 0.920175 0.008023 0.052524
O O12 0.500000 0.000000 0.000000
#
# Coordination Sequence:
#
# PCOD9277415 Si02
#       6
#     8   8   8   4   8   8
#     4  11  23  39  64  92 122 161 208 248 300 370
#     4  10  22  42  59  87 126 158 203 257 300 360
#     4  11  22  39  65  92 121 166 202 246 310 359
#     4  10  22  44  60  86 128 162 196 262 304 348
#     4   9  20  39  65  90 125 162 199 254 309 358
#     4  10  20  41  62  91 130 157 203 257 296 366
#
# _framework density 19.641228999999999
#
# number of rings (size 3 to 8) (size 9 to 14) (size 15 to 20)
#    0.000    1.818    3.636    0.000    1.273    2.182 
#    4.909    8.182    0.000    0.000    0.000    0.000 
#    0.000    0.000    0.000    0.000    0.000    0.000 
#
# Total GULP energy -122775.107519 kJ/mol
# GULP energy per Si atom -5580.686705 kJ/mol
# Density = 1.959653 g / cm^3
# Si number density = 19.641229 Si / 1000 Ang^3
#
#
#
# Elastic Constant Matrix: (Units=GPa)
#
#
# Indices 1 2 3 4 5 6 
#
# 1 80.9115 20.9688 34.8869 0.0000 3.8590 0.0000
# 2 20.9688 59.4984 37.2176 0.0000 2.8624 0.0000
# 3 34.8869 37.2176 125.6444 0.0000 -5.0596 0.0000
# 4 0.0000 0.0000 0.0000 10.2819 0.0000 -0.9737
# 5 3.8590 2.8624 -5.0596 0.0000 36.3341 0.0000
# 6 0.0000 0.0000 0.0000 -0.9737 0.0000 13.2996
#
#
#
# Elastic Compliance Matrix: (Units=1/GPa)
#
#
# Indices 1 2 3 4 5 6 
#
# 1 0.014626 -0.003050 -0.003229 0.000000 -0.001763 0.000000
# 2 -0.003050 0.021492 -0.005606 0.000000 -0.002150 0.000000
# 3 -0.003229 -0.005606 0.010607 0.000000 0.002262 0.000000
# 4 0.000000 0.000000 0.000000 0.097937 0.000000 0.007170
# 5 -0.001763 -0.002150 0.002262 0.000000 0.028194 0.000000
# 6 0.000000 0.000000 0.000000 0.007170 0.000000 0.075715
#
#
# Mechanical properties :
#
#
# Convention : Reuss Voigt Hill
#
# Bulk Modulus (GPa) = 43.56208 50.24453 46.90331
# Shear Modulus (GPa) = 17.85763 23.51518 20.68641
#
# Velocity S-wave (km/s) = 3.01855 3.46386 3.24885
# Velocity P-wave (km/s) = 5.86310 6.45248 6.16484
#
# Compressibility (1/GPa) = 0.02295575
#
# Stress axis : x y z
#
# Youngs Moduli (GPa) = 68.37239 46.52845 94.27703
#
# Poissons Ratio (x) = 0.14192 0.30438
# Poissons Ratio (y) = 0.20855 0.52851
# Poissons Ratio (z) = 0.22074 0.26084
#
# Static dielectric constant tensor:
#      x y z
#    x 1.677790 0.000000 -0.005320 
#    y 0.000000 1.631500 0.000000 
#    z -0.005320 0.000000 1.720310 
# 
# From -- ./inp_files/305072.got.cif
#   From: 2010.05.17/outbox.cif.g08.bks.cpg/sg15_153_cif.got.tgz:305072.got - 2010.06.03 18:47:42.
