data_PCOD9277032
_publ_section_title
;
Structure prediction by ZEFSAII (Michael W. Deem and Ramdas Pophale) SiO2 
 PCOD9277032
Probable space group: C 2/C
;
_chemical_formula_sum "Si O2"
_cell_formula_units_Z 56
_cell_length_a 10.605937
_cell_length_b 13.806713
_cell_length_c 17.086569
_cell_angle_alpha 90.000000
_cell_angle_beta 108.120316
_cell_angle_gamma 90.000000
_cell_volume 2377.952369
_symmetry_space_group_name_H-M "C 2/C"
_symmetry_group_IT_number 15
_symmetry_cell_setting 'monoclinic'
loop_
_space_group_symop_operation_xyz
x,y,z
-x,y,1/2-z
-x,-y,-z
x,-y,1/2+z
1/2+x,1/2+y,z
1/2-x,1/2+y,1/2-z
1/2-x,1/2-y,-z
1/2+x,1/2-y,1/2+z
loop_
_atom_site_type_symbol
_atom_site_label
_atom_site_fract_x
_atom_site_fract_y
_atom_site_fract_z
Si Si1 0.250787 0.814732 0.321520
Si Si2 0.681824 0.519173 0.234476
Si Si3 0.157185 0.176595 0.531506
Si Si4 0.109408 0.697920 0.493837
Si Si5 0.626872 0.197757 0.807189
Si Si6 0.596909 0.401484 0.868208
Si Si7 0.886625 0.375604 0.666625
O O1 0.356113 0.836675 0.411000
O O2 0.312959 0.758716 0.260236
O O3 0.141495 0.740256 0.331097
O O4 0.202257 0.910685 0.269038
O O5 0.531863 0.537244 0.177285
O O6 0.704423 0.573066 0.322915
O O7 0.767025 0.561989 0.179564
O O8 0.250000 0.250000 0.500000
O O9 0.254334 0.150230 0.621416
O O10 0.130798 0.090148 0.465609
O O11 0.019369 0.230548 0.528101
O O12 0.250000 0.750000 0.500000
O O13 0.087899 0.617464 0.421713
O O14 0.500000 0.138192 0.750000
O O15 0.572461 0.287626 0.847227
O O16 0.000000 0.398803 0.750000
#
# Coordination Sequence:
#
# PCOD9277032 Si02
#       7
#     8   8   8   8   8   8   8
#     4  11  23  41  65  98 135 181 242 280 356 430
#     4  11  23  41  67  98 132 190 230 290 354 430
#     4  10  21  37  71 107 130 188 247 287 360 433
#     4  10  22  40  67 101 143 185 230 292 370 431
#     4  11  19  39  70  98 132 184 233 299 345 425
#     4  10  20  40  67  92 139 168 245 285 352 402
#     4  11  23  42  68  92 143 179 223 287 370 416
#
# _framework density 23.549674
#
# number of rings (size 3 to 8) (size 9 to 14) (size 15 to 20)
#    0.000    1.429    2.857    4.286    4.000    0.571 
#    2.571    1.429    0.000    0.000    0.000    0.000 
#    0.000    0.000    0.000    0.000    0.000    0.000 
#
# Total GULP energy -155948.187371 kJ/mol
# GULP energy per Si atom -5569.578120 kJ/mol
# Density = 2.349607 g / cm^3
# Si number density = 23.549674 Si / 1000 Ang^3
#
#
#
# Elastic Constant Matrix: (Units=GPa)
#
#
# Indices 1 2 3 4 5 6 
#
# 1 85.2851 16.9405 40.5553 0.0000 8.5280 0.0000
# 2 16.9405 87.8277 33.0816 0.0000 6.0333 0.0000
# 3 40.5553 33.0816 192.4074 0.0000 13.6722 0.0000
# 4 0.0000 0.0000 0.0000 19.2319 0.0000 3.6399
# 5 8.5280 6.0333 13.6722 0.0000 42.2137 0.0000
# 6 0.0000 0.0000 0.0000 3.6399 0.0000 -1.4268
#
#
#
# Elastic Compliance Matrix: (Units=1/GPa)
#
#
# Indices 1 2 3 4 5 6 
#
# 1 0.013357 -0.001545 -0.002430 0.000000 -0.001691 0.000000
# 2 -0.001545 0.012402 -0.001743 0.000000 -0.000896 0.000000
# 3 -0.002430 -0.001743 0.006097 0.000000 -0.001235 0.000000
# 4 0.000000 0.000000 0.000000 0.035066 0.000000 0.089457
# 5 -0.001691 -0.000896 -0.001235 0.000000 0.024558 0.000000
# 6 0.000000 0.000000 0.000000 0.089457 0.000000 -0.472657
#
#
# Mechanical properties :
#
#
# Convention : Reuss Voigt Hill
#
# Bulk Modulus (GPa) = 48.97079 60.74166 54.85623
# Shear Modulus (GPa) = -13.77658 30.33328 8.27835
#
# Velocity S-wave (km/s) = -2.42130 3.59284 1.87694
# Velocity P-wave (km/s) = 3.60872 6.56204 5.29543
#
# Compressibility (1/GPa) = 0.02042034
#
# Stress axis : x y z
#
# Youngs Moduli (GPa) = 74.86931 80.63208 164.02004
#
# Poissons Ratio (x) = 0.12458 0.39849
# Poissons Ratio (y) = 0.11567 0.28589
# Poissons Ratio (z) = 0.18190 0.14054
#
# Static dielectric constant tensor:
#      x y z
#    x 2.002940 0.000000 -0.006390 
#    y 0.000000 2.002790 0.000000 
#    z -0.006390 0.000000 2.000320 
# 
# From -- ./inp_files/197974.got.cif
#   From: 2010.05.17/outbox.cif.g08.bks.cpg/sg15_99_cif.got.tgz:197974.got - 2010.06.03 18:47:42.
