data_PCOD9277531
_publ_section_title
;
Structure prediction by ZEFSAII (Michael W. Deem and Ramdas Pophale) SiO2 
 PCOD9277531
Probable space group: C 2/C
;
_chemical_formula_sum "Si O2"
_cell_formula_units_Z 48
_cell_length_a 13.534020
_cell_length_b 10.534055
_cell_length_c 13.717847
_cell_angle_alpha 90.000000
_cell_angle_beta 83.441269
_cell_angle_gamma 90.000000
_cell_volume 1942.927874
_symmetry_space_group_name_H-M "C 2/C"
_symmetry_group_IT_number 15
_symmetry_cell_setting 'monoclinic'
loop_
_space_group_symop_operation_xyz
x,y,z
-x,y,1/2-z
-x,-y,-z
x,-y,1/2+z
1/2+x,1/2+y,z
1/2-x,1/2+y,1/2-z
1/2-x,1/2-y,-z
1/2+x,1/2-y,1/2+z
loop_
_atom_site_type_symbol
_atom_site_label
_atom_site_fract_x
_atom_site_fract_y
_atom_site_fract_z
Si Si1 0.889807 0.679438 0.727903
Si Si2 0.939996 0.812011 0.525157
Si Si3 0.185602 0.094395 0.730491
Si Si4 0.640222 0.443541 0.566335
Si Si5 0.780924 0.594996 0.901735
Si Si6 0.085944 0.652052 0.159320
O O1 0.898854 0.769135 0.634343
O O2 0.804916 0.581534 0.698959
O O3 0.837166 0.709152 0.838419
O O4 0.000000 0.644340 0.750000
O O5 0.951456 0.703615 0.441413
O O6 0.047073 0.868181 0.537183
O O7 0.868981 0.916513 0.484227
O O8 0.150474 0.232305 0.698628
O O9 0.131317 0.983613 0.679727
O O10 0.180930 0.083435 0.846966
O O11 0.745704 0.393320 0.515139
O O12 0.849566 0.472176 0.874290
O O13 0.000000 0.630220 0.250000
#
# Coordination Sequence:
#
# PCOD9277531 Si02
#       6
#     8   8   8   8   8   8
#     4  10  22  42  59  92 129 173 211 262 319 379
#     4  10  22  38  68  94 131 165 215 269 322 376
#     4   9  22  39  64  93 127 168 216 264 316 376
#     4  10  20  41  64  99 126 167 214 271 319 380
#     4  10  22  38  62  92 131 170 216 255 323 384
#     4  11  21  40  65  94 129 173 211 266 323 385
#
# _framework density 24.704984
#
# number of rings (size 3 to 8) (size 9 to 14) (size 15 to 20)
#    1.000    1.000    0.000    3.500    0.000    5.333 
#    3.000    5.000    0.000    0.000    0.000    0.000 
#    0.000    0.000    0.000    0.000    0.000    0.000 
#
# Total GULP energy -133811.088292 kJ/mol
# GULP energy per Si atom -5575.462012 kJ/mol
# Density = 2.464875 g / cm^3
# Si number density = 24.704984 Si / 1000 Ang^3
#
#
#
# Elastic Constant Matrix: (Units=GPa)
#
#
# Indices 1 2 3 4 5 6 
#
# 1 66.7601 1.4527 21.7381 0.0000 -2.2218 0.0000
# 2 1.4527 68.9798 18.1959 0.0000 0.3330 0.0000
# 3 21.7381 18.1959 117.0203 0.0000 -26.3632 0.0000
# 4 0.0000 0.0000 0.0000 36.0270 0.0000 -1.4519
# 5 -2.2218 0.3330 -26.3632 0.0000 46.0725 0.0000
# 6 0.0000 0.0000 0.0000 -1.4519 0.0000 26.4061
#
#
#
# Elastic Compliance Matrix: (Units=1/GPa)
#
#
# Indices 1 2 3 4 5 6 
#
# 1 0.016008 0.000542 -0.003312 0.000000 -0.001127 0.000000
# 2 0.000542 0.015248 -0.002859 0.000000 -0.001720 0.000000
# 3 -0.003312 -0.002859 0.010991 0.000000 0.006150 0.000000
# 4 0.000000 0.000000 0.000000 0.027819 0.000000 0.001530
# 5 -0.001127 -0.001720 0.006150 0.000000 0.025182 0.000000
# 6 0.000000 0.000000 0.000000 0.001530 0.000000 0.037954
#
#
# Mechanical properties :
#
#
# Convention : Reuss Voigt Hill
#
# Bulk Modulus (GPa) = 32.26970 37.28150 34.77560
# Shear Modulus (GPa) = 32.30185 35.79267 34.04726
#
# Velocity S-wave (km/s) = 3.61986 3.81044 3.71638
# Velocity P-wave (km/s) = 5.52825 5.87220 5.70282
#
# Compressibility (1/GPa) = 0.03098883
#
# Stress axis : x y z
#
# Youngs Moduli (GPa) = 62.46832 65.58191 90.98459
#
# Poissons Ratio (x) = -0.03554 0.30133
# Poissons Ratio (y) = -0.03385 0.26014
# Poissons Ratio (z) = 0.20689 0.18751
#
# Static dielectric constant tensor:
#      x y z
#    x 1.935750 0.000000 0.007720 
#    y 0.000000 2.071320 0.000000 
#    z 0.007720 0.000000 1.991840 
# 
# From -- ./inp_files/151952.got.cif
#   From: 2010.05.17/outbox.cif.g08.bks.cpg/sg15_76_cif.got.tgz:151952.got - 2010.06.03 18:47:42.
