data_PCOD9277126
_publ_section_title
;
Structure prediction by ZEFSAII (Michael W. Deem and Ramdas Pophale) SiO2 
 PCOD9277126
Probable space group: C 2/C
;
_chemical_formula_sum "Si O2"
_cell_formula_units_Z 56
_cell_length_a 8.848713
_cell_length_b 17.968409
_cell_length_c 20.695802
_cell_angle_alpha 90.000000
_cell_angle_beta 121.262445
_cell_angle_gamma 90.000000
_cell_volume 2812.782079
_symmetry_space_group_name_H-M "C 2/C"
_symmetry_group_IT_number 15
_symmetry_cell_setting 'monoclinic'
loop_
_space_group_symop_operation_xyz
x,y,z
-x,y,1/2-z
-x,-y,-z
x,-y,1/2+z
1/2+x,1/2+y,z
1/2-x,1/2+y,1/2-z
1/2-x,1/2-y,-z
1/2+x,1/2-y,1/2+z
loop_
_atom_site_type_symbol
_atom_site_label
_atom_site_fract_x
_atom_site_fract_y
_atom_site_fract_z
Si Si1 0.920725 0.858124 0.552938
Si Si2 0.000000 0.384320 0.750000
Si Si3 0.187336 0.764638 0.680645
Si Si4 0.822354 0.126599 0.888601
Si Si5 0.103730 0.868756 0.339513
Si Si6 0.000000 0.687103 0.750000
Si Si7 0.709221 0.998306 0.041174
Si Si8 0.748041 0.039884 0.401232
O O1 0.850779 0.839556 0.466025
O O2 0.995856 0.790431 0.611075
O O3 0.104631 0.899872 0.580495
O O4 0.794504 0.918627 0.559790
O O5 0.833395 0.329286 0.724056
O O6 0.931331 0.436103 0.675600
O O7 0.273080 0.701497 0.653164
O O8 0.139377 0.732904 0.739586
O O9 0.621051 0.139853 0.823967
O O10 0.965344 0.150738 0.866441
O O11 0.830477 0.037415 0.895342
O O12 0.209040 0.940887 0.388931
O O13 0.000000 0.886715 0.250000
O O14 0.737198 0.966828 0.975384
O O15 0.500000 0.000000 0.000000
#
# Coordination Sequence:
#
# PCOD9277126 Si02
#       8
#     8   4   8   8   8   4   8   8
#     4  10  22  44  65  89 131 170 214 268 333 393
#     4  10  21  42  66  91 130 166 214 270 322 407
#     4  11  25  42  61  97 133 176 215 264 332 404
#     4  11  21  41  67  91 124 168 218 271 325 389
#     4  12  23  43  65  95 132 171 220 269 331 402
#     4  12  25  40  62  91 130 166 218 268 318 401
#     4  11  24  42  64  98 130 166 220 282 327 392
#     4  10  20  40  68  93 122 168 214 260 337 384
#
# _framework density 19.909113999999999
#
# number of rings (size 3 to 8) (size 9 to 14) (size 15 to 20)
#    0.000    1.143    5.000    1.286    4.000    3.429 
#    3.857    0.000    0.000    0.000    0.000    0.000 
#    0.000    0.000    0.000    0.000    0.000    0.000 
#
# Total GULP energy -156137.444632 kJ/mol
# GULP energy per Si atom -5576.337308 kJ/mol
# Density = 1.986380 g / cm^3
# Si number density = 19.909114 Si / 1000 Ang^3
#
#
#
# Elastic Constant Matrix: (Units=GPa)
#
#
# Indices 1 2 3 4 5 6 
#
# 1 64.5194 20.3646 4.6454 0.0000 14.7013 0.0000
# 2 20.3646 44.4012 33.2419 0.0000 -1.7407 0.0000
# 3 4.6454 33.2419 126.9527 0.0000 27.6221 0.0000
# 4 0.0000 0.0000 0.0000 25.4133 0.0000 5.4968
# 5 14.7013 -1.7407 27.6221 0.0000 32.6722 0.0000
# 6 0.0000 0.0000 0.0000 5.4968 0.0000 8.3480
#
#
#
# Elastic Compliance Matrix: (Units=1/GPa)
#
#
# Indices 1 2 3 4 5 6 
#
# 1 0.024969 -0.018153 0.007958 0.000000 -0.018931 0.000000
# 2 -0.018153 0.043799 -0.016040 0.000000 0.024062 0.000000
# 3 0.007958 -0.016040 0.015625 0.000000 -0.017645 0.000000
# 4 0.000000 0.000000 0.000000 0.045885 0.000000 -0.030213
# 5 -0.018931 0.024062 -0.017645 0.000000 0.055325 0.000000
# 6 0.000000 0.000000 0.000000 -0.030213 0.000000 0.139683
#
#
# Mechanical properties :
#
#
# Convention : Reuss Voigt Hill
#
# Bulk Modulus (GPa) = 31.32269 39.15304 35.23786
# Shear Modulus (GPa) = 12.87344 25.12811 19.00077
#
# Velocity S-wave (km/s) = 2.54561 3.55652 3.09265
# Velocity P-wave (km/s) = 4.94036 6.04762 5.52181
#
# Compressibility (1/GPa) = 0.03192573
#
# Stress axis : x y z
#
# Youngs Moduli (GPa) = 40.04909 22.83134 64.00035
#
# Poissons Ratio (x) = 0.41445 -0.50934
# Poissons Ratio (y) = 0.72699 1.02655
# Poissons Ratio (z) = -0.31873 0.36621
#
# Static dielectric constant tensor:
#      x y z
#    x 1.699100 0.000000 -0.001560 
#    y 0.000000 1.746890 0.000000 
#    z -0.001560 0.000000 1.757750 
# 
# From -- ./inp_files/232809.got.cif
#   From: 2010.05.17/outbox.cif.g08.bks.cpg/sg15_117_cif.got.tgz:232809.got - 2010.06.03 18:47:42.
