data_PCOD9277218
_publ_section_title
;
Structure prediction by ZEFSAII (Michael W. Deem and Ramdas Pophale) SiO2 
 PCOD9277218
Probable space group: C 2/C
;
_chemical_formula_sum "Si O2"
_cell_formula_units_Z 56
_cell_length_a 16.785730
_cell_length_b 14.303209
_cell_length_c 19.360539
_cell_angle_alpha 90.000000
_cell_angle_beta 147.775939
_cell_angle_gamma 90.000000
_cell_volume 2478.603313
_symmetry_space_group_name_H-M "C 2/C"
_symmetry_group_IT_number 15
_symmetry_cell_setting 'monoclinic'
loop_
_space_group_symop_operation_xyz
x,y,z
-x,y,1/2-z
-x,-y,-z
x,-y,1/2+z
1/2+x,1/2+y,z
1/2-x,1/2+y,1/2-z
1/2-x,1/2-y,-z
1/2+x,1/2-y,1/2+z
loop_
_atom_site_type_symbol
_atom_site_label
_atom_site_fract_x
_atom_site_fract_y
_atom_site_fract_z
Si Si1 0.323623 0.663653 0.965151
Si Si2 0.652795 0.852991 0.751946
Si Si3 0.637109 0.555077 0.801046
Si Si4 0.409047 0.459155 0.868345
Si Si5 0.666323 0.774690 0.011197
Si Si6 0.289041 0.870542 0.960885
Si Si7 0.567672 0.050689 0.726971
O O1 0.490726 0.627101 0.084774
O O2 0.270008 0.647301 0.004594
O O3 0.296497 0.771619 0.928956
O O4 0.226949 0.599804 0.842763
O O5 0.748423 0.912318 0.766161
O O6 0.513384 0.786463 0.628559
O O7 0.771892 0.799445 0.887521
O O8 0.578557 0.939719 0.737729
O O9 0.500000 0.582983 0.750000
O O10 0.596085 0.542917 0.691140
O O11 0.769556 0.626066 0.915203
O O12 0.684992 0.450073 0.854822
O O13 0.500000 0.500000 0.000000
O O14 0.750000 0.750000 0.000000
O O15 0.455189 0.913081 0.087079
O O16 0.500000 0.083631 0.750000
#
# Coordination Sequence:
#
# PCOD9277218 Si02
#       7
#     8   8   8   8   8   8   8
#     4  10  22  41  70 105 144 190 242 302 374 460
#     4  12  27  48  72 111 154 203 254 322 403 458
#     4  12  26  47  78 108 148 196 259 326 389 466
#     4  12  28  47  73 108 159 204 247 317 404 471
#     4  12  28  50  82 114 148 205 275 330 388 470
#     4  10  22  41  72 105 138 185 251 310 362 445
#     4  10  20  40  70 101 140 186 241 307 372 451
#
# _framework density 22.593368999999999
#
# number of rings (size 3 to 8) (size 9 to 14) (size 15 to 20)
#    0.000    0.857    4.286    2.143    8.000    2.286 
#    2.571    0.000    0.000    0.000    0.000    0.000 
#    0.000    0.000    0.000    0.000    0.000    0.000 
#
# Total GULP energy -156442.468911 kJ/mol
# GULP energy per Si atom -5587.231033 kJ/mol
# Density = 2.254195 g / cm^3
# Si number density = 22.593369 Si / 1000 Ang^3
#
#
#
# Elastic Constant Matrix: (Units=GPa)
#
#
# Indices 1 2 3 4 5 6 
#
# 1 72.2031 1.0560 30.9453 0.0000 10.8084 0.0002
# 2 1.0560 99.3252 23.7974 0.0001 -14.7704 0.0009
# 3 30.9453 23.7974 113.7706 -0.0006 2.7808 0.0005
# 4 0.0000 0.0001 -0.0006 52.6827 -0.0002 7.4824
# 5 10.8084 -14.7704 2.7808 -0.0002 33.3027 0.0005
# 6 0.0002 0.0009 0.0005 7.4824 0.0005 -2.8826
#
#
#
# Elastic Compliance Matrix: (Units=1/GPa)
#
#
# Indices 1 2 3 4 5 6 
#
# 1 0.016464 0.000146 -0.004389 0.000000 -0.004912 0.000000
# 2 0.000146 0.011462 -0.002565 0.000000 0.005250 0.000003
# 3 -0.004389 -0.002565 0.010534 0.000000 -0.000593 0.000001
# 4 0.000000 0.000000 0.000000 0.013869 -0.000001 0.035999
# 5 -0.004912 0.005250 -0.000593 -0.000001 0.034000 0.000005
# 6 0.000000 0.000003 0.000001 0.035999 0.000005 -0.253468
#
#
# Mechanical properties :
#
#
# Convention : Reuss Voigt Hill
#
# Bulk Modulus (GPa) = 40.25140 44.09961 42.17550
# Shear Modulus (GPa) = -34.42540 31.92057 -1.25241
#
# Velocity S-wave (km/s) = -3.90769 3.76284 -0.74534
# Velocity P-wave (km/s) = 1.58296 6.19999 4.23875
#
# Compressibility (1/GPa) = 0.02484386
#
# Stress axis : x y z
#
# Youngs Moduli (GPa) = 60.73884 87.24615 94.92685
#
# Poissons Ratio (x) = -0.01273 0.41660
# Poissons Ratio (y) = -0.00886 0.24353
# Poissons Ratio (z) = 0.26656 0.22383
#
# Static dielectric constant tensor:
#      x y z
#    x 1.904690 0.000000 0.022400 
#    y 0.000000 1.804150 0.000000 
#    z 0.022400 0.000000 1.882220 
# 
# From -- ./inp_files/249289.got.cif
#   From: 2010.05.17/outbox.cif.g08.bks.cpg/sg15_125_cif.got.tgz:249289.got - 2010.06.03 18:47:42.
