data_PCOD9277025
_publ_section_title
;
Structure prediction by ZEFSAII (Michael W. Deem and Ramdas Pophale) SiO2 
 PCOD9277025
Probable space group: C 2/C
;
_chemical_formula_sum "Si O2"
_cell_formula_units_Z 60
_cell_length_a 11.833074
_cell_length_b 25.927184
_cell_length_c 8.737236
_cell_angle_alpha 90.000000
_cell_angle_beta 76.375721
_cell_angle_gamma 90.000000
_cell_volume 2605.141234
_symmetry_space_group_name_H-M "C 2/C"
_symmetry_group_IT_number 15
_symmetry_cell_setting 'monoclinic'
loop_
_space_group_symop_operation_xyz
x,y,z
-x,y,1/2-z
-x,-y,-z
x,-y,1/2+z
1/2+x,1/2+y,z
1/2-x,1/2+y,1/2-z
1/2-x,1/2-y,-z
1/2+x,1/2-y,1/2+z
loop_
_atom_site_type_symbol
_atom_site_label
_atom_site_fract_x
_atom_site_fract_y
_atom_site_fract_z
Si Si1 0.936650 0.415969 0.918609
Si Si2 0.500000 0.731914 0.250000
Si Si3 0.721846 0.996991 0.165726
Si Si4 0.393079 0.107654 0.874420
Si Si5 0.256706 0.837207 0.942313
Si Si6 0.923604 0.241052 0.927887
Si Si7 0.381512 0.465964 0.868713
Si Si8 0.810174 0.146449 0.375430
O O1 0.876030 0.467989 0.881313
O O2 0.832375 0.379002 0.007372
O O3 0.000000 0.391422 0.750000
O O4 0.037407 0.420083 0.009728
O O5 0.532882 0.754375 0.410587
O O6 0.390417 0.696247 0.335067
O O7 0.765374 0.022373 0.307175
O O8 0.671484 0.939212 0.191617
O O9 0.843353 0.994567 0.033822
O O10 0.500000 0.133001 0.750000
O O11 0.297411 0.146476 0.972374
O O12 0.332709 0.785700 0.914976
O O13 0.238983 0.860415 0.779830
O O14 0.134441 0.815840 0.040741
O O15 0.000000 0.239683 0.750000
O O16 0.500000 0.482247 0.750000
O O17 0.384078 0.404406 0.893114
#
# Coordination Sequence:
#
# PCOD9277025 Si02
#       8
#     8   4   8   8   8   8   8   8
#     4  12  20  37  63  84 120 179 208 258 322 388
#     4  10  22  44  74  96 132 174 218 276 336 408
#     4  11  22  37  56  89 127 164 222 264 315 375
#     4  11  23  36  55  95 133 165 211 275 315 377
#     4  10  21  42  67  95 127 165 224 263 329 414
#     4  10  23  43  70 102 133 168 214 280 343 399
#     4  11  21  38  61  87 124 173 218 268 321 379
#     4  10  20  40  67  92 124 175 216 265 330 402
#
# _framework density 23.031379999999999
#
# number of rings (size 3 to 8) (size 9 to 14) (size 15 to 20)
#    0.000    1.333    3.333    3.200    0.000    1.067 
#    1.200    6.667    0.000    0.000    0.000    0.000 
#    0.000    0.000    0.000    0.000    0.000    0.000 
#
# Total GULP energy -167370.613278 kJ/mol
# GULP energy per Si atom -5579.020443 kJ/mol
# Density = 2.297896 g / cm^3
# Si number density = 23.031380 Si / 1000 Ang^3
#
#
#
# Elastic Constant Matrix: (Units=GPa)
#
#
# Indices 1 2 3 4 5 6 
#
# 1 72.8649 -0.6005 25.8067 0.0000 -12.5706 0.0000
# 2 -0.6005 36.5110 9.6933 0.0000 -0.2529 0.0000
# 3 25.8067 9.6933 94.3125 0.0000 -26.8557 0.0000
# 4 0.0000 0.0000 0.0000 -4.9205 0.0000 -4.0220
# 5 -12.5706 -0.2529 -26.8557 0.0000 38.7142 0.0000
# 6 0.0000 0.0000 0.0000 -4.0220 0.0000 17.7589
#
#
#
# Elastic Compliance Matrix: (Units=1/GPa)
#
#
# Indices 1 2 3 4 5 6 
#
# 1 0.015456 0.001239 -0.003645 0.000000 0.002498 0.000000
# 2 0.001239 0.028418 -0.003854 0.000000 -0.002085 0.000000
# 3 -0.003645 -0.003854 0.014521 0.000000 0.008864 0.000000
# 4 0.000000 0.000000 0.000000 -0.171484 0.000000 -0.038837
# 5 0.002498 -0.002085 0.008864 0.000000 0.032777 0.000000
# 6 0.000000 0.000000 0.000000 -0.038837 0.000000 0.047514
#
#
# Mechanical properties :
#
#
# Convention : Reuss Voigt Hill
#
# Bulk Modulus (GPa) = 21.79807 30.38751 26.09279
# Shear Modulus (GPa) = -1002.55316 21.56311 -490.49503
#
# Velocity S-wave (km/s) = -20.88645 3.06314 -14.60926
# Velocity P-wave (km/s) = 23.92014 5.07277 16.52937
#
# Compressibility (1/GPa) = 0.04587562
#
# Stress axis : x y z
#
# Youngs Moduli (GPa) = 64.69855 35.18894 68.86742
#
# Poissons Ratio (x) = -0.04361 0.25105
# Poissons Ratio (y) = -0.08018 0.26539
# Poissons Ratio (z) = 0.23585 0.13561
#
# Static dielectric constant tensor:
#      x y z
#    x 1.885230 0.000000 -0.007870 
#    y 0.000000 1.846550 0.000000 
#    z -0.007870 0.000000 1.936810 
# 
# From -- ./inp_files/35633.got.cif
#   From: 2010.05.17/outbox.cif.g08.bks.cpg/sg15_18_cif.got.tgz:35633.got - 2010.06.03 18:47:42.
