data_PCOD9277586
_publ_section_title
;
Structure prediction by ZEFSAII (Michael W. Deem and Ramdas Pophale) SiO2 
 PCOD9277586
Probable space group: C 2/C
;
_chemical_formula_sum "Si O2"
_cell_formula_units_Z 48
_cell_length_a 9.865691
_cell_length_b 18.805580
_cell_length_c 17.767178
_cell_angle_alpha 90.000000
_cell_angle_beta 134.896157
_cell_angle_gamma 90.000000
_cell_volume 2335.088733
_symmetry_space_group_name_H-M "C 2/C"
_symmetry_group_IT_number 15
_symmetry_cell_setting 'monoclinic'
loop_
_space_group_symop_operation_xyz
x,y,z
-x,y,1/2-z
-x,-y,-z
x,-y,1/2+z
1/2+x,1/2+y,z
1/2-x,1/2+y,1/2-z
1/2-x,1/2-y,-z
1/2+x,1/2-y,1/2+z
loop_
_atom_site_type_symbol
_atom_site_label
_atom_site_fract_x
_atom_site_fract_y
_atom_site_fract_z
Si Si1 0.102447 0.916807 0.446150
Si Si2 0.098688 0.636100 0.900198
Si Si3 0.329563 0.344596 0.742806
Si Si4 0.996468 0.416566 0.975650
Si Si5 0.763335 0.188287 0.822848
Si Si6 0.487726 0.438583 0.565583
O O1 0.298382 0.902294 0.481203
O O2 0.110928 0.938847 0.537708
O O3 0.963934 0.849753 0.390502
O O4 0.004722 0.990614 0.380228
O O5 0.205186 0.695122 0.888961
O O6 0.893998 0.636495 0.778027
O O7 0.048298 0.632766 0.968761
O O8 0.263196 0.575750 0.959060
O O9 0.500000 0.341446 0.750000
O O10 0.167585 0.397600 0.648492
O O11 0.247166 0.265440 0.717557
O O12 0.428928 0.373023 0.856096
O O13 0.000000 0.500000 0.000000
#
# Coordination Sequence:
#
# PCOD9277586 Si02
#       6
#     8   8   8   8   8   8
#     4  10  23  44  62 100 132 175 216 273 339 391
#     4  10  20  41  65  97 126 172 220 264 327 385
#     4  12  23  42  68 100 127 170 230 273 323 397
#     4  12  25  41  65  99 134 173 221 276 334 384
#     4  10  24  41  69  96 128 177 223 267 330 398
#     4  10  22  41  70  92 134 172 223 277 322 395
#
# _framework density 20.555965
#
# number of rings (size 3 to 8) (size 9 to 14) (size 15 to 20)
#    0.000    1.333    5.000    0.000    2.333    6.000 
#    0.000    1.667    0.000    0.000    0.000    0.000 
#    0.000    0.000    0.000    0.000    0.000    0.000 
#
# Total GULP energy -133637.177268 kJ/mol
# GULP energy per Si atom -5568.215719 kJ/mol
# Density = 2.050918 g / cm^3
# Si number density = 20.555965 Si / 1000 Ang^3
#
#
#
# Elastic Constant Matrix: (Units=GPa)
#
#
# Indices 1 2 3 4 5 6 
#
# 1 136.6535 30.7682 32.9681 0.0000 23.9378 0.0000
# 2 30.7682 101.6207 37.0705 0.0000 22.1741 0.0000
# 3 32.9681 37.0705 69.8221 0.0000 15.6662 0.0000
# 4 0.0000 0.0000 0.0000 30.7592 0.0000 6.3914
# 5 23.9378 22.1741 15.6662 0.0000 30.6261 0.0000
# 6 0.0000 0.0000 0.0000 6.3914 0.0000 8.3502
#
#
#
# Elastic Compliance Matrix: (Units=1/GPa)
#
#
# Indices 1 2 3 4 5 6 
#
# 1 0.009035 -0.000581 -0.002787 0.000000 -0.005215 0.000000
# 2 -0.000581 0.013396 -0.005381 0.000000 -0.006493 0.000000
# 3 -0.002787 -0.005381 0.019354 0.000000 -0.003825 0.000000
# 4 0.000000 0.000000 0.000000 0.038659 0.000000 -0.029590
# 5 -0.005215 -0.006493 -0.003825 0.000000 0.043386 0.000000
# 6 0.000000 0.000000 0.000000 -0.029590 0.000000 0.142406
#
#
# Mechanical properties :
#
#
# Convention : Reuss Voigt Hill
#
# Bulk Modulus (GPa) = 41.17717 56.63443 48.90580
# Shear Modulus (GPa) = 17.13329 27.76642 22.44985
#
# Velocity S-wave (km/s) = 2.89016 3.67927 3.30833
# Velocity P-wave (km/s) = 5.58682 6.75726 6.19972
#
# Compressibility (1/GPa) = 0.02428530
#
# Stress axis : x y z
#
# Youngs Moduli (GPa) = 110.68608 74.64839 51.66984
#
# Poissons Ratio (x) = 0.04334 0.14403
# Poissons Ratio (y) = 0.06426 0.27806
# Poissons Ratio (z) = 0.30853 0.40172
#
# Static dielectric constant tensor:
#      x y z
#    x 1.741370 0.000000 -0.051910 
#    y 0.000000 1.851000 0.000000 
#    z -0.051910 0.000000 1.773680 
# 
# From -- ./inp_files/192309.got.cif
#   From: 2010.05.17/outbox.cif.g08.bks.cpg/sg15_97_cif.got.tgz:192309.got - 2010.06.03 18:47:42.
