data_PCOD9277173
_publ_section_title
;
Structure prediction by ZEFSAII (Michael W. Deem and Ramdas Pophale) SiO2 
 PCOD9277173
Probable space group: C 2/C
;
_chemical_formula_sum "Si O2"
_cell_formula_units_Z 48
_cell_length_a 8.055125
_cell_length_b 28.871120
_cell_length_c 16.392659
_cell_angle_alpha 90.000000
_cell_angle_beta 35.528850
_cell_angle_gamma 90.000000
_cell_volume 2215.367454
_symmetry_space_group_name_H-M "C 2/C"
_symmetry_group_IT_number 15
_symmetry_cell_setting 'monoclinic'
loop_
_space_group_symop_operation_xyz
x,y,z
-x,y,1/2-z
-x,-y,-z
x,-y,1/2+z
1/2+x,1/2+y,z
1/2-x,1/2+y,1/2-z
1/2-x,1/2-y,-z
1/2+x,1/2-y,1/2+z
loop_
_atom_site_type_symbol
_atom_site_label
_atom_site_fract_x
_atom_site_fract_y
_atom_site_fract_z
Si Si1 0.953030 0.754747 0.170675
Si Si2 0.085549 0.346835 0.812411
Si Si3 0.181219 0.996279 0.097516
Si Si4 0.276426 0.148520 0.699324
Si Si5 0.133277 0.101574 0.062774
Si Si6 0.547944 0.593180 0.552151
O O1 0.824754 0.705064 0.200183
O O2 0.763712 0.801525 0.238535
O O3 0.000000 0.753616 0.250000
O O4 0.250000 0.750000 0.000000
O O5 0.361148 0.377133 0.716031
O O6 0.000000 0.346433 0.750000
O O7 0.808928 0.370622 0.963383
O O8 0.140766 0.957862 0.043381
O O9 0.000000 0.983069 0.250000
O O10 0.500000 0.000000 0.000000
O O11 0.129996 0.048243 0.089103
O O12 0.582776 0.133639 0.539561
O O13 0.000000 0.146926 0.750000
O O14 0.215911 0.108179 0.787387
O O15 0.050996 0.099940 0.000215
#
# Coordination Sequence:
#
# PCOD9277173 Si02
#       6
#     8   8   8   8   8   8
#     4  10  20  40  68  98 133 179 222 272 341 407
#     4   9  20  38  64  91 129 166 216 272 329 387
#     4  12  25  42  64  92 133 172 215 276 338 402
#     4  11  23  39  65  94 134 172 221 272 337 393
#     4  11  24  41  64  97 126 172 227 274 328 407
#     4  11  21  41  67  92 126 175 218 274 329 402
#
# _framework density 21.666834000000001
#
# number of rings (size 3 to 8) (size 9 to 14) (size 15 to 20)
#    0.000    1.333    1.667    4.500    0.000    0.667 
#    0.000    5.000    0.000    0.000    0.000    0.000 
#    0.000    0.000    0.000    0.000    0.000    0.000 
#
# Total GULP energy -133805.662597 kJ/mol
# GULP energy per Si atom -5575.235942 kJ/mol
# Density = 2.161752 g / cm^3
# Si number density = 21.666834 Si / 1000 Ang^3
#
#
#
# Elastic Constant Matrix: (Units=GPa)
#
#
# Indices 1 2 3 4 5 6 
#
# 1 74.3763 14.2567 7.3023 0.0000 -6.8621 0.0000
# 2 14.2567 138.6300 -22.6111 0.0000 -12.0879 0.0000
# 3 7.3023 -22.6111 57.6188 0.0000 1.1683 0.0000
# 4 0.0000 0.0000 0.0000 38.2520 0.0000 -13.9244
# 5 -6.8621 -12.0879 1.1683 0.0000 24.3909 0.0000
# 6 0.0000 0.0000 0.0000 -13.9244 0.0000 64.4675
#
#
#
# Elastic Compliance Matrix: (Units=1/GPa)
#
#
# Indices 1 2 3 4 5 6 
#
# 1 0.014305 -0.001587 -0.002504 0.000000 0.003358 0.000000
# 2 -0.001587 0.008227 0.003359 0.000000 0.003470 0.000000
# 3 -0.002504 0.003359 0.018990 0.000000 0.000051 0.000000
# 4 0.000000 0.000000 0.000000 0.028373 0.000000 0.006128
# 5 0.003358 0.003470 0.000051 0.000000 0.043661 0.000000
# 6 0.000000 0.000000 0.000000 0.006128 0.000000 0.016835
#
#
# Mechanical properties :
#
#
# Convention : Reuss Voigt Hill
#
# Bulk Modulus (GPa) = 24.96268 29.83565 27.39916
# Shear Modulus (GPa) = 34.43360 43.53388 38.98374
#
# Velocity S-wave (km/s) = 3.99084 4.48732 4.24634
# Velocity P-wave (km/s) = 5.72555 6.37559 6.05929
#
# Compressibility (1/GPa) = 0.04005981
#
# Stress axis : x y z
#
# Youngs Moduli (GPa) = 69.90605 121.54968 52.65939
#
# Poissons Ratio (x) = 0.19286 0.13184
# Poissons Ratio (y) = 0.11092 -0.17690
# Poissons Ratio (z) = 0.17502 -0.40832
#
# Static dielectric constant tensor:
#      x y z
#    x 1.776230 0.000000 0.027590 
#    y 0.000000 1.717670 0.000000 
#    z 0.027590 0.000000 1.783260 
# 
# From -- ./inp_files/139007.got.cif
#   From: 2010.05.17/outbox.cif.g08.bks.cpg/sg15_70_cif.got.tgz:139007.got - 2010.06.03 18:47:42.
