data_PCOD9277017
_publ_section_title
;
Structure prediction by ZEFSAII (Michael W. Deem and Ramdas Pophale) SiO2 
 PCOD9277017
Probable space group: C 2/C
;
_chemical_formula_sum "Si O2"
_cell_formula_units_Z 32
_cell_length_a 18.373965
_cell_length_b 7.111994
_cell_length_c 13.047956
_cell_angle_alpha 90.000000
_cell_angle_beta 135.217900
_cell_angle_gamma 90.000000
_cell_volume 1201.057505
_symmetry_space_group_name_H-M "C 2/C"
_symmetry_group_IT_number 15
_symmetry_cell_setting 'monoclinic'
loop_
_space_group_symop_operation_xyz
x,y,z
-x,y,1/2-z
-x,-y,-z
x,-y,1/2+z
1/2+x,1/2+y,z
1/2-x,1/2+y,1/2-z
1/2-x,1/2-y,-z
1/2+x,1/2-y,1/2+z
loop_
_atom_site_type_symbol
_atom_site_label
_atom_site_fract_x
_atom_site_fract_y
_atom_site_fract_z
Si Si1 0.218599 0.914606 0.390783
Si Si2 0.494561 0.386293 0.364630
Si Si3 0.887969 0.409068 0.403120
Si Si4 0.087091 0.257510 0.272175
O O1 0.250000 0.750000 0.500000
O O2 0.123954 0.835904 0.226136
O O3 0.307819 0.988401 0.404736
O O4 0.166481 0.098280 0.392343
O O5 0.500000 0.330019 0.250000
O O6 0.584297 0.290929 0.516162
O O7 0.492669 0.611883 0.364821
O O8 0.853175 0.377776 0.251851
O O9 0.000000 0.500000 0.500000
O O10 0.000000 0.367882 0.250000
#
# Coordination Sequence:
#
# PCOD9277017 Si02
#       4
#     8   8   8   8
#     4  10  20  40  67  91 119 167 210 256 313 372
#     4   9  19  38  66  86 124 168 205 250 314 377
#     4  12  24  37  61  97 128 160 208 264 311 375
#     4   9  21  42  62  86 125 168 207 253 309 373
#
# _framework density 26.643187000000001
#
# number of rings (size 3 to 8) (size 9 to 14) (size 15 to 20)
#    1.500    0.500    2.500    0.750    3.500    1.000 
#    0.000    1.250    0.000    0.000    0.000    0.000 
#    0.000    0.000    0.000    0.000    0.000    0.000 
#
# Total GULP energy -89087.892871 kJ/mol
# GULP energy per Si atom -5567.993304 kJ/mol
# Density = 2.658255 g / cm^3
# Si number density = 26.643187 Si / 1000 Ang^3
#
#
#
# Elastic Constant Matrix: (Units=GPa)
#
#
# Indices 1 2 3 4 5 6 
#
# 1 230.3767 15.5029 19.0935 0.0000 9.2690 0.0000
# 2 15.5029 55.7451 6.6016 0.0000 -1.0960 0.0000
# 3 19.0935 6.6016 55.4566 0.0000 2.8951 0.0000
# 4 0.0000 0.0000 0.0000 44.5516 0.0000 9.9727
# 5 9.2690 -1.0960 2.8951 0.0000 32.7064 0.0000
# 6 0.0000 0.0000 0.0000 9.9727 0.0000 4.2566
#
#
#
# Elastic Compliance Matrix: (Units=1/GPa)
#
#
# Indices 1 2 3 4 5 6 
#
# 1 0.004580 -0.001134 -0.001379 0.000000 -0.001214 0.000000
# 2 -0.001134 0.018497 -0.001869 0.000000 0.001107 0.000000
# 3 -0.001379 -0.001869 0.018799 0.000000 -0.001336 0.000000
# 4 0.000000 0.000000 0.000000 0.047200 0.000000 -0.110586
# 5 -0.001214 0.001107 -0.001336 0.000000 0.031074 0.000000
# 6 0.000000 0.000000 0.000000 -0.110586 0.000000 0.494024
#
#
# Mechanical properties :
#
#
# Convention : Reuss Voigt Hill
#
# Bulk Modulus (GPa) = 30.20016 47.10826 38.65421
# Shear Modulus (GPa) = 7.88673 36.32827 22.10750
#
# Velocity S-wave (km/s) = 1.72237 3.69658 2.88368
# Velocity P-wave (km/s) = 3.91345 5.99493 5.06232
#
# Compressibility (1/GPa) = 0.03311241
#
# Stress axis : x y z
#
# Youngs Moduli (GPa) = 218.33356 54.06170 53.19437
#
# Poissons Ratio (x) = 0.06133 0.07333
# Poissons Ratio (y) = 0.24767 0.09943
# Poissons Ratio (z) = 0.30098 0.10105
#
# Static dielectric constant tensor:
#      x y z
#    x 2.245550 0.000000 -0.085430 
#    y 0.000000 2.138620 0.000000 
#    z -0.085430 0.000000 2.220070 
# 
# From -- ./inp_files/158389.got.cif
#   From: 2010.05.17/outbox.cif.g08.bks.cpg/sg15_80_cif.got.tgz:158389.got - 2010.06.03 18:47:42.
