data_PCOD9277424
_publ_section_title
;
Structure prediction by ZEFSAII (Michael W. Deem and Ramdas Pophale) SiO2 
 PCOD9277424
Probable space group: C 2/C
;
_chemical_formula_sum "Si O2"
_cell_formula_units_Z 56
_cell_length_a 13.572013
_cell_length_b 22.066933
_cell_length_c 16.465999
_cell_angle_alpha 90.000000
_cell_angle_beta 33.690966
_cell_angle_gamma 90.000000
_cell_volume 2735.538698
_symmetry_space_group_name_H-M "C 2/C"
_symmetry_group_IT_number 15
_symmetry_cell_setting 'monoclinic'
loop_
_space_group_symop_operation_xyz
x,y,z
-x,y,1/2-z
-x,-y,-z
x,-y,1/2+z
1/2+x,1/2+y,z
1/2-x,1/2+y,1/2-z
1/2-x,1/2-y,-z
1/2+x,1/2-y,1/2+z
loop_
_atom_site_type_symbol
_atom_site_label
_atom_site_fract_x
_atom_site_fract_y
_atom_site_fract_z
Si Si1 0.216143 0.815536 0.304120
Si Si2 0.438356 0.585219 0.967804
Si Si3 0.666945 0.182902 0.075234
Si Si4 0.504597 0.201223 0.467891
Si Si5 0.690314 0.643404 0.151457
Si Si6 0.685791 0.873633 0.103931
Si Si7 0.040275 0.952501 0.865591
O O1 0.286511 0.821159 0.348268
O O2 0.125085 0.879398 0.346619
O O3 0.051829 0.769550 0.411605
O O4 0.368801 0.799713 0.135893
O O5 0.489037 0.522162 0.890276
O O6 0.298391 0.630863 0.020699
O O7 0.380813 0.564236 0.099115
O O8 0.500000 0.190710 0.250000
O O9 0.585338 0.165232 0.043778
O O10 0.750000 0.250000 0.000000
O O11 0.701726 0.177688 0.353761
O O12 0.500000 0.667255 0.250000
O O13 0.652802 0.577331 0.215703
O O14 0.815143 0.647061 0.987888
O O15 0.500000 0.905011 0.250000
O O16 0.854867 0.916432 0.992137
#
# Coordination Sequence:
#
# PCOD9277424 Si02
#       7
#     8   8   8   8   8   8   8
#     4  11  25  40  67  94 134 177 217 278 335 413
#     4  10  22  44  68  95 135 178 228 274 342 398
#     4  12  25  42  67  99 139 180 225 281 338 410
#     4  12  25  41  65 100 134 174 223 274 340 409
#     4  10  22  41  66  97 130 172 219 278 332 404
#     4  10  20  41  62  94 132 164 220 276 335 394
#     4   9  21  42  72  93 128 183 222 275 339 410
#
# _framework density 20.471287
#
# number of rings (size 3 to 8) (size 9 to 14) (size 15 to 20)
#    0.000    1.429    2.857    1.714    6.000    1.714 
#    7.714    2.143    0.000    0.000    0.000    0.000 
#    0.000    0.000    0.000    0.000    0.000    0.000 
#
# Total GULP energy -156073.423346 kJ/mol
# GULP energy per Si atom -5574.050834 kJ/mol
# Density = 2.042469 g / cm^3
# Si number density = 20.471287 Si / 1000 Ang^3
#
#
#
# Elastic Constant Matrix: (Units=GPa)
#
#
# Indices 1 2 3 4 5 6 
#
# 1 118.2882 37.7721 22.4944 -0.0097 4.1358 0.0048
# 2 37.7721 72.4309 17.7375 0.0068 -3.8816 -0.0077
# 3 22.4944 17.7375 103.6412 -0.0076 16.8199 0.0059
# 4 -0.0097 0.0068 -0.0076 17.8424 0.0151 2.9284
# 5 4.1358 -3.8816 16.8199 0.0151 24.1494 -0.0108
# 6 0.0048 -0.0077 0.0059 2.9284 -0.0108 19.5576
#
#
#
# Elastic Compliance Matrix: (Units=1/GPa)
#
#
# Indices 1 2 3 4 5 6 
#
# 1 0.010402 -0.005270 -0.001048 0.000010 -0.001899 -0.000007
# 2 -0.005270 0.017537 -0.002775 -0.000018 0.005654 0.000015
# 3 -0.001048 -0.002775 0.011719 0.000014 -0.008429 -0.000011
# 4 0.000010 -0.000018 0.000014 0.057458 -0.000054 -0.008603
# 5 -0.001899 0.005654 -0.008429 -0.000054 0.048513 0.000040
# 6 -0.000007 0.000015 -0.000011 -0.008603 0.000040 0.052419
#
#
# Mechanical properties :
#
#
# Convention : Reuss Voigt Hill
#
# Bulk Modulus (GPa) = 46.57050 50.04090 48.30570
# Shear Modulus (GPa) = 22.38212 26.73364 24.55788
#
# Velocity S-wave (km/s) = 3.31016 3.61766 3.46732
# Velocity P-wave (km/s) = 6.11622 6.47668 6.29903
#
# Compressibility (1/GPa) = 0.02147282
#
# Stress axis : x y z
#
# Youngs Moduli (GPa) = 96.13200 57.02195 85.33210
#
# Poissons Ratio (x) = 0.30050 0.08940
# Poissons Ratio (y) = 0.50661 0.23681
# Poissons Ratio (z) = 0.10071 0.15825
#
# Static dielectric constant tensor:
#      x y z
#    x 1.825620 0.000000 0.016460 
#    y 0.000000 1.730100 0.000010 
#    z 0.016460 0.000010 1.732360 
# 
# From -- ./inp_files/206904.got.cif
#   From: 2010.05.17/outbox.cif.g08.bks.cpg/sg15_104_cif.got.tgz:206904.got - 2010.06.03 18:47:42.
