data_PCOD9277575
_publ_section_title
;
Structure prediction by ZEFSAII (Michael W. Deem and Ramdas Pophale) SiO2 
 PCOD9277575
Probable space group: C 2/C
;
_chemical_formula_sum "Si O2"
_cell_formula_units_Z 48
_cell_length_a 15.064738
_cell_length_b 25.436213
_cell_length_c 5.666894
_cell_angle_alpha 90.000000
_cell_angle_beta 67.366540
_cell_angle_gamma 90.000000
_cell_volume 2004.260039
_symmetry_space_group_name_H-M "C 2/C"
_symmetry_group_IT_number 15
_symmetry_cell_setting 'monoclinic'
loop_
_space_group_symop_operation_xyz
x,y,z
-x,y,1/2-z
-x,-y,-z
x,-y,1/2+z
1/2+x,1/2+y,z
1/2-x,1/2+y,1/2-z
1/2-x,1/2-y,-z
1/2+x,1/2-y,1/2+z
loop_
_atom_site_type_symbol
_atom_site_label
_atom_site_fract_x
_atom_site_fract_y
_atom_site_fract_z
Si Si1 0.601475 0.360597 0.240944
Si Si2 0.537399 0.060406 0.961791
Si Si3 0.409414 0.528657 0.250839
Si Si4 0.746886 0.912762 0.109264
Si Si5 0.596586 0.254860 0.537628
Si Si6 0.741841 0.687977 0.212285
O O1 0.500000 0.379625 0.250000
O O2 0.665117 0.403773 0.303788
O O3 0.576622 0.309886 0.428043
O O4 0.676412 0.339765 0.971077
O O5 0.500000 0.083763 0.750000
O O6 0.652270 0.064358 0.824037
O O7 0.500000 0.083416 0.250000
O O8 0.500000 0.000000 0.000000
O O9 0.500000 0.565528 0.250000
O O10 0.417846 0.489562 0.470200
O O11 0.300749 0.550735 0.366896
O O12 0.728471 0.855986 0.010284
O O13 0.500000 0.232793 0.750000
O O14 0.668973 0.269873 0.674143
O O15 0.660190 0.216507 0.309602
#
# Coordination Sequence:
#
# PCOD9277575 Si02
#       6
#     8   8   8   8   8   8
#     4  11  23  40  70 102 139 186 231 294 370 436
#     4  10  25  47  74 100 134 189 242 293 360 433
#     4  10  25  43  67  99 139 184 231 288 363 433
#     4  11  27  41  72 102 138 180 240 305 358 433
#     4  10  20  41  65  94 135 189 230 284 355 440
#     4  10  23  40  64  99 138 177 237 291 354 426
#
# _framework density 23.948988
#
# number of rings (size 3 to 8) (size 9 to 14) (size 15 to 20)
#    0.000    1.667    1.667    0.500   11.667    1.333 
#    0.000    0.000    0.000    0.000    0.000    0.000 
#    0.000    0.000    0.000    0.000    0.000    0.000 
#
# Total GULP energy -133948.175804 kJ/mol
# GULP energy per Si atom -5581.173992 kJ/mol
# Density = 2.389448 g / cm^3
# Si number density = 23.948988 Si / 1000 Ang^3
#
#
#
# Elastic Constant Matrix: (Units=GPa)
#
#
# Indices 1 2 3 4 5 6 
#
# 1 131.7877 43.5285 64.7519 0.0000 -33.0317 0.0000
# 2 43.5285 43.5506 30.4625 0.0000 -15.1300 0.0000
# 3 64.7519 30.4625 157.3607 0.0000 -27.7373 0.0000
# 4 0.0000 0.0000 0.0000 -580.3858 0.0000 -207.6497
# 5 -33.0317 -15.1300 -27.7373 0.0000 55.8754 0.0000
# 6 0.0000 0.0000 0.0000 -207.6497 0.0000 -34.4448
#
#
#
# Elastic Compliance Matrix: (Units=1/GPa)
#
#
# Indices 1 2 3 4 5 6 
#
# 1 0.013189 -0.009897 -0.002859 0.000000 0.003697 0.000000
# 2 -0.009897 0.035372 -0.002321 0.000000 0.002575 0.000000
# 3 -0.002859 -0.002321 0.008298 0.000000 0.001801 0.000000
# 4 0.000000 0.000000 0.000000 0.001489 0.000000 -0.008979
# 5 0.003697 0.002575 0.001801 0.000000 0.021674 0.000000
# 6 0.000000 0.000000 0.000000 -0.008979 0.000000 0.025095
#
#
# Mechanical properties :
#
#
# Convention : Reuss Voigt Hill
#
# Bulk Modulus (GPa) = 37.44822 67.79832 52.62327
# Shear Modulus (GPa) = 34.68036 -98.86064 -32.09014
#
# Velocity S-wave (km/s) = 3.80951 -6.43190 -3.66449
# Velocity P-wave (km/s) = 5.91781 5.17572 2.02883
#
# Compressibility (1/GPa) = 0.02670354
#
# Stress axis : x y z
#
# Youngs Moduli (GPa) = 75.82337 28.27076 120.51052
#
# Poissons Ratio (x) = 0.27981 0.34457
# Poissons Ratio (y) = 0.75046 0.27970
# Poissons Ratio (z) = 0.21680 0.06562
#
# Static dielectric constant tensor:
#      x y z
#    x 2.066410 0.000000 -0.095530 
#    y 0.000000 2.016580 0.000000 
#    z -0.095530 0.000000 2.102730 
# 
# From -- ./inp_files/8923.got.cif
#   From: 2010.05.17/outbox.cif.g08.bks.cpg/sg15_5_cif.got.tgz:8923.got - 2010.06.03 18:47:42.
