data_PCOD9277232
_publ_section_title
;
Structure prediction by ZEFSAII (Michael W. Deem and Ramdas Pophale) SiO2 
 PCOD9277232
Probable space group: C 2/C
;
_chemical_formula_sum "Si O2"
_cell_formula_units_Z 20
_cell_length_a 4.859661
_cell_length_b 23.896605
_cell_length_c 6.945956
_cell_angle_alpha 90.000000
_cell_angle_beta 111.171034
_cell_angle_gamma 90.000000
_cell_volume 752.187438
_symmetry_space_group_name_H-M "C 2/C"
_symmetry_group_IT_number 15
_symmetry_cell_setting 'monoclinic'
loop_
_space_group_symop_operation_xyz
x,y,z
-x,y,1/2-z
-x,-y,-z
x,-y,1/2+z
1/2+x,1/2+y,z
1/2-x,1/2+y,1/2-z
1/2-x,1/2-y,-z
1/2+x,1/2-y,1/2+z
loop_
_atom_site_type_symbol
_atom_site_label
_atom_site_fract_x
_atom_site_fract_y
_atom_site_fract_z
Si Si1 0.828531 0.945233 0.391814
Si Si2 0.770951 0.174818 0.975598
Si Si3 0.500000 0.755792 0.750000
O O1 0.500000 0.962286 0.250000
O O2 0.000000 0.922708 0.250000
O O3 0.812087 0.890936 0.520104
O O4 0.000000 0.000000 0.500000
O O5 0.500000 0.179962 0.750000
O O6 0.034787 0.208112 0.932823
O O7 0.685062 0.203566 0.153659
#
# Coordination Sequence:
#
# PCOD9277232 Si02
#       3
#     8   8   4
#     4  11  24  48  74 107 151 199 255 312 377 451
#     4  10  21  40  69 104 149 184 250 306 385 443
#     4  10  20  40  70 108 138 194 240 310 384 456
#
# _framework density 26.589116000000001
#
# number of rings (size 3 to 8) (size 9 to 14) (size 15 to 20)
#    0.000    1.600    2.000    2.400    0.000    0.000 
#   18.000    2.000    0.000    0.000    0.000    0.000 
#    0.000    0.000    0.000    0.000    0.000    0.000 
#
# Total GULP energy -55833.223493 kJ/mol
# GULP energy per Si atom -5583.322349 kJ/mol
# Density = 2.652860 g / cm^3
# Si number density = 26.589116 Si / 1000 Ang^3
#
#
#
# Elastic Constant Matrix: (Units=GPa)
#
#
# Indices 1 2 3 4 5 6 
#
# 1 182.8370 56.0066 77.6575 0.0000 1.8634 0.0000
# 2 56.0066 287.2126 77.7085 0.0000 16.8630 0.0000
# 3 77.6575 77.7085 210.1286 0.0000 -29.1591 0.0000
# 4 0.0000 0.0000 0.0000 539.4891 0.0000 245.5106
# 5 1.8634 16.8630 -29.1591 0.0000 55.5791 0.0000
# 6 0.0000 0.0000 0.0000 245.5106 0.0000 158.1971
#
#
#
# Elastic Compliance Matrix: (Units=1/GPa)
#
#
# Indices 1 2 3 4 5 6 
#
# 1 0.006697 -0.000564 -0.002453 0.000000 -0.001340 0.000000
# 2 -0.000564 0.004152 -0.001617 0.000000 -0.002089 0.000000
# 3 -0.002453 -0.001617 0.006841 0.000000 0.004162 0.000000
# 4 0.000000 0.000000 0.000000 0.006310 0.000000 -0.009793
# 5 -0.001340 -0.002089 0.004162 0.000000 0.020855 0.000000
# 6 0.000000 0.000000 0.000000 -0.009793 0.000000 0.021519
#
#
# Mechanical properties :
#
#
# Convention : Reuss Voigt Hill
#
# Bulk Modulus (GPa) = 118.71634 122.54704 120.63169
# Shear Modulus (GPa) = 63.73587 181.90677 122.82132
#
# Velocity S-wave (km/s) = 4.90130 8.28025 6.80387
# Velocity P-wave (km/s) = 8.76217 11.73055 10.35330
#
# Compressibility (1/GPa) = 0.00842344
#
# Stress axis : x y z
#
# Youngs Moduli (GPa) = 149.31078 240.85892 146.17855
#
# Poissons Ratio (x) = 0.13577 0.35853
# Poissons Ratio (y) = 0.08417 0.23637
# Poissons Ratio (z) = 0.36622 0.38946
#
# Static dielectric constant tensor:
#      x y z
#    x 1.083060 0.000000 -1.054660 
#    y 0.000000 2.040700 0.000000 
#    z -1.054660 0.000000 0.753410 
# 
# From -- ./inp_files/19243.got.cif
#   From: 2010.05.17/outbox.cif.g08.bks.cpg/sg15_10_cif.got.tgz:19243.got - 2010.06.03 18:47:42.
