data_PCOD9277641
_publ_section_title
;
Structure prediction by ZEFSAII (Michael W. Deem and Ramdas Pophale) SiO2 
 PCOD9277641
Probable space group: C 2/C
;
_chemical_formula_sum "Si O2"
_cell_formula_units_Z 44
_cell_length_a 18.697919
_cell_length_b 9.086843
_cell_length_c 16.651243
_cell_angle_alpha 90.000000
_cell_angle_beta 134.133105
_cell_angle_gamma 90.000000
_cell_volume 2030.534992
_symmetry_space_group_name_H-M "C 2/C"
_symmetry_group_IT_number 15
_symmetry_cell_setting 'monoclinic'
loop_
_space_group_symop_operation_xyz
x,y,z
-x,y,1/2-z
-x,-y,-z
x,-y,1/2+z
1/2+x,1/2+y,z
1/2-x,1/2+y,1/2-z
1/2-x,1/2-y,-z
1/2+x,1/2-y,1/2+z
loop_
_atom_site_type_symbol
_atom_site_label
_atom_site_fract_x
_atom_site_fract_y
_atom_site_fract_z
Si Si1 0.830315 0.888019 0.485004
Si Si2 0.420046 0.624528 0.460351
Si Si3 0.436021 0.323839 0.800779
Si Si4 0.749272 0.929723 0.594077
Si Si5 0.500000 0.073868 0.750000
Si Si6 0.051752 0.576062 0.461650
O O1 0.764559 0.926111 0.510580
O O2 0.796011 0.732601 0.421072
O O3 0.946807 0.863987 0.603735
O O4 0.831558 0.028917 0.427994
O O5 0.500000 0.500000 0.500000
O O6 0.401560 0.711594 0.363594
O O7 0.465011 0.749264 0.552238
O O8 0.359711 0.449318 0.714969
O O9 0.421587 0.189931 0.727615
O O10 0.669687 0.045954 0.561374
O O11 0.472148 0.988577 0.646350
O O12 0.000000 0.500000 0.500000
#
# Coordination Sequence:
#
# PCOD9277641 Si02
#       6
#     8   8   8   8   4   8
#     4  10  20  41  66  95 139 180 225 277 347 403
#     4  10  23  43  65  94 143 180 223 289 342 408
#     4  11  20  41  71  99 132 186 230 274 353 410
#     4  11  21  38  71 100 132 184 227 282 339 414
#     4  12  20  42  74  98 134 184 224 290 344 414
#     4  12  24  44  69 104 136 179 237 288 344 414
#
# _framework density 21.669167000000002
#
# number of rings (size 3 to 8) (size 9 to 14) (size 15 to 20)
#    0.000    1.091    5.455    2.182    0.000    2.182 
#    9.818    0.000    0.000    0.000    0.000    0.000 
#    0.000    0.000    0.000    0.000    0.000    0.000 
#
# Total GULP energy -122513.617477 kJ/mol
# GULP energy per Si atom -5568.800794 kJ/mol
# Density = 2.161985 g / cm^3
# Si number density = 21.669167 Si / 1000 Ang^3
#
#
#
# Elastic Constant Matrix: (Units=GPa)
#
#
# Indices 1 2 3 4 5 6 
#
# 1 110.3732 53.9392 33.5786 0.0000 -17.2810 0.0000
# 2 53.9392 103.7875 12.3061 0.0000 -10.1247 0.0000
# 3 33.5786 12.3061 67.4566 0.0000 -5.1869 0.0000
# 4 0.0000 0.0000 0.0000 23.7775 0.0000 -6.1399
# 5 -17.2810 -10.1247 -5.1869 0.0000 45.8471 0.0000
# 6 0.0000 0.0000 0.0000 -6.1399 0.0000 39.7943
#
#
#
# Elastic Compliance Matrix: (Units=1/GPa)
#
#
# Indices 1 2 3 4 5 6 
#
# 1 0.014549 -0.006545 -0.005788 0.000000 0.003384 0.000000
# 2 -0.006545 0.012976 0.000930 0.000000 0.000504 0.000000
# 3 -0.005788 0.000930 0.017537 0.000000 0.000008 0.000000
# 4 0.000000 0.000000 0.000000 0.043802 0.000000 0.006758
# 5 0.003384 0.000504 0.000008 0.000000 0.023199 0.000000
# 6 0.000000 0.000000 0.000000 0.006758 0.000000 0.026172
#
#
# Mechanical properties :
#
#
# Convention : Reuss Voigt Hill
#
# Bulk Modulus (GPa) = 44.93537 53.47392 49.20464
# Shear Modulus (GPa) = 29.68064 34.00333 31.84199
#
# Velocity S-wave (km/s) = 3.70498 3.96561 3.83751
# Velocity P-wave (km/s) = 6.25177 6.76011 6.51090
#
# Compressibility (1/GPa) = 0.02225419
#
# Stress axis : x y z
#
# Youngs Moduli (GPa) = 68.73088 77.06823 57.02355
#
# Poissons Ratio (x) = 0.50442 0.33007
# Poissons Ratio (y) = 0.44985 -0.05301
# Poissons Ratio (z) = 0.39783 -0.07164
#
# Static dielectric constant tensor:
#      x y z
#    x 1.834560 0.000000 -0.025420 
#    y 0.000000 1.936670 0.000000 
#    z -0.025420 0.000000 1.936270 
# 
# From -- ./inp_files/159206.got.cif
#   From: 2010.05.17/outbox.cif.g08.bks.cpg/sg15_80_cif.got.tgz:159206.got - 2010.06.03 18:47:42.
