data_PCOD9277467
_publ_section_title
;
Structure prediction by ZEFSAII (Michael W. Deem and Ramdas Pophale) SiO2 
 PCOD9277467
Probable space group: C 2/C
;
_chemical_formula_sum "Si O2"
_cell_formula_units_Z 64
_cell_length_a 22.503978
_cell_length_b 14.993295
_cell_length_c 12.755623
_cell_angle_alpha 90.000000
_cell_angle_beta 38.904267
_cell_angle_gamma 90.000000
_cell_volume 2702.914023
_symmetry_space_group_name_H-M "C 2/C"
_symmetry_group_IT_number 15
_symmetry_cell_setting 'monoclinic'
loop_
_space_group_symop_operation_xyz
x,y,z
-x,y,1/2-z
-x,-y,-z
x,-y,1/2+z
1/2+x,1/2+y,z
1/2-x,1/2+y,1/2-z
1/2-x,1/2-y,-z
1/2+x,1/2-y,1/2+z
loop_
_atom_site_type_symbol
_atom_site_label
_atom_site_fract_x
_atom_site_fract_y
_atom_site_fract_z
Si Si1 0.601680 0.519340 0.126882
Si Si2 0.631281 0.367274 0.789757
Si Si3 0.914132 0.433641 0.946781
Si Si4 0.093107 0.148933 0.564744
Si Si5 0.347247 0.685261 0.566725
Si Si6 0.642769 0.875523 0.024690
Si Si7 0.367917 0.837455 0.222732
Si Si8 0.234055 0.700031 0.913686
O O1 0.500000 0.474336 0.250000
O O2 0.613321 0.565835 0.220329
O O3 0.657689 0.427757 0.033201
O O4 0.602330 0.596019 0.039105
O O5 0.744446 0.373196 0.651345
O O6 0.603405 0.265717 0.799933
O O7 0.576371 0.388732 0.971202
O O8 0.820395 0.393599 0.018296
O O9 0.000000 0.413830 0.750000
O O10 0.901940 0.540162 0.971478
O O11 0.917547 0.388557 0.057798
O O12 0.162046 0.233020 0.452945
O O13 0.000000 0.186992 0.750000
O O14 0.390282 0.777674 0.467195
O O15 0.243954 0.669347 0.653831
O O16 0.328520 0.691457 0.715679
O O17 0.625975 0.884094 0.172586
O O18 0.250000 0.750000 0.000000
#
# Coordination Sequence:
#
# PCOD9277467 Si02
#       8
#     8   8   8   8   8   8   8   8
#     4  11  25  39  65 101 132 164 219 278 329 377
#     4  11  21  42  71  89 128 177 221 263 327 392
#     4  11  26  43  63  98 139 170 216 271 332 395
#     4  11  25  42  66  96 135 174 212 272 342 388
#     4  10  20  41  63  95 124 167 227 269 314 387
#     4  11  21  38  70  94 120 177 222 267 315 388
#     4  10  20  41  69  90 123 179 220 259 326 382
#     4  11  25  40  66  97 129 178 223 268 323 397
#
# _framework density 23.678148
#
# number of rings (size 3 to 8) (size 9 to 14) (size 15 to 20)
#    0.000    1.250    6.250    1.125    5.250    5.000 
#    0.000    0.000    0.000    0.000    0.000    0.000 
#    0.000    0.000    0.000    0.000    0.000    0.000 
#
# Total GULP energy -178740.059241 kJ/mol
# GULP energy per Si atom -5585.626851 kJ/mol
# Density = 2.362426 g / cm^3
# Si number density = 23.678148 Si / 1000 Ang^3
#
#
#
# Elastic Constant Matrix: (Units=GPa)
#
#
# Indices 1 2 3 4 5 6 
#
# 1 18.8970 -2.2627 11.0451 0.0000 5.8385 0.0000
# 2 -2.2627 116.5395 22.3348 0.0000 1.2166 0.0000
# 3 11.0451 22.3348 139.0505 0.0000 25.1566 0.0000
# 4 0.0000 0.0000 0.0000 18.8156 0.0000 75.9688
# 5 5.8385 1.2166 25.1566 0.0000 24.4608 0.0000
# 6 0.0000 0.0000 0.0000 75.9688 0.0000 -309.0714
#
#
#
# Elastic Compliance Matrix: (Units=1/GPa)
#
#
# Indices 1 2 3 4 5 6 
#
# 1 0.058239 0.001807 -0.002930 0.000000 -0.010977 0.000000
# 2 0.001807 0.008941 -0.001746 0.000000 0.000920 0.000000
# 3 -0.002930 -0.001746 0.009291 0.000000 -0.008769 0.000000
# 4 0.000000 0.000000 0.000000 0.026675 0.000000 0.006557
# 5 -0.010977 0.000920 -0.008769 0.000000 0.052475 0.000000
# 6 0.000000 0.000000 0.000000 0.006557 0.000000 -0.001624
#
#
# Mechanical properties :
#
#
# Convention : Reuss Voigt Hill
#
# Bulk Modulus (GPa) = 14.13772 37.41348 25.77560
# Shear Modulus (GPa) = 27.27563 -36.93435 -4.82936
#
# Velocity S-wave (km/s) = 3.39770 -3.95378 -1.42969
# Velocity P-wave (km/s) = 4.62344 2.23785 2.86079
#
# Compressibility (1/GPa) = 0.07073275
#
# Stress axis : x y z
#
# Youngs Moduli (GPa) = 17.17054 111.84565 107.62664
#
# Poissons Ratio (x) = -0.20210 0.31538
# Poissons Ratio (y) = -0.03103 0.18792
# Poissons Ratio (z) = 0.05032 0.19529
#
# Static dielectric constant tensor:
#      x y z
#    x 1.995310 0.000000 0.023060 
#    y 0.000000 1.922840 0.000000 
#    z 0.023060 0.000000 1.964150 
# 
# From -- ./inp_files/123489.got.cif
#   From: 2010.05.17/outbox.cif.g08.bks.cpg/sg15_62_cif.got.tgz:123489.got - 2010.06.03 18:47:42.
