data_PCOD9277368
_publ_section_title
;
Structure prediction by ZEFSAII (Michael W. Deem and Ramdas Pophale) SiO2 
 PCOD9277368
Probable space group: C 2/C
;
_chemical_formula_sum "Si O2"
_cell_formula_units_Z 44
_cell_length_a 24.367853
_cell_length_b 8.410750
_cell_length_c 11.279861
_cell_angle_alpha 90.000000
_cell_angle_beta 114.474365
_cell_angle_gamma 90.000000
_cell_volume 2104.103731
_symmetry_space_group_name_H-M "C 2/C"
_symmetry_group_IT_number 15
_symmetry_cell_setting 'monoclinic'
loop_
_space_group_symop_operation_xyz
x,y,z
-x,y,1/2-z
-x,-y,-z
x,-y,1/2+z
1/2+x,1/2+y,z
1/2-x,1/2+y,1/2-z
1/2-x,1/2-y,-z
1/2+x,1/2-y,1/2+z
loop_
_atom_site_type_symbol
_atom_site_label
_atom_site_fract_x
_atom_site_fract_y
_atom_site_fract_z
Si Si1 0.867450 0.960069 0.655975
Si Si2 0.475032 0.939464 0.102995
Si Si3 0.159406 0.368519 0.478947
Si Si4 0.205679 0.846068 0.233495
Si Si5 0.500000 0.624849 0.250000
Si Si6 0.754371 0.935116 0.918707
O O1 0.844460 0.038704 0.755898
O O2 0.853353 0.771816 0.629045
O O3 0.823848 0.043487 0.520200
O O4 0.938791 0.973900 0.703951
O O5 0.500000 0.011948 0.250000
O O6 0.403101 0.954227 0.048355
O O7 0.491979 0.751425 0.134443
O O8 0.500000 0.000000 0.000000
O O9 0.178972 0.273540 0.612890
O O10 0.211263 0.481732 0.476138
O O11 0.252070 0.955383 0.204389
O O12 0.234790 0.738868 0.361779
#
# Coordination Sequence:
#
# PCOD9277368 Si02
#       6
#     8   8   8   8   4   8
#     4  10  20  41  60  90 124 173 213 266 330 398
#     4   9  20  40  67  95 135 176 222 266 334 390
#     4  10  22  39  62  90 130 167 214 273 336 390
#     4  11  22  37  65  88 130 163 218 270 340 397
#     4   8  20  40  66  88 138 176 220 276 332 388
#     4  11  22  39  62  97 125 165 216 276 336 398
#
# _framework density 20.911515999999999
#
# number of rings (size 3 to 8) (size 9 to 14) (size 15 to 20)
#    0.545    1.455    0.000    4.909    2.545    0.000 
#    0.000   13.636    0.000    0.000    0.000    0.000 
#    0.000    0.000    0.000    0.000    0.000    0.000 
#
# Total GULP energy -122733.108948 kJ/mol
# GULP energy per Si atom -5578.777679 kJ/mol
# Density = 2.086392 g / cm^3
# Si number density = 20.911516 Si / 1000 Ang^3
#
#
#
# Elastic Constant Matrix: (Units=GPa)
#
#
# Indices 1 2 3 4 5 6 
#
# 1 173.3905 72.2788 78.8349 0.0000 -1.2596 0.0000
# 2 72.2788 62.7969 44.2986 0.0000 -11.4540 0.0000
# 3 78.8349 44.2986 103.4605 0.0000 -25.6250 0.0000
# 4 0.0000 0.0000 0.0000 38.1145 0.0000 -14.1553
# 5 -1.2596 -11.4540 -25.6250 0.0000 34.9112 0.0000
# 6 0.0000 0.0000 0.0000 -14.1553 0.0000 37.1884
#
#
#
# Elastic Compliance Matrix: (Units=1/GPa)
#
#
# Indices 1 2 3 4 5 6 
#
# 1 0.014875 -0.013181 -0.008102 0.000000 -0.009735 0.000000
# 2 -0.013181 0.034501 -0.002496 0.000000 0.009012 0.000000
# 3 -0.008102 -0.002496 0.020328 0.000000 0.013809 0.000000
# 4 0.000000 0.000000 0.000000 0.030556 0.000000 0.011631
# 5 -0.009735 0.009012 0.013809 0.000000 0.041386 0.000000
# 6 0.000000 0.000000 0.000000 0.011631 0.000000 0.031317
#
#
# Mechanical properties :
#
#
# Convention : Reuss Voigt Hill
#
# Bulk Modulus (GPa) = 45.15675 81.16362 63.16019
# Shear Modulus (GPa) = 21.93924 31.65852 26.79888
#
# Velocity S-wave (km/s) = 3.24257 3.89514 3.58374
# Velocity P-wave (km/s) = 5.97161 7.68939 6.88428
#
# Compressibility (1/GPa) = 0.02214508
#
# Stress axis : x y z
#
# Youngs Moduli (GPa) = 67.22775 28.98504 49.19365
#
# Poissons Ratio (x) = 0.38206 0.39854
# Poissons Ratio (y) = 0.88615 0.12280
# Poissons Ratio (z) = 0.54465 0.07235
#
# Static dielectric constant tensor:
#      x y z
#    x 1.711470 0.000000 0.005850 
#    y 0.000000 1.790960 0.000000 
#    z 0.005850 0.000000 1.843660 
# 
# From -- ./inp_files/110115.got.cif
#   From: 2010.05.17/outbox.cif.g08.bks.cpg/sg15_56_cif.got.tgz:110115.got - 2010.06.03 18:47:42.
