data_PCOD9277879
_publ_section_title
;
Structure prediction by ZEFSAII (Michael W. Deem and Ramdas Pophale) SiO2 
 PCOD9277879
Probable space group: C 2/C
;
_chemical_formula_sum "Si O2"
_cell_formula_units_Z 44
_cell_length_a 11.131787
_cell_length_b 11.698763
_cell_length_c 22.286190
_cell_angle_alpha 90.000000
_cell_angle_beta 37.711476
_cell_angle_gamma 90.000000
_cell_volume 1775.288128
_symmetry_space_group_name_H-M "C 2/C"
_symmetry_group_IT_number 15
_symmetry_cell_setting 'monoclinic'
loop_
_space_group_symop_operation_xyz
x,y,z
-x,y,1/2-z
-x,-y,-z
x,-y,1/2+z
1/2+x,1/2+y,z
1/2-x,1/2+y,1/2-z
1/2-x,1/2-y,-z
1/2+x,1/2-y,1/2+z
loop_
_atom_site_type_symbol
_atom_site_label
_atom_site_fract_x
_atom_site_fract_y
_atom_site_fract_z
Si Si1 0.290616 0.907322 0.369065
Si Si2 0.298880 0.901729 0.075704
Si Si3 0.984703 0.500459 0.109357
Si Si4 0.327296 0.416015 0.674708
Si Si5 0.000000 0.251687 0.750000
Si Si6 0.358485 0.340592 0.863564
O O1 0.500000 0.905879 0.250000
O O2 0.236374 0.776476 0.404956
O O3 0.351518 0.966528 0.407173
O O4 0.146418 0.982484 0.384457
O O5 0.107207 0.825559 0.157872
O O6 0.422917 0.898555 0.088421
O O7 0.235487 0.034564 0.100421
O O8 0.428418 0.895309 0.964692
O O9 0.787461 0.531048 0.222954
O O10 0.169769 0.330766 0.708561
O O11 0.510835 0.346872 0.627834
O O12 0.500000 0.337492 0.750000
#
# Coordination Sequence:
#
# PCOD9277879 Si02
#       6
#     8   8   8   8   4   8
#     4   9  20  39  63  88 122 166 212 258 321 378
#     4  11  23  37  64  93 122 160 211 263 324 386
#     4  10  20  42  60  90 124 160 208 265 323 378
#     4  11  21  41  67  88 125 172 214 263 323 382
#     4  12  22  40  62  90 122 168 216 260 312 400
#     4  11  21  38  64  94 120 166 216 261 320 391
#
# _framework density 24.78471
#
# number of rings (size 3 to 8) (size 9 to 14) (size 15 to 20)
#    0.000    1.455    5.455    1.091    0.000    4.364 
#    0.000    0.909    0.000    0.000    0.000    0.000 
#    0.000    0.000    0.000    0.000    0.000    0.000 
#
# Total GULP energy -122981.171361 kJ/mol
# GULP energy per Si atom -5590.053244 kJ/mol
# Density = 2.472830 g / cm^3
# Si number density = 24.784710 Si / 1000 Ang^3
#
#
#
# Elastic Constant Matrix: (Units=GPa)
#
#
# Indices 1 2 3 4 5 6 
#
# 1 129.7955 65.4740 13.9406 0.0000 18.5718 0.0000
# 2 65.4740 127.5886 18.4402 0.0000 4.9461 0.0000
# 3 13.9406 18.4402 70.4628 -0.0001 19.8801 0.0001
# 4 0.0000 0.0000 -0.0001 3.6011 0.0000 3.2442
# 5 18.5718 4.9461 19.8801 0.0000 26.2140 0.0000
# 6 0.0000 0.0000 0.0001 3.2442 0.0000 3.8265
#
#
#
# Elastic Compliance Matrix: (Units=1/GPa)
#
#
# Indices 1 2 3 4 5 6 
#
# 1 0.011721 -0.005921 0.001601 0.000002 -0.008401 -0.000002
# 2 -0.005921 0.011137 -0.002969 -0.000002 0.004345 0.000002
# 3 0.001601 -0.002969 0.018847 0.000006 -0.014867 -0.000005
# 4 0.000002 -0.000002 0.000006 1.175627 -0.000008 -0.996730
# 5 -0.008401 0.004345 -0.014867 -0.000008 0.054554 0.000007
# 6 -0.000002 0.000002 -0.000005 -0.996730 0.000007 1.106393
#
#
# Mechanical properties :
#
#
# Convention : Reuss Voigt Hill
#
# Bulk Modulus (GPa) = 36.86425 58.17296 47.51861
# Shear Modulus (GPa) = 2.08169 22.06113 12.07141
#
# Velocity S-wave (km/s) = 0.91746 2.98671 2.20932
# Velocity P-wave (km/s) = 4.00355 5.95115 5.07171
#
# Compressibility (1/GPa) = 0.02712655
#
# Stress axis : x y z
#
# Youngs Moduli (GPa) = 85.31635 89.79430 53.05999
#
# Poissons Ratio (x) = 0.53163 -0.08493
# Poissons Ratio (y) = 0.50512 0.15753
# Poissons Ratio (z) = -0.13656 0.26660
#
# Static dielectric constant tensor:
#      x y z
#    x 2.055150 0.000000 -0.037610 
#    y 0.000000 1.969180 0.000000 
#    z -0.037610 0.000000 2.091010 
# 
# From -- ./inp_files/269139.got.cif
#   From: 2010.05.17/outbox.cif.g08.bks.cpg/sg15_135_cif.got.tgz:269139.got - 2010.06.03 18:47:42.
