data_PCOD9277815
_publ_section_title
;
Structure prediction by ZEFSAII (Michael W. Deem and Ramdas Pophale) SiO2 
 PCOD9277815
Probable space group: C 2/C
;
_chemical_formula_sum "Si O2"
_cell_formula_units_Z 64
_cell_length_a 27.607911
_cell_length_b 6.204990
_cell_length_c 18.914417
_cell_angle_alpha 90.000000
_cell_angle_beta 92.372499
_cell_angle_gamma 90.000000
_cell_volume 3237.391046
_symmetry_space_group_name_H-M "C 2/C"
_symmetry_group_IT_number 15
_symmetry_cell_setting 'monoclinic'
loop_
_space_group_symop_operation_xyz
x,y,z
-x,y,1/2-z
-x,-y,-z
x,-y,1/2+z
1/2+x,1/2+y,z
1/2-x,1/2+y,1/2-z
1/2-x,1/2-y,-z
1/2+x,1/2-y,1/2+z
loop_
_atom_site_type_symbol
_atom_site_label
_atom_site_fract_x
_atom_site_fract_y
_atom_site_fract_z
Si Si1 0.737744 0.108143 0.718690
Si Si2 0.998081 0.146192 0.333477
Si Si3 0.889023 0.659514 0.035760
Si Si4 0.425079 0.984360 0.399645
Si Si5 0.134120 0.423046 0.734401
Si Si6 0.998743 0.812951 0.058741
Si Si7 0.171756 0.095930 0.853959
Si Si8 0.395569 0.798319 0.141382
O O1 0.745304 0.363396 0.746897
O O2 0.770463 0.105111 0.650003
O O3 0.680525 0.066813 0.715250
O O4 0.052096 0.194887 0.364338
O O5 0.000000 0.146751 0.250000
O O6 0.960018 0.316684 0.361673
O O7 0.986605 0.915339 0.365472
O O8 0.850596 0.804377 0.075782
O O9 0.882330 0.428335 0.070890
O O10 0.943760 0.731693 0.058889
O O11 0.889608 0.640358 0.951490
O O12 0.395524 0.114795 0.338779
O O13 0.461117 0.129741 0.449358
O O14 0.152904 0.223500 0.782651
O O15 0.101737 0.548966 0.789927
O O16 0.000000 0.000000 0.000000
O O17 0.147650 0.864676 0.847294
#
# Coordination Sequence:
#
# PCOD9277815 Si02
#       8
#     8   8   8   8   8   8   8   8
#     4  10  20  41  70  99 128 167 215 275 335 396
#     4  12  24  35  60  88 124 160 203 264 315 369
#     4  11  23  38  60  85 120 173 211 250 304 389
#     4  12  25  40  58  87 131 165 206 261 317 372
#     4  10  23  39  62  94 122 158 207 268 329 379
#     4  12  24  39  58  84 122 176 218 246 308 386
#     4  10  22  39  65  91 121 159 212 265 315 385
#     4  11  20  38  60  87 121 158 211 253 308 381
#
# _framework density 19.769005
#
# number of rings (size 3 to 8) (size 9 to 14) (size 15 to 20)
#    0.000    1.000    6.250    1.125    1.750    0.500 
#    0.000    0.625    0.000    0.750    0.000    0.000 
#    0.000    0.000    0.000    0.000    0.000    0.000 
#
# Total GULP energy -178206.112826 kJ/mol
# GULP energy per Si atom -5568.941026 kJ/mol
# Density = 1.972401 g / cm^3
# Si number density = 19.769005 Si / 1000 Ang^3
#
#
#
# Elastic Constant Matrix: (Units=GPa)
#
#
# Indices 1 2 3 4 5 6 
#
# 1 62.9886 4.2644 18.9212 0.0000 -26.3486 0.0000
# 2 4.2644 58.6061 21.8180 0.0000 -7.2493 0.0000
# 3 18.9212 21.8180 108.0515 0.0000 -21.8650 0.0000
# 4 0.0000 0.0000 0.0000 23.0723 0.0000 -12.0906
# 5 -26.3486 -7.2493 -21.8650 0.0000 31.0566 0.0000
# 6 0.0000 0.0000 0.0000 -12.0906 0.0000 32.2072
#
#
#
# Elastic Compliance Matrix: (Units=1/GPa)
#
#
# Indices 1 2 3 4 5 6 
#
# 1 0.024654 0.000893 -0.000260 0.000000 0.020942 0.000000
# 2 0.000893 0.018586 -0.003356 0.000000 0.002733 0.000000
# 3 -0.000260 -0.003356 0.011399 0.000000 0.007021 0.000000
# 4 0.000000 0.000000 0.000000 0.053956 0.000000 0.020255
# 5 0.020942 0.002733 0.007021 0.000000 0.055548 0.000000
# 6 0.000000 0.000000 0.000000 0.020255 0.000000 0.038653
#
#
# Mechanical properties :
#
#
# Convention : Reuss Voigt Hill
#
# Bulk Modulus (GPa) = 20.32823 35.51702 27.92262
# Shear Modulus (GPa) = 22.25802 29.57674 25.91738
#
# Velocity S-wave (km/s) = 3.35909 3.87216 3.62472
# Velocity P-wave (km/s) = 5.03486 6.16413 5.62790
#
# Compressibility (1/GPa) = 0.04919268
#
# Stress axis : x y z
#
# Youngs Moduli (GPa) = 40.56197 53.80504 87.72814
#
# Poissons Ratio (x) = -0.04806 0.02279
# Poissons Ratio (y) = -0.03623 0.29443
# Poissons Ratio (z) = 0.01054 0.18058
#
# Static dielectric constant tensor:
#      x y z
#    x 1.691250 0.000000 -0.014550 
#    y 0.000000 1.766090 0.000000 
#    z -0.014550 0.000000 1.724910 
# 
# From -- ./inp_files/223896.got.cif
#   From: 2010.05.17/outbox.cif.g08.bks.cpg/sg15_112_cif.got.tgz:223896.got - 2010.06.03 18:47:42.
