data_PCOD9277742
_publ_section_title
;
Structure prediction by ZEFSAII (Michael W. Deem and Ramdas Pophale) SiO2 
 PCOD9277742
Probable space group: C 2/C
;
_chemical_formula_sum "Si O2"
_cell_formula_units_Z 56
_cell_length_a 20.832581
_cell_length_b 9.281931
_cell_length_c 13.939411
_cell_angle_alpha 90.000000
_cell_angle_beta 98.963594
_cell_angle_gamma 90.000000
_cell_volume 2662.498562
_symmetry_space_group_name_H-M "C 2/C"
_symmetry_group_IT_number 15
_symmetry_cell_setting 'monoclinic'
loop_
_space_group_symop_operation_xyz
x,y,z
-x,y,1/2-z
-x,-y,-z
x,-y,1/2+z
1/2+x,1/2+y,z
1/2-x,1/2+y,1/2-z
1/2-x,1/2-y,-z
1/2+x,1/2-y,1/2+z
loop_
_atom_site_type_symbol
_atom_site_label
_atom_site_fract_x
_atom_site_fract_y
_atom_site_fract_z
Si Si1 0.298547 0.262432 0.218615
Si Si2 0.903793 0.358984 0.857612
Si Si3 0.776621 0.998300 0.871741
Si Si4 0.349093 0.011075 0.529374
Si Si5 0.510080 0.110782 0.862014
Si Si6 0.353957 0.324532 0.037905
Si Si7 0.996581 0.837571 0.031360
O O1 0.362678 0.166337 0.253286
O O2 0.242155 0.146180 0.191723
O O3 0.291605 0.373165 0.303250
O O4 0.310656 0.344323 0.122129
O O5 0.958377 0.482049 0.864201
O O6 0.854637 0.402495 0.931270
O O7 0.942253 0.215328 0.894024
O O8 0.713652 0.041920 0.920477
O O9 0.833097 0.943288 0.955725
O O10 0.417238 0.051528 0.598474
O O11 0.343060 0.841197 0.503634
O O12 0.500000 0.161085 0.750000
O O13 0.494847 0.232126 0.938050
O O14 0.430274 0.327275 0.075273
O O15 0.000000 0.000000 0.000000
#
# Coordination Sequence:
#
# PCOD9277742 Si02
#       7
#     8   8   8   8   8   8   8
#     4  11  26  43  67  99 124 180 218 271 324 398
#     4  11  22  41  70  96 129 168 226 264 328 391
#     4  11  26  43  66  96 132 171 226 261 335 386
#     4  10  20  41  68  93 128 176 207 277 318 389
#     4  11  21  40  68 101 123 167 226 269 323 390
#     4  11  22  45  66  90 139 172 211 267 336 389
#     4  11  23  43  64  95 136 171 210 271 337 387
#
# _framework density 21.032875000000001
#
# number of rings (size 3 to 8) (size 9 to 14) (size 15 to 20)
#    0.000    1.143    2.857    5.143    4.000    1.714 
#   10.286    0.000    0.000    0.000    0.000    0.000 
#    0.000    0.000    0.000    0.000    0.000    0.000 
#
# Total GULP energy -156499.401252 kJ/mol
# GULP energy per Si atom -5589.264330 kJ/mol
# Density = 2.098500 g / cm^3
# Si number density = 21.032875 Si / 1000 Ang^3
#
#
#
# Elastic Constant Matrix: (Units=GPa)
#
#
# Indices 1 2 3 4 5 6 
#
# 1 61.4540 18.3357 9.1534 0.0000 -14.6888 0.0000
# 2 18.3357 51.3307 0.5016 0.0000 -17.0290 0.0000
# 3 9.1534 0.5016 41.8578 0.0000 9.1900 0.0000
# 4 0.0000 0.0000 0.0000 39.8444 0.0000 -4.0164
# 5 -14.6888 -17.0290 9.1900 0.0000 24.8062 0.0000
# 6 0.0000 0.0000 0.0000 -4.0164 0.0000 16.7884
#
#
#
# Elastic Compliance Matrix: (Units=1/GPa)
#
#
# Indices 1 2 3 4 5 6 
#
# 1 0.021561 -0.003179 -0.007620 0.000000 0.013408 0.000000
# 2 -0.003179 0.026487 -0.003484 0.000000 0.017591 0.000000
# 3 -0.007620 -0.003484 0.029515 0.000000 -0.017839 0.000000
# 4 0.000000 0.000000 0.000000 0.025718 0.000000 0.006153
# 5 0.013408 0.017591 -0.017839 0.000000 0.066937 0.000000
# 6 0.000000 0.000000 0.000000 0.006153 0.000000 0.061037
#
#
# Mechanical properties :
#
#
# Convention : Reuss Voigt Hill
#
# Bulk Modulus (GPa) = 20.41029 23.40264 21.90647
# Shear Modulus (GPa) = 18.10585 24.73125 21.41855
#
# Velocity S-wave (km/s) = 2.93718 3.43277 3.19460
# Velocity P-wave (km/s) = 4.60736 5.18293 4.90360
#
# Compressibility (1/GPa) = 0.04899490
#
# Stress axis : x y z
#
# Youngs Moduli (GPa) = 46.38082 37.75426 33.88088
#
# Poissons Ratio (x) = 0.12003 0.25819
# Poissons Ratio (y) = 0.14745 0.11805
# Poissons Ratio (z) = 0.35344 0.13155
#
# Static dielectric constant tensor:
#      x y z
#    x 1.782110 0.000000 0.008370 
#    y 0.000000 1.740530 0.000000 
#    z 0.008370 0.000000 1.767810 
# 
# From -- ./inp_files/166638.got.cif
#   From: 2010.05.17/outbox.cif.g08.bks.cpg/sg15_84_cif.got.tgz:166638.got - 2010.06.03 18:47:42.
