data_PCOD9277385
_publ_section_title
;
Structure prediction by ZEFSAII (Michael W. Deem and Ramdas Pophale) SiO2 
 PCOD9277385
Probable space group: C 2/C
;
_chemical_formula_sum "Si O2"
_cell_formula_units_Z 48
_cell_length_a 8.996531
_cell_length_b 28.327198
_cell_length_c 10.064087
_cell_angle_alpha 90.000000
_cell_angle_beta 89.752563
_cell_angle_gamma 90.000000
_cell_volume 2564.773581
_symmetry_space_group_name_H-M "C 2/C"
_symmetry_group_IT_number 15
_symmetry_cell_setting 'monoclinic'
loop_
_space_group_symop_operation_xyz
x,y,z
-x,y,1/2-z
-x,-y,-z
x,-y,1/2+z
1/2+x,1/2+y,z
1/2-x,1/2+y,1/2-z
1/2-x,1/2-y,-z
1/2+x,1/2-y,1/2+z
loop_
_atom_site_type_symbol
_atom_site_label
_atom_site_fract_x
_atom_site_fract_y
_atom_site_fract_z
Si Si1 0.825082 0.895163 0.781347
Si Si2 0.825579 0.386932 0.243013
Si Si3 0.859652 0.202939 0.655487
Si Si4 0.640954 0.291799 0.654561
Si Si5 0.185366 0.547500 0.511271
Si Si6 0.836824 0.438012 0.970700
O O1 0.781811 0.840562 0.801709
O O2 0.792746 0.924034 0.914558
O O3 0.732574 0.918033 0.662801
O O4 0.000000 0.896103 0.750000
O O5 0.725844 0.344201 0.296484
O O6 0.804946 0.431624 0.340747
O O7 0.000000 0.373211 0.250000
O O8 0.794336 0.404421 0.094138
O O9 0.749006 0.247348 0.665766
O O10 0.903569 0.200573 0.499649
O O11 0.000000 0.209655 0.750000
O O12 0.500000 0.284365 0.750000
O O13 0.214111 0.491874 0.506406
O O14 0.016203 0.558128 0.464781
#
# Coordination Sequence:
#
# PCOD9277385 Si02
#       6
#     8   8   8   8   8   8
#     4  11  23  39  60  91 126 162 195 254 306 358
#     4  10  21  38  61  91 122 160 201 254 303 355
#     4  11  24  42  67  91 120 161 200 251 305 362
#     4  10  24  45  62  91 127 156 201 250 301 368
#     4  10  20  41  61  89 123 160 211 255 293 357
#     4  10  22  37  65  89 120 165 209 250 299 354
#
# _framework density 18.715101000000001
#
# number of rings (size 3 to 8) (size 9 to 14) (size 15 to 20)
#    0.000    1.667    1.667    2.000    4.667    5.333 
#    3.000    1.667    0.000    0.000    0.000    0.000 
#    0.000    0.000    0.000    0.000    0.000    0.000 
#
# Total GULP energy -134082.560704 kJ/mol
# GULP energy per Si atom -5586.773363 kJ/mol
# Density = 1.867250 g / cm^3
# Si number density = 18.715101 Si / 1000 Ang^3
#
#
#
# Elastic Constant Matrix: (Units=GPa)
#
#
# Indices 1 2 3 4 5 6 
#
# 1 33.5915 31.8047 42.5751 0.0000 -6.2909 0.0000
# 2 31.8047 103.3692 30.6620 0.0000 -6.3266 0.0000
# 3 42.5751 30.6620 107.7294 0.0000 -5.6026 0.0000
# 4 0.0000 0.0000 0.0000 29.4480 0.0000 -2.7390
# 5 -6.2909 -6.3266 -5.6026 0.0000 34.2127 0.0000
# 6 0.0000 0.0000 0.0000 -2.7390 0.0000 31.5590
#
#
#
# Elastic Compliance Matrix: (Units=1/GPa)
#
#
# Indices 1 2 3 4 5 6 
#
# 1 0.080733 -0.016423 -0.026846 0.000000 0.007412 0.000000
# 2 -0.016423 0.013981 0.002510 0.000000 -0.000023 0.000000
# 3 -0.026846 0.002510 0.019108 0.000000 -0.001343 0.000000
# 4 0.000000 0.000000 0.000000 0.034235 0.000000 0.002971
# 5 0.007412 -0.000023 -0.001343 0.000000 0.030367 0.000000
# 6 0.000000 0.000000 0.000000 0.002971 0.000000 0.031945
#
#
# Mechanical properties :
#
#
# Convention : Reuss Voigt Hill
#
# Bulk Modulus (GPa) = 30.95647 50.53042 40.74345
# Shear Modulus (GPa) = 16.52046 28.35382 22.43714
#
# Velocity S-wave (km/s) = 2.97431 3.89655 3.46624
# Velocity P-wave (km/s) = 5.32655 6.87769 6.15121
#
# Compressibility (1/GPa) = 0.03230342
#
# Stress axis : x y z
#
# Youngs Moduli (GPa) = 12.38653 71.52477 52.33401
#
# Poissons Ratio (x) = 1.17465 1.40497
# Poissons Ratio (y) = 0.20342 -0.13135
# Poissons Ratio (z) = 0.33253 -0.17952
#
# Static dielectric constant tensor:
#      x y z
#    x 1.624700 0.000000 -0.012720 
#    y 0.000000 1.625440 0.000000 
#    z -0.012720 0.000000 1.625610 
# 
# From -- ./inp_files/26055.got.cif
#   From: 2010.05.17/outbox.cif.g08.bks.cpg/sg15_14_cif.got.tgz:26055.got - 2010.06.03 18:47:42.
