data_PCOD9277773
_publ_section_title
;
Structure prediction by ZEFSAII (Michael W. Deem and Ramdas Pophale) SiO2 
 PCOD9277773
Probable space group: C 2/C
;
_chemical_formula_sum "Si O2"
_cell_formula_units_Z 52
_cell_length_a 10.973373
_cell_length_b 28.617238
_cell_length_c 8.927438
_cell_angle_alpha 90.000000
_cell_angle_beta 101.846667
_cell_angle_gamma 90.000000
_cell_volume 2743.749836
_symmetry_space_group_name_H-M "C 2/C"
_symmetry_group_IT_number 15
_symmetry_cell_setting 'monoclinic'
loop_
_space_group_symop_operation_xyz
x,y,z
-x,y,1/2-z
-x,-y,-z
x,-y,1/2+z
1/2+x,1/2+y,z
1/2-x,1/2+y,1/2-z
1/2-x,1/2-y,-z
1/2+x,1/2-y,1/2+z
loop_
_atom_site_type_symbol
_atom_site_label
_atom_site_fract_x
_atom_site_fract_y
_atom_site_fract_z
Si Si1 0.376227 0.741521 0.442355
Si Si2 0.886365 0.361138 0.938324
Si Si3 0.133369 0.140693 0.211367
Si Si4 0.952610 0.454706 0.573116
Si Si5 0.841716 0.052571 0.458501
Si Si6 0.500000 0.812933 0.250000
Si Si7 0.500000 0.498298 0.250000
Si Si8 0.000000 0.283337 0.750000
O O1 0.250000 0.750000 0.500000
O O2 0.368236 0.693467 0.350341
O O3 0.411552 0.780994 0.330963
O O4 0.470148 0.748715 0.604452
O O5 0.743327 0.371696 0.857732
O O6 0.915915 0.321571 0.819164
O O7 0.979716 0.405680 0.953213
O O8 0.914351 0.341060 0.110553
O O9 0.148533 0.107240 0.073061
O O10 0.000000 0.131763 0.250000
O O11 0.803136 0.454954 0.540628
O O12 0.000000 0.462014 0.750000
O O13 0.000000 0.500000 0.500000
O O14 0.900325 0.028040 0.323765
O O15 0.923677 0.033175 0.614422
#
# Coordination Sequence:
#
# PCOD9277773 Si02
#       8
#     8   8   8   8   8   4   4   4
#     4  11  23  41  67  98 133 176 223 276 329 407
#     4  11  23  45  65  95 138 175 218 289 337 392
#     4  12  24  42  67  97 136 176 220 271 345 404
#     4  12  25  42  69 100 131 177 228 280 333 404
#     4  11  23  45  66  97 133 176 220 269 343 395
#     4  10  26  43  65 100 130 177 229 274 338 398
#     4  10  24  44  70  92 138 174 212 280 332 408
#     4  10  20  41  69  92 132 177 215 276 342 378
#
# _framework density 18.952165000000001
#
# number of rings (size 3 to 8) (size 9 to 14) (size 15 to 20)
#    0.000    0.923    5.385    0.923    3.231    2.462 
#    2.769    0.000    0.000    0.000    0.000    0.000 
#    0.000    0.000    0.000    0.000    0.000    0.000 
#
# Total GULP energy -144795.410482 kJ/mol
# GULP energy per Si atom -5569.054249 kJ/mol
# Density = 1.890903 g / cm^3
# Si number density = 18.952165 Si / 1000 Ang^3
#
#
#
# Elastic Constant Matrix: (Units=GPa)
#
#
# Indices 1 2 3 4 5 6 
#
# 1 149.5277 48.1887 45.9647 0.0000 5.9669 0.0000
# 2 48.1887 102.5507 58.7792 0.0000 7.3389 0.0000
# 3 45.9647 58.7792 134.5548 0.0000 -1.8683 0.0000
# 4 0.0000 0.0000 0.0000 30.5032 0.0000 -3.6649
# 5 5.9669 7.3389 -1.8683 0.0000 30.6927 0.0000
# 6 0.0000 0.0000 0.0000 -3.6649 0.0000 25.6579
#
#
#
# Elastic Compliance Matrix: (Units=1/GPa)
#
#
# Indices 1 2 3 4 5 6 
#
# 1 0.008123 -0.002865 -0.001537 0.000000 -0.000988 0.000000
# 2 -0.002865 0.014397 -0.005355 0.000000 -0.003211 0.000000
# 3 -0.001537 -0.005355 0.010327 0.000000 0.002208 0.000000
# 4 0.000000 0.000000 0.000000 0.033356 0.000000 0.004764
# 5 -0.000988 -0.003211 0.002208 0.000000 0.033675 0.000000
# 6 0.000000 0.000000 0.000000 0.004764 0.000000 0.039655
#
#
# Mechanical properties :
#
#
# Convention : Reuss Voigt Hill
#
# Bulk Modulus (GPa) = 75.00577 76.94427 75.97502
# Shear Modulus (GPa) = 30.58273 32.95082 31.76677
#
# Velocity S-wave (km/s) = 4.02142 4.17421 4.09853
# Velocity P-wave (km/s) = 7.82462 7.99496 7.91025
#
# Compressibility (1/GPa) = 0.01333231
#
# Stress axis : x y z
#
# Youngs Moduli (GPa) = 123.10696 69.45974 96.83557
#
# Poissons Ratio (x) = 0.19904 0.14882
# Poissons Ratio (y) = 0.35276 0.51854
# Poissons Ratio (z) = 0.18919 0.37195
#
# Static dielectric constant tensor:
#      x y z
#    x 1.672180 0.000000 0.013930 
#    y 0.000000 1.574690 0.000000 
#    z 0.013930 0.000000 1.575970 
# 
# From -- ./inp_files/33754.got.cif
#   From: 2010.05.17/outbox.cif.g08.bks.cpg/sg15_17_cif.got.tgz:33754.got - 2010.06.03 18:47:42.
