data_PCOD9277381
_publ_section_title
;
Structure prediction by ZEFSAII (Michael W. Deem and Ramdas Pophale) SiO2 
 PCOD9277381
Probable space group: C 2/C
;
_chemical_formula_sum "Si O2"
_cell_formula_units_Z 52
_cell_length_a 15.277950
_cell_length_b 13.246237
_cell_length_c 13.633914
_cell_angle_alpha 90.000000
_cell_angle_beta 52.737585
_cell_angle_gamma 90.000000
_cell_volume 2195.941375
_symmetry_space_group_name_H-M "C 2/C"
_symmetry_group_IT_number 15
_symmetry_cell_setting 'monoclinic'
loop_
_space_group_symop_operation_xyz
x,y,z
-x,y,1/2-z
-x,-y,-z
x,-y,1/2+z
1/2+x,1/2+y,z
1/2-x,1/2+y,1/2-z
1/2-x,1/2-y,-z
1/2+x,1/2-y,1/2+z
loop_
_atom_site_type_symbol
_atom_site_label
_atom_site_fract_x
_atom_site_fract_y
_atom_site_fract_z
Si Si1 0.076095 0.683281 0.855590
Si Si2 0.879876 0.172886 0.818065
Si Si3 0.799561 0.682309 0.215328
Si Si4 0.346183 0.999949 0.825442
Si Si5 0.367761 0.141769 0.475321
Si Si6 0.500000 0.325746 0.750000
Si Si7 0.236931 0.862238 0.552049
O O1 0.186630 0.752754 0.785596
O O2 0.094770 0.583052 0.780130
O O3 0.058681 0.651089 0.978780
O O4 0.995075 0.753533 0.848872
O O5 0.878022 0.236894 0.717447
O O6 0.760074 0.119271 0.906501
O O7 0.000000 0.122495 0.750000
O O8 0.871449 0.254311 0.912245
O O9 0.795283 0.587585 0.292193
O O10 0.814153 0.637750 0.096212
O O11 0.259776 0.064876 0.946504
O O12 0.406831 0.942270 0.873143
O O13 0.613833 0.383771 0.673318
O O14 0.250000 0.750000 0.500000
#
# Coordination Sequence:
#
# PCOD9277381 Si02
#       7
#     8   8   8   8   8   4   8
#     4  10  20  41  61  86 126 162 199 254 300 355
#     4   9  18  37  61  90 121 159 197 250 306 357
#     4   9  20  37  63  89 118 159 205 241 297 366
#     4  11  20  39  66  88 121 163 200 249 312 358
#     4   9  20  37  60  88 123 155 201 254 302 355
#     4  10  22  40  62  88 122 162 210 240 302 372
#     4  11  21  41  63  86 123 168 195 248 307 354
#
# _framework density 23.680050000000001
#
# number of rings (size 3 to 8) (size 9 to 14) (size 15 to 20)
#    0.000    2.154    3.077    1.846    0.000    1.231 
#    6.923    3.846    0.000    0.000    0.000    0.000 
#    0.000    0.000    0.000    0.000    0.000    0.000 
#
# Total GULP energy -145170.350853 kJ/mol
# GULP energy per Si atom -5583.475033 kJ/mol
# Density = 2.362615 g / cm^3
# Si number density = 23.680050 Si / 1000 Ang^3
#
#
#
# Elastic Constant Matrix: (Units=GPa)
#
#
# Indices 1 2 3 4 5 6 
#
# 1 124.4742 -5.5880 28.7732 0.0000 8.1285 0.0000
# 2 -5.5880 52.0924 -1.3364 0.0000 5.6761 0.0000
# 3 28.7732 -1.3364 82.3414 0.0000 14.9252 0.0000
# 4 0.0000 0.0000 0.0000 30.1361 0.0000 5.5633
# 5 8.1285 5.6761 14.9252 0.0000 60.0824 0.0000
# 6 0.0000 0.0000 0.0000 5.5633 0.0000 19.2758
#
#
#
# Elastic Compliance Matrix: (Units=1/GPa)
#
#
# Indices 1 2 3 4 5 6 
#
# 1 0.008795 0.000927 -0.002960 0.000000 -0.000542 0.000000
# 2 0.000927 0.019530 0.000367 0.000000 -0.002062 0.000000
# 3 -0.002960 0.000367 0.013737 0.000000 -0.003047 0.000000
# 4 0.000000 0.000000 0.000000 0.035050 0.000000 -0.010116
# 5 -0.000542 -0.002062 -0.003047 0.000000 0.017669 0.000000
# 6 0.000000 0.000000 0.000000 -0.010116 0.000000 0.054798
#
#
# Mechanical properties :
#
#
# Convention : Reuss Voigt Hill
#
# Bulk Modulus (GPa) = 25.82036 33.62282 29.72159
# Shear Modulus (GPa) = 30.15277 37.70281 33.92779
#
# Velocity S-wave (km/s) = 3.57226 3.99454 3.78929
# Velocity P-wave (km/s) = 5.28604 5.95858 5.63236
#
# Compressibility (1/GPa) = 0.03872912
#
# Stress axis : x y z
#
# Youngs Moduli (GPa) = 113.70072 51.20299 72.79560
#
# Poissons Ratio (x) = -0.04744 0.21548
# Poissons Ratio (y) = -0.10535 -0.02671
# Poissons Ratio (z) = 0.33656 -0.01879
#
# Static dielectric constant tensor:
#      x y z
#    x 1.930950 0.000000 -0.042700 
#    y 0.000000 1.882760 0.000000 
#    z -0.042700 0.000000 1.955810 
# 
# From -- ./inp_files/153864.got.cif
#   From: 2010.05.17/outbox.cif.g08.bks.cpg/sg15_77_cif.got.tgz:153864.got - 2010.06.03 18:47:42.
