data_PCOD9277840
_publ_section_title
;
Structure prediction by ZEFSAII (Michael W. Deem and Ramdas Pophale) SiO2 
 PCOD9277840
Probable space group: C 2/C
;
_chemical_formula_sum "Si O2"
_cell_formula_units_Z 52
_cell_length_a 7.744877
_cell_length_b 20.104237
_cell_length_c 15.438820
_cell_angle_alpha 90.000000
_cell_angle_beta 66.504970
_cell_angle_gamma 90.000000
_cell_volume 2204.602972
_symmetry_space_group_name_H-M "C 2/C"
_symmetry_group_IT_number 15
_symmetry_cell_setting 'monoclinic'
loop_
_space_group_symop_operation_xyz
x,y,z
-x,y,1/2-z
-x,-y,-z
x,-y,1/2+z
1/2+x,1/2+y,z
1/2-x,1/2+y,1/2-z
1/2-x,1/2-y,-z
1/2+x,1/2-y,1/2+z
loop_
_atom_site_type_symbol
_atom_site_label
_atom_site_fract_x
_atom_site_fract_y
_atom_site_fract_z
Si Si1 0.290577 0.278699 0.894902
Si Si2 0.500000 0.469352 0.250000
Si Si3 0.227757 0.745836 0.794446
Si Si4 0.609707 0.423588 0.600604
Si Si5 0.850199 0.394277 0.213651
Si Si6 0.817979 0.617525 0.341945
Si Si7 0.879515 0.495042 0.438520
O O1 0.511123 0.266599 0.840586
O O2 0.205716 0.251316 0.820518
O O3 0.267704 0.358673 0.900891
O O4 0.250000 0.250000 0.000000
O O5 0.375998 0.516452 0.335278
O O6 0.652205 0.428940 0.276434
O O7 0.226422 0.669316 0.825165
O O8 0.319633 0.802255 0.837164
O O9 0.390090 0.403445 0.649262
O O10 0.690164 0.452892 0.495275
O O11 0.000000 0.361852 0.250000
O O12 0.988802 0.450833 0.149435
O O13 0.836166 0.570390 0.420798
O O14 0.000000 0.596782 0.250000
O O15 0.000000 0.500000 0.500000
#
# Coordination Sequence:
#
# PCOD9277840 Si02
#       7
#     8   4   8   8   8   8   8
#     4  10  20  41  72 101 133 183 244 298 367 451
#     4  12  24  42  66 108 142 192 240 304 380 448
#     4  10  23  44  67 101 142 192 244 298 376 449
#     4  11  23  42  72 101 142 181 241 301 371 451
#     4  12  25  46  73 103 149 193 246 307 380 447
#     4  11  25  46  72 101 142 197 239 303 379 453
#     4  12  25  44  69 107 144 187 249 315 373 448
#
# _framework density 23.587012999999999
#
# number of rings (size 3 to 8) (size 9 to 14) (size 15 to 20)
#    0.000    0.923    3.077    5.538    3.231    0.000 
#    2.769    0.769    0.000    0.000    0.000    0.000 
#    0.000    0.000    0.000    0.000    0.000    0.000 
#
# Total GULP energy -144810.028103 kJ/mol
# GULP energy per Si atom -5569.616466 kJ/mol
# Density = 2.353333 g / cm^3
# Si number density = 23.587013 Si / 1000 Ang^3
#
#
#
# Elastic Constant Matrix: (Units=GPa)
#
#
# Indices 1 2 3 4 5 6 
#
# 1 75.7603 27.8728 20.7944 0.0000 -22.4941 0.0000
# 2 27.8728 146.1169 25.0511 0.0000 2.8120 0.0000
# 3 20.7944 25.0511 80.3937 0.0000 -18.2276 0.0000
# 4 0.0000 0.0000 0.0000 30.7843 0.0000 5.4057
# 5 -22.4941 2.8120 -18.2276 0.0000 29.2741 0.0000
# 6 0.0000 0.0000 0.0000 5.4057 0.0000 1.1501
#
#
#
# Elastic Compliance Matrix: (Units=1/GPa)
#
#
# Indices 1 2 3 4 5 6 
#
# 1 0.019133 -0.003870 -0.000379 0.000000 0.014838 0.000000
# 2 -0.003870 0.008166 -0.002789 0.000000 -0.005495 0.000000
# 3 -0.000379 -0.002789 0.015604 0.000000 0.009693 0.000000
# 4 0.000000 0.000000 0.000000 0.185980 0.000000 -0.874133
# 5 0.014838 -0.005495 0.009693 0.000000 0.052124 0.000000
# 6 0.000000 0.000000 0.000000 -0.874133 0.000000 4.978047
#
#
# Mechanical properties :
#
#
# Convention : Reuss Voigt Hill
#
# Bulk Modulus (GPa) = 34.69151 49.96749 42.32950
# Shear Modulus (GPa) = 0.94648 27.47855 14.21251
#
# Velocity S-wave (km/s) = 0.63415 3.41689 2.45737
# Velocity P-wave (km/s) = 3.90845 6.06607 5.10261
#
# Compressibility (1/GPa) = 0.02882550
#
# Stress axis : x y z
#
# Youngs Moduli (GPa) = 52.26614 122.45713 64.08808
#
# Poissons Ratio (x) = 0.47395 0.02427
# Poissons Ratio (y) = 0.20229 0.17877
# Poissons Ratio (z) = 0.01979 0.34159
#
# Static dielectric constant tensor:
#      x y z
#    x 1.940820 0.000000 0.069060 
#    y 0.000000 1.982360 0.000000 
#    z 0.069060 0.000000 1.992340 
# 
# From -- ./inp_files/190840.got.cif
#   From: 2010.05.17/outbox.cif.g08.bks.cpg/sg15_96_cif.got.tgz:190840.got - 2010.06.03 18:47:42.
