data_PCOD9277310
_publ_section_title
;
Structure prediction by ZEFSAII (Michael W. Deem and Ramdas Pophale) SiO2 
 PCOD9277310
Probable space group: C 2/C
;
_chemical_formula_sum "Si O2"
_cell_formula_units_Z 44
_cell_length_a 13.682472
_cell_length_b 7.265175
_cell_length_c 19.060715
_cell_angle_alpha 90.000000
_cell_angle_beta 72.718512
_cell_angle_gamma 90.000000
_cell_volume 1809.206313
_symmetry_space_group_name_H-M "C 2/C"
_symmetry_group_IT_number 15
_symmetry_cell_setting 'monoclinic'
loop_
_space_group_symop_operation_xyz
x,y,z
-x,y,1/2-z
-x,-y,-z
x,-y,1/2+z
1/2+x,1/2+y,z
1/2-x,1/2+y,1/2-z
1/2-x,1/2-y,-z
1/2+x,1/2-y,1/2+z
loop_
_atom_site_type_symbol
_atom_site_label
_atom_site_fract_x
_atom_site_fract_y
_atom_site_fract_z
Si Si1 0.019606 0.277027 0.992128
Si Si2 0.151562 0.718802 0.599196
Si Si3 0.500000 0.753229 0.250000
Si Si4 0.701736 0.615244 0.453325
Si Si5 0.679705 0.147899 0.347621
Si Si6 0.678337 0.256866 0.802961
O O1 0.079942 0.228931 0.050244
O O2 0.918348 0.155850 0.009938
O O3 0.090812 0.252076 0.908994
O O4 0.000000 0.500000 0.000000
O O5 0.077666 0.649297 0.678475
O O6 0.232072 0.569540 0.554245
O O7 0.224204 0.872933 0.618942
O O8 0.418693 0.651763 0.216092
O O9 0.750000 0.750000 0.500000
O O10 0.713237 0.657731 0.368101
O O11 0.728147 0.251819 0.271403
O O12 0.644226 0.949767 0.329160
#
# Coordination Sequence:
#
# PCOD9277310 Si02
#       6
#     8   8   4   8   8   8
#     4  12  22  44  72 100 140 187 233 288 361 422
#     4  11  23  42  71 103 141 183 231 293 358 422
#     4  10  20  40  72  92 132 192 222 282 356 408
#     4  12  24  41  73 103 133 182 238 286 349 438
#     4  11  24  42  70 100 138 183 234 295 355 426
#     4  11  22  43  68  99 136 181 238 284 352 427
#
# _framework density 24.320059000000001
#
# number of rings (size 3 to 8) (size 9 to 14) (size 15 to 20)
#    0.000    0.727    5.455    2.727    0.000    0.727 
#    0.000    0.000   12.000    0.000    0.000    0.000 
#    0.000    0.000    0.000    0.000    0.000    0.000 
#
# Total GULP energy -122989.839756 kJ/mol
# GULP energy per Si atom -5590.447262 kJ/mol
# Density = 2.426471 g / cm^3
# Si number density = 24.320059 Si / 1000 Ang^3
#
#
#
# Elastic Constant Matrix: (Units=GPa)
#
#
# Indices 1 2 3 4 5 6 
#
# 1 190.3512 37.8738 79.9389 0.0000 7.5612 0.0000
# 2 37.8738 59.5293 21.8971 0.0000 2.8198 0.0000
# 3 79.9389 21.8971 188.8989 0.0000 -11.8156 0.0000
# 4 0.0000 0.0000 0.0000 33.8179 0.0000 0.6656
# 5 7.5612 2.8198 -11.8156 0.0000 60.7099 0.0000
# 6 0.0000 0.0000 0.0000 0.6656 0.0000 30.0121
#
#
#
# Elastic Compliance Matrix: (Units=1/GPa)
#
#
# Indices 1 2 3 4 5 6 
#
# 1 0.007126 -0.003485 -0.002690 0.000000 -0.001249 0.000000
# 2 -0.003485 0.019342 -0.000806 0.000000 -0.000621 0.000000
# 3 -0.002690 -0.000806 0.006630 0.000000 0.001663 0.000000
# 4 0.000000 0.000000 0.000000 0.029583 0.000000 -0.000656
# 5 -0.001249 -0.000621 0.001663 0.000000 0.016980 0.000000
# 6 0.000000 0.000000 0.000000 -0.000656 0.000000 0.033334
#
#
# Mechanical properties :
#
#
# Convention : Reuss Voigt Hill
#
# Bulk Modulus (GPa) = 52.25946 79.79988 66.02967
# Shear Modulus (GPa) = 37.49949 44.84596 41.17273
#
# Velocity S-wave (km/s) = 3.93098 4.29883 4.11902
# Velocity P-wave (km/s) = 6.49141 7.58443 7.05910
#
# Compressibility (1/GPa) = 0.01913529
#
# Stress axis : x y z
#
# Youngs Moduli (GPa) = 140.32936 51.70173 150.83984
#
# Poissons Ratio (x) = 0.18019 0.40573
# Poissons Ratio (y) = 0.48908 0.12159
# Poissons Ratio (z) = 0.37745 0.04167
#
# Static dielectric constant tensor:
#      x y z
#    x 1.957230 0.000000 -0.009830 
#    y 0.000000 1.983460 0.000000 
#    z -0.009830 0.000000 1.968330 
# 
# From -- ./inp_files/236076.got.cif
#   From: 2010.05.17/outbox.cif.g08.bks.cpg/sg15_119_cif.got.tgz:236076.got - 2010.06.03 18:47:42.
