data_PCOD9277765
_publ_section_title
;
Structure prediction by ZEFSAII (Michael W. Deem and Ramdas Pophale) SiO2 
 PCOD9277765
Probable space group: C 2/C
;
_chemical_formula_sum "Si O2"
_cell_formula_units_Z 32
_cell_length_a 17.887570
_cell_length_b 9.943387
_cell_length_c 8.377358
_cell_angle_alpha 90.000000
_cell_angle_beta 127.151297
_cell_angle_gamma 90.000000
_cell_volume 1187.612661
_symmetry_space_group_name_H-M "C 2/C"
_symmetry_group_IT_number 15
_symmetry_cell_setting 'monoclinic'
loop_
_space_group_symop_operation_xyz
x,y,z
-x,y,1/2-z
-x,-y,-z
x,-y,1/2+z
1/2+x,1/2+y,z
1/2-x,1/2+y,1/2-z
1/2-x,1/2-y,-z
1/2+x,1/2-y,1/2+z
loop_
_atom_site_type_symbol
_atom_site_label
_atom_site_fract_x
_atom_site_fract_y
_atom_site_fract_z
Si Si1 0.845263 0.116358 0.948612
Si Si2 0.723311 0.361219 0.803678
Si Si3 0.593815 0.950719 0.264739
Si Si4 0.021060 0.729083 0.099887
O O1 0.760799 0.218432 0.790861
O O2 0.934480 0.163647 0.962470
O O3 0.815268 0.965078 0.873359
O O4 0.850879 0.138662 0.145322
O O5 0.815785 0.418232 0.014853
O O6 0.500000 0.935062 0.250000
O O7 0.594976 0.105636 0.213594
O O8 0.568399 0.147540 0.584889
O O9 0.000000 0.782360 0.250000
#
# Coordination Sequence:
#
# PCOD9277765 Si02
#       4
#     8   8   8   8
#     4  11  25  47  69 108 140 188 234 292 354 418
#     4  11  25  45  75 103 145 182 234 295 353 422
#     4  10  20  41  69 104 135 183 241 288 337 421
#     4  10  22  40  70 102 138 185 239 288 341 417
#
# _framework density 26.944811000000001
#
# number of rings (size 3 to 8) (size 9 to 14) (size 15 to 20)
#    0.000    1.500    2.500    1.500    7.000    4.000 
#    4.500    1.250    0.000    0.000    6.500    0.000 
#    0.000    0.000    0.000    0.000    0.000    0.000 
#
# Total GULP energy -89670.596550 kJ/mol
# GULP energy per Si atom -5604.412284 kJ/mol
# Density = 2.688348 g / cm^3
# Si number density = 26.944811 Si / 1000 Ang^3
#
#
#
# Elastic Constant Matrix: (Units=GPa)
#
#
# Indices 1 2 3 4 5 6 
#
# 1 146.0476 -0.4323 31.3322 0.0000 -17.0877 0.0000
# 2 -0.4323 75.3858 -3.8169 0.0000 -5.9269 0.0000
# 3 31.3322 -3.8169 47.3078 0.0000 1.0411 0.0000
# 4 0.0000 0.0000 0.0000 55.9955 0.0000 -2.0984
# 5 -17.0877 -5.9269 1.0411 0.0000 51.2484 0.0000
# 6 0.0000 0.0000 0.0000 -2.0984 0.0000 41.3777
#
#
#
# Elastic Compliance Matrix: (Units=1/GPa)
#
#
# Indices 1 2 3 4 5 6 
#
# 1 0.008394 -0.000008 -0.005624 0.000000 0.002912 0.000000
# 2 -0.000008 0.013439 0.001056 0.000000 0.001530 0.000000
# 3 -0.005624 0.001056 0.024998 0.000000 -0.002261 0.000000
# 4 0.000000 0.000000 0.000000 0.017893 0.000000 0.000907
# 5 0.002912 0.001530 -0.002261 0.000000 0.020707 0.000000
# 6 0.000000 0.000000 0.000000 0.000907 0.000000 0.024214
#
#
# Mechanical properties :
#
#
# Convention : Reuss Voigt Hill
#
# Bulk Modulus (GPa) = 26.54024 35.87857 31.20941
# Shear Modulus (GPa) = 38.06431 45.83486 41.94959
#
# Velocity S-wave (km/s) = 3.76264 4.12887 3.95000
# Velocity P-wave (km/s) = 5.36170 6.00621 5.69308
#
# Compressibility (1/GPa) = 0.03767863
#
# Stress axis : x y z
#
# Youngs Moduli (GPa) = 119.12666 74.41138 40.00296
#
# Poissons Ratio (x) = 0.00057 0.22499
# Poissons Ratio (y) = 0.00091 -0.04223
# Poissons Ratio (z) = 0.67001 -0.07855
#
# Static dielectric constant tensor:
#      x y z
#    x 2.194130 0.000000 -0.014270 
#    y 0.000000 2.167240 0.000000 
#    z -0.014270 0.000000 2.059140 
# 
# From -- ./inp_files/53939.got.cif
#   From: 2010.05.17/outbox.cif.g08.bks.cpg/sg15_27_cif.got.tgz:53939.got - 2010.06.03 18:47:42.
