data_PCOD9277990
_publ_section_title
;
Structure prediction by ZEFSAII (Michael W. Deem and Ramdas Pophale) SiO2 
 PCOD9277990
Probable space group: C 2/C
;
_chemical_formula_sum "Si O2"
_cell_formula_units_Z 56
_cell_length_a 28.037617
_cell_length_b 10.515476
_cell_length_c 8.440387
_cell_angle_alpha 90.000000
_cell_angle_beta 116.767381
_cell_angle_gamma 90.000000
_cell_volume 2221.811361
_symmetry_space_group_name_H-M "C 2/C"
_symmetry_group_IT_number 15
_symmetry_cell_setting 'monoclinic'
loop_
_space_group_symop_operation_xyz
x,y,z
-x,y,1/2-z
-x,-y,-z
x,-y,1/2+z
1/2+x,1/2+y,z
1/2-x,1/2+y,1/2-z
1/2-x,1/2-y,-z
1/2+x,1/2-y,1/2+z
loop_
_atom_site_type_symbol
_atom_site_label
_atom_site_fract_x
_atom_site_fract_y
_atom_site_fract_z
Si Si1 0.769209 0.625579 0.820630
Si Si2 0.074452 0.414855 0.471500
Si Si3 0.965490 0.094170 0.343641
Si Si4 0.165332 0.722847 0.291807
Si Si5 0.959593 0.651205 0.931465
Si Si6 0.139626 0.967960 0.419066
Si Si7 0.708127 0.375981 0.802005
O O1 0.717330 0.706128 0.799480
O O2 0.754352 0.474356 0.804420
O O3 0.785563 0.722141 0.699729
O O4 0.813261 0.645398 0.024425
O O5 0.128862 0.360308 0.622999
O O6 0.067731 0.565576 0.478669
O O7 0.066444 0.380925 0.277474
O O8 0.023269 0.370547 0.502131
O O9 0.949459 0.202560 0.441818
O O10 0.000000 0.149738 0.250000
O O11 0.914750 0.041559 0.176042
O O12 0.000000 0.000000 0.500000
O O13 0.132269 0.845916 0.296425
O O14 0.159406 0.912159 0.612898
O O15 0.187521 0.063225 0.434643
#
# Coordination Sequence:
#
# PCOD9277990 Si02
#       7
#     8   8   8   8   8   8   8
#     4   9  20  37  61  90 123 164 212 259 326 381
#     4  10  20  42  64  88 128 168 208 259 326 380
#     4  12  24  43  65  98 127 168 220 268 320 389
#     4   9  19  39  63  85 124 172 205 257 326 386
#     4  10  23  41  64  93 129 166 211 266 321 386
#     4  10  22  38  63  87 124 165 203 264 330 373
#     4  10  21  41  59  88 125 162 208 266 318 386
#
# _framework density 25.204660000000001
#
# number of rings (size 3 to 8) (size 9 to 14) (size 15 to 20)
#    0.000    2.000    1.429    2.571    4.000    1.714 
#   15.429    0.000    0.000    0.000    0.000    0.000 
#    0.000    0.000    0.000    0.000    0.000    0.000 
#
# Total GULP energy -156509.299980 kJ/mol
# GULP energy per Si atom -5589.617856 kJ/mol
# Density = 2.514729 g / cm^3
# Si number density = 25.204660 Si / 1000 Ang^3
#
#
#
# Elastic Constant Matrix: (Units=GPa)
#
#
# Indices 1 2 3 4 5 6 
#
# 1 60.3632 17.6229 13.1322 0.0000 19.8895 0.0000
# 2 17.6229 132.2635 15.3865 0.0000 16.3912 0.0000
# 3 13.1322 15.3865 71.5518 0.0000 23.7999 0.0000
# 4 0.0000 0.0000 0.0000 31.3423 0.0000 -0.9874
# 5 19.8895 16.3912 23.7999 0.0000 35.7014 0.0000
# 6 0.0000 0.0000 0.0000 -0.9874 0.0000 14.5921
#
#
#
# Elastic Compliance Matrix: (Units=1/GPa)
#
#
# Indices 1 2 3 4 5 6 
#
# 1 0.020533 -0.001403 0.000159 0.000000 -0.010901 0.000000
# 2 -0.001403 0.008136 -0.000655 0.000000 -0.002517 0.000000
# 3 0.000159 -0.000655 0.018011 0.000000 -0.011795 0.000000
# 4 0.000000 0.000000 0.000000 0.031974 0.000000 0.002164
# 5 -0.010901 -0.002517 -0.011795 0.000000 0.043101 0.000000
# 6 0.000000 0.000000 0.000000 0.002164 0.000000 0.068677
#
#
# Mechanical properties :
#
#
# Convention : Reuss Voigt Hill
#
# Bulk Modulus (GPa) = 23.31996 39.60685 31.46341
# Shear Modulus (GPa) = 23.97810 30.86296 27.42053
#
# Velocity S-wave (km/s) = 3.08772 3.50307 3.30193
# Velocity P-wave (km/s) = 4.68875 5.66659 5.20070
#
# Compressibility (1/GPa) = 0.04288172
#
# Stress axis : x y z
#
# Youngs Moduli (GPa) = 48.70131 122.91435 55.52265
#
# Poissons Ratio (x) = 0.17250 -0.00884
# Poissons Ratio (y) = 0.06835 0.03635
# Poissons Ratio (z) = -0.00775 0.08048
#
# Static dielectric constant tensor:
#      x y z
#    x 2.071540 0.000000 -0.063770 
#    y 0.000000 2.084320 0.000000 
#    z -0.063770 0.000000 1.971030 
# 
# From -- ./inp_files/69437.got.cif
#   From: 2010.05.17/outbox.cif.g08.bks.cpg/sg15_35_cif.got.tgz:69437.got - 2010.06.03 18:47:42.
