data_PCOD9277297
_publ_section_title
;
Structure prediction by ZEFSAII (Michael W. Deem and Ramdas Pophale) SiO2 
 PCOD9277297
Probable space group: C 2/C
;
_chemical_formula_sum "Si O2"
_cell_formula_units_Z 44
_cell_length_a 18.252172
_cell_length_b 14.213124
_cell_length_c 12.697853
_cell_angle_alpha 90.000000
_cell_angle_beta 150.281746
_cell_angle_gamma 90.000000
_cell_volume 1632.992951
_symmetry_space_group_name_H-M "C 2/C"
_symmetry_group_IT_number 15
_symmetry_cell_setting 'monoclinic'
loop_
_space_group_symop_operation_xyz
x,y,z
-x,y,1/2-z
-x,-y,-z
x,-y,1/2+z
1/2+x,1/2+y,z
1/2-x,1/2+y,1/2-z
1/2-x,1/2-y,-z
1/2+x,1/2-y,1/2+z
loop_
_atom_site_type_symbol
_atom_site_label
_atom_site_fract_x
_atom_site_fract_y
_atom_site_fract_z
Si Si1 0.712446 0.738471 0.710132
Si Si2 0.000000 0.814152 0.750000
Si Si3 0.301095 0.447605 0.823184
Si Si4 0.899378 0.409033 0.346920
Si Si5 0.092043 0.863558 0.265771
Si Si6 0.744934 0.453187 0.973622
O O1 0.601188 0.731979 0.470121
O O2 0.723517 0.848416 0.750214
O O3 0.869906 0.690058 0.868490
O O4 0.667512 0.694667 0.767026
O O5 0.886593 0.879532 0.672900
O O6 0.262053 0.544126 0.831473
O O7 0.242819 0.465908 0.634228
O O8 0.471472 0.425905 0.053235
O O9 0.000000 0.500000 0.500000
O O10 0.886857 0.406818 0.206053
O O11 0.000000 0.819064 0.250000
O O12 0.204543 0.939323 0.456610
#
# Coordination Sequence:
#
# PCOD9277297 Si02
#       6
#     8   4   8   8   8   8
#     4  11  26  43  71 108 138 186 234 294 355 415
#     4  10  20  40  72 102 132 168 242 290 340 404
#     4  12  25  43  72 102 140 182 233 292 352 414
#     4  11  26  44  67 105 147 180 229 288 365 422
#     4  12  22  45  74 100 133 183 245 286 340 421
#     4  11  21  42  72 100 128 185 232 289 340 408
#
# _framework density 26.944391
#
# number of rings (size 3 to 8) (size 9 to 14) (size 15 to 20)
#    0.000    0.727    6.364    1.636    2.545    5.818 
#    0.000    0.000    0.000    0.000    0.000    0.000 
#    0.000    0.000    0.000    0.000    0.000    0.000 
#
# Total GULP energy -122829.072249 kJ/mol
# GULP energy per Si atom -5583.139648 kJ/mol
# Density = 2.688306 g / cm^3
# Si number density = 26.944391 Si / 1000 Ang^3
#
#
#
# Elastic Constant Matrix: (Units=GPa)
#
#
# Indices 1 2 3 4 5 6 
#
# 1 111.4771 16.3186 6.0697 0.0000 -21.9738 0.0000
# 2 16.3186 81.4762 -4.4172 0.0000 -4.8323 0.0000
# 3 6.0697 -4.4172 71.2194 0.0000 -16.9632 0.0000
# 4 0.0000 0.0000 0.0000 53.2013 0.0000 -0.7881
# 5 -21.9738 -4.8323 -16.9632 0.0000 37.4890 0.0000
# 6 0.0000 0.0000 0.0000 -0.7881 0.0000 41.8138
#
#
#
# Elastic Compliance Matrix: (Units=1/GPa)
#
#
# Indices 1 2 3 4 5 6 
#
# 1 0.010392 -0.001696 0.000457 0.000000 0.006080 0.000000
# 2 -0.001696 0.012751 0.001222 0.000000 0.001202 0.000000
# 3 0.000457 0.001222 0.015892 0.000000 0.007616 0.000000
# 4 0.000000 0.000000 0.000000 0.018802 0.000000 0.000354
# 5 0.006080 0.001202 0.007616 0.000000 0.033839 0.000000
# 6 0.000000 0.000000 0.000000 0.000354 0.000000 0.023922
#
#
# Mechanical properties :
#
#
# Convention : Reuss Voigt Hill
#
# Bulk Modulus (GPa) = 25.64059 33.34611 29.49335
# Shear Modulus (GPa) = 38.87033 42.91425 40.89229
#
# Velocity S-wave (km/s) = 3.80230 3.99519 3.89994
# Velocity P-wave (km/s) = 5.36781 5.80386 5.59009
#
# Compressibility (1/GPa) = 0.03900066
#
# Stress axis : x y z
#
# Youngs Moduli (GPa) = 96.22595 78.42664 62.92467
#
# Poissons Ratio (x) = 0.13302 -0.02877
# Poissons Ratio (y) = 0.16321 -0.07688
# Poissons Ratio (z) = -0.04399 -0.09582
#
# Static dielectric constant tensor:
#      x y z
#    x 2.379970 0.000000 0.104200 
#    y 0.000000 2.140330 0.000000 
#    z 0.104200 0.000000 2.271160 
# 
# From -- ./inp_files/168532.got.cif
#   From: 2010.05.17/outbox.cif.g08.bks.cpg/sg15_85_cif.got.tgz:168532.got - 2010.06.03 18:47:42.
