data_PCOD9277359
_publ_section_title
;
Structure prediction by ZEFSAII (Michael W. Deem and Ramdas Pophale) SiO2 
 PCOD9277359
Probable space group: C 2/C
;
_chemical_formula_sum "Si O2"
_cell_formula_units_Z 48
_cell_length_a 16.583419
_cell_length_b 8.842283
_cell_length_c 29.691632
_cell_angle_alpha 90.000000
_cell_angle_beta 146.166840
_cell_angle_gamma 90.000000
_cell_volume 2424.116098
_symmetry_space_group_name_H-M "C 2/C"
_symmetry_group_IT_number 15
_symmetry_cell_setting 'monoclinic'
loop_
_space_group_symop_operation_xyz
x,y,z
-x,y,1/2-z
-x,-y,-z
x,-y,1/2+z
1/2+x,1/2+y,z
1/2-x,1/2+y,1/2-z
1/2-x,1/2-y,-z
1/2+x,1/2-y,1/2+z
loop_
_atom_site_type_symbol
_atom_site_label
_atom_site_fract_x
_atom_site_fract_y
_atom_site_fract_z
Si Si1 0.644481 0.814975 0.168529
Si Si2 0.908169 0.995987 0.247553
Si Si3 0.222774 0.248530 0.674640
Si Si4 0.950688 0.404636 0.580347
Si Si5 0.959816 0.023981 0.429604
Si Si6 0.877843 0.089268 0.579525
O O1 0.772454 0.898589 0.201025
O O2 0.720414 0.742168 0.247532
O O3 0.572114 0.692393 0.102352
O O4 0.527625 0.940264 0.130625
O O5 0.000000 0.926375 0.250000
O O6 0.017902 0.005341 0.340140
O O7 0.840880 0.157554 0.202096
O O8 0.067866 0.333569 0.600342
O O9 0.184234 0.076798 0.646141
O O10 0.922871 0.267115 0.602798
O O11 0.789959 0.432465 0.487264
O O12 0.000000 0.000000 0.500000
O O13 0.084472 0.960396 0.453975
#
# Coordination Sequence:
#
# PCOD9277359 Si02
#       6
#     8   8   8   8   8   8
#     4  11  20  41  67  90 124 180 213 261 334 391
#     4  11  23  39  66  93 125 170 225 263 319 400
#     4  10  20  43  63  86 130 176 209 265 332 392
#     4   9  20  35  68  85 121 168 209 265 332 380
#     4  11  23  39  64  95 131 169 222 270 327 392
#     4  10  20  41  59  93 130 164 213 277 325 384
#
# _framework density 19.801033
#
# number of rings (size 3 to 8) (size 9 to 14) (size 15 to 20)
#    0.000    1.667    5.000    1.000    0.000    6.000 
#    3.000    6.667    0.000    0.000    0.000    0.000 
#    0.000    0.000    0.000    0.000    0.000    0.000 
#
# Total GULP energy -133732.638329 kJ/mol
# GULP energy per Si atom -5572.193264 kJ/mol
# Density = 1.975596 g / cm^3
# Si number density = 19.801033 Si / 1000 Ang^3
#
#
#
# Elastic Constant Matrix: (Units=GPa)
#
#
# Indices 1 2 3 4 5 6 
#
# 1 75.6475 23.1179 53.2020 0.0000 7.6328 0.0000
# 2 23.1179 64.1694 39.4152 0.0000 17.9887 0.0000
# 3 53.2020 39.4152 98.0915 0.0000 19.7899 0.0000
# 4 0.0000 0.0000 0.0000 27.6282 0.0000 3.4540
# 5 7.6328 17.9887 19.7899 0.0000 42.8015 0.0000
# 6 0.0000 0.0000 0.0000 3.4540 0.0000 15.4425
#
#
#
# Elastic Compliance Matrix: (Units=1/GPa)
#
#
# Indices 1 2 3 4 5 6 
#
# 1 0.021550 -0.001198 -0.011617 0.000000 0.002032 0.000000
# 2 -0.001198 0.021931 -0.006999 0.000000 -0.005768 0.000000
# 3 -0.011617 -0.006999 0.020178 0.000000 -0.004317 0.000000
# 4 0.000000 0.000000 0.000000 0.037236 0.000000 -0.008329
# 5 0.002032 -0.005768 -0.004317 0.000000 0.027421 0.000000
# 6 0.000000 0.000000 0.000000 -0.008329 0.000000 0.066619
#
#
# Mechanical properties :
#
#
# Convention : Reuss Voigt Hill
#
# Bulk Modulus (GPa) = 41.61052 52.15316 46.88184
# Shear Modulus (GPa) = 20.61219 25.31933 22.96576
#
# Velocity S-wave (km/s) = 3.22990 3.57975 3.40932
# Velocity P-wave (km/s) = 5.91351 6.59409 6.26305
#
# Compressibility (1/GPa) = 0.02403239
#
# Stress axis : x y z
#
# Youngs Moduli (GPa) = 46.40327 45.59705 49.55784
#
# Poissons Ratio (x) = 0.05462 0.57570
# Poissons Ratio (y) = 0.05558 0.34686
# Poissons Ratio (z) = 0.53906 0.31914
#
# Static dielectric constant tensor:
#      x y z
#    x 1.697970 0.000000 -0.001250 
#    y 0.000000 1.756080 0.000000 
#    z -0.001250 0.000000 1.689040 
# 
# From -- ./inp_files/224546.got.cif
#   From: 2010.05.17/outbox.cif.g08.bks.cpg/sg15_113_cif.got.tgz:224546.got - 2010.06.03 18:47:42.
