data_PCOD9277105
_publ_section_title
;
Structure prediction by ZEFSAII (Michael W. Deem and Ramdas Pophale) SiO2 
 PCOD9277105
Probable space group: C 2/C
;
_chemical_formula_sum "Si O2"
_cell_formula_units_Z 52
_cell_length_a 21.399710
_cell_length_b 9.386761
_cell_length_c 19.247608
_cell_angle_alpha 90.000000
_cell_angle_beta 41.711861
_cell_angle_gamma 90.000000
_cell_volume 2572.606469
_symmetry_space_group_name_H-M "C 2/C"
_symmetry_group_IT_number 15
_symmetry_cell_setting 'monoclinic'
loop_
_space_group_symop_operation_xyz
x,y,z
-x,y,1/2-z
-x,-y,-z
x,-y,1/2+z
1/2+x,1/2+y,z
1/2-x,1/2+y,1/2-z
1/2-x,1/2-y,-z
1/2+x,1/2-y,1/2+z
loop_
_atom_site_type_symbol
_atom_site_label
_atom_site_fract_x
_atom_site_fract_y
_atom_site_fract_z
Si Si1 0.334857 0.656463 0.108521
Si Si2 0.139830 0.232527 0.109212
Si Si3 0.999267 0.664552 0.018720
Si Si4 0.190971 0.259447 0.217150
Si Si5 0.500000 0.983195 0.250000
Si Si6 0.897326 0.140134 0.503424
Si Si7 0.868202 0.586868 0.242787
O O1 0.314972 0.670178 0.207547
O O2 0.391149 0.514039 0.042900
O O3 0.234141 0.648046 0.154936
O O4 0.401017 0.787535 0.033959
O O5 0.138162 0.197948 0.192825
O O6 0.079288 0.377738 0.152066
O O7 0.250000 0.250000 0.000000
O O8 0.099537 0.131317 0.082647
O O9 0.977803 0.763549 0.970314
O O10 0.915475 0.678821 0.143219
O O11 0.000000 0.500000 0.000000
O O12 0.299344 0.282133 0.105224
O O13 0.152093 0.420928 0.261480
O O14 0.443597 0.074950 0.241224
#
# Coordination Sequence:
#
# PCOD9277105 Si02
#       7
#     8   8   8   8   4   8   8
#     4  11  22  38  62  93 127 160 204 275 324 364
#     4   9  19  35  60  92 123 161 219 267 304 367
#     4  12  22  36  61  89 125 165 213 251 324 389
#     4   9  18  37  62  92 121 164 209 266 310 373
#     4  10  20  40  68  88 120 178 222 256 320 388
#     4  10  21  37  58  91 127 158 208 269 314 372
#     4  10  21  39  63  89 124 162 220 261 311 386
#
# _framework density 20.212962000000001
#
# number of rings (size 3 to 8) (size 9 to 14) (size 15 to 20)
#    0.000    1.846    3.077    2.308    2.154    0.000 
#    0.000    0.769    3.385    0.000    0.000    0.000 
#    0.000    0.000    0.000    0.000    0.000    0.000 
#
# Total GULP energy -145025.513828 kJ/mol
# GULP energy per Si atom -5577.904378 kJ/mol
# Density = 2.016696 g / cm^3
# Si number density = 20.212962 Si / 1000 Ang^3
#
#
#
# Elastic Constant Matrix: (Units=GPa)
#
#
# Indices 1 2 3 4 5 6 
#
# 1 125.7038 36.9688 21.8984 0.0000 -9.2261 0.0000
# 2 36.9688 61.4087 15.8728 -0.0001 -5.0307 -0.0001
# 3 21.8984 15.8728 53.7196 0.0000 -11.9375 0.0000
# 4 0.0000 -0.0001 0.0000 28.6282 0.0000 -6.4965
# 5 -9.2261 -5.0307 -11.9375 0.0000 42.2771 0.0000
# 6 0.0000 -0.0001 0.0000 -6.4965 0.0000 31.8696
#
#
#
# Elastic Compliance Matrix: (Units=1/GPa)
#
#
# Indices 1 2 3 4 5 6 
#
# 1 0.009994 -0.005350 -0.002294 0.000000 0.000897 0.000000
# 2 -0.005350 0.020513 -0.003838 0.000000 0.000190 0.000000
# 3 -0.002294 -0.003838 0.021842 0.000000 0.005210 0.000000
# 4 0.000000 0.000000 0.000000 0.036625 0.000000 0.007466
# 5 0.000897 0.000190 0.005210 0.000000 0.025343 0.000000
# 6 0.000000 0.000000 0.000000 0.007466 0.000000 0.032900
#
#
# Mechanical properties :
#
#
# Convention : Reuss Voigt Hill
#
# Bulk Modulus (GPa) = 34.03106 43.36800 38.69953
# Shear Modulus (GPa) = 27.78159 31.62779 29.70469
#
# Velocity S-wave (km/s) = 3.71137 3.95996 3.83768
# Velocity P-wave (km/s) = 5.93620 6.51233 6.23093
#
# Compressibility (1/GPa) = 0.02938492
#
# Stress axis : x y z
#
# Youngs Moduli (GPa) = 100.05915 48.75011 45.78323
#
# Poissons Ratio (x) = 0.26082 0.10502
# Poissons Ratio (y) = 0.53533 0.17571
# Poissons Ratio (z) = 0.22953 0.18710
#
# Static dielectric constant tensor:
#      x y z
#    x 1.802590 0.000000 -0.017120 
#    y 0.000000 1.680260 0.000000 
#    z -0.017120 0.000000 1.779790 
# 
# From -- ./inp_files/214228.got.cif
#   From: 2010.05.17/outbox.cif.g08.bks.cpg/sg15_108_cif.got.tgz:214228.got - 2010.06.03 18:47:42.
