data_PCOD9277938
_publ_section_title
;
Structure prediction by ZEFSAII (Michael W. Deem and Ramdas Pophale) SiO2 
 PCOD9277938
Probable space group: C 2/C
;
_chemical_formula_sum "Si O2"
_cell_formula_units_Z 44
_cell_length_a 9.164326
_cell_length_b 12.537115
_cell_length_c 17.158850
_cell_angle_alpha 90.000000
_cell_angle_beta 56.543034
_cell_angle_gamma 90.000000
_cell_volume 1644.783091
_symmetry_space_group_name_H-M "C 2/C"
_symmetry_group_IT_number 15
_symmetry_cell_setting 'monoclinic'
loop_
_space_group_symop_operation_xyz
x,y,z
-x,y,1/2-z
-x,-y,-z
x,-y,1/2+z
1/2+x,1/2+y,z
1/2-x,1/2+y,1/2-z
1/2-x,1/2-y,-z
1/2+x,1/2-y,1/2+z
loop_
_atom_site_type_symbol
_atom_site_label
_atom_site_fract_x
_atom_site_fract_y
_atom_site_fract_z
Si Si1 0.190090 0.676072 0.254306
Si Si2 0.444812 0.242314 0.562541
Si Si3 0.856491 0.909824 0.196366
Si Si4 0.274520 0.709601 0.393652
Si Si5 0.000000 0.493720 0.250000
Si Si6 0.276724 0.530869 0.896403
O O1 0.300742 0.677238 0.141361
O O2 0.104325 0.790775 0.287312
O O3 0.314229 0.686336 0.292454
O O4 0.049664 0.581881 0.301175
O O5 0.575700 0.235176 0.599504
O O6 0.590734 0.273347 0.456330
O O7 0.346961 0.135444 0.560970
O O8 0.679523 0.926616 0.197794
O O9 0.813537 0.965441 0.292395
O O10 0.038474 0.955855 0.114069
O O11 0.223456 0.588561 0.436775
#
# Coordination Sequence:
#
# PCOD9277938 Si02
#       6
#     8   8   8   8   4   8
#     4  11  23  40  66  93 133 177 219 283 339 399
#     4  10  23  39  65  99 136 168 232 284 331 415
#     4  10  23  37  65 100 128 175 229 274 341 415
#     4  11  22  38  68  98 127 183 223 275 352 401
#     4  12  22  42  66 100 134 178 234 274 340 414
#     4  10  20  42  62  95 135 171 223 285 339 402
#
# _framework density 26.751245999999998
#
# number of rings (size 3 to 8) (size 9 to 14) (size 15 to 20)
#    0.000    1.455    1.818    4.364    7.636    0.000 
#    0.000    3.636    0.000    4.364    0.000    0.000 
#    0.000    0.000    0.000    0.000    0.000    0.000 
#
# Total GULP energy -122491.278370 kJ/mol
# GULP energy per Si atom -5567.785380 kJ/mol
# Density = 2.669036 g / cm^3
# Si number density = 26.751246 Si / 1000 Ang^3
#
#
#
# Elastic Constant Matrix: (Units=GPa)
#
#
# Indices 1 2 3 4 5 6 
#
# 1 205.2041 43.5774 35.5528 0.0000 -27.0069 0.0000
# 2 43.5774 91.6955 4.8399 0.0000 -2.2931 0.0000
# 3 35.5528 4.8399 58.9789 0.0000 -26.9215 0.0000
# 4 0.0000 0.0000 0.0000 -0.1038 0.0000 8.2248
# 5 -27.0069 -2.2931 -26.9215 0.0000 44.9903 0.0000
# 6 0.0000 0.0000 0.0000 8.2248 0.0000 46.7395
#
#
#
# Elastic Compliance Matrix: (Units=1/GPa)
#
#
# Indices 1 2 3 4 5 6 
#
# 1 0.006168 -0.002745 -0.002568 0.000000 0.002026 0.000000
# 2 -0.002745 0.012175 0.000257 0.000000 -0.000873 0.000000
# 3 -0.002568 0.000257 0.024467 0.000000 0.013113 0.000000
# 4 0.000000 0.000000 0.000000 -0.644703 0.000000 0.113449
# 5 0.002026 -0.000873 0.013113 0.000000 0.031245 0.000000
# 6 0.000000 0.000000 0.000000 0.113449 0.000000 0.001431
#
#
# Mechanical properties :
#
#
# Convention : Reuss Voigt Hill
#
# Bulk Modulus (GPa) = 30.58298 58.20206 44.39252
# Shear Modulus (GPa) = -9.12067 36.45244 13.66588
#
# Velocity S-wave (km/s) = -1.84847 3.69541 2.26265
# Velocity P-wave (km/s) = 2.62705 6.32551 4.84321
#
# Compressibility (1/GPa) = 0.03269792
#
# Stress axis : x y z
#
# Youngs Moduli (GPa) = 162.13670 82.13720 40.87054
#
# Poissons Ratio (x) = 0.22546 0.10495
# Poissons Ratio (y) = 0.44505 -0.01050
# Poissons Ratio (z) = 0.41636 -0.02110
#
# Static dielectric constant tensor:
#      x y z
#    x 2.144410 0.000000 -0.130560 
#    y 0.000000 2.151260 0.000000 
#    z -0.130560 0.000000 1.398500 
# 
# From -- ./inp_files/231019.got.cif
#   From: 2010.05.17/outbox.cif.g08.bks.cpg/sg15_116_cif.got.tgz:231019.got - 2010.06.03 18:47:42.
