data_PCOD9277889
_publ_section_title
;
Structure prediction by ZEFSAII (Michael W. Deem and Ramdas Pophale) SiO2 
 PCOD9277889
Probable space group: C 2/C
;
_chemical_formula_sum "Si O2"
_cell_formula_units_Z 44
_cell_length_a 22.274461
_cell_length_b 9.041615
_cell_length_c 17.398056
_cell_angle_alpha 90.000000
_cell_angle_beta 137.911982
_cell_angle_gamma 90.000000
_cell_volume 2348.576182
_symmetry_space_group_name_H-M "C 2/C"
_symmetry_group_IT_number 15
_symmetry_cell_setting 'monoclinic'
loop_
_space_group_symop_operation_xyz
x,y,z
-x,y,1/2-z
-x,-y,-z
x,-y,1/2+z
1/2+x,1/2+y,z
1/2-x,1/2+y,1/2-z
1/2-x,1/2-y,-z
1/2+x,1/2-y,1/2+z
loop_
_atom_site_type_symbol
_atom_site_label
_atom_site_fract_x
_atom_site_fract_y
_atom_site_fract_z
Si Si1 0.252004 0.710134 0.179180
Si Si2 0.142712 0.494315 0.166604
Si Si3 0.000000 0.797789 0.250000
Si Si4 0.080333 0.235894 0.412491
Si Si5 0.905935 0.929225 0.733668
Si Si6 0.533689 0.939516 0.908074
O O1 0.211523 0.625380 0.213630
O O2 0.310424 0.852683 0.253089
O O3 0.317020 0.593925 0.197875
O O4 0.167202 0.763051 0.048481
O O5 0.064299 0.554063 0.146649
O O6 0.100368 0.443033 0.044476
O O7 0.958260 0.693571 0.144377
O O8 0.930022 0.908032 0.225701
O O9 0.103871 0.172017 0.351642
O O10 0.049285 0.405171 0.380189
O O11 0.995543 0.136908 0.359847
#
# Coordination Sequence:
#
# PCOD9277889 Si02
#       6
#     8   8   4   8   8   8
#     4  11  22  39  59  89 119 158 201 239 296 355
#     4  10  24  38  61  86 124 157 199 239 294 359
#     4  10  22  36  66  86 116 152 202 252 296 334
#     4   9  19  38  63  83 113 158 195 241 297 349
#     4  10  21  38  60  91 118 151 202 250 291 349
#     4  10  20  42  61  86 116 164 197 240 296 354
#
# _framework density 18.734755
#
# number of rings (size 3 to 8) (size 9 to 14) (size 15 to 20)
#    0.000    2.182    1.818    1.636    2.545    2.909 
#    0.000    5.455    0.000    0.000    0.000    0.000 
#    0.000    0.000    0.000    0.000    0.000    0.000 
#
# Total GULP energy -122718.611525 kJ/mol
# GULP energy per Si atom -5578.118706 kJ/mol
# Density = 1.869211 g / cm^3
# Si number density = 18.734755 Si / 1000 Ang^3
#
#
#
# Elastic Constant Matrix: (Units=GPa)
#
#
# Indices 1 2 3 4 5 6 
#
# 1 43.5690 21.9315 18.0676 0.0000 14.8904 0.0000
# 2 21.9315 89.0558 28.0078 0.0000 -3.8756 0.0000
# 3 18.0676 28.0078 51.8379 0.0000 -0.6842 0.0000
# 4 0.0000 0.0000 0.0000 21.9183 0.0000 -3.8572
# 5 14.8904 -3.8756 -0.6842 0.0000 16.4639 0.0000
# 6 0.0000 0.0000 0.0000 -3.8572 0.0000 14.4383
#
#
#
# Elastic Compliance Matrix: (Units=1/GPa)
#
#
# Indices 1 2 3 4 5 6 
#
# 1 0.049692 -0.010453 -0.012304 0.000000 -0.047915 0.000000
# 2 -0.010453 0.015864 -0.004757 0.000000 0.012991 0.000000
# 3 -0.012304 -0.004757 0.026296 0.000000 0.011102 0.000000
# 4 0.000000 0.000000 0.000000 0.047875 0.000000 0.012790
# 5 -0.047915 0.012991 0.011102 0.000000 0.107594 0.000000
# 6 0.000000 0.000000 0.000000 0.012790 0.000000 0.072677
#
#
# Mechanical properties :
#
#
# Convention : Reuss Voigt Hill
#
# Bulk Modulus (GPa) = 27.15597 35.60848 31.38223
# Shear Modulus (GPa) = 12.90985 18.32784 15.61884
#
# Velocity S-wave (km/s) = 2.62789 3.13114 2.89049
# Velocity P-wave (km/s) = 4.87178 5.66745 5.28461
#
# Compressibility (1/GPa) = 0.03682431
#
# Stress axis : x y z
#
# Youngs Moduli (GPa) = 20.12390 63.03398 38.02847
#
# Poissons Ratio (x) = 0.65889 0.46792
# Poissons Ratio (y) = 0.21036 0.18089
# Poissons Ratio (z) = 0.24761 0.29984
#
# Static dielectric constant tensor:
#      x y z
#    x 1.643990 0.000000 0.006080 
#    y 0.000000 1.629860 0.000000 
#    z 0.006080 0.000000 1.658520 
# 
# From -- ./inp_files/172087.got.cif
#   From: 2010.05.17/outbox.cif.g08.bks.cpg/sg15_87_cif.got.tgz:172087.got - 2010.06.03 18:47:42.
