data_PCOD9277952
_publ_section_title
;
Structure prediction by ZEFSAII (Michael W. Deem and Ramdas Pophale) SiO2 
 PCOD9277952
Probable space group: C 2/C
;
_chemical_formula_sum "Si O2"
_cell_formula_units_Z 48
_cell_length_a 8.046132
_cell_length_b 27.151247
_cell_length_c 16.073163
_cell_angle_alpha 90.000000
_cell_angle_beta 35.901641
_cell_angle_gamma 90.000000
_cell_volume 2059.059771
_symmetry_space_group_name_H-M "C 2/C"
_symmetry_group_IT_number 15
_symmetry_cell_setting 'monoclinic'
loop_
_space_group_symop_operation_xyz
x,y,z
-x,y,1/2-z
-x,-y,-z
x,-y,1/2+z
1/2+x,1/2+y,z
1/2-x,1/2+y,1/2-z
1/2-x,1/2-y,-z
1/2+x,1/2-y,1/2+z
loop_
_atom_site_type_symbol
_atom_site_label
_atom_site_fract_x
_atom_site_fract_y
_atom_site_fract_z
Si Si1 0.924380 0.397603 0.187327
Si Si2 0.307192 0.910196 0.660218
Si Si3 0.994581 0.936556 0.933725
Si Si4 0.886731 0.048252 0.929000
Si Si5 0.993752 0.689053 0.153054
Si Si6 0.078490 0.800192 0.315789
O O1 0.664579 0.433240 0.267178
O O2 0.810553 0.342090 0.236997
O O3 0.000000 0.415146 0.250000
O O4 0.225808 0.402021 0.019263
O O5 0.592287 0.933965 0.509481
O O6 0.341170 0.852204 0.659976
O O7 0.000000 0.924094 0.750000
O O8 0.273655 0.930399 0.767075
O O9 0.887871 0.991378 0.954690
O O10 0.075897 0.926250 0.995741
O O11 0.849747 0.742702 0.202038
O O12 0.000000 0.678286 0.250000
O O13 0.310308 0.691204 0.985510
O O14 0.000000 0.805869 0.250000
#
# Coordination Sequence:
#
# PCOD9277952 Si02
#       6
#     8   8   8   8   8   8
#     4  10  21  36  63  94 122 165 212 264 322 381
#     4  12  25  38  61  95 130 168 211 269 329 378
#     4  10  22  38  65  92 121 166 221 264 316 384
#     4  10  20  42  63  88 125 170 217 264 312 391
#     4  10  22  43  68  92 125 175 217 258 324 397
#     4  10  22  41  68  95 127 168 212 268 330 386
#
# _framework density 23.311609000000001
#
# number of rings (size 3 to 8) (size 9 to 14) (size 15 to 20)
#    0.000    1.667    1.667    2.500    4.667    4.000 
#    0.000    2.500    0.000    0.000    0.000    0.000 
#    0.000    0.000    0.000    0.000    0.000    0.000 
#
# Total GULP energy -133999.995625 kJ/mol
# GULP energy per Si atom -5583.333151 kJ/mol
# Density = 2.325855 g / cm^3
# Si number density = 23.311609 Si / 1000 Ang^3
#
#
#
# Elastic Constant Matrix: (Units=GPa)
#
#
# Indices 1 2 3 4 5 6 
#
# 1 79.2301 12.8127 33.1269 0.0000 -16.1364 0.0000
# 2 12.8127 74.0675 5.7399 0.0000 -21.1605 0.0000
# 3 33.1269 5.7399 129.9117 0.0000 -4.2296 0.0000
# 4 0.0000 0.0000 0.0000 40.1157 0.0000 -2.8725
# 5 -16.1364 -21.1605 -4.2296 0.0000 45.2922 0.0000
# 6 0.0000 0.0000 0.0000 -2.8725 0.0000 17.2368
#
#
#
# Elastic Compliance Matrix: (Units=1/GPa)
#
#
# Indices 1 2 3 4 5 6 
#
# 1 0.015275 -0.001038 -0.003699 0.000000 0.004612 0.000000
# 2 -0.001038 0.015678 -0.000202 0.000000 0.006936 0.000000
# 3 -0.003699 -0.000202 0.008630 0.000000 -0.000606 0.000000
# 4 0.000000 0.000000 0.000000 0.025229 0.000000 0.004204
# 5 0.004612 0.006936 -0.000606 0.000000 0.026906 0.000000
# 6 0.000000 0.000000 0.000000 0.004204 0.000000 0.058716
#
#
# Mechanical properties :
#
#
# Convention : Reuss Voigt Hill
#
# Bulk Modulus (GPa) = 33.66519 42.95204 38.30861
# Shear Modulus (GPa) = 29.37472 35.96427 32.66949
#
# Velocity S-wave (km/s) = 3.55363 3.93206 3.74762
# Velocity P-wave (km/s) = 5.59557 6.25140 5.93255
#
# Compressibility (1/GPa) = 0.02970427
#
# Stress axis : x y z
#
# Youngs Moduli (GPa) = 65.46546 63.78356 115.87520
#
# Poissons Ratio (x) = 0.06622 0.42863
# Poissons Ratio (y) = 0.06797 0.02342
# Poissons Ratio (z) = 0.24216 0.01289
#
# Static dielectric constant tensor:
#      x y z
#    x 1.962360 0.000000 0.043500 
#    y 0.000000 1.890980 0.000000 
#    z 0.043500 0.000000 1.888840 
# 
# From -- ./inp_files/138925.got.cif
#   From: 2010.05.17/outbox.cif.g08.bks.cpg/sg15_70_cif.got.tgz:138925.got - 2010.06.03 18:47:42.
