data_PCOD9277171
_publ_section_title
;
Structure prediction by ZEFSAII (Michael W. Deem and Ramdas Pophale) SiO2 
 PCOD9277171
Probable space group: C 2/C
;
_chemical_formula_sum "Si O2"
_cell_formula_units_Z 44
_cell_length_a 10.401520
_cell_length_b 15.776072
_cell_length_c 12.888988
_cell_angle_alpha 90.000000
_cell_angle_beta 79.927990
_cell_angle_gamma 90.000000
_cell_volume 2082.424999
_symmetry_space_group_name_H-M "C 2/C"
_symmetry_group_IT_number 15
_symmetry_cell_setting 'monoclinic'
loop_
_space_group_symop_operation_xyz
x,y,z
-x,y,1/2-z
-x,-y,-z
x,-y,1/2+z
1/2+x,1/2+y,z
1/2-x,1/2+y,1/2-z
1/2-x,1/2-y,-z
1/2+x,1/2-y,1/2+z
loop_
_atom_site_type_symbol
_atom_site_label
_atom_site_fract_x
_atom_site_fract_y
_atom_site_fract_z
Si Si1 0.142110 0.694513 0.682071
Si Si2 0.060716 0.165225 0.062196
Si Si3 0.855292 0.231856 0.818698
Si Si4 0.223197 0.862999 0.972208
Si Si5 0.695003 0.455864 0.381102
Si Si6 0.500000 0.541596 0.250000
O O1 0.127749 0.746166 0.577399
O O2 0.254757 0.735224 0.737405
O O3 0.177743 0.595922 0.668931
O O4 0.000000 0.705902 0.750000
O O5 0.907000 0.174496 0.063847
O O6 0.115721 0.113599 0.957863
O O7 0.073651 0.103141 0.159169
O O8 0.839977 0.313481 0.897331
O O9 0.000000 0.221379 0.750000
O O10 0.801377 0.157932 0.903586
O O11 0.224710 0.961901 0.946008
O O12 0.603261 0.486785 0.300359
#
# Coordination Sequence:
#
# PCOD9277171 Si02
#       6
#     8   8   8   8   8   4
#     4  12  24  44  65  96 138 183 213 277 342 412
#     4  11  21  43  67  95 139 178 223 267 340 407
#     4  11  24  42  73  95 132 179 233 270 343 399
#     4  10  22  45  65 102 135 171 231 292 321 405
#     4  11  25  37  70 100 135 174 227 278 341 392
#     4  10  20  40  68  98 130 172 230 278 318 400
#
# _framework density 21.129214000000001
#
# number of rings (size 3 to 8) (size 9 to 14) (size 15 to 20)
#    0.000    1.091    2.727    4.909    6.364    0.727 
#    0.000    0.909    0.000    0.000    0.000    0.000 
#    0.000    0.000    0.000    0.000    0.000    0.000 
#
# Total GULP energy -122912.219438 kJ/mol
# GULP energy per Si atom -5586.919065 kJ/mol
# Density = 2.108112 g / cm^3
# Si number density = 21.129214 Si / 1000 Ang^3
#
#
#
# Elastic Constant Matrix: (Units=GPa)
#
#
# Indices 1 2 3 4 5 6 
#
# 1 73.9103 16.6737 11.8577 0.0000 -13.5702 0.0000
# 2 16.6737 84.9721 1.9298 0.0000 6.0550 0.0000
# 3 11.8577 1.9298 54.0436 0.0000 -8.3877 0.0000
# 4 0.0000 0.0000 0.0000 37.8273 0.0000 7.0984
# 5 -13.5702 6.0550 -8.3877 0.0000 37.3284 0.0000
# 6 0.0000 0.0000 0.0000 7.0984 0.0000 30.5551
#
#
#
# Elastic Compliance Matrix: (Units=1/GPa)
#
#
# Indices 1 2 3 4 5 6 
#
# 1 0.015752 -0.003444 -0.002443 0.000000 0.005736 0.000000
# 2 -0.003444 0.012689 -0.000219 0.000000 -0.003359 0.000000
# 3 -0.002443 -0.000219 0.019599 0.000000 0.003551 0.000000
# 4 0.000000 0.000000 0.000000 0.027641 0.000000 -0.006421
# 5 0.005736 -0.003359 0.003551 0.000000 0.030217 0.000000
# 6 0.000000 0.000000 0.000000 -0.006421 0.000000 0.034220
#
#
# Mechanical properties :
#
#
# Convention : Reuss Voigt Hill
#
# Bulk Modulus (GPa) = 27.91151 30.42760 29.16956
# Shear Modulus (GPa) = 30.43743 33.30651 31.87197
#
# Velocity S-wave (km/s) = 3.79956 3.97460 3.88807
# Velocity P-wave (km/s) = 5.69978 5.95779 5.83021
#
# Compressibility (1/GPa) = 0.03582751
#
# Stress axis : x y z
#
# Youngs Moduli (GPa) = 63.48400 78.80988 51.02423
#
# Poissons Ratio (x) = 0.27144 0.12465
# Poissons Ratio (y) = 0.21865 0.01116
# Poissons Ratio (z) = 0.15508 0.01724
#
# Static dielectric constant tensor:
#      x y z
#    x 1.760270 0.000000 -0.027140 
#    y 0.000000 1.773600 0.000000 
#    z -0.027140 0.000000 1.830490 
# 
# From -- ./inp_files/86060.got.cif
#   From: 2010.05.17/outbox.cif.g08.bks.cpg/sg15_44_cif.got.tgz:86060.got - 2010.06.03 18:47:42.
