data_PCOD9277316
_publ_section_title
;
Structure prediction by ZEFSAII (Michael W. Deem and Ramdas Pophale) SiO2 
 PCOD9277316
Probable space group: C 2/C
;
_chemical_formula_sum "Si O2"
_cell_formula_units_Z 32
_cell_length_a 20.116940
_cell_length_b 5.097828
_cell_length_c 16.942075
_cell_angle_alpha 90.000000
_cell_angle_beta 41.798908
_cell_angle_gamma 90.000000
_cell_volume 1158.045844
_symmetry_space_group_name_H-M "C 2/C"
_symmetry_group_IT_number 15
_symmetry_cell_setting 'monoclinic'
loop_
_space_group_symop_operation_xyz
x,y,z
-x,y,1/2-z
-x,-y,-z
x,-y,1/2+z
1/2+x,1/2+y,z
1/2-x,1/2+y,1/2-z
1/2-x,1/2-y,-z
1/2+x,1/2-y,1/2+z
loop_
_atom_site_type_symbol
_atom_site_label
_atom_site_fract_x
_atom_site_fract_y
_atom_site_fract_z
Si Si1 0.000000 0.152786 0.750000
Si Si2 0.209948 0.770788 0.739967
Si Si3 0.000000 0.000000 0.000000
Si Si4 0.974986 0.478162 0.625904
Si Si5 0.861422 0.853526 0.987640
O O1 0.946379 0.328145 0.730945
O O2 0.910710 0.978890 0.866556
O O3 0.247435 0.545351 0.767228
O O4 0.088127 0.748153 0.840565
O O5 0.250137 0.692499 0.616994
O O6 0.047440 0.281560 0.924374
O O7 0.089464 0.970673 0.987302
O O8 0.084304 0.575045 0.551468
#
# Coordination Sequence:
#
# PCOD9277316 Si02
#       5
#     4   8   4   8   8
#     4  10  26  44  70 100 142 208 236 290 370 438
#     4  12  28  44  75 117 143 187 249 312 368 429
#     4  10  20  40  72  96 140 188 238 300 356 426
#     4  11  24  45  72 106 148 191 244 297 368 437
#     4  11  23  44  70 104 145 189 243 297 364 431
#
# _framework density 27.632756000000001
#
# number of rings (size 3 to 8) (size 9 to 14) (size 15 to 20)
#    0.000    1.000    2.500    3.000   10.500    1.000 
#    0.000    5.000    0.000    0.000    0.000    0.000 
#    0.000    0.000    0.000    0.000    0.000    0.000 
#
# Total GULP energy -89201.495033 kJ/mol
# GULP energy per Si atom -5575.093440 kJ/mol
# Density = 2.756986 g / cm^3
# Si number density = 27.632756 Si / 1000 Ang^3
#
#
#
# Elastic Constant Matrix: (Units=GPa)
#
#
# Indices 1 2 3 4 5 6 
#
# 1 56.1221 20.9737 32.3044 0.1116 -2.4398 0.0013
# 2 20.9737 157.5741 -10.2001 0.1183 17.3927 0.0341
# 3 32.3044 -10.2001 133.7223 0.0257 4.7014 -0.0194
# 4 0.1116 0.1183 0.0257 29.7645 -0.1216 3.1349
# 5 -2.4398 17.3927 4.7014 -0.1216 57.5328 -0.0134
# 6 0.0013 0.0341 -0.0194 3.1349 -0.0134 44.3193
#
#
#
# Elastic Compliance Matrix: (Units=1/GPa)
#
#
# Indices 1 2 3 4 5 6 
#
# 1 0.022669 -0.003677 -0.005846 -0.000055 0.002551 0.000004
# 2 -0.003677 0.007206 0.001524 -0.000026 -0.002459 -0.000004
# 3 -0.005846 0.001524 0.009058 0.000002 -0.001449 0.000002
# 4 -0.000055 -0.000026 0.000002 0.033850 0.000076 -0.002394
# 5 0.002551 -0.002459 -0.001449 0.000076 0.018351 0.000001
# 6 0.000004 -0.000004 0.000002 -0.002394 0.000001 0.022733
#
#
# Mechanical properties :
#
#
# Convention : Reuss Voigt Hill
#
# Bulk Modulus (GPa) = 43.60363 48.17495 45.88929
# Shear Modulus (GPa) = 36.36108 46.61270 41.48689
#
# Velocity S-wave (km/s) = 3.63143 4.11160 3.87895
# Velocity P-wave (km/s) = 5.77901 6.32552 6.05843
#
# Compressibility (1/GPa) = 0.02293387
#
# Stress axis : x y z
#
# Youngs Moduli (GPa) = 44.11354 138.77739 110.40229
#
# Poissons Ratio (x) = 0.51032 0.64546
# Poissons Ratio (y) = 0.16222 -0.16830
# Poissons Ratio (z) = 0.25791 -0.21156
#
# Static dielectric constant tensor:
#      x y z
#    x 2.034010 0.000010 -0.033000 
#    y 0.000010 1.946090 -0.000060 
#    z -0.033000 -0.000060 2.237270 
# 
# From -- ./inp_files/164997.got.cif
#   From: 2010.05.17/outbox.cif.g08.bks.cpg/sg15_83_cif.got.tgz:164997.got - 2010.06.03 18:47:42.
