data_PCOD9277090
_publ_section_title
;
Structure prediction by ZEFSAII (Michael W. Deem and Ramdas Pophale) SiO2 
 PCOD9277090
Probable space group: C 2/C
;
_chemical_formula_sum "Si O2"
_cell_formula_units_Z 40
_cell_length_a 18.269508
_cell_length_b 15.675275
_cell_length_c 5.448050
_cell_angle_alpha 90.000000
_cell_angle_beta 113.060778
_cell_angle_gamma 90.000000
_cell_volume 1435.533555
_symmetry_space_group_name_H-M "C 2/C"
_symmetry_group_IT_number 15
_symmetry_cell_setting 'monoclinic'
loop_
_space_group_symop_operation_xyz
x,y,z
-x,y,1/2-z
-x,-y,-z
x,-y,1/2+z
1/2+x,1/2+y,z
1/2-x,1/2+y,1/2-z
1/2-x,1/2-y,-z
1/2+x,1/2-y,1/2+z
loop_
_atom_site_type_symbol
_atom_site_label
_atom_site_fract_x
_atom_site_fract_y
_atom_site_fract_z
Si Si1 0.473325 0.289881 0.972071
Si Si2 0.297417 0.326494 0.926812
Si Si3 0.399867 0.445155 0.344972
Si Si4 0.156694 0.601566 0.953532
Si Si5 0.091136 0.586747 0.363769
O O1 0.500000 0.238885 0.250000
O O2 0.528731 0.375889 0.053596
O O3 0.500000 0.252202 0.750000
O O4 0.381245 0.309905 0.898774
O O5 0.243365 0.368449 0.644854
O O6 0.250000 0.250000 0.000000
O O7 0.320747 0.390938 0.178642
O O8 0.403104 0.493893 0.608408
O O9 0.108430 0.631202 0.129888
O O10 0.120898 0.632365 0.649297
O O11 0.143898 0.499913 0.923021
O O12 0.000000 0.557684 0.250000
#
# Coordination Sequence:
#
# PCOD9277090 Si02
#       5
#     8   8   8   8   8
#     4  10  23  46  73 108 152 201 261 314 393 472
#     4  11  27  47  72 115 168 205 257 332 408 483
#     4  11  25  46  79 114 152 206 267 329 393 469
#     4  10  21  37  65 100 142 190 240 309 387 432
#     4  10  20  40  68 103 137 187 255 313 367 457
#
# _framework density 27.864201999999999
#
# number of rings (size 3 to 8) (size 9 to 14) (size 15 to 20)
#    0.000    1.600    0.000    5.400    5.600   13.600 
#    0.000   19.000    0.000    9.600    0.000    1.400 
#    0.000    0.200    0.000    0.000    0.000    0.000 
#
# Total GULP energy -112110.985607 kJ/mol
# GULP energy per Si atom -5605.549280 kJ/mol
# Density = 2.780078 g / cm^3
# Si number density = 27.864202 Si / 1000 Ang^3
#
#
#
# Elastic Constant Matrix: (Units=GPa)
#
#
# Indices 1 2 3 4 5 6 
#
# 1 170.5344 49.0893 99.9300 0.0000 19.1742 0.0000
# 2 49.0893 129.1378 70.4586 0.0000 14.9960 0.0000
# 3 99.9300 70.4586 293.6192 0.0000 -3.0897 0.0000
# 4 0.0000 0.0000 0.0000 -757.3449 0.0000 174.5916
# 5 19.1742 14.9960 -3.0897 0.0000 74.0649 0.0000
# 6 0.0000 0.0000 0.0000 174.5916 0.0000 11.7005
#
#
#
# Elastic Compliance Matrix: (Units=1/GPa)
#
#
# Indices 1 2 3 4 5 6 
#
# 1 0.007873 -0.001505 -0.002338 0.000000 -0.001831 0.000000
# 2 -0.001505 0.009472 -0.001778 0.000000 -0.001602 0.000000
# 3 -0.002338 -0.001778 0.004640 0.000000 0.001159 0.000000
# 4 0.000000 0.000000 0.000000 -0.000297 0.000000 0.004438
# 5 -0.001831 -0.001602 0.001159 0.000000 0.014348 0.000000
# 6 0.000000 0.000000 0.000000 0.004438 0.000000 0.019250
#
#
# Mechanical properties :
#
#
# Convention : Reuss Voigt Hill
#
# Bulk Modulus (GPa) = 93.06932 114.69413 103.88172
# Shear Modulus (GPa) = 71.32034 -109.39499 -19.03732
#
# Velocity S-wave (km/s) = 5.06471 -6.27258 -2.61668
# Velocity P-wave (km/s) = 8.22649 3.34801 5.31347
#
# Compressibility (1/GPa) = 0.01074468
#
# Stress axis : x y z
#
# Youngs Moduli (GPa) = 127.02144 105.57892 215.51217
#
# Poissons Ratio (x) = 0.15886 0.50378
# Poissons Ratio (y) = 0.19112 0.38310
# Poissons Ratio (z) = 0.29692 0.18768
#
# Static dielectric constant tensor:
#      x y z
#    x 2.199450 0.000000 -0.016770 
#    y 0.000000 2.268020 0.000000 
#    z -0.016770 0.000000 2.196720 
# 
# From -- ./inp_files/10235.got.cif
#   From: 2010.05.17/outbox.cif.g08.bks.cpg/sg15_6_cif.got.tgz:10235.got - 2010.06.03 18:47:42.
