data_PCOD9277235
_publ_section_title
;
Structure prediction by ZEFSAII (Michael W. Deem and Ramdas Pophale) SiO2 
 PCOD9277235
Probable space group: C 2/C
;
_chemical_formula_sum "Si O2"
_cell_formula_units_Z 44
_cell_length_a 10.319580
_cell_length_b 15.361067
_cell_length_c 15.032863
_cell_angle_alpha 90.000000
_cell_angle_beta 61.690745
_cell_angle_gamma 90.000000
_cell_volume 2098.000151
_symmetry_space_group_name_H-M "C 2/C"
_symmetry_group_IT_number 15
_symmetry_cell_setting 'monoclinic'
loop_
_space_group_symop_operation_xyz
x,y,z
-x,y,1/2-z
-x,-y,-z
x,-y,1/2+z
1/2+x,1/2+y,z
1/2-x,1/2+y,1/2-z
1/2-x,1/2-y,-z
1/2+x,1/2-y,1/2+z
loop_
_atom_site_type_symbol
_atom_site_label
_atom_site_fract_x
_atom_site_fract_y
_atom_site_fract_z
Si Si1 0.249068 0.813103 0.711077
Si Si2 0.000000 0.245857 0.750000
Si Si3 0.405925 0.695435 0.060557
Si Si4 0.261576 0.673320 0.568810
Si Si5 0.254614 0.355578 0.438445
Si Si6 0.160292 0.543354 0.463139
O O1 0.400771 0.800616 0.715296
O O2 0.127949 0.828354 0.826776
O O3 0.211245 0.721280 0.675001
O O4 0.281687 0.887778 0.628839
O O5 0.888683 0.187238 0.842157
O O6 0.387653 0.800285 0.050044
O O7 0.563060 0.658997 0.980537
O O8 0.280840 0.660325 0.034581
O O9 0.250000 0.750000 0.500000
O O10 0.179548 0.591217 0.552489
O O11 0.257662 0.457354 0.423792
O O12 0.000000 0.500000 0.500000
#
# Coordination Sequence:
#
# PCOD9277235 Si02
#       6
#     8   4   8   8   8   8
#     4  10  22  41  66  94 125 174 208 259 322 390
#     4  10  20  40  70  88 124 170 216 246 330 384
#     4  10  21  40  67  91 122 175 211 251 329 378
#     4  10  21  40  64  90 130 167 206 260 318 382
#     4  10  21  39  65  91 127 162 212 268 307 389
#     4  11  25  41  62  93 132 164 217 272 313 368
#
# _framework density 20.972352999999998
#
# number of rings (size 3 to 8) (size 9 to 14) (size 15 to 20)
#    0.000    1.818    1.818    2.182    5.091    5.091 
#    6.545    0.000    4.000    0.000    0.000    0.000 
#    0.000    0.000    0.000    0.000    0.000    0.000 
#
# Total GULP energy -122741.717561 kJ/mol
# GULP energy per Si atom -5579.168980 kJ/mol
# Density = 2.092462 g / cm^3
# Si number density = 20.972353 Si / 1000 Ang^3
#
#
#
# Elastic Constant Matrix: (Units=GPa)
#
#
# Indices 1 2 3 4 5 6 
#
# 1 61.2458 28.9828 8.5169 0.0000 8.4015 0.0000
# 2 28.9828 128.1480 32.8755 0.0000 11.7733 0.0000
# 3 8.5169 32.8755 113.9144 0.0000 9.4947 0.0000
# 4 0.0000 0.0000 0.0000 14.2750 0.0000 1.5676
# 5 8.4015 11.7733 9.4947 0.0000 30.0899 0.0000
# 6 0.0000 0.0000 0.0000 1.5676 0.0000 27.9101
#
#
#
# Elastic Compliance Matrix: (Units=1/GPa)
#
#
# Indices 1 2 3 4 5 6 
#
# 1 0.018672 -0.003892 0.000036 0.000000 -0.003702 0.000000
# 2 -0.003892 0.009441 -0.002276 0.000000 -0.001889 0.000000
# 3 0.000036 -0.002276 0.009612 0.000000 -0.002152 0.000000
# 4 0.000000 0.000000 0.000000 0.070487 0.000000 -0.003959
# 5 -0.003702 -0.001889 -0.002152 0.000000 0.035686 0.000000
# 6 0.000000 0.000000 0.000000 -0.003959 0.000000 0.036052
#
#
# Mechanical properties :
#
#
# Convention : Reuss Voigt Hill
#
# Bulk Modulus (GPa) = 39.27651 49.33984 44.30818
# Shear Modulus (GPa) = 24.91248 29.98386 27.44817
#
# Velocity S-wave (km/s) = 3.45029 3.78522 3.62163
# Velocity P-wave (km/s) = 5.88567 6.53307 6.21780
#
# Compressibility (1/GPa) = 0.02546051
#
# Stress axis : x y z
#
# Youngs Moduli (GPa) = 53.55515 105.91800 104.03470
#
# Poissons Ratio (x) = 0.41225 -0.00372
# Poissons Ratio (y) = 0.20844 0.23681
# Poissons Ratio (z) = -0.00192 0.24110
#
# Static dielectric constant tensor:
#      x y z
#    x 1.896660 0.000000 -0.043870 
#    y 0.000000 1.775240 0.000000 
#    z -0.043870 0.000000 1.837710 
# 
# From -- ./inp_files/143355.got.cif
#   From: 2010.05.17/outbox.cif.g08.bks.cpg/sg15_72_cif.got.tgz:143355.got - 2010.06.03 18:47:42.
