data_PCOD9277349
_publ_section_title
;
Structure prediction by ZEFSAII (Michael W. Deem and Ramdas Pophale) SiO2 
 PCOD9277349
Probable space group: C 2/C
;
_chemical_formula_sum "Si O2"
_cell_formula_units_Z 36
_cell_length_a 17.447821
_cell_length_b 6.633837
_cell_length_c 17.349183
_cell_angle_alpha 90.000000
_cell_angle_beta 128.241384
_cell_angle_gamma 90.000000
_cell_volume 1577.180718
_symmetry_space_group_name_H-M "C 2/C"
_symmetry_group_IT_number 15
_symmetry_cell_setting 'monoclinic'
loop_
_space_group_symop_operation_xyz
x,y,z
-x,y,1/2-z
-x,-y,-z
x,-y,1/2+z
1/2+x,1/2+y,z
1/2-x,1/2+y,1/2-z
1/2-x,1/2-y,-z
1/2+x,1/2-y,1/2+z
loop_
_atom_site_type_symbol
_atom_site_label
_atom_site_fract_x
_atom_site_fract_y
_atom_site_fract_z
Si Si1 0.606211 0.770240 0.681518
Si Si2 0.010088 0.246855 0.029321
Si Si3 0.700989 0.427633 0.635541
Si Si4 0.500000 0.461663 0.250000
Si Si5 0.648396 0.357839 0.952067
O O1 0.533924 0.861327 0.572167
O O2 0.670978 0.616847 0.670204
O O3 0.685941 0.891434 0.778752
O O4 0.537106 0.662313 0.699929
O O5 0.126164 0.250621 0.113609
O O6 0.935761 0.263760 0.053952
O O7 0.000000 0.000000 0.000000
O O8 0.678900 0.467442 0.531735
O O9 0.405609 0.579674 0.159763
O O10 0.750000 0.250000 0.000000
#
# Coordination Sequence:
#
# PCOD9277349 Si02
#       5
#     8   8   8   4   8
#     4  10  21  36  64  82 118 159 200 241 304 352
#     4   8  16  38  54  81 115 154 191 238 292 351
#     4  10  20  41  58  89 116 162 202 240 297 364
#     4  12  20  38  62  84 120 168 184 252 318 336
#     4  10  21  35  63  91 119 152 205 246 295 361
#
# _framework density 22.825538000000002
#
# number of rings (size 3 to 8) (size 9 to 14) (size 15 to 20)
#    0.000    2.667    6.667    0.000    6.222    0.889 
#    0.000    4.444    0.000    0.000    0.000    0.000 
#    0.000    0.000    0.000    0.000    0.000    0.000 
#
# Total GULP energy -100333.633914 kJ/mol
# GULP energy per Si atom -5574.090773 kJ/mol
# Density = 2.277359 g / cm^3
# Si number density = 22.825538 Si / 1000 Ang^3
#
#
#
# Elastic Constant Matrix: (Units=GPa)
#
#
# Indices 1 2 3 4 5 6 
#
# 1 102.5401 6.0705 35.8318 0.0000 14.3821 0.0000
# 2 6.0705 12.2683 14.7591 0.0000 6.4790 0.0000
# 3 35.8318 14.7591 189.7189 0.0000 15.9551 0.0000
# 4 0.0000 0.0000 0.0000 28.1224 0.0000 3.4109
# 5 14.3821 6.4790 15.9551 0.0000 47.2614 0.0000
# 6 0.0000 0.0000 0.0000 3.4109 0.0000 23.6384
#
#
#
# Elastic Compliance Matrix: (Units=1/GPa)
#
#
# Indices 1 2 3 4 5 6 
#
# 1 0.010801 -0.002039 -0.001676 0.000000 -0.002442 0.000000
# 2 -0.002039 0.095417 -0.006165 0.000000 -0.010379 0.000000
# 3 -0.001676 -0.006165 0.006127 0.000000 -0.000713 0.000000
# 4 0.000000 0.000000 0.000000 0.036192 0.000000 -0.005222
# 5 -0.002442 -0.010379 -0.000713 0.000000 0.023566 0.000000
# 6 0.000000 0.000000 0.000000 -0.005222 0.000000 0.043058
#
#
# Mechanical properties :
#
#
# Convention : Reuss Voigt Hill
#
# Bulk Modulus (GPa) = 10.80080 46.42780 28.61430
# Shear Modulus (GPa) = 18.81237 36.32882 27.57060
#
# Velocity S-wave (km/s) = 2.87397 3.99380 3.47923
# Velocity P-wave (km/s) = 3.96927 6.45381 5.35755
#
# Compressibility (1/GPa) = 0.09258576
#
# Stress axis : x y z
#
# Youngs Moduli (GPa) = 92.58304 10.48028 163.20932
#
# Poissons Ratio (x) = 0.02137 0.27355
# Poissons Ratio (y) = 0.18876 1.00619
# Poissons Ratio (z) = 0.15517 0.06461
#
# Static dielectric constant tensor:
#      x y z
#    x 1.819780 0.000000 0.038820 
#    y 0.000000 2.225160 0.000000 
#    z 0.038820 0.000000 1.936480 
# 
# From -- ./inp_files/176825.got.cif
#   From: 2010.05.17/outbox.cif.g08.bks.cpg/sg15_89_cif.got.tgz:176825.got - 2010.06.03 18:47:42.
