data_PCOD9277004
_publ_section_title
;
Structure prediction by ZEFSAII (Michael W. Deem and Ramdas Pophale) SiO2 
 PCOD9277004
Probable space group: C 2/C
;
_chemical_formula_sum "Si O2"
_cell_formula_units_Z 48
_cell_length_a 14.246702
_cell_length_b 15.893752
_cell_length_c 18.063760
_cell_angle_alpha 90.000000
_cell_angle_beta 31.070697
_cell_angle_gamma 90.000000
_cell_volume 2110.954450
_symmetry_space_group_name_H-M "C 2/C"
_symmetry_group_IT_number 15
_symmetry_cell_setting 'monoclinic'
loop_
_space_group_symop_operation_xyz
x,y,z
-x,y,1/2-z
-x,-y,-z
x,-y,1/2+z
1/2+x,1/2+y,z
1/2-x,1/2+y,1/2-z
1/2-x,1/2-y,-z
1/2+x,1/2-y,1/2+z
loop_
_atom_site_type_symbol
_atom_site_label
_atom_site_fract_x
_atom_site_fract_y
_atom_site_fract_z
Si Si1 0.086230 0.325578 0.017255
Si Si2 0.393754 0.113858 0.161361
Si Si3 0.247809 0.069712 0.751504
Si Si4 0.298270 0.602681 0.888643
Si Si5 0.512857 0.357691 0.957956
Si Si6 0.868586 0.072984 0.407456
O O1 0.087768 0.228853 0.993709
O O2 0.883241 0.352907 0.174638
O O3 0.131906 0.373524 0.909572
O O4 0.209897 0.359654 0.999948
O O5 0.228768 0.159162 0.315025
O O6 0.353605 0.015087 0.203985
O O7 0.600476 0.143715 0.037675
O O8 0.220520 0.066846 0.682051
O O9 0.067603 0.094214 0.917557
O O10 0.500000 0.644866 0.750000
O O11 0.306034 0.522728 0.938020
O O12 0.470352 0.415160 0.915455
O O13 0.000000 0.090528 0.250000
#
# Coordination Sequence:
#
# PCOD9277004 Si02
#       6
#     8   8   8   8   8   8
#     4  11  21  41  62  91 132 181 200 251 321 397
#     4  11  20  41  63  85 127 174 218 253 309 382
#     4  11  22  40  63  89 127 170 221 257 305 378
#     4  10  20  40  67  88 116 173 223 252 309 376
#     4  12  25  36  63 100 133 160 211 269 323 368
#     4  11  20  38  61  92 136 169 201 243 320 400
#
# _framework density 22.738530000000001
#
# number of rings (size 3 to 8) (size 9 to 14) (size 15 to 20)
#    0.000    1.000    5.000    4.000    0.000    0.667 
#    0.000    2.500    0.000   16.000    0.000    0.000 
#    0.000    0.000    0.000    0.000    0.000    0.000 
#
# Total GULP energy -133993.106063 kJ/mol
# GULP energy per Si atom -5583.046086 kJ/mol
# Density = 2.268678 g / cm^3
# Si number density = 22.738530 Si / 1000 Ang^3
#
#
#
# Elastic Constant Matrix: (Units=GPa)
#
#
# Indices 1 2 3 4 5 6 
#
# 1 41.6492 5.0719 19.5017 0.0001 -19.4281 0.0003
# 2 5.0719 35.9009 6.3536 0.0000 6.2693 0.0006
# 3 19.5017 6.3536 137.4828 0.0074 -19.8006 -0.0053
# 4 0.0001 0.0000 0.0074 19.4600 -0.0048 -2.3051
# 5 -19.4281 6.2693 -19.8006 -0.0048 33.9478 0.0028
# 6 0.0003 0.0006 -0.0053 -2.3051 0.0028 13.5106
#
#
#
# Elastic Compliance Matrix: (Units=1/GPa)
#
#
# Indices 1 2 3 4 5 6 
#
# 1 0.035574 -0.008394 -0.001641 0.000005 0.020952 -0.000004
# 2 -0.008394 0.031438 -0.001954 -0.000002 -0.011750 0.000000
# 3 -0.001641 -0.001954 0.008202 -0.000002 0.004206 0.000002
# 4 0.000005 -0.000002 -0.000002 0.052447 0.000009 0.008948
# 5 0.020952 -0.011750 0.004206 0.000009 0.046071 -0.000006
# 6 -0.000004 0.000000 0.000002 0.008948 -0.000006 0.075543
#
#
# Mechanical properties :
#
#
# Convention : Reuss Voigt Hill
#
# Bulk Modulus (GPa) = 19.51751 30.76527 25.14139
# Shear Modulus (GPa) = 17.22165 25.65739 21.43952
#
# Velocity S-wave (km/s) = 2.75503 3.36276 3.07395
# Velocity P-wave (km/s) = 4.32694 5.35135 4.86617
#
# Compressibility (1/GPa) = 0.05123605
#
# Stress axis : x y z
#
# Youngs Moduli (GPa) = 28.11049 31.80866 121.91454
#
# Poissons Ratio (x) = 0.26701 0.20002
# Poissons Ratio (y) = 0.23596 0.23827
# Poissons Ratio (z) = 0.04612 0.06217
#
# Static dielectric constant tensor:
#      x y z
#    x 1.843630 0.000000 -0.085160 
#    y 0.000000 1.855460 0.000000 
#    z -0.085160 0.000000 1.909820 
# 
# From -- ./inp_files/206374.got.cif
#   From: 2010.05.17/outbox.cif.g08.bks.cpg/sg15_104_cif.got.tgz:206374.got - 2010.06.03 18:47:42.
