data_PCOD9277749
_publ_section_title
;
Structure prediction by ZEFSAII (Michael W. Deem and Ramdas Pophale) SiO2 
 PCOD9277749
Probable space group: C 2/C
;
_chemical_formula_sum "Si O2"
_cell_formula_units_Z 44
_cell_length_a 8.914795
_cell_length_b 13.946979
_cell_length_c 13.605256
_cell_angle_alpha 90.000000
_cell_angle_beta 75.088802
_cell_angle_gamma 90.000000
_cell_volume 1634.638802
_symmetry_space_group_name_H-M "C 2/C"
_symmetry_group_IT_number 15
_symmetry_cell_setting 'monoclinic'
loop_
_space_group_symop_operation_xyz
x,y,z
-x,y,1/2-z
-x,-y,-z
x,-y,1/2+z
1/2+x,1/2+y,z
1/2-x,1/2+y,1/2-z
1/2-x,1/2-y,-z
1/2+x,1/2-y,1/2+z
loop_
_atom_site_type_symbol
_atom_site_label
_atom_site_fract_x
_atom_site_fract_y
_atom_site_fract_z
Si Si1 0.403766 0.718777 0.885214
Si Si2 0.840793 0.437999 0.151028
Si Si3 0.251444 0.179997 0.839558
Si Si4 0.000000 0.158106 0.250000
Si Si5 0.319075 0.378818 0.591514
Si Si6 0.687491 0.064665 0.504848
O O1 0.281144 0.639746 0.868801
O O2 0.580562 0.700203 0.828866
O O3 0.342427 0.822589 0.862874
O O4 0.397008 0.698523 0.004216
O O5 0.826005 0.411750 0.267827
O O6 0.008236 0.424613 0.070995
O O7 0.798626 0.542090 0.113186
O O8 0.364632 0.268100 0.804200
O O9 0.236190 0.153868 0.955933
O O10 0.927276 0.103966 0.167951
O O11 0.274705 0.475028 0.541895
#
# Coordination Sequence:
#
# PCOD9277749 Si02
#       6
#     8   8   8   4   8   8
#     4  10  22  43  71  93 135 178 227 270 351 406
#     4  10  20  41  68  95 128 179 223 267 329 425
#     4  12  22  43  69  96 132 189 219 275 343 421
#     4  12  24  44  66  98 142 176 230 272 348 418
#     4  10  23  44  64 102 133 173 225 291 328 408
#     4  10  22  42  68  96 135 173 226 285 334 387
#
# _framework density 26.917262000000001
#
# number of rings (size 3 to 8) (size 9 to 14) (size 15 to 20)
#    0.000    1.455    3.636    0.545    0.000    3.636 
#   13.091    0.000    0.000    0.000    0.000    0.000 
#    0.000    0.000    0.000    0.000    0.000    0.000 
#
# Total GULP energy -123059.334316 kJ/mol
# GULP energy per Si atom -5593.606105 kJ/mol
# Density = 2.685600 g / cm^3
# Si number density = 26.917262 Si / 1000 Ang^3
#
#
#
# Elastic Constant Matrix: (Units=GPa)
#
#
# Indices 1 2 3 4 5 6 
#
# 1 157.7741 34.5893 41.3084 0.0000 22.9690 0.0000
# 2 34.5893 83.4621 35.8280 0.0000 -0.2333 0.0000
# 3 41.3084 35.8280 105.1256 0.0000 -1.3155 0.0000
# 4 0.0000 0.0000 0.0000 39.3305 0.0000 3.3391
# 5 22.9690 -0.2333 -1.3155 0.0000 39.1810 0.0000
# 6 0.0000 0.0000 0.0000 3.3391 0.0000 35.0281
#
#
#
# Elastic Compliance Matrix: (Units=1/GPa)
#
#
# Indices 1 2 3 4 5 6 
#
# 1 0.008222 -0.002352 -0.002491 0.000000 -0.004917 0.000000
# 2 -0.002352 0.014708 -0.004072 0.000000 0.001330 0.000000
# 3 -0.002491 -0.004072 0.011902 0.000000 0.001835 0.000000
# 4 0.000000 0.000000 0.000000 0.025633 0.000000 -0.002444
# 5 -0.004917 0.001330 0.001835 0.000000 0.028475 0.000000
# 6 0.000000 0.000000 0.000000 -0.002444 0.000000 0.028781
#
#
# Mechanical properties :
#
#
# Convention : Reuss Voigt Hill
#
# Bulk Modulus (GPa) = 58.81434 63.31256 61.06345
# Shear Modulus (GPa) = 35.40648 38.35032 36.87840
#
# Velocity S-wave (km/s) = 3.63075 3.77868 3.70545
# Velocity P-wave (km/s) = 6.28283 6.52764 6.40641
#
# Compressibility (1/GPa) = 0.01700266
#
# Stress axis : x y z
#
# Youngs Moduli (GPa) = 121.62792 67.99105 84.02091
#
# Poissons Ratio (x) = 0.15991 0.20927
# Poissons Ratio (y) = 0.28606 0.34211
# Poissons Ratio (z) = 0.30293 0.27684
#
# Static dielectric constant tensor:
#      x y z
#    x 2.137390 0.000000 -0.006320 
#    y 0.000000 2.047960 0.000000 
#    z -0.006320 0.000000 2.283730 
# 
# From -- ./inp_files/198581.got.cif
#   From: 2010.05.17/outbox.cif.g08.bks.cpg/sg15_100_cif.got.tgz:198581.got - 2010.06.03 18:47:42.
