data_PCOD9277904
_publ_section_title
;
Structure prediction by ZEFSAII (Michael W. Deem and Ramdas Pophale) SiO2 
 PCOD9277904
Probable space group: C 2/C
;
_chemical_formula_sum "Si O2"
_cell_formula_units_Z 52
_cell_length_a 24.015912
_cell_length_b 10.943164
_cell_length_c 11.522317
_cell_angle_alpha 90.000000
_cell_angle_beta 42.848708
_cell_angle_gamma 90.000000
_cell_volume 2059.359254
_symmetry_space_group_name_H-M "C 2/C"
_symmetry_group_IT_number 15
_symmetry_cell_setting 'monoclinic'
loop_
_space_group_symop_operation_xyz
x,y,z
-x,y,1/2-z
-x,-y,-z
x,-y,1/2+z
1/2+x,1/2+y,z
1/2-x,1/2+y,1/2-z
1/2-x,1/2-y,-z
1/2+x,1/2-y,1/2+z
loop_
_atom_site_type_symbol
_atom_site_label
_atom_site_fract_x
_atom_site_fract_y
_atom_site_fract_z
Si Si1 0.724784 0.048468 0.544721
Si Si2 0.413682 0.050603 0.920988
Si Si3 0.323727 0.717198 0.247567
Si Si4 0.094906 0.862952 0.277659
Si Si5 0.967427 0.119780 0.173263
Si Si6 0.715622 0.816497 0.710085
Si Si7 0.000000 0.681591 0.250000
O O1 0.637655 0.032940 0.617297
O O2 0.723478 0.166091 0.629442
O O3 0.782696 0.089215 0.351215
O O4 0.740691 0.930176 0.593782
O O5 0.500000 0.106449 0.750000
O O6 0.441698 0.912625 0.912547
O O7 0.358189 0.129095 0.093876
O O8 0.409357 0.708963 0.184826
O O9 0.297906 0.720820 0.153206
O O10 0.175933 0.794330 0.199654
O O11 0.045944 0.893171 0.471262
O O12 0.048670 0.765470 0.265839
O O13 0.083784 0.993594 0.231249
O O14 0.000000 0.151440 0.250000
#
# Coordination Sequence:
#
# PCOD9277904 Si02
#       7
#     8   8   8   8   8   8   4
#     4  10  22  42  61  94 130 169 214 275 334 404
#     4   9  21  35  64  99 128 162 211 279 340 399
#     4  10  26  41  65  95 133 174 222 277 335 407
#     4  11  25  44  69  99 135 180 229 283 335 413
#     4  11  27  45  69  97 136 186 228 275 344 409
#     4  11  23  42  68  98 132 174 227 280 347 403
#     4  10  20  42  62 102 138 160 226 286 334 406
#
# _framework density 25.250571999999998
#
# number of rings (size 3 to 8) (size 9 to 14) (size 15 to 20)
#    0.462    1.231    2.308    0.000   12.923    2.462 
#    0.000    0.769    0.000    0.000    0.000    0.000 
#    0.000    0.000    0.000    0.000    0.000    0.000 
#
# Total GULP energy -145203.825446 kJ/mol
# GULP energy per Si atom -5584.762517 kJ/mol
# Density = 2.519310 g / cm^3
# Si number density = 25.250572 Si / 1000 Ang^3
#
#
#
# Elastic Constant Matrix: (Units=GPa)
#
#
# Indices 1 2 3 4 5 6 
#
# 1 200.2404 57.4111 21.2908 0.0000 13.1051 0.0000
# 2 57.4111 154.5688 25.6042 0.0000 9.9827 0.0000
# 3 21.2908 25.6042 81.9283 0.0000 -0.9108 0.0000
# 4 0.0000 0.0000 0.0000 43.2031 0.0000 1.6270
# 5 13.1051 9.9827 -0.9108 0.0000 27.9430 0.0000
# 6 0.0000 0.0000 0.0000 1.6270 0.0000 51.6348
#
#
#
# Elastic Compliance Matrix: (Units=1/GPa)
#
#
# Indices 1 2 3 4 5 6 
#
# 1 0.005760 -0.001850 -0.000942 0.000000 -0.002071 0.000000
# 2 -0.001850 0.007597 -0.001915 0.000000 -0.001909 0.000000
# 3 -0.000942 -0.001915 0.013066 0.000000 0.001552 0.000000
# 4 0.000000 0.000000 0.000000 0.023174 0.000000 -0.000730
# 5 -0.002071 -0.001909 0.001552 0.000000 0.037491 0.000000
# 6 0.000000 0.000000 0.000000 -0.000730 0.000000 0.019390
#
#
# Mechanical properties :
#
#
# Convention : Reuss Voigt Hill
#
# Bulk Modulus (GPa) = 58.78628 71.70553 65.24591
# Shear Modulus (GPa) = 41.13160 46.71827 43.92493
#
# Velocity S-wave (km/s) = 4.04039 4.30605 4.17533
# Velocity P-wave (km/s) = 6.71551 7.29260 7.00999
#
# Compressibility (1/GPa) = 0.01701077
#
# Stress axis : x y z
#
# Youngs Moduli (GPa) = 173.61067 131.62931 76.53324
#
# Poissons Ratio (x) = 0.24347 0.07208
# Poissons Ratio (y) = 0.32112 0.14655
# Poissons Ratio (z) = 0.16351 0.25204
#
# Static dielectric constant tensor:
#      x y z
#    x 1.987070 0.000000 0.000590 
#    y 0.000000 1.990150 0.000000 
#    z 0.000590 0.000000 2.234950 
# 
# From -- ./inp_files/117929.got.cif
#   From: 2010.05.17/outbox.cif.g08.bks.cpg/sg15_59_cif.got.tgz:117929.got - 2010.06.03 18:47:42.
