data_PCOD9277314
_publ_section_title
;
Structure prediction by ZEFSAII (Michael W. Deem and Ramdas Pophale) SiO2 
 PCOD9277314
Probable space group: C 2/C
;
_chemical_formula_sum "Si O2"
_cell_formula_units_Z 60
_cell_length_a 16.896129
_cell_length_b 9.551243
_cell_length_c 20.049947
_cell_angle_alpha 90.000000
_cell_angle_beta 119.248535
_cell_angle_gamma 90.000000
_cell_volume 2823.124342
_symmetry_space_group_name_H-M "C 2/C"
_symmetry_group_IT_number 15
_symmetry_cell_setting 'monoclinic'
loop_
_space_group_symop_operation_xyz
x,y,z
-x,y,1/2-z
-x,-y,-z
x,-y,1/2+z
1/2+x,1/2+y,z
1/2-x,1/2+y,1/2-z
1/2-x,1/2-y,-z
1/2+x,1/2-y,1/2+z
loop_
_atom_site_type_symbol
_atom_site_label
_atom_site_fract_x
_atom_site_fract_y
_atom_site_fract_z
Si Si1 0.383626 0.076243 0.138261
Si Si2 0.095209 0.476765 0.703078
Si Si3 0.237476 0.589104 0.015190
Si Si4 0.306689 0.202419 0.362567
Si Si5 0.903102 0.100977 0.616636
Si Si6 0.931163 0.963485 0.411686
Si Si7 0.000000 0.917409 0.750000
Si Si8 0.624734 0.285168 0.700120
O O1 0.360278 0.040252 0.205340
O O2 0.488941 0.040248 0.171376
O O3 0.372523 0.241073 0.117671
O O4 0.329496 0.983593 0.063820
O O5 0.128978 0.359990 0.667312
O O6 0.118614 0.624032 0.678345
O O7 0.201281 0.603793 0.076023
O O8 0.328086 0.495115 0.050685
O O9 0.250000 0.750000 0.000000
O O10 0.354552 0.350317 0.399676
O O11 0.209188 0.207469 0.285844
O O12 0.998760 0.094331 0.616266
O O13 0.921508 0.020816 0.693557
O O14 0.880120 0.100038 0.360317
O O15 0.000000 0.000000 0.500000
O O16 0.965277 0.820010 0.794361
#
# Coordination Sequence:
#
# PCOD9277314 Si02
#       8
#     8   8   8   8   8   8   4   8
#     4  11  25  45  70 102 146 189 238 299 369 447
#     4  11  25  43  71 104 139 188 243 299 365 441
#     4  12  27  44  72 105 145 185 244 301 367 448
#     4  12  25  46  70 107 145 188 246 312 367 441
#     4  11  23  44  69  98 134 189 232 292 368 441
#     4  11  26  45  71 103 148 189 243 305 375 443
#     4  10  20  40  72  96 126 180 242 278 350 436
#     4  11  24  42  71 102 140 190 241 301 366 432
#
# _framework density 21.253050000000002
#
# number of rings (size 3 to 8) (size 9 to 14) (size 15 to 20)
#    0.000    0.800    2.667    4.400    7.467    3.733 
#    0.000    0.000    0.000    0.000    0.000    0.000 
#    0.000    0.000    0.000    0.000    0.000    0.000 
#
# Total GULP energy -167670.150742 kJ/mol
# GULP energy per Si atom -5589.005025 kJ/mol
# Density = 2.120468 g / cm^3
# Si number density = 21.253050 Si / 1000 Ang^3
#
#
#
# Elastic Constant Matrix: (Units=GPa)
#
#
# Indices 1 2 3 4 5 6 
#
# 1 54.9527 22.2424 27.0255 0.0000 4.8677 0.0000
# 2 22.2424 146.2300 58.0910 0.0000 19.3464 0.0000
# 3 27.0255 58.0910 125.7429 0.0000 16.4527 0.0000
# 4 0.0000 0.0000 0.0000 35.4541 0.0000 8.1730
# 5 4.8677 19.3464 16.4527 0.0000 28.6787 0.0000
# 6 0.0000 0.0000 0.0000 8.1730 0.0000 25.1237
#
#
#
# Elastic Compliance Matrix: (Units=1/GPa)
#
#
# Indices 1 2 3 4 5 6 
#
# 1 0.020686 -0.001661 -0.003639 0.000000 -0.000303 0.000000
# 2 -0.001661 0.008890 -0.003246 0.000000 -0.003853 0.000000
# 3 -0.003639 -0.003246 0.010668 0.000000 -0.003313 0.000000
# 4 0.000000 0.000000 0.000000 0.030492 0.000000 -0.009919
# 5 -0.000303 -0.003853 -0.003313 0.000000 0.039420 0.000000
# 6 0.000000 0.000000 0.000000 -0.009919 0.000000 0.043030
#
#
# Mechanical properties :
#
#
# Convention : Reuss Voigt Hill
#
# Bulk Modulus (GPa) = 43.19155 60.18261 51.68708
# Shear Modulus (GPa) = 28.09041 32.48909 30.28975
#
# Velocity S-wave (km/s) = 3.63948 3.91407 3.77927
# Velocity P-wave (km/s) = 6.16666 6.98608 6.58912
#
# Compressibility (1/GPa) = 0.02315268
#
# Stress axis : x y z
#
# Youngs Moduli (GPa) = 48.34139 112.47971 93.73839
#
# Poissons Ratio (x) = 0.18680 0.34113
# Poissons Ratio (y) = 0.08028 0.30429
# Poissons Ratio (z) = 0.17592 0.36513
#
# Static dielectric constant tensor:
#      x y z
#    x 1.787640 0.000000 0.009860 
#    y 0.000000 1.886230 0.000000 
#    z 0.009860 0.000000 1.851330 
# 
# From -- ./inp_files/247840.got.cif
#   From: 2010.05.17/outbox.cif.g08.bks.cpg/sg15_124_cif.got.tgz:247840.got - 2010.06.03 18:47:42.
