data_PCOD9277430
_publ_section_title
;
Structure prediction by ZEFSAII (Michael W. Deem and Ramdas Pophale) SiO2 
 PCOD9277430
Probable space group: C 2/C
;
_chemical_formula_sum "Si O2"
_cell_formula_units_Z 40
_cell_length_a 9.277075
_cell_length_b 20.086976
_cell_length_c 14.561138
_cell_angle_alpha 90.000000
_cell_angle_beta 139.490968
_cell_angle_gamma 90.000000
_cell_volume 1762.566483
_symmetry_space_group_name_H-M "C 2/C"
_symmetry_group_IT_number 15
_symmetry_cell_setting 'monoclinic'
loop_
_space_group_symop_operation_xyz
x,y,z
-x,y,1/2-z
-x,-y,-z
x,-y,1/2+z
1/2+x,1/2+y,z
1/2-x,1/2+y,1/2-z
1/2-x,1/2-y,-z
1/2+x,1/2-y,1/2+z
loop_
_atom_site_type_symbol
_atom_site_label
_atom_site_fract_x
_atom_site_fract_y
_atom_site_fract_z
Si Si1 0.000000 0.000262 0.750000
Si Si2 0.677567 0.409406 0.078023
Si Si3 0.243528 0.942838 0.546320
Si Si4 0.000000 0.782307 0.750000
Si Si5 0.364342 0.889937 0.875558
Si Si6 0.000781 0.341309 0.379379
O O1 0.791592 0.954143 0.680416
O O2 0.902765 0.040994 0.616512
O O3 0.419408 0.399279 0.969971
O O4 0.817009 0.375923 0.226528
O O5 0.762123 0.375731 0.026550
O O6 0.746760 0.486083 0.099557
O O7 0.476790 0.911216 0.631508
O O8 0.804008 0.828212 0.695118
O O9 0.031488 0.731689 0.851844
O O10 0.542362 0.864820 0.038907
#
# Coordination Sequence:
#
# PCOD9277430 Si02
#       6
#     4   8   8   4   8   8
#     4  11  22  32  56  90 120 154 191 236 304 373
#     4   9  21  35  57  88 120 163 188 239 310 362
#     4  11  21  36  57  91 129 149 195 245 306 370
#     4   9  22  40  64  86 114 164 221 246 294 351
#     4  11  22  37  61  89 119 159 204 249 296 354
#     4  10  20  41  63  82 120 165 205 245 297 356
#
# _framework density 22.694178000000001
#
# number of rings (size 3 to 8) (size 9 to 14) (size 15 to 20)
#    0.000    2.000    2.000    2.400    5.600    0.000 
#    0.000    4.000    0.000    4.800    0.000    0.000 
#    0.000    0.000    0.000    0.000    0.000    0.000 
#
# Total GULP energy -111536.565946 kJ/mol
# GULP energy per Si atom -5576.828297 kJ/mol
# Density = 2.264253 g / cm^3
# Si number density = 22.694178 Si / 1000 Ang^3
#
#
#
# Elastic Constant Matrix: (Units=GPa)
#
#
# Indices 1 2 3 4 5 6 
#
# 1 127.2723 45.0358 27.2271 -0.0004 44.3720 0.0001
# 2 45.0358 82.3673 26.4960 -0.0001 17.6336 0.0000
# 3 27.2271 26.4960 93.0799 -0.0013 9.0698 0.0003
# 4 -0.0004 -0.0001 -0.0013 30.6788 -0.0005 -2.5175
# 5 44.3720 17.6336 9.0698 -0.0005 45.8299 0.0002
# 6 0.0001 0.0000 0.0003 -2.5175 0.0002 0.9136
#
#
#
# Elastic Compliance Matrix: (Units=1/GPa)
#
#
# Indices 1 2 3 4 5 6 
#
# 1 0.013737 -0.004589 -0.001619 0.000000 -0.011214 0.000003
# 2 -0.004589 0.015863 -0.003071 0.000000 -0.001052 0.000001
# 3 -0.001619 -0.003071 0.012056 0.000000 0.000363 -0.000004
# 4 0.000000 0.000000 0.000000 0.042121 0.000000 0.116071
# 5 -0.011214 -0.001052 0.000363 0.000000 0.033010 -0.000008
# 6 0.000003 0.000001 -0.000004 0.116071 -0.000008 1.414444
#
#
# Mechanical properties :
#
#
# Convention : Reuss Voigt Hill
#
# Bulk Modulus (GPa) = 43.29438 55.58191 49.43814
# Shear Modulus (GPa) = 3.21030 29.08183 16.14606
#
# Velocity S-wave (km/s) = 1.19066 3.58364 2.67022
# Velocity P-wave (km/s) = 4.58355 6.45509 5.59809
#
# Compressibility (1/GPa) = 0.02309769
#
# Stress axis : x y z
#
# Youngs Moduli (GPa) = 72.79535 63.03920 82.94793
#
# Poissons Ratio (x) = 0.28932 0.13431
# Poissons Ratio (y) = 0.33409 0.25470
# Poissons Ratio (z) = 0.11787 0.19357
#
# Static dielectric constant tensor:
#      x y z
#    x 1.887120 0.000000 -0.072700 
#    y 0.000000 1.844220 0.000000 
#    z -0.072700 0.000000 1.971590 
# 
# From -- ./inp_files/192399.got.cif
#   From: 2010.05.17/outbox.cif.g08.bks.cpg/sg15_97_cif.got.tgz:192399.got - 2010.06.03 18:47:42.
