data_PCOD9277908
_publ_section_title
;
Structure prediction by ZEFSAII (Michael W. Deem and Ramdas Pophale) SiO2 
 PCOD9277908
Probable space group: C 2/C
;
_chemical_formula_sum "Si O2"
_cell_formula_units_Z 56
_cell_length_a 25.519312
_cell_length_b 23.048143
_cell_length_c 15.621512
_cell_angle_alpha 90.000000
_cell_angle_beta 161.279186
_cell_angle_gamma 90.000000
_cell_volume 2949.000923
_symmetry_space_group_name_H-M "C 2/C"
_symmetry_group_IT_number 15
_symmetry_cell_setting 'monoclinic'
loop_
_space_group_symop_operation_xyz
x,y,z
-x,y,1/2-z
-x,-y,-z
x,-y,1/2+z
1/2+x,1/2+y,z
1/2-x,1/2+y,1/2-z
1/2-x,1/2-y,-z
1/2+x,1/2-y,1/2+z
loop_
_atom_site_type_symbol
_atom_site_label
_atom_site_fract_x
_atom_site_fract_y
_atom_site_fract_z
Si Si1 0.377324 0.142873 0.931020
Si Si2 0.729671 0.522105 0.407294
Si Si3 0.566974 0.688878 0.539971
Si Si4 0.500000 0.048710 0.250000
Si Si5 0.173909 0.708374 0.311242
Si Si6 0.013611 0.086165 0.950988
Si Si7 0.352308 0.383153 0.580499
Si Si8 0.500000 0.646478 0.750000
O O1 0.248350 0.184846 0.779499
O O2 0.289999 0.131222 0.705647
O O3 0.394254 0.089808 0.023906
O O4 0.556564 0.165282 0.182902
O O5 0.611378 0.467093 0.236150
O O6 0.706560 0.566949 0.447643
O O7 0.901913 0.493088 0.660775
O O8 0.678122 0.558796 0.243941
O O9 0.561607 0.751961 0.575046
O O10 0.544507 0.639302 0.578095
O O11 0.433723 0.669659 0.261818
O O12 0.250000 0.750000 0.500000
O O13 0.330871 0.681236 0.506109
O O14 0.027458 0.108727 0.877030
O O15 0.500000 0.405666 0.750000
#
# Coordination Sequence:
#
# PCOD9277908 Si02
#       8
#     8   8   8   4   8   8   8   4
#     4  11  23  40  63  89 120 156 202 250 295 359
#     4  10  22  38  61  83 119 166 191 240 307 341
#     4  10  20  42  62  84 122 159 200 242 301 356
#     4  12  22  37  60  92 122 156 199 252 300 356
#     4  12  23  38  63  90 120 158 194 250 304 353
#     4  10  21  39  58  85 119 158 200 239 288 363
#     4   9  22  41  63  88 118 159 205 244 290 368
#     4  12  24  37  58  98 120 154 205 250 296 354
#
# _framework density 18.989481999999999
#
# number of rings (size 3 to 8) (size 9 to 14) (size 15 to 20)
#    0.000    1.429    2.857    2.571    3.000    2.286 
#    0.000    0.000    0.000    0.000    0.000    0.000 
#    0.000    0.000    0.000    0.000    0.000    0.000 
#
# Total GULP energy -156130.684686 kJ/mol
# GULP energy per Si atom -5576.095882 kJ/mol
# Density = 1.894626 g / cm^3
# Si number density = 18.989482 Si / 1000 Ang^3
#
#
#
# Elastic Constant Matrix: (Units=GPa)
#
#
# Indices 1 2 3 4 5 6 
#
# 1 103.7229 34.4386 29.7179 0.0000 -19.2409 0.0000
# 2 34.4386 61.1724 11.9368 0.0000 -3.1260 0.0000
# 3 29.7179 11.9368 59.4195 0.0000 -2.2455 0.0000
# 4 0.0000 0.0000 0.0000 -6.2622 0.0000 -1.1661
# 5 -19.2409 -3.1260 -2.2455 0.0000 32.1685 0.0000
# 6 0.0000 0.0000 0.0000 -1.1661 0.0000 32.4280
#
#
#
# Elastic Compliance Matrix: (Units=1/GPa)
#
#
# Indices 1 2 3 4 5 6 
#
# 1 0.015102 -0.006953 -0.005856 0.000000 0.007948 0.000000
# 2 -0.006953 0.020280 -0.000681 0.000000 -0.002236 0.000000
# 3 -0.005856 -0.000681 0.019812 0.000000 -0.002186 0.000000
# 4 0.000000 0.000000 0.000000 -0.158625 0.000000 -0.005704
# 5 0.007948 -0.002236 -0.002186 0.000000 0.035471 0.000000
# 6 0.000000 0.000000 0.000000 -0.005704 0.000000 0.030632
#
#
# Mechanical properties :
#
#
# Convention : Reuss Voigt Hill
#
# Bulk Modulus (GPa) = 35.44272 41.83351 38.63811
# Shear Modulus (GPa) = -5307.44922 21.54827 -2642.95048
#
# Velocity S-wave (km/s) = -52.92456 3.37226 -37.34727
# Velocity P-wave (km/s) = 60.95879 6.10250 42.88784
#
# Compressibility (1/GPa) = 0.02821454
#
# Stress axis : x y z
#
# Youngs Moduli (GPa) = 66.21662 49.30877 50.47336
#
# Poissons Ratio (x) = 0.34285 0.29556
# Poissons Ratio (y) = 0.46042 0.03438
# Poissons Ratio (z) = 0.38775 0.03358
#
# Static dielectric constant tensor:
#      x y z
#    x 1.576850 0.000000 -0.057160 
#    y 0.000000 1.643230 0.000000 
#    z -0.057160 0.000000 1.666310 
# 
# From -- ./inp_files/174806.got.cif
#   From: 2010.05.17/outbox.cif.g08.bks.cpg/sg15_88_cif.got.tgz:174806.got - 2010.06.03 18:47:42.
