data_PCOD9277670
_publ_section_title
;
Structure prediction by ZEFSAII (Michael W. Deem and Ramdas Pophale) SiO2 
 PCOD9277670
Probable space group: C 2/C
;
_chemical_formula_sum "Si O2"
_cell_formula_units_Z 48
_cell_length_a 8.714262
_cell_length_b 20.851456
_cell_length_c 14.206285
_cell_angle_alpha 90.000000
_cell_angle_beta 87.850484
_cell_angle_gamma 90.000000
_cell_volume 2579.537373
_symmetry_space_group_name_H-M "C 2/C"
_symmetry_group_IT_number 15
_symmetry_cell_setting 'monoclinic'
loop_
_space_group_symop_operation_xyz
x,y,z
-x,y,1/2-z
-x,-y,-z
x,-y,1/2+z
1/2+x,1/2+y,z
1/2-x,1/2+y,1/2-z
1/2-x,1/2-y,-z
1/2+x,1/2-y,1/2+z
loop_
_atom_site_type_symbol
_atom_site_label
_atom_site_fract_x
_atom_site_fract_y
_atom_site_fract_z
Si Si1 0.115654 0.219657 0.941435
Si Si2 0.179655 0.908890 0.348453
Si Si3 0.817665 0.932877 0.362595
Si Si4 0.303637 0.676612 0.013410
Si Si5 0.854510 0.542940 0.027553
Si Si6 0.976286 0.652723 0.360282
O O1 0.176912 0.167180 0.867122
O O2 0.033021 0.276136 0.886189
O O3 0.250000 0.250000 0.000000
O O4 0.988622 0.183632 0.010085
O O5 0.238371 0.924930 0.243138
O O6 0.273800 0.938071 0.432165
O O7 0.002803 0.931772 0.357723
O O8 0.768924 0.871641 0.427470
O O9 0.757046 0.998332 0.408530
O O10 0.201833 0.649420 0.101663
O O11 0.250000 0.750000 0.000000
O O12 0.919058 0.604064 0.082092
O O13 0.000000 0.500000 0.000000
O O14 0.000000 0.640514 0.250000
#
# Coordination Sequence:
#
# PCOD9277670 Si02
#       6
#     8   8   8   8   8   8
#     4  10  20  41  67  90 123 162 212 269 316 364
#     4  10  23  41  65  92 120 166 216 262 316 383
#     4  10  22  40  66  89 122 170 211 257 322 383
#     4   9  20  38  61  88 125 160 204 257 312 369
#     4  12  24  40  60  90 132 165 208 263 315 380
#     4  11  24  40  62  92 129 171 205 258 321 377
#
# _framework density 18.607989
#
# number of rings (size 3 to 8) (size 9 to 14) (size 15 to 20)
#    0.000    1.667    3.333    0.500    9.333    0.000 
#    0.000    0.833    0.000    0.000    0.000    0.000 
#    0.000    0.000    0.000    0.000    0.000    0.000 
#
# Total GULP energy -133885.410379 kJ/mol
# GULP energy per Si atom -5578.558766 kJ/mol
# Density = 1.856564 g / cm^3
# Si number density = 18.607989 Si / 1000 Ang^3
#
#
#
# Elastic Constant Matrix: (Units=GPa)
#
#
# Indices 1 2 3 4 5 6 
#
# 1 55.8924 27.1124 64.4793 0.0000 6.9844 0.0000
# 2 27.1124 104.6624 55.7733 0.0000 2.7274 0.0000
# 3 64.4793 55.7733 169.2721 0.0000 0.3224 0.0000
# 4 0.0000 0.0000 0.0000 19.4086 0.0000 -2.6089
# 5 6.9844 2.7274 0.3224 0.0000 28.9845 0.0000
# 6 0.0000 0.0000 0.0000 -2.6089 0.0000 34.7772
#
#
#
# Elastic Compliance Matrix: (Units=1/GPa)
#
#
# Indices 1 2 3 4 5 6 
#
# 1 0.034029 -0.002075 -0.012264 0.000000 -0.007868 0.000000
# 2 -0.002075 0.011748 -0.003079 0.000000 -0.000571 0.000000
# 3 -0.012264 -0.003079 0.011588 0.000000 0.003116 0.000000
# 4 0.000000 0.000000 0.000000 0.052048 0.000000 0.003905
# 5 -0.007868 -0.000571 0.003116 0.000000 0.036416 0.000000
# 6 0.000000 0.000000 0.000000 0.003905 0.000000 0.029047
#
#
# Mechanical properties :
#
#
# Convention : Reuss Voigt Hill
#
# Bulk Modulus (GPa) = 44.38750 69.39523 56.89137
# Shear Modulus (GPa) = 23.01788 28.79819 25.90803
#
# Velocity S-wave (km/s) = 3.52090 3.93825 3.73541
# Velocity P-wave (km/s) = 6.35883 7.61932 7.01743
#
# Compressibility (1/GPa) = 0.02252886
#
# Stress axis : x y z
#
# Youngs Moduli (GPa) = 29.38657 85.12196 86.29718
#
# Poissons Ratio (x) = 0.17662 1.05833
# Poissons Ratio (y) = 0.06097 0.26574
# Poissons Ratio (z) = 0.36039 0.26212
#
# Static dielectric constant tensor:
#      x y z
#    x 1.646120 0.000000 -0.032870 
#    y 0.000000 1.635470 0.000000 
#    z -0.032870 0.000000 1.627550 
# 
# From -- ./inp_files/79246.got.cif
#   From: 2010.05.17/outbox.cif.g08.bks.cpg/sg15_40_cif.got.tgz:79246.got - 2010.06.03 18:47:42.
