data_PCOD9277145
_publ_section_title
;
Structure prediction by ZEFSAII (Michael W. Deem and Ramdas Pophale) SiO2 
 PCOD9277145
Probable space group: C 2/C
;
_chemical_formula_sum "Si O2"
_cell_formula_units_Z 64
_cell_length_a 14.651688
_cell_length_b 15.947813
_cell_length_c 15.583795
_cell_angle_alpha 90.000000
_cell_angle_beta 125.365039
_cell_angle_gamma 90.000000
_cell_volume 2969.449404
_symmetry_space_group_name_H-M "C 2/C"
_symmetry_group_IT_number 15
_symmetry_cell_setting 'monoclinic'
loop_
_space_group_symop_operation_xyz
x,y,z
-x,y,1/2-z
-x,-y,-z
x,-y,1/2+z
1/2+x,1/2+y,z
1/2-x,1/2+y,1/2-z
1/2-x,1/2-y,-z
1/2+x,1/2-y,1/2+z
loop_
_atom_site_type_symbol
_atom_site_label
_atom_site_fract_x
_atom_site_fract_y
_atom_site_fract_z
Si Si1 0.749149 0.374226 0.451864
Si Si2 0.002674 0.353229 0.848134
Si Si3 0.733262 0.832735 0.716275
Si Si4 0.731856 0.076920 0.036146
Si Si5 0.126190 0.106385 0.052096
Si Si6 0.230734 0.348466 0.229033
Si Si7 0.487276 0.963315 0.396578
Si Si8 0.615706 0.406817 0.035280
O O1 0.751003 0.476111 0.448634
O O2 0.666226 0.352368 0.484806
O O3 0.723070 0.341536 0.342987
O O4 0.874561 0.345675 0.544877
O O5 0.899584 0.316264 0.845426
O O6 0.977907 0.453600 0.834274
O O7 0.000000 0.320839 0.750000
O O8 0.751591 0.884493 0.640180
O O9 0.778430 0.880802 0.824763
O O10 0.794464 0.743950 0.750365
O O11 0.601627 0.085575 0.939367
O O12 0.811684 0.117269 0.008195
O O13 0.109769 0.007750 0.025263
O O14 0.006747 0.133772 0.024746
O O15 0.121286 0.406254 0.166907
O O16 0.319513 0.387733 0.342043
O O17 0.500000 0.000000 0.500000
#
# Coordination Sequence:
#
# PCOD9277145 Si02
#       8
#     8   8   8   8   8   8   8   8
#     4  10  20  40  68  96 124 160 228 278 324 372
#     4  11  20  38  69 102 119 162 217 287 327 371
#     4  12  24  39  62  94 139 167 202 263 350 401
#     4  10  21  41  68  92 120 167 217 292 313 372
#     4  10  22  42  64  89 120 178 218 271 307 401
#     4  12  25  39  59  99 133 171 200 272 336 405
#     4  11  20  39  70  97 121 158 228 282 315 376
#     4  10  24  42  63  88 126 171 232 259 314 386
#
# _framework density 21.552817000000001
#
# number of rings (size 3 to 8) (size 9 to 14) (size 15 to 20)
#    0.000    1.250    5.000    1.500    3.500    4.000 
#    2.250    5.000    0.000    0.000    0.000    0.000 
#    0.000    0.000    0.000    0.000    0.000    0.000 
#
# Total GULP energy -178919.962614 kJ/mol
# GULP energy per Si atom -5591.248832 kJ/mol
# Density = 2.150376 g / cm^3
# Si number density = 21.552817 Si / 1000 Ang^3
#
#
#
# Elastic Constant Matrix: (Units=GPa)
#
#
# Indices 1 2 3 4 5 6 
#
# 1 141.8787 17.4303 46.0981 0.0000 -3.8381 0.0000
# 2 17.4303 45.8964 17.3709 0.0000 7.1914 0.0000
# 3 46.0981 17.3709 79.7727 0.0000 -15.9090 0.0000
# 4 0.0000 0.0000 0.0000 -1.3271 0.0000 1.8166
# 5 -3.8381 7.1914 -15.9090 0.0000 27.9034 0.0000
# 6 0.0000 0.0000 0.0000 1.8166 0.0000 -0.6809
#
#
#
# Elastic Compliance Matrix: (Units=1/GPa)
#
#
# Indices 1 2 3 4 5 6 
#
# 1 0.008819 -0.001195 -0.005114 0.000000 -0.001395 0.000000
# 2 -0.001195 0.026813 -0.007400 0.000000 -0.011294 0.000000
# 3 -0.005114 -0.007400 0.019567 0.000000 0.012360 0.000000
# 4 0.000000 0.000000 0.000000 0.284117 0.000000 0.758042
# 5 -0.001395 -0.011294 0.012360 0.000000 0.045604 0.000000
# 6 0.000000 0.000000 0.000000 0.758042 0.000000 0.553788
#
#
# Mechanical properties :
#
#
# Convention : Reuss Voigt Hill
#
# Bulk Modulus (GPa) = 35.99734 47.70515 41.85124
# Shear Modulus (GPa) = 5.12617 17.62231 11.37424
#
# Velocity S-wave (km/s) = 1.54389 2.86253 2.29975
# Velocity P-wave (km/s) = 4.46277 5.75392 5.14897
#
# Compressibility (1/GPa) = 0.02777983
#
# Stress axis : x y z
#
# Youngs Moduli (GPa) = 113.39132 37.29593 51.10558
#
# Poissons Ratio (x) = 0.04457 0.26136
# Poissons Ratio (y) = 0.13551 0.37820
# Poissons Ratio (z) = 0.57990 0.27600
#
# Static dielectric constant tensor:
#      x y z
#    x 1.827410 0.000000 -0.008270 
#    y 0.000000 1.808400 0.000000 
#    z -0.008270 0.000000 1.750760 
# 
# From -- ./inp_files/155512.got.cif
#   From: 2010.05.17/outbox.cif.g08.bks.cpg/sg15_78_cif.got.tgz:155512.got - 2010.06.03 18:47:42.
