data_PCOD9277922
_publ_section_title
;
Structure prediction by ZEFSAII (Michael W. Deem and Ramdas Pophale) SiO2 
 PCOD9277922
Probable space group: C 2/C
;
_chemical_formula_sum "Si O2"
_cell_formula_units_Z 44
_cell_length_a 29.337758
_cell_length_b 7.370992
_cell_length_c 12.602450
_cell_angle_alpha 90.000000
_cell_angle_beta 136.926038
_cell_angle_gamma 90.000000
_cell_volume 1861.193776
_symmetry_space_group_name_H-M "C 2/C"
_symmetry_group_IT_number 15
_symmetry_cell_setting 'monoclinic'
loop_
_space_group_symop_operation_xyz
x,y,z
-x,y,1/2-z
-x,-y,-z
x,-y,1/2+z
1/2+x,1/2+y,z
1/2-x,1/2+y,1/2-z
1/2-x,1/2-y,-z
1/2+x,1/2-y,1/2+z
loop_
_atom_site_type_symbol
_atom_site_label
_atom_site_fract_x
_atom_site_fract_y
_atom_site_fract_z
Si Si1 0.500000 0.540540 0.250000
Si Si2 0.567712 0.066124 0.167839
Si Si3 0.149765 0.607517 0.129795
Si Si4 0.591028 0.766126 0.926627
Si Si5 0.217748 0.894468 0.526451
Si Si6 0.373961 0.280781 0.634225
O O1 0.448623 0.408594 0.100719
O O2 0.550072 0.650384 0.259395
O O3 0.616964 0.898069 0.280128
O O4 0.608190 0.195228 0.156018
O O5 0.554889 0.159224 0.258967
O O6 0.500000 0.000000 0.000000
O O7 0.221723 0.551318 0.293895
O O8 0.105314 0.432071 0.026677
O O9 0.152381 0.723139 0.027303
O O10 0.662406 0.703532 0.003721
O O11 0.250000 0.750000 0.500000
O O12 0.177048 0.066842 0.410341
#
# Coordination Sequence:
#
# PCOD9277922 Si02
#       6
#     4   8   8   8   8   8
#     4  10  20  42  62  90 130 166 218 274 322 396
#     4  11  22  40  64  95 129 171 218 271 326 392
#     4  11  22  42  65  93 129 176 213 270 333 389
#     4  10  22  41  62  91 129 165 216 272 323 388
#     4  11  22  44  63  94 133 168 221 272 325 402
#     4  10  24  42  66  97 133 176 220 272 339 395
#
# _framework density 23.640741999999999
#
# number of rings (size 3 to 8) (size 9 to 14) (size 15 to 20)
#    0.000    1.455    1.818    3.273    0.000    3.636 
#   13.091    5.455    0.000    0.000    0.000    0.000 
#    0.000    0.000    0.000    0.000    0.000    0.000 
#
# Total GULP energy -122968.089163 kJ/mol
# GULP energy per Si atom -5589.458598 kJ/mol
# Density = 2.358693 g / cm^3
# Si number density = 23.640742 Si / 1000 Ang^3
#
#
#
# Elastic Constant Matrix: (Units=GPa)
#
#
# Indices 1 2 3 4 5 6 
#
# 1 92.5495 20.8689 38.0947 0.0000 15.9073 0.0000
# 2 20.8689 67.9175 12.8631 0.0000 -2.6276 0.0000
# 3 38.0947 12.8631 113.1684 0.0000 8.5358 0.0000
# 4 0.0000 0.0000 0.0000 13.3248 0.0000 16.5670
# 5 15.9073 -2.6276 8.5358 0.0000 36.2007 0.0000
# 6 0.0000 0.0000 0.0000 16.5670 0.0000 40.8670
#
#
#
# Elastic Compliance Matrix: (Units=1/GPa)
#
#
# Indices 1 2 3 4 5 6 
#
# 1 0.014261 -0.003853 -0.003939 0.000000 -0.005617 0.000000
# 2 -0.003853 0.016172 -0.000771 0.000000 0.003049 0.000000
# 3 -0.003939 -0.000771 0.010307 0.000000 -0.000755 0.000000
# 4 0.000000 0.000000 0.000000 0.151314 0.000000 -0.061341
# 5 -0.005617 0.003049 -0.000755 0.000000 0.030492 0.000000
# 6 0.000000 0.000000 0.000000 -0.061341 0.000000 0.049336
#
#
# Mechanical properties :
#
#
# Convention : Reuss Voigt Hill
#
# Bulk Modulus (GPa) = 42.34909 46.36543 44.35726
# Shear Modulus (GPa) = 16.84193 31.53240 24.18716
#
# Velocity S-wave (km/s) = 2.67200 3.65611 3.20208
# Velocity P-wave (km/s) = 5.24137 6.12192 5.69868
#
# Compressibility (1/GPa) = 0.02361326
#
# Stress axis : x y z
#
# Youngs Moduli (GPa) = 70.12308 61.83647 97.02272
#
# Poissons Ratio (x) = 0.23827 0.38215
# Poissons Ratio (y) = 0.27020 0.07481
# Poissons Ratio (z) = 0.27620 0.04768
#
# Static dielectric constant tensor:
#      x y z
#    x 1.909830 0.000000 0.002450 
#    y 0.000000 1.906900 0.000000 
#    z 0.002450 0.000000 1.913600 
# 
# From -- ./inp_files/125706.got.cif
#   From: 2010.05.17/outbox.cif.g08.bks.cpg/sg15_63_cif.got.tgz:125706.got - 2010.06.03 18:47:42.
