data_PCOD9277589
_publ_section_title
;
Structure prediction by ZEFSAII (Michael W. Deem and Ramdas Pophale) SiO2 
 PCOD9277589
Probable space group: C 2/C
;
_chemical_formula_sum "Si O2"
_cell_formula_units_Z 36
_cell_length_a 11.856728
_cell_length_b 7.278378
_cell_length_c 24.269846
_cell_angle_alpha 90.000000
_cell_angle_beta 45.000518
_cell_angle_gamma 90.000000
_cell_volume 1481.001208
_symmetry_space_group_name_H-M "C 2/C"
_symmetry_group_IT_number 15
_symmetry_cell_setting 'monoclinic'
loop_
_space_group_symop_operation_xyz
x,y,z
-x,y,1/2-z
-x,-y,-z
x,-y,1/2+z
1/2+x,1/2+y,z
1/2-x,1/2+y,1/2-z
1/2-x,1/2-y,-z
1/2+x,1/2-y,1/2+z
loop_
_atom_site_type_symbol
_atom_site_label
_atom_site_fract_x
_atom_site_fract_y
_atom_site_fract_z
Si Si1 0.847903 0.878257 0.507072
Si Si2 0.321288 0.748265 0.144317
Si Si3 0.000000 0.550843 0.250000
Si Si4 0.115602 0.385733 0.919343
Si Si5 0.380867 0.205012 0.890338
O O1 0.750000 0.750000 0.500000
O O2 0.835013 0.821618 0.576135
O O3 0.030391 0.806222 0.432854
O O4 0.753354 0.072306 0.534530
O O5 0.148698 0.673608 0.219247
O O6 0.479386 0.697594 0.123542
O O7 0.339876 0.969472 0.142712
O O8 0.046829 0.422446 0.182649
O O9 0.276018 0.355102 0.896557
O O10 0.000000 0.500000 0.000000
#
# Coordination Sequence:
#
# PCOD9277589 Si02
#       5
#     8   8   4   8   8
#     4  10  20  41  65  99 134 163 211 267 332 397
#     4  10  23  43  65  93 130 169 217 273 320 391
#     4  10  26  44  60  94 124 174 228 266 320 390
#     4  10  22  40  64 100 129 164 209 271 336 391
#     4  11  23  43  67  92 131 177 216 270 333 392
#
# _framework density 24.307880000000001
#
# number of rings (size 3 to 8) (size 9 to 14) (size 15 to 20)
#    0.000    1.778    2.222    0.667    0.000    8.000 
#   16.000    0.000    0.000    0.000    0.000    0.000 
#    0.000    0.000    0.000    0.000    0.000    0.000 
#
# Total GULP energy -100444.808592 kJ/mol
# GULP energy per Si atom -5580.267144 kJ/mol
# Density = 2.425255 g / cm^3
# Si number density = 24.307880 Si / 1000 Ang^3
#
#
#
# Elastic Constant Matrix: (Units=GPa)
#
#
# Indices 1 2 3 4 5 6 
#
# 1 197.4285 19.3673 47.5578 0.0000 -45.6521 0.0002
# 2 19.3673 74.1348 37.4703 0.0000 -16.8133 0.0003
# 3 47.5578 37.4703 97.1889 0.0000 -35.0800 0.0000
# 4 0.0000 0.0000 0.0000 46.7646 0.0000 -20.8991
# 5 -45.6521 -16.8133 -35.0800 0.0000 37.8571 0.0000
# 6 0.0002 0.0003 0.0000 -20.8991 0.0000 51.2872
#
#
#
# Elastic Compliance Matrix: (Units=1/GPa)
#
#
# Indices 1 2 3 4 5 6 
#
# 1 0.007051 0.000320 -0.000681 0.000000 0.008014 0.000000
# 2 0.000320 0.016890 -0.005742 0.000000 0.002566 0.000000
# 3 -0.000681 -0.005742 0.017459 0.000000 0.012807 0.000000
# 4 0.000000 0.000000 0.000000 0.026145 0.000000 0.010654
# 5 0.008014 0.002566 0.012807 0.000000 0.049085 0.000000
# 6 0.000000 0.000000 0.000000 0.010654 0.000000 0.023839
#
#
# Mechanical properties :
#
#
# Convention : Reuss Voigt Hill
#
# Bulk Modulus (GPa) = 34.25528 64.17147 49.21338
# Shear Modulus (GPa) = 30.78703 44.80556 37.79629
#
# Velocity S-wave (km/s) = 3.56272 4.29797 3.94750
# Velocity P-wave (km/s) = 5.57196 7.14750 6.40834
#
# Compressibility (1/GPa) = 0.02919258
#
# Stress axis : x y z
#
# Youngs Moduli (GPa) = 141.82769 59.20838 57.27799
#
# Poissons Ratio (x) = -0.01892 0.03900
# Poissons Ratio (y) = -0.04533 0.32888
# Poissons Ratio (z) = 0.09658 0.33997
#
# Static dielectric constant tensor:
#      x y z
#    x 1.871190 0.000000 0.013360 
#    y 0.000000 2.041180 0.000000 
#    z 0.013360 0.000000 1.993120 
# 
# From -- ./inp_files/235454.got.cif
#   From: 2010.05.17/outbox.cif.g08.bks.cpg/sg15_118_cif.got.tgz:235454.got - 2010.06.03 18:47:42.
