data_PCOD9277810
_publ_section_title
;
Structure prediction by ZEFSAII (Michael W. Deem and Ramdas Pophale) SiO2 
 PCOD9277810
Probable space group: C 2/C
;
_chemical_formula_sum "Si O2"
_cell_formula_units_Z 40
_cell_length_a 26.087771
_cell_length_b 14.348098
_cell_length_c 14.503032
_cell_angle_alpha 90.000000
_cell_angle_beta 20.449376
_cell_angle_gamma 90.000000
_cell_volume 1896.652246
_symmetry_space_group_name_H-M "C 2/C"
_symmetry_group_IT_number 15
_symmetry_cell_setting 'monoclinic'
loop_
_space_group_symop_operation_xyz
x,y,z
-x,y,1/2-z
-x,-y,-z
x,-y,1/2+z
1/2+x,1/2+y,z
1/2-x,1/2+y,1/2-z
1/2-x,1/2-y,-z
1/2+x,1/2-y,1/2+z
loop_
_atom_site_type_symbol
_atom_site_label
_atom_site_fract_x
_atom_site_fract_y
_atom_site_fract_z
Si Si1 0.642928 0.060246 0.782867
Si Si2 0.649545 0.232954 0.053085
Si Si3 0.127778 0.930459 0.758778
Si Si4 0.666250 0.978040 0.456721
Si Si5 0.037902 0.256715 0.946284
O O1 0.776278 0.038891 0.490258
O O2 0.688287 0.046165 0.812410
O O3 0.581038 0.162608 0.864831
O O4 0.500000 0.000000 0.000000
O O5 0.500000 0.253812 0.250000
O O6 0.602293 0.260944 0.235555
O O7 0.677189 0.120825 0.994187
O O8 0.808202 0.277234 0.759603
O O9 0.233856 0.941972 0.668175
O O10 0.050670 0.832397 0.869993
O O11 0.000000 0.000000 0.000000
O O12 0.500000 0.009367 0.750000
#
# Coordination Sequence:
#
# PCOD9277810 Si02
#       5
#     8   8   8   8   8
#     4  12  25  45  73  98 139 190 229 285 356 408
#     4  10  20  41  70  96 135 177 225 281 349 404
#     4  12  26  45  67 105 140 179 236 293 340 411
#     4  11  21  47  69  97 136 187 228 283 346 421
#     4  11  23  41  71 101 136 179 233 289 339 410
#
# _framework density 21.089791000000002
#
# number of rings (size 3 to 8) (size 9 to 14) (size 15 to 20)
#    0.000    0.800    8.000    0.600    2.800    2.400 
#    0.000    0.000    0.000    0.000    0.000    0.000 
#    0.000    0.000    0.000    0.000    0.000    0.000 
#
# Total GULP energy -111613.596051 kJ/mol
# GULP energy per Si atom -5580.679803 kJ/mol
# Density = 2.104179 g / cm^3
# Si number density = 21.089791 Si / 1000 Ang^3
#
#
#
# Elastic Constant Matrix: (Units=GPa)
#
#
# Indices 1 2 3 4 5 6 
#
# 1 75.9551 3.6742 49.1859 -0.0001 -4.6155 0.0001
# 2 3.6742 15.4885 19.9986 -0.0004 15.4607 0.0001
# 3 49.1859 19.9986 161.9688 -0.0004 6.9933 0.0002
# 4 -0.0001 -0.0004 -0.0004 19.5835 0.0003 -4.8216
# 5 -4.6155 15.4607 6.9933 0.0003 37.1110 -0.0001
# 6 0.0001 0.0001 0.0002 -4.8216 -0.0001 23.0265
#
#
#
# Elastic Compliance Matrix: (Units=1/GPa)
#
#
# Indices 1 2 3 4 5 6 
#
# 1 0.016730 -0.000633 -0.005145 0.000000 0.003314 0.000000
# 2 -0.000633 0.138329 -0.014514 0.000003 -0.054972 0.000000
# 3 -0.005145 -0.014514 0.009371 0.000000 0.003641 0.000000
# 4 0.000000 0.000003 0.000000 0.053839 -0.000002 0.011274
# 5 0.003314 -0.054972 0.003641 -0.000002 0.049574 0.000000
# 6 0.000000 0.000000 0.000000 0.011274 0.000000 0.045789
#
#
# Mechanical properties :
#
#
# Convention : Reuss Voigt Hill
#
# Bulk Modulus (GPa) = 8.07461 44.34774 26.21118
# Shear Modulus (GPa) = 12.64229 27.98112 20.31170
#
# Velocity S-wave (km/s) = 2.45102 3.64642 3.10676
# Velocity P-wave (km/s) = 3.44195 6.22915 5.03236
#
# Compressibility (1/GPa) = 0.12384493
#
# Stress axis : x y z
#
# Youngs Moduli (GPa) = 59.77433 7.22916 106.70789
#
# Poissons Ratio (x) = 0.00458 0.54904
# Poissons Ratio (y) = 0.03785 1.54874
# Poissons Ratio (z) = 0.30756 0.10492
#
# Static dielectric constant tensor:
#      x y z
#    x 1.807880 0.000000 -0.023360 
#    y 0.000000 1.865070 0.000000 
#    z -0.023360 0.000000 1.735330 
# 
# From -- ./inp_files/133169.got.cif
#   From: 2010.05.17/outbox.cif.g08.bks.cpg/sg15_67_cif.got.tgz:133169.got - 2010.06.03 18:47:42.
