data_PCOD9277731
_publ_section_title
;
Structure prediction by ZEFSAII (Michael W. Deem and Ramdas Pophale) SiO2 
 PCOD9277731
Probable space group: C 2/C
;
_chemical_formula_sum "Si O2"
_cell_formula_units_Z 56
_cell_length_a 10.996662
_cell_length_b 31.211789
_cell_length_c 9.577882
_cell_angle_alpha 90.000000
_cell_angle_beta 113.038201
_cell_angle_gamma 90.000000
_cell_volume 3025.185983
_symmetry_space_group_name_H-M "C 2/C"
_symmetry_group_IT_number 15
_symmetry_cell_setting 'monoclinic'
loop_
_space_group_symop_operation_xyz
x,y,z
-x,y,1/2-z
-x,-y,-z
x,-y,1/2+z
1/2+x,1/2+y,z
1/2-x,1/2+y,1/2-z
1/2-x,1/2-y,-z
1/2+x,1/2-y,1/2+z
loop_
_atom_site_type_symbol
_atom_site_label
_atom_site_fract_x
_atom_site_fract_y
_atom_site_fract_z
Si Si1 0.045023 0.292536 0.608320
Si Si2 0.000000 0.847379 0.750000
Si Si3 0.616483 0.828525 0.202550
Si Si4 0.500000 0.631872 0.750000
Si Si5 0.501854 0.956258 0.585826
Si Si6 0.789299 0.621581 0.299627
Si Si7 0.768336 0.604497 0.963678
Si Si8 0.884854 0.803315 0.429185
O O1 0.137206 0.334230 0.626075
O O2 0.103136 0.245590 0.612405
O O3 0.000000 0.295543 0.750000
O O4 0.934641 0.295133 0.436781
O O5 0.865039 0.874870 0.721240
O O6 0.958321 0.816634 0.603447
O O7 0.500000 0.843838 0.250000
O O8 0.676094 0.864278 0.129467
O O9 0.729072 0.811846 0.356013
O O10 0.613897 0.602552 0.865246
O O11 0.554098 0.664069 0.656832
O O12 0.500000 0.965140 0.750000
O O13 0.618845 0.919814 0.614408
O O14 0.359293 0.936222 0.489907
O O15 0.500000 0.000000 0.500000
O O16 0.789178 0.621026 0.130519
#
# Coordination Sequence:
#
# PCOD9277731 Si02
#       8
#     8   4   8   4   8   8   8   8
#     4  12  23  41  64  89 127 178 226 268 319 376
#     4  12  26  44  63  90 140 170 215 272 318 372
#     4  11  24  39  59  93 122 163 224 268 312 369
#     4  10  20  42  61  94 126 166 221 254 320 372
#     4  10  22  44  70  99 123 158 208 258 320 392
#     4  11  22  43  66  93 126 176 209 258 331 382
#     4  10  20  41  68  90 127 167 206 255 319 392
#     4  11  26  38  60  90 130 177 219 272 311 372
#
# _framework density 18.511258999999999
#
# number of rings (size 3 to 8) (size 9 to 14) (size 15 to 20)
#    0.000    1.143    5.000    1.286    3.000    2.286 
#    2.571    0.714    0.000    3.429    0.000    0.000 
#    0.000    0.000    0.000    0.000    0.000    0.000 
#
# Total GULP energy -156037.046272 kJ/mol
# GULP energy per Si atom -5572.751653 kJ/mol
# Density = 1.846913 g / cm^3
# Si number density = 18.511259 Si / 1000 Ang^3
#
#
#
# Elastic Constant Matrix: (Units=GPa)
#
#
# Indices 1 2 3 4 5 6 
#
# 1 114.9932 70.4264 48.4615 0.0000 12.7078 0.0000
# 2 70.4264 122.9842 50.2847 0.0000 17.2642 0.0000
# 3 48.4615 50.2847 107.2913 0.0000 16.3243 0.0000
# 4 0.0000 0.0000 0.0000 35.0920 0.0000 -5.1348
# 5 12.7078 17.2642 16.3243 0.0000 36.6946 0.0000
# 6 0.0000 0.0000 0.0000 -5.1348 0.0000 18.0178
#
#
#
# Elastic Compliance Matrix: (Units=1/GPa)
#
#
# Indices 1 2 3 4 5 6 
#
# 1 0.014247 -0.006808 -0.003198 0.000000 -0.000308 0.000000
# 2 -0.006808 0.013593 -0.002876 0.000000 -0.002758 0.000000
# 3 -0.003198 -0.002876 0.012590 0.000000 -0.003141 0.000000
# 4 0.000000 0.000000 0.000000 0.029737 0.000000 0.008475
# 5 -0.000308 -0.002758 -0.003141 0.000000 0.030054 0.000000
# 6 0.000000 0.000000 0.000000 0.008475 0.000000 0.057916
#
#
# Mechanical properties :
#
#
# Convention : Reuss Voigt Hill
#
# Bulk Modulus (GPa) = 68.17766 75.95710 72.06738
# Shear Modulus (GPa) = 26.48466 29.70061 28.09263
#
# Velocity S-wave (km/s) = 3.78661 4.00992 3.89986
# Velocity P-wave (km/s) = 7.48520 7.90957 7.70031
#
# Compressibility (1/GPa) = 0.01466756
#
# Stress axis : x y z
#
# Youngs Moduli (GPa) = 70.18888 73.56880 79.42541
#
# Poissons Ratio (x) = 0.50085 0.25397
# Poissons Ratio (y) = 0.47784 0.22842
# Poissons Ratio (z) = 0.22443 0.21158
#
# Static dielectric constant tensor:
#      x y z
#    x 1.694720 0.000000 0.020390 
#    y 0.000000 1.640720 0.000000 
#    z 0.020390 0.000000 1.658750 
# 
# From -- ./inp_files/35817.got.cif
#   From: 2010.05.17/outbox.cif.g08.bks.cpg/sg15_18_cif.got.tgz:35817.got - 2010.06.03 18:47:42.
