data_PCOD9277988
_publ_section_title
;
Structure prediction by ZEFSAII (Michael W. Deem and Ramdas Pophale) SiO2 
 PCOD9277988
Probable space group: C 2/C
;
_chemical_formula_sum "Si O2"
_cell_formula_units_Z 44
_cell_length_a 6.837304
_cell_length_b 20.070193
_cell_length_c 14.914438
_cell_angle_alpha 90.000000
_cell_angle_beta 71.928963
_cell_angle_gamma 90.000000
_cell_volume 1945.693082
_symmetry_space_group_name_H-M "C 2/C"
_symmetry_group_IT_number 15
_symmetry_cell_setting 'monoclinic'
loop_
_space_group_symop_operation_xyz
x,y,z
-x,y,1/2-z
-x,-y,-z
x,-y,1/2+z
1/2+x,1/2+y,z
1/2-x,1/2+y,1/2-z
1/2-x,1/2-y,-z
1/2+x,1/2-y,1/2+z
loop_
_atom_site_type_symbol
_atom_site_label
_atom_site_fract_x
_atom_site_fract_y
_atom_site_fract_z
Si Si1 0.500000 0.846988 0.750000
Si Si2 0.346380 0.365498 0.952501
Si Si3 0.618937 0.688331 0.558988
Si Si4 0.930491 0.405814 0.088552
Si Si5 0.215958 0.244574 0.191846
Si Si6 0.422920 0.954042 0.611685
O O1 0.698889 0.800885 0.738092
O O2 0.494681 0.896720 0.667994
O O3 0.543411 0.356780 0.986076
O O4 0.087778 0.213333 0.864520
O O5 0.326358 0.303637 0.887538
O O6 0.299136 0.430212 0.897191
O O7 0.750000 0.750000 0.500000
O O8 0.752484 0.647640 0.611719
O O9 0.351016 0.869060 0.451998
O O10 0.919067 0.443215 0.993073
O O11 0.922574 0.471431 0.150488
O O12 0.000000 0.277157 0.250000
#
# Coordination Sequence:
#
# PCOD9277988 Si02
#       6
#     4   8   8   8   8   8
#     4  10  20  42  64  88 124 168 202 266 322 370
#     4   9  20  38  62  93 120 160 210 263 301 367
#     4  12  22  37  65  92 126 167 210 256 309 377
#     4   9  19  38  64  96 121 159 213 263 300 371
#     4  11  25  36  60  96 126 165 207 257 320 379
#     4   8  18  40  64  95 122 155 216 262 308 380
#
# _framework density 22.614049000000001
#
# number of rings (size 3 to 8) (size 9 to 14) (size 15 to 20)
#    1.091    1.091    1.818    0.545    5.091    0.727 
#    0.000    0.000    6.000    0.000    9.455    0.000 
#    0.000    0.000    0.000    0.000    0.000    0.000 
#
# Total GULP energy -122540.571005 kJ/mol
# GULP energy per Si atom -5570.025955 kJ/mol
# Density = 2.256258 g / cm^3
# Si number density = 22.614049 Si / 1000 Ang^3
#
#
#
# Elastic Constant Matrix: (Units=GPa)
#
#
# Indices 1 2 3 4 5 6 
#
# 1 136.8470 53.4189 29.5270 0.0000 -9.6834 0.0000
# 2 53.4189 72.2118 18.0996 0.0000 -15.7541 0.0000
# 3 29.5270 18.0996 37.9305 0.0000 -1.8521 0.0000
# 4 0.0000 0.0000 0.0000 14.8353 0.0000 0.2894
# 5 -9.6834 -15.7541 -1.8521 0.0000 38.5153 0.0000
# 6 0.0000 0.0000 0.0000 0.2894 0.0000 19.7102
#
#
#
# Elastic Compliance Matrix: (Units=1/GPa)
#
#
# Indices 1 2 3 4 5 6 
#
# 1 0.011173 -0.006983 -0.005380 0.000000 -0.000306 0.000000
# 2 -0.006983 0.021660 -0.004563 0.000000 0.006884 0.000000
# 3 -0.005380 -0.004563 0.032649 0.000000 -0.001649 0.000000
# 4 0.000000 0.000000 0.000000 0.067426 0.000000 -0.000990
# 5 -0.000306 0.006884 -0.001649 0.000000 0.028623 0.000000
# 6 0.000000 0.000000 0.000000 -0.000990 0.000000 0.050750
#
#
# Mechanical properties :
#
#
# Convention : Reuss Voigt Hill
#
# Bulk Modulus (GPa) = 31.61724 49.89780 40.75752
# Shear Modulus (GPa) = 19.47979 24.34175 21.91077
#
# Velocity S-wave (km/s) = 2.93815 3.28441 3.11609
# Velocity P-wave (km/s) = 5.05192 6.04119 5.56857
#
# Compressibility (1/GPa) = 0.03162831
#
# Stress axis : x y z
#
# Youngs Moduli (GPa) = 89.50539 46.16860 30.62878
#
# Poissons Ratio (x) = 0.32241 0.16478
# Poissons Ratio (y) = 0.62504 0.13977
# Poissons Ratio (z) = 0.48153 0.21068
#
# Static dielectric constant tensor:
#      x y z
#    x 1.833320 0.000000 0.036170 
#    y 0.000000 1.969330 0.000000 
#    z 0.036170 0.000000 1.940910 
# 
# From -- ./inp_files/230688.got.cif
#   From: 2010.05.17/outbox.cif.g08.bks.cpg/sg15_116_cif.got.tgz:230688.got - 2010.06.03 18:47:42.
