data_PCOD9277902
_publ_section_title
;
Structure prediction by ZEFSAII (Michael W. Deem and Ramdas Pophale) SiO2 
 PCOD9277902
Probable space group: C 2/C
;
_chemical_formula_sum "Si O2"
_cell_formula_units_Z 44
_cell_length_a 9.302387
_cell_length_b 10.615703
_cell_length_c 20.682913
_cell_angle_alpha 90.000000
_cell_angle_beta 52.767040
_cell_angle_gamma 90.000000
_cell_volume 1626.174753
_symmetry_space_group_name_H-M "C 2/C"
_symmetry_group_IT_number 15
_symmetry_cell_setting 'monoclinic'
loop_
_space_group_symop_operation_xyz
x,y,z
-x,y,1/2-z
-x,-y,-z
x,-y,1/2+z
1/2+x,1/2+y,z
1/2-x,1/2+y,1/2-z
1/2-x,1/2-y,-z
1/2+x,1/2-y,1/2+z
loop_
_atom_site_type_symbol
_atom_site_label
_atom_site_fract_x
_atom_site_fract_y
_atom_site_fract_z
Si Si1 0.468946 0.296771 0.526630
Si Si2 0.974170 0.154195 0.882254
Si Si3 0.044570 0.418823 0.839458
Si Si4 0.175239 0.657871 0.637788
Si Si5 0.500000 0.000000 0.500000
Si Si6 0.938423 0.102690 0.173500
O O1 0.393622 0.343352 0.477111
O O2 0.451224 0.146936 0.539397
O O3 0.407311 0.372000 0.605859
O O4 0.681761 0.330830 0.459981
O O5 0.946430 0.284291 0.853237
O O6 0.189915 0.155462 0.838255
O O7 0.938972 0.023573 0.856800
O O8 0.940170 0.533647 0.836338
O O9 0.249536 0.413695 0.759958
O O10 0.036621 0.439759 0.918496
O O11 0.050949 0.779445 0.667959
#
# Coordination Sequence:
#
# PCOD9277902 Si02
#       6
#     8   8   8   8   4   8
#     4   9  21  41  69  92 132 174 221 269 338 405
#     4   9  24  42  63  98 128 170 219 273 329 400
#     4  11  23  39  65  97 134 173 224 275 331 399
#     4  10  23  44  70  92 133 183 211 273 349 402
#     4  10  20  42  62 100 132 178 220 276 334 406
#     4  12  21  38  68  99 128 170 228 277 325 399
#
# _framework density 27.057362000000001
#
# number of rings (size 3 to 8) (size 9 to 14) (size 15 to 20)
#    1.091    0.727    1.818    2.182    0.000    2.909 
#    0.000    4.545    0.000    6.545    0.000    0.000 
#    0.000    0.000    0.000    0.000    0.000    0.000 
#
# Total GULP energy -122974.732668 kJ/mol
# GULP energy per Si atom -5589.760576 kJ/mol
# Density = 2.699578 g / cm^3
# Si number density = 27.057362 Si / 1000 Ang^3
#
#
#
# Elastic Constant Matrix: (Units=GPa)
#
#
# Indices 1 2 3 4 5 6 
#
# 1 78.0454 38.0443 44.8892 0.0000 -25.0622 0.0000
# 2 38.0443 256.2725 42.2275 0.0000 -8.9041 0.0000
# 3 44.8892 42.2275 155.6412 0.0000 9.3898 0.0000
# 4 0.0000 0.0000 0.0000 33.7496 0.0000 -17.2277
# 5 -25.0622 -8.9041 9.3898 0.0000 28.9827 0.0000
# 6 0.0000 0.0000 0.0000 -17.2277 0.0000 23.8214
#
#
#
# Elastic Compliance Matrix: (Units=1/GPa)
#
#
# Indices 1 2 3 4 5 6 
#
# 1 0.026981 -0.001648 -0.008885 0.000000 0.025703 0.000000
# 2 -0.001648 0.004264 -0.000688 0.000000 0.000108 0.000000
# 3 -0.008885 -0.000688 0.009843 0.000000 -0.011084 0.000000
# 4 0.000000 0.000000 0.000000 0.046969 0.000000 0.033968
# 5 0.025703 0.000108 -0.011084 0.000000 0.060354 0.000000
# 6 0.000000 0.000000 0.000000 0.033968 0.000000 0.066545
#
#
# Mechanical properties :
#
#
# Convention : Reuss Voigt Hill
#
# Bulk Modulus (GPa) = 53.63366 82.25346 67.94356
# Shear Modulus (GPa) = 20.52426 41.63061 31.07744
#
# Velocity S-wave (km/s) = 2.75716 3.92676 3.39274
# Velocity P-wave (km/s) = 5.47733 7.14317 6.36499
#
# Compressibility (1/GPa) = 0.01864501
#
# Stress axis : x y z
#
# Youngs Moduli (GPa) = 37.06313 234.52820 101.59538
#
# Poissons Ratio (x) = 0.38657 0.90269
# Poissons Ratio (y) = 0.06109 0.06989
# Poissons Ratio (z) = 0.32931 0.16134
#
# Static dielectric constant tensor:
#      x y z
#    x 2.163810 0.000000 -0.088910 
#    y 0.000000 2.099040 0.000000 
#    z -0.088910 0.000000 2.158230 
# 
# From -- ./inp_files/292159.got.cif
#   From: 2010.05.17/outbox.cif.g08.bks.cpg/sg15_147_cif.got.tgz:292159.got - 2010.06.03 18:47:42.
