data_PCOD9277730
_publ_section_title
;
Structure prediction by ZEFSAII (Michael W. Deem and Ramdas Pophale) SiO2 
 PCOD9277730
Probable space group: C 2/C
;
_chemical_formula_sum "Si O2"
_cell_formula_units_Z 48
_cell_length_a 9.418242
_cell_length_b 29.200659
_cell_length_c 17.293559
_cell_angle_alpha 90.000000
_cell_angle_beta 30.697260
_cell_angle_gamma 90.000000
_cell_volume 2427.974681
_symmetry_space_group_name_H-M "C 2/C"
_symmetry_group_IT_number 15
_symmetry_cell_setting 'monoclinic'
loop_
_space_group_symop_operation_xyz
x,y,z
-x,y,1/2-z
-x,-y,-z
x,-y,1/2+z
1/2+x,1/2+y,z
1/2-x,1/2+y,1/2-z
1/2-x,1/2-y,-z
1/2+x,1/2-y,1/2+z
loop_
_atom_site_type_symbol
_atom_site_label
_atom_site_fract_x
_atom_site_fract_y
_atom_site_fract_z
Si Si1 0.266647 0.367123 0.174637
Si Si2 0.034035 0.541478 0.827066
Si Si3 0.791554 0.122788 0.158159
Si Si4 0.501379 0.729879 0.928569
Si Si5 0.061243 0.038761 0.311879
Si Si6 0.468963 0.720911 0.122188
O O1 0.148847 0.406640 0.284317
O O2 0.416805 0.321800 0.134417
O O3 0.000000 0.350195 0.250000
O O4 0.487289 0.389586 0.012497
O O5 0.254460 0.505934 0.757846
O O6 0.000000 0.535366 0.750000
O O7 0.736454 0.535359 0.006232
O O8 0.500000 0.133140 0.250000
O O9 0.932270 0.165873 0.136923
O O10 0.774071 0.081084 0.225877
O O11 0.764562 0.760375 0.783073
O O12 0.405644 0.730792 0.061866
O O13 0.250000 0.750000 0.000000
O O14 0.000000 0.045220 0.250000
O O15 0.750000 0.750000 0.000000
#
# Coordination Sequence:
#
# PCOD9277730 Si02
#       6
#     8   8   8   8   8   8
#     4  10  20  41  68  90 124 172 228 256 308 390
#     4  11  23  44  71  96 126 179 222 255 323 403
#     4  11  23  42  66  95 128 176 225 261 309 401
#     4  11  22  40  62  94 129 168 214 269 318 380
#     4  12  26  43  66 102 138 163 210 282 336 375
#     4  11  23  40  66  92 128 169 216 264 323 379
#
# _framework density 19.769563999999999
#
# number of rings (size 3 to 8) (size 9 to 14) (size 15 to 20)
#    0.000    1.000    3.333    6.500    2.333    1.333 
#    0.000    1.667    0.000    0.000    0.000    0.000 
#    0.000    0.000    0.000    0.000    0.000    0.000 
#
# Total GULP energy -133888.821819 kJ/mol
# GULP energy per Si atom -5578.700909 kJ/mol
# Density = 1.972457 g / cm^3
# Si number density = 19.769564 Si / 1000 Ang^3
#
#
#
# Elastic Constant Matrix: (Units=GPa)
#
#
# Indices 1 2 3 4 5 6 
#
# 1 67.3973 51.5851 19.2611 0.0000 -14.0299 0.0000
# 2 51.5851 129.0196 9.1540 0.0000 -20.6013 0.0000
# 3 19.2611 9.1540 90.3028 0.0000 -6.1973 0.0000
# 4 0.0000 0.0000 0.0000 24.6730 0.0000 -7.8123
# 5 -14.0299 -20.6013 -6.1973 0.0000 37.7727 0.0000
# 6 0.0000 0.0000 0.0000 -7.8123 0.0000 31.3477
#
#
#
# Elastic Compliance Matrix: (Units=1/GPa)
#
#
# Indices 1 2 3 4 5 6 
#
# 1 0.023075 -0.008419 -0.003839 0.000000 0.003349 0.000000
# 2 -0.008419 0.011589 0.000850 0.000000 0.003333 0.000000
# 3 -0.003839 0.000850 0.011874 0.000000 0.000986 0.000000
# 4 0.000000 0.000000 0.000000 0.044002 0.000000 0.010966
# 5 0.003349 0.003333 0.000986 0.000000 0.029698 0.000000
# 6 0.000000 0.000000 0.000000 0.010966 0.000000 0.034633
#
#
# Mechanical properties :
#
#
# Convention : Reuss Voigt Hill
#
# Bulk Modulus (GPa) = 42.15380 49.63556 45.89468
# Shear Modulus (GPa) = 26.94043 32.53997 29.74020
#
# Velocity S-wave (km/s) = 3.69551 4.06145 3.88279
# Velocity P-wave (km/s) = 6.29110 6.86698 6.58534
#
# Compressibility (1/GPa) = 0.02372265
#
# Stress axis : x y z
#
# Youngs Moduli (GPa) = 43.33630 86.29069 84.21681
#
# Poissons Ratio (x) = 0.72647 0.32327
# Poissons Ratio (y) = 0.36484 -0.07156
# Poissons Ratio (z) = 0.16635 -0.07332
#
# Static dielectric constant tensor:
#      x y z
#    x 1.621620 0.000000 -0.198770 
#    y 0.000000 1.725210 0.000000 
#    z -0.198770 0.000000 1.222030 
# 
# From -- ./inp_files/52719.got.cif
#   From: 2010.05.17/outbox.cif.g08.bks.cpg/sg15_27_cif.got.tgz:52719.got - 2010.06.03 18:47:42.
