data_PCOD9277642
_publ_section_title
;
Structure prediction by ZEFSAII (Michael W. Deem and Ramdas Pophale) SiO2 
 PCOD9277642
Probable space group: C 2/C
;
_chemical_formula_sum "Si O2"
_cell_formula_units_Z 48
_cell_length_a 5.296571
_cell_length_b 26.180999
_cell_length_c 14.464567
_cell_angle_alpha 90.000000
_cell_angle_beta 100.261022
_cell_angle_gamma 90.000000
_cell_volume 1973.714785
_symmetry_space_group_name_H-M "C 2/C"
_symmetry_group_IT_number 15
_symmetry_cell_setting 'monoclinic'
loop_
_space_group_symop_operation_xyz
x,y,z
-x,y,1/2-z
-x,-y,-z
x,-y,1/2+z
1/2+x,1/2+y,z
1/2-x,1/2+y,1/2-z
1/2-x,1/2-y,-z
1/2+x,1/2-y,1/2+z
loop_
_atom_site_type_symbol
_atom_site_label
_atom_site_fract_x
_atom_site_fract_y
_atom_site_fract_z
Si Si1 0.723143 0.889946 0.609994
Si Si2 0.000000 0.630247 0.750000
Si Si3 0.500000 0.046149 0.250000
Si Si4 0.839790 0.912535 0.002480
Si Si5 0.914489 0.722268 0.432434
Si Si6 0.312349 0.314679 0.110982
Si Si7 0.651734 0.460429 0.163262
O O1 0.687916 0.918254 0.704121
O O2 0.462990 0.907094 0.536990
O O3 0.712997 0.828300 0.617905
O O4 0.981324 0.905513 0.574811
O O5 0.838496 0.666394 0.808445
O O6 0.833422 0.589693 0.680043
O O7 0.340467 0.008607 0.172977
O O8 0.925875 0.866028 0.075949
O O9 0.939745 0.959646 0.069460
O O10 0.750000 0.750000 0.500000
O O11 0.142390 0.701589 0.511607
O O12 0.003203 0.765900 0.366756
O O13 0.500000 0.461790 0.250000
#
# Coordination Sequence:
#
# PCOD9277642 Si02
#       7
#     8   4   4   8   8   8   8
#     4  11  26  47  72 102 148 191 238 293 353 432
#     4  11  22  40  66 106 142 172 234 309 362 410
#     4  11  30  48  66 104 144 190 232 305 360 422
#     4  11  23  45  74 102 138 189 239 291 359 421
#     4  10  20  41  66  95 139 187 232 281 339 432
#     4  10  21  38  65 104 136 179 230 290 354 413
#     4  11  24  44  71 100 140 181 238 307 360 417
#
# _framework density 24.319621000000001
#
# number of rings (size 3 to 8) (size 9 to 14) (size 15 to 20)
#    0.000    1.333    3.333    2.000    4.667    1.333 
#    3.000    0.000    0.000    0.000    0.000    0.000 
#    0.000    0.000    0.000    0.000    0.000    0.000 
#
# Total GULP energy -134191.733863 kJ/mol
# GULP energy per Si atom -5591.322244 kJ/mol
# Density = 2.426427 g / cm^3
# Si number density = 24.319621 Si / 1000 Ang^3
#
#
#
# Elastic Constant Matrix: (Units=GPa)
#
#
# Indices 1 2 3 4 5 6 
#
# 1 75.4082 22.7843 16.8270 0.0000 -12.7545 0.0000
# 2 22.7843 115.4805 43.3566 0.0000 -16.3599 0.0000
# 3 16.8270 43.3566 82.7870 0.0000 -33.5600 0.0000
# 4 0.0000 0.0000 0.0000 29.7177 0.0000 -10.1281
# 5 -12.7545 -16.3599 -33.5600 0.0000 60.9997 0.0000
# 6 0.0000 0.0000 0.0000 -10.1281 0.0000 29.6453
#
#
#
# Elastic Compliance Matrix: (Units=1/GPa)
#
#
# Indices 1 2 3 4 5 6 
#
# 1 0.014473 -0.002204 -0.001030 0.000000 0.001868 0.000000
# 2 -0.002204 0.011118 -0.005602 0.000000 -0.000561 0.000000
# 3 -0.001030 -0.005602 0.018696 0.000000 0.008568 0.000000
# 4 0.000000 0.000000 0.000000 0.038084 0.000000 0.013011
# 5 0.001868 -0.000561 0.008568 0.000000 0.021347 0.000000
# 6 0.000000 0.000000 0.000000 0.013011 0.000000 0.038177
#
#
# Mechanical properties :
#
#
# Convention : Reuss Voigt Hill
#
# Bulk Modulus (GPa) = 37.57391 48.84573 43.20982
# Shear Modulus (GPa) = 29.68414 36.78640 33.23527
#
# Velocity S-wave (km/s) = 3.49748 3.89346 3.70077
# Velocity P-wave (km/s) = 5.63856 6.35142 6.00558
#
# Compressibility (1/GPa) = 0.02661421
#
# Stress axis : x y z
#
# Youngs Moduli (GPa) = 69.09426 89.94283 53.48809
#
# Poissons Ratio (x) = 0.19825 0.05509
# Poissons Ratio (y) = 0.15229 0.29965
# Poissons Ratio (z) = 0.07117 0.50388
#
# Static dielectric constant tensor:
#      x y z
#    x 1.855670 0.000000 0.099900 
#    y 0.000000 1.639860 0.000000 
#    z 0.099900 0.000000 1.855530 
# 
# From -- ./inp_files/130080.got.cif
#   From: 2010.05.17/outbox.cif.g08.bks.cpg/sg15_66_cif.got.tgz:130080.got - 2010.06.03 18:47:42.
