data_PCOD9277477
_publ_section_title
;
Structure prediction by ZEFSAII (Michael W. Deem and Ramdas Pophale) SiO2 
 PCOD9277477
Probable space group: C 2/C
;
_chemical_formula_sum "Si O2"
_cell_formula_units_Z 48
_cell_length_a 5.680220
_cell_length_b 27.345676
_cell_length_c 16.471691
_cell_angle_alpha 90.000000
_cell_angle_beta 58.010920
_cell_angle_gamma 90.000000
_cell_volume 2170.022323
_symmetry_space_group_name_H-M "C 2/C"
_symmetry_group_IT_number 15
_symmetry_cell_setting 'monoclinic'
loop_
_space_group_symop_operation_xyz
x,y,z
-x,y,1/2-z
-x,-y,-z
x,-y,1/2+z
1/2+x,1/2+y,z
1/2-x,1/2+y,1/2-z
1/2-x,1/2-y,-z
1/2+x,1/2-y,1/2+z
loop_
_atom_site_type_symbol
_atom_site_label
_atom_site_fract_x
_atom_site_fract_y
_atom_site_fract_z
Si Si1 0.752307 0.038804 0.545998
Si Si2 0.219733 0.692656 0.515334
Si Si3 0.970348 0.873803 0.098446
Si Si4 0.727948 0.200795 0.769822
Si Si5 0.913130 0.607950 0.059956
Si Si6 0.332525 0.030619 0.196049
O O1 0.784403 0.079447 0.610282
O O2 0.765398 0.070834 0.462326
O O3 0.473338 0.008472 0.609736
O O4 0.000000 0.000000 0.500000
O O5 0.250000 0.750000 0.500000
O O6 0.447640 0.666721 0.530402
O O7 0.196178 0.662372 0.436803
O O8 0.942064 0.685660 0.619806
O O9 0.851372 0.845639 0.198024
O O10 0.281960 0.893099 0.035678
O O11 0.500000 0.223610 0.750000
O O12 0.000000 0.229827 0.750000
O O13 0.906295 0.584937 0.149579
O O14 0.500000 0.023662 0.250000
O O15 0.000000 0.024724 0.250000
#
# Coordination Sequence:
#
# PCOD9277477 Si02
#       6
#     8   8   8   8   8   8
#     4  11  23  43  70 102 136 191 240 288 356 425
#     4  10  23  43  71  98 137 181 229 290 367 426
#     4  10  22  40  72 100 138 176 235 296 353 414
#     4  10  20  41  64 103 133 166 217 295 344 406
#     4  11  23  44  72  95 139 186 238 289 361 419
#     4  12  28  45  66 102 153 191 240 289 346 432
#
# _framework density 22.119589000000001
#
# number of rings (size 3 to 8) (size 9 to 14) (size 15 to 20)
#    0.000    1.333    3.333    1.500    4.667    4.000 
#    0.000    2.500    0.000    0.000    0.000    0.000 
#    0.000    0.000    0.000    0.000    0.000    0.000 
#
# Total GULP energy -133946.911012 kJ/mol
# GULP energy per Si atom -5581.121292 kJ/mol
# Density = 2.206924 g / cm^3
# Si number density = 22.119589 Si / 1000 Ang^3
#
#
#
# Elastic Constant Matrix: (Units=GPa)
#
#
# Indices 1 2 3 4 5 6 
#
# 1 111.7828 32.7485 18.1646 0.0000 -12.0088 0.0000
# 2 32.7485 141.6048 19.8167 0.0000 1.5422 0.0000
# 3 18.1646 19.8167 47.7387 0.0000 -10.3203 0.0000
# 4 0.0000 0.0000 0.0000 15.5940 0.0000 2.9085
# 5 -12.0088 1.5422 -10.3203 0.0000 33.1955 0.0000
# 6 0.0000 0.0000 0.0000 2.9085 0.0000 15.3029
#
#
#
# Elastic Compliance Matrix: (Units=1/GPa)
#
#
# Indices 1 2 3 4 5 6 
#
# 1 0.010271 -0.002075 -0.002383 0.000000 0.003071 0.000000
# 2 -0.002075 0.007979 -0.002964 0.000000 -0.002043 0.000000
# 3 -0.002383 -0.002964 0.024580 0.000000 0.006917 0.000000
# 4 0.000000 0.000000 0.000000 0.066484 0.000000 -0.012636
# 5 0.003071 -0.002043 0.006917 0.000000 0.033481 0.000000
# 6 0.000000 0.000000 0.000000 -0.012636 0.000000 0.067749
#
#
# Mechanical properties :
#
#
# Convention : Reuss Voigt Hill
#
# Bulk Modulus (GPa) = 35.73272 49.17622 42.45447
# Shear Modulus (GPa) = 21.30232 28.17826 24.74029
#
# Velocity S-wave (km/s) = 3.10668 3.57305 3.34799
# Velocity P-wave (km/s) = 5.39055 6.26917 5.84639
#
# Compressibility (1/GPa) = 0.02798555
#
# Stress axis : x y z
#
# Youngs Moduli (GPa) = 97.36087 125.33013 40.68374
#
# Poissons Ratio (x) = 0.26011 0.09694
# Poissons Ratio (y) = 0.20206 0.12059
# Poissons Ratio (z) = 0.23198 0.37149
#
# Static dielectric constant tensor:
#      x y z
#    x 1.970710 0.000000 0.044570 
#    y 0.000000 1.788140 0.000000 
#    z 0.044570 0.000000 1.869540 
# 
# From -- ./inp_files/185727.got.cif
#   From: 2010.05.17/outbox.cif.g08.bks.cpg/sg15_93_cif.got.tgz:185727.got - 2010.06.03 18:47:42.
