data_PCOD9277342
_publ_section_title
;
Structure prediction by ZEFSAII (Michael W. Deem and Ramdas Pophale) SiO2 
 PCOD9277342
Probable space group: C 2/C
;
_chemical_formula_sum "Si O2"
_cell_formula_units_Z 36
_cell_length_a 12.249120
_cell_length_b 16.519795
_cell_length_c 8.742500
_cell_angle_alpha 90.000000
_cell_angle_beta 118.749157
_cell_angle_gamma 90.000000
_cell_volume 1551.004115
_symmetry_space_group_name_H-M "C 2/C"
_symmetry_group_IT_number 15
_symmetry_cell_setting 'monoclinic'
loop_
_space_group_symop_operation_xyz
x,y,z
-x,y,1/2-z
-x,-y,-z
x,-y,1/2+z
1/2+x,1/2+y,z
1/2-x,1/2+y,1/2-z
1/2-x,1/2-y,-z
1/2+x,1/2-y,1/2+z
loop_
_atom_site_type_symbol
_atom_site_label
_atom_site_fract_x
_atom_site_fract_y
_atom_site_fract_z
Si Si1 0.360664 0.235317 0.420200
Si Si2 0.256563 0.339485 0.934339
Si Si3 0.794478 0.614081 0.579094
Si Si4 0.135355 0.536005 0.551670
Si Si5 0.000000 0.176653 0.750000
O O1 0.258498 0.183095 0.253292
O O2 0.310032 0.317377 0.462833
O O3 0.400632 0.170329 0.572092
O O4 0.456417 0.265899 0.359084
O O5 0.147964 0.396679 0.926517
O O6 0.250000 0.250000 0.000000
O O7 0.385332 0.371923 0.096242
O O8 0.782238 0.537952 0.458069
O O9 0.818891 0.576727 0.761561
O O10 0.000000 0.500000 0.500000
#
# Coordination Sequence:
#
# PCOD9277342 Si02
#       5
#     8   8   8   8   4
#     4  10  23  43  74 103 144 195 251 298 363 456
#     4  10  21  43  70 103 145 192 244 295 369 451
#     4  11  24  43  66 106 147 186 247 303 369 432
#     4  12  25  41  67 106 149 187 235 311 367 427
#     4  10  20  40  78  94 136 194 242 300 354 440
#
# _framework density 23.210768999999999
#
# number of rings (size 3 to 8) (size 9 to 14) (size 15 to 20)
#    0.000    1.333    4.444    2.000    6.222    1.778 
#    0.000    4.444    0.000    0.000    0.000    0.000 
#    0.000    0.000    0.000    0.000    0.000    0.000 
#
# Total GULP energy -100323.272927 kJ/mol
# GULP energy per Si atom -5573.515163 kJ/mol
# Density = 2.315794 g / cm^3
# Si number density = 23.210769 Si / 1000 Ang^3
#
#
#
# Elastic Constant Matrix: (Units=GPa)
#
#
# Indices 1 2 3 4 5 6 
#
# 1 97.5595 52.9759 41.7436 0.0000 -26.3409 0.0000
# 2 52.9759 173.9771 48.0965 0.0000 -28.5195 0.0000
# 3 41.7436 48.0965 122.9768 0.0000 -17.5703 0.0000
# 4 0.0000 0.0000 0.0000 38.9562 0.0000 -24.5581
# 5 -26.3409 -28.5195 -17.5703 0.0000 49.6789 0.0000
# 6 0.0000 0.0000 0.0000 -24.5581 0.0000 53.1560
#
#
#
# Elastic Compliance Matrix: (Units=1/GPa)
#
#
# Indices 1 2 3 4 5 6 
#
# 1 0.014398 -0.002706 -0.003118 0.000000 0.004978 0.000000
# 2 -0.002706 0.007394 -0.001655 0.000000 0.002224 0.000000
# 3 -0.003118 -0.001655 0.009969 0.000000 0.000922 0.000000
# 4 0.000000 0.000000 0.000000 0.036218 0.000000 0.016733
# 5 0.004978 0.002224 0.000922 0.000000 0.024372 0.000000
# 6 0.000000 0.000000 0.000000 0.016733 0.000000 0.026543
#
#
# Mechanical properties :
#
#
# Convention : Reuss Voigt Hill
#
# Bulk Modulus (GPa) = 59.51519 75.57171 67.54345
# Shear Modulus (GPa) = 35.85427 45.13805 40.49616
#
# Velocity S-wave (km/s) = 3.93456 4.41466 4.18151
# Velocity P-wave (km/s) = 6.80720 7.65606 7.24407
#
# Compressibility (1/GPa) = 0.01680243
#
# Stress axis : x y z
#
# Youngs Moduli (GPa) = 69.45617 135.24052 100.30995
#
# Poissons Ratio (x) = 0.36599 0.31272
# Poissons Ratio (y) = 0.18796 0.16606
# Poissons Ratio (z) = 0.21653 0.22389
#
# Static dielectric constant tensor:
#      x y z
#    x 2.001450 0.000000 0.009480 
#    y 0.000000 1.864230 0.000000 
#    z 0.009480 0.000000 2.031180 
# 
# From -- ./inp_files/38790.got.cif
#   From: 2010.05.17/outbox.cif.g08.bks.cpg/sg15_20_cif.got.tgz:38790.got - 2010.06.03 18:47:42.
