data_PCOD9277227
_publ_section_title
;
Structure prediction by ZEFSAII (Michael W. Deem and Ramdas Pophale) SiO2 
 PCOD9277227
Probable space group: C 2/C
;
_chemical_formula_sum "Si O2"
_cell_formula_units_Z 52
_cell_length_a 5.423487
_cell_length_b 17.718982
_cell_length_c 26.878881
_cell_angle_alpha 90.000000
_cell_angle_beta 116.268382
_cell_angle_gamma 90.000000
_cell_volume 2316.277777
_symmetry_space_group_name_H-M "C 2/C"
_symmetry_group_IT_number 15
_symmetry_cell_setting 'monoclinic'
loop_
_space_group_symop_operation_xyz
x,y,z
-x,y,1/2-z
-x,-y,-z
x,-y,1/2+z
1/2+x,1/2+y,z
1/2-x,1/2+y,1/2-z
1/2-x,1/2-y,-z
1/2+x,1/2-y,1/2+z
loop_
_atom_site_type_symbol
_atom_site_label
_atom_site_fract_x
_atom_site_fract_y
_atom_site_fract_z
Si Si1 0.479576 0.534567 0.052785
Si Si2 0.258313 0.216108 0.196783
Si Si3 0.000000 0.097929 0.250000
Si Si4 0.006805 0.599707 0.141162
Si Si5 0.370414 0.830870 0.955648
Si Si6 0.752141 0.110074 0.571790
Si Si7 0.825364 0.318937 0.106480
O O1 0.765016 0.541703 0.107162
O O2 0.364049 0.618807 0.039562
O O3 0.275103 0.478757 0.063464
O O4 0.500000 0.500000 0.000000
O O5 0.500000 0.254563 0.250000
O O6 0.142937 0.150696 0.221839
O O7 0.382734 0.171565 0.160531
O O8 0.015873 0.272223 0.161217
O O9 0.250760 0.062642 0.303940
O O10 0.104341 0.634081 0.097427
O O11 0.288332 0.744680 0.941751
O O12 0.637373 0.848161 0.012165
O O13 0.535156 0.128016 0.595281
O O14 0.061371 0.140899 0.606800
#
# Coordination Sequence:
#
# PCOD9277227 Si02
#       7
#     8   8   4   8   8   8   8
#     4  12  25  43  67 100 146 193 233 278 352 433
#     4  10  22  40  71 100 128 176 239 302 345 412
#     4  10  20  40  70 106 124 168 246 312 340 394
#     4  11  21  40  71 101 135 172 250 295 346 402
#     4  12  24  43  69  99 140 189 240 283 338 422
#     4  12  28  41  66 104 153 186 221 283 359 426
#     4  12  25  45  67 105 140 183 234 292 351 414
#
# _framework density 22.449809999999999
#
# number of rings (size 3 to 8) (size 9 to 14) (size 15 to 20)
#    0.000    0.615    4.615    3.231    4.308    0.000 
#    0.000    0.000    1.692    1.846    0.000    0.000 
#    0.000    0.000    0.000    0.000    0.000    0.000 
#
# Total GULP energy -145507.344673 kJ/mol
# GULP energy per Si atom -5596.436334 kJ/mol
# Density = 2.239871 g / cm^3
# Si number density = 22.449810 Si / 1000 Ang^3
#
#
#
# Elastic Constant Matrix: (Units=GPa)
#
#
# Indices 1 2 3 4 5 6 
#
# 1 97.5698 16.8314 39.3117 0.0000 15.7338 0.0000
# 2 16.8314 56.4618 0.2140 0.0000 12.0130 0.0000
# 3 39.3117 0.2140 130.2648 0.0000 35.8634 0.0000
# 4 0.0000 0.0000 0.0000 16.8885 0.0000 13.0850
# 5 15.7338 12.0130 35.8634 0.0000 54.7413 0.0000
# 6 0.0000 0.0000 0.0000 13.0850 0.0000 28.3800
#
#
#
# Elastic Compliance Matrix: (Units=1/GPa)
#
#
# Indices 1 2 3 4 5 6 
#
# 1 0.012394 -0.003596 -0.003625 0.000000 -0.000398 0.000000
# 2 -0.003596 0.019813 0.002398 0.000000 -0.004885 0.000000
# 3 -0.003625 0.002398 0.010523 0.000000 -0.006378 0.000000
# 4 0.000000 0.000000 0.000000 0.092120 0.000000 -0.042473
# 5 -0.000398 -0.004885 -0.006378 0.000000 0.023633 0.000000
# 6 0.000000 0.000000 0.000000 -0.042473 0.000000 0.054819
#
#
# Mechanical properties :
#
#
# Convention : Reuss Voigt Hill
#
# Bulk Modulus (GPa) = 30.22640 44.11230 37.16935
# Shear Modulus (GPa) = 21.36968 35.19789 28.28379
#
# Velocity S-wave (km/s) = 3.08861 3.96390 3.55331
# Velocity P-wave (km/s) = 5.11982 6.37511 5.78163
#
# Compressibility (1/GPa) = 0.03308366
#
# Stress axis : x y z
#
# Youngs Moduli (GPa) = 80.68337 50.47077 95.03360
#
# Poissons Ratio (x) = 0.18150 0.34447
# Poissons Ratio (y) = 0.29015 -0.22786
# Poissons Ratio (z) = 0.29246 -0.12101
#
# Static dielectric constant tensor:
#      x y z
#    x 1.912980 0.000000 0.011640 
#    y 0.000000 1.798200 0.000000 
#    z 0.011640 0.000000 1.876520 
# 
# From -- ./inp_files/286154.got.cif
#   From: 2010.05.17/outbox.cif.g08.bks.cpg/sg15_144_cif.got.tgz:286154.got - 2010.06.03 18:47:42.
