data_PCOD9277820
_publ_section_title
;
Structure prediction by ZEFSAII (Michael W. Deem and Ramdas Pophale) SiO2 
 PCOD9277820
Probable space group: C 2/C
;
_chemical_formula_sum "Si O2"
_cell_formula_units_Z 56
_cell_length_a 8.386107
_cell_length_b 29.779393
_cell_length_c 10.864937
_cell_angle_alpha 90.000000
_cell_angle_beta 56.518604
_cell_angle_gamma 90.000000
_cell_volume 2263.097924
_symmetry_space_group_name_H-M "C 2/C"
_symmetry_group_IT_number 15
_symmetry_cell_setting 'monoclinic'
loop_
_space_group_symop_operation_xyz
x,y,z
-x,y,1/2-z
-x,-y,-z
x,-y,1/2+z
1/2+x,1/2+y,z
1/2-x,1/2+y,1/2-z
1/2-x,1/2-y,-z
1/2+x,1/2-y,1/2+z
loop_
_atom_site_type_symbol
_atom_site_label
_atom_site_fract_x
_atom_site_fract_y
_atom_site_fract_z
Si Si1 0.840561 0.413118 0.041726
Si Si2 0.219976 0.591219 0.658821
Si Si3 0.291669 0.185176 0.899565
Si Si4 0.274358 0.850137 0.862998
Si Si5 0.776465 0.006935 0.088624
Si Si6 0.775998 0.221509 0.312401
Si Si7 0.279539 0.571572 0.297308
O O1 0.756584 0.368469 0.009867
O O2 0.784956 0.456439 0.984247
O O3 0.075616 0.412917 0.947093
O O4 0.739926 0.417768 0.215912
O O5 0.313882 0.637736 0.575530
O O6 0.220831 0.544147 0.587927
O O7 0.000000 0.603331 0.750000
O O8 0.500000 0.186251 0.750000
O O9 0.196609 0.228341 0.872533
O O10 0.312029 0.192870 0.037191
O O11 0.500000 0.856358 0.750000
O O12 0.238563 0.801771 0.814720
O O13 0.183775 0.887674 0.813289
O O14 0.716874 0.027661 0.245357
O O15 0.000000 0.000000 0.000000
O O16 0.000000 0.221626 0.250000
O O17 0.500000 0.563095 0.250000
#
# Coordination Sequence:
#
# PCOD9277820 Si02
#       7
#     8   8   8   8   8   8   8
#     4  10  24  46  62  99 140 173 238 284 338 425
#     4  11  25  42  70  93 133 187 222 288 352 408
#     4   9  22  40  67 102 135 175 228 282 342 412
#     4   9  20  37  66  97 134 175 217 278 333 404
#     4  11  26  42  63  95 134 184 226 281 345 411
#     4  10  20  41  71 102 134 172 237 282 329 418
#     4  10  22  39  65  96 127 175 228 282 334 404
#
# _framework density 24.744842999999999
#
# number of rings (size 3 to 8) (size 9 to 14) (size 15 to 20)
#    0.000    2.000    0.000    2.571   12.000    3.429 
#    2.571    0.714    3.143    0.000    0.000    0.000 
#    0.000    0.000    0.000    0.000    0.000    0.000 
#
# Total GULP energy -156028.642609 kJ/mol
# GULP energy per Si atom -5572.451522 kJ/mol
# Density = 2.468852 g / cm^3
# Si number density = 24.744843 Si / 1000 Ang^3
#
#
#
# Elastic Constant Matrix: (Units=GPa)
#
#
# Indices 1 2 3 4 5 6 
#
# 1 89.8576 39.7969 18.2129 0.0000 11.4293 0.0000
# 2 39.7969 181.1491 23.3499 0.0000 19.4648 0.0000
# 3 18.2129 23.3499 47.0267 0.0000 -13.0560 0.0000
# 4 0.0000 0.0000 0.0000 24.5556 0.0000 4.5203
# 5 11.4293 19.4648 -13.0560 0.0000 30.5638 0.0000
# 6 0.0000 0.0000 0.0000 4.5203 0.0000 29.9874
#
#
#
# Elastic Compliance Matrix: (Units=1/GPa)
#
#
# Indices 1 2 3 4 5 6 
#
# 1 0.014048 -0.001445 -0.006723 0.000000 -0.007205 0.000000
# 2 -0.001445 0.007066 -0.004593 0.000000 -0.005921 0.000000
# 3 -0.006723 -0.004593 0.031380 0.000000 0.018844 0.000000
# 4 0.000000 0.000000 0.000000 0.041886 0.000000 -0.006314
# 5 -0.007205 -0.005921 0.018844 0.000000 0.047233 0.000000
# 6 0.000000 0.000000 0.000000 -0.006314 0.000000 0.034299
#
#
# Mechanical properties :
#
#
# Convention : Reuss Voigt Hill
#
# Bulk Modulus (GPa) = 37.07566 53.41696 45.24631
# Shear Modulus (GPa) = 23.76132 32.79961 28.28046
#
# Velocity S-wave (km/s) = 3.10216 3.64471 3.38432
# Velocity P-wave (km/s) = 5.27702 6.27263 5.79624
#
# Compressibility (1/GPa) = 0.02697187
#
# Stress axis : x y z
#
# Youngs Moduli (GPa) = 71.18471 141.52018 31.86719
#
# Poissons Ratio (x) = 0.20456 0.21425
# Poissons Ratio (y) = 0.10290 0.14636
# Poissons Ratio (z) = 0.47858 0.64995
#
# Static dielectric constant tensor:
#      x y z
#    x 1.977790 0.000000 0.044360 
#    y 0.000000 4.159460 0.000000 
#    z 0.044360 0.000000 2.125690 
# 
# From -- ./inp_files/82462.got.cif
#   From: 2010.05.17/outbox.cif.g08.bks.cpg/sg15_42_cif.got.tgz:82462.got - 2010.06.03 18:47:42.
