data_PCOD9277884
_publ_section_title
;
Structure prediction by ZEFSAII (Michael W. Deem and Ramdas Pophale) SiO2 
 PCOD9277884
Probable space group: C 2/C
;
_chemical_formula_sum "Si O2"
_cell_formula_units_Z 44
_cell_length_a 13.620538
_cell_length_b 7.915601
_cell_length_c 23.848100
_cell_angle_alpha 90.000000
_cell_angle_beta 51.876533
_cell_angle_gamma 90.000000
_cell_volume 2022.699107
_symmetry_space_group_name_H-M "C 2/C"
_symmetry_group_IT_number 15
_symmetry_cell_setting 'monoclinic'
loop_
_space_group_symop_operation_xyz
x,y,z
-x,y,1/2-z
-x,-y,-z
x,-y,1/2+z
1/2+x,1/2+y,z
1/2-x,1/2+y,1/2-z
1/2-x,1/2-y,-z
1/2+x,1/2-y,1/2+z
loop_
_atom_site_type_symbol
_atom_site_label
_atom_site_fract_x
_atom_site_fract_y
_atom_site_fract_z
Si Si1 0.627842 0.097528 0.962716
Si Si2 0.794932 0.121307 0.808335
Si Si3 0.000000 0.310445 0.250000
Si Si4 0.497939 0.397422 0.058117
Si Si5 0.252971 0.273070 0.200474
Si Si6 0.390013 0.538464 0.372105
O O1 0.598544 0.246438 0.016119
O O2 0.327837 0.827364 0.113026
O O3 0.742095 0.972698 0.938052
O O4 0.500000 0.000000 0.000000
O O5 0.801380 0.210412 0.746898
O O6 0.896083 0.113819 0.823432
O O7 0.781923 0.922449 0.797234
O O8 0.872258 0.383595 0.268245
O O9 0.943187 0.200443 0.321538
O O10 0.362110 0.322839 0.119589
O O11 0.534802 0.506246 0.098754
O O12 0.500000 0.500000 0.000000
#
# Coordination Sequence:
#
# PCOD9277884 Si02
#       6
#     8   8   4   8   8   8
#     4  10  20  43  59  91 121 165 201 256 315 360
#     4   9  22  39  65  87 122 163 204 257 308 363
#     4  10  20  42  60  92 120 160 206 264 314 360
#     4  12  24  39  63  94 128 163 213 252 313 376
#     4  11  22  42  62  91 119 164 204 255 310 372
#     4   9  21  38  63  87 122 162 203 252 309 365
#
# _framework density 21.753112999999999
#
# number of rings (size 3 to 8) (size 9 to 14) (size 15 to 20)
#    1.091    0.727    1.818    2.727    5.091    0.000 
#    3.273    6.364    0.000    0.000    0.000    0.000 
#    0.000    0.000    0.000    0.000    0.000    0.000 
#
# Total GULP energy -122492.028948 kJ/mol
# GULP energy per Si atom -5567.819498 kJ/mol
# Density = 2.170360 g / cm^3
# Si number density = 21.753113 Si / 1000 Ang^3
#
#
#
# Elastic Constant Matrix: (Units=GPa)
#
#
# Indices 1 2 3 4 5 6 
#
# 1 100.1592 11.0838 27.9003 0.0000 13.2158 0.0000
# 2 11.0838 17.1362 8.6178 0.0000 9.6379 0.0000
# 3 27.9003 8.6178 103.3704 0.0000 1.4464 0.0000
# 4 0.0000 0.0000 0.0000 19.4107 0.0000 7.6691
# 5 13.2158 9.6379 1.4464 0.0000 57.4892 0.0000
# 6 0.0000 0.0000 0.0000 7.6691 0.0000 14.6988
#
#
#
# Elastic Compliance Matrix: (Units=1/GPa)
#
#
# Indices 1 2 3 4 5 6 
#
# 1 0.011521 -0.005149 -0.002656 0.000000 -0.001718 0.000000
# 2 -0.005149 0.069680 -0.004274 0.000000 -0.010390 0.000000
# 3 -0.002656 -0.004274 0.010732 0.000000 0.001057 0.000000
# 4 0.000000 0.000000 0.000000 0.064896 0.000000 -0.033860
# 5 -0.001718 -0.010390 0.001057 0.000000 0.019505 0.000000
# 6 0.000000 0.000000 0.000000 -0.033860 0.000000 0.085699
#
#
# Mechanical properties :
#
#
# Convention : Reuss Voigt Hill
#
# Bulk Modulus (GPa) = 14.75492 35.09664 24.92578
# Shear Modulus (GPa) = 16.19261 29.85731 23.02496
#
# Velocity S-wave (km/s) = 2.73129 3.70882 3.25694
# Velocity P-wave (km/s) = 4.09197 5.87448 5.06230
#
# Compressibility (1/GPa) = 0.06777401
#
# Stress axis : x y z
#
# Youngs Moduli (GPa) = 86.80129 14.35135 93.17604
#
# Poissons Ratio (x) = 0.07390 0.24749
# Poissons Ratio (y) = 0.44698 0.39822
# Poissons Ratio (z) = 0.23056 0.06134
#
# Static dielectric constant tensor:
#      x y z
#    x 1.880140 0.000000 -0.038190 
#    y 0.000000 1.845750 0.000000 
#    z -0.038190 0.000000 1.822980 
# 
# From -- ./inp_files/267971.got.cif
#   From: 2010.05.17/outbox.cif.g08.bks.cpg/sg15_134_cif.got.tgz:267971.got - 2010.06.03 18:47:42.
