data_PCOD9277853
_publ_section_title
;
Structure prediction by ZEFSAII (Michael W. Deem and Ramdas Pophale) SiO2 
 PCOD9277853
Probable space group: C 2/C
;
_chemical_formula_sum "Si O2"
_cell_formula_units_Z 36
_cell_length_a 20.170081
_cell_length_b 5.515369
_cell_length_c 15.921512
_cell_angle_alpha 90.000000
_cell_angle_beta 129.386460
_cell_angle_gamma 90.000000
_cell_volume 1368.927943
_symmetry_space_group_name_H-M "C 2/C"
_symmetry_group_IT_number 15
_symmetry_cell_setting 'monoclinic'
loop_
_space_group_symop_operation_xyz
x,y,z
-x,y,1/2-z
-x,-y,-z
x,-y,1/2+z
1/2+x,1/2+y,z
1/2-x,1/2+y,1/2-z
1/2-x,1/2-y,-z
1/2+x,1/2-y,1/2+z
loop_
_atom_site_type_symbol
_atom_site_label
_atom_site_fract_x
_atom_site_fract_y
_atom_site_fract_z
Si Si1 0.000000 0.622772 0.750000
Si Si2 0.538271 0.144507 0.111128
Si Si3 0.821476 0.104281 0.111304
Si Si4 0.685475 0.096713 0.127140
Si Si5 0.382850 0.599269 0.507844
O O1 0.005467 0.474634 0.669374
O O2 0.087429 0.769287 0.818896
O O3 0.640860 0.126483 0.182258
O O4 0.486076 0.395827 0.077860
O O5 0.500000 0.000000 0.000000
O O6 0.783686 0.093299 0.174850
O O7 0.845140 0.873571 0.072242
O O8 0.750000 0.250000 0.000000
O O9 0.852525 0.157523 0.945961
O O10 0.654496 0.834006 0.069272
#
# Coordination Sequence:
#
# PCOD9277853 Si02
#       5
#     4   8   8   8   8
#     4  12  26  46  76 112 144 198 248 290 374 444
#     4  10  22  44  70 104 145 187 238 301 355 426
#     4  10  22  44  70 104 145 187 238 301 355 426
#     4  10  21  40  73 101 141 194 237 293 368 422
#     4  10  20  41  73 105 141 193 235 294 369 423
#
# _framework density 26.29795
#
# number of rings (size 3 to 8) (size 9 to 14) (size 15 to 20)
#    0.000    1.778    0.000    6.667    0.000    4.444 
#    0.000   13.333    0.000    0.000    0.000    0.000 
#    0.000    0.000    0.000    0.000    0.000    0.000 
#
# Total GULP energy -100434.792577 kJ/mol
# GULP energy per Si atom -5579.710699 kJ/mol
# Density = 2.623809 g / cm^3
# Si number density = 26.297950 Si / 1000 Ang^3
#
#
#
# Elastic Constant Matrix: (Units=GPa)
#
#
# Indices 1 2 3 4 5 6 
#
# 1 240.9429 22.7463 34.5167 0.0000 -47.2748 0.0000
# 2 22.7463 117.0364 23.4110 -0.0001 -1.7558 -0.0002
# 3 34.5167 23.4110 58.9196 0.0000 -6.0554 -0.0001
# 4 0.0000 -0.0001 0.0000 36.5942 0.0000 0.0944
# 5 -47.2748 -1.7558 -6.0554 0.0000 41.6791 0.0000
# 6 0.0000 -0.0002 -0.0001 0.0944 0.0000 47.0749
#
#
#
# Elastic Compliance Matrix: (Units=1/GPa)
#
#
# Indices 1 2 3 4 5 6 
#
# 1 0.005771 -0.000521 -0.002541 0.000000 0.006155 0.000000
# 2 -0.000521 0.009330 -0.003474 0.000000 -0.000703 0.000000
# 3 -0.002541 -0.003474 0.019826 0.000000 -0.000148 0.000000
# 4 0.000000 0.000000 0.000000 0.027327 0.000000 -0.000055
# 5 0.006155 -0.000703 -0.000148 0.000000 0.030923 0.000000
# 6 0.000000 0.000000 0.000000 -0.000055 0.000000 0.021243
#
#
# Mechanical properties :
#
#
# Convention : Reuss Voigt Hill
#
# Bulk Modulus (GPa) = 45.75729 64.24967 55.00348
# Shear Modulus (GPa) = 37.09801 47.48461 42.29131
#
# Velocity S-wave (km/s) = 3.75998 4.25389 4.01454
# Velocity P-wave (km/s) = 6.02389 6.97223 6.51533
#
# Compressibility (1/GPa) = 0.02185444
#
# Stress axis : x y z
#
# Youngs Moduli (GPa) = 173.27258 107.18102 50.43814
#
# Poissons Ratio (x) = 0.05584 0.12818
# Poissons Ratio (y) = 0.09027 0.17523
# Poissons Ratio (z) = 0.44035 0.37237
#
# Static dielectric constant tensor:
#      x y z
#    x 2.173240 0.000000 0.101800 
#    y 0.000000 2.127900 0.000000 
#    z 0.101800 0.000000 2.487200 
# 
# From -- ./inp_files/165118.got.cif
#   From: 2010.05.17/outbox.cif.g08.bks.cpg/sg15_83_cif.got.tgz:165118.got - 2010.06.03 18:47:42.
