data_PCOD9277456
_publ_section_title
;
Structure prediction by ZEFSAII (Michael W. Deem and Ramdas Pophale) SiO2 
 PCOD9277456
Probable space group: C 2/C
;
_chemical_formula_sum "Si O2"
_cell_formula_units_Z 60
_cell_length_a 17.197394
_cell_length_b 14.554919
_cell_length_c 13.849013
_cell_angle_alpha 90.000000
_cell_angle_beta 51.943257
_cell_angle_gamma 90.000000
_cell_volume 2729.524668
_symmetry_space_group_name_H-M "C 2/C"
_symmetry_group_IT_number 15
_symmetry_cell_setting 'monoclinic'
loop_
_space_group_symop_operation_xyz
x,y,z
-x,y,1/2-z
-x,-y,-z
x,-y,1/2+z
1/2+x,1/2+y,z
1/2-x,1/2+y,1/2-z
1/2-x,1/2-y,-z
1/2+x,1/2-y,1/2+z
loop_
_atom_site_type_symbol
_atom_site_label
_atom_site_fract_x
_atom_site_fract_y
_atom_site_fract_z
Si Si1 0.792413 0.566705 0.245075
Si Si2 0.613179 0.558153 0.515776
Si Si3 0.484043 0.024445 0.375541
Si Si4 0.821869 0.389794 0.127319
Si Si5 0.000000 0.811686 0.250000
Si Si6 0.339272 0.735046 0.729514
Si Si7 0.956853 0.868534 0.983358
Si Si8 0.983085 0.325965 0.148861
O O1 0.726422 0.561652 0.393095
O O2 0.906793 0.542556 0.170555
O O3 0.762893 0.484419 0.195749
O O4 0.796930 0.673247 0.213888
O O5 0.573882 0.622390 0.632046
O O6 0.582096 0.451568 0.552873
O O7 0.551215 0.593732 0.469863
O O8 0.500000 0.031834 0.250000
O O9 0.405513 0.089597 0.485110
O O10 0.456964 0.918937 0.423192
O O11 0.748858 0.312396 0.145511
O O12 0.876227 0.349354 0.182359
O O13 0.066523 0.752364 0.272704
O O14 0.374036 0.660747 0.624270
O O15 0.984209 0.771900 0.915431
O O16 0.000000 0.320962 0.250000
#
# Coordination Sequence:
#
# PCOD9277456 Si02
#       8
#     8   8   8   8   4   8   8   8
#     4  11  22  39  66  93 126 176 215 277 328 389
#     4  10  22  40  63  92 131 170 220 265 339 401
#     4  10  23  40  65  95 135 172 220 275 337 390
#     4  11  22  43  65  99 136 179 221 279 336 396
#     4  10  26  42  60  98 132 180 224 274 328 398
#     4  11  23  41  68  94 135 173 229 269 333 404
#     4  10  20  41  63  91 128 176 209 272 334 402
#     4  10  21  40  67  96 126 171 226 277 334 396
#
# _framework density 21.981847999999999
#
# number of rings (size 3 to 8) (size 9 to 14) (size 15 to 20)
#    0.000    1.600    1.333    4.000    3.733    1.600 
#    0.000    0.667    0.000    0.000    0.000    0.000 
#    0.000    0.000    0.000    0.000    0.000    0.000 
#
# Total GULP energy -167356.009222 kJ/mol
# GULP energy per Si atom -5578.533641 kJ/mol
# Density = 2.193182 g / cm^3
# Si number density = 21.981848 Si / 1000 Ang^3
#
#
#
# Elastic Constant Matrix: (Units=GPa)
#
#
# Indices 1 2 3 4 5 6 
#
# 1 39.4382 23.8884 16.8370 0.0000 4.2979 0.0000
# 2 23.8884 125.5693 40.2088 0.0000 -18.0140 0.0000
# 3 16.8370 40.2088 100.0395 0.0000 -12.1118 0.0000
# 4 0.0000 0.0000 0.0000 38.7814 0.0000 -0.9724
# 5 4.2979 -18.0140 -12.1118 0.0000 26.7018 0.0000
# 6 0.0000 0.0000 0.0000 -0.9724 0.0000 38.2071
#
#
#
# Elastic Compliance Matrix: (Units=1/GPa)
#
#
# Indices 1 2 3 4 5 6 
#
# 1 0.032313 -0.006434 -0.004240 0.000000 -0.011465 0.000000
# 2 -0.006434 0.011032 -0.002460 0.000000 0.007362 0.000000
# 3 -0.004240 -0.002460 0.012253 0.000000 0.004581 0.000000
# 4 0.000000 0.000000 0.000000 0.025802 0.000000 0.000657
# 5 -0.011465 0.007362 0.004581 0.000000 0.046341 0.000000
# 6 0.000000 0.000000 0.000000 0.000657 0.000000 0.026190
#
#
# Mechanical properties :
#
#
# Convention : Reuss Voigt Hill
#
# Bulk Modulus (GPa) = 34.09582 47.43506 40.76544
# Shear Modulus (GPa) = 26.31919 33.01226 29.66573
#
# Velocity S-wave (km/s) = 3.46398 3.87951 3.67762
# Velocity P-wave (km/s) = 5.61635 6.45705 6.05132
#
# Compressibility (1/GPa) = 0.02932911
#
# Stress axis : x y z
#
# Youngs Moduli (GPa) = 30.94710 90.64883 81.61293
#
# Poissons Ratio (x) = 0.58326 0.34607
# Poissons Ratio (y) = 0.19912 0.20074
# Poissons Ratio (z) = 0.13123 0.22297
#
# Static dielectric constant tensor:
#      x y z
#    x 1.832350 0.000000 0.006080 
#    y 0.000000 1.858630 0.000000 
#    z 0.006080 0.000000 1.852650 
# 
# From -- ./inp_files/168619.got.cif
#   From: 2010.05.17/outbox.cif.g08.bks.cpg/sg15_85_cif.got.tgz:168619.got - 2010.06.03 18:47:42.
