data_PCOD9277506
_publ_section_title
;
Structure prediction by ZEFSAII (Michael W. Deem and Ramdas Pophale) SiO2 
 PCOD9277506
Probable space group: C 2/C
;
_chemical_formula_sum "Si O2"
_cell_formula_units_Z 52
_cell_length_a 18.261773
_cell_length_b 9.194843
_cell_length_c 15.482978
_cell_angle_alpha 90.000000
_cell_angle_beta 119.616758
_cell_angle_gamma 90.000000
_cell_volume 2260.146678
_symmetry_space_group_name_H-M "C 2/C"
_symmetry_group_IT_number 15
_symmetry_cell_setting 'monoclinic'
loop_
_space_group_symop_operation_xyz
x,y,z
-x,y,1/2-z
-x,-y,-z
x,-y,1/2+z
1/2+x,1/2+y,z
1/2-x,1/2+y,1/2-z
1/2-x,1/2-y,-z
1/2+x,1/2-y,1/2+z
loop_
_atom_site_type_symbol
_atom_site_label
_atom_site_fract_x
_atom_site_fract_y
_atom_site_fract_z
Si Si1 0.000000 0.094881 0.250000
Si Si2 0.088422 0.831870 0.495867
Si Si3 0.764951 0.268796 0.298140
Si Si4 0.325038 0.529205 0.216250
Si Si5 0.799341 0.388504 0.992972
Si Si6 0.427722 0.331966 0.524568
Si Si7 0.329855 0.824006 0.596986
O O1 0.922201 0.011932 0.250467
O O2 0.959970 0.177391 0.143673
O O3 0.153620 0.737862 0.591524
O O4 0.092966 0.761371 0.403487
O O5 0.001364 0.828119 0.496869
O O6 0.111678 0.004379 0.504708
O O7 0.719483 0.417374 0.245228
O O8 0.802384 0.186493 0.238731
O O9 0.691558 0.198186 0.315130
O O10 0.268686 0.518025 0.098851
O O11 0.750000 0.250000 0.000000
O O12 0.869687 0.308429 0.976930
O O13 0.836451 0.505141 0.080683
O O14 0.250000 0.750000 0.500000
#
# Coordination Sequence:
#
# PCOD9277506 Si02
#       7
#     4   8   8   8   8   8   8
#     4  12  24  44  64 102 138 180 224 286 342 406
#     4  10  21  44  64  97 133 179 223 280 343 406
#     4  11  24  42  68  99 132 179 221 288 336 408
#     4  12  26  43  70  98 140 176 233 282 347 408
#     4  12  23  39  69 100 125 180 233 276 338 414
#     4  11  24  39  71 100 134 180 233 282 340 416
#     4  10  20  41  64  91 131 172 218 275 337 395
#
# _framework density 23.007356999999999
#
# number of rings (size 3 to 8) (size 9 to 14) (size 15 to 20)
#    0.000    0.923    6.154    2.769    4.308    0.615 
#    0.000    0.000    0.000    0.923    0.000    0.000 
#    0.000    0.000    0.000    0.000    0.000    0.000 
#
# Total GULP energy -144982.122511 kJ/mol
# GULP energy per Si atom -5576.235481 kJ/mol
# Density = 2.295499 g / cm^3
# Si number density = 23.007357 Si / 1000 Ang^3
#
#
#
# Elastic Constant Matrix: (Units=GPa)
#
#
# Indices 1 2 3 4 5 6 
#
# 1 128.2684 42.0245 4.9195 0.0000 -4.7213 0.0000
# 2 42.0245 96.0773 -9.3954 0.0000 7.8695 0.0000
# 3 4.9195 -9.3954 38.3026 0.0000 -1.3738 0.0000
# 4 0.0000 0.0000 0.0000 24.9452 0.0000 -9.6714
# 5 -4.7213 7.8695 -1.3738 0.0000 27.1260 0.0000
# 6 0.0000 0.0000 0.0000 -9.6714 0.0000 36.9130
#
#
#
# Elastic Compliance Matrix: (Units=1/GPa)
#
#
# Indices 1 2 3 4 5 6 
#
# 1 0.009499 -0.004610 -0.002248 0.000000 0.002877 0.000000
# 2 -0.004610 0.013145 0.003658 0.000000 -0.004431 0.000000
# 3 -0.002248 0.003658 0.027291 0.000000 -0.000070 0.000000
# 4 0.000000 0.000000 0.000000 0.044620 0.000000 0.011691
# 5 0.002877 -0.004431 -0.000070 0.000000 0.038648 0.000000
# 6 0.000000 0.000000 0.000000 0.011691 0.000000 0.030154
#
#
# Mechanical properties :
#
#
# Convention : Reuss Voigt Hill
#
# Bulk Modulus (GPa) = 22.96999 37.52727 30.24863
# Shear Modulus (GPa) = 27.13421 32.80348 29.96884
#
# Velocity S-wave (km/s) = 3.43792 3.78005 3.61304
# Velocity P-wave (km/s) = 5.07588 5.94963 5.53004
#
# Compressibility (1/GPa) = 0.04353506
#
# Stress axis : x y z
#
# Youngs Moduli (GPa) = 105.27768 76.07225 36.64173
#
# Poissons Ratio (x) = 0.35071 0.08236
# Poissons Ratio (y) = 0.48535 -0.13402
# Poissons Ratio (z) = 0.23663 -0.27825
#
# Static dielectric constant tensor:
#      x y z
#    x 1.898200 0.000000 -0.006280 
#    y 0.000000 2.013080 0.000000 
#    z -0.006280 0.000000 1.976580 
# 
# From -- ./inp_files/209244.got.cif
#   From: 2010.05.17/outbox.cif.g08.bks.cpg/sg15_105_cif.got.tgz:209244.got - 2010.06.03 18:47:42.
