data_PCOD9277690
_publ_section_title
;
Structure prediction by ZEFSAII (Michael W. Deem and Ramdas Pophale) SiO2 
 PCOD9277690
Probable space group: C 2/C
;
_chemical_formula_sum "Si O2"
_cell_formula_units_Z 40
_cell_length_a 16.746887
_cell_length_b 9.214218
_cell_length_c 25.960425
_cell_angle_alpha 90.000000
_cell_angle_beta 25.674604
_cell_angle_gamma 90.000000
_cell_volume 1735.611866
_symmetry_space_group_name_H-M "C 2/C"
_symmetry_group_IT_number 15
_symmetry_cell_setting 'monoclinic'
loop_
_space_group_symop_operation_xyz
x,y,z
-x,y,1/2-z
-x,-y,-z
x,-y,1/2+z
1/2+x,1/2+y,z
1/2-x,1/2+y,1/2-z
1/2-x,1/2-y,-z
1/2+x,1/2-y,1/2+z
loop_
_atom_site_type_symbol
_atom_site_label
_atom_site_fract_x
_atom_site_fract_y
_atom_site_fract_z
Si Si1 0.612254 0.190298 0.633197
Si Si2 0.793920 0.101219 0.031113
Si Si3 0.379076 0.360398 0.589543
Si Si4 0.966940 0.663827 0.141498
Si Si5 0.571372 0.123218 0.542324
O O1 0.500000 0.158804 0.750000
O O2 0.513522 0.170638 0.635278
O O3 0.709892 0.345297 0.582040
O O4 0.779042 0.072380 0.537537
O O5 0.759859 0.163588 0.107503
O O6 0.624331 0.143342 0.093353
O O7 0.989248 0.172660 0.901902
O O8 0.500000 0.500000 0.500000
O O9 0.230741 0.376548 0.721233
O O10 0.493856 0.222016 0.541822
O O11 0.017314 0.543772 0.069597
#
# Coordination Sequence:
#
# PCOD9277690 Si02
#       5
#     8   8   8   8   8
#     4  10  20  41  67  93 132 176 217 260 333 404
#     4  10  21  42  67  90 128 179 219 261 334 401
#     4  12  24  38  68  98 130 176 216 269 344 393
#     4  10  24  43  64  94 135 170 222 275 322 400
#     4  10  23  37  62 100 126 171 220 274 319 394
#
# _framework density 23.046627000000001
#
# number of rings (size 3 to 8) (size 9 to 14) (size 15 to 20)
#    0.000    1.600    2.000    3.000    2.800    0.800 
#    0.000    9.000    0.000    0.000    0.000    0.000 
#    0.000    0.000    0.000    0.000    0.000    0.000 
#
# Total GULP energy -111409.081720 kJ/mol
# GULP energy per Si atom -5570.454086 kJ/mol
# Density = 2.299417 g / cm^3
# Si number density = 23.046627 Si / 1000 Ang^3
#
#
#
# Elastic Constant Matrix: (Units=GPa)
#
#
# Indices 1 2 3 4 5 6 
#
# 1 85.4031 26.8122 -8.4903 -0.0004 12.9726 0.0000
# 2 26.8122 80.5816 63.8251 0.0011 6.1459 -0.0001
# 3 -8.4903 63.8251 101.1769 0.0016 4.9398 0.0008
# 4 -0.0004 0.0011 0.0016 20.9746 0.0004 1.7938
# 5 12.9726 6.1459 4.9398 0.0004 24.5984 -0.0001
# 6 0.0000 -0.0001 0.0008 1.7938 -0.0001 38.1203
#
#
#
# Elastic Compliance Matrix: (Units=1/GPa)
#
#
# Indices 1 2 3 4 5 6 
#
# 1 0.018505 -0.014132 0.010879 0.000001 -0.008413 0.000000
# 2 -0.014132 0.035829 -0.023949 -0.000001 0.003311 0.000001
# 3 0.010879 -0.023949 0.026149 0.000000 -0.005004 -0.000001
# 4 0.000001 -0.000001 0.000000 0.047869 -0.000001 -0.002253
# 5 -0.008413 0.003311 -0.005004 -0.000001 0.045268 0.000000
# 6 0.000000 0.000001 -0.000001 -0.002253 0.000000 0.026339
#
#
# Mechanical properties :
#
#
# Convention : Reuss Voigt Hill
#
# Bulk Modulus (GPa) = 38.34780 47.93950 43.14365
# Shear Modulus (GPa) = 19.00737 29.07299 24.04018
#
# Velocity S-wave (km/s) = 2.87494 3.55559 3.23323
# Velocity P-wave (km/s) = 5.26267 6.14024 5.71832
#
# Compressibility (1/GPa) = 0.02607711
#
# Stress axis : x y z
#
# Youngs Moduli (GPa) = 54.03853 27.91071 38.24293
#
# Poissons Ratio (x) = 0.39444 -0.41603
# Poissons Ratio (y) = 0.76368 0.91588
# Poissons Ratio (z) = -0.58786 0.66844
#
# Static dielectric constant tensor:
#      x y z
#    x 1.958090 0.000000 -0.005500 
#    y 0.000000 1.951370 0.000000 
#    z -0.005500 0.000000 1.902840 
# 
# From -- ./inp_files/298291.got.cif
#   From: 2010.05.17/outbox.cif.g08.bks.cpg/sg15_150_cif.got.tgz:298291.got - 2010.06.03 18:47:42.
