data_PCOD9277679
_publ_section_title
;
Structure prediction by ZEFSAII (Michael W. Deem and Ramdas Pophale) SiO2 
 PCOD9277679
Probable space group: C 2/C
;
_chemical_formula_sum "Si O2"
_cell_formula_units_Z 36
_cell_length_a 11.567391
_cell_length_b 8.446282
_cell_length_c 15.334203
_cell_angle_alpha 90.000000
_cell_angle_beta 112.893673
_cell_angle_gamma 90.000000
_cell_volume 1380.160219
_symmetry_space_group_name_H-M "C 2/C"
_symmetry_group_IT_number 15
_symmetry_cell_setting 'monoclinic'
loop_
_space_group_symop_operation_xyz
x,y,z
-x,y,1/2-z
-x,-y,-z
x,-y,1/2+z
1/2+x,1/2+y,z
1/2-x,1/2+y,1/2-z
1/2-x,1/2-y,-z
1/2+x,1/2-y,1/2+z
loop_
_atom_site_type_symbol
_atom_site_label
_atom_site_fract_x
_atom_site_fract_y
_atom_site_fract_z
Si Si1 0.739459 0.380117 0.071499
Si Si2 0.500000 0.618251 0.250000
Si Si3 0.836205 0.198353 0.445971
Si Si4 0.509765 0.901523 0.116388
Si Si5 0.238531 0.368469 0.723658
O O1 0.635552 0.513501 0.027745
O O2 0.726001 0.285767 0.157854
O O3 0.873203 0.467407 0.097505
O O4 0.750000 0.250000 0.000000
O O5 0.500845 0.739707 0.169946
O O6 0.636514 0.541251 0.278699
O O7 0.750000 0.250000 0.500000
O O8 0.947543 0.326623 0.463702
O O9 0.765741 0.183576 0.330863
O O10 0.617540 0.021309 0.178085
#
# Coordination Sequence:
#
# PCOD9277679 Si02
#       5
#     8   4   8   8   8
#     4  11  25  43  66  96 131 172 218 273 332 390
#     4   8  18  36  62  92 124 160 208 266 322 378
#     4  11  23  39  64  97 129 169 218 266 326 394
#     4  10  21  42  66  91 129 170 217 271 325 390
#     4  10  20  41  67  92 129 172 216 273 330 388
#
# _framework density 26.083929000000001
#
# number of rings (size 3 to 8) (size 9 to 14) (size 15 to 20)
#    0.000    1.778    0.000    5.333    0.000    4.444 
#    0.000   13.333    0.000    1.333    0.000    0.000 
#    0.000    0.000    0.000    0.000    0.000    0.000 
#
# Total GULP energy -100561.985124 kJ/mol
# GULP energy per Si atom -5586.776951 kJ/mol
# Density = 2.602456 g / cm^3
# Si number density = 26.083929 Si / 1000 Ang^3
#
#
#
# Elastic Constant Matrix: (Units=GPa)
#
#
# Indices 1 2 3 4 5 6 
#
# 1 216.5462 61.3324 53.4317 0.0000 -3.4506 0.0000
# 2 61.3324 118.2434 34.4774 0.0000 -3.7084 0.0000
# 3 53.4317 34.4774 101.3289 0.0000 -39.4854 0.0000
# 4 0.0000 0.0000 0.0000 46.5901 0.0000 -2.2557
# 5 -3.4506 -3.7084 -39.4854 0.0000 53.2032 0.0000
# 6 0.0000 0.0000 0.0000 -2.2557 0.0000 55.2070
#
#
#
# Elastic Compliance Matrix: (Units=1/GPa)
#
#
# Indices 1 2 3 4 5 6 
#
# 1 0.006024 -0.002240 -0.003268 0.000000 -0.002191 0.000000
# 2 -0.002240 0.010448 -0.003020 0.000000 -0.001658 0.000000
# 3 -0.003268 -0.003020 0.017522 0.000000 0.012582 0.000000
# 4 0.000000 0.000000 0.000000 0.021506 0.000000 0.000879
# 5 -0.002191 -0.001658 0.012582 0.000000 0.027876 0.000000
# 6 0.000000 0.000000 0.000000 0.000879 0.000000 0.018150
#
#
# Mechanical properties :
#
#
# Convention : Reuss Voigt Hill
#
# Bulk Modulus (GPa) = 59.03794 81.62240 70.33017
# Shear Modulus (GPa) = 40.24868 50.12519 45.18694
#
# Velocity S-wave (km/s) = 3.93242 4.38846 4.16669
# Velocity P-wave (km/s) = 6.58039 7.55237 7.08307
#
# Compressibility (1/GPa) = 0.01693826
#
# Stress axis : x y z
#
# Youngs Moduli (GPa) = 166.00457 95.71497 57.07007
#
# Poissons Ratio (x) = 0.21445 0.18650
# Poissons Ratio (y) = 0.37193 0.17233
# Poissons Ratio (z) = 0.54247 0.28902
#
# Static dielectric constant tensor:
#      x y z
#    x 2.140670 0.000000 0.043040 
#    y 0.000000 2.120680 0.000000 
#    z 0.043040 0.000000 2.137080 
# 
# From -- ./inp_files/194944.got.cif
#   From: 2010.05.17/outbox.cif.g08.bks.cpg/sg15_98_cif.got.tgz:194944.got - 2010.06.03 18:47:42.
