data_PCOD9277438
_publ_section_title
;
Structure prediction by ZEFSAII (Michael W. Deem and Ramdas Pophale) SiO2 
 PCOD9277438
Probable space group: C 2/C
;
_chemical_formula_sum "Si O2"
_cell_formula_units_Z 44
_cell_length_a 13.402844
_cell_length_b 9.387920
_cell_length_c 16.799880
_cell_angle_alpha 90.000000
_cell_angle_beta 68.516074
_cell_angle_gamma 90.000000
_cell_volume 1966.972999
_symmetry_space_group_name_H-M "C 2/C"
_symmetry_group_IT_number 15
_symmetry_cell_setting 'monoclinic'
loop_
_space_group_symop_operation_xyz
x,y,z
-x,y,1/2-z
-x,-y,-z
x,-y,1/2+z
1/2+x,1/2+y,z
1/2-x,1/2+y,1/2-z
1/2-x,1/2-y,-z
1/2+x,1/2-y,1/2+z
loop_
_atom_site_type_symbol
_atom_site_label
_atom_site_fract_x
_atom_site_fract_y
_atom_site_fract_z
Si Si1 0.090561 0.785661 0.667286
Si Si2 0.131420 0.615017 0.917216
Si Si3 0.172485 0.051623 0.745790
Si Si4 0.500000 0.208555 0.250000
Si Si5 0.905753 0.508096 0.909637
Si Si6 0.067385 0.919527 0.915878
O O1 0.147649 0.649824 0.612283
O O2 0.000000 0.716200 0.750000
O O3 0.021499 0.869324 0.622106
O O4 0.148272 0.907242 0.701684
O O5 0.214189 0.598251 0.821101
O O6 0.119554 0.780996 0.938095
O O7 0.018880 0.558165 0.915790
O O8 0.159418 0.543736 0.993579
O O9 0.089605 0.181419 0.756737
O O10 0.156296 0.006720 0.841479
O O11 0.559201 0.110579 0.165790
O O12 0.000000 0.000000 0.000000
#
# Coordination Sequence:
#
# PCOD9277438 Si02
#       6
#     8   8   8   4   8   8
#     4   9  18  40  62  84 124 164 200 244 324 370
#     4  10  24  40  63  95 124 159 219 255 314 379
#     4  11  23  40  63  95 124 165 210 261 310 383
#     4  12  22  38  66  90 122 166 210 256 314 366
#     4  10  22  42  63  87 124 167 204 264 312 373
#     4  10  20  41  63  87 128 170 199 255 320 373
#
# _framework density 22.369396999999999
#
# number of rings (size 3 to 8) (size 9 to 14) (size 15 to 20)
#    0.000    1.818    3.636    1.091    2.545    1.455 
#    0.000    0.000    0.000    0.000    0.000    0.000 
#    0.000    0.000    0.000    0.000    0.000    0.000 
#
# Total GULP energy -122833.712037 kJ/mol
# GULP energy per Si atom -5583.350547 kJ/mol
# Density = 2.231848 g / cm^3
# Si number density = 22.369397 Si / 1000 Ang^3
#
#
#
# Elastic Constant Matrix: (Units=GPa)
#
#
# Indices 1 2 3 4 5 6 
#
# 1 16.5816 5.2368 0.1648 0.0000 -3.1609 0.0000
# 2 5.2368 120.8607 54.7013 0.0000 3.4726 0.0000
# 3 0.1648 54.7013 142.1870 0.0000 1.1518 0.0000
# 4 0.0000 0.0000 0.0000 28.0896 0.0000 4.4358
# 5 -3.1609 3.4726 1.1518 0.0000 29.4027 0.0000
# 6 0.0000 0.0000 0.0000 4.4358 0.0000 5.1493
#
#
#
# Elastic Compliance Matrix: (Units=1/GPa)
#
#
# Indices 1 2 3 4 5 6 
#
# 1 0.062746 -0.003468 0.001204 0.000000 0.007108 0.000000
# 2 -0.003468 0.010241 -0.003924 0.000000 -0.001429 0.000000
# 3 0.001204 -0.003924 0.008539 0.000000 0.000258 0.000000
# 4 0.000000 0.000000 0.000000 0.041206 0.000000 -0.035497
# 5 0.007108 -0.001429 0.000258 0.000000 0.034933 0.000000
# 6 0.000000 0.000000 0.000000 -0.035497 0.000000 0.224782
#
#
# Mechanical properties :
#
#
# Convention : Reuss Voigt Hill
#
# Bulk Modulus (GPa) = 14.46132 44.42610 29.44371
# Shear Modulus (GPa) = 11.96531 27.16341 19.56436
#
# Velocity S-wave (km/s) = 2.31529 3.48848 2.96058
# Velocity P-wave (km/s) = 3.69138 6.01076 4.98776
#
# Compressibility (1/GPa) = 0.06914998
#
# Stress axis : x y z
#
# Youngs Moduli (GPa) = 15.93726 97.64206 117.10577
#
# Poissons Ratio (x) = 0.33860 -0.14097
# Poissons Ratio (y) = 0.05527 0.45958
# Poissons Ratio (z) = -0.01919 0.38319
#
# Static dielectric constant tensor:
#      x y z
#    x 1.840610 0.000000 0.021860 
#    y 0.000000 1.839270 0.000000 
#    z 0.021860 0.000000 1.817380 
# 
# From -- ./inp_files/159644.got.cif
#   From: 2010.05.17/outbox.cif.g08.bks.cpg/sg15_80_cif.got.tgz:159644.got - 2010.06.03 18:47:42.
