data_PCOD9277588
_publ_section_title
;
Structure prediction by ZEFSAII (Michael W. Deem and Ramdas Pophale) SiO2 
 PCOD9277588
Probable space group: C 2/C
;
_chemical_formula_sum "Si O2"
_cell_formula_units_Z 56
_cell_length_a 8.247680
_cell_length_b 17.104865
_cell_length_c 21.946879
_cell_angle_alpha 90.000000
_cell_angle_beta 55.124169
_cell_angle_gamma 90.000000
_cell_volume 2540.073294
_symmetry_space_group_name_H-M "C 2/C"
_symmetry_group_IT_number 15
_symmetry_cell_setting 'monoclinic'
loop_
_space_group_symop_operation_xyz
x,y,z
-x,y,1/2-z
-x,-y,-z
x,-y,1/2+z
1/2+x,1/2+y,z
1/2-x,1/2+y,1/2-z
1/2-x,1/2-y,-z
1/2+x,1/2-y,1/2+z
loop_
_atom_site_type_symbol
_atom_site_label
_atom_site_fract_x
_atom_site_fract_y
_atom_site_fract_z
Si Si1 0.437065 0.040528 0.588547
Si Si2 0.930148 0.928715 0.697683
Si Si3 0.021148 0.235945 0.562816
Si Si4 0.657073 0.788410 0.769069
Si Si5 0.506295 0.582050 0.627930
Si Si6 0.330693 0.118888 0.059947
Si Si7 0.855118 0.636695 0.724615
O O1 0.235198 0.069734 0.597129
O O2 0.624386 0.077032 0.513720
O O3 0.419853 0.078889 0.657834
O O4 0.436185 0.946412 0.581903
O O5 0.742473 0.875535 0.748647
O O6 0.000000 0.959105 0.750000
O O7 0.110593 0.878812 0.632194
O O8 0.910798 0.996232 0.651149
O O9 0.250000 0.250000 0.500000
O O10 0.986875 0.142646 0.576414
O O11 0.944455 0.269946 0.644250
O O12 0.910868 0.293362 0.540333
O O13 0.500000 0.778055 0.750000
O O14 0.840263 0.729375 0.716692
O O15 0.373202 0.620204 0.709442
O O16 0.000000 0.624063 0.750000
#
# Coordination Sequence:
#
# PCOD9277588 Si02
#       7
#     8   8   8   8   8   8   8
#     4  10  20  41  65  98 128 177 223 261 335 408
#     4  11  21  41  65  93 131 173 223 272 334 396
#     4  11  21  39  65  98 128 172 219 277 330 390
#     4  11  25  42  65  94 129 171 225 274 338 403
#     4  10  21  37  65  92 127 174 222 262 331 398
#     4  10  21  37  70  94 130 173 221 270 328 407
#     4  11  23  39  64  96 131 168 218 281 329 392
#
# _framework density 22.046607000000002
#
# number of rings (size 3 to 8) (size 9 to 14) (size 15 to 20)
#    0.000    1.429    2.857    4.286    2.000    1.143 
#    0.000    3.571    0.000    3.429    0.000    0.000 
#    0.000    0.000    0.000    0.000    0.000    0.000 
#
# Total GULP energy -156092.983502 kJ/mol
# GULP energy per Si atom -5574.749411 kJ/mol
# Density = 2.199643 g / cm^3
# Si number density = 22.046607 Si / 1000 Ang^3
#
#
#
# Elastic Constant Matrix: (Units=GPa)
#
#
# Indices 1 2 3 4 5 6 
#
# 1 35.8751 23.2505 7.7631 0.0001 3.4682 -0.0002
# 2 23.2505 115.4714 13.5192 0.0001 -2.4602 -0.0001
# 3 7.7631 13.5192 87.0214 0.0000 -18.0406 -0.0001
# 4 0.0001 0.0001 0.0000 38.5870 0.0000 -3.3030
# 5 3.4682 -2.4602 -18.0406 0.0000 22.5598 0.0001
# 6 -0.0002 -0.0001 -0.0001 -3.3030 0.0001 22.5850
#
#
#
# Elastic Compliance Matrix: (Units=1/GPa)
#
#
# Indices 1 2 3 4 5 6 
#
# 1 0.033827 -0.006550 -0.003867 0.000000 -0.009007 0.000000
# 2 -0.006550 0.010089 -0.000655 0.000000 0.001584 0.000000
# 3 -0.003867 -0.000655 0.014441 0.000000 0.012071 0.000000
# 4 0.000000 0.000000 0.000000 0.026244 0.000000 0.003838
# 5 -0.009007 0.001584 0.012071 0.000000 0.055537 0.000000
# 6 0.000000 0.000000 0.000000 0.003838 0.000000 0.044839
#
#
# Mechanical properties :
#
#
# Convention : Reuss Voigt Hill
#
# Bulk Modulus (GPa) = 27.61489 36.38151 31.99820
# Shear Modulus (GPa) = 22.81095 29.66869 26.23982
#
# Velocity S-wave (km/s) = 3.22012 3.67239 3.45367
# Velocity P-wave (km/s) = 5.13599 5.87536 5.51807
#
# Compressibility (1/GPa) = 0.03621235
#
# Stress axis : x y z
#
# Youngs Moduli (GPa) = 29.56183 99.11302 69.24909
#
# Poissons Ratio (x) = 0.64923 0.26782
# Poissons Ratio (y) = 0.19364 0.04534
# Poissons Ratio (z) = 0.11433 0.06490
#
# Static dielectric constant tensor:
#      x y z
#    x 1.837360 0.000000 -0.001530 
#    y 0.000000 1.957310 0.000000 
#    z -0.001530 0.000000 1.807430 
# 
# From -- ./inp_files/265484.got.cif
#   From: 2010.05.17/outbox.cif.g08.bks.cpg/sg15_133_cif.got.tgz:265484.got - 2010.06.03 18:47:42.
