data_PCOD9277735
_publ_section_title
;
Structure prediction by ZEFSAII (Michael W. Deem and Ramdas Pophale) SiO2 
 PCOD9277735
Probable space group: C 2/C
;
_chemical_formula_sum "Si O2"
_cell_formula_units_Z 60
_cell_length_a 23.875551
_cell_length_b 17.912619
_cell_length_c 13.882604
_cell_angle_alpha 90.000000
_cell_angle_beta 151.535521
_cell_angle_gamma 90.000000
_cell_volume 2829.763075
_symmetry_space_group_name_H-M "C 2/C"
_symmetry_group_IT_number 15
_symmetry_cell_setting 'monoclinic'
loop_
_space_group_symop_operation_xyz
x,y,z
-x,y,1/2-z
-x,-y,-z
x,-y,1/2+z
1/2+x,1/2+y,z
1/2-x,1/2+y,1/2-z
1/2-x,1/2-y,-z
1/2+x,1/2-y,1/2+z
loop_
_atom_site_type_symbol
_atom_site_label
_atom_site_fract_x
_atom_site_fract_y
_atom_site_fract_z
Si Si1 0.000000 0.500000 0.000000
Si Si2 0.364331 0.611731 0.923134
Si Si3 0.814675 0.971518 0.731140
Si Si4 0.522301 0.338445 0.512059
Si Si5 0.124516 0.842488 0.388007
Si Si6 0.221273 0.991709 0.044062
Si Si7 0.590334 0.888805 0.474416
Si Si8 0.729310 0.258843 0.719324
O O1 0.857550 0.517009 0.776221
O O2 0.028972 0.572210 0.972092
O O3 0.334987 0.556148 0.791062
O O4 0.360388 0.555597 0.006970
O O5 0.265373 0.673912 0.786786
O O6 0.479172 0.655107 0.056967
O O7 0.921181 0.919363 0.927468
O O8 0.803058 0.963678 0.600039
O O9 0.695520 0.943470 0.599423
O O10 0.411940 0.321073 0.275573
O O11 0.627612 0.283051 0.641275
O O12 0.182704 0.778739 0.541711
O O13 0.000000 0.857471 0.250000
O O14 0.194788 0.919568 0.503026
O O15 0.500000 0.881073 0.250000
O O16 0.657237 0.811476 0.595320
#
# Coordination Sequence:
#
# PCOD9277735 Si02
#       8
#     4   8   8   8   8   8   8   8
#     4  12  22  40  68 100 128 180 238 278 336 400
#     4  12  24  42  68 104 135 178 232 277 346 415
#     4  11  23  43  67 102 132 172 238 289 336 403
#     4  10  23  44  68  96 139 176 219 296 337 399
#     4  10  20  41  68  92 131 178 217 283 347 395
#     4  12  24  39  69 100 132 180 235 283 338 404
#     4  11  22  43  65  91 136 183 221 284 335 403
#     4  10  24  44  61  97 143 175 225 273 357 419
#
# _framework density 21.203188999999998
#
# number of rings (size 3 to 8) (size 9 to 14) (size 15 to 20)
#    0.000    1.067    5.333    2.000    1.867    1.600 
#    2.400    6.000    0.000    0.000    0.000    0.000 
#    0.000    0.000    0.000    0.000    0.000    0.000 
#
# Total GULP energy -167035.016881 kJ/mol
# GULP energy per Si atom -5567.833896 kJ/mol
# Density = 2.115493 g / cm^3
# Si number density = 21.203189 Si / 1000 Ang^3
#
#
#
# Elastic Constant Matrix: (Units=GPa)
#
#
# Indices 1 2 3 4 5 6 
#
# 1 87.3111 16.1839 21.6808 0.0000 6.4525 0.0000
# 2 16.1839 69.7422 21.4543 0.0000 8.4845 0.0000
# 3 21.6808 21.4543 89.4643 0.0000 4.7237 0.0000
# 4 0.0000 0.0000 0.0000 12.9247 0.0000 12.5810
# 5 6.4525 8.4845 4.7237 0.0000 31.5316 0.0000
# 6 0.0000 0.0000 0.0000 12.5810 0.0000 -2.6581
#
#
#
# Elastic Compliance Matrix: (Units=1/GPa)
#
#
# Indices 1 2 3 4 5 6 
#
# 1 0.012555 -0.001945 -0.002488 0.000000 -0.001673 0.000000
# 2 -0.001945 0.016207 -0.003232 0.000000 -0.003479 0.000000
# 3 -0.002488 -0.003232 0.012582 0.000000 -0.000506 0.000000
# 4 0.000000 0.000000 0.000000 0.013799 0.000000 0.065309
# 5 -0.001673 -0.003479 -0.000506 0.000000 0.033069 0.000000
# 6 0.000000 0.000000 0.000000 0.065309 0.000000 -0.067094
#
#
# Mechanical properties :
#
#
# Convention : Reuss Voigt Hill
#
# Bulk Modulus (GPa) = 38.43753 40.57283 39.50518
# Shear Modulus (GPa) = 110.81959 20.83956 65.82957
#
# Velocity S-wave (km/s) = 7.23733 3.13845 5.57803
# Velocity P-wave (km/s) = 9.38116 5.68418 7.75616
#
# Compressibility (1/GPa) = 0.02601624
#
# Stress axis : x y z
#
# Youngs Moduli (GPa) = 79.64829 61.70126 79.47684
#
# Poissons Ratio (x) = 0.11998 0.19773
# Poissons Ratio (y) = 0.15488 0.25684
# Poissons Ratio (z) = 0.19816 0.19940
#
# Static dielectric constant tensor:
#      x y z
#    x 1.828760 0.000000 -0.029820 
#    y 0.000000 1.752000 0.000000 
#    z -0.029820 0.000000 1.785340 
# 
# From -- ./inp_files/174114.got.cif
#   From: 2010.05.17/outbox.cif.g08.bks.cpg/sg15_88_cif.got.tgz:174114.got - 2010.06.03 18:47:42.
