data_PCOD9277425
_publ_section_title
;
Structure prediction by ZEFSAII (Michael W. Deem and Ramdas Pophale) SiO2 
 PCOD9277425
Probable space group: C 2/C
;
_chemical_formula_sum "Si O2"
_cell_formula_units_Z 64
_cell_length_a 8.517250
_cell_length_b 17.896911
_cell_length_c 27.272676
_cell_angle_alpha 90.000000
_cell_angle_beta 43.327441
_cell_angle_gamma 90.000000
_cell_volume 2852.561043
_symmetry_space_group_name_H-M "C 2/C"
_symmetry_group_IT_number 15
_symmetry_cell_setting 'monoclinic'
loop_
_space_group_symop_operation_xyz
x,y,z
-x,y,1/2-z
-x,-y,-z
x,-y,1/2+z
1/2+x,1/2+y,z
1/2-x,1/2+y,1/2-z
1/2-x,1/2-y,-z
1/2+x,1/2-y,1/2+z
loop_
_atom_site_type_symbol
_atom_site_label
_atom_site_fract_x
_atom_site_fract_y
_atom_site_fract_z
Si Si1 0.929538 0.221760 0.354669
Si Si2 0.898649 0.787609 0.573464
Si Si3 0.930516 0.400144 0.343106
Si Si4 0.913363 0.736986 0.213506
Si Si5 0.866915 0.933054 0.005527
Si Si6 0.362793 0.595958 0.686511
Si Si7 0.749489 0.529857 0.550688
Si Si8 0.916036 0.685592 0.483462
O O1 0.925377 0.310268 0.344923
O O2 0.675566 0.188673 0.403241
O O3 0.989620 0.214376 0.398447
O O4 0.164199 0.197997 0.272999
O O5 0.628423 0.804191 0.640278
O O6 0.937165 0.710338 0.535909
O O7 0.017982 0.853012 0.516277
O O8 0.867371 0.428308 0.411067
O O9 0.745174 0.418969 0.342935
O O10 0.174342 0.427978 0.268619
O O11 0.893886 0.815845 0.189517
O O12 0.000000 0.752259 0.250000
O O13 0.863403 0.959597 0.950697
O O14 0.000000 0.000000 0.000000
O O15 0.602520 0.554045 0.630753
O O16 0.788533 0.606260 0.510654
O O17 0.000000 0.500000 0.500000
O O18 0.750000 0.750000 0.500000
#
# Coordination Sequence:
#
# PCOD9277425 Si02
#       8
#     8   8   8   8   8   8   8   8
#     4  10  21  38  64  99 126 162 218 279 325 385
#     4  11  22  39  66  91 129 167 220 271 327 387
#     4  10  21  38  69  93 123 172 226 267 320 395
#     4   9  20  37  64  98 131 165 217 278 335 384
#     4  12  24  43  62  94 129 174 223 265 321 399
#     4  10  20  41  62  96 128 170 221 269 321 400
#     4  12  26  39  63  98 138 169 212 276 336 383
#     4  12  23  40  65  95 127 169 221 267 327 383
#
# _framework density 22.435980000000001
#
# number of rings (size 3 to 8) (size 9 to 14) (size 15 to 20)
#    0.000    1.250    3.750    2.625    1.750    1.000 
#    0.000    5.000    0.000    1.500    0.000    0.000 
#    0.000    0.000    0.000    0.000    0.000    0.000 
#
# Total GULP energy -178645.029911 kJ/mol
# GULP energy per Si atom -5582.657185 kJ/mol
# Density = 2.238491 g / cm^3
# Si number density = 22.435980 Si / 1000 Ang^3
#
#
#
# Elastic Constant Matrix: (Units=GPa)
#
#
# Indices 1 2 3 4 5 6 
#
# 1 42.3945 4.6320 25.7335 -0.0011 -16.0242 -0.0002
# 2 4.6320 44.1851 25.4032 -0.0007 0.3889 0.0001
# 3 25.7335 25.4032 180.2890 -0.0002 -32.2509 -0.0031
# 4 -0.0011 -0.0007 -0.0002 35.2782 -0.0008 -3.1557
# 5 -16.0242 0.3889 -32.2509 -0.0008 34.4152 -0.0003
# 6 -0.0002 0.0001 -0.0031 -3.1557 -0.0003 23.8414
#
#
#
# Elastic Compliance Matrix: (Units=1/GPa)
#
#
# Indices 1 2 3 4 5 6 
#
# 1 0.029459 -0.002203 -0.001726 0.000001 0.012124 0.000000
# 2 -0.002203 0.025318 -0.004190 0.000000 -0.005238 -0.000001
# 3 -0.001726 -0.004190 0.007506 0.000000 0.006278 0.000001
# 4 0.000001 0.000000 0.000000 0.028686 0.000001 0.003797
# 5 0.012124 -0.005238 0.006278 0.000001 0.040645 0.000002
# 6 0.000000 -0.000001 0.000001 0.003797 0.000002 0.042446
#
#
# Mechanical properties :
#
#
# Convention : Reuss Voigt Hill
#
# Bulk Modulus (GPa) = 21.71726 42.04511 31.88118
# Shear Modulus (GPa) = 24.31366 32.78029 28.54698
#
# Velocity S-wave (km/s) = 3.29552 3.82653 3.57091
# Velocity P-wave (km/s) = 4.91744 6.18901 5.58950
#
# Compressibility (1/GPa) = 0.04604633
#
# Stress axis : x y z
#
# Youngs Moduli (GPa) = 33.94576 39.49757 133.21948
#
# Poissons Ratio (x) = 0.08701 0.22988
# Poissons Ratio (y) = 0.07478 0.55819
# Poissons Ratio (z) = 0.05858 0.16549
#
# Static dielectric constant tensor:
#      x y z
#    x 1.808630 0.000000 -0.108900 
#    y 0.000000 2.074350 -0.000090 
#    z -0.108900 -0.000090 1.800410 
# 
# From -- ./inp_files/308759.got.cif
#   From: 2010.05.17/outbox.cif.g08.bks.cpg/sg15_155_cif.got.tgz:308759.got - 2010.06.03 18:47:42.
