data_PCOD9277269
_publ_section_title
;
Structure prediction by ZEFSAII (Michael W. Deem and Ramdas Pophale) SiO2 
 PCOD9277269
Probable space group: C 2/C
;
_chemical_formula_sum "Si O2"
_cell_formula_units_Z 40
_cell_length_a 11.001811
_cell_length_b 16.876223
_cell_length_c 10.451350
_cell_angle_alpha 90.000000
_cell_angle_beta 48.139845
_cell_angle_gamma 90.000000
_cell_volume 1445.231373
_symmetry_space_group_name_H-M "C 2/C"
_symmetry_group_IT_number 15
_symmetry_cell_setting 'monoclinic'
loop_
_space_group_symop_operation_xyz
x,y,z
-x,y,1/2-z
-x,-y,-z
x,-y,1/2+z
1/2+x,1/2+y,z
1/2-x,1/2+y,1/2-z
1/2-x,1/2-y,-z
1/2+x,1/2-y,1/2+z
loop_
_atom_site_type_symbol
_atom_site_label
_atom_site_fract_x
_atom_site_fract_y
_atom_site_fract_z
Si Si1 0.932222 0.557745 0.156461
Si Si2 0.553488 0.198606 0.908960
Si Si3 0.000000 0.947799 0.750000
Si Si4 0.901611 0.907656 0.490991
Si Si5 0.817578 0.834268 0.031555
Si Si6 0.250000 0.250000 0.500000
O O1 0.741449 0.564386 0.313589
O O2 0.000000 0.538939 0.250000
O O3 0.000000 0.500000 0.000000
O O4 0.991360 0.643681 0.067890
O O5 0.397090 0.246292 0.964270
O O6 0.693778 0.246664 0.887794
O O7 0.650011 0.157724 0.725946
O O8 0.850345 0.886026 0.881686
O O9 0.034571 0.012828 0.617960
O O10 0.048530 0.868805 0.463657
O O11 0.825905 0.842645 0.444630
#
# Coordination Sequence:
#
# PCOD9277269 Si02
#       6
#     8   8   4   8   8   4
#     4  12  27  46  72 108 146 189 242 307 374 442
#     4  11  23  46  69 105 135 186 246 304 360 438
#     4  12  26  44  68 104 148 194 234 302 378 450
#     4  11  24  42  72 101 142 184 245 297 364 434
#     4  11  26  44  72 102 141 190 247 300 376 442
#     4  10  20  40  70  98 122 178 234 296 340 410
#
# _framework density 27.677230000000002
#
# number of rings (size 3 to 8) (size 9 to 14) (size 15 to 20)
#    0.000    0.800    2.000    5.400    2.800    4.000 
#    1.800    0.000    0.000    0.000    0.000    0.000 
#    0.000    0.000    0.000    0.000    0.000    0.000 
#
# Total GULP energy -111485.653665 kJ/mol
# GULP energy per Si atom -5574.282683 kJ/mol
# Density = 2.761424 g / cm^3
# Si number density = 27.677230 Si / 1000 Ang^3
#
#
#
# Elastic Constant Matrix: (Units=GPa)
#
#
# Indices 1 2 3 4 5 6 
#
# 1 126.7030 19.0038 63.2760 0.0000 5.4319 0.0000
# 2 19.0038 70.8885 30.7382 0.0000 10.1042 0.0000
# 3 63.2760 30.7382 230.0845 0.0000 -3.1161 0.0000
# 4 0.0000 0.0000 0.0000 69.7072 0.0000 7.3958
# 5 5.4319 10.1042 -3.1161 0.0000 50.4149 0.0000
# 6 0.0000 0.0000 0.0000 7.3958 0.0000 33.8651
#
#
#
# Elastic Compliance Matrix: (Units=1/GPa)
#
#
# Indices 1 2 3 4 5 6 
#
# 1 0.009329 -0.001334 -0.002399 0.000000 -0.000886 0.000000
# 2 -0.001334 0.015674 -0.001769 0.000000 -0.003107 0.000000
# 3 -0.002399 -0.001769 0.005255 0.000000 0.000938 0.000000
# 4 0.000000 0.000000 0.000000 0.014686 0.000000 -0.003207
# 5 -0.000886 -0.003107 0.000938 0.000000 0.020612 0.000000
# 6 0.000000 0.000000 0.000000 -0.003207 0.000000 0.030229
#
#
# Mechanical properties :
#
#
# Convention : Reuss Voigt Hill
#
# Bulk Modulus (GPa) = 51.94017 72.63464 62.28741
# Shear Modulus (GPa) = 44.16644 51.77465 47.97054
#
# Velocity S-wave (km/s) = 3.99904 4.32980 4.16770
# Velocity P-wave (km/s) = 6.33484 7.16217 6.76117
#
# Compressibility (1/GPa) = 0.01925292
#
# Stress axis : x y z
#
# Youngs Moduli (GPa) = 107.19508 63.79849 190.29072
#
# Poissons Ratio (x) = 0.08512 0.45656
# Poissons Ratio (y) = 0.14302 0.33666
# Poissons Ratio (z) = 0.25719 0.11287
#
# Static dielectric constant tensor:
#      x y z
#    x 2.257340 0.000000 0.023700 
#    y 0.000000 2.325330 0.000000 
#    z 0.023700 0.000000 2.109120 
# 
# From -- ./inp_files/98116.got.cif
#   From: 2010.05.17/outbox.cif.g08.bks.cpg/sg15_50_cif.got.tgz:98116.got - 2010.06.03 18:47:42.
