data_PCOD9277276
_publ_section_title
;
Structure prediction by ZEFSAII (Michael W. Deem and Ramdas Pophale) SiO2 
 PCOD9277276
Probable space group: C 2/C
;
_chemical_formula_sum "Si O2"
_cell_formula_units_Z 48
_cell_length_a 13.411594
_cell_length_b 7.033393
_cell_length_c 24.687785
_cell_angle_alpha 90.000000
_cell_angle_beta 49.324859
_cell_angle_gamma 90.000000
_cell_volume 1766.182504
_symmetry_space_group_name_H-M "C 2/C"
_symmetry_group_IT_number 15
_symmetry_cell_setting 'monoclinic'
loop_
_space_group_symop_operation_xyz
x,y,z
-x,y,1/2-z
-x,-y,-z
x,-y,1/2+z
1/2+x,1/2+y,z
1/2-x,1/2+y,1/2-z
1/2-x,1/2-y,-z
1/2+x,1/2-y,1/2+z
loop_
_atom_site_type_symbol
_atom_site_label
_atom_site_fract_x
_atom_site_fract_y
_atom_site_fract_z
Si Si1 0.263488 0.851230 0.553333
Si Si2 0.814513 0.905100 0.805345
Si Si3 0.093891 0.618140 0.300771
Si Si4 0.982346 0.042166 0.151555
Si Si5 0.670020 0.817481 0.656172
Si Si6 0.960927 0.803059 0.542472
O O1 0.250000 0.750000 0.500000
O O2 0.222049 0.780403 0.628991
O O3 0.421743 0.850058 0.504951
O O4 0.138776 0.991968 0.589497
O O5 0.682338 0.957400 0.818419
O O6 0.923015 0.839648 0.723420
O O7 0.867186 0.104919 0.810375
O O8 0.089584 0.841718 0.318622
O O9 0.162148 0.582303 0.218295
O O10 0.938635 0.586371 0.344229
O O11 0.947967 0.156613 0.110482
O O12 0.810091 0.778638 0.578623
O O13 0.000000 0.000000 0.500000
#
# Coordination Sequence:
#
# PCOD9277276 Si02
#       6
#     8   8   8   8   8   8
#     4  10  22  39  64  96 136 180 223 282 359 421
#     4  11  20  40  72  97 130 185 236 287 353 408
#     4  10  20  40  70  99 129 175 237 290 344 410
#     4  10  20  41  65  95 132 175 234 283 340 421
#     4  10  22  41  66 100 138 175 230 297 342 421
#     4  11  23  43  62  94 144 179 218 285 353 423
#
# _framework density 27.177257000000001
#
# number of rings (size 3 to 8) (size 9 to 14) (size 15 to 20)
#    0.000    1.667    3.333    1.500    0.000    0.667 
#    9.000    1.667    3.667    0.000    0.000    0.000 
#    0.000    0.000    0.000    0.000    0.000    0.000 
#
# Total GULP energy -133671.373662 kJ/mol
# GULP energy per Si atom -5569.640569 kJ/mol
# Density = 2.711540 g / cm^3
# Si number density = 27.177257 Si / 1000 Ang^3
#
#
#
# Elastic Constant Matrix: (Units=GPa)
#
#
# Indices 1 2 3 4 5 6 
#
# 1 186.0465 31.1326 66.4333 -0.0002 -31.4944 -0.0006
# 2 31.1326 52.4324 34.8153 -0.0004 -10.1519 -0.0009
# 3 66.4333 34.8153 184.3728 0.0000 -17.6940 -0.0001
# 4 -0.0002 -0.0004 0.0000 28.6287 0.0000 -18.7353
# 5 -31.4944 -10.1519 -17.6940 0.0000 89.1520 -0.0001
# 6 -0.0006 -0.0009 -0.0001 -18.7353 -0.0001 24.6216
#
#
#
# Elastic Compliance Matrix: (Units=1/GPa)
#
#
# Indices 1 2 3 4 5 6 
#
# 1 0.006721 -0.002466 -0.001789 0.000000 0.001738 0.000000
# 2 -0.002466 0.022966 -0.003345 0.000002 0.001080 0.000002
# 3 -0.001789 -0.003345 0.006731 0.000000 0.000323 0.000000
# 4 0.000000 0.000002 0.000000 0.069578 0.000000 0.052944
# 5 0.001738 0.001080 0.000323 0.000000 0.012018 0.000000
# 6 0.000000 0.000002 0.000000 0.052944 0.000000 0.080901
#
#
# Mechanical properties :
#
#
# Convention : Reuss Voigt Hill
#
# Bulk Modulus (GPa) = 47.12807 76.40156 61.76482
# Shear Modulus (GPa) = 22.60524 47.84515 35.22520
#
# Velocity S-wave (km/s) = 2.88717 4.20037 3.60408
# Velocity P-wave (km/s) = 5.33788 7.19009 6.33208
#
# Compressibility (1/GPa) = 0.02121878
#
# Stress axis : x y z
#
# Youngs Moduli (GPa) = 148.79194 43.54193 148.56597
#
# Poissons Ratio (x) = 0.10737 0.26581
# Poissons Ratio (y) = 0.36692 0.49689
# Poissons Ratio (z) = 0.26621 0.14563
#
# Static dielectric constant tensor:
#      x y z
#    x 2.235050 0.000000 -0.015200 
#    y 0.000000 2.313550 0.000000 
#    z -0.015200 0.000000 2.147020 
# 
# From -- ./inp_files/295373.got.cif
#   From: 2010.05.17/outbox.cif.g08.bks.cpg/sg15_148_cif.got.tgz:295373.got - 2010.06.03 18:47:42.
