data_PCOD9277080
_publ_section_title
;
Structure prediction by ZEFSAII (Michael W. Deem and Ramdas Pophale) SiO2 
 PCOD9277080
Probable space group: C 2/C
;
_chemical_formula_sum "Si O2"
_cell_formula_units_Z 52
_cell_length_a 30.331447
_cell_length_b 16.554687
_cell_length_c 15.044726
_cell_angle_alpha 90.000000
_cell_angle_beta 162.025856
_cell_angle_gamma 90.000000
_cell_volume 2331.186967
_symmetry_space_group_name_H-M "C 2/C"
_symmetry_group_IT_number 15
_symmetry_cell_setting 'monoclinic'
loop_
_space_group_symop_operation_xyz
x,y,z
-x,y,1/2-z
-x,-y,-z
x,-y,1/2+z
1/2+x,1/2+y,z
1/2-x,1/2+y,1/2-z
1/2-x,1/2-y,-z
1/2+x,1/2-y,1/2+z
loop_
_atom_site_type_symbol
_atom_site_label
_atom_site_fract_x
_atom_site_fract_y
_atom_site_fract_z
Si Si1 0.440364 0.504492 0.228352
Si Si2 0.089095 0.421862 0.700357
Si Si3 0.191969 0.954672 0.840248
Si Si4 0.000000 0.715731 0.750000
Si Si5 0.750419 0.351825 0.656678
Si Si6 0.781875 0.285153 0.964667
Si Si7 0.494848 0.780446 0.838603
O O1 0.500000 0.543912 0.250000
O O2 0.560606 0.461333 0.520262
O O3 0.356361 0.552252 0.147553
O O4 0.339931 0.432596 0.999271
O O5 0.151553 0.372926 0.738407
O O6 0.009537 0.356484 0.605802
O O7 0.000000 0.500000 0.500000
O O8 0.225057 0.461051 0.009973
O O9 0.291832 0.880915 0.002089
O O10 0.863433 0.668502 0.449854
O O11 0.920694 0.754017 0.683462
O O12 0.641676 0.279553 0.422691
O O13 0.638111 0.268950 0.633225
O O14 0.750000 0.250000 0.000000
O O15 0.500000 0.814188 0.750000
#
# Coordination Sequence:
#
# PCOD9277080 Si02
#       7
#     8   8   8   4   8   8   8
#     4  10  20  40  68 101 136 187 235 296 363 441
#     4  11  25  46  70 104 149 191 234 302 379 432
#     4  10  22  43  66 100 139 184 238 290 362 437
#     4  12  24  42  70 110 136 186 248 296 376 432
#     4  11  22  43  76 103 139 191 247 299 371 439
#     4  12  25  46  72 103 148 186 240 308 363 441
#     4  12  24  48  73 104 143 192 246 306 368 444
#
# _framework density 22.306232000000001
#
# number of rings (size 3 to 8) (size 9 to 14) (size 15 to 20)
#    0.000    0.923    3.077    4.615    0.000    0.000 
#   15.231    0.000    0.000    0.000    0.000    0.000 
#    0.000    0.000    0.000    0.000    0.000    0.000 
#
# Total GULP energy -145121.814958 kJ/mol
# GULP energy per Si atom -5581.608268 kJ/mol
# Density = 2.225546 g / cm^3
# Si number density = 22.306232 Si / 1000 Ang^3
#
#
#
# Elastic Constant Matrix: (Units=GPa)
#
#
# Indices 1 2 3 4 5 6 
#
# 1 139.1031 43.6814 31.5500 0.0000 27.1395 0.0000
# 2 43.6814 69.1973 18.2839 0.0000 11.6361 0.0000
# 3 31.5500 18.2839 121.5613 0.0000 -0.2127 0.0000
# 4 0.0000 0.0000 0.0000 15.7787 0.0000 -2.1165
# 5 27.1395 11.6361 -0.2127 0.0000 33.4243 0.0000
# 6 0.0000 0.0000 0.0000 -2.1165 0.0000 27.4557
#
#
#
# Elastic Compliance Matrix: (Units=1/GPa)
#
#
# Indices 1 2 3 4 5 6 
#
# 1 0.010538 -0.004975 -0.001999 0.000000 -0.006838 0.000000
# 2 -0.004975 0.018380 -0.001478 0.000000 -0.002369 0.000000
# 3 -0.001999 -0.001478 0.008971 0.000000 0.002195 0.000000
# 4 0.000000 0.000000 0.000000 0.064039 0.000000 0.004937
# 5 -0.006838 -0.002369 0.002195 0.000000 0.036309 0.000000
# 6 0.000000 0.000000 0.000000 0.004937 0.000000 0.036803
#
#
# Mechanical properties :
#
#
# Convention : Reuss Voigt Hill
#
# Bulk Modulus (GPa) = 47.64629 57.43249 52.53939
# Shear Modulus (GPa) = 25.13332 31.08817 28.11075
#
# Velocity S-wave (km/s) = 3.36034 3.73728 3.55381
# Velocity P-wave (km/s) = 6.03840 6.66530 6.35958
#
# Compressibility (1/GPa) = 0.02098799
#
# Stress axis : x y z
#
# Youngs Moduli (GPa) = 94.89047 54.40567 111.46801
#
# Poissons Ratio (x) = 0.27064 0.22281
# Poissons Ratio (y) = 0.47203 0.16471
# Poissons Ratio (z) = 0.18968 0.08039
#
# Static dielectric constant tensor:
#      x y z
#    x 1.957530 0.000000 -0.045460 
#    y 0.000000 1.807350 0.000000 
#    z -0.045460 0.000000 2.229380 
# 
# From -- ./inp_files/182902.got.cif
#   From: 2010.05.17/outbox.cif.g08.bks.cpg/sg15_92_cif.got.tgz:182902.got - 2010.06.03 18:47:42.
