data_PCOD9277281
_publ_section_title
;
Structure prediction by ZEFSAII (Michael W. Deem and Ramdas Pophale) SiO2 
 PCOD9277281
Probable space group: C 2/C
;
_chemical_formula_sum "Si O2"
_cell_formula_units_Z 52
_cell_length_a 4.928688
_cell_length_b 28.316403
_cell_length_c 16.754130
_cell_angle_alpha 90.000000
_cell_angle_beta 77.630583
_cell_angle_gamma 90.000000
_cell_volume 2283.973478
_symmetry_space_group_name_H-M "C 2/C"
_symmetry_group_IT_number 15
_symmetry_cell_setting 'monoclinic'
loop_
_space_group_symop_operation_xyz
x,y,z
-x,y,1/2-z
-x,-y,-z
x,-y,1/2+z
1/2+x,1/2+y,z
1/2-x,1/2+y,1/2-z
1/2-x,1/2-y,-z
1/2+x,1/2-y,1/2+z
loop_
_atom_site_type_symbol
_atom_site_label
_atom_site_fract_x
_atom_site_fract_y
_atom_site_fract_z
Si Si1 0.205670 0.527396 0.871620
Si Si2 0.233421 0.944719 0.516989
Si Si3 0.934017 0.301643 0.059079
Si Si4 0.701324 0.898041 0.596323
Si Si5 0.726234 0.876051 0.302759
Si Si6 0.015620 0.196104 0.445749
Si Si7 0.500000 0.960293 0.750000
O O1 0.326963 0.493324 0.931765
O O2 0.337349 0.576627 0.838771
O O3 0.171777 0.494570 0.796748
O O4 0.907813 0.542725 0.927916
O O5 0.426796 0.912501 0.563748
O O6 0.948887 0.917519 0.525186
O O7 0.919627 0.341730 0.125534
O O8 0.654437 0.301978 0.024804
O O9 0.190387 0.311595 0.982893
O O10 0.962470 0.248663 0.091216
O O11 0.678613 0.927157 0.679945
O O12 0.803438 0.844802 0.607201
O O13 0.500000 0.888829 0.250000
O O14 0.000000 0.851729 0.250000
#
# Coordination Sequence:
#
# PCOD9277281 Si02
#       7
#     8   8   8   8   8   8   4
#     4  10  22  41  59  89 120 169 201 255 296 361
#     4  10  24  38  65  85 123 156 219 246 294 354
#     4  10  22  41  65  96 116 157 209 253 303 365
#     4  11  22  41  61  94 118 164 197 259 297 370
#     4  12  25  38  61  89 128 165 195 251 308 369
#     4  10  20  40  71  88 121 155 203 261 301 356
#     4  10  24  38  60  88 130 158 206 242 310 362
#
# _framework density 22.767337999999999
#
# number of rings (size 3 to 8) (size 9 to 14) (size 15 to 20)
#    0.000    1.538    0.769    3.692    2.154    8.615 
#    1.385    0.000    3.385    0.000    0.000    0.000 
#    0.000    0.000    0.000    0.000    0.000    0.000 
#
# Total GULP energy -145398.201188 kJ/mol
# GULP energy per Si atom -5592.238507 kJ/mol
# Density = 2.271552 g / cm^3
# Si number density = 22.767338 Si / 1000 Ang^3
#
#
#
# Elastic Constant Matrix: (Units=GPa)
#
#
# Indices 1 2 3 4 5 6 
#
# 1 65.1683 2.8012 -1.6381 0.0000 -1.1184 0.0000
# 2 2.8012 167.2943 37.8866 0.0000 -2.1644 0.0000
# 3 -1.6381 37.8866 73.5498 0.0000 1.2398 0.0000
# 4 0.0000 0.0000 0.0000 20.4255 0.0000 -3.6246
# 5 -1.1184 -2.1644 1.2398 0.0000 22.6831 0.0000
# 6 0.0000 0.0000 0.0000 -3.6246 0.0000 29.3295
#
#
#
# Elastic Compliance Matrix: (Units=1/GPa)
#
#
# Indices 1 2 3 4 5 6 
#
# 1 0.015386 -0.000366 0.000520 0.000000 0.000695 0.000000
# 2 -0.000366 0.006792 -0.003520 0.000000 0.000822 0.000000
# 3 0.000520 -0.003520 0.015441 0.000000 -0.001154 0.000000
# 4 0.000000 0.000000 0.000000 0.050056 0.000000 0.006186
# 5 0.000695 0.000822 -0.001154 0.000000 0.044261 0.000000
# 6 0.000000 0.000000 0.000000 0.006186 0.000000 0.034860
#
#
# Mechanical properties :
#
#
# Convention : Reuss Voigt Hill
#
# Bulk Modulus (GPa) = 32.37961 42.67910 37.52935
# Shear Modulus (GPa) = 27.19993 32.28514 29.74254
#
# Velocity S-wave (km/s) = 3.46018 3.76978 3.61829
# Velocity P-wave (km/s) = 5.49696 6.14286 5.82887
#
# Compressibility (1/GPa) = 0.03088364
#
# Stress axis : x y z
#
# Youngs Moduli (GPa) = 64.99574 147.24229 64.76393
#
# Poissons Ratio (x) = 0.05394 -0.03365
# Poissons Ratio (y) = 0.02381 0.22800
# Poissons Ratio (z) = -0.03377 0.51836
#
# Static dielectric constant tensor:
#      x y z
#    x 1.853130 0.000000 0.004830 
#    y 0.000000 1.905070 0.000000 
#    z 0.004830 0.000000 1.829130 
# 
# From -- ./inp_files/185797.got.cif
#   From: 2010.05.17/outbox.cif.g08.bks.cpg/sg15_93_cif.got.tgz:185797.got - 2010.06.03 18:47:42.
