data_PCOD9277635
_publ_section_title
;
Structure prediction by ZEFSAII (Michael W. Deem and Ramdas Pophale) SiO2 
 PCOD9277635
Probable space group: C 2/C
;
_chemical_formula_sum "Si O2"
_cell_formula_units_Z 48
_cell_length_a 22.213594
_cell_length_b 9.302815
_cell_length_c 9.455951
_cell_angle_alpha 90.000000
_cell_angle_beta 96.053038
_cell_angle_gamma 90.000000
_cell_volume 1943.167930
_symmetry_space_group_name_H-M "C 2/C"
_symmetry_group_IT_number 15
_symmetry_cell_setting 'monoclinic'
loop_
_space_group_symop_operation_xyz
x,y,z
-x,y,1/2-z
-x,-y,-z
x,-y,1/2+z
1/2+x,1/2+y,z
1/2-x,1/2+y,1/2-z
1/2-x,1/2-y,-z
1/2+x,1/2-y,1/2+z
loop_
_atom_site_type_symbol
_atom_site_label
_atom_site_fract_x
_atom_site_fract_y
_atom_site_fract_z
Si Si1 0.830763 0.958474 0.986162
Si Si2 0.642144 0.202816 0.295351
Si Si3 0.974037 0.367668 0.402198
Si Si4 0.768435 0.837237 0.691172
Si Si5 0.133501 0.619129 0.809373
Si Si6 0.069530 0.184770 0.531163
O O1 0.838775 0.819778 0.086371
O O2 0.788531 0.070185 0.061448
O O3 0.895935 0.033869 0.975335
O O4 0.799471 0.915203 0.832715
O O5 0.697722 0.180561 0.199688
O O6 0.630673 0.045568 0.352546
O O7 0.585514 0.257063 0.190091
O O8 0.903305 0.365549 0.347241
O O9 0.000000 0.385174 0.250000
O O10 0.000000 0.500000 0.500000
O O11 0.000074 0.220367 0.476327
O O12 0.799966 0.681770 0.693424
O O13 0.102844 0.716990 0.921312
#
# Coordination Sequence:
#
# PCOD9277635 Si02
#       6
#     8   8   8   8   8   8
#     4  11  24  44  62  92 137 175 214 262 329 393
#     4  12  23  39  68  97 128 172 220 264 325 384
#     4  10  20  41  66  95 126 160 214 270 317 373
#     4  11  25  41  64  95 135 173 214 268 324 389
#     4  10  24  39  68  96 131 167 216 273 319 382
#     4  10  23  42  65  93 131 171 213 273 324 381
#
# _framework density 24.701930000000001
#
# number of rings (size 3 to 8) (size 9 to 14) (size 15 to 20)
#    0.000    1.333    3.333    1.500    4.667    1.333 
#    0.000    0.833    7.333    0.000    0.000    0.000 
#    0.000    0.000    0.000    0.000    0.000    0.000 
#
# Total GULP energy -134470.794608 kJ/mol
# GULP energy per Si atom -5602.949775 kJ/mol
# Density = 2.464571 g / cm^3
# Si number density = 24.701930 Si / 1000 Ang^3
#
#
#
# Elastic Constant Matrix: (Units=GPa)
#
#
# Indices 1 2 3 4 5 6 
#
# 1 52.0871 33.7561 27.1162 0.0000 22.3374 0.0000
# 2 33.7561 113.8847 34.0638 0.0000 12.0945 0.0000
# 3 27.1162 34.0638 136.6714 0.0000 24.0547 0.0000
# 4 0.0000 0.0000 0.0000 25.6935 0.0000 4.5564
# 5 22.3374 12.0945 24.0547 0.0000 31.8026 0.0000
# 6 0.0000 0.0000 0.0000 4.5564 0.0000 24.8280
#
#
#
# Elastic Compliance Matrix: (Units=1/GPa)
#
#
# Indices 1 2 3 4 5 6 
#
# 1 0.032914 -0.007311 -0.001302 0.000000 -0.019353 0.000000
# 2 -0.007311 0.011235 -0.001732 0.000000 0.002173 0.000000
# 3 -0.001302 -0.001732 0.008917 0.000000 -0.005172 0.000000
# 4 0.000000 0.000000 0.000000 0.040230 0.000000 -0.007383
# 5 -0.019353 0.002173 -0.005172 0.000000 0.048122 0.000000
# 6 0.000000 0.000000 0.000000 -0.007383 0.000000 0.041632
#
#
# Mechanical properties :
#
#
# Convention : Reuss Voigt Hill
#
# Bulk Modulus (GPa) = 30.88712 54.72392 42.80552
# Shear Modulus (GPa) = 23.30649 30.31194 26.80922
#
# Velocity S-wave (km/s) = 3.07499 3.50681 3.29798
# Velocity P-wave (km/s) = 5.01383 6.21279 5.64523
#
# Compressibility (1/GPa) = 0.03237595
#
# Stress axis : x y z
#
# Youngs Moduli (GPa) = 30.38229 89.00564 112.14508
#
# Poissons Ratio (x) = 0.65074 0.14600
# Poissons Ratio (y) = 0.22213 0.19424
# Poissons Ratio (z) = 0.03955 0.15416
#
# Static dielectric constant tensor:
#      x y z
#    x 2.068930 0.000000 -0.020150 
#    y 0.000000 1.957470 0.000000 
#    z -0.020150 0.000000 1.900390 
# 
# From -- ./inp_files/116464.got.cif
#   From: 2010.05.17/outbox.cif.g08.bks.cpg/sg15_59_cif.got.tgz:116464.got - 2010.06.03 18:47:42.
