data_PCOD9277211
_publ_section_title
;
Structure prediction by ZEFSAII (Michael W. Deem and Ramdas Pophale) SiO2 
 PCOD9277211
Probable space group: C 2/C
;
_chemical_formula_sum "Si O2"
_cell_formula_units_Z 48
_cell_length_a 17.079528
_cell_length_b 12.830483
_cell_length_c 12.200153
_cell_angle_alpha 90.000000
_cell_angle_beta 135.928061
_cell_angle_gamma 90.000000
_cell_volume 1859.599301
_symmetry_space_group_name_H-M "C 2/C"
_symmetry_group_IT_number 15
_symmetry_cell_setting 'monoclinic'
loop_
_space_group_symop_operation_xyz
x,y,z
-x,y,1/2-z
-x,-y,-z
x,-y,1/2+z
1/2+x,1/2+y,z
1/2-x,1/2+y,1/2-z
1/2-x,1/2-y,-z
1/2+x,1/2-y,1/2+z
loop_
_atom_site_type_symbol
_atom_site_label
_atom_site_fract_x
_atom_site_fract_y
_atom_site_fract_z
Si Si1 0.746087 0.009174 0.527463
Si Si2 0.020784 0.834118 0.151556
Si Si3 0.809484 0.659388 0.212347
Si Si4 0.621021 0.620825 0.196154
Si Si5 0.896217 0.660084 0.723907
Si Si6 0.558223 0.884680 0.978339
O O1 0.851827 0.984565 0.711335
O O2 0.710478 0.902356 0.430218
O O3 0.756782 0.101165 0.450425
O O4 0.641854 0.041685 0.499249
O O5 0.858071 0.776164 0.244432
O O6 0.000000 0.881656 0.250000
O O7 0.976343 0.883973 0.993421
O O8 0.937633 0.730199 0.071844
O O9 0.735756 0.649523 0.246339
O O10 0.925611 0.592927 0.336112
O O11 0.603988 0.714865 0.264003
O O12 0.913376 0.627593 0.866785
O O13 0.000000 0.632430 0.750000
#
# Coordination Sequence:
#
# PCOD9277211 Si02
#       6
#     8   8   8   8   8   8
#     4  12  21  37  64 103 134 167 221 285 335 387
#     4   9  19  42  62  98 132 174 213 276 334 395
#     4  10  20  40  69  97 133 172 220 286 324 395
#     4  11  25  38  63 103 131 174 226 273 340 397
#     4  11  23  38  62  92 144 181 212 275 343 398
#     4   9  19  38  61  98 129 169 217 277 332 380
#
# _framework density 25.812011999999999
#
# number of rings (size 3 to 8) (size 9 to 14) (size 15 to 20)
#    1.000    0.667    1.667    4.000    0.000    2.667 
#    0.000    0.000    0.000    3.000    0.000    0.000 
#    0.000    0.000    0.000    0.000    0.000    0.000 
#
# Total GULP energy -134299.993015 kJ/mol
# GULP energy per Si atom -5595.833042 kJ/mol
# Density = 2.575326 g / cm^3
# Si number density = 25.812012 Si / 1000 Ang^3
#
#
#
# Elastic Constant Matrix: (Units=GPa)
#
#
# Indices 1 2 3 4 5 6 
#
# 1 101.5935 31.7925 29.8233 0.0000 -23.1324 0.0000
# 2 31.7925 77.1831 30.9918 0.0000 2.3899 0.0000
# 3 29.8233 30.9918 169.0024 0.0000 -2.9479 0.0000
# 4 0.0000 0.0000 0.0000 52.3400 0.0000 -6.0005
# 5 -23.1324 2.3899 -2.9479 0.0000 30.8728 0.0000
# 6 0.0000 0.0000 0.0000 -6.0005 0.0000 23.2403
#
#
#
# Elastic Compliance Matrix: (Units=1/GPa)
#
#
# Indices 1 2 3 4 5 6 
#
# 1 0.014629 -0.005848 -0.001312 0.000000 0.011289 0.000000
# 2 -0.005848 0.016379 -0.002074 0.000000 -0.005848 0.000000
# 3 -0.001312 -0.002074 0.006525 0.000000 -0.000200 0.000000
# 4 0.000000 0.000000 0.000000 0.019689 0.000000 0.005083
# 5 0.011289 -0.005848 -0.000200 0.000000 0.041283 0.000000
# 6 0.000000 0.000000 0.000000 0.005083 0.000000 0.044341
#
#
# Mechanical properties :
#
#
# Convention : Reuss Voigt Hill
#
# Bulk Modulus (GPa) = 52.45217 59.22159 55.83688
# Shear Modulus (GPa) = 29.82061 38.30204 34.06132
#
# Velocity S-wave (km/s) = 3.40266 3.85630 3.63656
# Velocity P-wave (km/s) = 5.98351 6.54380 6.26992
#
# Compressibility (1/GPa) = 0.01906499
#
# Stress axis : x y z
#
# Youngs Moduli (GPa) = 68.35782 61.05402 153.24762
#
# Poissons Ratio (x) = 0.35707 0.20108
# Poissons Ratio (y) = 0.39979 0.31776
# Poissons Ratio (z) = 0.08969 0.12660
#
# Static dielectric constant tensor:
#      x y z
#    x 1.922980 0.000000 0.049730 
#    y 0.000000 2.126270 0.000000 
#    z 0.049730 0.000000 2.079200 
# 
# From -- ./inp_files/106522.got.cif
#   From: 2010.05.17/outbox.cif.g08.bks.cpg/sg15_54_cif.got.tgz:106522.got - 2010.06.03 18:47:42.
