data_PCOD9277280
_publ_section_title
;
Structure prediction by ZEFSAII (Michael W. Deem and Ramdas Pophale) SiO2 
 PCOD9277280
Probable space group: C 2/C
;
_chemical_formula_sum "Si O2"
_cell_formula_units_Z 52
_cell_length_a 16.399694
_cell_length_b 6.109824
_cell_length_c 29.165571
_cell_angle_alpha 90.000000
_cell_angle_beta 123.439091
_cell_angle_gamma 90.000000
_cell_volume 2438.634683
_symmetry_space_group_name_H-M "C 2/C"
_symmetry_group_IT_number 15
_symmetry_cell_setting 'monoclinic'
loop_
_space_group_symop_operation_xyz
x,y,z
-x,y,1/2-z
-x,-y,-z
x,-y,1/2+z
1/2+x,1/2+y,z
1/2-x,1/2+y,1/2-z
1/2-x,1/2-y,-z
1/2+x,1/2-y,1/2+z
loop_
_atom_site_type_symbol
_atom_site_label
_atom_site_fract_x
_atom_site_fract_y
_atom_site_fract_z
Si Si1 0.156117 0.065304 0.750694
Si Si2 0.288301 0.662489 0.578653
Si Si3 0.182478 0.760122 0.159965
Si Si4 0.000000 0.238544 0.250000
Si Si5 0.821728 0.062119 0.003521
Si Si6 0.903069 0.370223 0.956879
Si Si7 0.848585 0.430349 0.679375
O O1 0.153986 0.102036 0.695861
O O2 0.144264 0.301552 0.770617
O O3 0.254221 0.945012 0.800374
O O4 0.070164 0.909478 0.741416
O O5 0.356291 0.549057 0.561562
O O6 0.196190 0.511441 0.564605
O O7 0.344598 0.742109 0.640559
O O8 0.242058 0.878687 0.541618
O O9 0.101095 0.687991 0.098298
O O10 0.252987 0.918249 0.151995
O O11 0.064546 0.400552 0.300726
O O12 0.750000 0.250000 0.000000
O O13 0.894424 0.166138 0.989292
O O14 0.000000 0.500000 0.000000
#
# Coordination Sequence:
#
# PCOD9277280 Si02
#       7
#     8   8   8   4   8   8   8
#     4  11  22  43  69 101 132 171 231 275 347 412
#     4  10  20  40  71  86 127 184 220 271 332 402
#     4  11  22  40  73  97 132 187 218 280 347 417
#     4  10  26  40  66 104 140 164 222 296 330 406
#     4   9  20  39  64  94 122 173 226 263 327 393
#     4  11  23  41  66 100 137 171 230 285 337 395
#     4  11  21  42  69  96 134 177 227 271 349 415
#
# _framework density 21.323405000000001
#
# number of rings (size 3 to 8) (size 9 to 14) (size 15 to 20)
#    0.000    1.538    4.615    0.462    0.000    0.615 
#    0.000   12.308    3.385    0.000    0.000    0.000 
#    0.000    0.000    0.000    0.000    0.000    0.000 
#
# Total GULP energy -145218.742880 kJ/mol
# GULP energy per Si atom -5585.336265 kJ/mol
# Density = 2.127487 g / cm^3
# Si number density = 21.323405 Si / 1000 Ang^3
#
#
#
# Elastic Constant Matrix: (Units=GPa)
#
#
# Indices 1 2 3 4 5 6 
#
# 1 53.5255 24.1760 55.6284 0.0000 -1.8219 0.0000
# 2 24.1760 77.3473 28.5346 0.0000 -2.2632 0.0000
# 3 55.6284 28.5346 139.7083 0.0000 -20.1612 0.0000
# 4 0.0000 0.0000 0.0000 43.6988 0.0000 -10.0897
# 5 -1.8219 -2.2632 -20.1612 0.0000 25.8093 0.0000
# 6 0.0000 0.0000 0.0000 -10.0897 0.0000 23.7987
#
#
#
# Elastic Compliance Matrix: (Units=1/GPa)
#
#
# Indices 1 2 3 4 5 6 
#
# 1 0.036271 -0.006257 -0.014510 0.000000 -0.009323 0.000000
# 2 -0.006257 0.015091 -0.000523 0.000000 0.000473 0.000000
# 3 -0.014510 -0.000523 0.014525 0.000000 0.010276 0.000000
# 4 0.000000 0.000000 0.000000 0.025367 0.000000 0.010755
# 5 -0.009323 0.000473 0.010276 0.000000 0.046157 0.000000
# 6 0.000000 0.000000 0.000000 0.010755 0.000000 0.046579
#
#
# Mechanical properties :
#
#
# Convention : Reuss Voigt Hill
#
# Bulk Modulus (GPa) = 42.90262 54.13990 48.52126
# Shear Modulus (GPa) = 21.33674 29.47751 25.40713
#
# Velocity S-wave (km/s) = 3.16670 3.72210 3.45558
# Velocity P-wave (km/s) = 5.79088 6.62699 6.22299
#
# Compressibility (1/GPa) = 0.02330860
#
# Stress axis : x y z
#
# Youngs Moduli (GPa) = 27.57000 66.26446 68.84743
#
# Poissons Ratio (x) = 0.41462 0.99896
# Poissons Ratio (y) = 0.17251 0.03598
# Poissons Ratio (z) = 0.40003 0.03463
#
# Static dielectric constant tensor:
#      x y z
#    x 1.788100 0.000000 -0.019900 
#    y 0.000000 1.784060 0.000000 
#    z -0.019900 0.000000 1.793240 
# 
# From -- ./inp_files/297829.got.cif
#   From: 2010.05.17/outbox.cif.g08.bks.cpg/sg15_149_cif.got.tgz:297829.got - 2010.06.03 18:47:42.
