data_PCOD9277365
_publ_section_title
;
Structure prediction by ZEFSAII (Michael W. Deem and Ramdas Pophale) SiO2 
 PCOD9277365
Probable space group: C 2/C
;
_chemical_formula_sum "Si O2"
_cell_formula_units_Z 56
_cell_length_a 13.705478
_cell_length_b 20.172341
_cell_length_c 10.948318
_cell_angle_alpha 90.000000
_cell_angle_beta 96.866748
_cell_angle_gamma 90.000000
_cell_volume 3005.186473
_symmetry_space_group_name_H-M "C 2/C"
_symmetry_group_IT_number 15
_symmetry_cell_setting 'monoclinic'
loop_
_space_group_symop_operation_xyz
x,y,z
-x,y,1/2-z
-x,-y,-z
x,-y,1/2+z
1/2+x,1/2+y,z
1/2-x,1/2+y,1/2-z
1/2-x,1/2-y,-z
1/2+x,1/2-y,1/2+z
loop_
_atom_site_type_symbol
_atom_site_label
_atom_site_fract_x
_atom_site_fract_y
_atom_site_fract_z
Si Si1 0.308002 0.791082 0.818671
Si Si2 0.522771 0.596824 0.929596
Si Si3 0.500000 0.718293 0.750000
Si Si4 0.327438 0.827513 0.094945
Si Si5 0.628566 0.358797 0.686555
Si Si6 0.848982 0.019219 0.160330
Si Si7 0.000000 0.260612 0.250000
Si Si8 0.796782 0.950934 0.397120
O O1 0.407867 0.762610 0.777229
O O2 0.243888 0.728872 0.858850
O O3 0.241776 0.835013 0.716831
O O4 0.324636 0.829800 0.947885
O O5 0.530777 0.666619 0.860972
O O6 0.569440 0.535437 0.862237
O O7 0.407110 0.580724 0.926125
O O8 0.586167 0.603763 0.062391
O O9 0.434321 0.805749 0.153805
O O10 0.283992 0.895417 0.137742
O O11 0.612224 0.407167 0.800897
O O12 0.568584 0.290478 0.686976
O O13 0.799752 0.997765 0.280178
O O14 0.781354 0.019841 0.030053
#
# Coordination Sequence:
#
# PCOD9277365 Si02
#       8
#     8   8   4   8   8   8   4   8
#     4  10  21  38  60  85 126 168 209 251 309 368
#     4  12  23  35  58  92 132 161 199 248 317 379
#     4  12  22  39  60  93 124 172 204 260 312 370
#     4  10  20  41  60  87 119 169 211 252 305 372
#     4  11  23  36  58  93 126 162 199 255 300 378
#     4  12  23  37  59  94 126 163 201 248 317 376
#     4  10  22  35  64  87 116 158 214 248 296 370
#     4  12  23  38  62  89 131 162 202 253 313 378
#
# _framework density 18.634450999999999
#
# number of rings (size 3 to 8) (size 9 to 14) (size 15 to 20)
#    0.000    0.857    5.714    2.143    6.000    0.571 
#    0.000    1.429    0.000    1.714    0.000    0.000 
#    0.000    0.000    0.000    0.000    0.000    0.000 
#
# Total GULP energy -156222.728163 kJ/mol
# GULP energy per Si atom -5579.383149 kJ/mol
# Density = 1.859204 g / cm^3
# Si number density = 18.634451 Si / 1000 Ang^3
#
#
#
# Elastic Constant Matrix: (Units=GPa)
#
#
# Indices 1 2 3 4 5 6 
#
# 1 82.0780 37.1854 25.6630 0.0000 7.6170 0.0000
# 2 37.1854 70.9700 26.0947 0.0000 5.6717 0.0000
# 3 25.6630 26.0947 109.1587 0.0000 0.1131 0.0000
# 4 0.0000 0.0000 0.0000 28.1806 0.0000 2.0281
# 5 7.6170 5.6717 0.1131 0.0000 20.9975 0.0000
# 6 0.0000 0.0000 0.0000 2.0281 0.0000 26.2205
#
#
#
# Elastic Compliance Matrix: (Units=1/GPa)
#
#
# Indices 1 2 3 4 5 6 
#
# 1 0.016670 -0.007650 -0.002086 0.000000 -0.003970 0.000000
# 2 -0.007650 0.019330 -0.002820 0.000000 -0.002431 0.000000
# 3 -0.002086 -0.002820 0.010324 0.000000 0.001463 0.000000
# 4 0.000000 0.000000 0.000000 0.035684 0.000000 -0.002760
# 5 -0.003970 -0.002431 0.001463 0.000000 0.049714 0.000000
# 6 0.000000 0.000000 0.000000 -0.002760 0.000000 0.038352
#
#
# Mechanical properties :
#
#
# Convention : Reuss Voigt Hill
#
# Bulk Modulus (GPa) = 47.14388 48.89923 48.02155
# Shear Modulus (GPa) = 24.72114 26.63062 25.67588
#
# Velocity S-wave (km/s) = 3.64625 3.78445 3.71600
# Velocity P-wave (km/s) = 6.56362 6.73754 6.65115
#
# Compressibility (1/GPa) = 0.02121166
#
# Stress axis : x y z
#
# Youngs Moduli (GPa) = 59.98763 51.73333 96.86166
#
# Poissons Ratio (x) = 0.39577 0.20207
# Poissons Ratio (y) = 0.45891 0.27313
# Poissons Ratio (z) = 0.12515 0.14588
#
# Static dielectric constant tensor:
#      x y z
#    x 1.640440 0.000000 -0.007270 
#    y 0.000000 1.651230 0.000000 
#    z -0.007270 0.000000 1.696630 
# 
# From -- ./inp_files/99466.got.cif
#   From: 2010.05.17/outbox.cif.g08.bks.cpg/sg15_50_cif.got.tgz:99466.got - 2010.06.03 18:47:42.
