data_PCOD9277969
_publ_section_title
;
Structure prediction by ZEFSAII (Michael W. Deem and Ramdas Pophale) SiO2 
 PCOD9277969
Probable space group: C 2/C
;
_chemical_formula_sum "Si O2"
_cell_formula_units_Z 44
_cell_length_a 18.137383
_cell_length_b 7.176983
_cell_length_c 14.542753
_cell_angle_alpha 90.000000
_cell_angle_beta 86.623940
_cell_angle_gamma 90.000000
_cell_volume 1889.769370
_symmetry_space_group_name_H-M "C 2/C"
_symmetry_group_IT_number 15
_symmetry_cell_setting 'monoclinic'
loop_
_space_group_symop_operation_xyz
x,y,z
-x,y,1/2-z
-x,-y,-z
x,-y,1/2+z
1/2+x,1/2+y,z
1/2-x,1/2+y,1/2-z
1/2-x,1/2-y,-z
1/2+x,1/2-y,1/2+z
loop_
_atom_site_type_symbol
_atom_site_label
_atom_site_fract_x
_atom_site_fract_y
_atom_site_fract_z
Si Si1 0.752481 0.686335 0.648045
Si Si2 0.322451 0.994758 0.970058
Si Si3 0.850200 0.994840 0.694476
Si Si4 0.111752 0.865052 0.507489
Si Si5 0.500000 0.341876 0.250000
Si Si6 0.045366 0.251084 0.554673
O O1 0.709050 0.865141 0.608727
O O2 0.772377 0.548992 0.562661
O O3 0.706382 0.589909 0.731112
O O4 0.826703 0.781825 0.681461
O O5 0.338162 0.209855 0.948039
O O6 0.403118 0.910981 0.987410
O O7 0.851834 0.094067 0.594514
O O8 0.931925 0.028552 0.726277
O O9 0.028200 0.790809 0.497112
O O10 0.096846 0.065374 0.553061
O O11 0.478650 0.218000 0.338891
#
# Coordination Sequence:
#
# PCOD9277969 Si02
#       6
#     8   8   8   8   4   8
#     4  11  24  39  65  93 135 162 223 264 329 379
#     4  11  22  42  62  96 125 173 208 270 319 396
#     4  11  22  42  62  95 127 174 206 275 314 385
#     4  10  22  38  69  90 129 167 216 257 329 375
#     4  10  22  40  68  84 134 166 212 262 322 366
#     4  10  20  42  63  96 124 171 211 268 311 390
#
# _framework density 23.283263999999999
#
# number of rings (size 3 to 8) (size 9 to 14) (size 15 to 20)
#    0.000    1.455    3.636    1.636    0.000    2.182 
#    0.000    0.909    0.000    0.000    0.000    0.000 
#    0.000    0.000    0.000    0.000    0.000    0.000 
#
# Total GULP energy -123115.950618 kJ/mol
# GULP energy per Si atom -5596.179574 kJ/mol
# Density = 2.323027 g / cm^3
# Si number density = 23.283264 Si / 1000 Ang^3
#
#
#
# Elastic Constant Matrix: (Units=GPa)
#
#
# Indices 1 2 3 4 5 6 
#
# 1 72.2586 21.8778 4.1331 0.0000 -18.8272 0.0000
# 2 21.8778 99.9874 6.4610 0.0000 -9.4308 0.0000
# 3 4.1331 6.4610 82.0738 0.0000 -22.1333 0.0000
# 4 0.0000 0.0000 0.0000 14.3553 0.0000 0.8460
# 5 -18.8272 -9.4308 -22.1333 0.0000 31.0945 0.0000
# 6 0.0000 0.0000 0.0000 0.8460 0.0000 37.5188
#
#
#
# Elastic Compliance Matrix: (Units=1/GPa)
#
#
# Indices 1 2 3 4 5 6 
#
# 1 0.017580 -0.002920 0.002446 0.000000 0.011499 0.000000
# 2 -0.002920 0.010781 -0.000367 0.000000 0.001241 0.000000
# 3 0.002446 -0.000367 0.015419 0.000000 0.012345 0.000000
# 4 0.000000 0.000000 0.000000 0.069754 0.000000 -0.001573
# 5 0.011499 0.001241 0.012345 0.000000 0.048286 0.000000
# 6 0.000000 0.000000 0.000000 -0.001573 0.000000 0.026689
#
#
# Mechanical properties :
#
#
# Convention : Reuss Voigt Hill
#
# Bulk Modulus (GPa) = 23.75482 35.47373 29.61428
# Shear Modulus (GPa) = 24.48308 31.38357 27.93332
#
# Velocity S-wave (km/s) = 3.24625 3.67536 3.46745
# Velocity P-wave (km/s) = 4.92702 5.76887 5.36448
#
# Compressibility (1/GPa) = 0.04209671
#
# Stress axis : x y z
#
# Youngs Moduli (GPa) = 56.88424 92.75677 64.85511
#
# Poissons Ratio (x) = 0.27084 -0.15861
# Poissons Ratio (y) = 0.16610 0.02381
# Poissons Ratio (z) = -0.13912 0.03405
#
# Static dielectric constant tensor:
#      x y z
#    x 1.943600 0.000000 0.046010 
#    y 0.000000 1.842520 0.000000 
#    z 0.046010 0.000000 1.857720 
# 
# From -- ./inp_files/212895.got.cif
#   From: 2010.05.17/outbox.cif.g08.bks.cpg/sg15_107_cif.got.tgz:212895.got - 2010.06.03 18:47:42.
