data_PCOD9277045
_publ_section_title
;
Structure prediction by ZEFSAII (Michael W. Deem and Ramdas Pophale) SiO2 
 PCOD9277045
Probable space group: C 2/C
;
_chemical_formula_sum "Si O2"
_cell_formula_units_Z 48
_cell_length_a 12.949988
_cell_length_b 18.346699
_cell_length_c 29.414500
_cell_angle_alpha 90.000000
_cell_angle_beta 160.555680
_cell_angle_gamma 90.000000
_cell_volume 2326.431989
_symmetry_space_group_name_H-M "C 2/C"
_symmetry_group_IT_number 15
_symmetry_cell_setting 'monoclinic'
loop_
_space_group_symop_operation_xyz
x,y,z
-x,y,1/2-z
-x,-y,-z
x,-y,1/2+z
1/2+x,1/2+y,z
1/2-x,1/2+y,1/2-z
1/2-x,1/2-y,-z
1/2+x,1/2-y,1/2+z
loop_
_atom_site_type_symbol
_atom_site_label
_atom_site_fract_x
_atom_site_fract_y
_atom_site_fract_z
Si Si1 0.111094 0.295168 0.006848
Si Si2 0.723200 0.569004 0.221083
Si Si3 0.743993 0.935117 0.604440
Si Si4 0.324819 0.472509 0.471737
Si Si5 0.691135 0.183383 0.876444
Si Si6 0.809518 0.272754 0.782326
O O1 0.478575 0.289045 0.152935
O O2 0.955757 0.362823 0.967701
O O3 0.001612 0.222156 0.987431
O O4 0.971170 0.295163 0.897519
O O5 0.452654 0.567959 0.146233
O O6 0.794618 0.654933 0.245931
O O7 0.034328 0.524643 0.362916
O O8 0.575631 0.532578 0.115646
O O9 0.000000 0.944580 0.750000
O O10 0.500000 0.000000 0.500000
O O11 0.500000 0.500000 0.500000
O O12 0.217855 0.391291 0.414436
O O13 0.500000 0.172355 0.750000
O O14 0.513967 0.239872 0.835648
#
# Coordination Sequence:
#
# PCOD9277045 Si02
#       6
#     8   8   8   8   8   8
#     4  10  20  40  67  94 131 178 222 275 336 411
#     4  12  25  45  68 102 137 181 229 283 344 407
#     4  12  24  44  66  99 140 179 227 279 340 413
#     4  12  27  44  69  98 137 178 229 287 342 407
#     4  10  20  41  65  92 129 173 226 280 339 404
#     4  10  21  38  68  96 129 177 227 271 339 410
#
# _framework density 20.632453999999999
#
# number of rings (size 3 to 8) (size 9 to 14) (size 15 to 20)
#    0.000    1.000    3.333    4.000    2.333    2.000 
#    0.000    0.000    0.000    0.000    0.000    0.000 
#    0.000    0.000    0.000    0.000    0.000    0.000 
#
# Total GULP energy -134109.476159 kJ/mol
# GULP energy per Si atom -5587.894840 kJ/mol
# Density = 2.058549 g / cm^3
# Si number density = 20.632454 Si / 1000 Ang^3
#
#
#
# Elastic Constant Matrix: (Units=GPa)
#
#
# Indices 1 2 3 4 5 6 
#
# 1 83.0963 8.2055 25.1258 -0.0126 20.0270 0.0060
# 2 8.2055 87.8343 26.8156 -0.0167 7.6821 0.0001
# 3 25.1258 26.8156 60.2121 -0.0118 15.7518 0.0035
# 4 -0.0126 -0.0167 -0.0118 29.0402 -0.0054 7.6659
# 5 20.0270 7.6821 15.7518 -0.0054 30.7277 -0.0046
# 6 0.0060 0.0001 0.0035 7.6659 -0.0046 44.6056
#
#
#
# Elastic Compliance Matrix: (Units=1/GPa)
#
#
# Indices 1 2 3 4 5 6 
#
# 1 0.015229 0.000667 -0.004633 0.000005 -0.007718 -0.000003
# 2 0.000667 0.013209 -0.005986 0.000005 -0.000668 -0.000001
# 3 -0.004633 -0.005986 0.023127 0.000003 -0.007339 -0.000002
# 4 0.000005 0.000005 0.000003 0.036071 -0.000001 -0.006199
# 5 -0.007718 -0.000668 -0.007339 -0.000001 0.041503 0.000006
# 6 -0.000003 -0.000001 -0.000002 -0.006199 0.000006 0.023484
#
#
# Mechanical properties :
#
#
# Convention : Reuss Voigt Hill
#
# Bulk Modulus (GPa) = 31.58489 39.04850 35.31670
# Shear Modulus (GPa) = 27.31018 32.27443 29.79230
#
# Velocity S-wave (km/s) = 3.64215 3.95936 3.80406
# Velocity P-wave (km/s) = 5.74705 6.31418 6.03728
#
# Compressibility (1/GPa) = 0.03166071
#
# Stress axis : x y z
#
# Youngs Moduli (GPa) = 65.66306 75.70749 43.23930
#
# Poissons Ratio (x) = -0.05047 0.20033
# Poissons Ratio (y) = -0.04378 0.25883
# Poissons Ratio (z) = 0.30422 0.45318
#
# Static dielectric constant tensor:
#      x y z
#    x 1.640940 0.000570 -0.016770 
#    y 0.000570 1.938820 -0.000020 
#    z -0.016770 -0.000020 1.728820 
# 
# From -- ./inp_files/119497.got.cif
#   From: 2010.05.17/outbox.cif.g08.bks.cpg/sg15_60_cif.got.tgz:119497.got - 2010.06.03 18:47:42.
