data_PCOD9277014
_publ_section_title
;
Structure prediction by ZEFSAII (Michael W. Deem and Ramdas Pophale) SiO2 
 PCOD9277014
Probable space group: C 2/C
;
_chemical_formula_sum "Si O2"
_cell_formula_units_Z 60
_cell_length_a 16.470713
_cell_length_b 12.036967
_cell_length_c 28.868209
_cell_angle_alpha 90.000000
_cell_angle_beta 33.082936
_cell_angle_gamma 90.000000
_cell_volume 3124.097435
_symmetry_space_group_name_H-M "C 2/C"
_symmetry_group_IT_number 15
_symmetry_cell_setting 'monoclinic'
loop_
_space_group_symop_operation_xyz
x,y,z
-x,y,1/2-z
-x,-y,-z
x,-y,1/2+z
1/2+x,1/2+y,z
1/2-x,1/2+y,1/2-z
1/2-x,1/2-y,-z
1/2+x,1/2-y,1/2+z
loop_
_atom_site_type_symbol
_atom_site_label
_atom_site_fract_x
_atom_site_fract_y
_atom_site_fract_z
Si Si1 0.817281 0.188318 0.777180
Si Si2 0.738195 0.880830 0.999135
Si Si3 0.000000 0.648667 0.250000
Si Si4 0.965914 0.532007 0.569753
Si Si5 0.415330 0.407825 0.095471
Si Si6 0.809291 0.319681 0.684185
Si Si7 0.761085 0.020072 0.080679
Si Si8 0.049288 0.977659 0.823925
O O1 0.877700 0.272795 0.785497
O O2 0.668703 0.121098 0.861516
O O3 0.804536 0.262915 0.737030
O O4 0.937156 0.090944 0.711133
O O5 0.603430 0.913339 0.030408
O O6 0.731563 0.935847 0.052985
O O7 0.750000 0.750000 0.000000
O O8 0.886087 0.931219 0.906090
O O9 0.102819 0.576462 0.166799
O O10 0.922472 0.420040 0.618890
O O11 0.000000 0.500000 0.500000
O O12 0.351141 0.284850 0.132623
O O13 0.327114 0.462093 0.095121
O O14 0.393525 0.483893 0.152035
O O15 0.594985 0.404739 0.002522
O O16 0.652730 0.382024 0.753427
#
# Coordination Sequence:
#
# PCOD9277014 Si02
#       8
#     8   8   4   8   8   8   8   8
#     4  10  23  40  63  89 127 168 209 266 329 382
#     4  11  24  41  64  88 132 166 215 266 326 383
#     4  12  24  38  66  92 126 162 220 270 316 388
#     4  11  26  41  65  98 130 174 223 271 332 405
#     4   9  20  39  66  90 131 160 209 259 326 381
#     4  10  20  40  67  90 126 175 210 256 330 396
#     4  10  23  39  61  98 122 166 213 266 315 392
#     4   9  20  39  60  92 121 165 205 263 308 389
#
# _framework density 19.205546999999999
#
# number of rings (size 3 to 8) (size 9 to 14) (size 15 to 20)
#    0.000    1.867    0.000    2.400    5.600    4.267 
#    0.000    4.000    2.933    0.000    0.000    0.000 
#    0.000    0.000    0.000    0.000    0.000    0.000 
#
# Total GULP energy -167347.735011 kJ/mol
# GULP energy per Si atom -5578.257834 kJ/mol
# Density = 1.916183 g / cm^3
# Si number density = 19.205547 Si / 1000 Ang^3
#
#
#
# Elastic Constant Matrix: (Units=GPa)
#
#
# Indices 1 2 3 4 5 6 
#
# 1 69.5665 40.1935 36.1211 0.0000 -4.7880 0.0000
# 2 40.1935 132.4985 83.0025 -0.0001 -11.5309 0.0000
# 3 36.1211 83.0025 109.5924 -0.0001 -2.7362 0.0000
# 4 0.0000 -0.0001 -0.0001 22.3477 0.0000 -5.7221
# 5 -4.7880 -11.5309 -2.7362 0.0000 22.1723 0.0000
# 6 0.0000 0.0000 0.0000 -5.7221 0.0000 3.5241
#
#
#
# Elastic Compliance Matrix: (Units=1/GPa)
#
#
# Indices 1 2 3 4 5 6 
#
# 1 0.018157 -0.003093 -0.003595 0.000000 0.001869 0.000000
# 2 -0.003093 0.015774 -0.010772 0.000000 0.006206 0.000000
# 3 -0.003595 -0.010772 0.018366 0.000000 -0.004112 0.000000
# 4 0.000000 0.000000 0.000000 0.076589 0.000000 0.124359
# 5 0.001869 0.006206 -0.004112 0.000000 0.048225 0.000000
# 6 0.000000 0.000000 0.000000 0.124359 0.000000 0.485681
#
#
# Mechanical properties :
#
#
# Convention : Reuss Voigt Hill
#
# Bulk Modulus (GPa) = 57.55246 70.03240 63.79243
# Shear Modulus (GPa) = 7.10727 19.76485 13.43606
#
# Velocity S-wave (km/s) = 1.92579 3.21147 2.64785
# Velocity P-wave (km/s) = 5.91410 7.09191 6.52962
#
# Compressibility (1/GPa) = 0.01737545
#
# Stress axis : x y z
#
# Youngs Moduli (GPa) = 55.07444 63.39608 54.44951
#
# Poissons Ratio (x) = 0.19610 0.19575
# Poissons Ratio (y) = 0.17036 0.58654
# Poissons Ratio (z) = 0.19800 0.68292
#
# Static dielectric constant tensor:
#      x y z
#    x 1.626070 0.000000 0.003000 
#    y 0.000000 1.639600 0.000000 
#    z 0.003000 0.000000 1.676820 
# 
# From -- ./inp_files/210625.got.cif
#   From: 2010.05.17/outbox.cif.g08.bks.cpg/sg15_106_cif.got.tgz:210625.got - 2010.06.03 18:47:42.
