data_PCOD9277417
_publ_section_title
;
Structure prediction by ZEFSAII (Michael W. Deem and Ramdas Pophale) SiO2 
 PCOD9277417
Probable space group: C 2/C
;
_chemical_formula_sum "Si O2"
_cell_formula_units_Z 48
_cell_length_a 21.406718
_cell_length_b 11.648786
_cell_length_c 21.620566
_cell_angle_alpha 90.000000
_cell_angle_beta 151.979133
_cell_angle_gamma 90.000000
_cell_volume 2532.820701
_symmetry_space_group_name_H-M "C 2/C"
_symmetry_group_IT_number 15
_symmetry_cell_setting 'monoclinic'
loop_
_space_group_symop_operation_xyz
x,y,z
-x,y,1/2-z
-x,-y,-z
x,-y,1/2+z
1/2+x,1/2+y,z
1/2-x,1/2+y,1/2-z
1/2-x,1/2-y,-z
1/2+x,1/2-y,1/2+z
loop_
_atom_site_type_symbol
_atom_site_label
_atom_site_fract_x
_atom_site_fract_y
_atom_site_fract_z
Si Si1 0.102773 0.020575 0.926312
Si Si2 0.419262 0.067696 0.518876
Si Si3 0.689310 0.295521 0.590657
Si Si4 0.424977 0.849071 0.885164
Si Si5 0.810161 0.088481 0.630146
Si Si6 0.899914 0.240279 0.104732
O O1 0.187976 0.052846 0.939866
O O2 0.958297 0.074223 0.785747
O O3 0.089761 0.884203 0.918083
O O4 0.162551 0.080381 0.038400
O O5 0.406307 0.127863 0.441254
O O6 0.436021 0.159561 0.588124
O O7 0.532478 0.969958 0.609979
O O8 0.285590 0.998010 0.417377
O O9 0.549943 0.236112 0.485970
O O10 0.793168 0.301687 0.737415
O O11 0.755951 0.215041 0.596364
O O12 0.000000 0.242056 0.250000
O O13 0.750000 0.250000 0.000000
#
# Coordination Sequence:
#
# PCOD9277417 Si02
#       6
#     8   8   8   8   8   8
#     4  11  21  39  64  97 130 161 207 268 325 370
#     4  10  23  44  64  91 130 172 209 261 310 384
#     4  11  22  42  65  96 123 171 214 262 316 379
#     4  10  24  43  67  90 130 167 218 257 314 373
#     4  10  20  41  62  91 134 161 205 270 318 370
#     4  12  24  41  64  95 129 164 208 259 321 377
#
# _framework density 18.951203
#
# number of rings (size 3 to 8) (size 9 to 14) (size 15 to 20)
#    0.000    1.333    5.000    0.500    2.333    2.667 
#    6.000    1.667    0.000    0.000    0.000    0.000 
#    0.000    0.000    0.000    0.000    0.000    0.000 
#
# Total GULP energy -134055.760378 kJ/mol
# GULP energy per Si atom -5585.656682 kJ/mol
# Density = 1.890807 g / cm^3
# Si number density = 18.951203 Si / 1000 Ang^3
#
#
#
# Elastic Constant Matrix: (Units=GPa)
#
#
# Indices 1 2 3 4 5 6 
#
# 1 74.0467 47.8596 31.0803 0.0001 0.7110 0.0000
# 2 47.8596 100.6373 49.1490 0.0002 -13.4504 0.0001
# 3 31.0803 49.1490 117.1788 0.0003 0.0347 0.0001
# 4 0.0001 0.0002 0.0003 22.8280 0.0001 -12.3709
# 5 0.7110 -13.4504 0.0347 0.0001 12.6501 0.0000
# 6 0.0000 0.0001 0.0001 -12.3709 0.0000 23.4486
#
#
#
# Elastic Compliance Matrix: (Units=1/GPa)
#
#
# Indices 1 2 3 4 5 6 
#
# 1 0.021504 -0.011644 -0.000816 0.000000 -0.013587 0.000000
# 2 -0.011644 0.021528 -0.005948 0.000000 0.023561 0.000000
# 3 -0.000816 -0.005948 0.011247 0.000000 -0.006309 0.000000
# 4 0.000000 0.000000 0.000000 0.061345 -0.000001 0.032364
# 5 -0.013587 0.023561 -0.006309 -0.000001 0.104883 -0.000001
# 6 0.000000 0.000000 0.000000 0.032364 -0.000001 0.059721
#
#
# Mechanical properties :
#
#
# Convention : Reuss Voigt Hill
#
# Bulk Modulus (GPa) = 57.26337 60.89339 59.07838
# Shear Modulus (GPa) = 15.48636 22.70361 19.09498
#
# Velocity S-wave (km/s) = 2.86172 3.46497 3.17769
# Velocity P-wave (km/s) = 6.41881 6.94331 6.68620
#
# Compressibility (1/GPa) = 0.01746317
#
# Stress axis : x y z
#
# Youngs Moduli (GPa) = 46.50314 46.45081 88.91216
#
# Poissons Ratio (x) = 0.54088 0.07252
# Poissons Ratio (y) = 0.54149 0.52887
# Poissons Ratio (z) = 0.03793 0.27630
#
# Static dielectric constant tensor:
#      x y z
#    x 1.639090 0.000000 0.010870 
#    y 0.000000 1.670400 0.000000 
#    z 0.010870 0.000000 1.630570 
# 
# From -- ./inp_files/110678.got.cif
#   From: 2010.05.17/outbox.cif.g08.bks.cpg/sg15_56_cif.got.tgz:110678.got - 2010.06.03 18:47:42.
