data_PCOD9277951
_publ_section_title
;
Structure prediction by ZEFSAII (Michael W. Deem and Ramdas Pophale) SiO2 
 PCOD9277951
Probable space group: C 2/C
;
_chemical_formula_sum "Si O2"
_cell_formula_units_Z 48
_cell_length_a 26.927914
_cell_length_b 8.707952
_cell_length_c 20.309760
_cell_angle_alpha 90.000000
_cell_angle_beta 29.761411
_cell_angle_gamma 90.000000
_cell_volume 2363.992159
_symmetry_space_group_name_H-M "C 2/C"
_symmetry_group_IT_number 15
_symmetry_cell_setting 'monoclinic'
loop_
_space_group_symop_operation_xyz
x,y,z
-x,y,1/2-z
-x,-y,-z
x,-y,1/2+z
1/2+x,1/2+y,z
1/2-x,1/2+y,1/2-z
1/2-x,1/2-y,-z
1/2+x,1/2-y,1/2+z
loop_
_atom_site_type_symbol
_atom_site_label
_atom_site_fract_x
_atom_site_fract_y
_atom_site_fract_z
Si Si1 0.916804 0.899925 0.446010
Si Si2 0.890504 0.372086 0.311179
Si Si3 0.926389 0.633688 0.998255
Si Si4 0.500000 0.369193 0.750000
Si Si5 0.253729 0.348123 0.139742
Si Si6 0.500000 0.849816 0.750000
Si Si7 0.934707 0.303380 0.045913
O O1 0.940578 0.842527 0.491730
O O2 0.937779 0.756878 0.372501
O O3 0.810150 0.986392 0.576151
O O4 0.986050 0.026289 0.330303
O O5 0.793777 0.347388 0.378538
O O6 0.906102 0.242591 0.348145
O O7 0.918029 0.538041 0.309851
O O8 0.982859 0.342204 0.155859
O O9 0.832094 0.721729 0.076799
O O10 0.919549 0.451313 0.016494
O O11 0.964908 0.689511 0.025604
O O12 0.158907 0.321292 0.297082
#
# Coordination Sequence:
#
# PCOD9277951 Si02
#       7
#     8   8   8   4   8   4   8
#     4  11  22  40  64  97 125 161 216 260 307 376
#     4  10  21  43  66  88 125 177 204 252 327 370
#     4  10  20  42  63  88 125 167 209 259 316 377
#     4  10  22  42  64  90 130 170 210 258 308 378
#     4  11  23  39  66  96 123 161 222 263 306 380
#     4  10  22  42  66  84 132 178 200 256 320 372
#     4  10  22  40  65  89 128 167 203 265 322 365
#
# _framework density 20.304637
#
# number of rings (size 3 to 8) (size 9 to 14) (size 15 to 20)
#    0.000    1.667    3.333    1.000    0.000    2.000 
#    3.000    1.667    0.000    0.000    0.000    0.000 
#    0.000    0.000    0.000    0.000    0.000    0.000 
#
# Total GULP energy -133650.133235 kJ/mol
# GULP energy per Si atom -5568.755551 kJ/mol
# Density = 2.025842 g / cm^3
# Si number density = 20.304637 Si / 1000 Ang^3
#
#
#
# Elastic Constant Matrix: (Units=GPa)
#
#
# Indices 1 2 3 4 5 6 
#
# 1 114.4863 58.5224 11.0980 -0.0169 -11.3172 0.0041
# 2 58.5224 98.7076 9.2564 -0.0129 0.1351 0.0042
# 3 11.0980 9.2564 55.5755 -0.0138 0.7316 0.0031
# 4 -0.0169 -0.0129 -0.0138 21.7352 0.0041 -2.1487
# 5 -11.3172 0.1351 0.7316 0.0041 33.1636 -0.0012
# 6 0.0041 0.0042 0.0031 -2.1487 -0.0012 -0.6839
#
#
#
# Elastic Compliance Matrix: (Units=1/GPa)
#
#
# Indices 1 2 3 4 5 6 
#
# 1 0.013290 -0.007752 -0.001423 0.000004 0.004598 0.000004
# 2 -0.007752 0.014814 -0.000884 0.000006 -0.002686 0.000028
# 3 -0.001423 -0.000884 0.018437 0.000013 -0.000889 0.000029
# 4 0.000004 0.000006 0.000013 0.035105 -0.000007 -0.110293
# 5 0.004598 -0.002686 -0.000889 -0.000007 0.031753 -0.000025
# 6 0.000004 0.000028 0.000029 -0.110293 -0.000025 -1.115655
#
#
# Mechanical properties :
#
#
# Convention : Reuss Voigt Hill
#
# Bulk Modulus (GPa) = 37.84789 47.39145 42.61967
# Shear Modulus (GPa) = -5.13700 23.50248 9.18274
#
# Velocity S-wave (km/s) = -1.59231 3.40589 2.12892
# Velocity P-wave (km/s) = 3.91151 6.23359 5.20372
#
# Compressibility (1/GPa) = 0.02642155
#
# Stress axis : x y z
#
# Youngs Moduli (GPa) = 75.24488 67.50502 54.23978
#
# Poissons Ratio (x) = 0.52332 0.07720
# Poissons Ratio (y) = 0.58332 0.04794
# Poissons Ratio (z) = 0.10709 0.05967
#
# Static dielectric constant tensor:
#      x y z
#    x 1.770400 0.000000 0.040490 
#    y 0.000000 1.759760 0.000000 
#    z 0.040490 0.000000 1.741880 
# 
# From -- ./inp_files/121663.got.cif
#   From: 2010.05.17/outbox.cif.g08.bks.cpg/sg15_61_cif.got.tgz:121663.got - 2010.06.03 18:47:42.
