data_PCOD9277976
_publ_section_title
;
Structure prediction by ZEFSAII (Michael W. Deem and Ramdas Pophale) SiO2 
 PCOD9277976
Probable space group: C 2/C
;
_chemical_formula_sum "Si O2"
_cell_formula_units_Z 52
_cell_length_a 31.399050
_cell_length_b 9.252332
_cell_length_c 8.758298
_cell_angle_alpha 90.000000
_cell_angle_beta 59.824743
_cell_angle_gamma 90.000000
_cell_volume 2199.623685
_symmetry_space_group_name_H-M "C 2/C"
_symmetry_group_IT_number 15
_symmetry_cell_setting 'monoclinic'
loop_
_space_group_symop_operation_xyz
x,y,z
-x,y,1/2-z
-x,-y,-z
x,-y,1/2+z
1/2+x,1/2+y,z
1/2-x,1/2+y,1/2-z
1/2-x,1/2-y,-z
1/2+x,1/2-y,1/2+z
loop_
_atom_site_type_symbol
_atom_site_label
_atom_site_fract_x
_atom_site_fract_y
_atom_site_fract_z
Si Si1 0.903652 0.353597 0.233729
Si Si2 0.000000 0.312811 0.250000
Si Si3 0.742393 0.879801 0.390793
Si Si4 0.160239 0.803825 0.420036
Si Si5 0.563789 0.397362 0.423686
Si Si6 0.684027 0.991292 0.239288
Si Si7 0.448503 0.690279 0.890871
O O1 0.869103 0.228409 0.370331
O O2 0.866137 0.481180 0.267774
O O3 0.952594 0.382880 0.247078
O O4 0.918375 0.304421 0.038749
O O5 0.972947 0.216053 0.427884
O O6 0.750000 0.750000 0.500000
O O7 0.791365 0.897839 0.201053
O O8 0.698803 0.874552 0.342086
O O9 0.726813 0.006628 0.534522
O O10 0.117461 0.869969 0.394535
O O11 0.177604 0.644089 0.336025
O O12 0.545119 0.554999 0.506461
O O13 0.569882 0.375694 0.233377
O O14 0.500000 0.758767 0.750000
#
# Coordination Sequence:
#
# PCOD9277976 Si02
#       7
#     8   4   8   8   8   8   8
#     4  11  24  41  73 101 137 187 229 289 347 417
#     4  10  20  42  64 102 142 178 234 276 342 412
#     4  10  24  45  72 101 138 183 229 291 351 421
#     4  10  24  45  68 100 134 182 232 284 347 422
#     4  11  22  39  66  97 140 176 229 282 343 414
#     4  11  23  48  73  97 142 181 229 294 354 408
#     4  12  23  39  65  99 138 183 225 288 345 405
#
# _framework density 23.640405999999999
#
# number of rings (size 3 to 8) (size 9 to 14) (size 15 to 20)
#    0.000    1.231    3.846    2.308    4.308    3.077 
#    2.769    3.077    8.462    0.000    0.000    0.000 
#    0.000    0.000    0.000    0.000    0.000    0.000 
#
# Total GULP energy -144990.357139 kJ/mol
# GULP energy per Si atom -5576.552198 kJ/mol
# Density = 2.358660 g / cm^3
# Si number density = 23.640406 Si / 1000 Ang^3
#
#
#
# Elastic Constant Matrix: (Units=GPa)
#
#
# Indices 1 2 3 4 5 6 
#
# 1 136.1561 18.6699 49.8212 0.0000 -1.7800 0.0000
# 2 18.6699 14.8889 13.5782 0.0000 1.3613 0.0000
# 3 49.8212 13.5782 149.6300 0.0000 -12.2433 0.0000
# 4 0.0000 0.0000 0.0000 19.7168 0.0000 -8.7122
# 5 -1.7800 1.3613 -12.2433 0.0000 42.4714 0.0000
# 6 0.0000 0.0000 0.0000 -8.7122 0.0000 22.7457
#
#
#
# Elastic Compliance Matrix: (Units=1/GPa)
#
#
# Indices 1 2 3 4 5 6 
#
# 1 0.009532 -0.009887 -0.002272 0.000000 0.000062 0.000000
# 2 -0.009887 0.084278 -0.004722 0.000000 -0.004477 0.000000
# 3 -0.002272 -0.004722 0.008063 0.000000 0.002380 0.000000
# 4 0.000000 0.000000 0.000000 0.061051 0.000000 0.023384
# 5 0.000062 -0.004477 0.002380 0.000000 0.024378 0.000000
# 6 0.000000 0.000000 0.000000 0.023384 0.000000 0.052921
#
#
# Mechanical properties :
#
#
# Convention : Reuss Voigt Hill
#
# Bulk Modulus (GPa) = 14.68182 51.64595 33.16389
# Shear Modulus (GPa) = 16.85274 31.56049 24.20661
#
# Velocity S-wave (km/s) = 2.67287 3.65776 3.20339
# Velocity P-wave (km/s) = 3.96858 6.30340 5.26700
#
# Compressibility (1/GPa) = 0.06811145
#
# Stress axis : x y z
#
# Youngs Moduli (GPa) = 104.90693 11.86551 124.02613
#
# Poissons Ratio (x) = 0.11731 0.28175
# Poissons Ratio (y) = 1.03721 0.58567
# Poissons Ratio (z) = 0.23831 0.05603
#
# Static dielectric constant tensor:
#      x y z
#    x 1.961360 0.000000 -0.014070 
#    y 0.000000 1.914720 0.000000 
#    z -0.014070 0.000000 1.903290 
# 
# From -- ./inp_files/69004.got.cif
#   From: 2010.05.17/outbox.cif.g08.bks.cpg/sg15_35_cif.got.tgz:69004.got - 2010.06.03 18:47:42.
