data_PCOD9277709
_publ_section_title
;
Structure prediction by ZEFSAII (Michael W. Deem and Ramdas Pophale) SiO2 
 PCOD9277709
Probable space group: C 2/C
;
_chemical_formula_sum "Si O2"
_cell_formula_units_Z 36
_cell_length_a 16.480973
_cell_length_b 9.580567
_cell_length_c 8.778761
_cell_angle_alpha 90.000000
_cell_angle_beta 94.040651
_cell_angle_gamma 90.000000
_cell_volume 1382.695086
_symmetry_space_group_name_H-M "C 2/C"
_symmetry_group_IT_number 15
_symmetry_cell_setting 'monoclinic'
loop_
_space_group_symop_operation_xyz
x,y,z
-x,y,1/2-z
-x,-y,-z
x,-y,1/2+z
1/2+x,1/2+y,z
1/2-x,1/2+y,1/2-z
1/2-x,1/2-y,-z
1/2+x,1/2-y,1/2+z
loop_
_atom_site_type_symbol
_atom_site_label
_atom_site_fract_x
_atom_site_fract_y
_atom_site_fract_z
Si Si1 0.182811 0.203708 0.840695
Si Si2 0.500000 0.994755 0.750000
Si Si3 0.878761 0.208397 0.992658
Si Si4 0.769506 0.434169 0.860829
Si Si5 0.444560 0.202384 0.966308
O O1 0.130398 0.159647 0.684450
O O2 0.212837 0.358103 0.797039
O O3 0.128440 0.204013 0.983621
O O4 0.257116 0.097458 0.855244
O O5 0.563804 0.097515 0.676209
O O6 0.535706 0.895699 0.884430
O O7 0.839022 0.364664 0.976234
O O8 0.972047 0.213123 0.050725
O O9 0.816901 0.123422 0.088231
#
# Coordination Sequence:
#
# PCOD9277709 Si02
#       5
#     8   4   8   8   8
#     4  10  20  41  67  99 128 181 218 289 326 410
#     4  10  22  38  66 100 132 172 228 280 328 412
#     4   9  20  41  65  93 137 179 216 286 331 407
#     4   9  21  39  64  96 137 174 220 272 353 390
#     4  11  21  42  68  99 131 181 230 279 339 396
#
# _framework density 26.036107000000001
#
# number of rings (size 3 to 8) (size 9 to 14) (size 15 to 20)
#    1.333    0.889    2.222    0.000    0.000    6.222 
#    8.000    1.111    0.000    0.000    0.000    0.000 
#    0.000    0.000    0.000    0.000    0.000    0.000 
#
# Total GULP energy -100717.441642 kJ/mol
# GULP energy per Si atom -5595.413425 kJ/mol
# Density = 2.597685 g / cm^3
# Si number density = 26.036107 Si / 1000 Ang^3
#
#
#
# Elastic Constant Matrix: (Units=GPa)
#
#
# Indices 1 2 3 4 5 6 
#
# 1 135.2610 26.9179 9.0171 0.0000 -31.7679 0.0000
# 2 26.9179 43.2764 -6.9109 0.0000 -6.0737 0.0000
# 3 9.0171 -6.9109 68.2879 0.0000 -6.2126 0.0000
# 4 0.0000 0.0000 0.0000 33.6731 0.0000 -14.5045
# 5 -31.7679 -6.0737 -6.2126 0.0000 43.5507 0.0000
# 6 0.0000 0.0000 0.0000 -14.5045 0.0000 40.4084
#
#
#
# Elastic Compliance Matrix: (Units=1/GPa)
#
#
# Indices 1 2 3 4 5 6 
#
# 1 0.010096 -0.005592 -0.001317 0.000000 0.006397 0.000000
# 2 -0.005592 0.027176 0.003508 0.000000 0.000211 0.000000
# 3 -0.001317 0.003508 0.015329 0.000000 0.001715 0.000000
# 4 0.000000 0.000000 0.000000 0.035129 0.000000 0.012609
# 5 0.006397 0.000211 0.001715 0.000000 0.027902 0.000000
# 6 0.000000 0.000000 0.000000 0.012609 0.000000 0.029273
#
#
# Mechanical properties :
#
#
# Convention : Reuss Voigt Hill
#
# Bulk Modulus (GPa) = 21.83540 33.87485 27.85513
# Shear Modulus (GPa) = 29.94479 38.04651 33.99565
#
# Velocity S-wave (km/s) = 3.39503 3.82684 3.61738
# Velocity P-wave (km/s) = 4.87577 5.70660 5.30746
#
# Compressibility (1/GPa) = 0.04579720
#
# Stress axis : x y z
#
# Youngs Moduli (GPa) = 99.04677 36.79779 65.23651
#
# Poissons Ratio (x) = 0.20579 0.08593
# Poissons Ratio (y) = 0.55391 -0.22884
# Poissons Ratio (z) = 0.13046 -0.12908
#
# Static dielectric constant tensor:
#      x y z
#    x 2.050920 0.000000 0.028750 
#    y 0.000000 2.055200 0.000000 
#    z 0.028750 0.000000 2.059540 
# 
# From -- ./inp_files/53633.got.cif
#   From: 2010.05.17/outbox.cif.g08.bks.cpg/sg15_27_cif.got.tgz:53633.got - 2010.06.03 18:47:42.
