data_PCOD9277405
_publ_section_title
;
Structure prediction by ZEFSAII (Michael W. Deem and Ramdas Pophale) SiO2 
 PCOD9277405
Probable space group: C 2/C
;
_chemical_formula_sum "Si O2"
_cell_formula_units_Z 40
_cell_length_a 11.622638
_cell_length_b 10.326865
_cell_length_c 25.497514
_cell_angle_alpha 90.000000
_cell_angle_beta 148.812831
_cell_angle_gamma 90.000000
_cell_volume 1584.757525
_symmetry_space_group_name_H-M "C 2/C"
_symmetry_group_IT_number 15
_symmetry_cell_setting 'monoclinic'
loop_
_space_group_symop_operation_xyz
x,y,z
-x,y,1/2-z
-x,-y,-z
x,-y,1/2+z
1/2+x,1/2+y,z
1/2-x,1/2+y,1/2-z
1/2-x,1/2-y,-z
1/2+x,1/2-y,1/2+z
loop_
_atom_site_type_symbol
_atom_site_label
_atom_site_fract_x
_atom_site_fract_y
_atom_site_fract_z
Si Si1 0.422337 0.329997 0.626634
Si Si2 0.028523 0.772268 0.447196
Si Si3 0.881502 0.567251 0.753635
Si Si4 0.747455 0.979214 0.685285
Si Si5 0.073386 0.735889 0.580687
O O1 0.471784 0.195447 0.675665
O O2 0.509625 0.438035 0.699757
O O3 0.564189 0.326529 0.628078
O O4 0.167625 0.335012 0.512221
O O5 0.250000 0.750000 0.500000
O O6 0.092732 0.803262 0.532268
O O7 0.861677 0.876858 0.356677
O O8 0.885648 0.638479 0.393265
O O9 0.877943 0.494604 0.807175
O O10 0.000000 0.502277 0.750000
O O11 0.737800 0.117864 0.654456
#
# Coordination Sequence:
#
# PCOD9277405 Si02
#       5
#     8   8   8   8   8
#     4   9  20  39  64  91 121 163 207 250 303 369
#     4  11  24  41  60  95 128 159 203 260 307 358
#     4  10  20  41  62  87 126 167 202 248 304 372
#     4  10  23  38  63  97 119 157 213 250 308 361
#     4  10  20  41  65  88 124 166 205 250 307 367
#
# _framework density 25.240454
#
# number of rings (size 3 to 8) (size 9 to 14) (size 15 to 20)
#    0.000    2.000    2.000    0.600    2.800    1.600 
#    3.600    9.000    0.000    0.000    0.000    0.000 
#    0.000    0.000    0.000    0.000    0.000    0.000 
#
# Total GULP energy -112011.954078 kJ/mol
# GULP energy per Si atom -5600.597704 kJ/mol
# Density = 2.518301 g / cm^3
# Si number density = 25.240454 Si / 1000 Ang^3
#
#
#
# Elastic Constant Matrix: (Units=GPa)
#
#
# Indices 1 2 3 4 5 6 
#
# 1 104.2527 -6.2974 11.9871 0.0000 -18.8432 0.0000
# 2 -6.2974 54.6769 30.9756 0.0000 -9.2347 0.0000
# 3 11.9871 30.9756 113.5729 0.0002 -2.7800 0.0000
# 4 0.0000 0.0000 0.0002 24.1343 0.0000 -2.8865
# 5 -18.8432 -9.2347 -2.7800 0.0000 60.4221 0.0000
# 6 0.0000 0.0000 0.0000 -2.8865 0.0000 33.6552
#
#
#
# Elastic Compliance Matrix: (Units=1/GPa)
#
#
# Indices 1 2 3 4 5 6 
#
# 1 0.010639 0.002875 -0.001817 0.000000 0.003674 0.000000
# 2 0.002875 0.022980 -0.006470 0.000000 0.004111 0.000000
# 3 -0.001817 -0.006470 0.010735 0.000000 -0.001062 0.000000
# 4 0.000000 0.000000 0.000000 0.041864 0.000000 0.003591
# 5 0.003674 0.004111 -0.001062 0.000000 0.018275 0.000000
# 6 0.000000 0.000000 0.000000 0.003591 0.000000 0.030021
#
#
# Mechanical properties :
#
#
# Convention : Reuss Voigt Hill
#
# Bulk Modulus (GPa) = 29.82420 38.42588 34.12504
# Shear Modulus (GPa) = 31.94552 39.36481 35.65517
#
# Velocity S-wave (km/s) = 3.56145 3.95345 3.76256
# Velocity P-wave (km/s) = 5.36224 6.00805 5.69431
#
# Compressibility (1/GPa) = 0.03352982
#
# Stress axis : x y z
#
# Youngs Moduli (GPa) = 93.99668 43.51532 93.14933
#
# Poissons Ratio (x) = -0.12512 0.16926
# Poissons Ratio (y) = -0.27026 0.60272
# Poissons Ratio (z) = 0.17080 0.28156
#
# Static dielectric constant tensor:
#      x y z
#    x 2.104160 0.000000 0.052120 
#    y 0.000000 1.920950 0.000000 
#    z 0.052120 0.000000 1.933280 
# 
# From -- ./inp_files/141734.got.cif
#   From: 2010.05.17/outbox.cif.g08.bks.cpg/sg15_71_cif.got.tgz:141734.got - 2010.06.03 18:47:42.
