data_PCOD9277711
_publ_section_title
;
Structure prediction by ZEFSAII (Michael W. Deem and Ramdas Pophale) SiO2 
 PCOD9277711
Probable space group: C 2/C
;
_chemical_formula_sum "Si O2"
_cell_formula_units_Z 48
_cell_length_a 15.602099
_cell_length_b 23.082428
_cell_length_c 10.437247
_cell_angle_alpha 90.000000
_cell_angle_beta 147.944684
_cell_angle_gamma 90.000000
_cell_volume 1994.942897
_symmetry_space_group_name_H-M "C 2/C"
_symmetry_group_IT_number 15
_symmetry_cell_setting 'monoclinic'
loop_
_space_group_symop_operation_xyz
x,y,z
-x,y,1/2-z
-x,-y,-z
x,-y,1/2+z
1/2+x,1/2+y,z
1/2-x,1/2+y,1/2-z
1/2-x,1/2-y,-z
1/2+x,1/2-y,1/2+z
loop_
_atom_site_type_symbol
_atom_site_label
_atom_site_fract_x
_atom_site_fract_y
_atom_site_fract_z
Si Si1 0.594215 0.511375 0.749219
Si Si2 0.597281 0.788303 0.172020
Si Si3 0.254977 0.270074 0.862593
Si Si4 0.406405 0.966446 0.761194
Si Si5 0.372706 0.389345 0.953382
Si Si6 0.648546 0.342121 0.846561
O O1 0.500000 0.485653 0.750000
O O2 0.500000 0.500000 0.500000
O O3 0.547385 0.580365 0.693288
O O4 0.777345 0.496442 0.013047
O O5 0.695524 0.782950 0.164824
O O6 0.614708 0.724546 0.257946
O O7 0.681348 0.836266 0.365055
O O8 0.412297 0.795312 0.903357
O O9 0.375711 0.322979 0.998741
O O10 0.250000 0.250000 0.000000
O O11 0.500000 0.941070 0.750000
O O12 0.279674 0.923685 0.675838
O O13 0.500000 0.000000 0.000000
O O14 0.344731 0.383925 0.765359
O O15 0.500000 0.356538 0.750000
#
# Coordination Sequence:
#
# PCOD9277711 Si02
#       6
#     8   8   8   8   8   8
#     4  10  22  46  73  99 139 184 237 302 374 445
#     4  10  21  38  64  96 140 190 240 305 350 421
#     4  11  23  41  65  99 147 200 244 291 374 439
#     4  11  24  48  76 108 146 184 241 319 388 445
#     4  10  25  43  69 107 141 194 246 305 360 470
#     4  10  20  41  67  99 142 188 246 304 365 415
#
# _framework density 24.060841
#
# number of rings (size 3 to 8) (size 9 to 14) (size 15 to 20)
#    0.000    1.667    1.667    2.500    0.000   10.000 
#   12.000    0.000    0.000    0.000    0.000    0.000 
#    0.000    0.000    0.000    0.000    0.000    0.000 
#
# Total GULP energy -133715.963282 kJ/mol
# GULP energy per Si atom -5571.498470 kJ/mol
# Density = 2.400608 g / cm^3
# Si number density = 24.060841 Si / 1000 Ang^3
#
#
#
# Elastic Constant Matrix: (Units=GPa)
#
#
# Indices 1 2 3 4 5 6 
#
# 1 132.0775 -0.2346 40.5460 0.0000 -27.7754 0.0000
# 2 -0.2346 50.7402 31.8089 0.0000 -14.3141 0.0000
# 3 40.5460 31.8089 200.5474 0.0000 -4.6789 0.0000
# 4 0.0000 0.0000 0.0000 38.4865 0.0000 -9.1520
# 5 -27.7754 -14.3141 -4.6789 0.0000 46.6201 0.0000
# 6 0.0000 0.0000 0.0000 -9.1520 0.0000 15.2978
#
#
#
# Elastic Compliance Matrix: (Units=1/GPa)
#
#
# Indices 1 2 3 4 5 6 
#
# 1 0.009674 0.003360 -0.002336 0.000000 0.006561 0.000000
# 2 0.003360 0.025128 -0.004449 0.000000 0.009270 0.000000
# 3 -0.002336 -0.004449 0.006114 0.000000 -0.002144 0.000000
# 4 0.000000 0.000000 0.000000 0.030293 0.000000 0.018123
# 5 0.006561 0.009270 -0.002144 0.000000 0.027990 0.000000
# 6 0.000000 0.000000 0.000000 0.018123 0.000000 0.076211
#
#
# Mechanical properties :
#
#
# Convention : Reuss Voigt Hill
#
# Bulk Modulus (GPa) = 29.35381 58.62284 43.98832
# Shear Modulus (GPa) = 25.82455 40.83053 33.32754
#
# Velocity S-wave (km/s) = 3.27968 4.12390 3.72578
# Velocity P-wave (km/s) = 5.15442 6.86241 6.06880
#
# Compressibility (1/GPa) = 0.03406713
#
# Stress axis : x y z
#
# Youngs Moduli (GPa) = 103.36974 39.79660 163.55540
#
# Poissons Ratio (x) = -0.13371 0.38201
# Poissons Ratio (y) = -0.34730 0.72758
# Poissons Ratio (z) = 0.24144 0.17704
#
# Static dielectric constant tensor:
#      x y z
#    x 2.048770 0.000000 -0.058220 
#    y 0.000000 2.021700 0.000000 
#    z -0.058220 0.000000 2.027740 
# 
# From -- ./inp_files/43945.got.cif
#   From: 2010.05.17/outbox.cif.g08.bks.cpg/sg15_22_cif.got.tgz:43945.got - 2010.06.03 18:47:42.
