data_PCOD9277819
_publ_section_title
;
Structure prediction by ZEFSAII (Michael W. Deem and Ramdas Pophale) SiO2 
 PCOD9277819
Probable space group: C 2/C
;
_chemical_formula_sum "Si O2"
_cell_formula_units_Z 44
_cell_length_a 8.212150
_cell_length_b 12.207408
_cell_length_c 25.280158
_cell_angle_alpha 90.000000
_cell_angle_beta 49.484146
_cell_angle_gamma 90.000000
_cell_volume 1926.650626
_symmetry_space_group_name_H-M "C 2/C"
_symmetry_group_IT_number 15
_symmetry_cell_setting 'monoclinic'
loop_
_space_group_symop_operation_xyz
x,y,z
-x,y,1/2-z
-x,-y,-z
x,-y,1/2+z
1/2+x,1/2+y,z
1/2-x,1/2+y,1/2-z
1/2-x,1/2-y,-z
1/2+x,1/2-y,1/2+z
loop_
_atom_site_type_symbol
_atom_site_label
_atom_site_fract_x
_atom_site_fract_y
_atom_site_fract_z
Si Si1 0.665595 0.073696 0.000005
Si Si2 0.891265 0.317456 0.345932
Si Si3 0.500000 0.999983 0.750000
Si Si4 0.989919 0.249994 0.880031
Si Si5 0.224974 0.817435 0.845922
Si Si6 0.868939 0.143660 0.499997
O O1 0.554649 0.151454 0.067699
O O2 0.825401 0.151456 0.932311
O O3 0.500000 0.000000 0.000000
O O4 0.793738 0.975992 0.000005
O O5 0.747938 0.267316 0.329074
O O6 0.691858 0.345060 0.426672
O O7 0.004529 0.424995 0.300541
O O8 0.062742 0.250011 0.343616
O O9 0.293300 0.924961 0.800517
O O10 0.935708 0.267289 0.829076
O O11 0.101432 0.845072 0.926659
O O12 0.750000 0.250000 0.500000
#
# Coordination Sequence:
#
# PCOD9277819 Si02
#       6
#     8   8   4   8   8   8
#     4  11  20  36  67 110 147 182 234 296 372 430
#     4  11  25  47  71 103 143 186 242 302 365 438
#     4  12  28  46  74 102 144 200 236 300 382 448
#     4  11  24  40  70 104 138 191 240 294 364 439
#     4  11  25  47  71 103 143 186 242 302 365 438
#     4  10  20  41  71 101 141 184 233 301 354 419
#
# _framework density 22.837561000000001
#
# number of rings (size 3 to 8) (size 9 to 14) (size 15 to 20)
#    0.000    1.091    0.000    8.727    2.545    2.182 
#    0.000    1.818    0.000    0.000    0.000    0.000 
#    0.000    0.000    0.000    0.000    0.000    0.000 
#
# Total GULP energy -122730.678080 kJ/mol
# GULP energy per Si atom -5578.667185 kJ/mol
# Density = 2.278558 g / cm^3
# Si number density = 22.837561 Si / 1000 Ang^3
#
#
#
# Elastic Constant Matrix: (Units=GPa)
#
#
# Indices 1 2 3 4 5 6 
#
# 1 183.9623 61.6841 26.5820 0.0000 2.1339 0.0000
# 2 61.6841 144.4287 34.9822 0.0000 0.3993 0.0000
# 3 26.5820 34.9822 82.8318 -0.0002 -0.5949 0.0000
# 4 0.0000 0.0000 -0.0002 -1.2302 0.0001 0.7348
# 5 2.1339 0.3993 -0.5949 0.0001 9.1407 0.0000
# 6 0.0000 0.0000 0.0000 0.7348 0.0000 45.6585
#
#
#
# Elastic Compliance Matrix: (Units=1/GPa)
#
#
# Indices 1 2 3 4 5 6 
#
# 1 0.006438 -0.002498 -0.001022 0.000000 -0.001460 0.000000
# 2 -0.002498 0.008685 -0.002866 0.000000 0.000017 0.000000
# 3 -0.001022 -0.002866 0.013620 -0.000002 0.001250 0.000000
# 4 0.000000 0.000000 -0.000002 -0.805122 0.000011 0.012957
# 5 -0.001460 0.000017 0.001250 0.000011 0.109822 0.000000
# 6 0.000000 0.000000 0.000000 0.012957 0.000000 0.021693
#
#
# Mechanical properties :
#
#
# Convention : Reuss Voigt Hill
#
# Bulk Modulus (GPa) = 62.61201 73.07991 67.84596
# Shear Modulus (GPa) = -7.97743 29.91210 10.96734
#
# Velocity S-wave (km/s) = -1.87102 3.62301 2.19380
# Velocity P-wave (km/s) = 4.77579 7.04066 6.01578
#
# Compressibility (1/GPa) = 0.01597138
#
# Stress axis : x y z
#
# Youngs Moduli (GPa) = 155.32514 115.14197 73.42210
#
# Poissons Ratio (x) = 0.28765 0.07500
# Poissons Ratio (y) = 0.38803 0.21043
# Poissons Ratio (z) = 0.15867 0.33000
#
# Static dielectric constant tensor:
#      x y z
#    x 1.999090 0.000000 0.000910 
#    y 0.000000 1.902950 0.000000 
#    z 0.000910 0.000000 1.940550 
# 
# From -- ./inp_files/287866.got.cif
#   From: 2010.05.17/outbox.cif.g08.bks.cpg/sg15_144_cif.got.tgz:287866.got - 2010.06.03 18:47:42.
