data_PCOD9277594
_publ_section_title
;
Structure prediction by ZEFSAII (Michael W. Deem and Ramdas Pophale) SiO2 
 PCOD9277594
Probable space group: C 2/C
;
_chemical_formula_sum "Si O2"
_cell_formula_units_Z 44
_cell_length_a 13.960210
_cell_length_b 26.103722
_cell_length_c 5.606998
_cell_angle_alpha 90.000000
_cell_angle_beta 109.262634
_cell_angle_gamma 90.000000
_cell_volume 1928.875873
_symmetry_space_group_name_H-M "C 2/C"
_symmetry_group_IT_number 15
_symmetry_cell_setting 'monoclinic'
loop_
_space_group_symop_operation_xyz
x,y,z
-x,y,1/2-z
-x,-y,-z
x,-y,1/2+z
1/2+x,1/2+y,z
1/2-x,1/2+y,1/2-z
1/2-x,1/2-y,-z
1/2+x,1/2-y,1/2+z
loop_
_atom_site_type_symbol
_atom_site_label
_atom_site_fract_x
_atom_site_fract_y
_atom_site_fract_z
Si Si1 0.707896 0.168814 0.959971
Si Si2 0.000000 0.602793 0.750000
Si Si3 0.344788 0.801166 0.582557
Si Si4 0.410185 0.625800 0.006116
Si Si5 0.115963 0.018356 0.645462
Si Si6 0.500000 0.104911 0.250000
Si Si7 0.500000 0.713109 0.750000
O O1 0.600864 0.138485 0.849713
O O2 0.722628 0.191682 0.706613
O O3 0.699137 0.203812 0.187050
O O4 0.809418 0.136116 0.075201
O O5 0.000886 0.574770 0.497790
O O6 0.407079 0.854589 0.657220
O O7 0.416293 0.752893 0.585756
O O8 0.500000 0.607262 0.250000
O O9 0.385332 0.579197 0.809291
O O10 0.452650 0.675966 0.909437
O O11 0.162500 0.007699 0.419905
O O12 0.000000 0.000000 0.500000
#
# Coordination Sequence:
#
# PCOD9277594 Si02
#       7
#     8   4   8   8   8   4   4
#     4  10  22  39  63  85 119 165 216 261 298 361
#     4   8  14  32  54  78 104 149 200 243 292 340
#     4   9  20  39  56  78 114 172 213 245 303 342
#     4  12  27  40  62  98 129 158 212 268 314 373
#     4  10  20  41  66  86 121 162 194 244 322 400
#     4   7  12  26  52  70  94 137 202 247 268 330
#     4  11  26  40  62  86 134 172 216 270 300 364
#
# _framework density 22.811214
#
# number of rings (size 3 to 8) (size 9 to 14) (size 15 to 20)
#    0.000    2.182    1.818    2.182    5.091    1.455 
#    0.000    0.000    0.000    0.000    0.000    1.273 
#    0.000    0.000    0.000    0.000    0.000    0.000 
#
# Total GULP energy -122590.284084 kJ/mol
# GULP energy per Si atom -5572.285640 kJ/mol
# Density = 2.275929 g / cm^3
# Si number density = 22.811214 Si / 1000 Ang^3
#
#
#
# Elastic Constant Matrix: (Units=GPa)
#
#
# Indices 1 2 3 4 5 6 
#
# 1 91.5082 10.8778 18.5237 0.0000 10.6171 0.0000
# 2 10.8778 52.1083 7.3582 0.0000 -1.1201 0.0000
# 3 18.5237 7.3582 185.8022 0.0000 -34.0674 0.0000
# 4 0.0000 0.0000 0.0000 46.4149 0.0000 -26.6411
# 5 10.6171 -1.1201 -34.0674 0.0000 19.8153 0.0000
# 6 0.0000 0.0000 0.0000 -26.6411 0.0000 6.6270
#
#
#
# Elastic Compliance Matrix: (Units=1/GPa)
#
#
# Indices 1 2 3 4 5 6 
#
# 1 0.013644 -0.002609 -0.003832 0.000000 -0.014047 0.000000
# 2 -0.002609 0.019799 -0.000091 0.000000 0.002360 0.000000
# 3 -0.003832 -0.000091 0.008971 0.000000 0.017472 0.000000
# 4 0.000000 0.000000 0.000000 -0.016479 0.000000 -0.066246
# 5 -0.014047 0.002360 0.017472 0.000000 0.088165 0.000000
# 6 0.000000 0.000000 0.000000 -0.066246 0.000000 -0.115415
#
#
# Mechanical properties :
#
#
# Convention : Reuss Voigt Hill
#
# Bulk Modulus (GPa) = 34.07281 44.77090 39.42185
# Shear Modulus (GPa) = 232.20350 34.08204 133.14277
#
# Velocity S-wave (km/s) = 10.10023 3.86954 7.64813
# Velocity P-wave (km/s) = 12.28775 6.29554 9.76275
#
# Compressibility (1/GPa) = 0.02934892
#
# Stress axis : x y z
#
# Youngs Moduli (GPa) = 73.29435 50.50748 111.46635
#
# Poissons Ratio (x) = 0.13177 0.42718
# Poissons Ratio (y) = 0.19122 0.01017
# Poissons Ratio (z) = 0.28089 0.00461
#
# Static dielectric constant tensor:
#      x y z
#    x 1.905140 0.000000 -0.060950 
#    y 0.000000 1.801510 0.000000 
#    z -0.060950 0.000000 1.933840 
# 
# From -- ./inp_files/7654.got.cif
#   From: 2010.05.17/outbox.cif.g08.bks.cpg/sg15_4_cif.got.tgz:7654.got - 2010.06.03 18:47:42.
