data_PCOD9277591
_publ_section_title
;
Structure prediction by ZEFSAII (Michael W. Deem and Ramdas Pophale) SiO2 
 PCOD9277591
Probable space group: C 2/C
;
_chemical_formula_sum "Si O2"
_cell_formula_units_Z 36
_cell_length_a 7.773064
_cell_length_b 19.355640
_cell_length_c 20.557155
_cell_angle_alpha 90.000000
_cell_angle_beta 30.649488
_cell_angle_gamma 90.000000
_cell_volume 1576.701803
_symmetry_space_group_name_H-M "C 2/C"
_symmetry_group_IT_number 15
_symmetry_cell_setting 'monoclinic'
loop_
_space_group_symop_operation_xyz
x,y,z
-x,y,1/2-z
-x,-y,-z
x,-y,1/2+z
1/2+x,1/2+y,z
1/2-x,1/2+y,1/2-z
1/2-x,1/2-y,-z
1/2+x,1/2-y,1/2+z
loop_
_atom_site_type_symbol
_atom_site_label
_atom_site_fract_x
_atom_site_fract_y
_atom_site_fract_z
Si Si1 0.327827 0.372106 0.870802
Si Si2 0.066879 0.600994 0.795745
Si Si3 0.979900 0.815216 0.951047
Si Si4 0.877799 0.801417 0.364603
Si Si5 0.000000 0.993392 0.250000
O O1 0.500000 0.340539 0.750000
O O2 0.556052 0.354504 0.859202
O O3 0.312746 0.453164 0.859188
O O4 0.954807 0.344090 0.007466
O O5 0.310812 0.666108 0.698837
O O6 0.254345 0.553005 0.786738
O O7 0.000000 0.562970 0.750000
O O8 0.739315 0.633150 0.935223
O O9 0.266625 0.778352 0.900569
O O10 0.750000 0.750000 0.000000
O O11 0.000000 0.811176 0.250000
#
# Coordination Sequence:
#
# PCOD9277591 Si02
#       5
#     8   8   8   8   4
#     4   9  21  41  74 102 136 190 231 281 355 411
#     4  12  25  44  72 106 139 191 235 286 356 418
#     4  10  20  41  66 103 140 175 236 288 341 429
#     4  11  21  45  70  97 144 185 222 300 348 407
#     4  10  22  48  72  96 152 184 238 288 340 416
#
# _framework density 22.832471999999999
#
# number of rings (size 3 to 8) (size 9 to 14) (size 15 to 20)
#    0.667    0.889    5.556    0.000    0.000    8.000 
#    4.000    5.556    0.000    0.000    0.000    0.000 
#    0.000    0.000    0.000    0.000    0.000    0.000 
#
# Total GULP energy -100440.902178 kJ/mol
# GULP energy per Si atom -5580.050121 kJ/mol
# Density = 2.278050 g / cm^3
# Si number density = 22.832472 Si / 1000 Ang^3
#
#
#
# Elastic Constant Matrix: (Units=GPa)
#
#
# Indices 1 2 3 4 5 6 
#
# 1 85.3017 61.8773 18.1826 0.0608 14.4933 -0.1339
# 2 61.8773 110.5057 60.6483 0.0167 12.3402 -0.1034
# 3 18.1826 60.6483 141.2484 -0.0389 5.5446 -0.0405
# 4 0.0608 0.0167 -0.0389 35.7066 -0.0033 14.5609
# 5 14.4933 12.3402 5.5446 -0.0033 31.3792 0.0820
# 6 -0.1339 -0.1034 -0.0405 14.5609 0.0820 10.9466
#
#
#
# Elastic Compliance Matrix: (Units=1/GPa)
#
#
# Indices 1 2 3 4 5 6 
#
# 1 0.021497 -0.013135 0.003081 -0.000230 -0.005309 0.000495
# 2 -0.013135 0.020329 -0.007011 0.000002 -0.000689 0.000008
# 3 0.003081 -0.007011 0.009708 0.000010 -0.000381 -0.000003
# 4 -0.000230 0.000002 0.000010 0.061213 0.000323 -0.081430
# 5 -0.005309 -0.000689 -0.000381 0.000323 0.034661 -0.000762
# 6 0.000495 0.000008 -0.000003 -0.081430 -0.000762 0.199681
#
#
# Mechanical properties :
#
#
# Convention : Reuss Voigt Hill
#
# Bulk Modulus (GPa) = 57.45443 68.71913 63.08678
# Shear Modulus (GPa) = 12.91919 28.69631 20.80775
#
# Velocity S-wave (km/s) = 2.38129 3.54901 3.02209
# Velocity P-wave (km/s) = 5.72528 6.85248 6.31408
#
# Compressibility (1/GPa) = 0.01740510
#
# Stress axis : x y z
#
# Youngs Moduli (GPa) = 46.51727 49.19132 103.00436
#
# Poissons Ratio (x) = 0.64612 -0.31735
# Poissons Ratio (y) = 0.61100 0.72214
# Poissons Ratio (z) = -0.14332 0.34487
#
# Static dielectric constant tensor:
#      x y z
#    x 1.926710 0.000000 -0.012690 
#    y 0.000000 1.857420 0.000030 
#    z -0.012690 0.000030 1.863010 
# 
# From -- ./inp_files/233682.got.cif
#   From: 2010.05.17/outbox.cif.g08.bks.cpg/sg15_117_cif.got.tgz:233682.got - 2010.06.03 18:47:42.
