data_PCOD9277194
_publ_section_title
;
Structure prediction by ZEFSAII (Michael W. Deem and Ramdas Pophale) SiO2 
 PCOD9277194
Probable space group: C 2/C
;
_chemical_formula_sum "Si O2"
_cell_formula_units_Z 48
_cell_length_a 9.848091
_cell_length_b 25.086625
_cell_length_c 14.107180
_cell_angle_alpha 90.000000
_cell_angle_beta 133.818761
_cell_angle_gamma 90.000000
_cell_volume 2514.728075
_symmetry_space_group_name_H-M "C 2/C"
_symmetry_group_IT_number 15
_symmetry_cell_setting 'monoclinic'
loop_
_space_group_symop_operation_xyz
x,y,z
-x,y,1/2-z
-x,-y,-z
x,-y,1/2+z
1/2+x,1/2+y,z
1/2-x,1/2+y,1/2-z
1/2-x,1/2-y,-z
1/2+x,1/2-y,1/2+z
loop_
_atom_site_type_symbol
_atom_site_label
_atom_site_fract_x
_atom_site_fract_y
_atom_site_fract_z
Si Si1 0.570413 0.041395 0.677702
Si Si2 0.634623 0.697524 0.726265
Si Si3 0.604287 0.931697 0.899027
Si Si4 0.496693 0.857385 0.483802
Si Si5 0.778828 0.768625 0.622669
Si Si6 0.019378 0.076992 0.646148
O O1 0.500000 0.047678 0.750000
O O2 0.502589 0.091889 0.584995
O O3 0.795877 0.044207 0.790616
O O4 0.488969 0.985168 0.603434
O O5 0.500000 0.715124 0.750000
O O6 0.668464 0.735415 0.651858
O O7 0.556195 0.640337 0.651708
O O8 0.839189 0.683506 0.869114
O O9 0.500000 0.923206 0.750000
O O10 0.571466 0.881377 0.950143
O O11 0.828374 0.939484 0.002248
O O12 0.693355 0.827764 0.586379
O O13 0.750000 0.750000 0.500000
O O14 0.000000 0.765593 0.750000
O O15 0.000000 0.070068 0.750000
#
# Coordination Sequence:
#
# PCOD9277194 Si02
#       6
#     8   8   8   8   8   8
#     4  10  23  40  70  95 131 178 215 264 331 395
#     4  10  21  43  72  93 123 183 225 257 328 403
#     4  11  23  42  66 103 134 161 225 282 315 378
#     4  11  23  44  66  96 134 175 216 266 335 386
#     4  12  27  45  67 100 136 169 221 282 330 393
#     4  10  20  40  69  92 127 180 218 255 322 401
#
# _framework density 19.08755
#
# number of rings (size 3 to 8) (size 9 to 14) (size 15 to 20)
#    0.000    1.333    6.667    0.500    4.667    5.333 
#    3.000    0.000    0.000    0.000    0.000    0.000 
#    0.000    0.000    0.000    0.000    0.000    0.000 
#
# Total GULP energy -133927.461700 kJ/mol
# GULP energy per Si atom -5580.310904 kJ/mol
# Density = 1.904411 g / cm^3
# Si number density = 19.087550 Si / 1000 Ang^3
#
#
#
# Elastic Constant Matrix: (Units=GPa)
#
#
# Indices 1 2 3 4 5 6 
#
# 1 95.3747 35.4652 47.3276 0.0000 8.2853 0.0000
# 2 35.4652 52.7193 45.2535 0.0000 3.8592 0.0000
# 3 47.3276 45.2535 135.4208 0.0000 12.4742 0.0000
# 4 0.0000 0.0000 0.0000 21.7047 0.0000 15.9472
# 5 8.2853 3.8592 12.4742 0.0000 37.2697 0.0000
# 6 0.0000 0.0000 0.0000 15.9472 0.0000 21.7055
#
#
#
# Elastic Compliance Matrix: (Units=1/GPa)
#
#
# Indices 1 2 3 4 5 6 
#
# 1 0.014684 -0.007688 -0.002410 0.000000 -0.001662 0.000000
# 2 -0.007688 0.030625 -0.007648 0.000000 0.001098 0.000000
# 3 -0.002410 -0.007648 0.010999 0.000000 -0.002354 0.000000
# 4 0.000000 0.000000 0.000000 0.100119 0.000000 -0.073558
# 5 -0.001662 0.001098 -0.002354 0.000000 0.027875 0.000000
# 6 0.000000 0.000000 0.000000 -0.073558 0.000000 0.100115
#
#
# Mechanical properties :
#
#
# Convention : Reuss Voigt Hill
#
# Bulk Modulus (GPa) = 48.03938 59.95639 53.99788
# Shear Modulus (GPa) = 15.29766 26.50055 20.89911
#
# Velocity S-wave (km/s) = 2.83406 3.73012 3.31253
# Velocity P-wave (km/s) = 5.99431 7.07327 6.55602
#
# Compressibility (1/GPa) = 0.02081626
#
# Stress axis : x y z
#
# Youngs Moduli (GPa) = 68.10198 32.65298 90.91630
#
# Poissons Ratio (x) = 0.25104 0.21907
# Poissons Ratio (y) = 0.52357 0.69535
# Poissons Ratio (z) = 0.16410 0.24974
#
# Static dielectric constant tensor:
#      x y z
#    x 1.683290 0.000000 -0.010940 
#    y 0.000000 1.662780 0.000000 
#    z -0.010940 0.000000 1.656090 
# 
# From -- ./inp_files/139063.got.cif
#   From: 2010.05.17/outbox.cif.g08.bks.cpg/sg15_70_cif.got.tgz:139063.got - 2010.06.03 18:47:42.
