data_PCOD9277085
_publ_section_title
;
Structure prediction by ZEFSAII (Michael W. Deem and Ramdas Pophale) SiO2 
 PCOD9277085
Probable space group: C 2/C
;
_chemical_formula_sum "Si O2"
_cell_formula_units_Z 44
_cell_length_a 11.196370
_cell_length_b 31.354507
_cell_length_c 8.087665
_cell_angle_alpha 90.000000
_cell_angle_beta 128.898407
_cell_angle_gamma 90.000000
_cell_volume 2209.659833
_symmetry_space_group_name_H-M "C 2/C"
_symmetry_group_IT_number 15
_symmetry_cell_setting 'monoclinic'
loop_
_space_group_symop_operation_xyz
x,y,z
-x,y,1/2-z
-x,-y,-z
x,-y,1/2+z
1/2+x,1/2+y,z
1/2-x,1/2+y,1/2-z
1/2-x,1/2-y,-z
1/2+x,1/2-y,1/2+z
loop_
_atom_site_type_symbol
_atom_site_label
_atom_site_fract_x
_atom_site_fract_y
_atom_site_fract_z
Si Si1 0.220124 0.230873 0.706877
Si Si2 0.817821 0.685840 0.122284
Si Si3 0.105109 0.032913 0.196707
Si Si4 0.879518 0.526898 0.006788
Si Si5 0.000000 0.246064 0.250000
Si Si6 0.676327 0.594598 0.960673
O O1 0.209188 0.280529 0.753313
O O2 0.076966 0.220213 0.466303
O O3 0.368715 0.226196 0.721833
O O4 0.235576 0.205141 0.888080
O O5 0.000000 0.685013 0.250000
O O6 0.751571 0.638843 0.080076
O O7 0.000000 0.052329 0.250000
O O8 0.242593 0.007507 0.406991
O O9 0.171811 0.064695 0.118873
O O10 0.000000 0.000000 0.000000
O O11 0.000000 0.540161 0.250000
O O12 0.776550 0.570308 0.904766
O O13 0.000000 0.500000 0.000000
O O14 0.500000 0.599778 0.750000
#
# Coordination Sequence:
#
# PCOD9277085 Si02
#       6
#     8   8   8   8   4   8
#     4  10  22  42  73  93 132 179 215 266 331 399
#     4  11  24  43  66  98 132 176 224 266 328 398
#     4  12  21  43  66  89 127 174 222 268 325 389
#     4  12  22  38  68  93 121 167 216 269 330 384
#     4  10  20  40  68 102 124 166 226 266 328 388
#     4  12  26  42  66  96 132 172 225 275 314 391
#
# _framework density 19.912569000000001
#
# number of rings (size 3 to 8) (size 9 to 14) (size 15 to 20)
#    0.000    0.727    7.273    0.545    2.545    0.000 
#    1.636    0.000    4.000    0.000    0.000    0.000 
#    0.000    0.000    0.000    0.000    0.000    0.000 
#
# Total GULP energy -122527.312728 kJ/mol
# GULP energy per Si atom -5569.423306 kJ/mol
# Density = 1.986725 g / cm^3
# Si number density = 19.912569 Si / 1000 Ang^3
#
#
#
# Elastic Constant Matrix: (Units=GPa)
#
#
# Indices 1 2 3 4 5 6 
#
# 1 100.5098 39.0447 18.3598 0.0000 10.9655 0.0000
# 2 39.0447 119.1090 15.5529 0.0000 -0.0007 0.0000
# 3 18.3598 15.5529 110.2818 0.0000 15.3466 0.0000
# 4 0.0000 0.0000 0.0000 9.8236 0.0000 3.3795
# 5 10.9655 -0.0007 15.3466 0.0000 35.7135 0.0000
# 6 0.0000 0.0000 0.0000 3.3795 0.0000 20.2008
#
#
#
# Elastic Compliance Matrix: (Units=1/GPa)
#
#
# Indices 1 2 3 4 5 6 
#
# 1 0.011958 -0.003789 -0.001006 0.000000 -0.003240 0.000000
# 2 -0.003789 0.009764 -0.000966 0.000000 0.001579 0.000000
# 3 -0.001006 -0.000966 0.009922 0.000000 -0.003955 0.000000
# 4 0.000000 0.000000 0.000000 0.108012 0.000000 -0.018070
# 5 -0.003240 0.001579 -0.003955 0.000000 0.030695 0.000000
# 6 0.000000 0.000000 0.000000 -0.018070 0.000000 0.052526
#
#
# Mechanical properties :
#
#
# Convention : Reuss Voigt Hill
#
# Bulk Modulus (GPa) = 49.69412 52.86837 51.28125
# Shear Modulus (GPa) = 20.73793 30.27714 25.50754
#
# Velocity S-wave (km/s) = 3.23065 3.90359 3.58296
# Velocity P-wave (km/s) = 6.23911 6.85020 6.55178
#
# Compressibility (1/GPa) = 0.02012310
#
# Stress axis : x y z
#
# Youngs Moduli (GPa) = 83.62470 102.41969 100.78962
#
# Poissons Ratio (x) = 0.38803 0.10136
# Poissons Ratio (y) = 0.31683 0.09735
# Poissons Ratio (z) = 0.08410 0.09893
#
# Static dielectric constant tensor:
#      x y z
#    x 1.616590 0.000000 -0.048430 
#    y 0.000000 1.617070 0.000000 
#    z -0.048430 0.000000 1.713230 
# 
# From -- ./inp_files/34483.got.cif
#   From: 2010.05.17/outbox.cif.g08.bks.cpg/sg15_18_cif.got.tgz:34483.got - 2010.06.03 18:47:42.
