data_PCOD9277135
_publ_section_title
;
Structure prediction by ZEFSAII (Michael W. Deem and Ramdas Pophale) SiO2 
 PCOD9277135
Probable space group: C 2/C
;
_chemical_formula_sum "Si O2"
_cell_formula_units_Z 56
_cell_length_a 17.270165
_cell_length_b 9.302533
_cell_length_c 17.437565
_cell_angle_alpha 90.000000
_cell_angle_beta 115.697419
_cell_angle_gamma 90.000000
_cell_volume 2524.380840
_symmetry_space_group_name_H-M "C 2/C"
_symmetry_group_IT_number 15
_symmetry_cell_setting 'monoclinic'
loop_
_space_group_symop_operation_xyz
x,y,z
-x,y,1/2-z
-x,-y,-z
x,-y,1/2+z
1/2+x,1/2+y,z
1/2-x,1/2+y,1/2-z
1/2-x,1/2-y,-z
1/2+x,1/2-y,1/2+z
loop_
_atom_site_type_symbol
_atom_site_label
_atom_site_fract_x
_atom_site_fract_y
_atom_site_fract_z
Si Si1 0.663348 0.167976 0.485091
Si Si2 0.116900 0.350040 0.276549
Si Si3 0.565116 0.373160 0.009768
Si Si4 0.514242 0.311179 0.147398
Si Si5 0.500000 0.918642 0.750000
Si Si6 0.550771 0.118586 0.576947
Si Si7 0.000000 0.920092 0.750000
Si Si8 0.751306 0.604880 0.548489
O O1 0.750000 0.250000 0.500000
O O2 0.579701 0.241200 0.409571
O O3 0.631145 0.166746 0.558892
O O4 0.691033 0.008332 0.472377
O O5 0.067073 0.464819 0.309457
O O6 0.091536 0.401499 0.179515
O O7 0.212000 0.364688 0.350417
O O8 0.079684 0.190601 0.276109
O O9 0.573620 0.308283 0.098580
O O10 0.651665 0.436428 0.013367
O O11 0.500000 0.500000 0.000000
O O12 0.517895 0.248086 0.942438
O O13 0.552308 0.194563 0.221800
O O14 0.502646 0.467901 0.179907
O O15 0.500000 0.000000 0.500000
O O16 0.750000 0.750000 0.500000
#
# Coordination Sequence:
#
# PCOD9277135 Si02
#       8
#     8   8   8   8   4   8   4   8
#     4  11  24  44  68  97 136 180 231 286 346 420
#     4  11  24  42  70 103 144 177 235 298 362 424
#     4  11  24  43  69  96 140 184 231 281 360 424
#     4  10  21  44  64  96 131 186 229 277 346 432
#     4  10  20  40  68  94 130 178 232 284 344 420
#     4  11  24  46  72  99 135 189 234 284 357 434
#     4  10  24  38  72 104 134 182 234 292 358 430
#     4  12  27  44  69 109 143 182 234 304 360 423
#
# _framework density 22.183658999999999
#
# number of rings (size 3 to 8) (size 9 to 14) (size 15 to 20)
#    0.000    1.143    1.429    5.143   10.000    0.000 
#    5.143    5.714    0.000    0.000    0.000    0.000 
#    0.000    0.000    0.000    0.000    0.000    0.000 
#
# Total GULP energy -156000.570813 kJ/mol
# GULP energy per Si atom -5571.448958 kJ/mol
# Density = 2.213317 g / cm^3
# Si number density = 22.183659 Si / 1000 Ang^3
#
#
#
# Elastic Constant Matrix: (Units=GPa)
#
#
# Indices 1 2 3 4 5 6 
#
# 1 94.4867 -0.7969 11.4633 0.0000 4.3463 0.0000
# 2 -0.7969 131.4951 17.2810 0.0000 1.9726 0.0000
# 3 11.4633 17.2810 88.1877 0.0000 -10.8586 0.0000
# 4 0.0000 0.0000 0.0000 25.0408 0.0000 -3.4964
# 5 4.3463 1.9726 -10.8586 0.0000 34.2740 0.0000
# 6 0.0000 0.0000 0.0000 -3.4964 0.0000 33.6493
#
#
#
# Elastic Compliance Matrix: (Units=1/GPa)
#
#
# Indices 1 2 3 4 5 6 
#
# 1 0.010884 0.000321 -0.001717 0.000000 -0.001943 0.000000
# 2 0.000321 0.007847 -0.001706 0.000000 -0.001033 0.000000
# 3 -0.001717 -0.001706 0.012420 0.000000 0.004251 0.000000
# 4 0.000000 0.000000 0.000000 0.040523 0.000000 0.004211
# 5 -0.001943 -0.001033 0.004251 0.000000 0.030829 0.000000
# 6 0.000000 0.000000 0.000000 0.004211 0.000000 0.030156
#
#
# Mechanical properties :
#
#
# Convention : Reuss Voigt Hill
#
# Bulk Modulus (GPa) = 40.08700 41.11825 40.60263
# Shear Modulus (GPa) = 33.97228 37.67430 35.82329
#
# Velocity S-wave (km/s) = 3.91757 4.12550 4.02288
# Velocity P-wave (km/s) = 6.21071 6.42407 6.31829
#
# Compressibility (1/GPa) = 0.02494574
#
# Stress axis : x y z
#
# Youngs Moduli (GPa) = 91.87929 127.44465 80.51254
#
# Poissons Ratio (x) = -0.04087 0.13822
# Poissons Ratio (y) = -0.02947 0.13739
# Poissons Ratio (z) = 0.15774 0.21748
#
# Static dielectric constant tensor:
#      x y z
#    x 1.803430 0.000000 -0.119420 
#    y 0.000000 3.199230 0.000000 
#    z -0.119420 0.000000 2.106230 
# 
# From -- ./inp_files/247601.got.cif
#   From: 2010.05.17/outbox.cif.g08.bks.cpg/sg15_124_cif.got.tgz:247601.got - 2010.06.03 18:47:42.
