data_PCOD9277847
_publ_section_title
;
Structure prediction by ZEFSAII (Michael W. Deem and Ramdas Pophale) SiO2 
 PCOD9277847
Probable space group: C 2/C
;
_chemical_formula_sum "Si O2"
_cell_formula_units_Z 64
_cell_length_a 15.275838
_cell_length_b 9.130448
_cell_length_c 23.645992
_cell_angle_alpha 90.000000
_cell_angle_beta 72.191889
_cell_angle_gamma 90.000000
_cell_volume 3140.009038
_symmetry_space_group_name_H-M "C 2/C"
_symmetry_group_IT_number 15
_symmetry_cell_setting 'monoclinic'
loop_
_space_group_symop_operation_xyz
x,y,z
-x,y,1/2-z
-x,-y,-z
x,-y,1/2+z
1/2+x,1/2+y,z
1/2-x,1/2+y,1/2-z
1/2-x,1/2-y,-z
1/2+x,1/2-y,1/2+z
loop_
_atom_site_type_symbol
_atom_site_label
_atom_site_fract_x
_atom_site_fract_y
_atom_site_fract_z
Si Si1 0.111884 0.640036 0.651201
Si Si2 0.314864 0.001067 0.255852
Si Si3 0.984451 0.779700 0.363449
Si Si4 0.195388 0.391521 0.580208
Si Si5 0.318721 0.875508 0.049806
Si Si6 0.351906 0.332689 0.252857
Si Si7 0.636703 0.516577 0.133970
Si Si8 0.936611 0.494655 0.121694
O O1 0.117012 0.580992 0.714320
O O2 0.196464 0.553210 0.604826
O O3 0.021977 0.586375 0.634955
O O4 0.122220 0.812755 0.645579
O O5 0.217438 0.919727 0.274531
O O6 0.355465 0.991077 0.184417
O O7 0.308230 0.172451 0.272563
O O8 0.052171 0.799304 0.297217
O O9 0.038136 0.665896 0.392743
O O10 0.889373 0.691042 0.372013
O O11 0.945082 0.939126 0.385980
O O12 0.284285 0.290160 0.568287
O O13 0.169040 0.392589 0.519370
O O14 0.233112 0.977667 0.085605
O O15 0.404142 0.918791 0.071167
O O16 0.364265 0.434934 0.305000
#
# Coordination Sequence:
#
# PCOD9277847 Si02
#       8
#     8   8   8   8   8   8   8   8
#     4  11  24  37  58  93 133 162 208 259 321 375
#     4  11  22  35  59  91 127 163 204 259 322 388
#     4   9  21  37  59  87 122 160 203 254 315 370
#     4   9  21  43  67  92 121 173 212 264 315 380
#     4  10  20  41  72  88 121 167 221 256 320 382
#     4  11  21  37  60  90 124 168 207 258 316 382
#     4  11  22  40  58  89 127 166 207 259 316 378
#     4  10  21  39  62  92 120 165 206 263 315 388
#
# _framework density 20.382106
#
# number of rings (size 3 to 8) (size 9 to 14) (size 15 to 20)
#    0.000    1.750    1.250    3.750    1.750    8.500 
#    0.000    0.000    2.750    3.000    0.000    0.000 
#    0.000    0.000    0.000    0.000    0.000    0.000 
#
# Total GULP energy -178528.139026 kJ/mol
# GULP energy per Si atom -5579.004345 kJ/mol
# Density = 2.033572 g / cm^3
# Si number density = 20.382106 Si / 1000 Ang^3
#
#
#
# Elastic Constant Matrix: (Units=GPa)
#
#
# Indices 1 2 3 4 5 6 
#
# 1 67.0161 35.8856 28.0444 0.0000 10.0017 0.0000
# 2 35.8856 178.6532 40.8248 0.0000 11.0697 0.0000
# 3 28.0444 40.8248 50.5992 0.0000 1.5816 0.0000
# 4 0.0000 0.0000 0.0000 18.1311 0.0000 1.2659
# 5 10.0017 11.0697 1.5816 0.0000 27.5143 0.0000
# 6 0.0000 0.0000 0.0000 1.2659 0.0000 16.5025
#
#
#
# Elastic Compliance Matrix: (Units=1/GPa)
#
#
# Indices 1 2 3 4 5 6 
#
# 1 0.020948 -0.001474 -0.010220 0.000000 -0.006434 0.000000
# 2 -0.001474 0.007135 -0.004876 0.000000 -0.002055 0.000000
# 3 -0.010220 -0.004876 0.029237 0.000000 0.003996 0.000000
# 4 0.000000 0.000000 0.000000 0.055451 0.000000 -0.004254
# 5 -0.006434 -0.002055 0.003996 0.000000 0.039281 0.000000
# 6 0.000000 0.000000 0.000000 -0.004254 0.000000 0.060923
#
#
# Mechanical properties :
#
#
# Convention : Reuss Voigt Hill
#
# Bulk Modulus (GPa) = 41.35573 56.19756 48.77664
# Shear Modulus (GPa) = 19.67156 25.19714 22.43435
#
# Velocity S-wave (km/s) = 3.11004 3.51983 3.32126
# Velocity P-wave (km/s) = 5.76461 6.64461 6.22019
#
# Compressibility (1/GPa) = 0.02418044
#
# Stress axis : x y z
#
# Youngs Moduli (GPa) = 47.73700 140.15605 34.20362
#
# Poissons Ratio (x) = 0.20654 0.34957
# Poissons Ratio (y) = 0.07035 0.16677
# Poissons Ratio (z) = 0.48789 0.68335
#
# Static dielectric constant tensor:
#      x y z
#    x 1.766020 0.000000 0.003550 
#    y 0.000000 1.745860 0.000000 
#    z 0.003550 0.000000 1.735390 
# 
# From -- ./inp_files/295146.got.cif
#   From: 2010.05.17/outbox.cif.g08.bks.cpg/sg15_148_cif.got.tgz:295146.got - 2010.06.03 18:47:42.
