data_PCOD9277522
_publ_section_title
;
Structure prediction by ZEFSAII (Michael W. Deem and Ramdas Pophale) SiO2 
 PCOD9277522
Probable space group: C 2/C
;
_chemical_formula_sum "Si O2"
_cell_formula_units_Z 60
_cell_length_a 17.489804
_cell_length_b 10.719679
_cell_length_c 22.957732
_cell_angle_alpha 90.000000
_cell_angle_beta 34.011137
_cell_angle_gamma 90.000000
_cell_volume 2407.589737
_symmetry_space_group_name_H-M "C 2/C"
_symmetry_group_IT_number 15
_symmetry_cell_setting 'monoclinic'
loop_
_space_group_symop_operation_xyz
x,y,z
-x,y,1/2-z
-x,-y,-z
x,-y,1/2+z
1/2+x,1/2+y,z
1/2-x,1/2+y,1/2-z
1/2-x,1/2-y,-z
1/2+x,1/2-y,1/2+z
loop_
_atom_site_type_symbol
_atom_site_label
_atom_site_fract_x
_atom_site_fract_y
_atom_site_fract_z
Si Si1 0.480733 0.935211 0.143289
Si Si2 0.193988 0.373579 0.798664
Si Si3 0.010859 0.924919 0.578940
Si Si4 0.534617 0.702191 0.546398
Si Si5 0.820795 0.614927 0.634050
Si Si6 0.000000 0.281687 0.250000
Si Si7 0.502836 0.394215 0.316812
Si Si8 0.715086 0.797236 0.957259
O O1 0.387325 0.860211 0.155534
O O2 0.492251 0.870238 0.198025
O O3 0.630967 0.924487 0.019966
O O4 0.405645 0.067323 0.188274
O O5 0.348927 0.393710 0.680243
O O6 0.164646 0.464237 0.872872
O O7 0.122914 0.245410 0.860137
O O8 0.111986 0.812271 0.500027
O O9 0.032766 0.970567 0.632741
O O10 0.044555 0.055519 0.524978
O O11 0.614954 0.798742 0.455715
O O12 0.576293 0.698319 0.588782
O O13 0.660321 0.632351 0.732355
O O14 0.860042 0.203486 0.334365
O O15 0.500000 0.385442 0.250000
O O16 0.750000 0.750000 0.000000
#
# Coordination Sequence:
#
# PCOD9277522 Si02
#       8
#     8   8   8   8   8   4   8   8
#     4   9  21  41  65  97 136 178 233 287 361 423
#     4   9  20  40  66  99 137 175 231 294 347 435
#     4   9  22  40  68  97 133 182 233 286 362 416
#     4  10  20  41  64  95 135 173 234 283 350 416
#     4   9  20  40  65  99 127 183 234 283 355 428
#     4  10  22  46  64 100 140 182 238 300 362 408
#     4   9  21  42  60  99 139 174 236 285 351 424
#     4  10  22  45  66  98 137 183 241 295 360 426
#
# _framework density 24.921188999999998
#
# number of rings (size 3 to 8) (size 9 to 14) (size 15 to 20)
#    1.600    1.067    0.000    0.400    3.733    2.667 
#   15.600    1.333    0.000    0.000    0.000    0.000 
#    0.000    0.000    0.000    0.000    0.000    0.000 
#
# Total GULP energy -167153.706624 kJ/mol
# GULP energy per Si atom -5571.790221 kJ/mol
# Density = 2.486447 g / cm^3
# Si number density = 24.921189 Si / 1000 Ang^3
#
#
#
# Elastic Constant Matrix: (Units=GPa)
#
#
# Indices 1 2 3 4 5 6 
#
# 1 129.9369 22.0619 37.4408 0.0000 24.3405 0.0000
# 2 22.0619 81.7745 27.8648 0.0000 -5.8563 0.0000
# 3 37.4408 27.8648 102.9486 0.0001 -5.4510 0.0000
# 4 0.0000 0.0000 0.0001 22.0350 0.0000 -0.6383
# 5 24.3405 -5.8563 -5.4510 0.0000 52.0078 0.0000
# 6 0.0000 0.0000 0.0000 -0.6383 0.0000 33.3322
#
#
#
# Elastic Compliance Matrix: (Units=1/GPa)
#
#
# Indices 1 2 3 4 5 6 
#
# 1 0.009979 -0.001913 -0.003389 0.000000 -0.005241 0.000000
# 2 -0.001913 0.013906 -0.002954 0.000000 0.002151 0.000000
# 3 -0.003389 -0.002954 0.011878 0.000000 0.002498 0.000000
# 4 0.000000 0.000000 0.000000 0.045408 0.000000 0.000870
# 5 -0.005241 0.002151 0.002498 0.000000 0.022185 0.000000
# 6 0.000000 0.000000 0.000000 0.000870 0.000000 0.030018
#
#
# Mechanical properties :
#
#
# Convention : Reuss Voigt Hill
#
# Bulk Modulus (GPa) = 51.94636 54.37724 53.16180
# Shear Modulus (GPa) = 31.98942 36.62783 34.30863
#
# Velocity S-wave (km/s) = 3.58666 3.83789 3.71440
# Velocity P-wave (km/s) = 6.16779 6.44253 6.30666
#
# Compressibility (1/GPa) = 0.01925063
#
# Stress axis : x y z
#
# Youngs Moduli (GPa) = 100.20935 71.91384 84.18912
#
# Poissons Ratio (x) = 0.13756 0.28532
# Poissons Ratio (y) = 0.19168 0.24871
# Poissons Ratio (z) = 0.33961 0.21245
#
# Static dielectric constant tensor:
#      x y z
#    x 2.058490 0.000000 0.070610 
#    y 0.000000 2.079410 0.000000 
#    z 0.070610 0.000000 2.022120 
# 
# From -- ./inp_files/277533.got.cif
#   From: 2010.05.17/outbox.cif.g08.bks.cpg/sg15_139_cif.got.tgz:277533.got - 2010.06.03 18:47:42.
