data_PCOD9277273
_publ_section_title
;
Structure prediction by ZEFSAII (Michael W. Deem and Ramdas Pophale) SiO2 
 PCOD9277273
Probable space group: C 2/C
;
_chemical_formula_sum "Si O2"
_cell_formula_units_Z 56
_cell_length_a 19.340700
_cell_length_b 7.550555
_cell_length_c 15.683200
_cell_angle_alpha 90.000000
_cell_angle_beta 80.583384
_cell_angle_gamma 90.000000
_cell_volume 2259.403162
_symmetry_space_group_name_H-M "C 2/C"
_symmetry_group_IT_number 15
_symmetry_cell_setting 'monoclinic'
loop_
_space_group_symop_operation_xyz
x,y,z
-x,y,1/2-z
-x,-y,-z
x,-y,1/2+z
1/2+x,1/2+y,z
1/2-x,1/2+y,1/2-z
1/2-x,1/2-y,-z
1/2+x,1/2-y,1/2+z
loop_
_atom_site_type_symbol
_atom_site_label
_atom_site_fract_x
_atom_site_fract_y
_atom_site_fract_z
Si Si1 0.695726 0.161365 0.410151
Si Si2 0.369307 0.465395 0.646824
Si Si3 0.993604 0.750115 0.927721
Si Si4 0.901957 0.176249 0.786699
Si Si5 0.008538 0.659101 0.379751
Si Si6 0.289075 0.916914 0.782811
Si Si7 0.653014 0.199311 0.596434
O O1 0.658942 0.353478 0.395341
O O2 0.659115 0.094247 0.504036
O O3 0.778176 0.178418 0.415838
O O4 0.695024 0.060006 0.320685
O O5 0.433276 0.358175 0.591713
O O6 0.403844 0.497719 0.733485
O O7 0.292749 0.390542 0.682470
O O8 0.975703 0.734507 0.030882
O O9 0.003013 0.550420 0.890625
O O10 0.921048 0.801527 0.894008
O O11 0.941058 0.229498 0.863261
O O12 0.822468 0.232733 0.806004
O O13 0.938016 0.302694 0.707310
O O14 0.329757 0.065557 0.829825
#
# Coordination Sequence:
#
# PCOD9277273 Si02
#       7
#     8   8   8   8   8   8   8
#     4   9  21  41  67 100 144 185 236 300 355 416
#     4  10  23  41  69 103 140 179 242 295 355 419
#     4  11  22  42  69 106 131 184 240 293 352 439
#     4  10  21  45  64  95 140 187 223 298 357 419
#     4  10  23  41  68  96 143 180 230 290 366 421
#     4  10  20  42  68  99 139 186 240 288 353 431
#     4  10  20  40  70  98 136 191 234 283 360 426
#
# _framework density 24.785308000000001
#
# number of rings (size 3 to 8) (size 9 to 14) (size 15 to 20)
#    0.000    2.000    1.429    1.714    0.000    5.714 
#   12.857    0.714    0.000    0.000    0.000    0.000 
#    0.000    0.143    0.000    0.000    0.000    0.000 
#
# Total GULP energy -156074.484838 kJ/mol
# GULP energy per Si atom -5574.088744 kJ/mol
# Density = 2.472890 g / cm^3
# Si number density = 24.785308 Si / 1000 Ang^3
#
#
#
# Elastic Constant Matrix: (Units=GPa)
#
#
# Indices 1 2 3 4 5 6 
#
# 1 168.6341 39.3765 69.3389 0.0000 17.9168 0.0000
# 2 39.3765 52.5520 24.1999 0.0000 0.2798 0.0000
# 3 69.3389 24.1999 126.0533 0.0000 23.5147 0.0000
# 4 0.0000 0.0000 0.0000 33.7975 0.0000 -2.2220
# 5 17.9168 0.2798 23.5147 0.0000 34.2264 0.0000
# 6 0.0000 0.0000 0.0000 -2.2220 0.0000 22.5376
#
#
#
# Elastic Compliance Matrix: (Units=1/GPa)
#
#
# Indices 1 2 3 4 5 6 
#
# 1 0.008733 -0.004942 -0.003452 0.000000 -0.002159 0.000000
# 2 -0.004942 0.023936 -0.002664 0.000000 0.004222 0.000000
# 3 -0.003452 -0.002664 0.011473 0.000000 -0.006053 0.000000
# 4 0.000000 0.000000 0.000000 0.029781 0.000000 0.002936
# 5 -0.002159 0.004222 -0.006053 0.000000 0.034472 0.000000
# 6 0.000000 0.000000 0.000000 0.002936 0.000000 0.044660
#
#
# Mechanical properties :
#
#
# Convention : Reuss Voigt Hill
#
# Bulk Modulus (GPa) = 45.40364 68.11890 56.76127
# Shear Modulus (GPa) = 27.39519 32.40056 29.89787
#
# Velocity S-wave (km/s) = 3.32821 3.61951 3.47691
# Velocity P-wave (km/s) = 5.75568 6.70903 6.25056
#
# Compressibility (1/GPa) = 0.02202467
#
# Stress axis : x y z
#
# Youngs Moduli (GPa) = 114.50957 41.77746 87.16270
#
# Poissons Ratio (x) = 0.20648 0.30090
# Poissons Ratio (y) = 0.56594 0.23223
# Poissons Ratio (z) = 0.39530 0.11131
#
# Static dielectric constant tensor:
#      x y z
#    x 2.084530 0.000000 -0.018260 
#    y 0.000000 2.044920 0.000000 
#    z -0.018260 0.000000 2.050350 
# 
# From -- ./inp_files/214423.got.cif
#   From: 2010.05.17/outbox.cif.g08.bks.cpg/sg15_108_cif.got.tgz:214423.got - 2010.06.03 18:47:42.
