data_PCOD9277311
_publ_section_title
;
Structure prediction by ZEFSAII (Michael W. Deem and Ramdas Pophale) SiO2 
 PCOD9277311
Probable space group: C 2/C
;
_chemical_formula_sum "Si O2"
_cell_formula_units_Z 48
_cell_length_a 28.204747
_cell_length_b 9.776351
_cell_length_c 12.672948
_cell_angle_alpha 90.000000
_cell_angle_beta 137.961326
_cell_angle_gamma 90.000000
_cell_volume 2339.984014
_symmetry_space_group_name_H-M "C 2/C"
_symmetry_group_IT_number 15
_symmetry_cell_setting 'monoclinic'
loop_
_space_group_symop_operation_xyz
x,y,z
-x,y,1/2-z
-x,-y,-z
x,-y,1/2+z
1/2+x,1/2+y,z
1/2-x,1/2+y,1/2-z
1/2-x,1/2-y,-z
1/2+x,1/2-y,1/2+z
loop_
_atom_site_type_symbol
_atom_site_label
_atom_site_fract_x
_atom_site_fract_y
_atom_site_fract_z
Si Si1 0.188759 0.211816 0.983633
Si Si2 0.438477 0.095029 0.295535
Si Si3 0.906769 0.499406 0.957541
Si Si4 0.078094 0.320803 0.332639
Si Si5 0.168279 0.898980 0.895535
Si Si6 0.292223 0.235196 0.740057
O O1 0.118885 0.308283 0.854806
O O2 0.168094 0.058013 0.918710
O O3 0.250000 0.250000 0.000000
O O4 0.214924 0.221668 0.148820
O O5 0.521106 0.087528 0.398737
O O6 0.430270 0.108517 0.406760
O O7 0.415986 0.936699 0.245707
O O8 0.847704 0.609854 0.834284
O O9 0.879582 0.399535 0.005045
O O10 0.098191 0.177297 0.318273
O O11 0.000000 0.315160 0.250000
O O12 0.183075 0.856932 0.798390
O O13 0.225288 0.826855 0.067402
#
# Coordination Sequence:
#
# PCOD9277311 Si02
#       6
#     8   8   8   8   8   8
#     4  12  28  43  67 101 136 176 226 279 338 401
#     4  10  21  40  68 100 125 173 227 266 328 398
#     4  10  20  40  72  95 131 173 222 271 321 404
#     4  10  21  41  68  97 130 174 220 271 330 397
#     4  11  27  44  66 101 137 176 223 277 346 391
#     4  11  25  44  68  94 136 178 220 281 333 401
#
# _framework density 20.512961000000001
#
# number of rings (size 3 to 8) (size 9 to 14) (size 15 to 20)
#    0.000    1.333    3.333    1.000    9.333    0.000 
#    3.000    0.833    0.000    0.000    0.000    0.000 
#    0.000    0.000    0.000    0.000    0.000    0.000 
#
# Total GULP energy -133717.888976 kJ/mol
# GULP energy per Si atom -5571.578707 kJ/mol
# Density = 2.046627 g / cm^3
# Si number density = 20.512961 Si / 1000 Ang^3
#
#
#
# Elastic Constant Matrix: (Units=GPa)
#
#
# Indices 1 2 3 4 5 6 
#
# 1 104.3437 36.5962 26.2633 0.0000 -22.3313 0.0000
# 2 36.5962 120.8564 5.9996 0.0000 2.7105 0.0000
# 3 26.2633 5.9996 63.9980 0.0000 -21.5398 0.0000
# 4 0.0000 0.0000 0.0000 27.1674 0.0000 -3.1987
# 5 -22.3313 2.7105 -21.5398 0.0000 33.3808 0.0000
# 6 0.0000 0.0000 0.0000 -3.1987 0.0000 20.0296
#
#
#
# Elastic Compliance Matrix: (Units=1/GPa)
#
#
# Indices 1 2 3 4 5 6 
#
# 1 0.013263 -0.004062 -0.002510 0.000000 0.007583 0.000000
# 2 -0.004062 0.009616 -0.000526 0.000000 -0.003838 0.000000
# 3 -0.002510 -0.000526 0.020636 0.000000 0.011679 0.000000
# 4 0.000000 0.000000 0.000000 0.037514 0.000000 0.005991
# 5 0.007583 -0.003838 0.011679 0.000000 0.042878 0.000000
# 6 0.000000 0.000000 0.000000 0.005991 0.000000 0.050883
#
#
# Mechanical properties :
#
#
# Convention : Reuss Voigt Hill
#
# Bulk Modulus (GPa) = 34.10707 47.43515 40.77111
# Shear Modulus (GPa) = 25.15613 30.80482 27.98047
#
# Velocity S-wave (km/s) = 3.50573 3.87941 3.69730
# Velocity P-wave (km/s) = 5.74892 6.57580 6.17621
#
# Compressibility (1/GPa) = 0.02931944
#
# Stress axis : x y z
#
# Youngs Moduli (GPa) = 75.39887 103.98957 48.45960
#
# Poissons Ratio (x) = 0.42236 0.12163
# Poissons Ratio (y) = 0.30624 0.02551
# Poissons Ratio (z) = 0.18924 0.05473
#
# Static dielectric constant tensor:
#      x y z
#    x 1.813720 0.000000 -0.046170 
#    y 0.000000 1.680870 0.000000 
#    z -0.046170 0.000000 1.855960 
# 
# From -- ./inp_files/180907.got.cif
#   From: 2010.05.17/outbox.cif.g08.bks.cpg/sg15_91_cif.got.tgz:180907.got - 2010.06.03 18:47:42.
