data_PCOD9277665
_publ_section_title
;
Structure prediction by ZEFSAII (Michael W. Deem and Ramdas Pophale) SiO2 
 PCOD9277665
Probable space group: C 2/C
;
_chemical_formula_sum "Si O2"
_cell_formula_units_Z 52
_cell_length_a 11.928689
_cell_length_b 7.973515
_cell_length_c 25.010787
_cell_angle_alpha 90.000000
_cell_angle_beta 114.004658
_cell_angle_gamma 90.000000
_cell_volume 2173.123110
_symmetry_space_group_name_H-M "C 2/C"
_symmetry_group_IT_number 15
_symmetry_cell_setting 'monoclinic'
loop_
_space_group_symop_operation_xyz
x,y,z
-x,y,1/2-z
-x,-y,-z
x,-y,1/2+z
1/2+x,1/2+y,z
1/2-x,1/2+y,1/2-z
1/2-x,1/2-y,-z
1/2+x,1/2-y,1/2+z
loop_
_atom_site_type_symbol
_atom_site_label
_atom_site_fract_x
_atom_site_fract_y
_atom_site_fract_z
Si Si1 0.310414 0.505858 0.284686
Si Si2 0.000000 0.170666 0.750000
Si Si3 0.393330 0.879857 0.630118
Si Si4 0.433946 0.149878 0.791232
Si Si5 0.886864 0.495960 0.019085
Si Si6 0.134937 0.975190 0.093749
Si Si7 0.868926 0.886603 0.529693
O O1 0.386894 0.434515 0.250634
O O2 0.361979 0.693707 0.302758
O O3 0.167765 0.489702 0.243930
O O4 0.332705 0.395406 0.342675
O O5 0.051239 0.264214 0.812893
O O6 0.461953 0.056210 0.655582
O O7 0.409776 0.864475 0.569190
O O8 0.246967 0.893261 0.609643
O O9 0.500000 0.208453 0.750000
O O10 0.875087 0.310290 0.042929
O O11 0.745649 0.496171 0.970181
O O12 0.000000 0.500000 0.000000
O O13 0.135472 0.887815 0.036258
O O14 0.997861 0.041185 0.072895
#
# Coordination Sequence:
#
# PCOD9277665 Si02
#       7
#     8   4   8   8   8   8   8
#     4  12  25  43  70  98 140 176 232 278 351 404
#     4  12  26  42  62 110 130 184 232 276 344 426
#     4  11  22  44  69  91 143 174 225 284 345 396
#     4  12  23  45  67  99 132 182 227 281 337 415
#     4  10  22  41  66  97 129 178 221 282 334 410
#     4  10  20  41  67  88 131 179 208 296 330 396
#     4   9  21  42  63  97 129 167 236 265 347 400
#
# _framework density 23.928695999999999
#
# number of rings (size 3 to 8) (size 9 to 14) (size 15 to 20)
#    0.000    1.231    3.077    2.769    2.154    0.000 
#    5.538    2.308    0.000    0.000    0.000    0.000 
#    0.000    0.000    0.000    0.000    0.000    0.000 
#
# Total GULP energy -145053.586316 kJ/mol
# GULP energy per Si atom -5578.984089 kJ/mol
# Density = 2.387423 g / cm^3
# Si number density = 23.928696 Si / 1000 Ang^3
#
#
#
# Elastic Constant Matrix: (Units=GPa)
#
#
# Indices 1 2 3 4 5 6 
#
# 1 184.8816 11.4639 55.1804 0.0000 16.8563 0.0000
# 2 11.4639 43.2126 -8.5930 0.0000 12.1100 0.0000
# 3 55.1804 -8.5930 61.9333 0.0000 9.9482 0.0000
# 4 0.0000 0.0000 0.0000 11.3687 0.0000 -5.5908
# 5 16.8563 12.1100 9.9482 0.0000 38.7422 0.0000
# 6 0.0000 0.0000 0.0000 -5.5908 0.0000 31.1443
#
#
#
# Elastic Compliance Matrix: (Units=1/GPa)
#
#
# Indices 1 2 3 4 5 6 
#
# 1 0.007879 -0.003442 -0.007426 0.000000 -0.000445 0.000000
# 2 -0.003442 0.028443 0.008554 0.000000 -0.009589 0.000000
# 3 -0.007426 0.008554 0.024887 0.000000 -0.005833 0.000000
# 4 0.000000 0.000000 0.000000 0.096478 0.000000 0.017319
# 5 -0.000445 -0.009589 -0.005833 0.000000 0.030501 0.000000
# 6 0.000000 0.000000 0.000000 0.017319 0.000000 0.035218
#
#
# Mechanical properties :
#
#
# Convention : Reuss Voigt Hill
#
# Bulk Modulus (GPa) = 17.67441 45.12555 31.39998
# Shear Modulus (GPa) = 20.25153 31.71612 25.98383
#
# Velocity S-wave (km/s) = 2.91233 3.64461 3.29885
# Velocity P-wave (km/s) = 4.32564 6.05064 5.25934
#
# Compressibility (1/GPa) = 0.05657898
#
# Stress axis : x y z
#
# Youngs Moduli (GPa) = 126.91308 35.15819 40.18204
#
# Poissons Ratio (x) = 0.12103 0.29841
# Poissons Ratio (y) = 0.43687 -0.34370
# Poissons Ratio (z) = 0.94250 -0.30073
#
# Static dielectric constant tensor:
#      x y z
#    x 1.932350 0.000000 0.020050 
#    y 0.000000 1.968940 0.000000 
#    z 0.020050 0.000000 1.993980 
# 
# From -- ./inp_files/291711.got.cif
#   From: 2010.05.17/outbox.cif.g08.bks.cpg/sg15_146_cif.got.tgz:291711.got - 2010.06.03 18:47:42.
