data_PCOD9277577
_publ_section_title
;
Structure prediction by ZEFSAII (Michael W. Deem and Ramdas Pophale) SiO2 
 PCOD9277577
Probable space group: C 2/C
;
_chemical_formula_sum "Si O2"
_cell_formula_units_Z 56
_cell_length_a 22.454413
_cell_length_b 7.288789
_cell_length_c 30.955807
_cell_angle_alpha 90.000000
_cell_angle_beta 151.232737
_cell_angle_gamma 90.000000
_cell_volume 2438.218239
_symmetry_space_group_name_H-M "C 2/C"
_symmetry_group_IT_number 15
_symmetry_cell_setting 'monoclinic'
loop_
_space_group_symop_operation_xyz
x,y,z
-x,y,1/2-z
-x,-y,-z
x,-y,1/2+z
1/2+x,1/2+y,z
1/2-x,1/2+y,1/2-z
1/2-x,1/2-y,-z
1/2+x,1/2-y,1/2+z
loop_
_atom_site_type_symbol
_atom_site_label
_atom_site_fract_x
_atom_site_fract_y
_atom_site_fract_z
Si Si1 0.174532 0.363693 0.986878
Si Si2 0.755031 0.049456 0.272107
Si Si3 0.855382 0.181788 0.253707
Si Si4 0.003464 0.755080 0.537264
Si Si5 0.615767 0.813823 0.396295
Si Si6 0.023809 0.676259 0.076757
Si Si7 0.752448 0.197463 0.094635
O O1 0.247058 0.507889 0.063895
O O2 0.250000 0.250000 0.000000
O O3 0.090023 0.494551 0.903182
O O4 0.091299 0.257035 0.968140
O O5 0.820349 0.030887 0.266554
O O6 0.866490 0.148906 0.368929
O O7 0.638918 0.170544 0.182165
O O8 0.694693 0.876751 0.258575
O O9 0.786905 0.150949 0.165231
O O10 0.000815 0.189462 0.336194
O O11 0.013311 0.538309 0.555765
O O12 0.973219 0.777839 0.467254
O O13 0.880629 0.799738 0.487320
O O14 0.750000 0.750000 0.500000
O O15 0.644064 0.818320 0.363486
#
# Coordination Sequence:
#
# PCOD9277577 Si02
#       7
#     8   8   8   8   8   8   8
#     4  10  21  41  70  92 127 175 226 283 346 396
#     4  12  22  41  66 101 134 181 226 285 353 408
#     4  12  24  42  66  99 139 178 230 289 345 416
#     4  10  21  40  68  96 133 182 217 282 354 405
#     4  10  21  43  66  89 132 186 227 272 342 416
#     4  10  20  41  65  94 141 172 220 287 347 406
#     4  10  22  42  65  95 130 178 227 273 338 421
#
# _framework density 22.967590000000001
#
# number of rings (size 3 to 8) (size 9 to 14) (size 15 to 20)
#    0.000    1.429    4.286    2.143    0.000    1.714 
#    7.714    0.000    9.429    0.000    0.000    0.000 
#    0.000    0.000    0.000    0.000    0.000    0.000 
#
# Total GULP energy -156131.237416 kJ/mol
# GULP energy per Si atom -5576.115622 kJ/mol
# Density = 2.291531 g / cm^3
# Si number density = 22.967590 Si / 1000 Ang^3
#
#
#
# Elastic Constant Matrix: (Units=GPa)
#
#
# Indices 1 2 3 4 5 6 
#
# 1 192.4357 55.2618 64.7909 -0.0002 4.8060 0.0004
# 2 55.2618 55.7863 40.7450 -0.0014 -14.2214 0.0046
# 3 64.7909 40.7450 122.2730 0.0003 4.3794 0.0003
# 4 -0.0002 -0.0014 0.0003 20.7052 -0.0003 8.9287
# 5 4.8060 -14.2214 4.3794 -0.0003 47.7796 -0.0001
# 6 0.0004 0.0046 0.0003 8.9287 -0.0001 33.7010
#
#
#
# Elastic Compliance Matrix: (Units=1/GPa)
#
#
# Indices 1 2 3 4 5 6 
#
# 1 0.007945 -0.007397 -0.001643 -0.000001 -0.002850 0.000001
# 2 -0.007397 0.033880 -0.007784 0.000005 0.011542 -0.000006
# 3 -0.001643 -0.007784 0.011758 -0.000001 -0.003229 0.000001
# 4 -0.000001 0.000005 -0.000001 0.054527 0.000002 -0.014446
# 5 -0.002850 0.011542 -0.003229 0.000002 0.024948 -0.000002
# 6 0.000001 -0.000006 0.000001 -0.014446 -0.000002 0.033500
#
#
# Mechanical properties :
#
#
# Convention : Reuss Voigt Hill
#
# Bulk Modulus (GPa) = 50.15945 76.89893 63.52919
# Shear Modulus (GPa) = 24.17194 34.41698 29.29446
#
# Velocity S-wave (km/s) = 3.24765 3.87525 3.57525
# Velocity P-wave (km/s) = 5.99580 7.31967 6.69056
#
# Compressibility (1/GPa) = 0.01993642
#
# Stress axis : x y z
#
# Youngs Moduli (GPa) = 125.86360 29.51553 85.04489
#
# Poissons Ratio (x) = 0.21833 0.13973
# Poissons Ratio (y) = 0.93101 0.66197
# Poissons Ratio (z) = 0.20680 0.22974
#
# Static dielectric constant tensor:
#      x y z
#    x 1.941390 0.000000 0.009600 
#    y 0.000000 1.993640 0.000000 
#    z 0.009600 0.000000 1.942040 
# 
# From -- ./inp_files/317566.got.cif
#   From: 2010.05.17/outbox.cif.g08.bks.cpg/sg15_159_cif.got.tgz:317566.got - 2010.06.03 18:47:42.
