data_PCOD9277042
_publ_section_title
;
Structure prediction by ZEFSAII (Michael W. Deem and Ramdas Pophale) SiO2 
 PCOD9277042
Probable space group: C 2/C
;
_chemical_formula_sum "Si O2"
_cell_formula_units_Z 64
_cell_length_a 11.776845
_cell_length_b 14.909668
_cell_length_c 25.642625
_cell_angle_alpha 90.000000
_cell_angle_beta 143.260637
_cell_angle_gamma 90.000000
_cell_volume 2693.322004
_symmetry_space_group_name_H-M "C 2/C"
_symmetry_group_IT_number 15
_symmetry_cell_setting 'monoclinic'
loop_
_space_group_symop_operation_xyz
x,y,z
-x,y,1/2-z
-x,-y,-z
x,-y,1/2+z
1/2+x,1/2+y,z
1/2-x,1/2+y,1/2-z
1/2-x,1/2-y,-z
1/2+x,1/2-y,1/2+z
loop_
_atom_site_type_symbol
_atom_site_label
_atom_site_fract_x
_atom_site_fract_y
_atom_site_fract_z
Si Si1 0.702242 0.041825 0.350607
Si Si2 0.072184 0.773434 0.192341
Si Si3 0.453376 0.962856 0.110420
Si Si4 0.997588 0.360644 0.572137
Si Si5 0.999158 0.736082 0.891378
Si Si6 0.676583 0.275195 0.570629
Si Si7 0.379479 0.524513 0.811474
Si Si8 0.616973 0.371151 0.845193
O O1 0.500000 0.069940 0.250000
O O2 0.650818 0.964450 0.372121
O O3 0.785850 0.119475 0.417552
O O4 0.837740 0.015827 0.353152
O O5 0.886448 0.763894 0.159709
O O6 0.064993 0.690795 0.149097
O O7 0.277221 0.767524 0.293637
O O8 0.062399 0.871875 0.163005
O O9 0.401641 0.045813 0.053965
O O10 0.677244 0.977195 0.206329
O O11 0.424876 0.864657 0.077932
O O12 0.170951 0.383559 0.597544
O O13 0.879601 0.284118 0.499226
O O14 0.983896 0.769408 0.944547
O O15 0.093904 0.797573 0.882340
O O16 0.524976 0.462414 0.833652
O O17 0.500000 0.343046 0.750000
#
# Coordination Sequence:
#
# PCOD9277042 Si02
#       8
#     8   8   8   8   8   8   8   8
#     4  10  20  40  67  94 128 167 218 271 312 381
#     4  11  23  42  69  98 125 169 223 269 312 383
#     4  10  22  39  66  96 127 164 215 269 321 370
#     4  12  26  43  63  96 136 173 207 267 330 377
#     4  11  24  42  69  97 124 173 220 265 317 383
#     4  12  25  42  65  94 134 172 216 262 324 383
#     4  10  22  40  67  98 121 164 220 267 320 368
#     4  12  23  42  68  92 131 168 210 266 320 383
#
# _framework density 23.762475999999999
#
# number of rings (size 3 to 8) (size 9 to 14) (size 15 to 20)
#    0.000    1.000    5.000    1.500    3.500    1.500 
#    0.000    0.625    0.000    0.000    0.000    0.000 
#    0.000    0.000    0.000    0.000    0.000    0.000 
#
# Total GULP energy -178995.269544 kJ/mol
# GULP energy per Si atom -5593.602173 kJ/mol
# Density = 2.370839 g / cm^3
# Si number density = 23.762476 Si / 1000 Ang^3
#
#
#
# Elastic Constant Matrix: (Units=GPa)
#
#
# Indices 1 2 3 4 5 6 
#
# 1 146.8172 25.2207 13.9208 0.0000 8.0358 0.0000
# 2 25.2207 82.9986 -7.0813 0.0000 1.1796 0.0000
# 3 13.9208 -7.0813 42.7634 -0.0001 5.2358 0.0000
# 4 0.0000 0.0000 -0.0001 15.9836 0.0000 -6.6582
# 5 8.0358 1.1796 5.2358 0.0000 17.7705 0.0000
# 6 0.0000 0.0000 0.0000 -6.6582 0.0000 16.3129
#
#
#
# Elastic Compliance Matrix: (Units=1/GPa)
#
#
# Indices 1 2 3 4 5 6 
#
# 1 0.007624 -0.002502 -0.002588 0.000000 -0.002519 0.000000
# 2 -0.002502 0.013079 0.003058 0.000000 -0.000638 0.000000
# 3 -0.002588 0.003058 0.025536 0.000000 -0.006557 0.000000
# 4 0.000000 0.000000 0.000000 0.075380 0.000000 0.030767
# 5 -0.002519 -0.000638 -0.006557 0.000000 0.059386 0.000000
# 6 0.000000 0.000000 0.000000 0.030767 0.000000 0.073859
#
#
# Mechanical properties :
#
#
# Convention : Reuss Voigt Hill
#
# Bulk Modulus (GPa) = 23.71000 37.41105 30.56053
# Shear Modulus (GPa) = 18.31601 26.04801 22.18201
#
# Velocity S-wave (km/s) = 2.77933 3.31446 3.05862
# Velocity P-wave (km/s) = 4.50546 5.51592 5.03610
#
# Compressibility (1/GPa) = 0.04217630
#
# Stress axis : x y z
#
# Youngs Moduli (GPa) = 131.16147 76.46088 39.16032
#
# Poissons Ratio (x) = 0.19128 0.10134
# Poissons Ratio (y) = 0.32813 -0.11976
# Poissons Ratio (z) = 0.33941 -0.23383
#
# Static dielectric constant tensor:
#      x y z
#    x 1.870690 0.000000 0.002360 
#    y 0.000000 1.849470 0.000000 
#    z 0.002360 0.000000 1.956000 
# 
# From -- ./inp_files/311218.got.cif
#   From: 2010.05.17/outbox.cif.g08.bks.cpg/sg15_156_cif.got.tgz:311218.got - 2010.06.03 18:47:42.
