data_PCOD9277536
_publ_section_title
;
Structure prediction by ZEFSAII (Michael W. Deem and Ramdas Pophale) SiO2 
 PCOD9277536
Probable space group: C 2/C
;
_chemical_formula_sum "Si O2"
_cell_formula_units_Z 36
_cell_length_a 4.778264
_cell_length_b 27.953183
_cell_length_c 11.439067
_cell_angle_alpha 90.000000
_cell_angle_beta 111.195885
_cell_angle_gamma 90.000000
_cell_volume 1424.527642
_symmetry_space_group_name_H-M "C 2/C"
_symmetry_group_IT_number 15
_symmetry_cell_setting 'monoclinic'
loop_
_space_group_symop_operation_xyz
x,y,z
-x,y,1/2-z
-x,-y,-z
x,-y,1/2+z
1/2+x,1/2+y,z
1/2-x,1/2+y,1/2-z
1/2-x,1/2-y,-z
1/2+x,1/2-y,1/2+z
loop_
_atom_site_type_symbol
_atom_site_label
_atom_site_fract_x
_atom_site_fract_y
_atom_site_fract_z
Si Si1 0.713711 0.593159 0.124282
Si Si2 0.000000 0.390547 0.250000
Si Si3 0.300856 0.302379 0.873281
Si Si4 0.190972 0.299128 0.132833
Si Si5 0.887564 0.553169 0.507755
O O1 0.441574 0.557271 0.097815
O O2 0.000000 0.586834 0.250000
O O3 0.560434 0.645281 0.121567
O O4 0.865208 0.585827 0.020775
O O5 0.917929 0.349234 0.333327
O O6 0.150309 0.428094 0.364303
O O7 0.470907 0.252574 0.872085
O O8 0.000000 0.304359 0.750000
O O9 0.230344 0.301632 0.000328
O O10 0.500000 0.293084 0.250000
O O11 0.000000 0.500000 0.500000
#
# Coordination Sequence:
#
# PCOD9277536 Si02
#       5
#     8   4   8   8   8
#     4  11  24  50  76 110 152 199 255 319 391 468
#     4  12  26  44  76 104 154 200 266 318 398 464
#     4   9  19  40  69 103 152 199 252 310 388 468
#     4  10  20  41  65 105 149 199 254 312 385 467
#     4  12  28  49  77 110 150 205 264 329 389 455
#
# _framework density 25.271536999999999
#
# number of rings (size 3 to 8) (size 9 to 14) (size 15 to 20)
#    0.000    1.333    2.222    2.667    1.556    0.000 
#   16.000    6.667    0.000    0.000    0.000    0.000 
#    0.000    0.000    0.000    0.000    0.000    0.000 
#
# Total GULP energy -100297.885879 kJ/mol
# GULP energy per Si atom -5572.104771 kJ/mol
# Density = 2.521402 g / cm^3
# Si number density = 25.271537 Si / 1000 Ang^3
#
#
#
# Elastic Constant Matrix: (Units=GPa)
#
#
# Indices 1 2 3 4 5 6 
#
# 1 81.6519 58.5878 38.3206 0.0000 7.1218 0.0000
# 2 58.5878 194.2192 60.5526 0.0000 21.6387 0.0000
# 3 38.3206 60.5526 190.5213 0.0000 -11.0608 0.0000
# 4 0.0000 0.0000 0.0000 28.2178 0.0000 13.4339
# 5 7.1218 21.6387 -11.0608 0.0000 40.0025 0.0000
# 6 0.0000 0.0000 0.0000 13.4339 0.0000 -3.2205
#
#
#
# Elastic Compliance Matrix: (Units=1/GPa)
#
#
# Indices 1 2 3 4 5 6 
#
# 1 0.016277 -0.004142 -0.002028 0.000000 -0.001218 0.000000
# 2 -0.004142 0.007347 -0.001718 0.000000 -0.003712 0.000000
# 3 -0.002028 -0.001718 0.006380 0.000000 0.003054 0.000000
# 4 0.000000 0.000000 0.000000 0.011869 0.000000 0.049509
# 5 -0.001218 -0.003712 0.003054 0.000000 0.028068 0.000000
# 6 0.000000 0.000000 0.000000 0.049509 0.000000 -0.103993
#
#
# Mechanical properties :
#
#
# Convention : Reuss Voigt Hill
#
# Bulk Modulus (GPa) = 70.27975 86.81270 78.54623
# Shear Modulus (GPa) = -369.46660 33.59540 -167.93560
#
# Velocity S-wave (km/s) = -12.10438 3.65002 -8.16068
# Velocity P-wave (km/s) = 12.94158 7.22427 7.59258
#
# Compressibility (1/GPa) = 0.01422885
#
# Stress axis : x y z
#
# Youngs Moduli (GPa) = 61.43517 136.10302 156.74239
#
# Poissons Ratio (x) = 0.56376 0.31790
# Poissons Ratio (y) = 0.25447 0.26921
# Poissons Ratio (z) = 0.12460 0.23376
#
# Static dielectric constant tensor:
#      x y z
#    x 2.020420 0.000000 -0.057410 
#    y 0.000000 2.148500 0.000000 
#    z -0.057410 0.000000 1.695310 
# 
# From -- ./inp_files/78516.got.cif
#   From: 2010.05.17/outbox.cif.g08.bks.cpg/sg15_40_cif.got.tgz:78516.got - 2010.06.03 18:47:42.
