data_PCOD9277339
_publ_section_title
;
Structure prediction by ZEFSAII (Michael W. Deem and Ramdas Pophale) SiO2 
 PCOD9277339
Probable space group: C 2/C
;
_chemical_formula_sum "Si O2"
_cell_formula_units_Z 44
_cell_length_a 27.694003
_cell_length_b 5.517987
_cell_length_c 23.370494
_cell_angle_alpha 90.000000
_cell_angle_beta 153.991627
_cell_angle_gamma 90.000000
_cell_volume 1566.052665
_symmetry_space_group_name_H-M "C 2/C"
_symmetry_group_IT_number 15
_symmetry_cell_setting 'monoclinic'
loop_
_space_group_symop_operation_xyz
x,y,z
-x,y,1/2-z
-x,-y,-z
x,-y,1/2+z
1/2+x,1/2+y,z
1/2-x,1/2+y,1/2-z
1/2-x,1/2-y,-z
1/2+x,1/2-y,1/2+z
loop_
_atom_site_type_symbol
_atom_site_label
_atom_site_fract_x
_atom_site_fract_y
_atom_site_fract_z
Si Si1 0.774793 0.474865 0.406148
Si Si2 0.813778 0.779274 0.833483
Si Si3 0.000000 0.712477 0.250000
Si Si4 0.897443 0.908047 0.551977
Si Si5 0.156526 0.583239 0.327481
Si Si6 0.436015 0.757626 0.361995
O O1 0.815903 0.274820 0.403762
O O2 0.881170 0.615830 0.539530
O O3 0.700411 0.357150 0.375277
O O4 0.681563 0.623207 0.272851
O O5 0.741235 0.546088 0.732703
O O6 0.930079 0.739517 0.924355
O O7 0.090564 0.548816 0.314705
O O8 0.039789 0.901177 0.341655
O O9 0.965768 0.887830 0.564083
O O10 0.771460 0.949967 0.440003
O O11 0.085084 0.506184 0.195681
#
# Coordination Sequence:
#
# PCOD9277339 Si02
#       6
#     8   8   4   8   8   8
#     4  10  22  43  69 102 145 182 238 298 353 441
#     4  10  20  40  75 106 148 200 236 290 370 444
#     4  12  26  48  72  98 138 196 238 304 380 420
#     4  11  26  44  70 104 141 182 243 303 360 436
#     4  11  24  47  68 103 137 183 245 300 356 442
#     4  10  22  44  69 101 147 187 232 297 368 426
#
# _framework density 28.096119999999999
#
# number of rings (size 3 to 8) (size 9 to 14) (size 15 to 20)
#    0.000    1.455    3.636    0.545    2.545    2.182 
#    0.000    0.909    0.000    0.000    0.000    0.000 
#    0.000    0.000    0.000    0.000    0.000    0.000 
#
# Total GULP energy -122583.928172 kJ/mol
# GULP energy per Si atom -5571.996735 kJ/mol
# Density = 2.803217 g / cm^3
# Si number density = 28.096120 Si / 1000 Ang^3
#
#
#
# Elastic Constant Matrix: (Units=GPa)
#
#
# Indices 1 2 3 4 5 6 
#
# 1 271.1061 33.8475 59.0867 -0.0004 49.9179 -0.0003
# 2 33.8475 82.3778 22.9734 -0.0011 31.9085 -0.0005
# 3 59.0867 22.9734 81.2891 -0.0005 30.4262 -0.0003
# 4 -0.0004 -0.0011 -0.0005 47.3477 0.0001 17.7447
# 5 49.9179 31.9085 30.4262 0.0001 31.0087 -0.0001
# 6 -0.0003 -0.0005 -0.0003 17.7447 -0.0001 40.8987
#
#
#
# Elastic Compliance Matrix: (Units=1/GPa)
#
#
# Indices 1 2 3 4 5 6 
#
# 1 0.005449 0.001796 -0.000780 0.000000 -0.009854 0.000000
# 2 0.001796 0.021342 0.003106 0.000001 -0.027899 0.000000
# 3 -0.000780 0.003106 0.020099 0.000000 -0.021662 0.000000
# 4 0.000000 0.000001 0.000000 0.025221 -0.000001 -0.010943
# 5 -0.009854 -0.027899 -0.021662 -0.000001 0.098076 0.000000
# 6 0.000000 0.000000 0.000000 -0.010943 0.000000 0.029198
#
#
# Mechanical properties :
#
#
# Convention : Reuss Voigt Hill
#
# Bulk Modulus (GPa) = 18.13791 74.06534 46.10163
# Shear Modulus (GPa) = 23.86412 45.10870 34.48641
#
# Velocity S-wave (km/s) = 2.91756 4.01123 3.50729
# Velocity P-wave (km/s) = 4.22129 6.91896 5.73111
#
# Compressibility (1/GPa) = 0.05513313
#
# Stress axis : x y z
#
# Youngs Moduli (GPa) = 183.52882 46.85633 49.75421
#
# Poissons Ratio (x) = -0.08413 0.03879
# Poissons Ratio (y) = -0.32953 -0.15453
# Poissons Ratio (z) = 0.14308 -0.14553
#
# Static dielectric constant tensor:
#      x y z
#    x 2.201340 0.000000 -0.096730 
#    y 0.000000 2.542720 0.000000 
#    z -0.096730 0.000000 2.264420 
# 
# From -- ./inp_files/303969.got.cif
#   From: 2010.05.17/outbox.cif.g08.bks.cpg/sg15_152_cif.got.tgz:303969.got - 2010.06.03 18:47:42.
