data_PCOD9277764
_publ_section_title
;
Structure prediction by ZEFSAII (Michael W. Deem and Ramdas Pophale) SiO2 
 PCOD9277764
Probable space group: C 2/C
;
_chemical_formula_sum "Si O2"
_cell_formula_units_Z 52
_cell_length_a 29.648486
_cell_length_b 13.952766
_cell_length_c 5.593079
_cell_angle_alpha 90.000000
_cell_angle_beta 115.057029
_cell_angle_gamma 90.000000
_cell_volume 2095.982552
_symmetry_space_group_name_H-M "C 2/C"
_symmetry_group_IT_number 15
_symmetry_cell_setting 'monoclinic'
loop_
_space_group_symop_operation_xyz
x,y,z
-x,y,1/2-z
-x,-y,-z
x,-y,1/2+z
1/2+x,1/2+y,z
1/2-x,1/2+y,1/2-z
1/2-x,1/2-y,-z
1/2+x,1/2-y,1/2+z
loop_
_atom_site_type_symbol
_atom_site_label
_atom_site_fract_x
_atom_site_fract_y
_atom_site_fract_z
Si Si1 0.953546 0.696965 0.789189
Si Si2 0.000000 0.854324 0.250000
Si Si3 0.603131 0.551960 0.920004
Si Si4 0.630858 0.265354 0.251028
Si Si5 0.866315 0.604494 0.864474
Si Si6 0.210620 0.727586 0.114384
Si Si7 0.777241 0.462839 0.662337
O O1 0.917514 0.752263 0.522481
O O2 0.920700 0.619520 0.866499
O O3 0.000000 0.652253 0.750000
O O4 0.976256 0.780618 0.005530
O O5 0.044502 0.922883 0.268561
O O6 0.615157 0.494636 0.702634
O O7 0.627283 0.656680 0.949826
O O8 0.634484 0.162477 0.388999
O O9 0.676264 0.298455 0.185357
O O10 0.830704 0.665926 0.616098
O O11 0.834357 0.506539 0.812571
O O12 0.250000 0.750000 0.000000
O O13 0.229604 0.650791 0.350985
O O14 0.755248 0.502436 0.366531
#
# Coordination Sequence:
#
# PCOD9277764 Si02
#       7
#     8   4   8   8   8   8   8
#     4  11  20  36  65 100 133 179 229 279 337 409
#     4  12  22  38  62  94 134 184 232 280 338 406
#     4  12  26  40  61  93 138 182 235 284 340 407
#     4  11  22  41  65  91 135 183 225 282 350 404
#     4  10  21  39  69  95 137 179 224 277 341 414
#     4  10  23  42  70 103 132 172 227 281 346 416
#     4  10  20  41  69 103 130 172 224 274 332 411
#
# _framework density 24.809369
#
# number of rings (size 3 to 8) (size 9 to 14) (size 15 to 20)
#    0.000    1.231    4.615    1.385    2.154    0.615 
#    0.000    3.077    0.000    8.308    2.000    0.000 
#    0.000    0.000    0.000    0.000    0.000    0.000 
#
# Total GULP energy -145164.126160 kJ/mol
# GULP energy per Si atom -5583.235622 kJ/mol
# Density = 2.475290 g / cm^3
# Si number density = 24.809369 Si / 1000 Ang^3
#
#
#
# Elastic Constant Matrix: (Units=GPa)
#
#
# Indices 1 2 3 4 5 6 
#
# 1 162.3056 24.3993 15.3365 0.0000 -30.3272 0.0000
# 2 24.3993 74.3864 6.2918 0.0000 -12.3920 0.0000
# 3 15.3365 6.2918 106.9127 0.0000 -9.8245 0.0000
# 4 0.0000 0.0000 0.0000 34.6315 0.0000 -16.5252
# 5 -30.3272 -12.3920 -9.8245 0.0000 39.5539 0.0000
# 6 0.0000 0.0000 0.0000 -16.5252 0.0000 41.8984
#
#
#
# Elastic Compliance Matrix: (Units=1/GPa)
#
#
# Indices 1 2 3 4 5 6 
#
# 1 0.007385 -0.001537 -0.000504 0.000000 0.005055 0.000000
# 2 -0.001537 0.014524 -0.000332 0.000000 0.003289 0.000000
# 3 -0.000504 -0.000332 0.009620 0.000000 0.001899 0.000000
# 4 0.000000 0.000000 0.000000 0.035570 0.000000 0.014029
# 5 0.005055 0.003289 0.001899 0.000000 0.030660 0.000000
# 6 0.000000 0.000000 0.000000 0.014029 0.000000 0.029401
#
#
# Mechanical properties :
#
#
# Convention : Reuss Voigt Hill
#
# Bulk Modulus (GPa) = 37.34048 48.40666 42.87357
# Shear Modulus (GPa) = 35.50326 43.05524 39.27925
#
# Velocity S-wave (km/s) = 3.78702 4.17038 3.98331
# Velocity P-wave (km/s) = 5.84856 6.53783 6.20278
#
# Compressibility (1/GPa) = 0.02678059
#
# Stress axis : x y z
#
# Youngs Moduli (GPa) = 135.41829 68.85353 103.95249
#
# Poissons Ratio (x) = 0.10586 0.05242
# Poissons Ratio (y) = 0.20819 0.03451
# Poissons Ratio (z) = 0.06829 0.02286
#
# Static dielectric constant tensor:
#      x y z
#    x 2.102660 0.000000 -0.048300 
#    y 0.000000 2.010690 0.000000 
#    z -0.048300 0.000000 2.112030 
# 
# From -- ./inp_files/18242.got.cif
#   From: 2010.05.17/outbox.cif.g08.bks.cpg/sg15_10_cif.got.tgz:18242.got - 2010.06.03 18:47:42.
