data_PCOD9277779
_publ_section_title
;
Structure prediction by ZEFSAII (Michael W. Deem and Ramdas Pophale) SiO2 
 PCOD9277779
Probable space group: C 2/C
;
_chemical_formula_sum "Si O2"
_cell_formula_units_Z 40
_cell_length_a 8.255183
_cell_length_b 25.209983
_cell_length_c 7.457299
_cell_angle_alpha 90.000000
_cell_angle_beta 95.215382
_cell_angle_gamma 90.000000
_cell_volume 1545.535968
_symmetry_space_group_name_H-M "C 2/C"
_symmetry_group_IT_number 15
_symmetry_cell_setting 'monoclinic'
loop_
_space_group_symop_operation_xyz
x,y,z
-x,y,1/2-z
-x,-y,-z
x,-y,1/2+z
1/2+x,1/2+y,z
1/2-x,1/2+y,1/2-z
1/2-x,1/2-y,-z
1/2+x,1/2-y,1/2+z
loop_
_atom_site_type_symbol
_atom_site_label
_atom_site_fract_x
_atom_site_fract_y
_atom_site_fract_z
Si Si1 0.682563 0.031451 0.212320
Si Si2 0.114106 0.115176 0.086966
Si Si3 0.686121 0.203099 0.237229
Si Si4 0.810236 0.925463 0.349792
Si Si5 0.186795 0.314590 0.315696
O O1 0.500000 0.017079 0.250000
O O2 0.742611 0.073833 0.363853
O O3 0.794688 0.979499 0.237762
O O4 0.710090 0.058541 0.022013
O O5 0.194925 0.172914 0.114067
O O6 0.000000 0.111721 0.250000
O O7 0.988251 0.094711 0.927170
O O8 0.500000 0.188185 0.250000
O O9 0.709995 0.266045 0.251028
O O10 0.721356 0.186676 0.033919
O O11 0.727527 0.873636 0.254958
O O12 0.000000 0.302800 0.250000
#
# Coordination Sequence:
#
# PCOD9277779 Si02
#       5
#     8   8   8   8   8
#     4  11  22  40  68 100 136 178 230 277 335 407
#     4  10  20  41  69  93 133 181 220 274 339 396
#     4  11  24  46  74 100 136 183 226 280 348 407
#     4  11  24  44  67  99 139 182 223 281 341 396
#     4  11  25  44  70 101 142 176 228 284 339 406
#
# _framework density 25.880991000000002
#
# number of rings (size 3 to 8) (size 9 to 14) (size 15 to 20)
#    0.000    1.200    4.000    3.000    2.800    0.800 
#    0.000    3.000    0.000    0.000    0.000    0.000 
#    0.000    0.000    0.000    0.000    0.000    0.000 
#
# Total GULP energy -112126.597082 kJ/mol
# GULP energy per Si atom -5606.329854 kJ/mol
# Density = 2.582209 g / cm^3
# Si number density = 25.880991 Si / 1000 Ang^3
#
#
#
# Elastic Constant Matrix: (Units=GPa)
#
#
# Indices 1 2 3 4 5 6 
#
# 1 120.1153 24.0060 21.1660 0.0000 21.3001 0.0000
# 2 24.0060 178.0264 47.2861 0.0000 3.6737 0.0000
# 3 21.1660 47.2861 117.3675 0.0000 4.0702 0.0000
# 4 0.0000 0.0000 0.0000 43.9809 0.0000 5.7246
# 5 21.3001 3.6737 4.0702 0.0000 24.7873 0.0000
# 6 0.0000 0.0000 0.0000 5.7246 0.0000 47.4133
#
#
#
# Elastic Compliance Matrix: (Units=1/GPa)
#
#
# Indices 1 2 3 4 5 6 
#
# 1 0.010210 -0.000886 -0.001191 0.000000 -0.008447 0.000000
# 2 -0.000886 0.006374 -0.002416 0.000000 0.000213 0.000000
# 3 -0.001191 -0.002416 0.009716 0.000000 -0.000214 0.000000
# 4 0.000000 0.000000 0.000000 0.023100 0.000000 -0.002789
# 5 -0.008447 0.000213 -0.000214 0.000000 0.047605 0.000000
# 6 0.000000 0.000000 0.000000 -0.002789 0.000000 0.021428
#
#
# Mechanical properties :
#
#
# Convention : Reuss Voigt Hill
#
# Bulk Modulus (GPa) = 57.75749 66.71395 62.23572
# Shear Modulus (GPa) = 37.54028 44.77304 41.15666
#
# Velocity S-wave (km/s) = 3.81267 4.16379 3.99209
# Velocity P-wave (km/s) = 6.46119 6.99638 6.73410
#
# Compressibility (1/GPa) = 0.01731377
#
# Stress axis : x y z
#
# Youngs Moduli (GPa) = 97.94081 156.89173 102.92611
#
# Poissons Ratio (x) = 0.13901 0.12263
# Poissons Ratio (y) = 0.08678 0.24862
# Poissons Ratio (z) = 0.11669 0.37898
#
# Static dielectric constant tensor:
#      x y z
#    x 1.980010 0.000000 -0.069090 
#    y 0.000000 1.959060 0.000000 
#    z -0.069090 0.000000 2.120630 
# 
# From -- ./inp_files/23766.got.cif
#   From: 2010.05.17/outbox.cif.g08.bks.cpg/sg15_12_cif.got.tgz:23766.got - 2010.06.03 18:47:42.
