data_PCOD9277993
_publ_section_title
;
Structure prediction by ZEFSAII (Michael W. Deem and Ramdas Pophale) SiO2 
 PCOD9277993
Probable space group: C 2/C
;
_chemical_formula_sum "Si O2"
_cell_formula_units_Z 40
_cell_length_a 8.483354
_cell_length_b 15.235371
_cell_length_c 13.507046
_cell_angle_alpha 90.000000
_cell_angle_beta 101.117802
_cell_angle_gamma 90.000000
_cell_volume 1712.983028
_symmetry_space_group_name_H-M "C 2/C"
_symmetry_group_IT_number 15
_symmetry_cell_setting 'monoclinic'
loop_
_space_group_symop_operation_xyz
x,y,z
-x,y,1/2-z
-x,-y,-z
x,-y,1/2+z
1/2+x,1/2+y,z
1/2-x,1/2+y,1/2-z
1/2-x,1/2-y,-z
1/2+x,1/2-y,1/2+z
loop_
_atom_site_type_symbol
_atom_site_label
_atom_site_fract_x
_atom_site_fract_y
_atom_site_fract_z
Si Si1 0.427845 0.065725 0.137755
Si Si2 0.922834 0.788965 0.548010
Si Si3 0.426328 0.115641 0.914991
Si Si4 0.557298 0.460063 0.610307
Si Si5 0.451952 0.360481 0.145677
O O1 0.500000 0.096908 0.250000
O O2 0.485244 0.964675 0.128037
O O3 0.236818 0.074110 0.125071
O O4 0.471232 0.109307 0.037663
O O5 0.750000 0.750000 0.500000
O O6 0.005193 0.813528 0.452346
O O7 0.016721 0.710731 0.612498
O O8 0.936656 0.878853 0.613619
O O9 0.234460 0.111969 0.881430
O O10 0.500000 0.500000 0.500000
O O11 0.558106 0.550836 0.668783
O O12 0.500000 0.307425 0.250000
#
# Coordination Sequence:
#
# PCOD9277993 Si02
#       5
#     8   8   8   8   8
#     4  11  23  40  69  94 130 173 226 267 335 398
#     4  11  24  42  66  91 134 174 217 271 340 386
#     4  11  23  41  66  95 131 171 217 278 330 385
#     4  10  20  42  64  89 127 172 212 266 329 394
#     4  11  23  42  68  96 130 173 224 270 330 396
#
# _framework density 23.351078999999999
#
# number of rings (size 3 to 8) (size 9 to 14) (size 15 to 20)
#    0.000    1.200    4.000    4.200    2.800    0.800 
#    0.000    1.000    0.000    0.000    0.000    0.000 
#    0.000    0.000    0.000    0.000    0.000    0.000 
#
# Total GULP energy -111652.279774 kJ/mol
# GULP energy per Si atom -5582.613989 kJ/mol
# Density = 2.329793 g / cm^3
# Si number density = 23.351079 Si / 1000 Ang^3
#
#
#
# Elastic Constant Matrix: (Units=GPa)
#
#
# Indices 1 2 3 4 5 6 
#
# 1 94.5929 18.1701 -1.1342 0.0000 24.5850 0.0000
# 2 18.1701 137.8045 -19.8874 0.0000 5.3500 0.0000
# 3 -1.1342 -19.8874 107.8518 0.0000 14.0795 0.0000
# 4 0.0000 0.0000 0.0000 -1.7002 0.0000 1.4859
# 5 24.5850 5.3500 14.0795 0.0000 26.4645 0.0000
# 6 0.0000 0.0000 0.0000 1.4859 0.0000 33.1784
#
#
#
# Elastic Compliance Matrix: (Units=1/GPa)
#
#
# Indices 1 2 3 4 5 6 
#
# 1 0.014496 -0.001100 0.001804 0.000000 -0.014204 0.000000
# 2 -0.001100 0.007684 0.001585 0.000000 -0.001375 0.000000
# 3 0.001804 0.001585 0.010578 0.000000 -0.007624 0.000000
# 4 0.000000 0.000000 0.000000 -0.566028 0.000000 0.025350
# 5 -0.014204 -0.001375 -0.007624 0.000000 0.055316 0.000000
# 6 0.000000 0.000000 0.000000 0.025350 0.000000 0.029005
#
#
# Mechanical properties :
#
#
# Convention : Reuss Voigt Hill
#
# Bulk Modulus (GPa) = 26.78332 37.17180 31.97756
# Shear Modulus (GPa) = -11.33577 34.46194 11.56309
#
# Velocity S-wave (km/s) = -2.20568 3.84581 2.22769
# Velocity P-wave (km/s) = 2.23786 5.97273 4.51007
#
# Compressibility (1/GPa) = 0.03733667
#
# Stress axis : x y z
#
# Youngs Moduli (GPa) = 68.98382 130.14509 94.53158
#
# Poissons Ratio (x) = 0.14311 -0.17053
# Poissons Ratio (y) = 0.07585 -0.14981
# Poissons Ratio (z) = -0.12444 -0.20625
#
# Static dielectric constant tensor:
#      x y z
#    x 1.883130 0.000000 -0.074560 
#    y 0.000000 1.822420 0.000000 
#    z -0.074560 0.000000 2.051930 
# 
# From -- ./inp_files/188496.got.cif
#   From: 2010.05.17/outbox.cif.g08.bks.cpg/sg15_95_cif.got.tgz:188496.got - 2010.06.03 18:47:42.
