data_PCOD9277912
_publ_section_title
;
Structure prediction by ZEFSAII (Michael W. Deem and Ramdas Pophale) SiO2 
 PCOD9277912
Probable space group: C 2/C
;
_chemical_formula_sum "Si O2"
_cell_formula_units_Z 52
_cell_length_a 14.984021
_cell_length_b 17.824257
_cell_length_c 28.509681
_cell_angle_alpha 90.000000
_cell_angle_beta 19.901181
_cell_angle_gamma 90.000000
_cell_volume 2591.912611
_symmetry_space_group_name_H-M "C 2/C"
_symmetry_group_IT_number 15
_symmetry_cell_setting 'monoclinic'
loop_
_space_group_symop_operation_xyz
x,y,z
-x,y,1/2-z
-x,-y,-z
x,-y,1/2+z
1/2+x,1/2+y,z
1/2-x,1/2+y,1/2-z
1/2-x,1/2-y,-z
1/2+x,1/2-y,1/2+z
loop_
_atom_site_type_symbol
_atom_site_label
_atom_site_fract_x
_atom_site_fract_y
_atom_site_fract_z
Si Si1 0.500000 0.929778 0.750000
Si Si2 0.002473 0.530806 0.836281
Si Si3 0.471849 0.490589 0.367617
Si Si4 0.691831 0.150896 0.982072
Si Si5 0.201994 0.815512 0.961927
Si Si6 0.426277 0.192157 0.731666
Si Si7 0.580395 0.357691 0.764292
O O1 0.298320 0.873521 0.875233
O O2 0.594299 0.985460 0.744638
O O3 0.235868 0.522921 0.758273
O O4 0.953146 0.618191 0.850561
O O5 0.734944 0.495341 0.987562
O O6 0.375344 0.420883 0.383965
O O7 0.458019 0.570835 0.349778
O O8 0.692419 0.165331 0.038213
O O9 0.394700 0.135869 0.113591
O O10 0.781740 0.228800 0.914085
O O11 0.886912 0.816525 0.119382
O O12 0.500000 0.191123 0.750000
O O13 0.496566 0.275125 0.678273
O O14 0.500000 0.358922 0.750000
#
# Coordination Sequence:
#
# PCOD9277912 Si02
#       7
#     4   8   8   8   8   8   8
#     4  12  22  38  60 102 126 166 202 258 306 392
#     4  12  24  37  65  94 133 159 210 254 318 374
#     4  12  23  43  63  95 123 170 208 264 310 373
#     4  10  20  42  62  86 122 169 203 261 308 363
#     4  10  21  38  64  86 131 164 209 246 316 374
#     4  10  21  39  61  92 124 169 197 262 310 369
#     4  10  23  43  65  85 124 164 214 262 316 367
#
# _framework density 20.062404999999998
#
# number of rings (size 3 to 8) (size 9 to 14) (size 15 to 20)
#    0.000    1.231    5.385    0.000    2.154    2.462 
#    1.385    3.077    0.000    0.000    0.000    0.000 
#    0.000    0.000    0.000    0.000    0.000    0.000 
#
# Total GULP energy -145112.461408 kJ/mol
# GULP energy per Si atom -5581.248516 kJ/mol
# Density = 2.001674 g / cm^3
# Si number density = 20.062405 Si / 1000 Ang^3
#
#
#
# Elastic Constant Matrix: (Units=GPa)
#
#
# Indices 1 2 3 4 5 6 
#
# 1 69.3602 14.7343 14.4779 0.0212 -18.5617 -0.0852
# 2 14.7343 168.8923 -0.0370 0.0928 15.9496 0.0929
# 3 14.4779 -0.0370 23.1291 0.1814 -7.4475 -0.0701
# 4 0.0212 0.0928 0.1814 36.1782 0.0163 5.8713
# 5 -18.5617 15.9496 -7.4475 0.0163 25.1325 -0.0730
# 6 -0.0852 0.0929 -0.0701 5.8713 -0.0730 32.6109
#
#
#
# Elastic Compliance Matrix: (Units=1/GPa)
#
#
# Indices 1 2 3 4 5 6 
#
# 1 0.020837 -0.003237 -0.008215 0.000018 0.015009 0.000076
# 2 -0.003237 0.006843 -0.000145 -0.000005 -0.006777 -0.000043
# 3 -0.008215 -0.000145 0.051357 -0.000283 0.009244 0.000161
# 4 0.000018 -0.000005 -0.000283 0.028474 -0.000101 -0.005127
# 5 0.015009 -0.006777 0.009244 -0.000101 0.057915 0.000226
# 6 0.000076 -0.000043 0.000161 -0.005127 0.000226 0.031589
#
#
# Mechanical properties :
#
#
# Convention : Reuss Voigt Hill
#
# Bulk Modulus (GPa) = 17.90744 35.52577 26.71661
# Shear Modulus (GPa) = 20.93596 34.26476 27.60036
#
# Velocity S-wave (km/s) = 3.23389 4.13717 3.71310
# Velocity P-wave (km/s) = 4.78428 6.36927 5.63280
#
# Compressibility (1/GPa) = 0.05584270
#
# Stress axis : x y z
#
# Youngs Moduli (GPa) = 47.99237 146.12817 19.47158
#
# Poissons Ratio (x) = 0.47303 0.15996
# Poissons Ratio (y) = 0.15536 0.00282
# Poissons Ratio (z) = 0.39426 0.02118
#
# Static dielectric constant tensor:
#      x y z
#    x 1.690800 0.000020 0.007870 
#    y 0.000020 1.775990 0.000060 
#    z 0.007870 0.000060 1.696350 
# 
# From -- ./inp_files/127149.got.cif
#   From: 2010.05.17/outbox.cif.g08.bks.cpg/sg15_64_cif.got.tgz:127149.got - 2010.06.03 18:47:42.
