data_PCOD9277775
_publ_section_title
;
Structure prediction by ZEFSAII (Michael W. Deem and Ramdas Pophale) SiO2 
 PCOD9277775
Probable space group: C 2/C
;
_chemical_formula_sum "Si O2"
_cell_formula_units_Z 44
_cell_length_a 10.282890
_cell_length_b 14.154621
_cell_length_c 16.641242
_cell_angle_alpha 90.000000
_cell_angle_beta 123.902139
_cell_angle_gamma 90.000000
_cell_volume 2010.355196
_symmetry_space_group_name_H-M "C 2/C"
_symmetry_group_IT_number 15
_symmetry_cell_setting 'monoclinic'
loop_
_space_group_symop_operation_xyz
x,y,z
-x,y,1/2-z
-x,-y,-z
x,-y,1/2+z
1/2+x,1/2+y,z
1/2-x,1/2+y,1/2-z
1/2-x,1/2-y,-z
1/2+x,1/2-y,1/2+z
loop_
_atom_site_type_symbol
_atom_site_label
_atom_site_fract_x
_atom_site_fract_y
_atom_site_fract_z
Si Si1 0.716395 0.947623 0.657771
Si Si2 0.912129 0.732652 0.878076
Si Si3 0.000000 0.796824 0.750000
Si Si4 0.627488 0.629838 0.723930
Si Si5 0.877112 0.413165 0.512401
Si Si6 0.440015 0.603147 0.502516
O O1 0.847917 0.866284 0.701764
O O2 0.537710 0.922021 0.616933
O O3 0.775746 0.032228 0.735356
O O4 0.687723 0.995114 0.559125
O O5 0.015534 0.729730 0.833437
O O6 0.738526 0.715856 0.784804
O O7 0.919155 0.659868 0.954767
O O8 0.945440 0.833813 0.925993
O O9 0.500000 0.620921 0.750000
O O10 0.550888 0.640782 0.611540
O O11 0.734035 0.387580 0.520551
O O12 0.500000 0.500000 0.500000
#
# Coordination Sequence:
#
# PCOD9277775 Si02
#       6
#     8   8   4   8   8   8
#     4  10  20  41  69  92 138 187 226 296 342 424
#     4  11  26  41  67 103 139 184 234 297 347 429
#     4  12  24  44  64 102 138 192 240 284 370 400
#     4  11  22  45  70  98 142 183 231 292 354 423
#     4  10  22  42  68 102 136 179 238 292 355 416
#     4  12  24  46  73 105 137 191 237 290 365 433
#
# _framework density 21.886679999999998
#
# number of rings (size 3 to 8) (size 9 to 14) (size 15 to 20)
#    0.000    1.091    4.545    2.727    2.545    0.727 
#    9.818    1.818    0.000    0.000    0.000    0.000 
#    0.000    0.000    0.000    0.000    0.000    0.000 
#
# Total GULP energy -122841.030943 kJ/mol
# GULP energy per Si atom -5583.683225 kJ/mol
# Density = 2.183687 g / cm^3
# Si number density = 21.886680 Si / 1000 Ang^3
#
#
#
# Elastic Constant Matrix: (Units=GPa)
#
#
# Indices 1 2 3 4 5 6 
#
# 1 71.3422 26.8219 51.5495 0.0000 -3.3658 0.0000
# 2 26.8219 70.4473 27.4210 0.0000 -3.1728 0.0000
# 3 51.5495 27.4210 100.9818 0.0000 15.5263 0.0000
# 4 0.0000 0.0000 0.0000 488.2084 0.0000 408.5422
# 5 -3.3658 -3.1728 15.5263 0.0000 44.9177 0.0000
# 6 0.0000 0.0000 0.0000 408.5422 0.0000 399.2183
#
#
#
# Elastic Compliance Matrix: (Units=1/GPa)
#
#
# Indices 1 2 3 4 5 6 
#
# 1 0.024927 -0.004387 -0.012434 0.000000 0.005856 0.000000
# 2 -0.004387 0.016975 -0.002644 0.000000 0.001784 0.000000
# 3 -0.012434 -0.002644 0.018102 0.000000 -0.007376 0.000000
# 4 0.000000 0.000000 0.000000 0.014260 0.000000 -0.014593
# 5 0.005856 0.001784 -0.007376 0.000000 0.025377 0.000000
# 6 0.000000 0.000000 0.000000 -0.014593 0.000000 0.017439
#
#
# Mechanical properties :
#
#
# Convention : Reuss Voigt Hill
#
# Bulk Modulus (GPa) = 47.45278 50.48402 48.96840
# Shear Modulus (GPa) = 30.66822 195.60082 113.13452
#
# Velocity S-wave (km/s) = 3.74736 9.46382 7.19745
# Velocity P-wave (km/s) = 6.36017 11.93878 9.56521
#
# Compressibility (1/GPa) = 0.02107358
#
# Stress axis : x y z
#
# Youngs Moduli (GPa) = 40.11745 58.91036 55.24230
#
# Poissons Ratio (x) = 0.25845 0.68687
# Poissons Ratio (y) = 0.17600 0.14607
# Poissons Ratio (z) = 0.49881 0.15577
#
# Static dielectric constant tensor:
#      x y z
#    x 1.893740 0.000000 -0.042770 
#    y 0.000000 1.859770 0.000000 
#    z -0.042770 0.000000 1.834780 
# 
# From -- ./inp_files/189334.got.cif
#   From: 2010.05.17/outbox.cif.g08.bks.cpg/sg15_95_cif.got.tgz:189334.got - 2010.06.03 18:47:42.
