data_PCOD9277486
_publ_section_title
;
Structure prediction by ZEFSAII (Michael W. Deem and Ramdas Pophale) SiO2 
 PCOD9277486
Probable space group: C 2/C
;
_chemical_formula_sum "Si O2"
_cell_formula_units_Z 56
_cell_length_a 5.690159
_cell_length_b 29.517993
_cell_length_c 15.090759
_cell_angle_alpha 90.000000
_cell_angle_beta 87.249297
_cell_angle_gamma 90.000000
_cell_volume 2531.754714
_symmetry_space_group_name_H-M "C 2/C"
_symmetry_group_IT_number 15
_symmetry_cell_setting 'monoclinic'
loop_
_space_group_symop_operation_xyz
x,y,z
-x,y,1/2-z
-x,-y,-z
x,-y,1/2+z
1/2+x,1/2+y,z
1/2-x,1/2+y,1/2-z
1/2-x,1/2-y,-z
1/2+x,1/2-y,1/2+z
loop_
_atom_site_type_symbol
_atom_site_label
_atom_site_fract_x
_atom_site_fract_y
_atom_site_fract_z
Si Si1 0.374201 0.081116 0.339389
Si Si2 0.000000 0.878219 0.250000
Si Si3 0.083009 0.511050 0.850870
Si Si4 0.769228 0.407914 0.414016
Si Si5 0.000000 0.982299 0.750000
Si Si6 0.004161 0.758969 0.947736
Si Si7 0.575230 0.642246 0.465972
Si Si8 0.139395 0.670142 0.868344
O O1 0.500000 0.101127 0.250000
O O2 0.280073 0.117750 0.408356
O O3 0.165276 0.051347 0.301567
O O4 0.526584 0.040530 0.379165
O O5 0.903814 0.906575 0.168271
O O6 0.780943 0.846659 0.281064
O O7 0.360261 0.510555 0.827271
O O8 0.000000 0.518054 0.750000
O O9 0.939171 0.548201 0.907919
O O10 0.617643 0.395441 0.503677
O O11 0.937125 0.364994 0.396473
O O12 0.994522 0.811632 0.919431
O O13 0.038209 0.720580 0.872456
O O14 0.250000 0.750000 0.000000
O O15 0.750000 0.750000 0.000000
O O16 0.670046 0.661871 0.556978
#
# Coordination Sequence:
#
# PCOD9277486 Si02
#       8
#     8   4   8   8   4   8   8   8
#     4   9  20  39  58  82 117 156 205 251 302 359
#     4  10  22  37  56  90 126 152 202 250 301 362
#     4   9  19  34  56  83 115 158 198 242 299 363
#     4  11  21  35  59  88 121 158 197 245 308 368
#     4   8  18  37  58  76 116 158 198 250 301 352
#     4  10  20  41  64  88 120 163 205 251 316 371
#     4  10  22  38  60  86 119 158 202 255 305 368
#     4  10  21  37  61  86 120 163 200 251 306 371
#
# _framework density 22.119046999999998
#
# number of rings (size 3 to 8) (size 9 to 14) (size 15 to 20)
#    0.000    2.571    1.429    1.286    0.000   10.286 
#    1.286    1.429    3.143    0.000    0.000    0.000 
#    0.000    0.000    0.000    0.000    0.000    0.000 
#
# Total GULP energy -156011.485022 kJ/mol
# GULP energy per Si atom -5571.838751 kJ/mol
# Density = 2.206870 g / cm^3
# Si number density = 22.119047 Si / 1000 Ang^3
#
#
#
# Elastic Constant Matrix: (Units=GPa)
#
#
# Indices 1 2 3 4 5 6 
#
# 1 68.5298 12.2906 11.4387 0.0000 -26.5896 0.0000
# 2 12.2906 136.1108 52.2999 0.0000 -36.8799 0.0000
# 3 11.4387 52.2999 79.1275 0.0000 -39.0380 0.0000
# 4 0.0000 0.0000 0.0000 19.2937 0.0000 -6.9232
# 5 -26.5896 -36.8799 -39.0380 0.0000 41.4039 0.0000
# 6 0.0000 0.0000 0.0000 -6.9232 0.0000 22.7182
#
#
#
# Elastic Compliance Matrix: (Units=1/GPa)
#
#
# Indices 1 2 3 4 5 6 
#
# 1 0.021405 0.001282 0.006364 0.000000 0.020888 0.000000
# 2 0.001282 0.010493 -0.003933 0.000000 0.006461 0.000000
# 3 0.006364 -0.003933 0.027308 0.000000 0.026331 0.000000
# 4 0.000000 0.000000 0.000000 0.058194 0.000000 0.017734
# 5 0.020888 0.006461 0.026331 0.000000 0.068148 0.000000
# 6 0.000000 0.000000 0.000000 0.017734 0.000000 0.049422
#
#
# Mechanical properties :
#
#
# Convention : Reuss Voigt Hill
#
# Bulk Modulus (GPa) = 15.00819 48.42518 31.71669
# Shear Modulus (GPa) = 20.01956 30.53241 25.27598
#
# Velocity S-wave (km/s) = 3.01172 3.71936 3.38409
# Velocity P-wave (km/s) = 4.34671 6.35495 5.44423
#
# Compressibility (1/GPa) = 0.06663028
#
# Stress axis : x y z
#
# Youngs Moduli (GPa) = 46.71907 95.29938 36.61910
#
# Poissons Ratio (x) = -0.12213 -0.23303
# Poissons Ratio (y) = -0.05987 0.14403
# Poissons Ratio (z) = -0.29731 0.37482
#
# Static dielectric constant tensor:
#      x y z
#    x 1.395540 0.000000 0.057170 
#    y 0.000000 1.834260 0.000000 
#    z 0.057170 0.000000 1.831950 
# 
# From -- ./inp_files/186501.got.cif
#   From: 2010.05.17/outbox.cif.g08.bks.cpg/sg15_94_cif.got.tgz:186501.got - 2010.06.03 18:47:42.
