data_PCOD9277885
_publ_section_title
;
Structure prediction by ZEFSAII (Michael W. Deem and Ramdas Pophale) SiO2 
 PCOD9277885
Probable space group: C 2/C
;
_chemical_formula_sum "Si O2"
_cell_formula_units_Z 36
_cell_length_a 10.942667
_cell_length_b 8.192578
_cell_length_c 19.254267
_cell_angle_alpha 90.000000
_cell_angle_beta 58.026681
_cell_angle_gamma 90.000000
_cell_volume 1464.257809
_symmetry_space_group_name_H-M "C 2/C"
_symmetry_group_IT_number 15
_symmetry_cell_setting 'monoclinic'
loop_
_space_group_symop_operation_xyz
x,y,z
-x,y,1/2-z
-x,-y,-z
x,-y,1/2+z
1/2+x,1/2+y,z
1/2-x,1/2+y,1/2-z
1/2-x,1/2-y,-z
1/2+x,1/2-y,1/2+z
loop_
_atom_site_type_symbol
_atom_site_label
_atom_site_fract_x
_atom_site_fract_y
_atom_site_fract_z
Si Si1 0.273475 0.581467 0.582345
Si Si2 0.568430 0.569910 0.339971
Si Si3 0.772360 0.553531 0.053434
Si Si4 0.170479 0.560737 0.817479
Si Si5 0.500000 0.019519 0.750000
O O1 0.386426 0.488421 0.596278
O O2 0.216824 0.494972 0.529283
O O3 0.325528 0.758842 0.542293
O O4 0.136844 0.606520 0.674021
O O5 0.399380 0.549979 0.381225
O O6 0.666444 0.469630 0.256358
O O7 0.615351 0.757825 0.319009
O O8 0.845783 0.466029 0.095936
O O9 0.076701 0.441635 0.794777
#
# Coordination Sequence:
#
# PCOD9277885 Si02
#       5
#     8   8   8   8   4
#     4  10  23  43  69  92 134 167 210 264 330 367
#     4  11  23  43  64  98 130 170 215 266 307 396
#     4  11  23  44  66  97 129 172 206 272 317 380
#     4  11  23  40  70  89 133 171 211 264 321 367
#     4  10  20  42  60  92 124 166 208 260 304 390
#
# _framework density 24.585834999999999
#
# number of rings (size 3 to 8) (size 9 to 14) (size 15 to 20)
#    0.000    1.333    2.222    4.000    0.000    1.778 
#   24.000    0.000    0.000    0.000    0.000    0.000 
#    0.000    0.000    0.000    0.000    0.000    0.000 
#
# Total GULP energy -100547.490507 kJ/mol
# GULP energy per Si atom -5585.971695 kJ/mol
# Density = 2.452988 g / cm^3
# Si number density = 24.585835 Si / 1000 Ang^3
#
#
#
# Elastic Constant Matrix: (Units=GPa)
#
#
# Indices 1 2 3 4 5 6 
#
# 1 114.0063 26.0470 40.4005 0.0000 34.7687 0.0000
# 2 26.0470 34.1119 5.9033 0.0000 3.1529 0.0000
# 3 40.4005 5.9033 145.2748 0.0000 38.5033 0.0000
# 4 0.0000 0.0000 0.0000 29.2389 0.0000 6.2117
# 5 34.7687 3.1529 38.5033 0.0000 57.4358 0.0000
# 6 0.0000 0.0000 0.0000 6.2117 0.0000 23.8793
#
#
#
# Elastic Compliance Matrix: (Units=1/GPa)
#
#
# Indices 1 2 3 4 5 6 
#
# 1 0.013504 -0.009422 -0.001633 0.000000 -0.006563 0.000000
# 2 -0.009422 0.036144 0.000202 0.000000 0.003585 0.000000
# 3 -0.001633 0.000202 0.008598 0.000000 -0.004786 0.000000
# 4 0.000000 0.000000 0.000000 0.036202 0.000000 -0.009417
# 5 -0.006563 0.003585 -0.004786 0.000000 0.024395 0.000000
# 6 0.000000 0.000000 0.000000 -0.009417 0.000000 0.044327
#
#
# Mechanical properties :
#
#
# Convention : Reuss Voigt Hill
#
# Bulk Modulus (GPa) = 27.36870 48.67716 38.02293
# Shear Modulus (GPa) = 25.37327 36.84695 31.11011
#
# Velocity S-wave (km/s) = 3.21600 3.87551 3.56106
# Velocity P-wave (km/s) = 4.99463 6.31411 5.69273
#
# Compressibility (1/GPa) = 0.03653808
#
# Stress axis : x y z
#
# Youngs Moduli (GPa) = 74.04990 27.66725 116.30527
#
# Poissons Ratio (x) = 0.26069 0.18996
# Poissons Ratio (y) = 0.69773 -0.02344
# Poissons Ratio (z) = 0.12094 -0.00558
#
# Static dielectric constant tensor:
#      x y z
#    x 1.997990 0.000000 0.054090 
#    y 0.000000 1.932510 0.000000 
#    z 0.054090 0.000000 2.016660 
# 
# From -- ./inp_files/194879.got.cif
#   From: 2010.05.17/outbox.cif.g08.bks.cpg/sg15_98_cif.got.tgz:194879.got - 2010.06.03 18:47:42.
