data_PCOD9277259
_publ_section_title
;
Structure prediction by ZEFSAII (Michael W. Deem and Ramdas Pophale) SiO2 
 PCOD9277259
Probable space group: C 2/C
;
_chemical_formula_sum "Si O2"
_cell_formula_units_Z 56
_cell_length_a 28.393028
_cell_length_b 19.090330
_cell_length_c 9.191044
_cell_angle_alpha 90.000000
_cell_angle_beta 148.696195
_cell_angle_gamma 90.000000
_cell_volume 2588.445068
_symmetry_space_group_name_H-M "C 2/C"
_symmetry_group_IT_number 15
_symmetry_cell_setting 'monoclinic'
loop_
_space_group_symop_operation_xyz
x,y,z
-x,y,1/2-z
-x,-y,-z
x,-y,1/2+z
1/2+x,1/2+y,z
1/2-x,1/2+y,1/2-z
1/2-x,1/2-y,-z
1/2+x,1/2-y,1/2+z
loop_
_atom_site_type_symbol
_atom_site_label
_atom_site_fract_x
_atom_site_fract_y
_atom_site_fract_z
Si Si1 0.875552 0.100968 0.752174
Si Si2 0.348880 0.733522 0.197149
Si Si3 0.500000 0.172137 0.250000
Si Si4 0.000000 0.014945 0.250000
Si Si5 0.864584 0.592963 0.085514
Si Si6 0.789877 0.203781 0.735811
Si Si7 0.292480 0.997476 0.130546
Si Si8 0.153366 0.900397 0.634588
O O1 0.861600 0.153361 0.847702
O O2 0.860901 0.137179 0.557961
O O3 0.793249 0.045074 0.547751
O O4 0.969389 0.061918 0.032620
O O5 0.422732 0.780963 0.471004
O O6 0.368112 0.652781 0.292364
O O7 0.250000 0.750000 0.000000
O O8 0.338112 0.742743 0.996264
O O9 0.455399 0.126497 0.261357
O O10 0.083998 0.964740 0.439694
O O11 0.861026 0.547205 0.223386
O O12 0.790358 0.654717 0.911888
O O13 0.831792 0.540484 0.873495
O O14 0.750000 0.250000 0.500000
O O15 0.250599 0.935655 0.919032
#
# Coordination Sequence:
#
# PCOD9277259 Si02
#       8
#     8   8   4   4   8   8   8   8
#     4  10  22  36  63  96 136 174 227 284 349 415
#     4  12  24  45  71  97 139 187 236 283 343 418
#     4  12  27  44  72 104 141 190 240 280 354 420
#     4  10  23  34  58 100 145 172 224 282 354 414
#     4  11  23  45  70 103 136 174 234 289 348 416
#     4  11  24  45  71  98 134 187 234 285 345 418
#     4  10  20  40  70  95 129 178 226 283 350 402
#     4  11  20  38  65  95 130 185 227 278 348 416
#
# _framework density 21.634609999999999
#
# number of rings (size 3 to 8) (size 9 to 14) (size 15 to 20)
#    0.000    1.143    4.286    1.714    0.000    2.857 
#    0.000    0.000    0.000    0.000    0.000    0.000 
#    0.000    0.000    0.000    0.000    0.000    0.000 
#
# Total GULP energy -156478.858569 kJ/mol
# GULP energy per Si atom -5588.530663 kJ/mol
# Density = 2.158537 g / cm^3
# Si number density = 21.634610 Si / 1000 Ang^3
#
#
#
# Elastic Constant Matrix: (Units=GPa)
#
#
# Indices 1 2 3 4 5 6 
#
# 1 79.4755 28.8956 40.9291 0.0000 -14.4376 0.0000
# 2 28.8956 76.0822 44.0193 0.0000 -0.6596 0.0000
# 3 40.9291 44.0193 97.9406 0.0000 -19.5343 0.0000
# 4 0.0000 0.0000 0.0000 29.4377 0.0000 -10.2598
# 5 -14.4376 -0.6596 -19.5343 0.0000 36.7251 0.0000
# 6 0.0000 0.0000 0.0000 -10.2598 0.0000 34.4261
#
#
#
# Elastic Compliance Matrix: (Units=1/GPa)
#
#
# Indices 1 2 3 4 5 6 
#
# 1 0.017095 -0.003795 -0.004599 0.000000 0.004206 0.000000
# 2 -0.003795 0.019262 -0.008166 0.000000 -0.005490 0.000000
# 3 -0.004599 -0.008166 0.017242 0.000000 0.007216 0.000000
# 4 0.000000 0.000000 0.000000 0.037907 0.000000 0.011297
# 5 0.004206 -0.005490 0.007216 0.000000 0.032623 0.000000
# 6 0.000000 0.000000 0.000000 0.011297 0.000000 0.032415
#
#
# Mechanical properties :
#
#
# Convention : Reuss Voigt Hill
#
# Bulk Modulus (GPa) = 48.83380 53.46515 51.14948
# Shear Modulus (GPa) = 25.44639 29.42808 27.43724
#
# Velocity S-wave (km/s) = 3.43328 3.69213 3.56506
# Velocity P-wave (km/s) = 6.19174 6.55303 6.37495
#
# Compressibility (1/GPa) = 0.02047762
#
# Stress axis : x y z
#
# Youngs Moduli (GPa) = 58.49669 51.91488 57.99775
#
# Poissons Ratio (x) = 0.19702 0.26676
# Poissons Ratio (y) = 0.22200 0.47363
# Poissons Ratio (z) = 0.26905 0.42396
#
# Static dielectric constant tensor:
#      x y z
#    x 1.811520 0.000000 -0.048420 
#    y 0.000000 1.824060 0.000000 
#    z -0.048420 0.000000 1.748640 
# 
# From -- ./inp_files/70862.got.cif
#   From: 2010.05.17/outbox.cif.g08.bks.cpg/sg15_36_cif.got.tgz:70862.got - 2010.06.03 18:47:42.
