data_PCOD9277695
_publ_section_title
;
Structure prediction by ZEFSAII (Michael W. Deem and Ramdas Pophale) SiO2 
 PCOD9277695
Probable space group: C 2/C
;
_chemical_formula_sum "Si O2"
_cell_formula_units_Z 64
_cell_length_a 17.336508
_cell_length_b 9.191307
_cell_length_c 17.523680
_cell_angle_alpha 90.000000
_cell_angle_beta 78.807202
_cell_angle_gamma 90.000000
_cell_volume 2739.202694
_symmetry_space_group_name_H-M "C 2/C"
_symmetry_group_IT_number 15
_symmetry_cell_setting 'monoclinic'
loop_
_space_group_symop_operation_xyz
x,y,z
-x,y,1/2-z
-x,-y,-z
x,-y,1/2+z
1/2+x,1/2+y,z
1/2-x,1/2+y,1/2-z
1/2-x,1/2-y,-z
1/2+x,1/2-y,1/2+z
loop_
_atom_site_type_symbol
_atom_site_label
_atom_site_fract_x
_atom_site_fract_y
_atom_site_fract_z
Si Si1 0.616890 0.944022 0.510878
Si Si2 0.668840 0.594132 0.303516
Si Si3 0.897239 0.771872 0.980884
Si Si4 0.422015 0.889098 0.814439
Si Si5 0.912648 0.705801 0.800132
Si Si6 0.293029 0.527655 0.971677
Si Si7 0.569147 0.661508 0.462125
Si Si8 0.705853 0.343307 0.190963
O O1 0.566645 0.911172 0.596770
O O2 0.708218 0.923408 0.518848
O O3 0.586803 0.834891 0.452033
O O4 0.612012 0.110504 0.484841
O O5 0.633188 0.673403 0.237007
O O6 0.601228 0.582513 0.380566
O O7 0.702050 0.440503 0.267992
O O8 0.730976 0.712993 0.321682
O O9 0.913692 0.747556 0.888169
O O10 0.976408 0.849471 0.995792
O O11 0.819314 0.870155 0.997913
O O12 0.500000 0.882033 0.750000
O O13 0.374424 0.744279 0.806175
O O14 0.380165 0.041446 0.798786
O O15 0.000000 0.702528 0.750000
O O16 0.282443 0.550293 0.883520
O O17 0.369041 0.618950 0.983762
#
# Coordination Sequence:
#
# PCOD9277695 Si02
#       8
#     8   8   8   8   8   8   8   8
#     4  11  23  46  73  99 142 188 233 284 362 421
#     4  12  25  43  70 101 138 187 240 291 355 425
#     4  11  24  42  70 103 138 187 236 293 347 421
#     4  10  23  43  72  99 133 181 232 288 352 421
#     4  10  20  41  67  95 135 180 232 289 352 410
#     4  12  24  45  71 102 147 184 232 295 358 421
#     4  12  24  44  71 104 144 188 235 290 360 420
#     4  12  25  46  70 101 139 186 237 295 357 426
#
# _framework density 23.364464000000002
#
# number of rings (size 3 to 8) (size 9 to 14) (size 15 to 20)
#    0.000    0.750    5.000    3.000    0.000    2.500 
#    4.500    0.000    0.000    0.000    0.000    0.000 
#    0.000    0.000    0.000    0.000    0.000    0.000 
#
# Total GULP energy -178875.275874 kJ/mol
# GULP energy per Si atom -5589.852371 kJ/mol
# Density = 2.331129 g / cm^3
# Si number density = 23.364464 Si / 1000 Ang^3
#
#
#
# Elastic Constant Matrix: (Units=GPa)
#
#
# Indices 1 2 3 4 5 6 
#
# 1 80.5737 11.6957 13.8807 0.0000 1.9783 0.0000
# 2 11.6957 81.1293 10.5452 0.0000 0.0038 0.0000
# 3 13.8807 10.5452 59.6364 0.0000 -10.3142 0.0000
# 4 0.0000 0.0000 0.0000 31.6100 0.0000 1.0263
# 5 1.9783 0.0038 -10.3142 0.0000 24.4934 0.0000
# 6 0.0000 0.0000 0.0000 1.0263 0.0000 36.6841
#
#
#
# Elastic Compliance Matrix: (Units=1/GPa)
#
#
# Indices 1 2 3 4 5 6 
#
# 1 0.013245 -0.001488 -0.003241 0.000000 -0.002434 0.000000
# 2 -0.001488 0.012807 -0.002047 0.000000 -0.000744 0.000000
# 3 -0.003241 -0.002047 0.019338 0.000000 0.008405 0.000000
# 4 0.000000 0.000000 0.000000 0.031664 0.000000 -0.000886
# 5 -0.002434 -0.000744 0.008405 0.000000 0.044564 0.000000
# 6 0.000000 0.000000 0.000000 -0.000886 0.000000 0.027285
#
#
# Mechanical properties :
#
#
# Convention : Reuss Voigt Hill
#
# Bulk Modulus (GPa) = 31.40833 32.62028 32.01430
# Shear Modulus (GPa) = 28.89064 30.90535 29.89799
#
# Velocity S-wave (km/s) = 3.52023 3.64091 3.58108
# Velocity P-wave (km/s) = 5.47674 5.62732 5.55254
#
# Compressibility (1/GPa) = 0.03183869
#
# Stress axis : x y z
#
# Youngs Moduli (GPa) = 75.49984 78.08475 51.71108
#
# Poissons Ratio (x) = 0.11620 0.16758
# Poissons Ratio (y) = 0.11235 0.10584
# Poissons Ratio (z) = 0.24467 0.15982
#
# Static dielectric constant tensor:
#      x y z
#    x 1.892860 0.000000 0.022220 
#    y 0.000000 1.971300 0.000000 
#    z 0.022220 0.000000 1.893700 
# 
# From -- ./inp_files/247461.got.cif
#   From: 2010.05.17/outbox.cif.g08.bks.cpg/sg15_124_cif.got.tgz:247461.got - 2010.06.03 18:47:42.
