data_PCOD9277674
_publ_section_title
;
Structure prediction by ZEFSAII (Michael W. Deem and Ramdas Pophale) SiO2 
 PCOD9277674
Probable space group: C 2/C
;
_chemical_formula_sum "Si O2"
_cell_formula_units_Z 44
_cell_length_a 17.097010
_cell_length_b 14.663406
_cell_length_c 22.011859
_cell_angle_alpha 90.000000
_cell_angle_beta 157.874082
_cell_angle_gamma 90.000000
_cell_volume 2078.461787
_symmetry_space_group_name_H-M "C 2/C"
_symmetry_group_IT_number 15
_symmetry_cell_setting 'monoclinic'
loop_
_space_group_symop_operation_xyz
x,y,z
-x,y,1/2-z
-x,-y,-z
x,-y,1/2+z
1/2+x,1/2+y,z
1/2-x,1/2+y,1/2-z
1/2-x,1/2-y,-z
1/2+x,1/2-y,1/2+z
loop_
_atom_site_type_symbol
_atom_site_label
_atom_site_fract_x
_atom_site_fract_y
_atom_site_fract_z
Si Si1 0.000000 0.267587 0.250000
Si Si2 0.138668 0.727860 0.509342
Si Si3 0.182036 0.024880 0.177789
Si Si4 0.460915 0.682888 0.090665
Si Si5 0.528113 0.877177 0.709021
Si Si6 0.301084 0.167409 0.816760
O O1 0.213788 0.324384 0.402071
O O2 0.005937 0.206416 0.315008
O O3 0.320524 0.798707 0.655067
O O4 0.126090 0.667910 0.561210
O O5 0.161549 0.667755 0.464889
O O6 0.924873 0.784165 0.349608
O O7 0.351078 0.073195 0.257438
O O8 0.086050 0.095252 0.157273
O O9 0.274265 0.933793 0.272878
O O10 0.000000 0.000000 0.000000
O O11 0.545994 0.769017 0.112698
O O12 0.500000 0.935728 0.750000
#
# Coordination Sequence:
#
# PCOD9277674 Si02
#       6
#     4   8   8   8   8   8
#     4  10  24  42  68  98 130 176 212 282 324 392
#     4  10  20  41  67  91 127 172 214 273 319 399
#     4  12  23  41  69  94 131 177 217 270 330 400
#     4  11  22  45  68  94 137 169 223 268 335 388
#     4  11  23  41  64  98 128 167 221 270 331 383
#     4  11  21  41  69  95 127 174 226 261 332 395
#
# _framework density 21.169501
#
# number of rings (size 3 to 8) (size 9 to 14) (size 15 to 20)
#    0.000    1.091    5.455    2.727    0.000    0.727 
#    9.818    0.000    2.000    0.000    0.000    0.000 
#    0.000    0.000    0.000    0.000    0.000    0.000 
#
# Total GULP energy -122941.776919 kJ/mol
# GULP energy per Si atom -5588.262587 kJ/mol
# Density = 2.112132 g / cm^3
# Si number density = 21.169501 Si / 1000 Ang^3
#
#
#
# Elastic Constant Matrix: (Units=GPa)
#
#
# Indices 1 2 3 4 5 6 
#
# 1 133.4211 41.8772 32.0895 -0.0051 -24.4859 -0.0020
# 2 41.8772 97.5583 22.0233 -0.0134 -5.3129 -0.0013
# 3 32.0895 22.0233 84.5410 -0.0299 -11.9165 -0.0015
# 4 -0.0051 -0.0134 -0.0299 20.9391 0.0025 -9.4787
# 5 -24.4859 -5.3129 -11.9165 0.0025 46.2357 0.0023
# 6 -0.0020 -0.0013 -0.0015 -9.4787 0.0023 2.3514
#
#
#
# Elastic Compliance Matrix: (Units=1/GPa)
#
#
# Indices 1 2 3 4 5 6 
#
# 1 0.009925 -0.003520 -0.002248 0.000004 0.004272 0.000016
# 2 -0.003520 0.012152 -0.001967 -0.000007 -0.000975 -0.000025
# 3 -0.002248 -0.001967 0.013484 -0.000023 0.002059 -0.000089
# 4 0.000004 -0.000007 -0.000023 -0.057904 0.000010 -0.233414
# 5 0.004272 -0.000975 0.002059 0.000010 0.024309 0.000021
# 6 0.000016 -0.000025 -0.000089 -0.233414 0.000021 -0.515626
#
#
# Mechanical properties :
#
#
# Convention : Reuss Voigt Hill
#
# Bulk Modulus (GPa) = 49.77275 56.38893 53.08084
# Shear Modulus (GPa) = -10.17309 28.54060 9.18376
#
# Velocity S-wave (km/s) = -2.19453 3.67576 2.08509
# Velocity P-wave (km/s) = 4.14020 6.68653 5.56107
#
# Compressibility (1/GPa) = 0.02009132
#
# Stress axis : x y z
#
# Youngs Moduli (GPa) = 100.75971 82.28943 74.15944
#
# Poissons Ratio (x) = 0.28966 0.16671
# Poissons Ratio (y) = 0.35468 0.14587
# Poissons Ratio (z) = 0.22650 0.16186
#
# Static dielectric constant tensor:
#      x y z
#    x 1.855380 0.000000 0.047050 
#    y 0.000000 1.674100 -0.000120 
#    z 0.047050 -0.000120 1.789230 
# 
# From -- ./inp_files/47001.got.cif
#   From: 2010.05.17/outbox.cif.g08.bks.cpg/sg15_24_cif.got.tgz:47001.got - 2010.06.03 18:47:42.
