data_PCOD9277573
_publ_section_title
;
Structure prediction by ZEFSAII (Michael W. Deem and Ramdas Pophale) SiO2 
 PCOD9277573
Probable space group: C 2/C
;
_chemical_formula_sum "Si O2"
_cell_formula_units_Z 52
_cell_length_a 5.424595
_cell_length_b 33.367231
_cell_length_c 12.511271
_cell_angle_alpha 90.000000
_cell_angle_beta 100.669853
_cell_angle_gamma 90.000000
_cell_volume 2225.432619
_symmetry_space_group_name_H-M "C 2/C"
_symmetry_group_IT_number 15
_symmetry_cell_setting 'monoclinic'
loop_
_space_group_symop_operation_xyz
x,y,z
-x,y,1/2-z
-x,-y,-z
x,-y,1/2+z
1/2+x,1/2+y,z
1/2-x,1/2+y,1/2-z
1/2-x,1/2-y,-z
1/2+x,1/2-y,1/2+z
loop_
_atom_site_type_symbol
_atom_site_label
_atom_site_fract_x
_atom_site_fract_y
_atom_site_fract_z
Si Si1 0.643067 0.622457 0.573762
Si Si2 0.000000 0.502740 0.250000
Si Si3 0.225463 0.705658 0.850034
Si Si4 0.017334 0.723829 0.439529
Si Si5 0.095899 0.365391 0.941521
Si Si6 0.741813 0.573874 0.319675
Si Si7 0.815644 0.036503 0.950690
O O1 0.638924 0.662534 0.646011
O O2 0.386733 0.626529 0.486254
O O3 0.618088 0.576659 0.614140
O O4 0.909348 0.628287 0.530639
O O5 0.222920 0.533781 0.246340
O O6 0.078330 0.480124 0.364543
O O7 0.379889 0.746367 0.848092
O O8 0.000000 0.704741 0.750000
O O9 0.138926 0.712153 0.966209
O O10 0.250000 0.750000 0.500000
O O11 0.081494 0.680206 0.400416
O O12 0.979008 0.397376 0.852289
O O13 0.500000 0.595138 0.250000
O O14 0.720250 0.557117 0.437933
O O15 0.000000 0.000000 0.000000
#
# Coordination Sequence:
#
# PCOD9277573 Si02
#       7
#     8   4   8   8   8   8   8
#     4  10  22  42  65  96 130 177 214 284 339 402
#     4  12  24  42  70  96 132 184 226 284 346 402
#     4  10  22  39  66  95 135 172 228 277 339 401
#     4  10  20  41  65  94 132 176 217 276 333 401
#     4  10  22  41  68  93 136 175 219 270 343 403
#     4  11  24  43  67 100 137 180 227 287 342 408
#     4  11  23  43  68  97 136 173 235 281 345 411
#
# _framework density 23.366244999999999
#
# number of rings (size 3 to 8) (size 9 to 14) (size 15 to 20)
#    0.000    1.538    3.077    1.385    3.231    2.462 
#    0.000    1.538    0.000    0.000    0.000    0.000 
#    0.000    0.000    0.000    0.000    0.000    0.000 
#
# Total GULP energy -144796.853018 kJ/mol
# GULP energy per Si atom -5569.109731 kJ/mol
# Density = 2.331306 g / cm^3
# Si number density = 23.366245 Si / 1000 Ang^3
#
#
#
# Elastic Constant Matrix: (Units=GPa)
#
#
# Indices 1 2 3 4 5 6 
#
# 1 60.3321 23.3010 21.8832 0.0000 22.4372 0.0000
# 2 23.3010 205.9931 27.1412 0.0000 35.9597 0.0000
# 3 21.8832 27.1412 98.5319 0.0000 30.2419 0.0000
# 4 0.0000 0.0000 0.0000 12.5083 0.0000 21.1024
# 5 22.4372 35.9597 30.2419 0.0000 52.4757 0.0000
# 6 0.0000 0.0000 0.0000 21.1024 0.0000 32.4079
#
#
#
# Elastic Compliance Matrix: (Units=1/GPa)
#
#
# Indices 1 2 3 4 5 6 
#
# 1 0.020217 -0.000807 -0.002168 0.000000 -0.006842 0.000000
# 2 -0.000807 0.005562 -0.000351 0.000000 -0.003264 0.000000
# 3 -0.002168 -0.000351 0.012597 0.000000 -0.006092 0.000000
# 4 0.000000 0.000000 0.000000 -0.811321 0.000000 0.528292
# 5 -0.006842 -0.003264 -0.006092 0.000000 0.027730 0.000000
# 6 0.000000 0.000000 0.000000 0.528292 0.000000 -0.313141
#
#
# Mechanical properties :
#
#
# Convention : Reuss Voigt Hill
#
# Bulk Modulus (GPa) = 31.52109 56.61201 44.06655
# Shear Modulus (GPa) = -4.80248 38.98050 17.08901
#
# Velocity S-wave (km/s) = -1.43519 4.08884 2.70729
# Velocity P-wave (km/s) = 3.28222 6.82438 5.35468
#
# Compressibility (1/GPa) = 0.03172479
#
# Stress axis : x y z
#
# Youngs Moduli (GPa) = 49.46230 179.79646 79.38398
#
# Poissons Ratio (x) = 0.14507 0.17209
# Poissons Ratio (y) = 0.03991 0.02787
# Poissons Ratio (z) = 0.10723 0.06311
#
# Static dielectric constant tensor:
#      x y z
#    x 1.854670 0.000000 -0.084860 
#    y 0.000000 1.953460 0.000000 
#    z -0.084860 0.000000 1.799620 
# 
# From -- ./inp_files/130880.got.cif
#   From: 2010.05.17/outbox.cif.g08.bks.cpg/sg15_66_cif.got.tgz:130880.got - 2010.06.03 18:47:42.
