data_PCOD9277872
_publ_section_title
;
Structure prediction by ZEFSAII (Michael W. Deem and Ramdas Pophale) SiO2 
 PCOD9277872
Probable space group: C 2/C
;
_chemical_formula_sum "Si O2"
_cell_formula_units_Z 60
_cell_length_a 15.068331
_cell_length_b 13.912587
_cell_length_c 14.172011
_cell_angle_alpha 90.000000
_cell_angle_beta 83.824507
_cell_angle_gamma 90.000000
_cell_volume 2953.772231
_symmetry_space_group_name_H-M "C 2/C"
_symmetry_group_IT_number 15
_symmetry_cell_setting 'monoclinic'
loop_
_space_group_symop_operation_xyz
x,y,z
-x,y,1/2-z
-x,-y,-z
x,-y,1/2+z
1/2+x,1/2+y,z
1/2-x,1/2+y,1/2-z
1/2-x,1/2-y,-z
1/2+x,1/2-y,1/2+z
loop_
_atom_site_type_symbol
_atom_site_label
_atom_site_fract_x
_atom_site_fract_y
_atom_site_fract_z
Si Si1 0.171242 0.020474 0.662967
Si Si2 0.031878 0.856281 0.639619
Si Si3 0.535322 0.111165 0.072619
Si Si4 0.000000 0.516357 0.750000
Si Si5 0.581946 0.143036 0.590178
Si Si6 0.025158 0.170024 0.636794
Si Si7 0.115711 0.008250 0.885418
Si Si8 0.711675 0.003889 0.507683
O O1 0.118004 0.112276 0.629071
O O2 0.161171 0.018410 0.776770
O O3 0.114548 0.928613 0.635318
O O4 0.267573 0.014132 0.604483
O O5 0.062450 0.755035 0.596460
O O6 0.000000 0.838105 0.750000
O O7 0.950009 0.916085 0.604231
O O8 0.483872 0.056083 0.163763
O O9 0.534347 0.224527 0.094128
O O10 0.635321 0.068129 0.054180
O O11 0.488976 0.100427 0.976482
O O12 0.930089 0.590466 0.807047
O O13 0.675109 0.109917 0.535412
O O14 0.000000 0.178224 0.750000
O O15 0.949024 0.101637 0.598678
O O16 0.194917 0.994824 0.949282
#
# Coordination Sequence:
#
# PCOD9277872 Si02
#       8
#     8   8   8   4   8   8   8   8
#     4   9  21  40  62  90 131 152 198 257 304 355
#     4   9  19  42  66  90 117 166 207 243 298 368
#     4  11  24  40  64  90 120 166 206 243 305 369
#     4  10  20  42  60  80 122 158 208 242 290 354
#     4  11  24  40  64  90 120 166 206 243 305 369
#     4   9  19  42  66  90 117 166 207 243 298 368
#     4   9  21  41  66  88 122 161 204 252 298 351
#     4  11  24  38  58  94 125 159 195 261 307 349
#
# _framework density 20.313009000000001
#
# number of rings (size 3 to 8) (size 9 to 14) (size 15 to 20)
#    0.000    2.133    1.333    3.200    3.733    6.400 
#    0.000    2.667    0.000    0.000    0.000    0.000 
#    0.000    0.000    0.000    0.000    0.000    0.000 
#
# Total GULP energy -167334.144280 kJ/mol
# GULP energy per Si atom -5577.804809 kJ/mol
# Density = 2.026678 g / cm^3
# Si number density = 20.313009 Si / 1000 Ang^3
#
#
#
# Elastic Constant Matrix: (Units=GPa)
#
#
# Indices 1 2 3 4 5 6 
#
# 1 42.7460 18.5600 33.8206 0.0000 -10.9740 0.0000
# 2 18.5600 142.4650 37.2417 0.0000 -7.0389 0.0000
# 3 33.8206 37.2417 113.9275 0.0000 -21.2580 0.0000
# 4 0.0000 0.0000 0.0000 -43.1974 0.0000 27.3500
# 5 -10.9740 -7.0389 -21.2580 0.0000 29.8839 0.0000
# 6 0.0000 0.0000 0.0000 27.3500 0.0000 -4.3178
#
#
#
# Elastic Compliance Matrix: (Units=1/GPa)
#
#
# Indices 1 2 3 4 5 6 
#
# 1 0.031810 -0.001828 -0.007779 0.000000 0.005717 0.000000
# 2 -0.001828 0.007780 -0.002057 0.000000 -0.000302 0.000000
# 3 -0.007779 -0.002057 0.012840 0.000000 0.005793 0.000000
# 4 0.000000 0.000000 0.000000 0.007690 0.000000 0.048708
# 5 0.005717 -0.000302 0.005793 0.000000 0.039612 0.000000
# 6 0.000000 0.000000 0.000000 0.048708 0.000000 0.076931
#
#
# Mechanical properties :
#
#
# Convention : Reuss Voigt Hill
#
# Bulk Modulus (GPa) = 34.36122 53.15368 43.75745
# Shear Modulus (GPa) = 23.84455 10.44150 17.14303
#
# Velocity S-wave (km/s) = 3.42988 2.26968 2.90822
# Velocity P-wave (km/s) = 5.71297 5.75263 5.73283
#
# Compressibility (1/GPa) = 0.02910258
#
# Stress axis : x y z
#
# Youngs Moduli (GPa) = 31.43656 128.53109 77.88185
#
# Poissons Ratio (x) = 0.23498 0.60582
# Poissons Ratio (y) = 0.05747 0.16019
# Poissons Ratio (z) = 0.24454 0.26437
#
# Static dielectric constant tensor:
#      x y z
#    x 1.714260 0.000000 -0.006620 
#    y 0.000000 1.730270 0.000000 
#    z -0.006620 0.000000 1.788950 
# 
# From -- ./inp_files/153948.got.cif
#   From: 2010.05.17/outbox.cif.g08.bks.cpg/sg15_77_cif.got.tgz:153948.got - 2010.06.03 18:47:42.
