data_PCOD9277917
_publ_section_title
;
Structure prediction by ZEFSAII (Michael W. Deem and Ramdas Pophale) SiO2 
 PCOD9277917
Probable space group: C 2/C
;
_chemical_formula_sum "Si O2"
_cell_formula_units_Z 44
_cell_length_a 8.350766
_cell_length_b 27.589788
_cell_length_c 8.658561
_cell_angle_alpha 90.000000
_cell_angle_beta 67.221234
_cell_angle_gamma 90.000000
_cell_volume 1839.308072
_symmetry_space_group_name_H-M "C 2/C"
_symmetry_group_IT_number 15
_symmetry_cell_setting 'monoclinic'
loop_
_space_group_symop_operation_xyz
x,y,z
-x,y,1/2-z
-x,-y,-z
x,-y,1/2+z
1/2+x,1/2+y,z
1/2-x,1/2+y,1/2-z
1/2-x,1/2-y,-z
1/2+x,1/2-y,1/2+z
loop_
_atom_site_type_symbol
_atom_site_label
_atom_site_fract_x
_atom_site_fract_y
_atom_site_fract_z
Si Si1 0.086066 0.546294 0.887841
Si Si2 0.342470 0.597450 0.622183
Si Si3 0.134735 0.160686 0.441909
Si Si4 0.667418 0.809555 0.344917
Si Si5 0.873661 0.628329 0.077438
Si Si6 0.500000 0.273699 0.750000
O O1 0.283962 0.552904 0.753365
O O2 0.000000 0.553635 0.750000
O O3 0.000000 0.500000 0.000000
O O4 0.030987 0.589687 0.023127
O O5 0.541718 0.612840 0.541885
O O6 0.244154 0.644293 0.728612
O O7 0.266572 0.599131 0.475714
O O8 0.214254 0.193103 0.547428
O O9 0.281592 0.145446 0.266029
O O10 0.989637 0.190665 0.400078
O O11 0.471682 0.825257 0.466801
O O12 0.654169 0.761752 0.246844
#
# Coordination Sequence:
#
# PCOD9277917 Si02
#       6
#     8   8   8   8   8   4
#     4   9  20  38  69  97 126 167 212 260 330 414
#     4  10  20  42  62  88 130 170 210 274 342 384
#     4  12  24  38  64  94 125 180 226 280 335 376
#     4  11  23  40  62  89 126 182 231 274 324 396
#     4  10  20  42  63  87 128 173 216 272 339 396
#     4  12  24  42  62  90 140 172 244 276 330 374
#
# _framework density 23.922039999999999
#
# number of rings (size 3 to 8) (size 9 to 14) (size 15 to 20)
#    0.000    1.455    3.636    2.727    0.000    5.818 
#    0.000    4.545    0.000    6.545    0.000    3.818 
#    0.000    0.000    0.000    0.000    0.000    0.000 
#
# Total GULP energy -122682.380947 kJ/mol
# GULP energy per Si atom -5576.471861 kJ/mol
# Density = 2.386759 g / cm^3
# Si number density = 23.922040 Si / 1000 Ang^3
#
#
#
# Elastic Constant Matrix: (Units=GPa)
#
#
# Indices 1 2 3 4 5 6 
#
# 1 81.4943 -6.5358 30.6279 0.0000 18.3605 0.0000
# 2 -6.5358 64.6828 23.1777 0.0000 -0.2334 0.0000
# 3 30.6279 23.1777 98.7567 0.0000 -5.1579 0.0000
# 4 0.0000 0.0000 0.0000 37.3085 0.0000 -5.4784
# 5 18.3605 -0.2334 -5.1579 0.0000 55.7972 0.0000
# 6 0.0000 0.0000 0.0000 -5.4784 0.0000 19.5242
#
#
#
# Elastic Compliance Matrix: (Units=1/GPa)
#
#
# Indices 1 2 3 4 5 6 
#
# 1 0.016267 0.003866 -0.006261 0.000000 -0.005915 0.000000
# 2 0.003866 0.017803 -0.005466 0.000000 -0.001703 0.000000
# 3 -0.006261 -0.005466 0.013522 0.000000 0.003287 0.000000
# 4 0.000000 0.000000 0.000000 0.027955 0.000000 0.007844
# 5 -0.005915 -0.001703 0.003287 0.000000 0.020165 0.000000
# 6 0.000000 0.000000 0.000000 0.007844 0.000000 0.053420
#
#
# Mechanical properties :
#
#
# Convention : Reuss Voigt Hill
#
# Bulk Modulus (GPa) = 31.37825 37.71926 34.54875
# Shear Modulus (GPa) = 28.49355 35.70357 32.09856
#
# Velocity S-wave (km/s) = 3.45498 3.86748 3.66703
# Velocity P-wave (km/s) = 5.39084 5.97871 5.69237
#
# Compressibility (1/GPa) = 0.03186921
#
# Stress axis : x y z
#
# Youngs Moduli (GPa) = 61.47560 56.16959 73.95214
#
# Poissons Ratio (x) = -0.21714 0.46302
# Poissons Ratio (y) = -0.23765 0.40424
# Poissons Ratio (z) = 0.38490 0.30703
#
# Static dielectric constant tensor:
#      x y z
#    x 2.060040 0.000000 0.018710 
#    y 0.000000 1.944920 0.000000 
#    z 0.018710 0.000000 1.927420 
# 
# From -- ./inp_files/25457.got.cif
#   From: 2010.05.17/outbox.cif.g08.bks.cpg/sg15_13_cif.got.tgz:25457.got - 2010.06.03 18:47:42.
