data_PCOD9277848
_publ_section_title
;
Structure prediction by ZEFSAII (Michael W. Deem and Ramdas Pophale) SiO2 
 PCOD9277848
Probable space group: C 2/C
;
_chemical_formula_sum "Si O2"
_cell_formula_units_Z 36
_cell_length_a 15.552150
_cell_length_b 10.845752
_cell_length_c 12.672194
_cell_angle_alpha 90.000000
_cell_angle_beta 121.335249
_cell_angle_gamma 90.000000
_cell_volume 1825.704554
_symmetry_space_group_name_H-M "C 2/C"
_symmetry_group_IT_number 15
_symmetry_cell_setting 'monoclinic'
loop_
_space_group_symop_operation_xyz
x,y,z
-x,y,1/2-z
-x,-y,-z
x,-y,1/2+z
1/2+x,1/2+y,z
1/2-x,1/2+y,1/2-z
1/2-x,1/2-y,-z
1/2+x,1/2-y,1/2+z
loop_
_atom_site_type_symbol
_atom_site_label
_atom_site_fract_x
_atom_site_fract_y
_atom_site_fract_z
Si Si1 0.767933 0.144985 0.097195
Si Si2 0.552468 0.128578 0.061199
Si Si3 0.887552 0.947760 0.059231
Si Si4 0.561711 0.352759 0.627063
Si Si5 0.500000 0.761717 0.750000
O O1 0.668813 0.127172 0.103107
O O2 0.863111 0.178634 0.231013
O O3 0.796858 0.021016 0.053298
O O4 0.750000 0.250000 0.000000
O O5 0.539030 0.160502 0.175916
O O6 0.499799 0.237946 0.959660
O O7 0.500000 0.000000 0.000000
O O8 0.916503 0.830521 0.148227
O O9 0.874153 0.906564 0.930053
O O10 0.982960 0.042013 0.113482
#
# Coordination Sequence:
#
# PCOD9277848 Si02
#       5
#     8   8   8   8   4
#     4  12  24  39  70 102 132 178 221 279 351 394
#     4  11  27  44  63 100 144 174 218 287 353 397
#     4  10  20  41  72  95 128 174 237 280 313 410
#     4  10  22  42  66 100 133 174 228 278 330 409
#     4  10  22  46  70  88 130 188 226 272 332 408
#
# _framework density 19.718416999999999
#
# number of rings (size 3 to 8) (size 9 to 14) (size 15 to 20)
#    0.000    1.333    4.444    0.000    0.000    7.111 
#    0.000    4.444    0.000    0.000    0.000    0.000 
#    0.000    0.000    0.000    0.000    0.000    0.000 
#
# Total GULP energy -100629.110392 kJ/mol
# GULP energy per Si atom -5590.506133 kJ/mol
# Density = 1.967354 g / cm^3
# Si number density = 19.718417 Si / 1000 Ang^3
#
#
#
# Elastic Constant Matrix: (Units=GPa)
#
#
# Indices 1 2 3 4 5 6 
#
# 1 129.1252 57.7212 39.8693 0.0000 -22.2232 0.0000
# 2 57.7212 89.8221 41.9786 0.0000 -24.8439 0.0000
# 3 39.8693 41.9786 125.0162 0.0000 -19.7218 0.0000
# 4 0.0000 0.0000 0.0000 33.8507 0.0000 -8.3703
# 5 -22.2232 -24.8439 -19.7218 0.0000 31.1117 0.0000
# 6 0.0000 0.0000 0.0000 -8.3703 0.0000 37.3152
#
#
#
# Elastic Compliance Matrix: (Units=1/GPa)
#
#
# Indices 1 2 3 4 5 6 
#
# 1 0.011201 -0.005956 -0.001178 0.000000 0.002498 0.000000
# 2 -0.005956 0.018825 -0.003024 0.000000 0.008861 0.000000
# 3 -0.001178 -0.003024 0.009863 0.000000 0.002996 0.000000
# 4 0.000000 0.000000 0.000000 0.031276 0.000000 0.007016
# 5 0.002498 0.008861 0.002996 0.000000 0.042901 0.000000
# 6 0.000000 0.000000 0.000000 0.007016 0.000000 0.028372
#
#
# Mechanical properties :
#
#
# Convention : Reuss Voigt Hill
#
# Bulk Modulus (GPa) = 51.09367 69.23353 60.16360
# Shear Modulus (GPa) = 29.53728 34.08183 31.80955
#
# Velocity S-wave (km/s) = 3.87454 4.16194 4.02081
# Velocity P-wave (km/s) = 6.78115 7.63433 7.22035
#
# Compressibility (1/GPa) = 0.01957190
#
# Stress axis : x y z
#
# Youngs Moduli (GPa) = 89.28123 53.12165 101.39358
#
# Poissons Ratio (x) = 0.31641 0.11944
# Poissons Ratio (y) = 0.53179 0.30658
# Poissons Ratio (z) = 0.10517 0.16062
#
# Static dielectric constant tensor:
#      x y z
#    x 1.680580 0.000000 -0.013340 
#    y 0.000000 1.679370 0.000000 
#    z -0.013340 0.000000 1.682080 
# 
# From -- ./inp_files/94772.got.cif
#   From: 2010.05.17/outbox.cif.g08.bks.cpg/sg15_48_cif.got.tgz:94772.got - 2010.06.03 18:47:42.
