data_PCOD9277698
_publ_section_title
;
Structure prediction by ZEFSAII (Michael W. Deem and Ramdas Pophale) SiO2 
 PCOD9277698
Probable space group: C 2/C
;
_chemical_formula_sum "Si O2"
_cell_formula_units_Z 40
_cell_length_a 7.744751
_cell_length_b 13.680802
_cell_length_c 18.660597
_cell_angle_alpha 90.000000
_cell_angle_beta 96.087863
_cell_angle_gamma 90.000000
_cell_volume 1966.022053
_symmetry_space_group_name_H-M "C 2/C"
_symmetry_group_IT_number 15
_symmetry_cell_setting 'monoclinic'
loop_
_space_group_symop_operation_xyz
x,y,z
-x,y,1/2-z
-x,-y,-z
x,-y,1/2+z
1/2+x,1/2+y,z
1/2-x,1/2+y,1/2-z
1/2-x,1/2-y,-z
1/2+x,1/2-y,1/2+z
loop_
_atom_site_type_symbol
_atom_site_label
_atom_site_fract_x
_atom_site_fract_y
_atom_site_fract_z
Si Si1 0.862493 0.845058 0.019867
Si Si2 0.206796 0.501072 0.105689
Si Si3 0.018108 0.113191 0.672732
Si Si4 0.087251 0.617369 0.830910
Si Si5 0.656337 0.696694 0.430524
O O1 0.749096 0.940527 0.034477
O O2 0.965950 0.826855 0.099289
O O3 0.750000 0.750000 0.000000
O O4 0.993343 0.858991 0.959933
O O5 0.371062 0.470923 0.163346
O O6 0.216142 0.615662 0.095498
O O7 0.032466 0.457288 0.130491
O O8 0.215561 0.081663 0.669938
O O9 0.000000 0.162115 0.750000
O O10 0.095145 0.720858 0.872632
O O11 0.000000 0.630966 0.750000
O O12 0.750000 0.750000 0.500000
#
# Coordination Sequence:
#
# PCOD9277698 Si02
#       5
#     8   8   8   8   8
#     4  10  20  41  67  96 135 176 226 284 344 404
#     4  10  24  41  68  96 134 179 228 279 355 401
#     4  10  21  42  68  91 135 179 223 285 345 411
#     4  12  23  44  69  97 140 181 230 289 348 417
#     4  12  23  43  66 103 136 177 232 284 343 413
#
# _framework density 20.345652999999999
#
# number of rings (size 3 to 8) (size 9 to 14) (size 15 to 20)
#    1.200    0.000    6.000    0.600    0.000    1.600 
#    3.600    1.000    0.000    0.000    0.000    0.000 
#    0.000    0.000    0.000    0.000    0.000    0.000 
#
# Total GULP energy -111557.432426 kJ/mol
# GULP energy per Si atom -5577.871621 kJ/mol
# Density = 2.029934 g / cm^3
# Si number density = 20.345653 Si / 1000 Ang^3
#
#
#
# Elastic Constant Matrix: (Units=GPa)
#
#
# Indices 1 2 3 4 5 6 
#
# 1 147.2424 46.9369 30.2411 0.0000 -12.3477 0.0000
# 2 46.9369 102.1747 48.5256 0.0000 -3.0183 0.0000
# 3 30.2411 48.5256 59.8192 0.0000 -1.5795 0.0000
# 4 0.0000 0.0000 0.0000 14.9203 0.0000 0.0009
# 5 -12.3477 -3.0183 -1.5795 0.0000 41.7214 0.0000
# 6 0.0000 0.0000 0.0000 0.0009 0.0000 30.2948
#
#
#
# Elastic Compliance Matrix: (Units=1/GPa)
#
#
# Indices 1 2 3 4 5 6 
#
# 1 0.008258 -0.002886 -0.001777 0.000000 0.002168 0.000000
# 2 -0.002886 0.016948 -0.012292 0.000000 -0.000093 0.000000
# 3 -0.001777 -0.012292 0.027576 0.000000 -0.000371 0.000000
# 4 0.000000 0.000000 0.000000 0.067023 0.000000 -0.000002
# 5 0.002168 -0.000093 -0.000371 0.000000 0.024589 0.000000
# 6 0.000000 0.000000 0.000000 -0.000002 0.000000 0.033009
#
#
# Mechanical properties :
#
#
# Convention : Reuss Voigt Hill
#
# Bulk Modulus (GPa) = 52.98241 62.29371 57.63806
# Shear Modulus (GPa) = 22.97766 29.62282 26.30024
#
# Velocity S-wave (km/s) = 3.36425 3.81987 3.59927
# Velocity P-wave (km/s) = 6.41783 7.08091 6.75751
#
# Compressibility (1/GPa) = 0.01887419
#
# Stress axis : x y z
#
# Youngs Moduli (GPa) = 121.09274 59.00498 36.26283
#
# Poissons Ratio (x) = 0.17028 0.06442
# Poissons Ratio (y) = 0.34945 0.44573
# Poissons Ratio (z) = 0.21513 0.72527
#
# Static dielectric constant tensor:
#      x y z
#    x 1.773830 0.000000 -0.000800 
#    y 0.000000 1.699790 0.000000 
#    z -0.000800 0.000000 1.757330 
# 
# From -- ./inp_files/187959.got.cif
#   From: 2010.05.17/outbox.cif.g08.bks.cpg/sg15_94_cif.got.tgz:187959.got - 2010.06.03 18:47:42.
