data_PCOD9277411
_publ_section_title
;
Structure prediction by ZEFSAII (Michael W. Deem and Ramdas Pophale) SiO2 
 PCOD9277411
Probable space group: C 2/C
;
_chemical_formula_sum "Si O2"
_cell_formula_units_Z 60
_cell_length_a 8.182907
_cell_length_b 21.231997
_cell_length_c 24.839248
_cell_angle_alpha 90.000000
_cell_angle_beta 45.401583
_cell_angle_gamma 90.000000
_cell_volume 3072.873031
_symmetry_space_group_name_H-M "C 2/C"
_symmetry_group_IT_number 15
_symmetry_cell_setting 'monoclinic'
loop_
_space_group_symop_operation_xyz
x,y,z
-x,y,1/2-z
-x,-y,-z
x,-y,1/2+z
1/2+x,1/2+y,z
1/2-x,1/2+y,1/2-z
1/2-x,1/2-y,-z
1/2+x,1/2-y,1/2+z
loop_
_atom_site_type_symbol
_atom_site_label
_atom_site_fract_x
_atom_site_fract_y
_atom_site_fract_z
Si Si1 0.047369 0.889361 0.130106
Si Si2 0.000000 0.568779 0.250000
Si Si3 0.836163 0.968104 0.494282
Si Si4 0.714839 0.481684 0.235774
Si Si5 0.329507 0.860049 0.893323
Si Si6 0.978242 0.424143 0.426917
Si Si7 0.008136 0.244326 0.588475
Si Si8 0.176066 0.197411 0.974905
O O1 0.310171 0.901489 0.086124
O O2 0.013490 0.816599 0.125206
O O3 0.886904 0.919157 0.212478
O O4 0.016666 0.930567 0.083378
O O5 0.818817 0.526317 0.258011
O O6 0.882245 0.611341 0.323063
O O7 0.683742 0.916119 0.560035
O O8 0.685182 0.025186 0.506093
O O9 0.000000 0.000000 0.500000
O O10 0.500000 0.508341 0.250000
O O11 0.913631 0.460708 0.148979
O O12 0.507919 0.807701 0.873240
O O13 0.079179 0.827607 0.952269
O O14 0.837560 0.363379 0.440930
O O15 0.250000 0.250000 0.500000
O O16 0.828472 0.229175 0.582979
O O17 0.250000 0.250000 0.000000
#
# Coordination Sequence:
#
# PCOD9277411 Si02
#       8
#     8   4   8   8   8   8   8   8
#     4  11  22  40  65  89 129 167 209 265 318 392
#     4  12  24  46  70  90 138 178 210 272 336 386
#     4  12  20  37  62  96 122 159 215 261 320 386
#     4  10  25  42  64  98 132 169 213 268 330 401
#     4  11  23  41  66  91 128 173 214 265 329 384
#     4  11  22  39  62  97 125 164 211 266 327 381
#     4  10  20  41  62  88 125 163 211 264 313 381
#     4  11  23  41  67  95 126 167 219 270 323 393
#
# _framework density 19.525700000000001
#
# number of rings (size 3 to 8) (size 9 to 14) (size 15 to 20)
#    0.000    1.067    5.333    2.800    1.867    0.000 
#    8.400    0.000    0.000    0.000    0.000    0.000 
#    0.000    0.000    0.000    0.000    0.000    0.000 
#
# Total GULP energy -167563.933814 kJ/mol
# GULP energy per Si atom -5585.464460 kJ/mol
# Density = 1.948126 g / cm^3
# Si number density = 19.525700 Si / 1000 Ang^3
#
#
#
# Elastic Constant Matrix: (Units=GPa)
#
#
# Indices 1 2 3 4 5 6 
#
# 1 96.8813 61.4454 -1.2716 -0.0003 9.1667 0.0004
# 2 61.4454 133.1475 12.6314 -0.0001 5.1492 0.0000
# 3 -1.2716 12.6314 35.6296 -0.0002 6.8831 0.0001
# 4 -0.0003 -0.0001 -0.0002 29.5728 0.0002 10.6603
# 5 9.1667 5.1492 6.8831 0.0002 26.4830 -0.0003
# 6 0.0004 0.0000 0.0001 10.6603 -0.0003 35.9300
#
#
#
# Elastic Compliance Matrix: (Units=1/GPa)
#
#
# Indices 1 2 3 4 5 6 
#
# 1 0.015518 -0.007359 0.004132 0.000000 -0.005014 0.000000
# 2 -0.007359 0.011280 -0.004559 0.000000 0.001539 0.000000
# 3 0.004132 -0.004559 0.031518 0.000000 -0.008735 0.000000
# 4 0.000000 0.000000 0.000000 0.037865 -0.000001 -0.011234
# 5 -0.005014 0.001539 -0.008735 -0.000001 0.041467 0.000001
# 6 0.000000 0.000000 0.000000 -0.011234 0.000001 0.031165
#
#
# Mechanical properties :
#
#
# Convention : Reuss Voigt Hill
#
# Bulk Modulus (GPa) = 23.39609 45.69654 34.54632
# Shear Modulus (GPa) = 25.17206 31.25404 28.21305
#
# Velocity S-wave (km/s) = 3.59440 4.00517 3.80533
# Velocity P-wave (km/s) = 5.40690 6.69646 6.08593
#
# Compressibility (1/GPa) = 0.04274219
#
# Stress axis : x y z
#
# Youngs Moduli (GPa) = 64.44055 88.65494 31.72819
#
# Poissons Ratio (x) = 0.65245 -0.13109
# Poissons Ratio (y) = 0.47425 0.14464
# Poissons Ratio (z) = -0.26624 0.40417
#
# Static dielectric constant tensor:
#      x y z
#    x 1.712830 0.000000 0.013180 
#    y 0.000000 1.678140 0.000000 
#    z 0.013180 0.000000 1.677460 
# 
# From -- ./inp_files/289574.got.cif
#   From: 2010.05.17/outbox.cif.g08.bks.cpg/sg15_145_cif.got.tgz:289574.got - 2010.06.03 18:47:42.
