data_PCOD9277387
_publ_section_title
;
Structure prediction by ZEFSAII (Michael W. Deem and Ramdas Pophale) SiO2 
 PCOD9277387
Probable space group: C 2/C
;
_chemical_formula_sum "Si O2"
_cell_formula_units_Z 60
_cell_length_a 28.915482
_cell_length_b 15.729140
_cell_length_c 14.832756
_cell_angle_alpha 90.000000
_cell_angle_beta 24.220032
_cell_angle_gamma 90.000000
_cell_volume 2767.561562
_symmetry_space_group_name_H-M "C 2/C"
_symmetry_group_IT_number 15
_symmetry_cell_setting 'monoclinic'
loop_
_space_group_symop_operation_xyz
x,y,z
-x,y,1/2-z
-x,-y,-z
x,-y,1/2+z
1/2+x,1/2+y,z
1/2-x,1/2+y,1/2-z
1/2-x,1/2-y,-z
1/2+x,1/2-y,1/2+z
loop_
_atom_site_type_symbol
_atom_site_label
_atom_site_fract_x
_atom_site_fract_y
_atom_site_fract_z
Si Si1 0.299852 0.113868 0.861679
Si Si2 0.132664 0.797328 0.786401
Si Si3 0.286419 0.836616 0.890130
Si Si4 0.594365 0.960952 0.709928
Si Si5 0.500000 0.404685 0.250000
Si Si6 0.552843 0.429790 0.341077
Si Si7 0.764523 0.844528 0.713865
Si Si8 0.662854 0.969582 0.391725
O O1 0.374531 0.199325 0.726174
O O2 0.284066 0.080381 0.787327
O O3 0.353291 0.041759 0.830967
O O4 0.185987 0.146741 0.111525
O O5 0.221379 0.802714 0.713450
O O6 0.016474 0.842386 0.019708
O O7 0.184183 0.904395 0.096505
O O8 0.250000 0.750000 0.000000
O O9 0.392996 0.882094 0.745156
O O10 0.303611 0.816988 0.753509
O O11 0.654480 0.934203 0.508547
O O12 0.465949 0.981526 0.912625
O O13 0.514402 0.460793 0.311456
O O14 0.391777 0.345727 0.450747
O O15 0.500000 0.500000 0.500000
O O16 0.725447 0.941464 0.794833
#
# Coordination Sequence:
#
# PCOD9277387 Si02
#       8
#     8   8   8   8   4   8   8   8
#     4  11  22  41  65  91 125 173 213 259 321 396
#     4  10  23  39  64  93 130 164 216 261 326 394
#     4  11  25  39  63  95 131 163 219 275 325 374
#     4  11  24  43  60  98 121 175 219 262 322 388
#     4   8  20  36  60  88 120 158 206 254 310 382
#     4  10  21  40  64  90 124 169 206 265 321 386
#     4  10  20  41  61  91 124 166 205 267 323 377
#     4  11  24  39  68  86 130 166 218 268 315 388
#
# _framework density 21.679734
#
# number of rings (size 3 to 8) (size 9 to 14) (size 15 to 20)
#    0.000    1.600    2.667    1.200    7.467    0.000 
#    0.000    0.000    0.000    0.000    0.000    0.000 
#    0.000    0.000    0.000    0.000    0.000    0.000 
#
# Total GULP energy -167283.577948 kJ/mol
# GULP energy per Si atom -5576.119265 kJ/mol
# Density = 2.163039 g / cm^3
# Si number density = 21.679734 Si / 1000 Ang^3
#
#
#
# Elastic Constant Matrix: (Units=GPa)
#
#
# Indices 1 2 3 4 5 6 
#
# 1 116.5511 34.7123 23.5147 0.0000 32.6739 0.0000
# 2 34.7123 77.6335 10.6204 0.0000 -0.0006 0.0000
# 3 23.5147 10.6204 66.7794 0.0000 10.2792 0.0000
# 4 0.0000 0.0000 0.0000 16.5888 0.0000 5.1920
# 5 32.6739 -0.0006 10.2792 0.0000 40.0732 0.0000
# 6 0.0000 0.0000 0.0000 5.1920 0.0000 19.1566
#
#
#
# Elastic Compliance Matrix: (Units=1/GPa)
#
#
# Indices 1 2 3 4 5 6 
#
# 1 0.013761 -0.005841 -0.002280 0.000000 -0.010636 0.000000
# 2 -0.005841 0.015659 -0.001215 0.000000 0.005074 0.000000
# 3 -0.002280 -0.001215 0.016329 0.000000 -0.002330 0.000000
# 4 0.000000 0.000000 0.000000 0.065869 0.000000 -0.017852
# 5 -0.010636 0.005074 -0.002330 0.000000 0.034224 0.000000
# 6 0.000000 0.000000 0.000000 -0.017852 0.000000 0.057040
#
#
# Mechanical properties :
#
#
# Convention : Reuss Voigt Hill
#
# Bulk Modulus (GPa) = 36.92968 44.29545 40.61256
# Shear Modulus (GPa) = 21.68453 27.97149 24.82801
#
# Velocity S-wave (km/s) = 3.16606 3.59585 3.38778
# Velocity P-wave (km/s) = 5.51692 6.14136 5.83749
#
# Compressibility (1/GPa) = 0.02707849
#
# Stress axis : x y z
#
# Youngs Moduli (GPa) = 72.66859 63.86091 61.24004
#
# Poissons Ratio (x) = 0.37303 0.13960
# Poissons Ratio (y) = 0.42448 0.07438
# Poissons Ratio (z) = 0.16565 0.07757
#
# Static dielectric constant tensor:
#      x y z
#    x 1.864530 0.000000 0.013380 
#    y 0.000000 1.772030 0.000000 
#    z 0.013380 0.000000 1.850420 
# 
# From -- ./inp_files/178537.got.cif
#   From: 2010.05.17/outbox.cif.g08.bks.cpg/sg15_90_cif.got.tgz:178537.got - 2010.06.03 18:47:42.
