data_PCOD9277395
_publ_section_title
;
Structure prediction by ZEFSAII (Michael W. Deem and Ramdas Pophale) SiO2 
 PCOD9277395
Probable space group: C 2/C
;
_chemical_formula_sum "Si O2"
_cell_formula_units_Z 56
_cell_length_a 13.493899
_cell_length_b 28.887729
_cell_length_c 6.045921
_cell_angle_alpha 90.000000
_cell_angle_beta 87.663495
_cell_angle_gamma 90.000000
_cell_volume 2354.789616
_symmetry_space_group_name_H-M "C 2/C"
_symmetry_group_IT_number 15
_symmetry_cell_setting 'monoclinic'
loop_
_space_group_symop_operation_xyz
x,y,z
-x,y,1/2-z
-x,-y,-z
x,-y,1/2+z
1/2+x,1/2+y,z
1/2-x,1/2+y,1/2-z
1/2-x,1/2-y,-z
1/2+x,1/2-y,1/2+z
loop_
_atom_site_type_symbol
_atom_site_label
_atom_site_fract_x
_atom_site_fract_y
_atom_site_fract_z
Si Si1 0.311720 0.893386 0.732629
Si Si2 0.879710 0.517261 0.381810
Si Si3 0.000000 0.063942 0.250000
Si Si4 0.000000 0.240924 0.250000
Si Si5 0.603510 0.795606 0.861930
Si Si6 0.864172 0.107162 0.908872
Si Si7 0.314889 0.537884 0.539486
Si Si8 0.607986 0.708043 0.636386
O O1 0.390815 0.927901 0.840459
O O2 0.341108 0.843880 0.638117
O O3 0.229669 0.887523 0.926105
O O4 0.262144 0.924094 0.547420
O O5 0.911944 0.504173 0.634174
O O6 0.760529 0.504145 0.400621
O O7 0.956809 0.096306 0.060049
O O8 0.908806 0.034565 0.363225
O O9 0.931059 0.273854 0.405045
O O10 0.079037 0.210842 0.381809
O O11 0.500000 0.807442 0.750000
O O12 0.660436 0.754653 0.719914
O O13 0.855951 0.063471 0.751281
O O14 0.864574 0.156981 0.790689
O O15 0.500000 0.715136 0.750000
#
# Coordination Sequence:
#
# PCOD9277395 Si02
#       8
#     8   8   4   4   8   8   8   8
#     4  10  22  37  59  86 115 153 200 248 303 363
#     4  10  20  41  62  86 118 164 205 249 312 365
#     4  10  21  34  56  86 118 158 210 248 281 356
#     4   8  17  36  56  80 114 152 190 238 307 358
#     4   9  20  38  59  87 114 150 196 243 302 367
#     4  11  20  36  56  86 118 159 199 244 298 347
#     4  10  21  36  58  83 119 161 201 246 300 353
#     4   9  18  32  55  81 117 156 193 239 292 357
#
# _framework density 23.781317999999999
#
# number of rings (size 3 to 8) (size 9 to 14) (size 15 to 20)
#    0.000    2.571    1.429    1.714    0.000    6.286 
#    0.000    7.857    0.000    3.429    0.000    0.000 
#    0.000    0.000    0.000    0.000    0.000    0.000 
#
# Total GULP energy -156093.880619 kJ/mol
# GULP energy per Si atom -5574.781451 kJ/mol
# Density = 2.372719 g / cm^3
# Si number density = 23.781318 Si / 1000 Ang^3
#
#
#
# Elastic Constant Matrix: (Units=GPa)
#
#
# Indices 1 2 3 4 5 6 
#
# 1 52.7647 21.4676 26.9269 0.0000 -1.2490 0.0000
# 2 21.4676 159.5177 19.6027 0.0000 0.9177 0.0000
# 3 26.9269 19.6027 88.2305 0.0000 4.3093 0.0000
# 4 0.0000 0.0000 0.0000 17.8267 0.0000 -6.7240
# 5 -1.2490 0.9177 4.3093 0.0000 38.4391 0.0000
# 6 0.0000 0.0000 0.0000 -6.7240 0.0000 24.6048
#
#
#
# Elastic Compliance Matrix: (Units=1/GPa)
#
#
# Indices 1 2 3 4 5 6 
#
# 1 0.023348 -0.002330 -0.006684 0.000000 0.001564 0.000000
# 2 -0.002330 0.006677 -0.000765 0.000000 -0.000149 0.000000
# 3 -0.006684 -0.000765 0.013628 0.000000 -0.001727 0.000000
# 4 0.000000 0.000000 0.000000 0.062542 0.000000 0.017092
# 5 0.001564 -0.000149 -0.001727 0.000000 0.026263 0.000000
# 6 0.000000 0.000000 0.000000 0.017092 0.000000 0.045313
#
#
# Mechanical properties :
#
#
# Convention : Reuss Voigt Hill
#
# Bulk Modulus (GPa) = 41.50220 48.50081 45.00150
# Shear Modulus (GPa) = 24.34716 31.67516 28.01116
#
# Velocity S-wave (km/s) = 3.20315 3.65353 3.43573
# Velocity P-wave (km/s) = 5.58298 6.18356 5.89093
#
# Compressibility (1/GPa) = 0.02409511
#
# Stress axis : x y z
#
# Youngs Moduli (GPa) = 42.83011 149.76058 73.37683
#
# Poissons Ratio (x) = 0.34890 0.49047
# Poissons Ratio (y) = 0.09978 0.05615
# Poissons Ratio (z) = 0.28629 0.11460
#
# Static dielectric constant tensor:
#      x y z
#    x 1.998860 0.000000 0.051770 
#    y 0.000000 2.011290 0.000000 
#    z 0.051770 0.000000 2.022180 
# 
# From -- ./inp_files/11540.got.cif
#   From: 2010.05.17/outbox.cif.g08.bks.cpg/sg15_6_cif.got.tgz:11540.got - 2010.06.03 18:47:42.
