data_PCOD9277074
_publ_section_title
;
Structure prediction by ZEFSAII (Michael W. Deem and Ramdas Pophale) SiO2 
 PCOD9277074
Probable space group: C 2/C
;
_chemical_formula_sum "Si O2"
_cell_formula_units_Z 52
_cell_length_a 12.924084
_cell_length_b 12.148538
_cell_length_c 19.556198
_cell_angle_alpha 90.000000
_cell_angle_beta 126.463572
_cell_angle_gamma 90.000000
_cell_volume 2469.398152
_symmetry_space_group_name_H-M "C 2/C"
_symmetry_group_IT_number 15
_symmetry_cell_setting 'monoclinic'
loop_
_space_group_symop_operation_xyz
x,y,z
-x,y,1/2-z
-x,-y,-z
x,-y,1/2+z
1/2+x,1/2+y,z
1/2-x,1/2+y,1/2-z
1/2-x,1/2-y,-z
1/2+x,1/2-y,1/2+z
loop_
_atom_site_type_symbol
_atom_site_label
_atom_site_fract_x
_atom_site_fract_y
_atom_site_fract_z
Si Si1 0.103109 0.207993 0.003533
Si Si2 0.854659 0.783397 0.697180
Si Si3 0.218309 0.123512 0.469628
Si Si4 0.846830 0.088451 0.906007
Si Si5 0.780184 0.850875 0.818650
Si Si6 0.365144 0.920388 0.560990
Si Si7 0.000000 0.380124 0.750000
O O1 0.128788 0.218064 0.094617
O O2 0.232746 0.146275 0.028239
O O3 0.071948 0.327876 0.961486
O O4 0.984194 0.131962 0.936995
O O5 0.841739 0.868902 0.628979
O O6 0.758426 0.681785 0.649281
O O7 0.819922 0.835723 0.756376
O O8 0.000000 0.741876 0.750000
O O9 0.250000 0.250000 0.500000
O O10 0.142593 0.081280 0.507028
O O11 0.334150 0.035872 0.513924
O O12 0.803651 0.976294 0.853158
O O13 0.630204 0.820020 0.774414
O O14 0.446526 0.941104 0.661737
#
# Coordination Sequence:
#
# PCOD9277074 Si02
#       7
#     8   8   8   8   8   8   4
#     4  10  21  38  67  95 128 174 228 267 352 402
#     4  11  26  41  63 101 137 174 234 287 342 399
#     4  10  22  42  63  93 132 178 220 272 342 410
#     4  11  22  42  68  90 131 185 227 277 345 422
#     4  11  23  40  70  98 133 180 229 286 345 416
#     4  10  21  39  67  98 135 173 221 293 332 412
#     4  10  20  40  68 100 132 168 238 276 344 398
#
# _framework density 21.057763000000001
#
# number of rings (size 3 to 8) (size 9 to 14) (size 15 to 20)
#    0.000    1.538    3.077    2.308    3.231    1.231 
#    0.000    8.462    3.385    0.000    0.000    0.000 
#    0.000    0.000    0.000    0.000    0.000    0.000 
#
# Total GULP energy -144981.623181 kJ/mol
# GULP energy per Si atom -5576.216276 kJ/mol
# Density = 2.100983 g / cm^3
# Si number density = 21.057763 Si / 1000 Ang^3
#
#
#
# Elastic Constant Matrix: (Units=GPa)
#
#
# Indices 1 2 3 4 5 6 
#
# 1 81.4680 26.3628 53.0539 0.0000 0.3304 0.0000
# 2 26.3628 118.0625 50.5418 0.0000 -8.3642 0.0000
# 3 53.0539 50.5418 135.7621 0.0000 -6.3719 0.0000
# 4 0.0000 0.0000 0.0000 27.5191 0.0000 -1.5449
# 5 0.3304 -8.3642 -6.3719 0.0000 46.1357 0.0000
# 6 0.0000 0.0000 0.0000 -1.5449 0.0000 19.1884
#
#
#
# Elastic Compliance Matrix: (Units=1/GPa)
#
#
# Indices 1 2 3 4 5 6 
#
# 1 0.016648 -0.001180 -0.006122 0.000000 -0.001179 0.000000
# 2 -0.001180 0.010240 -0.003285 0.000000 0.001411 0.000000
# 3 -0.006122 -0.003285 0.011027 0.000000 0.000971 0.000000
# 4 0.000000 0.000000 0.000000 0.036503 0.000000 0.002939
# 5 -0.001179 0.001411 0.000971 0.000000 0.022074 0.000000
# 6 0.000000 0.000000 0.000000 0.002939 0.000000 0.052351
#
#
# Mechanical properties :
#
#
# Convention : Reuss Voigt Hill
#
# Bulk Modulus (GPa) = 59.73334 66.13443 62.93389
# Shear Modulus (GPa) = 28.47440 32.25759 30.36600
#
# Velocity S-wave (km/s) = 3.68122 3.91815 3.80153
# Velocity P-wave (km/s) = 6.81884 7.20719 7.01570
#
# Compressibility (1/GPa) = 0.01674107
#
# Stress axis : x y z
#
# Youngs Moduli (GPa) = 60.06687 97.65878 90.69041
#
# Poissons Ratio (x) = 0.11526 0.55519
# Poissons Ratio (y) = 0.07089 0.29788
# Poissons Ratio (z) = 0.36772 0.32077
#
# Static dielectric constant tensor:
#      x y z
#    x 1.858190 0.000000 -0.002270 
#    y 0.000000 1.755760 0.000000 
#    z -0.002270 0.000000 1.774300 
# 
# From -- ./inp_files/243792.got.cif
#   From: 2010.05.17/outbox.cif.g08.bks.cpg/sg15_122_cif.got.tgz:243792.got - 2010.06.03 18:47:42.
