data_PCOD9277891
_publ_section_title
;
Structure prediction by ZEFSAII (Michael W. Deem and Ramdas Pophale) SiO2 
 PCOD9277891
Probable space group: C 2/C
;
_chemical_formula_sum "Si O2"
_cell_formula_units_Z 48
_cell_length_a 18.114095
_cell_length_b 9.625389
_cell_length_c 19.251635
_cell_angle_alpha 90.000000
_cell_angle_beta 132.641119
_cell_angle_gamma 90.000000
_cell_volume 2469.169146
_symmetry_space_group_name_H-M "C 2/C"
_symmetry_group_IT_number 15
_symmetry_cell_setting 'monoclinic'
loop_
_space_group_symop_operation_xyz
x,y,z
-x,y,1/2-z
-x,-y,-z
x,-y,1/2+z
1/2+x,1/2+y,z
1/2-x,1/2+y,1/2-z
1/2-x,1/2-y,-z
1/2+x,1/2-y,1/2+z
loop_
_atom_site_type_symbol
_atom_site_label
_atom_site_fract_x
_atom_site_fract_y
_atom_site_fract_z
Si Si1 0.517507 0.140653 0.913677
Si Si2 0.029733 0.952293 0.942752
Si Si3 0.632304 0.528264 0.276445
Si Si4 0.645427 0.073638 0.584918
Si Si5 0.000000 0.784658 0.250000
Si Si6 0.500000 0.765359 0.250000
Si Si7 0.860199 0.218381 0.539815
O O1 0.560609 0.291882 0.962351
O O2 0.408012 0.111339 0.876920
O O3 0.514099 0.145090 0.828275
O O4 0.583046 0.028225 0.995162
O O5 0.106215 0.058633 0.953386
O O6 0.928241 0.953055 0.832975
O O7 0.000000 0.000000 0.000000
O O8 0.748216 0.500746 0.339071
O O9 0.588199 0.387076 0.280899
O O10 0.594222 0.659329 0.298030
O O11 0.644507 0.213008 0.538854
O O12 0.946116 0.719329 0.147418
O O13 0.750000 0.250000 0.500000
#
# Coordination Sequence:
#
# PCOD9277891 Si02
#       7
#     8   8   8   8   4   4   8
#     4  10  23  41  63  88 133 160 209 266 318 375
#     4  10  20  42  61  88 122 168 209 253 315 386
#     4   9  19  37  64  86 125 164 210 257 312 377
#     4  11  22  40  61  97 128 159 205 275 318 362
#     4   9  18  35  60  90 122 162 206 256 308 376
#     4   9  20  43  64  86 122 180 210 250 318 402
#     4  11  21  37  64  92 125 162 211 257 310 378
#
# _framework density 19.439738999999999
#
# number of rings (size 3 to 8) (size 9 to 14) (size 15 to 20)
#    0.000    2.000    3.333    1.000    0.000    1.333 
#    6.000    3.333    0.000    0.000    0.000    0.000 
#    0.000    0.000    0.000    0.000    0.000    0.000 
#
# Total GULP energy -133683.165402 kJ/mol
# GULP energy per Si atom -5570.131892 kJ/mol
# Density = 1.939549 g / cm^3
# Si number density = 19.439739 Si / 1000 Ang^3
#
#
#
# Elastic Constant Matrix: (Units=GPa)
#
#
# Indices 1 2 3 4 5 6 
#
# 1 126.7388 34.2657 58.3680 0.0000 -4.7058 0.0000
# 2 34.2657 75.7738 17.3526 0.0000 0.5567 0.0000
# 3 58.3680 17.3526 61.3389 0.0000 -11.4674 0.0000
# 4 0.0000 0.0000 0.0000 13.0582 0.0000 -10.2104
# 5 -4.7058 0.5567 -11.4674 0.0000 45.4231 0.0000
# 6 0.0000 0.0000 0.0000 -10.2104 0.0000 24.5611
#
#
#
# Elastic Compliance Matrix: (Units=1/GPa)
#
#
# Indices 1 2 3 4 5 6 
#
# 1 0.015126 -0.003691 -0.013695 0.000000 -0.001845 0.000000
# 2 -0.003691 0.015079 -0.000902 0.000000 -0.000795 0.000000
# 3 -0.013695 -0.000902 0.030779 0.000000 0.006363 0.000000
# 4 0.000000 0.000000 0.000000 0.113460 0.000000 0.047167
# 5 -0.001845 -0.000795 0.006363 0.000000 0.023440 0.000000
# 6 0.000000 0.000000 0.000000 0.047167 0.000000 0.060323
#
#
# Mechanical properties :
#
#
# Convention : Reuss Voigt Hill
#
# Bulk Modulus (GPa) = 40.96905 53.75822 47.36363
# Shear Modulus (GPa) = 16.50605 26.86616 21.68610
#
# Velocity S-wave (km/s) = 2.91707 3.72159 3.34362
# Velocity P-wave (km/s) = 5.69793 6.79564 6.27085
#
# Compressibility (1/GPa) = 0.02440867
#
# Stress axis : x y z
#
# Youngs Moduli (GPa) = 66.10927 66.31901 32.48959
#
# Poissons Ratio (x) = 0.24476 0.44493
# Poissons Ratio (y) = 0.24399 0.02932
# Poissons Ratio (z) = 0.90535 0.05985
#
# Static dielectric constant tensor:
#      x y z
#    x 1.719640 0.000000 -0.008140 
#    y 0.000000 1.751850 0.000000 
#    z -0.008140 0.000000 1.703720 
# 
# From -- ./inp_files/252042.got.cif
#   From: 2010.05.17/outbox.cif.g08.bks.cpg/sg15_127_cif.got.tgz:252042.got - 2010.06.03 18:47:42.
