data_PCOD9277776
_publ_section_title
;
Structure prediction by ZEFSAII (Michael W. Deem and Ramdas Pophale) SiO2 
 PCOD9277776
Probable space group: C 2/C
;
_chemical_formula_sum "Si O2"
_cell_formula_units_Z 52
_cell_length_a 6.270661
_cell_length_b 32.640747
_cell_length_c 13.058498
_cell_angle_alpha 90.000000
_cell_angle_beta 70.011218
_cell_angle_gamma 90.000000
_cell_volume 2511.790391
_symmetry_space_group_name_H-M "C 2/C"
_symmetry_group_IT_number 15
_symmetry_cell_setting 'monoclinic'
loop_
_space_group_symop_operation_xyz
x,y,z
-x,y,1/2-z
-x,-y,-z
x,-y,1/2+z
1/2+x,1/2+y,z
1/2-x,1/2+y,1/2-z
1/2-x,1/2-y,-z
1/2+x,1/2-y,1/2+z
loop_
_atom_site_type_symbol
_atom_site_label
_atom_site_fract_x
_atom_site_fract_y
_atom_site_fract_z
Si Si1 0.377879 0.832490 0.370983
Si Si2 0.000000 0.920998 0.750000
Si Si3 0.850496 0.314056 0.972710
Si Si4 0.372215 0.010888 0.174422
Si Si5 0.323042 0.531929 0.978177
Si Si6 0.555163 0.736026 0.860560
Si Si7 0.966541 0.881799 0.538183
O O1 0.500000 0.849418 0.250000
O O2 0.546968 0.829642 0.437949
O O3 0.283797 0.787224 0.355593
O O4 0.167399 0.859091 0.445051
O O5 0.214520 0.951049 0.732679
O O6 0.965929 0.894679 0.857967
O O7 0.635206 0.286391 0.039838
O O8 0.031735 0.284165 0.888776
O O9 0.750225 0.351557 0.924702
O O10 0.500000 0.991475 0.250000
O O11 0.219621 0.980687 0.131943
O O12 0.577343 0.027403 0.071120
O O13 0.500000 0.500000 0.000000
O O14 0.409471 0.577101 0.985861
O O15 0.500000 0.729227 0.750000
#
# Coordination Sequence:
#
# PCOD9277776 Si02
#       7
#     8   4   8   8   8   8   8
#     4  11  23  43  70  97 140 187 223 282 346 410
#     4  12  24  46  70 102 140 182 224 300 354 404
#     4  10  23  41  64 101 130 174 227 281 341 402
#     4  11  22  41  74  96 130 184 232 286 345 408
#     4  11  23  44  69  98 136 183 238 277 345 424
#     4  10  20  41  69  93 130 176 227 277 334 414
#     4  11  26  42  69 101 142 175 231 288 349 415
#
# _framework density 20.702366000000001
#
# number of rings (size 3 to 8) (size 9 to 14) (size 15 to 20)
#    0.000    1.231    4.615    0.462    2.154    1.231 
#    0.000    7.692    0.000    0.000    0.000    0.000 
#    0.000    0.000    0.000    0.000    0.000    0.000 
#
# Total GULP energy -145260.600579 kJ/mol
# GULP energy per Si atom -5586.946176 kJ/mol
# Density = 2.065525 g / cm^3
# Si number density = 20.702366 Si / 1000 Ang^3
#
#
#
# Elastic Constant Matrix: (Units=GPa)
#
#
# Indices 1 2 3 4 5 6 
#
# 1 91.1279 35.9540 27.8467 0.0000 14.8964 0.0000
# 2 35.9540 113.3744 33.7373 0.0000 6.6430 0.0000
# 3 27.8467 33.7373 87.8946 0.0000 9.8041 0.0000
# 4 0.0000 0.0000 0.0000 6.9880 0.0000 -11.4687
# 5 14.8964 6.6430 9.8041 0.0000 50.6832 0.0000
# 6 0.0000 0.0000 0.0000 -11.4687 0.0000 -4.9399
#
#
#
# Elastic Compliance Matrix: (Units=1/GPa)
#
#
# Indices 1 2 3 4 5 6 
#
# 1 0.013610 -0.003337 -0.002692 0.000000 -0.003042 0.000000
# 2 -0.003337 0.010792 -0.003104 0.000000 0.000167 0.000000
# 3 -0.002692 -0.003104 0.013581 0.000000 -0.001429 0.000000
# 4 0.000000 0.000000 0.000000 0.029749 0.000000 -0.069067
# 5 -0.003042 0.000167 -0.001429 0.000000 0.020879 0.000000
# 6 0.000000 0.000000 0.000000 -0.069067 0.000000 -0.042083
#
#
# Mechanical properties :
#
#
# Convention : Reuss Voigt Hill
#
# Bulk Modulus (GPa) = 50.71467 54.16365 52.43916
# Shear Modulus (GPa) = 70.06137 23.53684 46.79911
#
# Velocity S-wave (km/s) = 5.82372 3.37548 4.75970
# Velocity P-wave (km/s) = 8.35291 6.43519 7.45596
#
# Compressibility (1/GPa) = 0.01971816
#
# Stress axis : x y z
#
# Youngs Moduli (GPa) = 73.47571 92.65757 73.63285
#
# Poissons Ratio (x) = 0.30918 0.19820
# Poissons Ratio (y) = 0.24517 0.22855
# Poissons Ratio (z) = 0.19778 0.28761
#
# Static dielectric constant tensor:
#      x y z
#    x 1.751670 0.000000 0.001210 
#    y 0.000000 1.731880 0.000000 
#    z 0.001210 0.000000 1.788120 
# 
# From -- ./inp_files/130726.got.cif
#   From: 2010.05.17/outbox.cif.g08.bks.cpg/sg15_66_cif.got.tgz:130726.got - 2010.06.03 18:47:42.
