data_PCOD9277560
_publ_section_title
;
Structure prediction by ZEFSAII (Michael W. Deem and Ramdas Pophale) SiO2 
 PCOD9277560
Probable space group: C 2/C
;
_chemical_formula_sum "Si O2"
_cell_formula_units_Z 64
_cell_length_a 15.225439
_cell_length_b 9.253108
_cell_length_c 29.356228
_cell_angle_alpha 90.000000
_cell_angle_beta 133.493976
_cell_angle_gamma 90.000000
_cell_volume 3000.290039
_symmetry_space_group_name_H-M "C 2/C"
_symmetry_group_IT_number 15
_symmetry_cell_setting 'monoclinic'
loop_
_space_group_symop_operation_xyz
x,y,z
-x,y,1/2-z
-x,-y,-z
x,-y,1/2+z
1/2+x,1/2+y,z
1/2-x,1/2+y,1/2-z
1/2-x,1/2-y,-z
1/2+x,1/2-y,1/2+z
loop_
_atom_site_type_symbol
_atom_site_label
_atom_site_fract_x
_atom_site_fract_y
_atom_site_fract_z
Si Si1 0.131037 0.013850 0.163896
Si Si2 0.066390 0.673986 0.650480
Si Si3 0.885314 0.602660 0.740115
Si Si4 0.602041 0.131124 0.486317
Si Si5 0.190831 0.620292 0.950995
Si Si6 0.357125 0.005285 0.903857
Si Si7 0.921745 0.036516 0.515979
Si Si8 0.614138 0.452793 0.760954
O O1 0.148418 0.185250 0.176970
O O2 0.115022 0.970567 0.211569
O O3 0.247827 0.945576 0.180454
O O4 0.008329 0.996877 0.090556
O O5 0.105626 0.559819 0.702928
O O6 0.070250 0.622157 0.600082
O O7 0.925744 0.693301 0.613697
O O8 0.894315 0.777426 0.745619
O O9 0.000000 0.553341 0.750000
O O10 0.662402 0.063833 0.552913
O O11 0.625147 0.300544 0.492531
O O12 0.643912 0.022851 0.461388
O O13 0.455520 0.122329 0.440429
O O14 0.250000 0.750000 0.000000
O O15 0.303757 0.559823 0.964519
O O16 0.236348 0.978497 0.832819
O O17 0.000000 0.000000 0.500000
O O18 0.500000 0.502340 0.750000
#
# Coordination Sequence:
#
# PCOD9277560 Si02
#       8
#     8   8   8   8   8   8   8   8
#     4  11  22  41  66  92 133 169 220 272 334 397
#     4  10  21  41  63  92 128 171 218 269 333 398
#     4  10  22  38  63  91 125 167 218 272 327 390
#     4  10  24  40  69  95 131 174 220 280 325 401
#     4  11  24  43  67  95 130 179 218 274 333 402
#     4  10  20  41  65  92 128 169 219 264 340 386
#     4  12  26  42  66 103 136 172 224 277 338 394
#     4  10  22  39  65  94 122 171 218 270 325 407
#
# _framework density 21.331271000000001
#
# number of rings (size 3 to 8) (size 9 to 14) (size 15 to 20)
#    0.000    1.500    2.500    1.875    7.000    1.000 
#    0.000    0.625    0.000    0.000    0.000    0.000 
#    0.000    0.000    0.000    0.000    0.000    0.000 
#
# Total GULP energy -178136.757006 kJ/mol
# GULP energy per Si atom -5566.773656 kJ/mol
# Density = 2.128272 g / cm^3
# Si number density = 21.331271 Si / 1000 Ang^3
#
#
#
# Elastic Constant Matrix: (Units=GPa)
#
#
# Indices 1 2 3 4 5 6 
#
# 1 117.1138 17.6319 22.8125 0.0000 6.0951 0.0000
# 2 17.6319 45.8818 -21.7629 0.0000 8.4955 0.0000
# 3 22.8125 -21.7629 91.6842 0.0000 7.2210 0.0000
# 4 0.0000 0.0000 0.0000 18.8683 0.0000 2.8606
# 5 6.0951 8.4955 7.2210 0.0000 27.5055 0.0000
# 6 0.0000 0.0000 0.0000 2.8606 0.0000 20.6003
#
#
#
# Elastic Compliance Matrix: (Units=1/GPa)
#
#
# Indices 1 2 3 4 5 6 
#
# 1 0.010173 -0.005913 -0.003983 0.000000 0.000618 0.000000
# 2 -0.005913 0.030577 0.009568 0.000000 -0.010646 0.000000
# 3 -0.003983 0.009568 0.014635 0.000000 -0.005915 0.000000
# 4 0.000000 0.000000 0.000000 0.054139 0.000000 -0.007518
# 5 0.000618 -0.010646 -0.005915 0.000000 0.041060 0.000000
# 6 0.000000 0.000000 0.000000 -0.007518 0.000000 0.049587
#
#
# Mechanical properties :
#
#
# Convention : Reuss Voigt Hill
#
# Bulk Modulus (GPa) = 18.27250 32.44917 25.36083
# Shear Modulus (GPa) = 22.82369 29.12803 25.97586
#
# Velocity S-wave (km/s) = 3.27458 3.69929 3.49339
# Velocity P-wave (km/s) = 4.78349 5.78717 5.30910
#
# Compressibility (1/GPa) = 0.05472706
#
# Stress axis : x y z
#
# Youngs Moduli (GPa) = 98.30236 32.70449 68.32925
#
# Poissons Ratio (x) = 0.19338 0.27218
# Poissons Ratio (y) = 0.58127 -0.65375
# Poissons Ratio (z) = 0.39157 -0.31291
#
# Static dielectric constant tensor:
#      x y z
#    x 1.811340 0.000000 -0.006260 
#    y 0.000000 1.772180 0.000000 
#    z -0.006260 0.000000 1.851330 
# 
# From -- ./inp_files/313185.got.cif
#   From: 2010.05.17/outbox.cif.g08.bks.cpg/sg15_157_cif.got.tgz:313185.got - 2010.06.03 18:47:42.
