data_PCOD9277125
_publ_section_title
;
Structure prediction by ZEFSAII (Michael W. Deem and Ramdas Pophale) SiO2 
 PCOD9277125
Probable space group: C 2/C
;
_chemical_formula_sum "Si O2"
_cell_formula_units_Z 64
_cell_length_a 20.875482
_cell_length_b 24.936507
_cell_length_c 17.886746
_cell_angle_alpha 90.000000
_cell_angle_beta 160.444329
_cell_angle_gamma 90.000000
_cell_volume 3116.653508
_symmetry_space_group_name_H-M "C 2/C"
_symmetry_group_IT_number 15
_symmetry_cell_setting 'monoclinic'
loop_
_space_group_symop_operation_xyz
x,y,z
-x,y,1/2-z
-x,-y,-z
x,-y,1/2+z
1/2+x,1/2+y,z
1/2-x,1/2+y,1/2-z
1/2-x,1/2-y,-z
1/2+x,1/2-y,1/2+z
loop_
_atom_site_type_symbol
_atom_site_label
_atom_site_fract_x
_atom_site_fract_y
_atom_site_fract_z
Si Si1 0.407030 0.811135 0.567658
Si Si2 0.600486 0.344176 0.646477
Si Si3 0.083572 0.947120 0.127854
Si Si4 0.878351 0.096201 0.545079
Si Si5 0.242032 0.202616 0.146422
Si Si6 0.949784 0.430924 0.613851
Si Si7 0.963269 0.670214 0.626969
Si Si8 0.619470 0.295092 0.956146
O O1 0.500000 0.794934 0.750000
O O2 0.546592 0.813486 0.648768
O O3 0.267412 0.763853 0.390619
O O4 0.348458 0.872496 0.517617
O O5 0.465544 0.393668 0.474023
O O6 0.672501 0.308746 0.654361
O O7 0.484396 0.312125 0.581969
O O8 0.803035 0.362038 0.905683
O O9 0.302790 0.956396 0.394335
O O10 0.965954 0.934798 0.072867
O O11 0.000000 0.000000 0.000000
O O12 0.886491 0.160551 0.541713
O O13 0.657639 0.080353 0.309398
O O14 0.000000 0.081374 0.750000
O O15 0.000000 0.456007 0.750000
O O16 0.874954 0.730341 0.540373
O O17 0.000000 0.647899 0.750000
O O18 0.168660 0.680050 0.814961
O O19 0.500000 0.311391 0.750000
#
# Coordination Sequence:
#
# PCOD9277125 Si02
#       8
#     8   8   8   8   8   8   8   8
#     4  10  21  34  55  89 131 172 205 242 295 369
#     4  11  25  39  60  94 127 163 209 267 316 369
#     4  11  26  46  66  92 124 154 207 274 327 356
#     4  10  20  40  68  93 122 167 210 245 302 379
#     4  10  23  32  53  92 135 164 205 249 302 349
#     4  10  21  40  69  94 121 168 211 247 301 380
#     4  11  20  37  63  91 130 173 211 249 307 384
#     4  11  20  37  64  90 127 177 210 248 309 384
#
# _framework density 20.534846999999999
#
# number of rings (size 3 to 8) (size 9 to 14) (size 15 to 20)
#    0.000    1.500    3.750    1.500    5.250    3.500 
#    0.000    1.250    0.000    0.000    0.000    0.000 
#    0.000    0.000    0.000    0.000    0.000    0.000 
#
# Total GULP energy -178485.538380 kJ/mol
# GULP energy per Si atom -5577.673074 kJ/mol
# Density = 2.048811 g / cm^3
# Si number density = 20.534847 Si / 1000 Ang^3
#
#
#
# Elastic Constant Matrix: (Units=GPa)
#
#
# Indices 1 2 3 4 5 6 
#
# 1 91.2803 6.5920 30.4781 -0.0006 -3.4669 -0.0002
# 2 6.5920 35.9739 20.5054 0.0002 -15.0863 0.0000
# 3 30.4781 20.5054 139.5250 0.0006 -7.1637 0.0009
# 4 -0.0006 0.0002 0.0006 -34.9915 -0.0001 -16.5413
# 5 -3.4669 -15.0863 -7.1637 -0.0001 38.4062 0.0002
# 6 -0.0002 0.0000 0.0009 -16.5413 0.0002 -0.6987
#
#
#
# Elastic Compliance Matrix: (Units=1/GPa)
#
#
# Indices 1 2 3 4 5 6 
#
# 1 0.011841 -0.000601 -0.002479 0.000000 0.000370 0.000000
# 2 -0.000601 0.036024 -0.004482 0.000000 0.013260 0.000000
# 3 -0.002479 -0.004482 0.008345 0.000000 -0.000428 -0.000001
# 4 0.000000 0.000000 0.000000 0.002804 0.000000 -0.066386
# 5 0.000370 0.013260 -0.000428 0.000000 0.031200 -0.000001
# 6 0.000000 0.000000 -0.000001 -0.066386 -0.000001 0.140433
#
#
# Mechanical properties :
#
#
# Convention : Reuss Voigt Hill
#
# Bulk Modulus (GPa) = 24.33992 42.43668 33.38830
# Shear Modulus (GPa) = 19.27030 14.49012 16.88021
#
# Velocity S-wave (km/s) = 3.06669 2.65926 2.87021
# Velocity P-wave (km/s) = 4.94147 5.48994 5.22291
#
# Compressibility (1/GPa) = 0.04108477
#
# Stress axis : x y z
#
# Youngs Moduli (GPa) = 84.45581 27.75939 119.82565
#
# Poissons Ratio (x) = 0.01669 0.29706
# Poissons Ratio (y) = 0.05079 0.53707
# Poissons Ratio (z) = 0.20937 0.12442
#
# Static dielectric constant tensor:
#      x y z
#    x 1.693510 0.000000 0.061990 
#    y 0.000000 1.733570 0.000000 
#    z 0.061990 0.000000 1.724110 
# 
# From -- ./inp_files/217131.got.cif
#   From: 2010.05.17/outbox.cif.g08.bks.cpg/sg15_109_cif.got.tgz:217131.got - 2010.06.03 18:47:42.
