data_PCOD9277614
_publ_section_title
;
Structure prediction by ZEFSAII (Michael W. Deem and Ramdas Pophale) SiO2 
 PCOD9277614
Probable space group: C 2/C
;
_chemical_formula_sum "Si O2"
_cell_formula_units_Z 52
_cell_length_a 28.693067
_cell_length_b 17.848155
_cell_length_c 15.314893
_cell_angle_alpha 90.000000
_cell_angle_beta 161.437366
_cell_angle_gamma 90.000000
_cell_volume 2496.761405
_symmetry_space_group_name_H-M "C 2/C"
_symmetry_group_IT_number 15
_symmetry_cell_setting 'monoclinic'
loop_
_space_group_symop_operation_xyz
x,y,z
-x,y,1/2-z
-x,-y,-z
x,-y,1/2+z
1/2+x,1/2+y,z
1/2-x,1/2+y,1/2-z
1/2-x,1/2-y,-z
1/2+x,1/2-y,1/2+z
loop_
_atom_site_type_symbol
_atom_site_label
_atom_site_fract_x
_atom_site_fract_y
_atom_site_fract_z
Si Si1 0.000000 0.080198 0.750000
Si Si2 0.366186 0.103038 0.814407
Si Si3 0.291160 0.648895 0.502469
Si Si4 0.018367 0.752506 0.036222
Si Si5 0.549410 0.658994 0.245520
Si Si6 0.372843 0.983038 0.678874
Si Si7 0.403442 0.482071 0.415168
O O1 0.861033 0.126857 0.535099
O O2 0.957742 0.031771 0.591253
O O3 0.193632 0.109508 0.520776
O O4 0.388789 0.059115 0.762671
O O5 0.427052 0.187317 0.921009
O O6 0.469391 0.053354 0.060174
O O7 0.167930 0.711806 0.271914
O O8 0.423326 0.682473 0.796131
O O9 0.213160 0.578690 0.412803
O O10 0.929854 0.782859 0.795973
O O11 0.500000 0.692090 0.250000
O O12 0.429351 0.602670 0.992302
O O13 0.264455 0.995713 0.406880
O O14 0.500000 0.500000 0.500000
#
# Coordination Sequence:
#
# PCOD9277614 Si02
#       7
#     4   8   8   8   8   8   8
#     4  12  22  36  68 102 124 164 234 266 320 402
#     4  10  22  39  68  91 124 171 218 265 332 395
#     4  10  21  39  66  91 126 169 219 271 322 402
#     4  10  22  42  63  88 128 178 215 262 337 389
#     4  12  23  39  62  92 130 164 211 267 323 393
#     4  10  20  41  66  92 126 167 212 275 330 382
#     4  12  21  39  68  94 126 170 214 264 331 387
#
# _framework density 20.826981
#
# number of rings (size 3 to 8) (size 9 to 14) (size 15 to 20)
#    0.000    1.231    5.385    0.462    0.000    1.231 
#    2.769    0.769    0.000    0.000    0.000    0.000 
#    0.000    0.000    0.000    0.000    0.000    0.000 
#
# Total GULP energy -145180.669799 kJ/mol
# GULP energy per Si atom -5583.871915 kJ/mol
# Density = 2.077958 g / cm^3
# Si number density = 20.826981 Si / 1000 Ang^3
#
#
#
# Elastic Constant Matrix: (Units=GPa)
#
#
# Indices 1 2 3 4 5 6 
#
# 1 63.8688 7.0973 7.9605 0.0000 -18.1711 0.0000
# 2 7.0973 48.9455 -2.8767 0.0000 -7.6720 0.0000
# 3 7.9605 -2.8767 120.6350 0.0000 -14.7775 0.0000
# 4 0.0000 0.0000 0.0000 31.0652 0.0000 1.9230
# 5 -18.1711 -7.6720 -14.7775 0.0000 17.1578 0.0000
# 6 0.0000 0.0000 0.0000 1.9230 0.0000 16.0977
#
#
#
# Elastic Compliance Matrix: (Units=1/GPa)
#
#
# Indices 1 2 3 4 5 6 
#
# 1 0.022721 0.000866 0.001695 0.000000 0.025911 0.000000
# 2 0.000866 0.022414 0.002032 0.000000 0.012690 0.000000
# 3 0.001695 0.002032 0.009567 0.000000 0.010943 0.000000
# 4 0.000000 0.000000 0.000000 0.032430 0.000000 -0.003874
# 5 0.025911 0.012690 0.010943 0.000000 0.100822 0.000000
# 6 0.000000 0.000000 0.000000 -0.003874 0.000000 0.062583
#
#
# Mechanical properties :
#
#
# Convention : Reuss Voigt Hill
#
# Bulk Modulus (GPa) = 15.65230 28.64571 22.14901
# Shear Modulus (GPa) = 19.03698 27.61538 23.32618
#
# Velocity S-wave (km/s) = 3.02661 3.64530 3.35027
# Velocity P-wave (km/s) = 4.44360 5.61263 5.06197
#
# Compressibility (1/GPa) = 0.06388837
#
# Stress axis : x y z
#
# Youngs Moduli (GPa) = 44.01158 44.61557 104.53065
#
# Poissons Ratio (x) = -0.03865 -0.17721
# Poissons Ratio (y) = -0.03813 -0.21238
# Poissons Ratio (z) = -0.07461 -0.09065
#
# Static dielectric constant tensor:
#      x y z
#    x 1.753130 0.000000 0.015620 
#    y 0.000000 1.759340 0.000000 
#    z 0.015620 0.000000 1.776130 
# 
# From -- ./inp_files/182921.got.cif
#   From: 2010.05.17/outbox.cif.g08.bks.cpg/sg15_92_cif.got.tgz:182921.got - 2010.06.03 18:47:42.
