data_PCOD9277257
_publ_section_title
;
Structure prediction by ZEFSAII (Michael W. Deem and Ramdas Pophale) SiO2 
 PCOD9277257
Probable space group: C 2/C
;
_chemical_formula_sum "Si O2"
_cell_formula_units_Z 52
_cell_length_a 9.465109
_cell_length_b 27.770360
_cell_length_c 11.042624
_cell_angle_alpha 90.000000
_cell_angle_beta 57.206637
_cell_angle_gamma 90.000000
_cell_volume 2439.967053
_symmetry_space_group_name_H-M "C 2/C"
_symmetry_group_IT_number 15
_symmetry_cell_setting 'monoclinic'
loop_
_space_group_symop_operation_xyz
x,y,z
-x,y,1/2-z
-x,-y,-z
x,-y,1/2+z
1/2+x,1/2+y,z
1/2-x,1/2+y,1/2-z
1/2-x,1/2-y,-z
1/2+x,1/2-y,1/2+z
loop_
_atom_site_type_symbol
_atom_site_label
_atom_site_fract_x
_atom_site_fract_y
_atom_site_fract_z
Si Si1 0.185604 0.022183 0.924807
Si Si2 0.517709 0.122976 0.004190
Si Si3 0.677642 0.705657 0.960694
Si Si4 0.063333 0.731075 0.084280
Si Si5 0.793533 0.043105 0.857175
Si Si6 0.666942 0.608014 0.105552
Si Si7 0.500000 0.155495 0.750000
O O1 0.256945 0.023676 0.754258
O O2 0.181083 0.076164 0.977822
O O3 0.253283 0.992780 0.010504
O O4 0.000000 0.000000 0.000000
O O5 0.682087 0.090129 0.942554
O O6 0.487310 0.125045 0.875008
O O7 0.542804 0.177378 0.038928
O O8 0.327110 0.105245 0.123442
O O9 0.535141 0.728308 0.945282
O O10 0.833756 0.686798 0.810039
O O11 0.750000 0.750000 0.000000
O O12 0.636278 0.662581 0.072582
O O13 0.000000 0.728560 0.250000
O O14 0.250000 0.750000 0.000000
O O15 0.000000 0.050625 0.750000
O O16 0.500000 0.590136 0.250000
#
# Coordination Sequence:
#
# PCOD9277257 Si02
#       7
#     8   8   8   8   8   8   4
#     4  10  22  44  70 104 135 179 230 285 354 423
#     4  11  24  43  66 103 134 183 230 284 347 431
#     4  11  23  41  70  92 127 187 226 282 341 417
#     4  12  28  45  65 104 151 183 234 301 356 419
#     4  10  22  44  73  98 140 178 228 286 359 422
#     4  11  24  41  71  97 135 178 240 287 336 418
#     4  10  20  40  70  94 130 166 250 270 330 420
#
# _framework density 21.311762000000002
#
# number of rings (size 3 to 8) (size 9 to 14) (size 15 to 20)
#    0.000    1.231    3.077    4.154    3.231    4.923 
#    2.769    1.538    0.000    0.000    0.000    0.000 
#    0.000    0.000    0.000    0.000    0.000    0.000 
#
# Total GULP energy -144950.663499 kJ/mol
# GULP energy per Si atom -5575.025519 kJ/mol
# Density = 2.126326 g / cm^3
# Si number density = 21.311762 Si / 1000 Ang^3
#
#
#
# Elastic Constant Matrix: (Units=GPa)
#
#
# Indices 1 2 3 4 5 6 
#
# 1 102.7799 34.5606 39.9526 0.0000 -7.8062 0.0000
# 2 34.5606 92.4657 14.2390 0.0000 4.4953 0.0000
# 3 39.9526 14.2390 88.4760 0.0000 3.2308 0.0000
# 4 0.0000 0.0000 0.0000 25.3127 0.0000 2.2732
# 5 -7.8062 4.4953 3.2308 0.0000 40.9103 0.0000
# 6 0.0000 0.0000 0.0000 2.2732 0.0000 56.2361
#
#
#
# Elastic Compliance Matrix: (Units=1/GPa)
#
#
# Indices 1 2 3 4 5 6 
#
# 1 0.013653 -0.004415 -0.005583 0.000000 0.003531 0.000000
# 2 -0.004415 0.012565 0.000053 0.000000 -0.002227 0.000000
# 3 -0.005583 0.000053 0.013895 0.000000 -0.002168 0.000000
# 4 0.000000 0.000000 0.000000 0.039650 0.000000 -0.001603
# 5 0.003531 -0.002227 -0.002168 0.000000 0.025534 0.000000
# 6 0.000000 0.000000 0.000000 -0.001603 0.000000 0.017847
#
#
# Mechanical properties :
#
#
# Convention : Reuss Voigt Hill
#
# Bulk Modulus (GPa) = 49.45323 51.24733 50.35028
# Shear Modulus (GPa) = 33.38365 37.48978 35.43671
#
# Velocity S-wave (km/s) = 3.96212 4.19873 4.08214
# Velocity P-wave (km/s) = 6.64728 6.89960 6.77461
#
# Compressibility (1/GPa) = 0.02022112
#
# Stress axis : x y z
#
# Youngs Moduli (GPa) = 73.24595 79.58572 71.97089
#
# Poissons Ratio (x) = 0.35135 0.40185
# Poissons Ratio (y) = 0.32336 -0.00379
# Poissons Ratio (z) = 0.40897 -0.00419
#
# Static dielectric constant tensor:
#      x y z
#    x 1.601460 0.000000 -0.017210 
#    y 0.000000 1.734870 0.000000 
#    z -0.017210 0.000000 1.887330 
# 
# From -- ./inp_files/81162.got.cif
#   From: 2010.05.17/outbox.cif.g08.bks.cpg/sg15_41_cif.got.tgz:81162.got - 2010.06.03 18:47:42.
