data_PCOD9277712
_publ_section_title
;
Structure prediction by ZEFSAII (Michael W. Deem and Ramdas Pophale) SiO2 
 PCOD9277712
Probable space group: C 2/C
;
_chemical_formula_sum "Si O2"
_cell_formula_units_Z 64
_cell_length_a 19.642683
_cell_length_b 20.511480
_cell_length_c 13.585485
_cell_angle_alpha 90.000000
_cell_angle_beta 150.113642
_cell_angle_gamma 90.000000
_cell_volume 2727.391978
_symmetry_space_group_name_H-M "C 2/C"
_symmetry_group_IT_number 15
_symmetry_cell_setting 'monoclinic'
loop_
_space_group_symop_operation_xyz
x,y,z
-x,y,1/2-z
-x,-y,-z
x,-y,1/2+z
1/2+x,1/2+y,z
1/2-x,1/2+y,1/2-z
1/2-x,1/2-y,-z
1/2+x,1/2-y,1/2+z
loop_
_atom_site_type_symbol
_atom_site_label
_atom_site_fract_x
_atom_site_fract_y
_atom_site_fract_z
Si Si1 0.357187 0.355022 0.876812
Si Si2 0.492115 0.913382 0.489932
Si Si3 0.397608 0.681846 0.042134
Si Si4 0.333816 0.001481 0.170616
Si Si5 0.355010 0.595217 0.792113
Si Si6 0.796400 0.542599 0.411869
Si Si7 0.841733 0.883902 0.064260
Si Si8 0.596172 0.773684 0.174987
O O1 0.281605 0.388651 0.690942
O O2 0.392470 0.282317 0.892839
O O3 0.487409 0.403416 0.045210
O O4 0.280759 0.355294 0.886075
O O5 0.553791 0.941628 0.667740
O O6 0.406261 0.057622 0.465385
O O7 0.470503 0.837883 0.453989
O O8 0.353383 0.948298 0.279499
O O9 0.500000 0.648323 0.250000
O O10 0.492440 0.742409 0.124004
O O11 0.360864 0.638231 0.898950
O O12 0.251324 0.706645 0.899735
O O13 0.352557 0.968474 0.090047
O O14 0.190200 0.039134 0.989508
O O15 0.292715 0.522715 0.721533
O O16 0.289824 0.628960 0.610821
O O17 0.000000 0.864751 0.250000
#
# Coordination Sequence:
#
# PCOD9277712 Si02
#       8
#     8   8   8   8   8   8   8   8
#     4  10  20  41  68 100 138 184 234 294 359 431
#     4  11  24  42  65  96 144 184 232 294 360 426
#     4  11  25  46  71 102 148 189 245 294 362 428
#     4  10  23  39  65 100 131 179 234 285 363 422
#     4   9  22  39  65 103 140 174 236 298 360 431
#     4  11  21  41  69  99 135 181 232 298 368 424
#     4   9  18  40  72  96 134 175 227 295 362 422
#     4  11  26  46  72 104 142 197 245 291 353 447
#
# _framework density 23.465641999999999
#
# number of rings (size 3 to 8) (size 9 to 14) (size 15 to 20)
#    0.000    1.750    1.250    1.875    3.500    4.000 
#    0.000    3.125   19.250    0.000    0.000    0.000 
#    0.000    0.000    0.000    0.000    0.000    0.000 
#
# Total GULP energy -178262.365720 kJ/mol
# GULP energy per Si atom -5570.698929 kJ/mol
# Density = 2.341223 g / cm^3
# Si number density = 23.465642 Si / 1000 Ang^3
#
#
#
# Elastic Constant Matrix: (Units=GPa)
#
#
# Indices 1 2 3 4 5 6 
#
# 1 83.3937 50.7583 45.9292 0.0000 -19.7924 0.0000
# 2 50.7583 141.6863 50.6779 0.0000 -20.0949 0.0000
# 3 45.9292 50.6779 118.1260 0.0000 -24.8348 0.0000
# 4 0.0000 0.0000 0.0000 28.6828 0.0000 2.8489
# 5 -19.7924 -20.0949 -24.8348 0.0000 46.8150 0.0000
# 6 0.0000 0.0000 0.0000 2.8489 0.0000 29.2268
#
#
#
# Elastic Compliance Matrix: (Units=1/GPa)
#
#
# Indices 1 2 3 4 5 6 
#
# 1 0.017842 -0.004355 -0.004363 0.000000 0.003360 0.000000
# 2 -0.004355 0.009552 -0.002172 0.000000 0.001107 0.000000
# 3 -0.004363 -0.002172 0.011829 0.000000 0.003498 0.000000
# 4 0.000000 0.000000 0.000000 0.035205 0.000000 -0.003432
# 5 0.003360 0.001107 0.003498 0.000000 0.025112 0.000000
# 6 0.000000 0.000000 0.000000 -0.003432 0.000000 0.034550
#
#
# Mechanical properties :
#
#
# Convention : Reuss Voigt Hill
#
# Bulk Modulus (GPa) = 57.32628 70.88185 64.10406
# Shear Modulus (GPa) = 30.92467 34.00095 32.46281
#
# Velocity S-wave (km/s) = 3.63419 3.81066 3.72347
# Velocity P-wave (km/s) = 6.48789 7.04512 6.77224
#
# Compressibility (1/GPa) = 0.01744401
#
# Stress axis : x y z
#
# Youngs Moduli (GPa) = 56.04734 104.69256 84.53731
#
# Poissons Ratio (x) = 0.45593 0.36880
# Poissons Ratio (y) = 0.24408 0.18361
# Poissons Ratio (z) = 0.24451 0.22739
#
# Static dielectric constant tensor:
#      x y z
#    x 1.980580 0.000000 0.041370 
#    y 0.000000 1.849060 0.000000 
#    z 0.041370 0.000000 2.092080 
# 
# From -- ./inp_files/174238.got.cif
#   From: 2010.05.17/outbox.cif.g08.bks.cpg/sg15_88_cif.got.tgz:174238.got - 2010.06.03 18:47:42.
