data_PCOD9277149
_publ_section_title
;
Structure prediction by ZEFSAII (Michael W. Deem and Ramdas Pophale) SiO2 
 PCOD9277149
Probable space group: C 2/C
;
_chemical_formula_sum "Si O2"
_cell_formula_units_Z 44
_cell_length_a 8.483228
_cell_length_b 30.391539
_cell_length_c 11.532646
_cell_angle_alpha 90.000000
_cell_angle_beta 134.136023
_cell_angle_gamma 90.000000
_cell_volume 2133.923542
_symmetry_space_group_name_H-M "C 2/C"
_symmetry_group_IT_number 15
_symmetry_cell_setting 'monoclinic'
loop_
_space_group_symop_operation_xyz
x,y,z
-x,y,1/2-z
-x,-y,-z
x,-y,1/2+z
1/2+x,1/2+y,z
1/2-x,1/2+y,1/2-z
1/2-x,1/2-y,-z
1/2+x,1/2-y,1/2+z
loop_
_atom_site_type_symbol
_atom_site_label
_atom_site_fract_x
_atom_site_fract_y
_atom_site_fract_z
Si Si1 0.503144 0.572620 0.082619
Si Si2 0.661762 0.520666 0.727834
Si Si3 0.266025 0.701612 0.065286
Si Si4 0.000000 0.646081 0.750000
Si Si5 0.471257 0.918994 0.044505
Si Si6 0.378943 0.858259 0.804857
O O1 0.646504 0.531599 0.203026
O O2 0.645777 0.617501 0.155386
O O3 0.423124 0.549832 0.923011
O O4 0.283899 0.580425 0.047239
O O5 0.500000 0.531475 0.750000
O O6 0.909234 0.535415 0.877343
O O7 0.500000 0.698276 0.250000
O O8 0.126568 0.681041 0.102351
O O9 0.250000 0.750000 0.000000
O O10 0.186556 0.673264 0.913098
O O11 0.912295 0.614392 0.805451
O O12 0.501212 0.897906 0.934420
O O13 0.500000 0.845015 0.750000
#
# Coordination Sequence:
#
# PCOD9277149 Si02
#       6
#     8   8   8   4   8   8
#     4  11  23  40  61  90 129 186 232 276 341 409
#     4  11  23  36  58  91 132 175 234 291 336 375
#     4  11  23  43  75 100 130 173 222 275 343 439
#     4  10  20  40  68  96 126 174 232 270 334 408
#     4  11  21  41  63  87 134 180 235 276 331 416
#     4  11  24  41  66  99 132 168 222 286 347 406
#
# _framework density 20.619295000000001
#
# number of rings (size 3 to 8) (size 9 to 14) (size 15 to 20)
#    0.000    1.091    2.727    4.909    0.000    5.818 
#    0.000    0.909    0.000    0.000    0.000    0.000 
#    0.000    0.000    0.000    0.000    0.000    0.000 
#
# Total GULP energy -122518.321107 kJ/mol
# GULP energy per Si atom -5569.014596 kJ/mol
# Density = 2.057236 g / cm^3
# Si number density = 20.619295 Si / 1000 Ang^3
#
#
#
# Elastic Constant Matrix: (Units=GPa)
#
#
# Indices 1 2 3 4 5 6 
#
# 1 75.1667 36.0904 38.3659 0.0000 -5.1132 0.0000
# 2 36.0904 128.3106 57.4746 0.0000 1.5627 0.0000
# 3 38.3659 57.4746 122.1145 0.0000 -11.5593 0.0000
# 4 0.0000 0.0000 0.0000 51.6977 0.0000 -5.8333
# 5 -5.1132 1.5627 -11.5593 0.0000 38.3548 0.0000
# 6 0.0000 0.0000 0.0000 -5.8333 0.0000 18.7142
#
#
#
# Elastic Compliance Matrix: (Units=1/GPa)
#
#
# Indices 1 2 3 4 5 6 
#
# 1 0.016751 -0.003069 -0.003701 0.000000 0.001243 0.000000
# 2 -0.003069 0.010568 -0.004209 0.000000 -0.002108 0.000000
# 3 -0.003701 -0.004209 0.011634 0.000000 0.003184 0.000000
# 4 0.000000 0.000000 0.000000 0.020048 0.000000 0.006249
# 5 0.001243 -0.002108 0.003184 0.000000 0.027284 0.000000
# 6 0.000000 0.000000 0.000000 0.006249 0.000000 0.055383
#
#
# Mechanical properties :
#
#
# Convention : Reuss Voigt Hill
#
# Bulk Modulus (GPa) = 58.84045 65.49483 62.16764
# Shear Modulus (GPa) = 29.53492 34.66407 32.09950
#
# Velocity S-wave (km/s) = 3.78880 4.10463 3.94987
# Velocity P-wave (km/s) = 6.90931 7.36863 7.14267
#
# Compressibility (1/GPa) = 0.01699511
#
# Stress axis : x y z
#
# Youngs Moduli (GPa) = 59.69900 94.62545 85.95294
#
# Poissons Ratio (x) = 0.29041 0.31808
# Poissons Ratio (y) = 0.18322 0.36180
# Poissons Ratio (z) = 0.22092 0.39831
#
# Static dielectric constant tensor:
#      x y z
#    x 1.732900 0.000000 0.014590 
#    y 0.000000 1.759800 0.000000 
#    z 0.014590 0.000000 1.837670 
# 
# From -- ./inp_files/81553.got.cif
#   From: 2010.05.17/outbox.cif.g08.bks.cpg/sg15_41_cif.got.tgz:81553.got - 2010.06.03 18:47:42.
