data_PCOD9277163
_publ_section_title
;
Structure prediction by ZEFSAII (Michael W. Deem and Ramdas Pophale) SiO2 
 PCOD9277163
Probable space group: C 2/C
;
_chemical_formula_sum "Si O2"
_cell_formula_units_Z 44
_cell_length_a 7.458128
_cell_length_b 28.392018
_cell_length_c 9.760854
_cell_angle_alpha 90.000000
_cell_angle_beta 69.065720
_cell_angle_gamma 90.000000
_cell_volume 1930.441043
_symmetry_space_group_name_H-M "C 2/C"
_symmetry_group_IT_number 15
_symmetry_cell_setting 'monoclinic'
loop_
_space_group_symop_operation_xyz
x,y,z
-x,y,1/2-z
-x,-y,-z
x,-y,1/2+z
1/2+x,1/2+y,z
1/2-x,1/2+y,1/2-z
1/2-x,1/2-y,-z
1/2+x,1/2-y,1/2+z
loop_
_atom_site_type_symbol
_atom_site_label
_atom_site_fract_x
_atom_site_fract_y
_atom_site_fract_z
Si Si1 0.173187 0.778973 0.390559
Si Si2 0.000000 0.355291 0.250000
Si Si3 0.650179 0.294317 0.828248
Si Si4 0.227513 0.400067 0.693125
Si Si5 0.202698 0.908819 0.145597
Si Si6 0.647081 0.006313 0.334944
O O1 0.250000 0.750000 0.500000
O O2 0.320349 0.822800 0.343832
O O3 0.196186 0.746008 0.250538
O O4 0.956622 0.791476 0.496402
O O5 0.896155 0.384773 0.156245
O O6 0.500000 0.283691 0.750000
O O7 0.706487 0.348109 0.786283
O O8 0.295568 0.410196 0.519522
O O9 0.258335 0.444081 0.787196
O O10 0.000000 0.396132 0.750000
O O11 0.000000 0.886842 0.250000
O O12 0.214581 0.961828 0.199386
O O13 0.500000 0.003344 0.250000
O O14 0.500000 0.000000 0.500000
#
# Coordination Sequence:
#
# PCOD9277163 Si02
#       6
#     8   4   8   8   8   8
#     4  10  20  40  68  97 131 185 248 284 352 436
#     4  12  24  44  78  94 156 196 230 312 364 416
#     4  10  22  41  69  97 135 185 241 294 355 430
#     4  11  25  44  69 105 146 184 244 300 365 439
#     4  12  27  45  71 111 144 188 250 296 369 441
#     4  11  22  47  73 101 144 191 236 300 367 435
#
# _framework density 22.792719000000002
#
# number of rings (size 3 to 8) (size 9 to 14) (size 15 to 20)
#    0.000    1.091    7.273    1.091    5.091    1.455 
#    3.273    4.545    0.000    0.000    0.000    0.000 
#    0.000    0.000    0.000    0.000    0.000    0.000 
#
# Total GULP energy -122684.534580 kJ/mol
# GULP energy per Si atom -5576.569754 kJ/mol
# Density = 2.274084 g / cm^3
# Si number density = 22.792719 Si / 1000 Ang^3
#
#
#
# Elastic Constant Matrix: (Units=GPa)
#
#
# Indices 1 2 3 4 5 6 
#
# 1 75.3667 26.2308 31.8272 0.0000 -10.9925 0.0000
# 2 26.2308 138.3776 53.0883 0.0000 -14.8098 0.0000
# 3 31.8272 53.0883 147.7182 0.0000 -23.9576 0.0000
# 4 0.0000 0.0000 0.0000 31.3344 0.0000 -15.6588
# 5 -10.9925 -14.8098 -23.9576 0.0000 28.3564 0.0000
# 6 0.0000 0.0000 0.0000 -15.6588 0.0000 25.8031
#
#
#
# Elastic Compliance Matrix: (Units=1/GPa)
#
#
# Indices 1 2 3 4 5 6 
#
# 1 0.015241 -0.001724 -0.002146 0.000000 0.003195 0.000000
# 2 -0.001724 0.008689 -0.002461 0.000000 0.001791 0.000000
# 3 -0.002146 -0.002461 0.009007 0.000000 0.005493 0.000000
# 4 0.000000 0.000000 0.000000 0.045805 0.000000 0.027797
# 5 0.003195 0.001791 0.005493 0.000000 0.042080 0.000000
# 6 0.000000 0.000000 0.000000 0.027797 0.000000 0.055624
#
#
# Mechanical properties :
#
#
# Convention : Reuss Voigt Hill
#
# Bulk Modulus (GPa) = 49.32068 64.86167 57.09117
# Shear Modulus (GPa) = 25.52769 33.78653 29.65711
#
# Velocity S-wave (km/s) = 3.35026 3.85429 3.61108
# Velocity P-wave (km/s) = 6.05404 6.95172 6.51835
#
# Compressibility (1/GPa) = 0.02027547
#
# Stress axis : x y z
#
# Youngs Moduli (GPa) = 65.61404 115.08609 111.02056
#
# Poissons Ratio (x) = 0.19838 0.23826
# Poissons Ratio (y) = 0.11310 0.27322
# Poissons Ratio (z) = 0.14081 0.28322
#
# Static dielectric constant tensor:
#      x y z
#    x 1.952100 0.000000 0.034260 
#    y 0.000000 1.995310 0.000000 
#    z 0.034260 0.000000 2.005190 
# 
# From -- ./inp_files/25979.got.cif
#   From: 2010.05.17/outbox.cif.g08.bks.cpg/sg15_13_cif.got.tgz:25979.got - 2010.06.03 18:47:42.
