data_PCOD9277141
_publ_section_title
;
Structure prediction by ZEFSAII (Michael W. Deem and Ramdas Pophale) SiO2 
 PCOD9277141
Probable space group: C 2/C
;
_chemical_formula_sum "Si O2"
_cell_formula_units_Z 64
_cell_length_a 14.025305
_cell_length_b 11.093293
_cell_length_c 26.780334
_cell_angle_alpha 90.000000
_cell_angle_beta 38.533672
_cell_angle_gamma 90.000000
_cell_volume 2595.727082
_symmetry_space_group_name_H-M "C 2/C"
_symmetry_group_IT_number 15
_symmetry_cell_setting 'monoclinic'
loop_
_space_group_symop_operation_xyz
x,y,z
-x,y,1/2-z
-x,-y,-z
x,-y,1/2+z
1/2+x,1/2+y,z
1/2-x,1/2+y,1/2-z
1/2-x,1/2-y,-z
1/2+x,1/2-y,1/2+z
loop_
_atom_site_type_symbol
_atom_site_label
_atom_site_fract_x
_atom_site_fract_y
_atom_site_fract_z
Si Si1 0.664707 0.389869 0.182092
Si Si2 0.527451 0.353419 0.932257
Si Si3 0.781997 0.937214 0.553943
Si Si4 0.620698 0.107984 0.381045
Si Si5 0.018266 0.381733 0.182274
Si Si6 0.268855 0.814294 0.561741
Si Si7 0.264626 0.261281 0.730844
Si Si8 0.260322 0.090242 0.536803
O O1 0.500000 0.454256 0.250000
O O2 0.799994 0.479561 0.142165
O O3 0.669308 0.290529 0.223270
O O4 0.688874 0.350233 0.115042
O O5 0.650418 0.368131 0.926273
O O6 0.617440 0.354733 0.843539
O O7 0.401141 0.453295 0.995932
O O8 0.428342 0.231131 0.973289
O O9 0.791534 0.871074 0.496857
O O10 0.613000 0.995318 0.631295
O O11 0.696281 0.185460 0.393835
O O12 0.663212 0.168064 0.311796
O O13 0.442285 0.100651 0.463800
O O14 0.131905 0.279303 0.113999
O O15 0.000000 0.374915 0.250000
O O16 0.858398 0.345964 0.220951
O O17 0.229164 0.946207 0.557608
#
# Coordination Sequence:
#
# PCOD9277141 Si02
#       8
#     8   8   8   8   8   8   8   8
#     4  11  27  45  69 102 140 177 232 285 343 414
#     4  10  22  40  63  98 135 175 225 283 340 411
#     4  10  23  39  64  97 134 181 225 282 346 401
#     4  11  24  41  70  99 134 183 227 281 345 404
#     4  11  22  40  67 101 136 177 234 288 339 405
#     4  10  20  40  68  95 130 173 232 283 340 403
#     4  12  25  43  68  98 138 178 228 282 345 401
#     4  11  23  44  69  96 135 182 232 281 345 409
#
# _framework density 24.655904
#
# number of rings (size 3 to 8) (size 9 to 14) (size 15 to 20)
#    0.000    1.250    1.250    5.250    5.250    6.000 
#    0.000    1.875    0.000    0.000    0.000    0.000 
#    0.000    0.000    0.000    0.000    0.000    0.000 
#
# Total GULP energy -179093.742088 kJ/mol
# GULP energy per Si atom -5596.679440 kJ/mol
# Density = 2.459979 g / cm^3
# Si number density = 24.655904 Si / 1000 Ang^3
#
#
#
# Elastic Constant Matrix: (Units=GPa)
#
#
# Indices 1 2 3 4 5 6 
#
# 1 129.1535 12.3936 47.8584 0.0000 35.4397 0.0000
# 2 12.3936 30.6128 15.8404 0.0000 3.9857 0.0000
# 3 47.8584 15.8404 146.2883 0.0000 27.1979 0.0000
# 4 0.0000 0.0000 0.0000 25.5349 0.0000 4.3671
# 5 35.4397 3.9857 27.1979 0.0000 53.4820 0.0000
# 6 0.0000 0.0000 0.0000 4.3671 0.0000 7.2888
#
#
#
# Elastic Compliance Matrix: (Units=1/GPa)
#
#
# Indices 1 2 3 4 5 6 
#
# 1 0.010265 -0.002361 -0.002066 0.000000 -0.005575 0.000000
# 2 -0.002361 0.035175 -0.003137 0.000000 0.000538 0.000000
# 3 -0.002066 -0.003137 0.008342 0.000000 -0.002640 0.000000
# 4 0.000000 0.000000 0.000000 0.043633 0.000000 -0.026143
# 5 -0.005575 0.000538 -0.002640 0.000000 0.023695 0.000000
# 6 0.000000 0.000000 0.000000 -0.026143 0.000000 0.152860
#
#
# Mechanical properties :
#
#
# Convention : Reuss Voigt Hill
#
# Bulk Modulus (GPa) = 25.86980 50.91548 38.39264
# Shear Modulus (GPa) = 16.55736 32.59195 24.57466
#
# Velocity S-wave (km/s) = 2.59422 3.63970 3.16049
# Velocity P-wave (km/s) = 4.41456 6.19342 5.37805
#
# Compressibility (1/GPa) = 0.03865512
#
# Stress axis : x y z
#
# Youngs Moduli (GPa) = 97.42169 28.42945 119.87443
#
# Poissons Ratio (x) = 0.06712 0.24765
# Poissons Ratio (y) = 0.22999 0.37599
# Poissons Ratio (z) = 0.20126 0.08917
#
# Static dielectric constant tensor:
#      x y z
#    x 1.959430 0.000000 0.004760 
#    y 0.000000 2.004270 0.000000 
#    z 0.004760 0.000000 1.907720 
# 
# From -- ./inp_files/296107.got.cif
#   From: 2010.05.17/outbox.cif.g08.bks.cpg/sg15_149_cif.got.tgz:296107.got - 2010.06.03 18:47:42.
