data_PCOD9277429
_publ_section_title
;
Structure prediction by ZEFSAII (Michael W. Deem and Ramdas Pophale) SiO2 
 PCOD9277429
Probable space group: C 2/C
;
_chemical_formula_sum "Si O2"
_cell_formula_units_Z 52
_cell_length_a 19.364832
_cell_length_b 5.312228
_cell_length_c 23.434084
_cell_angle_alpha 90.000000
_cell_angle_beta 71.185877
_cell_angle_gamma 90.000000
_cell_volume 2281.870872
_symmetry_space_group_name_H-M "C 2/C"
_symmetry_group_IT_number 15
_symmetry_cell_setting 'monoclinic'
loop_
_space_group_symop_operation_xyz
x,y,z
-x,y,1/2-z
-x,-y,-z
x,-y,1/2+z
1/2+x,1/2+y,z
1/2-x,1/2+y,1/2-z
1/2-x,1/2-y,-z
1/2+x,1/2-y,1/2+z
loop_
_atom_site_type_symbol
_atom_site_label
_atom_site_fract_x
_atom_site_fract_y
_atom_site_fract_z
Si Si1 0.651295 0.702604 0.258004
Si Si2 0.171317 0.794643 0.454768
Si Si3 0.536380 0.542599 0.051078
Si Si4 0.818195 0.707334 0.178780
Si Si5 0.460998 0.936441 0.879893
Si Si6 0.307875 0.060397 0.460199
Si Si7 0.000000 0.360662 0.250000
O O1 0.729068 0.712682 0.203985
O O2 0.654141 0.438643 0.290393
O O3 0.577148 0.717562 0.240567
O O4 0.655926 0.941039 0.300983
O O5 0.120996 0.971591 0.508023
O O6 0.156938 0.762939 0.392350
O O7 0.155375 0.536726 0.491413
O O8 0.256023 0.858237 0.442220
O O9 0.511315 0.314475 0.097375
O O10 0.524453 0.807456 0.087262
O O11 0.500000 0.500000 0.000000
O O12 0.373809 0.885908 0.900735
O O13 0.489798 0.977501 0.809437
O O14 0.250000 0.250000 0.500000
#
# Coordination Sequence:
#
# PCOD9277429 Si02
#       7
#     8   8   8   8   8   8   4
#     4  10  25  44  67  98 138 180 238 279 348 407
#     4  10  22  37  69  95 131 173 222 280 345 402
#     4  11  25  43  66  99 133 175 222 283 337 411
#     4  10  23  45  68 100 132 182 232 292 339 415
#     4  11  26  44  67  99 136 177 228 273 350 405
#     4  10  20  41  63 101 130 172 221 284 340 403
#     4  12  28  48  72 102 146 192 230 296 340 442
#
# _framework density 22.788319000000001
#
# number of rings (size 3 to 8) (size 9 to 14) (size 15 to 20)
#    0.000    1.538    1.538    1.385    6.462    2.462 
#    2.769    0.000    0.000    0.000    0.000    0.000 
#    0.000    0.000    0.000    0.000    0.000    0.000 
#
# Total GULP energy -145062.695399 kJ/mol
# GULP energy per Si atom -5579.334438 kJ/mol
# Density = 2.273645 g / cm^3
# Si number density = 22.788319 Si / 1000 Ang^3
#
#
#
# Elastic Constant Matrix: (Units=GPa)
#
#
# Indices 1 2 3 4 5 6 
#
# 1 118.9811 19.4497 24.1863 -0.0005 -6.2096 -0.0144
# 2 19.4497 117.1688 26.0678 -0.0133 5.6812 -0.0140
# 3 24.1863 26.0678 119.4177 -0.0104 -1.9826 -0.0038
# 4 -0.0005 -0.0133 -0.0104 5.7492 -0.0008 2.4314
# 5 -6.2096 5.6812 -1.9826 -0.0008 28.4531 -0.0018
# 6 -0.0144 -0.0140 -0.0038 2.4314 -0.0018 5.1284
#
#
#
# Elastic Compliance Matrix: (Units=1/GPa)
#
#
# Indices 1 2 3 4 5 6 
#
# 1 0.009030 -0.001264 -0.001518 -0.000017 0.002117 0.000030
# 2 -0.001264 0.009254 -0.001801 0.000012 -0.002249 0.000014
# 3 -0.001518 -0.001801 0.009086 0.000017 0.000661 -0.000010
# 4 -0.000017 0.000012 0.000017 0.217560 -0.000005 -0.103148
# 5 0.002117 -0.002249 0.000661 -0.000005 0.036103 0.000015
# 6 0.000030 0.000014 -0.000010 -0.103148 0.000015 0.243897
#
#
# Mechanical properties :
#
#
# Convention : Reuss Voigt Hill
#
# Bulk Modulus (GPa) = 54.93406 54.99726 54.96566
# Shear Modulus (GPa) = 9.25645 26.92373 18.09009
#
# Velocity S-wave (km/s) = 2.01761 3.44098 2.82056
# Velocity P-wave (km/s) = 5.43932 6.32246 5.89745
#
# Compressibility (1/GPa) = 0.01820364
#
# Stress axis : x y z
#
# Youngs Moduli (GPa) = 110.73723 108.05706 110.06392
#
# Poissons Ratio (x) = 0.13658 0.16707
# Poissons Ratio (y) = 0.13997 0.19828
# Poissons Ratio (z) = 0.16809 0.19466
#
# Static dielectric constant tensor:
#      x y z
#    x 1.991890 -0.000020 -0.064920 
#    y -0.000020 1.869390 0.000000 
#    z -0.064920 0.000000 1.848100 
# 
# From -- ./inp_files/278617.got.cif
#   From: 2010.05.17/outbox.cif.g08.bks.cpg/sg15_140_cif.got.tgz:278617.got - 2010.06.03 18:47:42.
