data_PCOD9277181
_publ_section_title
;
Structure prediction by ZEFSAII (Michael W. Deem and Ramdas Pophale) SiO2 
 PCOD9277181
Probable space group: C 2/C
;
_chemical_formula_sum "Si O2"
_cell_formula_units_Z 40
_cell_length_a 26.509539
_cell_length_b 9.762910
_cell_length_c 18.784540
_cell_angle_alpha 90.000000
_cell_angle_beta 21.178345
_cell_angle_gamma 90.000000
_cell_volume 1756.372122
_symmetry_space_group_name_H-M "C 2/C"
_symmetry_group_IT_number 15
_symmetry_cell_setting 'monoclinic'
loop_
_space_group_symop_operation_xyz
x,y,z
-x,y,1/2-z
-x,-y,-z
x,-y,1/2+z
1/2+x,1/2+y,z
1/2-x,1/2+y,1/2-z
1/2-x,1/2-y,-z
1/2+x,1/2-y,1/2+z
loop_
_atom_site_type_symbol
_atom_site_label
_atom_site_fract_x
_atom_site_fract_y
_atom_site_fract_z
Si Si1 0.855356 0.561976 0.162565
Si Si2 0.158541 0.946204 0.047063
Si Si3 0.136238 0.138057 0.884066
Si Si4 0.837810 0.265638 0.458309
Si Si5 0.353489 0.494798 0.278265
O O1 0.763150 0.612424 0.351465
O O2 0.873341 0.699540 0.092426
O O3 0.773173 0.440820 0.230502
O O4 0.000000 0.500000 0.000000
O O5 0.199544 0.936446 0.076418
O O6 0.000000 0.893824 0.250000
O O7 0.160891 0.107253 0.021717
O O8 0.124378 0.108296 0.815299
O O9 0.003266 0.064769 0.094783
O O10 0.750000 0.250000 0.500000
O O11 0.747537 0.383033 0.614351
O O12 0.000000 0.308510 0.250000
#
# Coordination Sequence:
#
# PCOD9277181 Si02
#       5
#     8   8   8   8   8
#     4  12  28  46  73 107 145 189 243 302 367 435
#     4  10  20  40  68  99 138 188 237 293 356 431
#     4  11  27  44  71 103 146 190 239 298 369 432
#     4   9  19  34  63  98 129 172 232 288 342 421
#     4  10  22  43  70  97 140 190 237 295 361 426
#
# _framework density 22.774215000000002
#
# number of rings (size 3 to 8) (size 9 to 14) (size 15 to 20)
#    0.000    1.600    2.000    1.200    8.400    4.000 
#    0.000    1.000    0.000    0.000    0.000    0.000 
#    0.000    0.000    0.000    0.000    0.000    0.000 
#
# Total GULP energy -111667.759129 kJ/mol
# GULP energy per Si atom -5583.387956 kJ/mol
# Density = 2.272238 g / cm^3
# Si number density = 22.774215 Si / 1000 Ang^3
#
#
#
# Elastic Constant Matrix: (Units=GPa)
#
#
# Indices 1 2 3 4 5 6 
#
# 1 117.3902 19.5349 20.4974 0.0000 -15.6246 0.0000
# 2 19.5349 87.5820 11.7179 0.0000 -28.1755 0.0000
# 3 20.4974 11.7179 80.1307 0.0000 -32.0591 0.0000
# 4 0.0000 0.0000 0.0000 27.1861 0.0000 3.7811
# 5 -15.6246 -28.1755 -32.0591 0.0000 55.5288 0.0000
# 6 0.0000 0.0000 0.0000 3.7811 0.0000 28.6072
#
#
#
# Elastic Compliance Matrix: (Units=1/GPa)
#
#
# Indices 1 2 3 4 5 6 
#
# 1 0.009197 -0.001570 -0.001829 0.000000 0.000735 0.000000
# 2 -0.001570 0.013976 0.001324 0.000000 0.007414 0.000000
# 3 -0.001829 0.001324 0.016666 0.000000 0.009780 0.000000
# 4 0.000000 0.000000 0.000000 0.037472 0.000000 -0.004953
# 5 0.000735 0.007414 0.009780 0.000000 0.027624 0.000000
# 6 0.000000 0.000000 0.000000 -0.004953 0.000000 0.035611
#
#
# Mechanical properties :
#
#
# Convention : Reuss Voigt Hill
#
# Bulk Modulus (GPa) = 28.01907 43.17816 35.59861
# Shear Modulus (GPa) = 31.92996 37.82127 34.87562
#
# Velocity S-wave (km/s) = 3.74842 4.07960 3.91751
# Velocity P-wave (km/s) = 5.57350 6.41804 6.01062
#
# Compressibility (1/GPa) = 0.03568998
#
# Stress axis : x y z
#
# Youngs Moduli (GPa) = 108.73011 71.55073 60.00085
#
# Poissons Ratio (x) = 0.11235 0.10973
# Poissons Ratio (y) = 0.17072 -0.07945
# Poissons Ratio (z) = 0.19885 -0.09474
#
# Static dielectric constant tensor:
#      x y z
#    x 1.920090 0.000000 0.016020 
#    y 0.000000 1.851940 0.000000 
#    z 0.016020 0.000000 1.821990 
# 
# From -- ./inp_files/258920.got.cif
#   From: 2010.05.17/outbox.cif.g08.bks.cpg/sg15_130_cif.got.tgz:258920.got - 2010.06.03 18:47:42.
