data_PCOD9277619
_publ_section_title
;
Structure prediction by ZEFSAII (Michael W. Deem and Ramdas Pophale) SiO2 
 PCOD9277619
Probable space group: C 2/C
;
_chemical_formula_sum "Si O2"
_cell_formula_units_Z 40
_cell_length_a 20.635818
_cell_length_b 7.493324
_cell_length_c 15.085766
_cell_angle_alpha 90.000000
_cell_angle_beta 43.079653
_cell_angle_gamma 90.000000
_cell_volume 1593.284931
_symmetry_space_group_name_H-M "C 2/C"
_symmetry_group_IT_number 15
_symmetry_cell_setting 'monoclinic'
loop_
_space_group_symop_operation_xyz
x,y,z
-x,y,1/2-z
-x,-y,-z
x,-y,1/2+z
1/2+x,1/2+y,z
1/2-x,1/2+y,1/2-z
1/2-x,1/2-y,-z
1/2+x,1/2-y,1/2+z
loop_
_atom_site_type_symbol
_atom_site_label
_atom_site_fract_x
_atom_site_fract_y
_atom_site_fract_z
Si Si1 0.794768 0.921504 0.406402
Si Si2 0.415517 0.539211 0.943880
Si Si3 0.486531 0.896145 0.607058
Si Si4 0.213166 0.344422 0.723431
Si Si5 0.359670 0.852287 0.503426
O O1 0.750000 0.750000 0.500000
O O2 0.892212 0.939884 0.362092
O O3 0.795433 0.856511 0.304700
O O4 0.727618 0.094069 0.473309
O O5 0.314586 0.580138 0.094538
O O6 0.423638 0.326158 0.940787
O O7 0.486939 0.684972 0.914289
O O8 0.376821 0.932927 0.736979
O O9 0.500000 0.000000 0.500000
O O10 0.566859 0.986753 0.585489
O O11 0.187258 0.349143 0.851793
#
# Coordination Sequence:
#
# PCOD9277619 Si02
#       5
#     8   8   8   8   8
#     4  10  20  41  66  92 129 175 213 273 340 389
#     4  11  23  41  66  95 136 175 219 280 334 395
#     4  10  23  41  63  97 131 168 228 273 329 398
#     4  10  22  40  67  92 130 178 218 270 337 395
#     4  11  21  41  67  93 131 170 224 272 331 407
#
# _framework density 25.105364000000002
#
# number of rings (size 3 to 8) (size 9 to 14) (size 15 to 20)
#    0.000    1.600    4.000    1.800    2.800    4.000 
#    3.600    0.000    8.800    0.000    0.000    0.000 
#    0.000    0.000    0.000    0.000    0.000    0.000 
#
# Total GULP energy -111436.524831 kJ/mol
# GULP energy per Si atom -5571.826242 kJ/mol
# Density = 2.504822 g / cm^3
# Si number density = 25.105364 Si / 1000 Ang^3
#
#
#
# Elastic Constant Matrix: (Units=GPa)
#
#
# Indices 1 2 3 4 5 6 
#
# 1 86.4579 39.6108 14.4489 0.0013 0.0094 -0.0012
# 2 39.6108 129.7531 21.8579 0.0037 0.3037 -0.0045
# 3 14.4489 21.8579 79.5758 0.0037 -7.7583 -0.0037
# 4 0.0013 0.0037 0.0037 19.3608 -0.0037 8.2701
# 5 0.0094 0.3037 -7.7583 -0.0037 39.2390 0.0037
# 6 -0.0012 -0.0045 -0.0037 8.2701 0.0037 32.9316
#
#
#
# Elastic Compliance Matrix: (Units=1/GPa)
#
#
# Indices 1 2 3 4 5 6 
#
# 1 0.013595 -0.003911 -0.001419 0.000000 -0.000254 0.000000
# 2 -0.003911 0.009216 -0.001864 -0.000002 -0.000439 0.000001
# 3 -0.001419 -0.001864 0.013600 -0.000002 0.002704 0.000001
# 4 0.000000 -0.000002 -0.000002 0.057857 0.000006 -0.014530
# 5 -0.000254 -0.000439 0.002704 0.000006 0.026023 -0.000004
# 6 0.000000 0.000001 0.000001 -0.014530 -0.000004 0.034015
#
#
# Mechanical properties :
#
#
# Convention : Reuss Voigt Hill
#
# Bulk Modulus (GPa) = 45.40662 49.73580 47.57121
# Shear Modulus (GPa) = 28.40352 32.96423 30.68388
#
# Velocity S-wave (km/s) = 3.36724 3.62751 3.49980
# Velocity P-wave (km/s) = 5.76571 6.11547 5.94316
#
# Compressibility (1/GPa) = 0.02202322
#
# Stress axis : x y z
#
# Youngs Moduli (GPa) = 73.55549 108.50887 73.52970
#
# Poissons Ratio (x) = 0.42434 0.10434
# Poissons Ratio (y) = 0.28765 0.13707
# Poissons Ratio (z) = 0.10438 0.20228
#
# Static dielectric constant tensor:
#      x y z
#    x 2.101660 0.000000 0.033320 
#    y 0.000000 2.043610 0.000000 
#    z 0.033320 0.000000 2.053620 
# 
# From -- ./inp_files/213688.got.cif
#   From: 2010.05.17/outbox.cif.g08.bks.cpg/sg15_107_cif.got.tgz:213688.got - 2010.06.03 18:47:42.
