data_PCOD9277498
_publ_section_title
;
Structure prediction by ZEFSAII (Michael W. Deem and Ramdas Pophale) SiO2 
 PCOD9277498
Probable space group: C 2/C
;
_chemical_formula_sum "Si O2"
_cell_formula_units_Z 40
_cell_length_a 13.856676
_cell_length_b 9.628265
_cell_length_c 19.000680
_cell_angle_alpha 90.000000
_cell_angle_beta 38.146881
_cell_angle_gamma 90.000000
_cell_volume 1565.811476
_symmetry_space_group_name_H-M "C 2/C"
_symmetry_group_IT_number 15
_symmetry_cell_setting 'monoclinic'
loop_
_space_group_symop_operation_xyz
x,y,z
-x,y,1/2-z
-x,-y,-z
x,-y,1/2+z
1/2+x,1/2+y,z
1/2-x,1/2+y,1/2-z
1/2-x,1/2-y,-z
1/2+x,1/2-y,1/2+z
loop_
_atom_site_type_symbol
_atom_site_label
_atom_site_fract_x
_atom_site_fract_y
_atom_site_fract_z
Si Si1 0.373635 0.081704 0.773290
Si Si2 0.077805 0.069923 0.635033
Si Si3 0.082956 0.200845 0.341395
Si Si4 0.373813 0.393320 0.538924
Si Si5 0.426432 0.966639 0.465704
O O1 0.500000 0.153346 0.750000
O O2 0.299334 0.210633 0.774941
O O3 0.450928 0.990376 0.666702
O O4 0.274857 0.991412 0.882397
O O5 0.086814 0.164419 0.559643
O O6 0.000000 0.127639 0.750000
O O7 0.975223 0.938440 0.663529
O O8 0.252110 0.022092 0.556445
O O9 0.934019 0.300743 0.443320
O O10 0.158162 0.198548 0.375384
O O11 0.500000 0.500000 0.500000
O O12 0.500000 0.000000 0.500000
#
# Coordination Sequence:
#
# PCOD9277498 Si02
#       5
#     8   8   8   8   8
#     4  10  20  41  64  90 120 162 205 261 306 356
#     4  11  22  37  64  92 127 165 206 259 306 365
#     4   9  22  38  67  91 120 161 210 257 312 363
#     4  10  21  40  60  93 126 156 206 259 309 369
#     4  10  23  40  61  90 128 161 209 253 310 363
#
# _framework density 25.545859
#
# number of rings (size 3 to 8) (size 9 to 14) (size 15 to 20)
#    1.200    0.800    2.000    1.200    5.600    3.200 
#    0.000    1.000    0.000    0.000    0.000    0.000 
#    0.000    0.000    0.000    0.000    0.000    0.000 
#
# Total GULP energy -111424.138110 kJ/mol
# GULP energy per Si atom -5571.206905 kJ/mol
# Density = 2.548772 g / cm^3
# Si number density = 25.545859 Si / 1000 Ang^3
#
#
#
# Elastic Constant Matrix: (Units=GPa)
#
#
# Indices 1 2 3 4 5 6 
#
# 1 136.8902 2.0869 41.8121 0.0000 49.3158 0.0000
# 2 2.0869 32.8603 -3.9292 0.0000 8.7872 0.0000
# 3 41.8121 -3.9292 90.9163 0.0000 46.2230 0.0000
# 4 0.0000 0.0000 0.0000 2.8507 0.0000 5.1795
# 5 49.3158 8.7872 46.2230 0.0000 51.1390 0.0000
# 6 0.0000 0.0000 0.0000 5.1795 0.0000 30.3480
#
#
#
# Elastic Compliance Matrix: (Units=1/GPa)
#
#
# Indices 1 2 3 4 5 6 
#
# 1 0.011438 0.002833 0.001328 0.000000 -0.012717 0.000000
# 2 0.002833 0.035811 0.008811 0.000000 -0.016850 0.000000
# 3 0.001328 0.008811 0.022555 0.000000 -0.023181 0.000000
# 4 0.000000 0.000000 0.000000 0.508456 0.000000 -0.086778
# 5 -0.012717 -0.016850 -0.023181 0.000000 0.055666 0.000000
# 6 0.000000 0.000000 0.000000 -0.086778 0.000000 0.047762
#
#
# Mechanical properties :
#
#
# Convention : Reuss Voigt Hill
#
# Bulk Modulus (GPa) = 10.44409 37.84514 24.14462
# Shear Modulus (GPa) = 7.27105 31.58069 19.42587
#
# Velocity S-wave (km/s) = 1.68892 3.51983 2.76058
# Velocity P-wave (km/s) = 2.81079 5.60051 4.43092
#
# Compressibility (1/GPa) = 0.09574790
#
# Stress axis : x y z
#
# Youngs Moduli (GPa) = 87.42999 27.92412 44.33629
#
# Poissons Ratio (x) = -0.07911 -0.05886
# Poissons Ratio (y) = -0.24768 -0.39067
# Poissons Ratio (z) = -0.11607 -0.24605
#
# Static dielectric constant tensor:
#      x y z
#    x 2.149550 0.000000 0.038350 
#    y 0.000000 2.247480 0.000000 
#    z 0.038350 0.000000 2.106070 
# 
# From -- ./inp_files/243237.got.cif
#   From: 2010.05.17/outbox.cif.g08.bks.cpg/sg15_122_cif.got.tgz:243237.got - 2010.06.03 18:47:42.
