data_PCOD9277295
_publ_section_title
;
Structure prediction by ZEFSAII (Michael W. Deem and Ramdas Pophale) SiO2 
 PCOD9277295
Probable space group: C 2/C
;
_chemical_formula_sum "Si O2"
_cell_formula_units_Z 36
_cell_length_a 24.540634
_cell_length_b 6.637610
_cell_length_c 10.054161
_cell_angle_alpha 90.000000
_cell_angle_beta 74.333456
_cell_angle_gamma 90.000000
_cell_volume 1576.891439
_symmetry_space_group_name_H-M "C 2/C"
_symmetry_group_IT_number 15
_symmetry_cell_setting 'monoclinic'
loop_
_space_group_symop_operation_xyz
x,y,z
-x,y,1/2-z
-x,-y,-z
x,-y,1/2+z
1/2+x,1/2+y,z
1/2-x,1/2+y,1/2-z
1/2-x,1/2-y,-z
1/2+x,1/2-y,1/2+z
loop_
_atom_site_type_symbol
_atom_site_label
_atom_site_fract_x
_atom_site_fract_y
_atom_site_fract_z
Si Si1 0.500000 0.500000 0.500000
Si Si2 0.854254 0.602210 0.109889
Si Si3 0.811841 0.694783 0.408856
Si Si4 0.108753 0.065089 0.099858
Si Si5 0.954189 0.617271 0.676128
O O1 0.448814 0.478723 0.423047
O O2 0.487575 0.268550 0.559269
O O3 0.812114 0.595719 0.262640
O O4 0.915441 0.544845 0.129484
O O5 0.838619 0.448334 0.003589
O O6 0.858522 0.820216 0.039702
O O7 0.750000 0.750000 0.500000
O O8 0.851959 0.890300 0.369697
O O9 0.089562 0.231753 0.219357
O O10 0.000000 0.532017 0.750000
#
# Coordination Sequence:
#
# PCOD9277295 Si02
#       5
#     4   8   8   8   8
#     4  10  20  40  72 100 148 186 234 296 364 436
#     4  12  26  49  74 108 150 192 255 303 373 458
#     4  12  30  47  76 107 147 199 251 316 374 441
#     4  11  24  45  70 105 149 188 248 300 374 434
#     4  10  22  41  71 112 144 195 237 305 370 447
#
# _framework density 22.829726000000001
#
# number of rings (size 3 to 8) (size 9 to 14) (size 15 to 20)
#    0.000    0.889    4.444    1.333    3.111    6.222 
#    0.000    0.000    0.000    0.000    0.000    0.000 
#    0.000    0.000    0.000    0.000    0.000    0.000 
#
# Total GULP energy -100269.544492 kJ/mol
# GULP energy per Si atom -5570.530250 kJ/mol
# Density = 2.277776 g / cm^3
# Si number density = 22.829726 Si / 1000 Ang^3
#
#
#
# Elastic Constant Matrix: (Units=GPa)
#
#
# Indices 1 2 3 4 5 6 
#
# 1 35.4277 10.8708 1.4555 0.0000 -6.8202 0.0000
# 2 10.8708 39.3844 35.4014 0.0000 2.7037 0.0000
# 3 1.4555 35.4014 119.1466 0.0000 -3.8184 0.0000
# 4 0.0000 0.0000 0.0000 15.6575 0.0000 -1.9483
# 5 -6.8202 2.7037 -3.8184 0.0000 30.5571 0.0000
# 6 0.0000 0.0000 0.0000 -1.9483 0.0000 16.3139
#
#
#
# Elastic Compliance Matrix: (Units=1/GPa)
#
#
# Indices 1 2 3 4 5 6 
#
# 1 0.034003 -0.013529 0.003902 0.000000 0.009274 0.000000
# 2 -0.013529 0.040617 -0.012164 0.000000 -0.008133 0.000000
# 3 0.003902 -0.012164 0.012070 0.000000 0.003455 0.000000
# 4 0.000000 0.000000 0.000000 0.064831 0.000000 0.007742
# 5 0.009274 -0.008133 0.003455 0.000000 0.035947 0.000000
# 6 0.000000 0.000000 0.000000 0.007742 0.000000 0.062222
#
#
# Mechanical properties :
#
#
# Convention : Reuss Voigt Hill
#
# Bulk Modulus (GPa) = 23.19767 32.15712 27.67740
# Shear Modulus (GPa) = 16.25269 22.25442 19.25356
#
# Velocity S-wave (km/s) = 2.67106 3.12557 2.90721
# Velocity P-wave (km/s) = 4.43801 5.20978 4.83930
#
# Compressibility (1/GPa) = 0.04310777
#
# Stress axis : x y z
#
# Youngs Moduli (GPa) = 29.40928 24.62025 82.84847
#
# Poissons Ratio (x) = 0.33309 -0.32325
# Poissons Ratio (y) = 0.39788 1.00774
# Poissons Ratio (z) = -0.11474 0.29947
#
# Static dielectric constant tensor:
#      x y z
#    x 1.809400 0.000000 -0.040850 
#    y 0.000000 1.826800 0.000000 
#    z -0.040850 0.000000 1.921310 
# 
# From -- ./inp_files/120587.got.cif
#   From: 2010.05.17/outbox.cif.g08.bks.cpg/sg15_61_cif.got.tgz:120587.got - 2010.06.03 18:47:42.
