data_PCOD9277245
_publ_section_title
;
Structure prediction by ZEFSAII (Michael W. Deem and Ramdas Pophale) SiO2 
 PCOD9277245
Probable space group: C 2/C
;
_chemical_formula_sum "Si O2"
_cell_formula_units_Z 44
_cell_length_a 29.204656
_cell_length_b 8.597748
_cell_length_c 27.704789
_cell_angle_alpha 90.000000
_cell_angle_beta 161.960063
_cell_angle_gamma 90.000000
_cell_volume 2154.292068
_symmetry_space_group_name_H-M "C 2/C"
_symmetry_group_IT_number 15
_symmetry_cell_setting 'monoclinic'
loop_
_space_group_symop_operation_xyz
x,y,z
-x,y,1/2-z
-x,-y,-z
x,-y,1/2+z
1/2+x,1/2+y,z
1/2-x,1/2+y,1/2-z
1/2-x,1/2-y,-z
1/2+x,1/2-y,1/2+z
loop_
_atom_site_type_symbol
_atom_site_label
_atom_site_fract_x
_atom_site_fract_y
_atom_site_fract_z
Si Si1 0.917507 0.088778 0.986417
Si Si2 0.297365 0.412987 0.263594
Si Si3 0.238433 0.386063 0.051176
Si Si4 0.583136 0.068313 0.976350
Si Si5 0.200050 0.361341 0.805567
Si Si6 0.000000 0.802898 0.250000
O O1 0.803673 0.103787 0.827282
O O2 0.927645 0.250166 0.024070
O O3 0.855015 0.949575 0.955909
O O4 0.073129 0.032974 0.121206
O O5 0.153909 0.483197 0.094183
O O6 0.325556 0.245494 0.267332
O O7 0.182683 0.525831 0.029436
O O8 0.292588 0.256225 0.143123
O O9 0.379406 0.406661 0.157725
O O10 0.101370 0.310150 0.884778
O O11 0.425283 0.988055 0.811915
#
# Coordination Sequence:
#
# PCOD9277245 Si02
#       6
#     8   8   8   8   8   4
#     4  11  23  37  58  88 126 165 202 252 301 345
#     4  10  22  38  58  86 121 171 212 239 289 359
#     4  10  21  39  66  96 113 159 197 253 298 377
#     4  11  22  37  58  90 126 157 200 257 302 352
#     4  11  22  38  59  89 121 158 207 245 293 369
#     4  10  20  40  70  92 116 150 214 242 306 384
#
# _framework density 20.424341999999999
#
# number of rings (size 3 to 8) (size 9 to 14) (size 15 to 20)
#    0.000    1.455    1.818    4.364    2.545    5.818 
#    0.000    0.000    0.000    6.545    0.000    0.000 
#    0.000    0.000    0.000    0.000    0.000    0.000 
#
# Total GULP energy -122970.057156 kJ/mol
# GULP energy per Si atom -5589.548053 kJ/mol
# Density = 2.037786 g / cm^3
# Si number density = 20.424342 Si / 1000 Ang^3
#
#
#
# Elastic Constant Matrix: (Units=GPa)
#
#
# Indices 1 2 3 4 5 6 
#
# 1 48.7436 30.5382 1.1886 0.0008 12.2399 0.0005
# 2 30.5382 104.3381 -4.8060 0.0015 13.1644 0.0008
# 3 1.1886 -4.8060 51.6408 0.0019 3.6904 0.0012
# 4 0.0008 0.0015 0.0019 14.0561 0.0006 2.2406
# 5 12.2399 13.1644 3.6904 0.0006 27.3301 0.0001
# 6 0.0005 0.0008 0.0012 2.2406 0.0001 9.2429
#
#
#
# Elastic Compliance Matrix: (Units=1/GPa)
#
#
# Indices 1 2 3 4 5 6 
#
# 1 0.027000 -0.006832 -0.000634 0.000000 -0.008715 0.000000
# 2 -0.006832 0.012022 0.001486 -0.000001 -0.002932 -0.000001
# 3 -0.000634 0.001486 0.019739 -0.000002 -0.003097 -0.000002
# 4 0.000000 -0.000001 -0.000002 0.074003 -0.000001 -0.017940
# 5 -0.008715 -0.002932 -0.003097 -0.000001 0.042323 0.000001
# 6 0.000000 -0.000001 -0.000002 -0.017940 0.000001 0.112540
#
#
# Mechanical properties :
#
#
# Convention : Reuss Voigt Hill
#
# Bulk Modulus (GPa) = 21.36800 28.72935 25.04868
# Shear Modulus (GPa) = 15.86352 21.97926 18.92139
#
# Velocity S-wave (km/s) = 2.78995 3.28400 3.04701
# Velocity P-wave (km/s) = 4.56762 5.33632 4.96687
#
# Compressibility (1/GPa) = 0.04679894
#
# Stress axis : x y z
#
# Youngs Moduli (GPa) = 37.03725 83.17947 50.66193
#
# Poissons Ratio (x) = 0.56829 0.03214
# Poissons Ratio (y) = 0.25304 -0.07526
# Poissons Ratio (z) = 0.02350 -0.12357
#
# Static dielectric constant tensor:
#      x y z
#    x 1.772810 0.000000 0.002820 
#    y 0.000000 1.684830 0.000000 
#    z 0.002820 0.000000 1.741140 
# 
# From -- ./inp_files/68282.got.cif
#   From: 2010.05.17/outbox.cif.g08.bks.cpg/sg15_35_cif.got.tgz:68282.got - 2010.06.03 18:47:42.
