data_PCOD9277226
_publ_section_title
;
Structure prediction by ZEFSAII (Michael W. Deem and Ramdas Pophale) SiO2 
 PCOD9277226
Probable space group: C 2/C
;
_chemical_formula_sum "Si O2"
_cell_formula_units_Z 64
_cell_length_a 10.215108
_cell_length_b 23.831547
_cell_length_c 9.804447
_cell_angle_alpha 90.000000
_cell_angle_beta 92.374914
_cell_angle_gamma 90.000000
_cell_volume 2384.762377
_symmetry_space_group_name_H-M "C 2/C"
_symmetry_group_IT_number 15
_symmetry_cell_setting 'monoclinic'
loop_
_space_group_symop_operation_xyz
x,y,z
-x,y,1/2-z
-x,-y,-z
x,-y,1/2+z
1/2+x,1/2+y,z
1/2-x,1/2+y,1/2-z
1/2-x,1/2-y,-z
1/2+x,1/2-y,1/2+z
loop_
_atom_site_type_symbol
_atom_site_label
_atom_site_fract_x
_atom_site_fract_y
_atom_site_fract_z
Si Si1 0.079114 0.413287 0.475067
Si Si2 0.125362 0.479612 0.161171
Si Si3 0.716018 0.384024 0.526051
Si Si4 0.967868 0.310849 0.600492
Si Si5 0.420864 0.633249 0.055465
Si Si6 0.850891 0.994673 0.550767
Si Si7 0.239489 0.851986 0.216555
Si Si8 0.872524 0.249513 0.106443
O O1 0.933062 0.423683 0.412043
O O2 0.072626 0.360952 0.574407
O O3 0.119001 0.469933 0.549420
O O4 0.166922 0.399682 0.348177
O O5 0.282376 0.484409 0.192473
O O6 0.000000 0.495142 0.250000
O O7 0.829565 0.343652 0.590943
O O8 0.573928 0.372540 0.580834
O O9 0.719289 0.452858 0.536091
O O10 0.699532 0.365298 0.366634
O O11 0.000000 0.286151 0.750000
O O12 0.001333 0.268703 0.477967
O O13 0.378591 0.650684 0.897851
O O14 0.351543 0.573263 0.068907
O O15 0.379065 0.685227 0.146940
O O16 0.000000 0.000000 0.500000
O O17 0.331063 0.796517 0.212951
O O18 0.750000 0.250000 0.000000
#
# Coordination Sequence:
#
# PCOD9277226 Si02
#       8
#     8   8   8   8   8   8   8   8
#     4  10  21  35  59  94 136 178 232 301 369 431
#     4  11  20  35  62  98 136 188 242 300 371 447
#     4  11  23  40  71 113 140 197 257 306 385 470
#     4  11  24  43  66 101 146 186 245 320 382 447
#     4  10  21  43  70 101 151 195 246 304 385 472
#     4  10  21  40  67 102 153 195 248 309 387 467
#     4  10  20  40  70 104 141 189 247 315 378 448
#     4   9  22  42  70 101 141 196 243 308 393 447
#
# _framework density 26.837056
#
# number of rings (size 3 to 8) (size 9 to 14) (size 15 to 20)
#    0.000    1.750    2.500    1.500    0.000    4.000 
#    0.000    1.250    0.000    6.000    6.500    0.000 
#    0.000    0.000    0.000    0.000    0.000    0.000 
#
# Total GULP energy -178318.356911 kJ/mol
# GULP energy per Si atom -5572.448653 kJ/mol
# Density = 2.677597 g / cm^3
# Si number density = 26.837056 Si / 1000 Ang^3
#
#
#
# Elastic Constant Matrix: (Units=GPa)
#
#
# Indices 1 2 3 4 5 6 
#
# 1 138.0706 40.4935 30.4976 0.0000 -28.4693 0.0000
# 2 40.4935 164.0956 35.2335 0.0000 -28.1166 0.0000
# 3 30.4976 35.2335 89.0245 0.0000 -7.1194 0.0000
# 4 0.0000 0.0000 0.0000 7.8658 0.0000 -3.5822
# 5 -28.4693 -28.1166 -7.1194 0.0000 47.6105 0.0000
# 6 0.0000 0.0000 0.0000 -3.5822 0.0000 33.2273
#
#
#
# Elastic Compliance Matrix: (Units=1/GPa)
#
#
# Indices 1 2 3 4 5 6 
#
# 1 0.008953 -0.000946 -0.002337 0.000000 0.004445 0.000000
# 2 -0.000946 0.007423 -0.002337 0.000000 0.003469 0.000000
# 3 -0.002337 -0.002337 0.012890 0.000000 -0.000850 0.000000
# 4 0.000000 0.000000 0.000000 0.133696 0.000000 0.014414
# 5 0.004445 0.003469 -0.000850 0.000000 0.025584 0.000000
# 6 0.000000 0.000000 0.000000 0.014414 0.000000 0.031650
#
#
# Mechanical properties :
#
#
# Convention : Reuss Voigt Hill
#
# Bulk Modulus (GPa) = 55.47058 67.07109 61.27084
# Shear Modulus (GPa) = 21.05756 36.73848 28.89802
#
# Velocity S-wave (km/s) = 2.80419 3.70394 3.28502
# Velocity P-wave (km/s) = 5.58560 6.58320 6.10481
#
# Compressibility (1/GPa) = 0.01802758
#
# Stress axis : x y z
#
# Youngs Moduli (GPa) = 111.69523 134.70764 77.57753
#
# Poissons Ratio (x) = 0.12740 0.18132
# Poissons Ratio (y) = 0.10564 0.18127
# Poissons Ratio (z) = 0.26106 0.31476
#
# Static dielectric constant tensor:
#      x y z
#    x 2.948520 0.000000 0.007750 
#    y 0.000000 2.133960 0.000000 
#    z 0.007750 0.000000 2.296770 
# 
# From -- ./inp_files/147861.got.cif
#   From: 2010.05.17/outbox.cif.g08.bks.cpg/sg15_74_cif.got.tgz:147861.got - 2010.06.03 18:47:42.
