data_PCOD9277132
_publ_section_title
;
Structure prediction by ZEFSAII (Michael W. Deem and Ramdas Pophale) SiO2 
 PCOD9277132
Probable space group: C 2/C
;
_chemical_formula_sum "Si O2"
_cell_formula_units_Z 36
_cell_length_a 24.072157
_cell_length_b 12.242764
_cell_length_c 13.604363
_cell_angle_alpha 90.000000
_cell_angle_beta 22.967558
_cell_angle_gamma 90.000000
_cell_volume 1564.483306
_symmetry_space_group_name_H-M "C 2/C"
_symmetry_group_IT_number 15
_symmetry_cell_setting 'monoclinic'
loop_
_space_group_symop_operation_xyz
x,y,z
-x,y,1/2-z
-x,-y,-z
x,-y,1/2+z
1/2+x,1/2+y,z
1/2-x,1/2+y,1/2-z
1/2-x,1/2-y,-z
1/2+x,1/2-y,1/2+z
loop_
_atom_site_type_symbol
_atom_site_label
_atom_site_fract_x
_atom_site_fract_y
_atom_site_fract_z
Si Si1 0.690759 0.700060 0.300031
Si Si2 0.500000 0.704125 0.250000
Si Si3 0.949545 0.624315 0.587819
Si Si4 0.240113 0.841801 0.933957
Si Si5 0.837088 0.076759 0.349407
O O1 0.607265 0.813788 0.415712
O O2 0.658857 0.665490 0.463075
O O3 0.638046 0.610911 0.304482
O O4 0.857019 0.727305 0.006938
O O5 0.453691 0.628611 0.232471
O O6 0.000000 0.500000 0.500000
O O7 0.099470 0.672846 0.369534
O O8 0.816155 0.632381 0.876330
O O9 0.250000 0.750000 0.000000
O O10 0.193518 0.952228 0.067089
#
# Coordination Sequence:
#
# PCOD9277132 Si02
#       5
#     8   4   8   8   8
#     4  11  21  40  66  91 124 166 208 260 316 376
#     4  10  20  40  68  94 120 156 212 262 306 374
#     4   9  20  40  63  90 123 161 208 255 312 380
#     4  11  25  41  59  92 129 164 207 260 314 372
#     4  10  22  40  64  91 122 165 209 255 312 376
#
# _framework density 23.010793
#
# number of rings (size 3 to 8) (size 9 to 14) (size 15 to 20)
#    0.000    1.778    0.000    5.333    0.000    8.000 
#    0.000   10.000    0.000    0.000    0.000    0.000 
#    0.000    0.000    0.000    0.000    0.000    0.000 
#
# Total GULP energy -100242.127928 kJ/mol
# GULP energy per Si atom -5569.007107 kJ/mol
# Density = 2.295842 g / cm^3
# Si number density = 23.010793 Si / 1000 Ang^3
#
#
#
# Elastic Constant Matrix: (Units=GPa)
#
#
# Indices 1 2 3 4 5 6 
#
# 1 219.9369 107.7407 58.2391 0.0000 32.5066 0.0000
# 2 107.7407 145.0695 34.1414 0.0000 26.6641 0.0000
# 3 58.2391 34.1414 66.7776 0.0000 -16.1681 0.0000
# 4 0.0000 0.0000 0.0000 26.2501 0.0000 -12.6056
# 5 32.5066 26.6641 -16.1681 0.0000 35.0955 0.0000
# 6 0.0000 0.0000 0.0000 -12.6056 0.0000 26.1352
#
#
#
# Elastic Compliance Matrix: (Units=1/GPa)
#
#
# Indices 1 2 3 4 5 6 
#
# 1 0.010872 -0.003164 -0.010940 0.000000 -0.012706 0.000000
# 2 -0.003164 0.012222 -0.005659 0.000000 -0.008963 0.000000
# 3 -0.010940 -0.005659 0.034784 0.000000 0.030457 0.000000
# 4 0.000000 0.000000 0.000000 0.049578 0.000000 0.023913
# 5 -0.012706 -0.008963 0.030457 0.000000 0.061103 0.000000
# 6 0.000000 0.000000 0.000000 0.023913 0.000000 0.049796
#
#
# Mechanical properties :
#
#
# Convention : Reuss Voigt Hill
#
# Bulk Modulus (GPa) = 54.49314 92.44736 73.47025
# Shear Modulus (GPa) = 18.93942 32.94034 25.93988
#
# Velocity S-wave (km/s) = 2.87203 3.78764 3.36116
# Velocity P-wave (km/s) = 5.89330 7.70657 6.86011
#
# Compressibility (1/GPa) = 0.01835093
#
# Stress axis : x y z
#
# Youngs Moduli (GPa) = 91.98318 81.81648 28.74880
#
# Poissons Ratio (x) = 0.25888 0.31451
# Poissons Ratio (y) = 0.29105 0.16270
# Poissons Ratio (z) = 1.00629 0.46304
#
# Static dielectric constant tensor:
#      x y z
#    x 1.935390 0.000000 -0.069220 
#    y 0.000000 1.923230 0.000000 
#    z -0.069220 0.000000 1.956600 
# 
# From -- ./inp_files/112590.got.cif
#   From: 2010.05.17/outbox.cif.g08.bks.cpg/sg15_57_cif.got.tgz:112590.got - 2010.06.03 18:47:42.
