data_PCOD9277945
_publ_section_title
;
Structure prediction by ZEFSAII (Michael W. Deem and Ramdas Pophale) SiO2 
 PCOD9277945
Probable space group: C 2/C
;
_chemical_formula_sum "Si O2"
_cell_formula_units_Z 52
_cell_length_a 21.082728
_cell_length_b 8.871309
_cell_length_c 22.104614
_cell_angle_alpha 90.000000
_cell_angle_beta 29.479787
_cell_angle_gamma 90.000000
_cell_volume 2034.535906
_symmetry_space_group_name_H-M "C 2/C"
_symmetry_group_IT_number 15
_symmetry_cell_setting 'monoclinic'
loop_
_space_group_symop_operation_xyz
x,y,z
-x,y,1/2-z
-x,-y,-z
x,-y,1/2+z
1/2+x,1/2+y,z
1/2-x,1/2+y,1/2-z
1/2-x,1/2-y,-z
1/2+x,1/2-y,1/2+z
loop_
_atom_site_type_symbol
_atom_site_label
_atom_site_fract_x
_atom_site_fract_y
_atom_site_fract_z
Si Si1 0.939708 0.194827 0.409907
Si Si2 0.500000 0.891930 0.250000
Si Si3 0.024119 0.643378 0.382886
Si Si4 0.078197 0.823459 0.919313
Si Si5 0.899732 0.924390 0.250661
Si Si6 0.301531 0.967352 0.498925
Si Si7 0.254709 0.050829 0.739600
O O1 0.984744 0.207804 0.441041
O O2 0.021572 0.288801 0.291488
O O3 0.807672 0.288329 0.510587
O O4 0.971172 0.022567 0.366964
O O5 0.369704 0.980781 0.376521
O O6 0.080315 0.750716 0.283552
O O7 0.121512 0.532182 0.336130
O O8 0.970096 0.755201 0.478565
O O9 0.908712 0.547613 0.451396
O O10 0.133941 0.992042 0.878799
O O11 0.205780 0.724519 0.794865
O O12 0.831951 0.958732 0.370541
O O13 0.797817 0.985194 0.284194
#
# Coordination Sequence:
#
# PCOD9277945 Si02
#       7
#     8   4   8   8   8   8   8
#     4   9  21  39  62  88 115 162 207 252 301 350
#     4   8  20  42  66  86 114 160 216 252 296 348
#     4  12  21  37  58  90 128 160 196 250 305 373
#     4  11  21  35  57  88 122 161 198 242 308 367
#     4  11  23  37  59  92 120 160 201 245 309 361
#     4  10  20  42  63  82 125 160 200 253 299 353
#     4  11  19  35  52  85 121 163 189 244 297 367
#
# _framework density 25.558653
#
# number of rings (size 3 to 8) (size 9 to 14) (size 15 to 20)
#    0.923    0.615    4.615    1.385    0.000    3.077 
#    5.538    1.538    0.000    0.000    0.000    0.000 
#    0.000    0.000    0.000    0.000    0.000    0.000 
#
# Total GULP energy -145146.497620 kJ/mol
# GULP energy per Si atom -5582.557601 kJ/mol
# Density = 2.550048 g / cm^3
# Si number density = 25.558653 Si / 1000 Ang^3
#
#
#
# Elastic Constant Matrix: (Units=GPa)
#
#
# Indices 1 2 3 4 5 6 
#
# 1 101.5141 33.9313 20.9929 0.0000 22.8312 -0.0001
# 2 33.9313 93.4774 27.3186 0.0001 -0.2982 -0.0004
# 3 20.9929 27.3186 97.3396 0.0000 15.7099 0.0001
# 4 0.0000 0.0001 0.0000 42.2057 0.0000 9.3323
# 5 22.8312 -0.2982 15.7099 0.0000 28.2055 0.0001
# 6 -0.0001 -0.0004 0.0001 9.3323 0.0001 -12.9451
#
#
#
# Elastic Compliance Matrix: (Units=1/GPa)
#
#
# Indices 1 2 3 4 5 6 
#
# 1 0.014184 -0.005277 0.000312 0.000000 -0.011711 0.000000
# 2 -0.005277 0.013735 -0.003768 0.000000 0.006516 0.000000
# 3 0.000312 -0.003768 0.012428 0.000000 -0.007215 0.000000
# 4 0.000000 0.000000 0.000000 0.020436 0.000000 0.014733
# 5 -0.011711 0.006516 -0.007215 0.000000 0.049021 0.000000
# 6 0.000000 0.000000 0.000000 0.014733 0.000000 -0.066628
#
#
# Mechanical properties :
#
#
# Convention : Reuss Voigt Hill
#
# Bulk Modulus (GPa) = 43.70525 50.75742 47.23133
# Shear Modulus (GPa) = 73.23856 25.49910 49.36883
#
# Velocity S-wave (km/s) = 5.35885 3.16202 4.39975
# Velocity P-wave (km/s) = 7.44492 5.76485 6.65809
#
# Compressibility (1/GPa) = 0.02288055
#
# Stress axis : x y z
#
# Youngs Moduli (GPa) = 70.50136 72.80432 80.46351
#
# Poissons Ratio (x) = 0.38421 -0.02511
# Poissons Ratio (y) = 0.37205 0.30322
# Poissons Ratio (z) = -0.02200 0.27435
#
# Static dielectric constant tensor:
#      x y z
#    x 1.956650 0.000000 -0.046680 
#    y 0.000000 2.026000 0.000000 
#    z -0.046680 0.000000 2.118360 
# 
# From -- ./inp_files/283288.got.cif
#   From: 2010.05.17/outbox.cif.g08.bks.cpg/sg15_142_cif.got.tgz:283288.got - 2010.06.03 18:47:42.
