data_PCOD9277055
_publ_section_title
;
Structure prediction by ZEFSAII (Michael W. Deem and Ramdas Pophale) SiO2 
 PCOD9277055
Probable space group: C 2/C
;
_chemical_formula_sum "Si O2"
_cell_formula_units_Z 44
_cell_length_a 16.873924
_cell_length_b 8.360664
_cell_length_c 15.479962
_cell_angle_alpha 90.000000
_cell_angle_beta 115.079703
_cell_angle_gamma 90.000000
_cell_volume 1977.972433
_symmetry_space_group_name_H-M "C 2/C"
_symmetry_group_IT_number 15
_symmetry_cell_setting 'monoclinic'
loop_
_space_group_symop_operation_xyz
x,y,z
-x,y,1/2-z
-x,-y,-z
x,-y,1/2+z
1/2+x,1/2+y,z
1/2-x,1/2+y,1/2-z
1/2-x,1/2-y,-z
1/2+x,1/2-y,1/2+z
loop_
_atom_site_type_symbol
_atom_site_label
_atom_site_fract_x
_atom_site_fract_y
_atom_site_fract_z
Si Si1 0.343049 0.788930 0.296487
Si Si2 0.414305 0.485675 0.149256
Si Si3 0.766929 0.570424 0.361015
Si Si4 0.085897 0.333172 0.447122
Si Si5 0.050612 0.834719 0.506748
Si Si6 0.000000 0.615466 0.750000
O O1 0.262108 0.726205 0.204633
O O2 0.368515 0.678552 0.389615
O O3 0.425622 0.792745 0.270661
O O4 0.325201 0.961425 0.326530
O O5 0.500000 0.477300 0.250000
O O6 0.323175 0.478251 0.158585
O O7 0.408386 0.658259 0.096585
O O8 0.421586 0.349478 0.079314
O O9 0.823102 0.614097 0.470516
O O10 0.015234 0.304778 0.491269
O O11 0.053617 0.453114 0.356379
O O12 0.000000 0.000000 0.500000
#
# Coordination Sequence:
#
# PCOD9277055 Si02
#       6
#     8   8   8   8   8   4
#     4  11  26  44  66 103 132 177 225 275 327 402
#     4  11  21  40  70  96 129 184 225 261 340 412
#     4  12  26  39  69 101 136 171 226 282 330 382
#     4  10  20  40  67  96 126 177 221 274 320 402
#     4   9  21  39  68  92 133 172 223 265 331 395
#     4  10  20  44  68  92 134 178 226 254 336 420
#
# _framework density 22.245000000000001
#
# number of rings (size 3 to 8) (size 9 to 14) (size 15 to 20)
#    0.000    1.455    2.727    2.727    7.636    3.636 
#    0.000    1.818    2.000    0.000    0.000    0.000 
#    0.000    0.000    0.000    0.000    0.000    0.000 
#
# Total GULP energy -122720.400044 kJ/mol
# GULP energy per Si atom -5578.200002 kJ/mol
# Density = 2.219437 g / cm^3
# Si number density = 22.245000 Si / 1000 Ang^3
#
#
#
# Elastic Constant Matrix: (Units=GPa)
#
#
# Indices 1 2 3 4 5 6 
#
# 1 76.1692 15.3785 51.5410 0.0000 -4.4098 0.0000
# 2 15.3785 39.9214 31.3838 0.0000 -2.4299 0.0000
# 3 51.5410 31.3838 198.8695 0.0000 27.0236 0.0000
# 4 0.0000 0.0000 0.0000 22.5455 0.0000 -1.1924
# 5 -4.4098 -2.4299 27.0236 0.0000 46.9365 0.0000
# 6 0.0000 0.0000 0.0000 -1.1924 0.0000 8.6690
#
#
#
# Elastic Compliance Matrix: (Units=1/GPa)
#
#
# Indices 1 2 3 4 5 6 
#
# 1 0.016973 -0.002740 -0.004517 0.000000 0.004054 0.000000
# 2 -0.002740 0.029912 -0.004541 0.000000 0.003906 0.000000
# 3 -0.004517 -0.004541 0.007600 0.000000 -0.005035 0.000000
# 4 0.000000 0.000000 0.000000 0.044680 0.000000 0.006146
# 5 0.004054 0.003906 -0.005035 0.000000 0.024787 0.000000
# 6 0.000000 0.000000 0.000000 0.006146 0.000000 0.116199
#
#
# Mechanical properties :
#
#
# Convention : Reuss Voigt Hill
#
# Bulk Modulus (GPa) = 32.37479 56.84076 44.60777
# Shear Modulus (GPa) = 18.24514 30.07399 24.15956
#
# Velocity S-wave (km/s) = 2.86700 3.68087 3.29913
# Velocity P-wave (km/s) = 5.05420 6.60853 5.88293
#
# Compressibility (1/GPa) = 0.03088824
#
# Stress axis : x y z
#
# Youngs Moduli (GPa) = 58.91579 33.43091 131.57878
#
# Poissons Ratio (x) = 0.09162 0.59439
# Poissons Ratio (y) = 0.16146 0.59750
# Poissons Ratio (z) = 0.26614 0.15181
#
# Static dielectric constant tensor:
#      x y z
#    x 1.834420 0.000000 -0.023060 
#    y 0.000000 1.834680 0.000000 
#    z -0.023060 0.000000 1.891780 
# 
# From -- ./inp_files/159816.got.cif
#   From: 2010.05.17/outbox.cif.g08.bks.cpg/sg15_80_cif.got.tgz:159816.got - 2010.06.03 18:47:42.
