data_PCOD9277795
_publ_section_title
;
Structure prediction by ZEFSAII (Michael W. Deem and Ramdas Pophale) SiO2 
 PCOD9277795
Probable space group: C 2/C
;
_chemical_formula_sum "Si O2"
_cell_formula_units_Z 60
_cell_length_a 12.492982
_cell_length_b 19.501162
_cell_length_c 20.788635
_cell_angle_alpha 90.000000
_cell_angle_beta 32.847762
_cell_angle_gamma 90.000000
_cell_volume 2747.130197
_symmetry_space_group_name_H-M "C 2/C"
_symmetry_group_IT_number 15
_symmetry_cell_setting 'monoclinic'
loop_
_space_group_symop_operation_xyz
x,y,z
-x,y,1/2-z
-x,-y,-z
x,-y,1/2+z
1/2+x,1/2+y,z
1/2-x,1/2+y,1/2-z
1/2-x,1/2-y,-z
1/2+x,1/2-y,1/2+z
loop_
_atom_site_type_symbol
_atom_site_label
_atom_site_fract_x
_atom_site_fract_y
_atom_site_fract_z
Si Si1 0.931728 0.803702 0.482321
Si Si2 0.660108 0.011692 0.975217
Si Si3 0.031316 0.071911 0.448320
Si Si4 0.000000 0.077794 0.250000
Si Si5 0.914071 0.573209 0.864281
Si Si6 0.104415 0.716146 0.766351
Si Si7 0.818555 0.667177 0.514298
Si Si8 0.770163 0.147145 0.257295
O O1 0.834678 0.732033 0.553794
O O2 0.847268 0.815967 0.453982
O O3 0.886803 0.871335 0.544482
O O4 0.165650 0.795433 0.364115
O O5 0.860402 0.969115 0.864131
O O6 0.713419 0.091450 0.944440
O O7 0.500000 0.000000 0.000000
O O8 0.575631 0.985377 0.086603
O O9 0.814268 0.090520 0.532666
O O10 0.174724 0.083495 0.315913
O O11 0.000000 0.000000 0.500000
O O12 0.157040 0.122988 0.209609
O O13 0.000000 0.554289 0.750000
O O14 0.017741 0.643842 0.834440
O O15 0.104049 0.782102 0.813934
O O16 0.000000 0.729428 0.750000
O O17 0.038731 0.663286 0.371642
#
# Coordination Sequence:
#
# PCOD9277795 Si02
#       8
#     8   8   8   4   8   8   8   8
#     4  10  22  44  68  97 139 177 229 286 349 416
#     4  12  26  44  70 103 141 187 230 292 356 420
#     4  12  25  41  69 105 138 183 229 294 354 416
#     4  12  24  44  66 102 138 178 238 282 354 418
#     4  11  24  43  70 107 136 180 237 296 355 413
#     4  10  20  41  70 101 134 178 230 295 348 419
#     4  10  24  45  68  95 138 186 227 285 345 428
#     4  11  24  42  68 101 140 178 230 287 350 423
#
# _framework density 21.840973999999999
#
# number of rings (size 3 to 8) (size 9 to 14) (size 15 to 20)
#    0.000    1.067    6.000    0.800    1.867    3.200 
#    0.000    2.667    0.000    0.000    0.000    0.000 
#    0.000    0.000    0.000    0.000    0.000    0.000 
#
# Total GULP energy -167403.673890 kJ/mol
# GULP energy per Si atom -5580.122463 kJ/mol
# Density = 2.179126 g / cm^3
# Si number density = 21.840974 Si / 1000 Ang^3
#
#
#
# Elastic Constant Matrix: (Units=GPa)
#
#
# Indices 1 2 3 4 5 6 
#
# 1 99.7821 35.0273 23.1744 -0.0034 -21.3417 0.0001
# 2 35.0273 138.8923 1.0990 0.0215 14.0344 -0.0016
# 3 23.1744 1.0990 51.4620 0.0321 -4.5551 0.0074
# 4 -0.0034 0.0215 0.0321 20.7863 0.0016 0.9958
# 5 -21.3417 14.0344 -4.5551 0.0016 34.5019 -0.0059
# 6 0.0001 -0.0016 0.0074 0.9958 -0.0059 35.0095
#
#
#
# Elastic Compliance Matrix: (Units=1/GPa)
#
#
# Indices 1 2 3 4 5 6 
#
# 1 0.015423 -0.004931 -0.005887 0.000016 0.010769 0.000002
# 2 -0.004931 0.009095 0.001446 -0.000012 -0.006559 -0.000001
# 3 -0.005887 0.001446 0.021934 -0.000036 -0.001334 -0.000004
# 4 0.000016 -0.000012 -0.000036 0.048174 0.000007 -0.001370
# 5 0.010769 -0.006559 -0.001334 0.000007 0.038137 0.000006
# 6 0.000002 -0.000001 -0.000004 -0.001370 0.000006 0.028603
#
#
# Mechanical properties :
#
#
# Convention : Reuss Voigt Hill
#
# Bulk Modulus (GPa) = 36.09143 45.41532 40.75338
# Shear Modulus (GPa) = 26.40655 33.44857 29.92756
#
# Velocity S-wave (km/s) = 3.48089 3.91763 3.70570
# Velocity P-wave (km/s) = 5.71979 6.42671 6.08353
#
# Compressibility (1/GPa) = 0.02770741
#
# Stress axis : x y z
#
# Youngs Moduli (GPa) = 64.83620 109.95365 45.59148
#
# Poissons Ratio (x) = 0.54221 0.26840
# Poissons Ratio (y) = 0.31972 -0.06592
# Poissons Ratio (z) = 0.38169 -0.15898
#
# Static dielectric constant tensor:
#      x y z
#    x 1.807230 0.000000 0.065840 
#    y 0.000000 1.882160 0.000000 
#    z 0.065840 0.000000 1.851880 
# 
# From -- ./inp_files/239970.got.cif
#   From: 2010.05.17/outbox.cif.g08.bks.cpg/sg15_120_cif.got.tgz:239970.got - 2010.06.03 18:47:42.
