data_PCOD9277968
_publ_section_title
;
Structure prediction by ZEFSAII (Michael W. Deem and Ramdas Pophale) SiO2 
 PCOD9277968
Probable space group: C 2/C
;
_chemical_formula_sum "Si O2"
_cell_formula_units_Z 60
_cell_length_a 16.227909
_cell_length_b 16.292630
_cell_length_c 10.909017
_cell_angle_alpha 90.000000
_cell_angle_beta 107.293588
_cell_angle_gamma 90.000000
_cell_volume 2753.905869
_symmetry_space_group_name_H-M "C 2/C"
_symmetry_group_IT_number 15
_symmetry_cell_setting 'monoclinic'
loop_
_space_group_symop_operation_xyz
x,y,z
-x,y,1/2-z
-x,-y,-z
x,-y,1/2+z
1/2+x,1/2+y,z
1/2-x,1/2+y,1/2-z
1/2-x,1/2-y,-z
1/2+x,1/2-y,1/2+z
loop_
_atom_site_type_symbol
_atom_site_label
_atom_site_fract_x
_atom_site_fract_y
_atom_site_fract_z
Si Si1 0.708005 0.382767 0.043792
Si Si2 0.564424 0.200178 0.677195
Si Si3 0.500000 0.209544 0.250000
Si Si4 0.267516 0.553615 0.339760
Si Si5 0.077858 0.750255 0.056815
Si Si6 0.372074 0.101861 0.026304
Si Si7 0.859536 0.423391 0.947801
Si Si8 0.400457 0.367301 0.735316
O O1 0.804018 0.383336 0.033182
O O2 0.650711 0.406418 0.900751
O O3 0.708025 0.458405 0.135838
O O4 0.665012 0.298818 0.069210
O O5 0.500000 0.158403 0.750000
O O6 0.500775 0.261461 0.571606
O O7 0.618098 0.147043 0.602707
O O8 0.618746 0.268778 0.773169
O O9 0.549368 0.269341 0.179981
O O10 0.431481 0.153012 0.146342
O O11 0.219590 0.588101 0.441782
O O12 0.198962 0.560649 0.197796
O O13 0.353801 0.600433 0.336825
O O14 0.080189 0.651218 0.059799
O O15 0.399828 0.007885 0.012121
O O16 0.500000 0.385091 0.750000
#
# Coordination Sequence:
#
# PCOD9277968 Si02
#       8
#     8   8   4   8   8   8   8   8
#     4  10  21  40  67  89 121 172 216 266 319 382
#     4  10  21  38  63  95 127 167 216 258 318 390
#     4  10  22  38  62  94 136 164 214 266 326 384
#     4  10  22  42  62  93 129 168 222 267 321 381
#     4  11  20  41  61  92 127 171 206 266 319 381
#     4  10  22  42  60  93 131 168 211 267 322 385
#     4  10  22  40  62  90 130 166 217 267 317 386
#     4  10  20  42  63  95 129 160 220 274 311 389
#
# _framework density 21.787236
#
# number of rings (size 3 to 8) (size 9 to 14) (size 15 to 20)
#    0.000    1.867    4.000    0.400    0.000    5.333 
#    8.400    6.667    0.000    0.000    0.000    0.000 
#    0.000    0.000    0.000    0.000    0.000    0.000 
#
# Total GULP energy -167102.539801 kJ/mol
# GULP energy per Si atom -5570.084660 kJ/mol
# Density = 2.173765 g / cm^3
# Si number density = 21.787236 Si / 1000 Ang^3
#
#
#
# Elastic Constant Matrix: (Units=GPa)
#
#
# Indices 1 2 3 4 5 6 
#
# 1 64.9072 16.6898 30.2900 0.0000 -18.2264 0.0000
# 2 16.6898 55.7065 24.4998 0.0000 -9.2422 0.0000
# 3 30.2900 24.4998 69.5554 0.0000 -29.5451 0.0000
# 4 0.0000 0.0000 0.0000 22.8343 0.0000 8.6069
# 5 -18.2264 -9.2422 -29.5451 0.0000 36.4509 0.0000
# 6 0.0000 0.0000 0.0000 8.6069 0.0000 5.7776
#
#
#
# Elastic Compliance Matrix: (Units=1/GPa)
#
#
# Indices 1 2 3 4 5 6 
#
# 1 0.020131 -0.002689 -0.005846 0.000000 0.004646 0.000000
# 2 -0.002689 0.021627 -0.007150 0.000000 -0.001657 0.000000
# 3 -0.005846 -0.007150 0.026582 0.000000 0.016809 0.000000
# 4 0.000000 0.000000 0.000000 0.099874 0.000000 -0.148782
# 5 0.004646 -0.001657 0.016809 0.000000 0.042962 0.000000
# 6 0.000000 0.000000 0.000000 -0.148782 0.000000 0.394721
#
#
# Mechanical properties :
#
#
# Convention : Reuss Voigt Hill
#
# Bulk Modulus (GPa) = 27.05054 37.01425 32.03239
# Shear Modulus (GPa) = 7.69716 20.92520 14.31118
#
# Velocity S-wave (km/s) = 1.88163 3.10245 2.56571
# Velocity P-wave (km/s) = 4.14288 5.46438 4.84886
#
# Compressibility (1/GPa) = 0.03696784
#
# Stress axis : x y z
#
# Youngs Moduli (GPa) = 49.67514 46.23894 37.62007
#
# Poissons Ratio (x) = 0.12436 0.21992
# Poissons Ratio (y) = 0.13360 0.26899
# Poissons Ratio (z) = 0.29040 0.33062
#
# Static dielectric constant tensor:
#      x y z
#    x 1.839200 0.000000 -0.019860 
#    y 0.000000 1.793860 0.000000 
#    z -0.019860 0.000000 1.895330 
# 
# From -- ./inp_files/105383.got.cif
#   From: 2010.05.17/outbox.cif.g08.bks.cpg/sg15_53_cif.got.tgz:105383.got - 2010.06.03 18:47:42.
