data_PCOD9277309
_publ_section_title
;
Structure prediction by ZEFSAII (Michael W. Deem and Ramdas Pophale) SiO2 
 PCOD9277309
Probable space group: C 2/C
;
_chemical_formula_sum "Si O2"
_cell_formula_units_Z 48
_cell_length_a 12.023715
_cell_length_b 9.553464
_cell_length_c 20.833098
_cell_angle_alpha 90.000000
_cell_angle_beta 132.160589
_cell_angle_gamma 90.000000
_cell_volume 1773.894368
_symmetry_space_group_name_H-M "C 2/C"
_symmetry_group_IT_number 15
_symmetry_cell_setting 'monoclinic'
loop_
_space_group_symop_operation_xyz
x,y,z
-x,y,1/2-z
-x,-y,-z
x,-y,1/2+z
1/2+x,1/2+y,z
1/2-x,1/2+y,1/2-z
1/2-x,1/2-y,-z
1/2+x,1/2-y,1/2+z
loop_
_atom_site_type_symbol
_atom_site_label
_atom_site_fract_x
_atom_site_fract_y
_atom_site_fract_z
Si Si1 0.665652 0.931108 0.880109
Si Si2 0.612067 0.900559 0.581898
Si Si3 0.148037 0.039854 0.246504
Si Si4 0.500000 0.188309 0.750000
Si Si5 0.150309 0.062885 0.436153
Si Si6 0.500000 0.708733 0.750000
Si Si7 0.971442 0.842403 0.968862
O O1 0.540486 0.813291 0.823405
O O2 0.795833 0.854192 0.887674
O O3 0.609796 0.079267 0.829459
O O4 0.741814 0.965564 0.978231
O O5 0.673115 0.945711 0.675237
O O6 0.760158 0.895847 0.592943
O O7 0.522263 0.757085 0.545318
O O8 0.500000 0.000000 0.500000
O O9 0.092087 0.199747 0.242033
O O10 0.015032 0.001302 0.145270
O O11 0.128817 0.902774 0.284071
O O12 0.087938 0.189179 0.456623
O O13 0.000000 0.000000 0.000000
#
# Coordination Sequence:
#
# PCOD9277309 Si02
#       7
#     8   8   8   4   8   4   8
#     4  10  23  42  66  99 132 176 214 282 333 390
#     4  12  24  44  68  96 134 176 221 277 330 391
#     4  11  22  41  68  93 133 177 223 273 328 397
#     4  10  20  40  72  90 138 174 224 266 334 388
#     4  11  23  42  71  95 131 177 228 265 331 400
#     4  10  20  42  62  92 142 164 214 284 340 380
#     4  10  23  41  65  94 133 168 220 267 327 392
#
# _framework density 27.059108999999999
#
# number of rings (size 3 to 8) (size 9 to 14) (size 15 to 20)
#    0.000    1.333    3.333    3.500    2.333    0.667 
#    9.000    5.000    0.000    0.000    0.000    0.000 
#    0.000    0.000    0.000    0.000    0.000    0.000 
#
# Total GULP energy -133625.130193 kJ/mol
# GULP energy per Si atom -5567.713758 kJ/mol
# Density = 2.699752 g / cm^3
# Si number density = 27.059109 Si / 1000 Ang^3
#
#
#
# Elastic Constant Matrix: (Units=GPa)
#
#
# Indices 1 2 3 4 5 6 
#
# 1 101.6122 14.8251 7.8305 0.0000 10.6995 0.0000
# 2 14.8251 198.1623 92.6906 0.0000 4.5692 0.0000
# 3 7.8305 92.6906 224.5197 0.0000 8.4235 0.0000
# 4 0.0000 0.0000 0.0000 59.0886 0.0000 12.3091
# 5 10.6995 4.5692 8.4235 0.0000 25.6223 0.0000
# 6 0.0000 0.0000 0.0000 12.3091 0.0000 20.0409
#
#
#
# Elastic Compliance Matrix: (Units=1/GPa)
#
#
# Indices 1 2 3 4 5 6 
#
# 1 0.010386 -0.000724 0.000096 0.000000 -0.004239 0.000000
# 2 -0.000724 0.006306 -0.002579 0.000000 0.000026 0.000000
# 3 0.000096 -0.002579 0.005568 0.000000 -0.001411 0.000000
# 4 0.000000 0.000000 0.000000 0.019407 0.000000 -0.011920
# 5 -0.004239 0.000026 -0.001411 0.000000 0.041258 0.000000
# 6 0.000000 0.000000 0.000000 -0.011920 0.000000 0.057219
#
#
# Mechanical properties :
#
#
# Convention : Reuss Voigt Hill
#
# Bulk Modulus (GPa) = 63.10880 83.88738 73.49809
# Shear Modulus (GPa) = 32.92914 48.21357 40.57135
#
# Velocity S-wave (km/s) = 3.49224 4.22570 3.87636
# Velocity P-wave (km/s) = 6.29557 7.40794 6.87429
#
# Compressibility (1/GPa) = 0.01584565
#
# Stress axis : x y z
#
# Youngs Moduli (GPa) = 96.28353 158.56948 179.58649
#
# Poissons Ratio (x) = 0.11481 -0.01719
# Poissons Ratio (y) = 0.06971 0.46320
# Poissons Ratio (z) = -0.00922 0.40899
#
# Static dielectric constant tensor:
#      x y z
#    x 2.554400 0.000000 -0.073120 
#    y 0.000000 1.841140 0.000000 
#    z -0.073120 0.000000 2.254620 
# 
# From -- ./inp_files/295473.got.cif
#   From: 2010.05.17/outbox.cif.g08.bks.cpg/sg15_148_cif.got.tgz:295473.got - 2010.06.03 18:47:42.
