data_PCOD9277020
_publ_section_title
;
Structure prediction by ZEFSAII (Michael W. Deem and Ramdas Pophale) SiO2 
 PCOD9277020
Probable space group: C 2/C
;
_chemical_formula_sum "Si O2"
_cell_formula_units_Z 64
_cell_length_a 23.636694
_cell_length_b 8.444055
_cell_length_c 30.525517
_cell_angle_alpha 90.000000
_cell_angle_beta 27.821301
_cell_angle_gamma 90.000000
_cell_volume 2843.498555
_symmetry_space_group_name_H-M "C 2/C"
_symmetry_group_IT_number 15
_symmetry_cell_setting 'monoclinic'
loop_
_space_group_symop_operation_xyz
x,y,z
-x,y,1/2-z
-x,-y,-z
x,-y,1/2+z
1/2+x,1/2+y,z
1/2-x,1/2+y,1/2-z
1/2-x,1/2-y,-z
1/2+x,1/2-y,1/2+z
loop_
_atom_site_type_symbol
_atom_site_label
_atom_site_fract_x
_atom_site_fract_y
_atom_site_fract_z
Si Si1 0.835939 0.761405 0.160755
Si Si2 0.110596 0.778599 0.985539
Si Si3 0.661174 0.640075 0.353795
Si Si4 0.556821 0.374402 0.558838
Si Si5 0.801429 0.390374 0.993155
Si Si6 0.806184 0.185604 0.400989
Si Si7 0.135287 0.190611 0.233898
Si Si8 0.488767 0.963664 0.305173
O O1 0.763945 0.720374 0.254196
O O2 0.761271 0.677709 0.173191
O O3 0.975049 0.715369 0.069983
O O4 0.831866 0.949923 0.155200
O O5 0.181016 0.662557 0.969200
O O6 0.097364 0.947471 0.019548
O O7 0.168179 0.808845 0.899014
O O8 0.530719 0.681160 0.421103
O O9 0.674741 0.265261 0.482940
O O10 0.469623 0.366928 0.661262
O O11 0.929127 0.435122 0.883803
O O12 0.750000 0.250000 0.000000
O O13 0.715146 0.542687 0.051324
O O14 0.857407 0.121337 0.319698
O O15 0.896705 0.318455 0.357049
O O16 0.107563 0.376319 0.241809
O O17 0.500000 0.046112 0.250000
#
# Coordination Sequence:
#
# PCOD9277020 Si02
#       8
#     8   8   8   8   8   8   8   8
#     4  10  22  40  67  95 134 164 214 262 316 389
#     4  11  24  41  63  93 139 167 205 264 337 378
#     4  10  22  40  64  97 127 172 210 259 323 381
#     4  10  20  40  67  91 128 172 217 257 311 398
#     4  12  27  43  63  98 131 168 212 274 337 374
#     4  11  22  42  71  91 126 169 223 268 312 394
#     4  10  21  38  70  97 118 168 223 259 314 375
#     4  10  23  44  68  94 122 170 223 268 317 390
#
# _framework density 22.507484999999999
#
# number of rings (size 3 to 8) (size 9 to 14) (size 15 to 20)
#    0.000    1.500    1.250    4.125    3.500    4.000 
#    2.250    1.875    0.000    0.000    0.000    0.000 
#    0.000    0.000    0.000    0.000    0.000    0.000 
#
# Total GULP energy -179077.206982 kJ/mol
# GULP energy per Si atom -5596.162718 kJ/mol
# Density = 2.245626 g / cm^3
# Si number density = 22.507485 Si / 1000 Ang^3
#
#
#
# Elastic Constant Matrix: (Units=GPa)
#
#
# Indices 1 2 3 4 5 6 
#
# 1 80.0432 5.6283 13.8132 -0.0012 17.4371 -0.0050
# 2 5.6283 15.7602 1.6655 0.0055 4.8203 -0.0031
# 3 13.8132 1.6655 47.0234 0.0028 18.2769 0.0112
# 4 -0.0012 0.0055 0.0028 11.1379 -0.0022 -5.9481
# 5 17.4371 4.8203 18.2769 -0.0022 38.7531 0.0021
# 6 -0.0050 -0.0031 0.0112 -5.9481 0.0021 19.6377
#
#
#
# Elastic Compliance Matrix: (Units=1/GPa)
#
#
# Indices 1 2 3 4 5 6 
#
# 1 0.014174 -0.003319 -0.002115 0.000006 -0.004967 0.000007
# 2 -0.003319 0.066779 0.001540 -0.000036 -0.007539 -0.000001
# 3 -0.002115 0.001540 0.026372 -0.000021 -0.011677 -0.000020
# 4 0.000006 -0.000036 -0.000021 0.107110 0.000016 0.032443
# 5 -0.004967 -0.007539 -0.011677 0.000016 0.034484 0.000005
# 6 0.000007 -0.000001 -0.000020 0.032443 0.000005 0.060749
#
#
# Mechanical properties :
#
#
# Convention : Reuss Voigt Hill
#
# Bulk Modulus (GPa) = 10.04663 20.56010 15.30337
# Shear Modulus (GPa) = 14.25984 22.02040 18.14012
#
# Velocity S-wave (km/s) = 2.51979 3.13127 2.84202
# Velocity P-wave (km/s) = 3.59711 4.71463 4.19326
#
# Compressibility (1/GPa) = 0.09953589
#
# Stress axis : x y z
#
# Youngs Moduli (GPa) = 70.55298 14.97469 37.91968
#
# Poissons Ratio (x) = 0.04970 0.08022
# Poissons Ratio (y) = 0.23417 -0.05840
# Poissons Ratio (z) = 0.14925 -0.02306
#
# Static dielectric constant tensor:
#      x y z
#    x 1.846460 0.000000 0.004950 
#    y 0.000000 1.815040 0.000000 
#    z 0.004950 0.000000 1.860670 
# 
# From -- ./inp_files/318625.got.cif
#   From: 2010.05.17/outbox.cif.g08.bks.cpg/sg15_160_cif.got.tgz:318625.got - 2010.06.03 18:47:42.
