data_PCOD9277379
_publ_section_title
;
Structure prediction by ZEFSAII (Michael W. Deem and Ramdas Pophale) SiO2 
 PCOD9277379
Probable space group: C 2/C
;
_chemical_formula_sum "Si O2"
_cell_formula_units_Z 52
_cell_length_a 10.630617
_cell_length_b 26.970363
_cell_length_c 9.696692
_cell_angle_alpha 90.000000
_cell_angle_beta 107.654370
_cell_angle_gamma 90.000000
_cell_volume 2649.218015
_symmetry_space_group_name_H-M "C 2/C"
_symmetry_group_IT_number 15
_symmetry_cell_setting 'monoclinic'
loop_
_space_group_symop_operation_xyz
x,y,z
-x,y,1/2-z
-x,-y,-z
x,-y,1/2+z
1/2+x,1/2+y,z
1/2-x,1/2+y,1/2-z
1/2-x,1/2-y,-z
1/2+x,1/2-y,1/2+z
loop_
_atom_site_type_symbol
_atom_site_label
_atom_site_fract_x
_atom_site_fract_y
_atom_site_fract_z
Si Si1 0.000000 0.538792 0.250000
Si Si2 0.212891 0.805632 0.539250
Si Si3 0.677633 0.054278 0.793119
Si Si4 0.901338 0.198545 0.986788
Si Si5 0.463888 0.097704 0.516467
Si Si6 0.846249 0.873477 0.230120
Si Si7 0.818982 0.307455 0.869500
O O1 0.123949 0.501380 0.271490
O O2 0.995350 0.570883 0.110801
O O3 0.250000 0.750000 0.500000
O O4 0.225715 0.846353 0.422023
O O5 0.301569 0.816895 0.701731
O O6 0.058998 0.807802 0.535242
O O7 0.580307 0.087856 0.664317
O O8 0.811580 0.070860 0.766227
O O9 0.658473 0.071165 0.944573
O O10 0.829056 0.161001 0.858199
O O11 0.874236 0.253158 0.918665
O O12 0.825090 0.191682 0.105271
O O13 0.417159 0.152764 0.469063
O O14 0.000000 0.870824 0.250000
#
# Coordination Sequence:
#
# PCOD9277379 Si02
#       7
#     4   8   8   8   8   8   8
#     4  10  22  40  64  94 118 144 196 266 306 352
#     4  11  23  36  54  81 119 160 200 246 283 341
#     4  10  20  41  61  86 119 150 194 246 309 358
#     4  10  22  39  55  81 121 161 201 237 289 351
#     4  10  22  36  63  91 116 149 192 252 307 357
#     4  10  21  39  59  82 118 162 199 236 293 358
#     4  11  22  37  58  85 117 158 199 246 294 355
#
# _framework density 19.628433000000001
#
# number of rings (size 3 to 8) (size 9 to 14) (size 15 to 20)
#    0.000    1.846    3.077    2.308    4.308    0.000 
#    2.769    0.000    0.000    5.538    0.000    0.000 
#    0.000    0.000    0.000    0.000    0.000    0.000 
#
# Total GULP energy -144954.567662 kJ/mol
# GULP energy per Si atom -5575.175679 kJ/mol
# Density = 1.958376 g / cm^3
# Si number density = 19.628433 Si / 1000 Ang^3
#
#
#
# Elastic Constant Matrix: (Units=GPa)
#
#
# Indices 1 2 3 4 5 6 
#
# 1 24.6612 18.6710 13.3014 0.0000 -9.7562 0.0000
# 2 18.6710 59.7137 7.3169 0.0000 -6.9894 0.0000
# 3 13.3014 7.3169 97.6981 0.0000 -16.2535 0.0000
# 4 0.0000 0.0000 0.0000 60.4642 0.0000 21.1479
# 5 -9.7562 -6.9894 -16.2535 0.0000 19.8526 0.0000
# 6 0.0000 0.0000 0.0000 21.1479 0.0000 62.8584
#
#
#
# Elastic Compliance Matrix: (Units=1/GPa)
#
#
# Indices 1 2 3 4 5 6 
#
# 1 0.064397 -0.017034 -0.003733 0.000000 0.022594 0.000000
# 2 -0.017034 0.021981 0.000657 0.000000 -0.000094 0.000000
# 3 -0.003733 0.000657 0.012072 0.000000 0.008280 0.000000
# 4 0.000000 0.000000 0.000000 0.018744 0.000000 -0.006306
# 5 0.022594 -0.000094 0.008280 0.000000 0.068221 0.000000
# 6 0.000000 0.000000 0.000000 -0.006306 0.000000 0.018030
#
#
# Mechanical properties :
#
#
# Convention : Reuss Voigt Hill
#
# Bulk Modulus (GPa) = 17.17274 28.96129 23.06701
# Shear Modulus (GPa) = 19.00594 38.15395 28.57995
#
# Velocity S-wave (km/s) = 3.11511 4.41365 3.81996
# Velocity P-wave (km/s) = 4.65901 6.38440 5.58869
#
# Compressibility (1/GPa) = 0.05823183
#
# Stress axis : x y z
#
# Youngs Moduli (GPa) = 15.52857 45.49382 82.83477
#
# Poissons Ratio (x) = 0.77492 0.30923
# Poissons Ratio (y) = 0.26451 -0.05444
# Poissons Ratio (z) = 0.05797 -0.02990
#
# Static dielectric constant tensor:
#      x y z
#    x 1.710290 0.000000 -0.005370 
#    y 0.000000 1.669190 0.000000 
#    z -0.005370 0.000000 1.683650 
# 
# From -- ./inp_files/33744.got.cif
#   From: 2010.05.17/outbox.cif.g08.bks.cpg/sg15_17_cif.got.tgz:33744.got - 2010.06.03 18:47:42.
