data_PCOD9277102
_publ_section_title
;
Structure prediction by ZEFSAII (Michael W. Deem and Ramdas Pophale) SiO2 
 PCOD9277102
Probable space group: C 2/C
;
_chemical_formula_sum "Si O2"
_cell_formula_units_Z 52
_cell_length_a 8.488438
_cell_length_b 16.581719
_cell_length_c 24.327873
_cell_angle_alpha 90.000000
_cell_angle_beta 50.404271
_cell_angle_gamma 90.000000
_cell_volume 2638.568413
_symmetry_space_group_name_H-M "C 2/C"
_symmetry_group_IT_number 15
_symmetry_cell_setting 'monoclinic'
loop_
_space_group_symop_operation_xyz
x,y,z
-x,y,1/2-z
-x,-y,-z
x,-y,1/2+z
1/2+x,1/2+y,z
1/2-x,1/2+y,1/2-z
1/2-x,1/2-y,-z
1/2+x,1/2-y,1/2+z
loop_
_atom_site_type_symbol
_atom_site_label
_atom_site_fract_x
_atom_site_fract_y
_atom_site_fract_z
Si Si1 0.322992 0.306017 0.834720
Si Si2 0.668185 0.463822 0.068449
Si Si3 0.500000 0.204404 0.250000
Si Si4 0.143635 0.476805 0.270846
Si Si5 0.965309 0.545292 0.093195
Si Si6 0.894902 0.899619 0.655913
Si Si7 0.117665 0.172511 0.820039
O O1 0.500000 0.316359 0.750000
O O2 0.137340 0.368837 0.870424
O O3 0.438107 0.332789 0.864495
O O4 0.235846 0.217378 0.843182
O O5 0.809883 0.500767 0.085605
O O6 0.499862 0.533749 0.093587
O O7 0.558699 0.383769 0.115475
O O8 0.818041 0.447150 0.984649
O O9 0.310715 0.148703 0.311101
O O10 0.445054 0.259893 0.210098
O O11 0.028538 0.494974 0.352289
O O12 0.325816 0.542138 0.222201
O O13 0.238196 0.388633 0.245464
O O14 0.000000 0.485920 0.250000
#
# Coordination Sequence:
#
# PCOD9277102 Si02
#       7
#     8   8   4   8   8   8   8
#     4  11  19  36  61  89 120 156 198 251 307 353
#     4   9  22  41  62  90 122 161 202 251 296 371
#     4  12  20  34  62  88 122 158 202 258 298 360
#     4  11  21  36  61  90 114 152 206 256 281 352
#     4  10  20  40  68  86 120 166 205 239 309 363
#     4  10  21  37  61  87 117 160 207 244 299 358
#     4  11  23  35  59  94 122 152 199 258 305 348
#
# _framework density 19.707656
#
# number of rings (size 3 to 8) (size 9 to 14) (size 15 to 20)
#    0.000    1.538    3.846    1.385    0.000    0.615 
#    0.000    3.077    6.769    3.692    0.000    0.000 
#    0.000    0.000    0.000    0.000    0.000    0.000 
#
# Total GULP energy -145056.406437 kJ/mol
# GULP energy per Si atom -5579.092555 kJ/mol
# Density = 1.966280 g / cm^3
# Si number density = 19.707656 Si / 1000 Ang^3
#
#
#
# Elastic Constant Matrix: (Units=GPa)
#
#
# Indices 1 2 3 4 5 6 
#
# 1 58.7027 40.2297 29.2975 -0.0003 -14.2281 -0.0001
# 2 40.2297 107.8637 45.6829 -0.0005 -15.8142 0.0002
# 3 29.2975 45.6829 145.0294 -0.0009 -18.8130 0.0002
# 4 -0.0003 -0.0005 -0.0009 19.4994 0.0004 -11.0569
# 5 -14.2281 -15.8142 -18.8130 0.0004 25.2945 0.0000
# 6 -0.0001 0.0002 0.0002 -11.0569 0.0000 37.2631
#
#
#
# Elastic Compliance Matrix: (Units=1/GPa)
#
#
# Indices 1 2 3 4 5 6 
#
# 1 0.024901 -0.007395 -0.001642 0.000000 0.008162 0.000000
# 2 -0.007395 0.013408 -0.002415 0.000000 0.002427 0.000000
# 3 -0.001642 -0.002415 0.008491 0.000000 0.003882 0.000000
# 4 0.000000 0.000000 0.000000 0.061658 -0.000001 0.018295
# 5 0.008162 0.002427 0.003882 -0.000001 0.048530 0.000000
# 6 0.000000 0.000000 0.000000 0.018295 0.000000 0.032265
#
#
# Mechanical properties :
#
#
# Convention : Reuss Voigt Hill
#
# Bulk Modulus (GPa) = 41.84838 60.22401 51.03620
# Shear Modulus (GPa) = 22.71487 29.50379 26.10933
#
# Velocity S-wave (km/s) = 3.39867 3.87340 3.64377
# Velocity P-wave (km/s) = 6.05656 7.11543 6.60724
#
# Compressibility (1/GPa) = 0.02389579
#
# Stress axis : x y z
#
# Youngs Moduli (GPa) = 40.15956 74.58510 117.77171
#
# Poissons Ratio (x) = 0.55156 0.19339
# Poissons Ratio (y) = 0.29698 0.28436
# Poissons Ratio (z) = 0.06595 0.18009
#
# Static dielectric constant tensor:
#      x y z
#    x 1.761870 0.000000 -0.018710 
#    y 0.000000 1.704100 0.000000 
#    z -0.018710 0.000000 1.679020 
# 
# From -- ./inp_files/288598.got.cif
#   From: 2010.05.17/outbox.cif.g08.bks.cpg/sg15_145_cif.got.tgz:288598.got - 2010.06.03 18:47:42.
