data_PCOD9277691
_publ_section_title
;
Structure prediction by ZEFSAII (Michael W. Deem and Ramdas Pophale) SiO2 
 PCOD9277691
Probable space group: C 2/C
;
_chemical_formula_sum "Si O2"
_cell_formula_units_Z 56
_cell_length_a 17.149707
_cell_length_b 11.623209
_cell_length_c 15.473482
_cell_angle_alpha 90.000000
_cell_angle_beta 126.250870
_cell_angle_gamma 90.000000
_cell_volume 2487.370680
_symmetry_space_group_name_H-M "C 2/C"
_symmetry_group_IT_number 15
_symmetry_cell_setting 'monoclinic'
loop_
_space_group_symop_operation_xyz
x,y,z
-x,y,1/2-z
-x,-y,-z
x,-y,1/2+z
1/2+x,1/2+y,z
1/2-x,1/2+y,1/2-z
1/2-x,1/2-y,-z
1/2+x,1/2-y,1/2+z
loop_
_atom_site_type_symbol
_atom_site_label
_atom_site_fract_x
_atom_site_fract_y
_atom_site_fract_z
Si Si1 0.943658 0.919679 0.032060
Si Si2 0.330970 0.235355 0.408422
Si Si3 0.884004 0.164327 0.756111
Si Si4 0.791880 0.509380 0.905488
Si Si5 0.757969 0.454243 0.076353
Si Si6 0.421161 0.083986 0.263346
Si Si7 0.030532 0.334585 0.007547
O O1 0.926938 0.791043 0.985135
O O2 0.014061 0.897967 0.159812
O O3 0.843205 0.978685 0.986866
O O4 0.000000 0.000000 0.000000
O O5 0.349496 0.303301 0.331343
O O6 0.271112 0.321648 0.428567
O O7 0.439118 0.194359 0.510097
O O8 0.277449 0.116099 0.354852
O O9 0.803914 0.084002 0.664115
O O10 0.891801 0.286717 0.713276
O O11 0.807283 0.482388 0.017098
O O12 0.880631 0.579490 0.921279
O O13 0.828447 0.502900 0.196745
O O14 0.500000 0.034912 0.250000
O O15 0.474919 0.111142 0.388203
#
# Coordination Sequence:
#
# PCOD9277691 Si02
#       7
#     8   8   8   8   8   8   8
#     4  10  20  41  67  94 127 173 217 269 336 392
#     4  10  24  45  60  93 136 175 218 271 322 406
#     4  10  25  39  67  91 129 166 224 271 320 392
#     4  12  25  40  67 101 126 176 223 269 333 398
#     4  12  23  41  71  92 137 173 211 281 343 386
#     4  10  21  40  64  96 129 163 217 279 330 388
#     4  10  22  41  66  95 128 173 222 272 322 400
#
# _framework density 22.513733999999999
#
# number of rings (size 3 to 8) (size 9 to 14) (size 15 to 20)
#    0.000    1.714    4.286    1.714    8.000    2.286 
#    0.000    0.000    0.000    0.000    0.000    0.000 
#    0.000    0.000    0.000    0.000    0.000    0.000 
#
# Total GULP energy -156402.431791 kJ/mol
# GULP energy per Si atom -5585.801135 kJ/mol
# Density = 2.246249 g / cm^3
# Si number density = 22.513734 Si / 1000 Ang^3
#
#
#
# Elastic Constant Matrix: (Units=GPa)
#
#
# Indices 1 2 3 4 5 6 
#
# 1 73.6161 51.2545 29.7795 0.0000 16.4305 0.0000
# 2 51.2545 156.9850 46.8133 0.0000 24.1753 0.0000
# 3 29.7795 46.8133 70.7627 0.0000 15.3850 0.0000
# 4 0.0000 0.0000 0.0000 18.4316 0.0000 0.7220
# 5 16.4305 24.1753 15.3850 0.0000 34.4307 0.0000
# 6 0.0000 0.0000 0.0000 0.7220 0.0000 31.8923
#
#
#
# Elastic Compliance Matrix: (Units=1/GPa)
#
#
# Indices 1 2 3 4 5 6 
#
# 1 0.019315 -0.004368 -0.004322 0.000000 -0.004219 0.000000
# 2 -0.004368 0.009341 -0.003731 0.000000 -0.002807 0.000000
# 3 -0.004322 -0.003731 0.019273 0.000000 -0.003930 0.000000
# 4 0.000000 0.000000 0.000000 0.054303 0.000000 -0.001229
# 5 -0.004219 -0.002807 -0.003930 0.000000 0.034784 0.000000
# 6 0.000000 0.000000 0.000000 -0.001229 0.000000 0.031383
#
#
# Mechanical properties :
#
#
# Convention : Reuss Voigt Hill
#
# Bulk Modulus (GPa) = 43.31213 61.89538 52.60376
# Shear Modulus (GPa) = 24.88347 28.51869 26.70108
#
# Velocity S-wave (km/s) = 3.32815 3.56297 3.44756
# Velocity P-wave (km/s) = 5.83512 6.66920 6.26606
#
# Compressibility (1/GPa) = 0.02308822
#
# Stress axis : x y z
#
# Youngs Moduli (GPa) = 51.77358 107.05498 51.88555
#
# Poissons Ratio (x) = 0.46758 0.22423
# Poissons Ratio (y) = 0.22613 0.19359
# Poissons Ratio (z) = 0.22374 0.39944
#
# Static dielectric constant tensor:
#      x y z
#    x 1.916980 0.000000 -0.055740 
#    y 0.000000 1.851980 0.000000 
#    z -0.055740 0.000000 1.859470 
# 
# From -- ./inp_files/210682.got.cif
#   From: 2010.05.17/outbox.cif.g08.bks.cpg/sg15_106_cif.got.tgz:210682.got - 2010.06.03 18:47:42.
