data_PCOD9277043
_publ_section_title
;
Structure prediction by ZEFSAII (Michael W. Deem and Ramdas Pophale) SiO2 
 PCOD9277043
Probable space group: C 2/C
;
_chemical_formula_sum "Si O2"
_cell_formula_units_Z 40
_cell_length_a 24.901514
_cell_length_b 5.643614
_cell_length_c 14.437851
_cell_angle_alpha 90.000000
_cell_angle_beta 115.701089
_cell_angle_gamma 90.000000
_cell_volume 1828.283553
_symmetry_space_group_name_H-M "C 2/C"
_symmetry_group_IT_number 15
_symmetry_cell_setting 'monoclinic'
loop_
_space_group_symop_operation_xyz
x,y,z
-x,y,1/2-z
-x,-y,-z
x,-y,1/2+z
1/2+x,1/2+y,z
1/2-x,1/2+y,1/2-z
1/2-x,1/2-y,-z
1/2+x,1/2-y,1/2+z
loop_
_atom_site_type_symbol
_atom_site_label
_atom_site_fract_x
_atom_site_fract_y
_atom_site_fract_z
Si Si1 0.016533 0.750697 0.563476
Si Si2 0.143843 0.583210 0.630794
Si Si3 0.687465 0.021779 0.359238
Si Si4 0.691217 0.596625 0.015791
Si Si5 0.902964 0.268204 0.073236
O O1 0.087664 0.737030 0.625973
O O2 0.000000 0.500000 0.500000
O O3 0.974151 0.741200 0.622286
O O4 0.000000 0.000000 0.500000
O O5 0.172792 0.461533 0.741031
O O6 0.189471 0.738389 0.605081
O O7 0.118067 0.404018 0.535310
O O8 0.695662 0.265574 0.421868
O O9 0.754099 0.917472 0.425089
O O10 0.633325 0.887865 0.370164
O O11 0.625712 0.487553 0.960215
#
# Coordination Sequence:
#
# PCOD9277043 Si02
#       5
#     8   8   8   8   8
#     4  10  20  40  67  94 129 170 220 274 334 396
#     4  10  22  38  63  94 122 173 223 269 341 405
#     4  10  23  38  59  95 127 165 226 274 332 406
#     4  10  21  40  60  88 132 169 213 282 337 396
#     4  10  21  39  63  86 129 169 212 278 337 393
#
# _framework density 21.878446
#
# number of rings (size 3 to 8) (size 9 to 14) (size 15 to 20)
#    0.000    2.000    2.000    0.600    2.800    2.400 
#    0.000    0.000    0.000    0.000    0.000    0.000 
#    0.000    0.000    0.000    0.000    0.000    0.000 
#
# Total GULP energy -111364.326874 kJ/mol
# GULP energy per Si atom -5568.216344 kJ/mol
# Density = 2.182865 g / cm^3
# Si number density = 21.878446 Si / 1000 Ang^3
#
#
#
# Elastic Constant Matrix: (Units=GPa)
#
#
# Indices 1 2 3 4 5 6 
#
# 1 129.9313 9.7703 28.5459 0.0000 -10.3614 0.0000
# 2 9.7703 51.2462 20.5216 0.0000 -4.3479 0.0000
# 3 28.5459 20.5216 102.9521 0.0000 -24.4592 0.0000
# 4 0.0000 0.0000 0.0000 7.3746 0.0000 5.8847
# 5 -10.3614 -4.3479 -24.4592 0.0000 24.7247 0.0000
# 6 0.0000 0.0000 0.0000 5.8847 0.0000 24.0279
#
#
#
# Elastic Compliance Matrix: (Units=1/GPa)
#
#
# Indices 1 2 3 4 5 6 
#
# 1 0.008267 -0.000733 -0.001769 0.000000 0.001585 0.000000
# 2 -0.000733 0.021278 -0.004212 0.000000 -0.000732 0.000000
# 3 -0.001769 -0.004212 0.013976 0.000000 0.012344 0.000000
# 4 0.000000 0.000000 0.000000 0.168537 0.000000 -0.041277
# 5 0.001585 -0.000732 0.012344 0.000000 0.053192 0.000000
# 6 0.000000 0.000000 0.000000 -0.041277 0.000000 0.051727
#
#
# Mechanical properties :
#
#
# Convention : Reuss Voigt Hill
#
# Bulk Modulus (GPa) = 33.23192 44.64504 38.93848
# Shear Modulus (GPa) = 14.68702 26.24490 20.46596
#
# Velocity S-wave (km/s) = 2.59376 3.46725 3.06181
# Velocity P-wave (km/s) = 4.91858 6.03981 5.50780
#
# Compressibility (1/GPa) = 0.03009155
#
# Stress axis : x y z
#
# Youngs Moduli (GPa) = 120.96815 46.99689 71.55070
#
# Poissons Ratio (x) = 0.03445 0.12661
# Poissons Ratio (y) = 0.08867 0.30138
# Poissons Ratio (z) = 0.21405 0.19796
#
# Static dielectric constant tensor:
#      x y z
#    x 1.978860 0.000000 0.030480 
#    y 0.000000 1.926060 0.000000 
#    z 0.030480 0.000000 1.768960 
# 
# From -- ./inp_files/120893.got.cif
#   From: 2010.05.17/outbox.cif.g08.bks.cpg/sg15_61_cif.got.tgz:120893.got - 2010.06.03 18:47:42.
