data_PCOD9277114
_publ_section_title
;
Structure prediction by ZEFSAII (Michael W. Deem and Ramdas Pophale) SiO2 
 PCOD9277114
Probable space group: C 2/C
;
_chemical_formula_sum "Si O2"
_cell_formula_units_Z 40
_cell_length_a 20.676060
_cell_length_b 11.595212
_cell_length_c 6.828912
_cell_angle_alpha 90.000000
_cell_angle_beta 70.003229
_cell_angle_gamma 90.000000
_cell_volume 1538.483056
_symmetry_space_group_name_H-M "C 2/C"
_symmetry_group_IT_number 15
_symmetry_cell_setting 'monoclinic'
loop_
_space_group_symop_operation_xyz
x,y,z
-x,y,1/2-z
-x,-y,-z
x,-y,1/2+z
1/2+x,1/2+y,z
1/2-x,1/2+y,1/2-z
1/2-x,1/2-y,-z
1/2+x,1/2-y,1/2+z
loop_
_atom_site_type_symbol
_atom_site_label
_atom_site_fract_x
_atom_site_fract_y
_atom_site_fract_z
Si Si1 0.540646 0.115758 0.397547
Si Si2 0.185044 0.117553 0.673285
Si Si3 0.196261 0.367050 0.768936
Si Si4 0.500000 0.698314 0.250000
Si Si5 0.250000 0.250000 0.000000
Si Si6 0.626677 0.375513 0.852549
O O1 0.500000 0.157106 0.250000
O O2 0.621499 0.091849 0.290082
O O3 0.537202 0.215097 0.562552
O O4 0.500000 0.000000 0.500000
O O5 0.200527 0.223065 0.805290
O O6 0.251202 0.115755 0.462481
O O7 0.124890 0.153592 0.584782
O O8 0.159510 0.004035 0.806363
O O9 0.219994 0.385563 0.965535
O O10 0.444605 0.625855 0.187293
O O11 0.177236 0.216979 0.202965
#
# Coordination Sequence:
#
# PCOD9277114 Si02
#       6
#     8   8   8   4   4   8
#     4  12  26  46  72 102 142 189 232 289 362 426
#     4  10  23  42  68 100 131 182 232 286 348 403
#     4  10  22  44  69 100 134 179 235 293 339 421
#     4  12  26  46  68 102 142 184 230 288 352 422
#     4  10  20  40  68  90 132 172 230 288 332 408
#     4  11  23  40  66  99 135 180 225 285 347 412
#
# _framework density 25.999637
#
# number of rings (size 3 to 8) (size 9 to 14) (size 15 to 20)
#    0.000    1.200    3.000    2.400    0.000    5.600 
#    1.800    0.000    0.000    0.000    0.000    0.000 
#    0.000    0.000    0.000    0.000    0.000    0.000 
#
# Total GULP energy -111565.875571 kJ/mol
# GULP energy per Si atom -5578.293779 kJ/mol
# Density = 2.594046 g / cm^3
# Si number density = 25.999637 Si / 1000 Ang^3
#
#
#
# Elastic Constant Matrix: (Units=GPa)
#
#
# Indices 1 2 3 4 5 6 
#
# 1 191.2164 23.3688 10.8242 0.0000 11.0185 0.0000
# 2 23.3688 116.6282 15.3960 0.0000 0.9892 0.0000
# 3 10.8242 15.3960 77.7431 0.0000 21.0448 0.0000
# 4 0.0000 0.0000 0.0000 26.3570 0.0000 3.9121
# 5 11.0185 0.9892 21.0448 0.0000 40.8571 0.0000
# 6 0.0000 0.0000 0.0000 3.9121 0.0000 32.2938
#
#
#
# Elastic Compliance Matrix: (Units=1/GPa)
#
#
# Indices 1 2 3 4 5 6 
#
# 1 0.005447 -0.001056 -0.000184 0.000000 -0.001348 0.000000
# 2 -0.001056 0.009031 -0.001928 0.000000 0.001059 0.000000
# 3 -0.000184 -0.001928 0.015390 0.000000 -0.007831 0.000000
# 4 0.000000 0.000000 0.000000 0.038635 0.000000 -0.004680
# 5 -0.001348 0.001059 -0.007831 0.000000 0.028847 0.000000
# 6 0.000000 0.000000 0.000000 -0.004680 0.000000 0.031533
#
#
# Mechanical properties :
#
#
# Convention : Reuss Voigt Hill
#
# Bulk Modulus (GPa) = 42.49547 53.86286 48.17916
# Shear Modulus (GPa) = 34.94947 42.30151 38.62549
#
# Velocity S-wave (km/s) = 3.67035 4.03799 3.85855
# Velocity P-wave (km/s) = 5.86021 6.51937 6.19856
#
# Compressibility (1/GPa) = 0.02353192
#
# Stress axis : x y z
#
# Youngs Moduli (GPa) = 183.59341 110.72561 64.97650
#
# Poissons Ratio (x) = 0.11688 0.01197
# Poissons Ratio (y) = 0.19380 0.12529
# Poissons Ratio (z) = 0.03384 0.21351
#
# Static dielectric constant tensor:
#      x y z
#    x 2.345220 0.000000 0.118020 
#    y 0.000000 2.211310 0.000000 
#    z 0.118020 0.000000 2.369440 
# 
# From -- ./inp_files/46136.got.cif
#   From: 2010.05.17/outbox.cif.g08.bks.cpg/sg15_24_cif.got.tgz:46136.got - 2010.06.03 18:47:42.
