data_PCOD9277493
_publ_section_title
;
Structure prediction by ZEFSAII (Michael W. Deem and Ramdas Pophale) SiO2 
 PCOD9277493
Probable space group: C 2/C
;
_chemical_formula_sum "Si O2"
_cell_formula_units_Z 60
_cell_length_a 14.784626
_cell_length_b 14.452926
_cell_length_c 12.163432
_cell_angle_alpha 90.000000
_cell_angle_beta 83.266006
_cell_angle_gamma 90.000000
_cell_volume 2581.165094
_symmetry_space_group_name_H-M "C 2/C"
_symmetry_group_IT_number 15
_symmetry_cell_setting 'monoclinic'
loop_
_space_group_symop_operation_xyz
x,y,z
-x,y,1/2-z
-x,-y,-z
x,-y,1/2+z
1/2+x,1/2+y,z
1/2-x,1/2+y,1/2-z
1/2-x,1/2-y,-z
1/2+x,1/2-y,1/2+z
loop_
_atom_site_type_symbol
_atom_site_label
_atom_site_fract_x
_atom_site_fract_y
_atom_site_fract_z
Si Si1 0.676366 0.982333 0.789557
Si Si2 0.696585 0.833316 0.406300
Si Si3 0.648464 0.518774 0.880422
Si Si4 0.895191 0.616674 0.010187
Si Si5 0.000000 0.067971 0.250000
Si Si6 0.582541 0.926408 0.605267
Si Si7 0.921810 0.177405 0.473104
Si Si8 0.378086 0.338658 0.485840
O O1 0.657657 0.088031 0.831476
O O2 0.761780 0.993825 0.698944
O O3 0.684533 0.921065 0.898476
O O4 0.601745 0.926546 0.730507
O O5 0.661691 0.871667 0.529427
O O6 0.656569 0.730349 0.411424
O O7 0.806321 0.827256 0.396264
O O8 0.568579 0.498328 0.805402
O O9 0.644995 0.616082 0.942488
O O10 0.632266 0.444034 0.977850
O O11 0.885746 0.718745 0.965239
O O12 0.990316 0.609744 0.064201
O O13 0.908181 0.535693 0.920638
O O14 0.950468 0.130098 0.352341
O O15 0.015106 0.180879 0.533201
#
# Coordination Sequence:
#
# PCOD9277493 Si02
#       8
#     8   8   8   8   4   8   8   8
#     4  11  24  40  65  99 132 176 222 276 350 395
#     4  10  21  37  67  93 127 174 221 277 326 401
#     4  11  25  41  64  95 138 175 224 276 335 406
#     4  10  23  43  67  98 136 172 228 282 341 406
#     4  10  24  44  68  96 130 190 222 272 352 400
#     4  10  20  43  65  95 133 172 218 283 337 405
#     4  11  24  44  67 100 136 180 227 286 334 411
#     4  10  20  41  64  88 129 171 223 271 327 390
#
# _framework density 23.245318000000001
#
# number of rings (size 3 to 8) (size 9 to 14) (size 15 to 20)
#    0.000    1.600    2.667    2.000    3.733    3.200 
#    2.400    1.333    0.000    0.000    0.000    0.000 
#    0.000    0.000    0.000    0.000    0.000    0.000 
#
# Total GULP energy -167437.010118 kJ/mol
# GULP energy per Si atom -5581.233671 kJ/mol
# Density = 2.319241 g / cm^3
# Si number density = 23.245318 Si / 1000 Ang^3
#
#
#
# Elastic Constant Matrix: (Units=GPa)
#
#
# Indices 1 2 3 4 5 6 
#
# 1 49.9032 -11.8761 2.9937 0.0000 -1.6031 0.0000
# 2 -11.8761 118.2162 11.6216 0.0000 -10.5249 0.0000
# 3 2.9937 11.6216 63.0109 0.0000 -5.7840 0.0000
# 4 0.0000 0.0000 0.0000 12.6563 0.0000 -7.8970
# 5 -1.6031 -10.5249 -5.7840 0.0000 30.1935 0.0000
# 6 0.0000 0.0000 0.0000 -7.8970 0.0000 20.4363
#
#
#
# Elastic Compliance Matrix: (Units=1/GPa)
#
#
# Indices 1 2 3 4 5 6 
#
# 1 0.020729 0.002356 -0.001265 0.000000 0.001680 0.000000
# 2 0.002356 0.009113 -0.001516 0.000000 0.003011 0.000000
# 3 -0.001265 -0.001516 0.016445 0.000000 0.002554 0.000000
# 4 0.000000 0.000000 0.000000 0.104115 0.000000 0.040232
# 5 0.001680 0.003011 0.002554 0.000000 0.034748 0.000000
# 6 0.000000 0.000000 0.000000 0.040232 0.000000 0.064479
#
#
# Mechanical properties :
#
#
# Convention : Reuss Voigt Hill
#
# Bulk Modulus (GPa) = 22.00873 26.28986 24.14929
# Shear Modulus (GPa) = 18.82354 27.88329 23.35342
#
# Velocity S-wave (km/s) = 2.84875 3.46717 3.17306
# Velocity P-wave (km/s) = 4.50656 5.23093 4.88220
#
# Compressibility (1/GPa) = 0.04543652
#
# Stress axis : x y z
#
# Youngs Moduli (GPa) = 48.24060 109.73375 60.81050
#
# Poissons Ratio (x) = -0.25858 0.07694
# Poissons Ratio (y) = -0.11368 0.09221
# Poissons Ratio (z) = 0.06104 0.16639
#
# Static dielectric constant tensor:
#      x y z
#    x 2.051150 0.000000 -0.004850 
#    y 0.000000 1.848050 0.000000 
#    z -0.004850 0.000000 1.859140 
# 
# From -- ./inp_files/105335.got.cif
#   From: 2010.05.17/outbox.cif.g08.bks.cpg/sg15_53_cif.got.tgz:105335.got - 2010.06.03 18:47:42.
