data_PCOD9277056
_publ_section_title
;
Structure prediction by ZEFSAII (Michael W. Deem and Ramdas Pophale) SiO2 
 PCOD9277056
Probable space group: C 2/C
;
_chemical_formula_sum "Si O2"
_cell_formula_units_Z 56
_cell_length_a 14.900301
_cell_length_b 9.855140
_cell_length_c 28.646395
_cell_angle_alpha 90.000000
_cell_angle_beta 30.667831
_cell_angle_gamma 90.000000
_cell_volume 2145.601881
_symmetry_space_group_name_H-M "C 2/C"
_symmetry_group_IT_number 15
_symmetry_cell_setting 'monoclinic'
loop_
_space_group_symop_operation_xyz
x,y,z
-x,y,1/2-z
-x,-y,-z
x,-y,1/2+z
1/2+x,1/2+y,z
1/2-x,1/2+y,1/2-z
1/2-x,1/2-y,-z
1/2+x,1/2-y,1/2+z
loop_
_atom_site_type_symbol
_atom_site_label
_atom_site_fract_x
_atom_site_fract_y
_atom_site_fract_z
Si Si1 0.405743 0.032745 0.243252
Si Si2 0.474810 0.530695 0.566010
Si Si3 0.629017 0.794588 0.930282
Si Si4 0.131121 0.990543 0.228940
Si Si5 0.966690 0.625212 0.591484
Si Si6 0.172850 0.602463 0.045023
Si Si7 0.548599 0.251840 0.648179
O O1 0.500000 0.064495 0.250000
O O2 0.516365 0.106725 0.153337
O O3 0.195746 0.050641 0.339743
O O4 0.435292 0.872078 0.220121
O O5 0.500000 0.500000 0.500000
O O6 0.424861 0.690156 0.585323
O O7 0.658784 0.521040 0.510136
O O8 0.730812 0.919531 0.862361
O O9 0.771912 0.737261 0.903194
O O10 0.471889 0.828127 0.035811
O O11 0.027551 0.100079 0.306013
O O12 0.000000 0.925212 0.250000
O O13 0.263116 0.894653 0.197286
O O14 0.050864 0.722809 0.592450
O O15 0.086195 0.488530 0.543028
O O16 0.250000 0.750000 0.000000
#
# Coordination Sequence:
#
# PCOD9277056 Si02
#       7
#     8   8   8   8   8   8   8
#     4  11  19  43  73 101 134 188 247 285 345 437
#     4  12  22  41  75 103 135 190 246 293 351 442
#     4  11  21  41  70  95 130 182 233 278 350 428
#     4  10  21  42  68  89 127 181 223 273 344 430
#     4  11  24  44  64 101 138 173 229 299 354 424
#     4  11  26  45  67 108 153 185 233 311 375 423
#     4  10  20  40  67  96 129 173 233 285 341 417
#
# _framework density 26.099902
#
# number of rings (size 3 to 8) (size 9 to 14) (size 15 to 20)
#    0.000    1.143    4.286    3.000    0.000    0.000 
#   15.429    1.429    0.000    0.000    0.000    0.000 
#    0.000    0.000    0.000    0.000    0.000    0.000 
#
# Total GULP energy -156840.724944 kJ/mol
# GULP energy per Si atom -5601.454462 kJ/mol
# Density = 2.604050 g / cm^3
# Si number density = 26.099902 Si / 1000 Ang^3
#
#
#
# Elastic Constant Matrix: (Units=GPa)
#
#
# Indices 1 2 3 4 5 6 
#
# 1 119.4399 20.5792 33.7550 0.0000 -30.7450 0.0000
# 2 20.5792 74.3411 33.2378 0.0000 -7.5280 0.0000
# 3 33.7550 33.2378 133.7651 0.0003 -16.4020 0.0001
# 4 0.0000 0.0000 0.0003 41.6435 0.0001 -0.4608
# 5 -30.7450 -7.5280 -16.4020 0.0001 57.3076 0.0000
# 6 0.0000 0.0000 0.0001 -0.4608 0.0000 33.7502
#
#
#
# Elastic Compliance Matrix: (Units=1/GPa)
#
#
# Indices 1 2 3 4 5 6 
#
# 1 0.010369 -0.001658 -0.001606 0.000000 0.004886 0.000000
# 2 -0.001658 0.015447 -0.003400 0.000000 0.000167 0.000000
# 3 -0.001606 -0.003400 0.008877 0.000000 0.001233 0.000000
# 4 0.000000 0.000000 0.000000 0.024017 0.000000 0.000328
# 5 0.004886 0.000167 0.001233 0.000000 0.020446 0.000000
# 6 0.000000 0.000000 0.000000 0.000328 0.000000 0.029634
#
#
# Mechanical properties :
#
#
# Convention : Reuss Voigt Hill
#
# Bulk Modulus (GPa) = 46.80005 55.85444 51.32725
# Shear Modulus (GPa) = 38.68814 42.53854 40.61334
#
# Velocity S-wave (km/s) = 3.85425 4.04150 3.94899
# Velocity P-wave (km/s) = 6.14631 6.57457 6.36404
#
# Compressibility (1/GPa) = 0.02136750
#
# Stress axis : x y z
#
# Youngs Moduli (GPa) = 96.43678 64.73653 112.65287
#
# Poissons Ratio (x) = 0.10732 0.18088
# Poissons Ratio (y) = 0.15988 0.38296
# Poissons Ratio (z) = 0.15485 0.22007
#
# Static dielectric constant tensor:
#      x y z
#    x 1.997490 0.000000 -0.001420 
#    y 0.000000 2.214570 0.000000 
#    z -0.001420 0.000000 2.066070 
# 
# From -- ./inp_files/313722.got.cif
#   From: 2010.05.17/outbox.cif.g08.bks.cpg/sg15_157_cif.got.tgz:313722.got - 2010.06.03 18:47:42.
