data_PCOD9277739
_publ_section_title
;
Structure prediction by ZEFSAII (Michael W. Deem and Ramdas Pophale) SiO2 
 PCOD9277739
Probable space group: C 2/C
;
_chemical_formula_sum "Si O2"
_cell_formula_units_Z 40
_cell_length_a 10.519238
_cell_length_b 11.320021
_cell_length_c 25.195910
_cell_angle_alpha 90.000000
_cell_angle_beta 143.585272
_cell_angle_gamma 90.000000
_cell_volume 1781.042593
_symmetry_space_group_name_H-M "C 2/C"
_symmetry_group_IT_number 15
_symmetry_cell_setting 'monoclinic'
loop_
_space_group_symop_operation_xyz
x,y,z
-x,y,1/2-z
-x,-y,-z
x,-y,1/2+z
1/2+x,1/2+y,z
1/2-x,1/2+y,1/2-z
1/2-x,1/2-y,-z
1/2+x,1/2-y,1/2+z
loop_
_atom_site_type_symbol
_atom_site_label
_atom_site_fract_x
_atom_site_fract_y
_atom_site_fract_z
Si Si1 0.053478 0.885120 0.481734
Si Si2 0.071580 0.461211 0.083591
Si Si3 0.795308 0.814398 0.650887
Si Si4 0.716166 0.782404 0.852702
Si Si5 0.891951 0.919395 0.570418
O O1 0.260380 0.825936 0.578533
O O2 0.870712 0.786786 0.420570
O O3 0.069447 0.942151 0.428886
O O4 0.000000 0.000000 0.500000
O O5 0.172905 0.580206 0.141160
O O6 0.241764 0.356909 0.137338
O O7 0.000000 0.500000 0.000000
O O8 0.851808 0.408636 0.034333
O O9 0.882453 0.878038 0.627387
O O10 0.000000 0.765573 0.750000
O O11 0.500000 0.815812 0.750000
O O12 0.921355 0.843808 0.893748
#
# Coordination Sequence:
#
# PCOD9277739 Si02
#       5
#     8   8   8   8   8
#     4  10  23  41  70  98 137 182 232 281 350 424
#     4  10  20  41  68  92 135 184 234 281 356 419
#     4  11  24  46  67 104 144 180 239 297 344 428
#     4  11  22  41  68 103 139 181 244 290 342 432
#     4  10  23  43  72  94 138 192 224 289 367 398
#
# _framework density 22.458756000000001
#
# number of rings (size 3 to 8) (size 9 to 14) (size 15 to 20)
#    0.000    1.600    4.000    1.200    2.800    5.600 
#   10.800    0.000    0.000    0.000    0.000    0.000 
#    0.000    0.000    0.000    0.000    0.000    0.000 
#
# Total GULP energy -111574.947800 kJ/mol
# GULP energy per Si atom -5578.747390 kJ/mol
# Density = 2.240764 g / cm^3
# Si number density = 22.458756 Si / 1000 Ang^3
#
#
#
# Elastic Constant Matrix: (Units=GPa)
#
#
# Indices 1 2 3 4 5 6 
#
# 1 74.0721 33.8460 19.3001 0.0000 4.7891 0.0000
# 2 33.8460 132.7806 69.8875 0.0000 6.5801 0.0000
# 3 19.3001 69.8875 141.4930 0.0000 0.2314 0.0000
# 4 0.0000 0.0000 0.0000 8.0493 0.0000 -6.6993
# 5 4.7891 6.5801 0.2314 0.0000 18.4926 0.0000
# 6 0.0000 0.0000 0.0000 -6.6993 0.0000 19.7069
#
#
#
# Elastic Compliance Matrix: (Units=1/GPa)
#
#
# Indices 1 2 3 4 5 6 
#
# 1 0.015415 -0.003637 -0.000302 0.000000 -0.002694 0.000000
# 2 -0.003637 0.011275 -0.005068 0.000000 -0.003007 0.000000
# 3 -0.000302 -0.005068 0.009609 0.000000 0.001761 0.000000
# 4 0.000000 0.000000 0.000000 0.173254 0.000000 0.058897
# 5 -0.002694 -0.003007 0.001761 0.000000 0.055821 0.000000
# 6 0.000000 0.000000 0.000000 0.058897 0.000000 0.070765
#
#
# Mechanical properties :
#
#
# Convention : Reuss Voigt Hill
#
# Bulk Modulus (GPa) = 54.68870 66.04589 60.36730
# Shear Modulus (GPa) = 13.87934 24.27057 19.07495
#
# Velocity S-wave (km/s) = 2.48864 3.29093 2.91749
# Velocity P-wave (km/s) = 5.71501 6.62659 6.18761
#
# Compressibility (1/GPa) = 0.01828531
#
# Stress axis : x y z
#
# Youngs Moduli (GPa) = 64.87176 88.69420 104.06950
#
# Poissons Ratio (x) = 0.32257 0.03142
# Poissons Ratio (y) = 0.23593 0.52741
# Poissons Ratio (z) = 0.01958 0.44949
#
# Static dielectric constant tensor:
#      x y z
#    x 2.024530 0.000000 0.010380 
#    y 0.000000 1.854950 0.000000 
#    z 0.010380 0.000000 1.809030 
# 
# From -- ./inp_files/310865.got.cif
#   From: 2010.05.17/outbox.cif.g08.bks.cpg/sg15_156_cif.got.tgz:310865.got - 2010.06.03 18:47:42.
