data_PCOD9277927
_publ_section_title
;
Structure prediction by ZEFSAII (Michael W. Deem and Ramdas Pophale) SiO2 
 PCOD9277927
Probable space group: C 2/C
;
_chemical_formula_sum "Si O2"
_cell_formula_units_Z 60
_cell_length_a 24.431031
_cell_length_b 7.524704
_cell_length_c 25.131902
_cell_angle_alpha 90.000000
_cell_angle_beta 148.106233
_cell_angle_gamma 90.000000
_cell_volume 2441.040451
_symmetry_space_group_name_H-M "C 2/C"
_symmetry_group_IT_number 15
_symmetry_cell_setting 'monoclinic'
loop_
_space_group_symop_operation_xyz
x,y,z
-x,y,1/2-z
-x,-y,-z
x,-y,1/2+z
1/2+x,1/2+y,z
1/2-x,1/2+y,1/2-z
1/2-x,1/2-y,-z
1/2+x,1/2-y,1/2+z
loop_
_atom_site_type_symbol
_atom_site_label
_atom_site_fract_x
_atom_site_fract_y
_atom_site_fract_z
Si Si1 0.009900 0.246942 0.478533
Si Si2 0.750000 0.750000 0.500000
Si Si3 0.832283 0.025532 0.832615
Si Si4 0.627444 0.614828 0.750872
Si Si5 0.400449 0.000268 0.816114
Si Si6 0.424755 0.435110 0.576994
Si Si7 0.397502 0.155880 0.700103
Si Si8 0.243559 0.689664 0.434290
O O1 0.974682 0.435661 0.425169
O O2 0.101994 0.200782 0.595496
O O3 0.049254 0.143154 0.458614
O O4 0.904932 0.141681 0.408725
O O5 0.645476 0.694463 0.446409
O O6 0.688220 0.708188 0.391939
O O7 0.824077 0.026572 0.761808
O O8 0.719787 0.016761 0.765718
O O9 0.530820 0.499928 0.691344
O O10 0.706695 0.667114 0.861861
O O11 0.582415 0.803901 0.692477
O O12 0.414799 0.130466 0.776973
O O13 0.352638 0.606639 0.508589
O O14 0.500000 0.165736 0.750000
O O15 0.338354 0.972746 0.633407
O O16 0.250000 0.750000 0.500000
#
# Coordination Sequence:
#
# PCOD9277927 Si02
#       8
#     8   4   8   8   8   8   8   8
#     4  10  21  40  65  92 129 175 220 272 344 403
#     4  10  20  42  62  92 128 170 216 272 334 396
#     4  10  21  40  65  94 130 176 224 276 337 403
#     4  10  23  41  65  98 131 173 228 282 336 410
#     4  11  22  39  65  93 133 173 220 279 340 402
#     4  10  22  43  66  95 126 177 221 275 336 410
#     4  10  22  39  63  91 128 173 214 272 338 395
#     4  10  23  41  65  90 128 177 216 276 338 398
#
# _framework density 24.579684
#
# number of rings (size 3 to 8) (size 9 to 14) (size 15 to 20)
#    0.000    1.867    0.000    4.000    3.733    2.667 
#   16.800    2.667    0.000    0.000    0.000    0.000 
#    0.000    0.000    0.000    0.000    0.000    0.000 
#
# Total GULP energy -167338.896305 kJ/mol
# GULP energy per Si atom -5577.963210 kJ/mol
# Density = 2.452374 g / cm^3
# Si number density = 24.579684 Si / 1000 Ang^3
#
#
#
# Elastic Constant Matrix: (Units=GPa)
#
#
# Indices 1 2 3 4 5 6 
#
# 1 120.6896 4.2080 55.0850 0.0001 17.1742 -0.0002
# 2 4.2080 51.9079 -2.6691 0.0000 12.3898 0.0001
# 3 55.0850 -2.6691 105.5513 0.0001 -4.2805 -0.0002
# 4 0.0001 0.0000 0.0001 -0.8646 -0.0001 58.1204
# 5 17.1742 12.3898 -4.2805 -0.0001 56.7191 0.0001
# 6 -0.0002 0.0001 -0.0002 58.1204 0.0001 -43.1684
#
#
#
# Elastic Compliance Matrix: (Units=1/GPa)
#
#
# Indices 1 2 3 4 5 6 
#
# 1 0.011731 -0.000331 -0.006291 0.000000 -0.003955 0.000000
# 2 -0.000331 0.020346 0.000512 0.000000 -0.004306 0.000000
# 3 -0.006291 0.000512 0.012882 0.000000 0.002765 0.000000
# 4 0.000000 0.000000 0.000000 0.012922 0.000000 0.017398
# 5 -0.003955 -0.004306 0.002765 0.000000 0.019977 0.000000
# 6 0.000000 0.000000 0.000000 0.017398 0.000000 0.000259
#
#
# Mechanical properties :
#
#
# Convention : Reuss Voigt Hill
#
# Bulk Modulus (GPa) = 30.54281 43.48851 37.01566
# Shear Modulus (GPa) = 49.38271 17.30554 33.34412
#
# Velocity S-wave (km/s) = 4.48715 2.65629 3.68716
# Velocity P-wave (km/s) = 6.26889 5.20952 5.76360
#
# Compressibility (1/GPa) = 0.03274093
#
# Stress axis : x y z
#
# Youngs Moduli (GPa) = 85.24140 49.15039 77.62550
#
# Poissons Ratio (x) = 0.01625 0.48835
# Poissons Ratio (y) = 0.02818 -0.03977
# Poissons Ratio (z) = 0.53626 -0.02518
#
# Static dielectric constant tensor:
#      x y z
#    x 1.916060 0.000000 -0.118290 
#    y 0.000000 2.139130 0.000000 
#    z -0.118290 0.000000 2.078740 
# 
# From -- ./inp_files/302106.got.cif
#   From: 2010.05.17/outbox.cif.g08.bks.cpg/sg15_152_cif.got.tgz:302106.got - 2010.06.03 18:47:42.
