data_PCOD9277578
_publ_section_title
;
Structure prediction by ZEFSAII (Michael W. Deem and Ramdas Pophale) SiO2 
 PCOD9277578
Probable space group: C 2/C
;
_chemical_formula_sum "Si O2"
_cell_formula_units_Z 48
_cell_length_a 13.536619
_cell_length_b 12.589217
_cell_length_c 14.563222
_cell_angle_alpha 90.000000
_cell_angle_beta 105.079005
_cell_angle_gamma 90.000000
_cell_volume 2396.344594
_symmetry_space_group_name_H-M "C 2/C"
_symmetry_group_IT_number 15
_symmetry_cell_setting 'monoclinic'
loop_
_space_group_symop_operation_xyz
x,y,z
-x,y,1/2-z
-x,-y,-z
x,-y,1/2+z
1/2+x,1/2+y,z
1/2-x,1/2+y,1/2-z
1/2-x,1/2-y,-z
1/2+x,1/2-y,1/2+z
loop_
_atom_site_type_symbol
_atom_site_label
_atom_site_fract_x
_atom_site_fract_y
_atom_site_fract_z
Si Si1 0.832194 0.083037 0.562333
Si Si2 0.494397 0.912627 0.077862
Si Si3 0.000000 0.544733 0.250000
Si Si4 0.783138 0.637078 0.469057
Si Si5 0.662983 0.806690 0.726825
Si Si6 0.164984 0.246420 0.098066
Si Si7 0.000000 0.860103 0.250000
O O1 0.851296 0.144057 0.470815
O O2 0.741585 0.160877 0.578504
O O3 0.928093 0.085372 0.655790
O O4 0.793741 0.962293 0.546023
O O5 0.533063 0.970678 0.176261
O O6 0.557663 0.806528 0.078188
O O7 0.375700 0.892086 0.058302
O O8 0.500000 0.000000 0.000000
O O9 0.899538 0.618195 0.215723
O O10 0.750000 0.750000 0.500000
O O11 0.824542 0.651438 0.374004
O O12 0.775196 0.786423 0.795114
O O13 0.584457 0.707589 0.712225
#
# Coordination Sequence:
#
# PCOD9277578 Si02
#       7
#     8   8   4   8   8   8   4
#     4  10  20  41  65  95 126 170 208 266 318 389
#     4  12  23  42  68  97 126 170 223 274 318 385
#     4  11  22  38  71  96 130 170 223 277 326 380
#     4  12  26  44  63  93 140 169 218 270 328 385
#     4  10  21  40  63  98 128 171 215 270 324 391
#     4  10  21  38  70  96 125 162 220 263 322 379
#     4   9  20  38  69  90 126 166 221 261 328 386
#
# _framework density 20.030508000000001
#
# number of rings (size 3 to 8) (size 9 to 14) (size 15 to 20)
#    0.000    1.333    3.333    2.000    7.000    0.000 
#    9.000    1.667    0.000    0.000    0.000    0.000 
#    0.000    0.000    0.000    0.000    0.000    0.000 
#
# Total GULP energy -133660.685002 kJ/mol
# GULP energy per Si atom -5569.195208 kJ/mol
# Density = 1.998492 g / cm^3
# Si number density = 20.030508 Si / 1000 Ang^3
#
#
#
# Elastic Constant Matrix: (Units=GPa)
#
#
# Indices 1 2 3 4 5 6 
#
# 1 67.8808 54.1288 27.2558 0.0000 27.7827 0.0000
# 2 54.1288 125.5432 33.2361 0.0000 13.4309 0.0000
# 3 27.2558 33.2361 56.5055 0.0000 13.2430 0.0000
# 4 0.0000 0.0000 0.0000 14.1904 0.0000 -1.1604
# 5 27.7827 13.4309 13.2430 0.0000 41.0339 0.0000
# 6 0.0000 0.0000 0.0000 -1.1604 0.0000 35.9391
#
#
#
# Elastic Compliance Matrix: (Units=1/GPa)
#
#
# Indices 1 2 3 4 5 6 
#
# 1 0.032182 -0.010686 -0.005356 0.000000 -0.016563 0.000000
# 2 -0.010686 0.013058 -0.003484 0.000000 0.004085 0.000000
# 3 -0.005356 -0.003484 0.022949 0.000000 -0.002640 0.000000
# 4 0.000000 0.000000 0.000000 0.070657 0.000000 0.002281
# 5 -0.016563 0.004085 -0.002640 0.000000 0.035099 0.000000
# 6 0.000000 0.000000 0.000000 0.002281 0.000000 0.027899
#
#
# Mechanical properties :
#
#
# Convention : Reuss Voigt Hill
#
# Bulk Modulus (GPa) = 34.31968 53.24122 43.78045
# Shear Modulus (GPa) = 19.95153 27.25325 23.60239
#
# Velocity S-wave (km/s) = 3.15946 3.69262 3.43639
# Velocity P-wave (km/s) = 5.52091 6.69465 6.13591
#
# Compressibility (1/GPa) = 0.02913780
#
# Stress axis : x y z
#
# Youngs Moduli (GPa) = 31.07286 76.58262 43.57547
#
# Poissons Ratio (x) = 0.81834 0.23340
# Poissons Ratio (y) = 0.33203 0.15180
# Poissons Ratio (z) = 0.16643 0.26679
#
# Static dielectric constant tensor:
#      x y z
#    x 1.722200 0.000000 -0.014760 
#    y 0.000000 1.631510 0.000000 
#    z -0.014760 0.000000 1.718980 
# 
# From -- ./inp_files/152136.got.cif
#   From: 2010.05.17/outbox.cif.g08.bks.cpg/sg15_77_cif.got.tgz:152136.got - 2010.06.03 18:47:42.
