data_PCOD9277193
_publ_section_title
;
Structure prediction by ZEFSAII (Michael W. Deem and Ramdas Pophale) SiO2 
 PCOD9277193
Probable space group: C 2/C
;
_chemical_formula_sum "Si O2"
_cell_formula_units_Z 60
_cell_length_a 28.682680
_cell_length_b 5.350304
_cell_length_c 18.479113
_cell_angle_alpha 90.000000
_cell_angle_beta 116.499919
_cell_angle_gamma 90.000000
_cell_volume 2537.878330
_symmetry_space_group_name_H-M "C 2/C"
_symmetry_group_IT_number 15
_symmetry_cell_setting 'monoclinic'
loop_
_space_group_symop_operation_xyz
x,y,z
-x,y,1/2-z
-x,-y,-z
x,-y,1/2+z
1/2+x,1/2+y,z
1/2-x,1/2+y,1/2-z
1/2-x,1/2-y,-z
1/2+x,1/2-y,1/2+z
loop_
_atom_site_type_symbol
_atom_site_label
_atom_site_fract_x
_atom_site_fract_y
_atom_site_fract_z
Si Si1 0.631976 0.411072 0.737664
Si Si2 0.250000 0.750000 0.500000
Si Si3 0.200310 0.652660 0.057825
Si Si4 0.876701 0.306972 0.879764
Si Si5 0.642655 0.523366 0.911571
Si Si6 0.939298 0.996132 0.032619
Si Si7 0.036868 0.699372 0.586754
Si Si8 0.266759 0.119364 0.719745
O O1 0.648149 0.656822 0.703742
O O2 0.631250 0.461281 0.821403
O O3 0.575427 0.354357 0.665624
O O4 0.672463 0.185595 0.750738
O O5 0.243159 0.535788 0.557894
O O6 0.313989 0.735646 0.550498
O O7 0.162602 0.541011 0.094607
O O8 0.234878 0.868747 0.121814
O O9 0.168258 0.787485 0.972105
O O10 0.929518 0.445815 0.893208
O O11 0.894055 0.094274 0.948487
O O12 0.589403 0.593865 0.915924
O O13 0.979555 0.223368 0.074003
O O14 0.965063 0.787537 0.999097
O O15 0.247878 0.363146 0.751627
#
# Coordination Sequence:
#
# PCOD9277193 Si02
#       8
#     8   4   8   8   8   8   8   8
#     4  11  24  38  62  97 135 180 225 296 352 431
#     4  12  24  38  62  88 132 186 222 296 350 436
#     4  11  24  40  64  93 136 182 237 291 357 437
#     4  10  20  41  63  98 126 171 232 287 351 428
#     4  11  25  42  60  96 137 177 230 282 365 428
#     4   9  21  40  67  95 123 171 222 287 351 421
#     4  10  20  40  69  92 127 167 226 286 349 424
#     4  12  26  42  68 102 141 192 248 305 361 434
#
# _framework density 23.641794000000001
#
# number of rings (size 3 to 8) (size 9 to 14) (size 15 to 20)
#    0.000    1.333    2.667    2.400    1.867    1.600 
#    0.000    0.000    0.000    4.800    0.000    0.000 
#    0.000    0.000    0.000    0.000    0.000    0.000 
#
# Total GULP energy -167124.356888 kJ/mol
# GULP energy per Si atom -5570.811896 kJ/mol
# Density = 2.358798 g / cm^3
# Si number density = 23.641794 Si / 1000 Ang^3
#
#
#
# Elastic Constant Matrix: (Units=GPa)
#
#
# Indices 1 2 3 4 5 6 
#
# 1 121.7440 -0.7659 44.4259 0.0001 1.4836 0.0002
# 2 -0.7659 56.0093 19.9503 0.0024 -1.9525 -0.0012
# 3 44.4259 19.9503 134.9909 -0.0001 -9.2788 0.0001
# 4 0.0001 0.0024 -0.0001 18.6083 -0.0001 15.0731
# 5 1.4836 -1.9525 -9.2788 -0.0001 31.8433 0.0001
# 6 0.0002 -0.0012 0.0001 15.0731 0.0001 29.3277
#
#
#
# Elastic Compliance Matrix: (Units=1/GPa)
#
#
# Indices 1 2 3 4 5 6 
#
# 1 0.009481 0.001295 -0.003405 0.000000 -0.001354 0.000000
# 2 0.001295 0.019027 -0.003227 -0.000005 0.000166 0.000004
# 3 -0.003405 -0.003227 0.009187 0.000001 0.002638 -0.000001
# 4 0.000000 -0.000005 0.000001 0.092069 0.000001 -0.047320
# 5 -0.001354 0.000166 0.002638 0.000001 0.032246 0.000000
# 6 0.000000 0.000004 -0.000001 -0.047320 0.000000 0.058418
#
#
# Mechanical properties :
#
#
# Convention : Reuss Voigt Hill
#
# Bulk Modulus (GPa) = 37.00700 48.88498 42.94599
# Shear Modulus (GPa) = 20.82400 32.56479 26.69440
#
# Velocity S-wave (km/s) = 2.97107 3.71539 3.36388
# Velocity P-wave (km/s) = 5.23993 6.25522 5.76995
#
# Compressibility (1/GPa) = 0.02702192
#
# Stress axis : x y z
#
# Youngs Moduli (GPa) = 105.47353 52.55672 108.85392
#
# Poissons Ratio (x) = -0.06807 0.37062
# Poissons Ratio (y) = -0.13661 0.35126
# Poissons Ratio (z) = 0.35911 0.16959
#
# Static dielectric constant tensor:
#      x y z
#    x 1.973600 0.000000 0.023130 
#    y 0.000000 2.042500 0.000000 
#    z 0.023130 0.000000 1.938480 
# 
# From -- ./inp_files/223933.got.cif
#   From: 2010.05.17/outbox.cif.g08.bks.cpg/sg15_112_cif.got.tgz:223933.got - 2010.06.03 18:47:42.
