data_PCOD9277668
_publ_section_title
;
Structure prediction by ZEFSAII (Michael W. Deem and Ramdas Pophale) SiO2 
 PCOD9277668
Probable space group: C 2/C
;
_chemical_formula_sum "Si O2"
_cell_formula_units_Z 60
_cell_length_a 17.146083
_cell_length_b 12.293980
_cell_length_c 18.623101
_cell_angle_alpha 90.000000
_cell_angle_beta 126.127469
_cell_angle_gamma 90.000000
_cell_volume 3170.760499
_symmetry_space_group_name_H-M "C 2/C"
_symmetry_group_IT_number 15
_symmetry_cell_setting 'monoclinic'
loop_
_space_group_symop_operation_xyz
x,y,z
-x,y,1/2-z
-x,-y,-z
x,-y,1/2+z
1/2+x,1/2+y,z
1/2-x,1/2+y,1/2-z
1/2-x,1/2-y,-z
1/2+x,1/2-y,1/2+z
loop_
_atom_site_type_symbol
_atom_site_label
_atom_site_fract_x
_atom_site_fract_y
_atom_site_fract_z
Si Si1 0.410635 0.757048 0.587878
Si Si2 0.503716 0.459387 0.421454
Si Si3 0.298999 0.502594 0.246325
Si Si4 0.319009 0.059145 0.680648
Si Si5 0.883942 0.202584 0.199185
Si Si6 0.000000 0.594390 0.250000
Si Si7 0.683698 0.587882 0.470149
Si Si8 0.750037 0.118446 0.580861
O O1 0.454849 0.660270 0.565887
O O2 0.486557 0.828057 0.673582
O O3 0.347414 0.828177 0.499613
O O4 0.336793 0.699658 0.604590
O O5 0.500000 0.500000 0.500000
O O6 0.400188 0.459290 0.329902
O O7 0.576024 0.541790 0.421903
O O8 0.229341 0.501448 0.277591
O O9 0.330991 0.613609 0.222023
O O10 0.256249 0.417305 0.166096
O O11 0.365789 0.177391 0.720895
O O12 0.237738 0.086237 0.575987
O O13 0.404663 0.980602 0.700198
O O14 0.831699 0.188603 0.092490
O O15 0.000000 0.185305 0.250000
O O16 0.737450 0.493322 0.455633
#
# Coordination Sequence:
#
# PCOD9277668 Si02
#       8
#     8   8   8   8   8   4   8   8
#     4  10  21  37  64  93 129 175 209 262 327 390
#     4  11  21  37  63  97 129 167 219 271 321 380
#     4  11  24  40  66  97 131 161 222 280 318 384
#     4  12  25  43  64  95 130 172 217 270 330 391
#     4  11  23  42  68  94 127 176 217 265 332 392
#     4  12  24  42  66  92 132 176 222 260 332 408
#     4  10  20  41  67  89 123 171 219 261 316 401
#     4   9  20  39  63  95 125 165 212 264 323 381
#
# _framework density 18.922905
#
# number of rings (size 3 to 8) (size 9 to 14) (size 15 to 20)
#    0.000    1.333    4.667    1.200    0.000    3.200 
#    0.000    0.667    0.000    0.000    0.000    0.000 
#    0.000    0.000    0.000    0.000    0.000    0.000 
#
# Total GULP energy -167256.786360 kJ/mol
# GULP energy per Si atom -5575.226212 kJ/mol
# Density = 1.887984 g / cm^3
# Si number density = 18.922905 Si / 1000 Ang^3
#
#
#
# Elastic Constant Matrix: (Units=GPa)
#
#
# Indices 1 2 3 4 5 6 
#
# 1 80.5407 23.0092 27.8801 0.0000 -6.3583 0.0000
# 2 23.0092 57.7578 15.6488 0.0000 -8.7418 0.0000
# 3 27.8801 15.6488 100.9855 0.0000 -5.5057 0.0000
# 4 0.0000 0.0000 0.0000 28.5052 0.0000 -2.7121
# 5 -6.3583 -8.7418 -5.5057 0.0000 25.4088 0.0000
# 6 0.0000 0.0000 0.0000 -2.7121 0.0000 4.2389
#
#
#
# Elastic Compliance Matrix: (Units=1/GPa)
#
#
# Indices 1 2 3 4 5 6 
#
# 1 0.015075 -0.004897 -0.003329 0.000000 0.001366 0.000000
# 2 -0.004897 0.020511 -0.001527 0.000000 0.005500 0.000000
# 3 -0.003329 -0.001527 0.011115 0.000000 0.001050 0.000000
# 4 0.000000 0.000000 0.000000 0.037355 0.000000 0.023900
# 5 0.001366 0.005500 0.001050 0.000000 0.041818 0.000000
# 6 0.000000 0.000000 0.000000 0.023900 0.000000 0.251201
#
#
# Mechanical properties :
#
#
# Convention : Reuss Voigt Hill
#
# Bulk Modulus (GPa) = 36.76894 41.37332 39.07113
# Shear Modulus (GPa) = 12.32603 23.14699 17.73651
#
# Velocity S-wave (km/s) = 2.55499 3.50126 3.06486
# Velocity P-wave (km/s) = 5.30821 6.18520 5.76341
#
# Compressibility (1/GPa) = 0.02719686
#
# Stress axis : x y z
#
# Youngs Moduli (GPa) = 66.33429 48.75537 89.96691
#
# Poissons Ratio (x) = 0.23875 0.29947
# Poissons Ratio (y) = 0.32483 0.13734
# Poissons Ratio (z) = 0.22080 0.07443
#
# Static dielectric constant tensor:
#      x y z
#    x 1.710400 0.000000 0.012360 
#    y 0.000000 1.646020 0.000000 
#    z 0.012360 0.000000 1.672230 
# 
# From -- ./inp_files/210637.got.cif
#   From: 2010.05.17/outbox.cif.g08.bks.cpg/sg15_106_cif.got.tgz:210637.got - 2010.06.03 18:47:42.
