data_PCOD9277814
_publ_section_title
;
Structure prediction by ZEFSAII (Michael W. Deem and Ramdas Pophale) SiO2 
 PCOD9277814
Probable space group: C 2/C
;
_chemical_formula_sum "Si O2"
_cell_formula_units_Z 40
_cell_length_a 7.190185
_cell_length_b 9.383741
_cell_length_c 23.237179
_cell_angle_alpha 90.000000
_cell_angle_beta 100.263633
_cell_angle_gamma 90.000000
_cell_volume 1542.743914
_symmetry_space_group_name_H-M "C 2/C"
_symmetry_group_IT_number 15
_symmetry_cell_setting 'monoclinic'
loop_
_space_group_symop_operation_xyz
x,y,z
-x,y,1/2-z
-x,-y,-z
x,-y,1/2+z
1/2+x,1/2+y,z
1/2-x,1/2+y,1/2-z
1/2-x,1/2-y,-z
1/2+x,1/2-y,1/2+z
loop_
_atom_site_type_symbol
_atom_site_label
_atom_site_fract_x
_atom_site_fract_y
_atom_site_fract_z
Si Si1 0.506179 0.152649 0.407330
Si Si2 0.076446 0.843680 0.863913
Si Si3 0.463490 0.674510 0.012465
Si Si4 0.573658 0.377040 0.313532
Si Si5 0.489188 0.938270 0.185074
O O1 0.284025 0.110505 0.397536
O O2 0.560431 0.217838 0.471823
O O3 0.530510 0.282491 0.365358
O O4 0.591854 0.024380 0.374265
O O5 0.111217 0.713500 0.823079
O O6 0.983817 0.969343 0.822754
O O7 0.971855 0.807916 0.917803
O O8 0.500000 0.500000 0.000000
O O9 0.250000 0.750000 0.000000
O O10 0.500000 0.317670 0.250000
O O11 0.794848 0.399385 0.316825
O O12 0.500000 0.999909 0.250000
#
# Coordination Sequence:
#
# PCOD9277814 Si02
#       5
#     8   8   8   8   8
#     4  10  22  40  64  90 130 167 218 273 337 403
#     4  10  22  40  64  91 127 170 217 272 340 402
#     4  10  20  41  70  98 134 179 230 285 351 425
#     4  11  22  38  62  88 122 169 215 268 335 402
#     4  11  24  40  59  94 128 165 221 274 333 411
#
# _framework density 25.927828000000002
#
# number of rings (size 3 to 8) (size 9 to 14) (size 15 to 20)
#    0.000    1.600    2.000    2.400    0.000    7.200 
#    0.000    1.000    0.000    0.000    0.000    0.000 
#    0.000    0.000    0.000    0.000    0.000    0.000 
#
# Total GULP energy -111494.553879 kJ/mol
# GULP energy per Si atom -5574.727694 kJ/mol
# Density = 2.586881 g / cm^3
# Si number density = 25.927828 Si / 1000 Ang^3
#
#
#
# Elastic Constant Matrix: (Units=GPa)
#
#
# Indices 1 2 3 4 5 6 
#
# 1 74.6731 -17.0295 16.7052 0.0000 2.1470 0.0000
# 2 -17.0295 118.3956 6.9761 0.0000 -1.9942 0.0000
# 3 16.7052 6.9761 120.7378 0.0000 -17.6281 0.0000
# 4 0.0000 0.0000 0.0000 53.3033 0.0000 -8.6624
# 5 2.1470 -1.9942 -17.6281 0.0000 32.7941 0.0000
# 6 0.0000 0.0000 0.0000 -8.6624 0.0000 20.9307
#
#
#
# Elastic Compliance Matrix: (Units=1/GPa)
#
#
# Indices 1 2 3 4 5 6 
#
# 1 0.014500 0.002194 -0.002444 0.000000 -0.002130 0.000000
# 2 0.002194 0.008809 -0.000820 0.000000 -0.000048 0.000000
# 3 -0.002444 -0.000820 0.009424 0.000000 0.005176 0.000000
# 4 0.000000 0.000000 0.000000 0.020113 0.000000 0.008324
# 5 -0.002130 -0.000048 0.005176 0.000000 0.033412 0.000000
# 6 0.000000 0.000000 0.000000 0.008324 0.000000 0.051222
#
#
# Mechanical properties :
#
#
# Convention : Reuss Voigt Hill
#
# Bulk Modulus (GPa) = 32.68691 36.34560 34.51625
# Shear Modulus (GPa) = 33.37407 41.88261 37.62834
#
# Velocity S-wave (km/s) = 3.59164 4.02351 3.81369
# Velocity P-wave (km/s) = 5.46206 5.96936 5.72133
#
# Compressibility (1/GPa) = 0.03059329
#
# Stress axis : x y z
#
# Youngs Moduli (GPa) = 68.96581 113.51674 106.11693
#
# Poissons Ratio (x) = -0.24903 0.25934
# Poissons Ratio (y) = -0.15129 0.08697
# Poissons Ratio (z) = 0.16854 0.09304
#
# Static dielectric constant tensor:
#      x y z
#    x 2.207840 0.000000 -0.033750 
#    y 0.000000 2.151160 0.000000 
#    z -0.033750 0.000000 1.941990 
# 
# From -- ./inp_files/262437.got.cif
#   From: 2010.05.17/outbox.cif.g08.bks.cpg/sg15_132_cif.got.tgz:262437.got - 2010.06.03 18:47:42.
