data_PCOD9277099
_publ_section_title
;
Structure prediction by ZEFSAII (Michael W. Deem and Ramdas Pophale) SiO2 
 PCOD9277099
Probable space group: C 2/C
;
_chemical_formula_sum "Si O2"
_cell_formula_units_Z 36
_cell_length_a 25.402463
_cell_length_b 8.840888
_cell_length_c 8.234891
_cell_angle_alpha 90.000000
_cell_angle_beta 122.012315
_cell_angle_gamma 90.000000
_cell_volume 1568.164838
_symmetry_space_group_name_H-M "C 2/C"
_symmetry_group_IT_number 15
_symmetry_cell_setting 'monoclinic'
loop_
_space_group_symop_operation_xyz
x,y,z
-x,y,1/2-z
-x,-y,-z
x,-y,1/2+z
1/2+x,1/2+y,z
1/2-x,1/2+y,1/2-z
1/2-x,1/2-y,-z
1/2+x,1/2-y,1/2+z
loop_
_atom_site_type_symbol
_atom_site_label
_atom_site_fract_x
_atom_site_fract_y
_atom_site_fract_z
Si Si1 0.318180 0.293157 0.556079
Si Si2 0.378045 0.564225 0.854821
Si Si3 0.933545 0.704358 0.197312
Si Si4 0.077490 0.387752 0.175823
Si Si5 0.000000 0.146390 0.250000
O O1 0.250000 0.250000 0.500000
O O2 0.351876 0.410208 0.736030
O O3 0.327261 0.368878 0.395196
O O4 0.359379 0.142151 0.623035
O O5 0.393010 0.677809 0.731013
O O6 0.443546 0.561216 0.063892
O O7 0.945048 0.556201 0.325855
O O8 0.000000 0.768053 0.250000
O O9 0.907285 0.641092 0.986205
O O10 0.031807 0.259145 0.172267
#
# Coordination Sequence:
#
# PCOD9277099 Si02
#       5
#     8   8   8   8   4
#     4  11  27  50  69 101 142 189 245 291 346 416
#     4  11  25  45  73 105 138 189 233 297 354 421
#     4  12  22  41  68 108 149 185 227 281 365 427
#     4  11  22  39  68 105 145 189 230 287 348 422
#     4  10  20  40  68 108 144 176 234 284 364 422
#
# _framework density 22.956771
#
# number of rings (size 3 to 8) (size 9 to 14) (size 15 to 20)
#    0.000    0.889    3.333    4.667    0.000    7.111 
#   10.000    3.333    0.000    0.000    0.000    0.000 
#    0.000    0.000    0.000    0.000    0.000    0.000 
#
# Total GULP energy -100714.533079 kJ/mol
# GULP energy per Si atom -5595.251838 kJ/mol
# Density = 2.290452 g / cm^3
# Si number density = 22.956771 Si / 1000 Ang^3
#
#
#
# Elastic Constant Matrix: (Units=GPa)
#
#
# Indices 1 2 3 4 5 6 
#
# 1 186.2875 77.5418 48.6691 0.0000 -9.6888 0.0000
# 2 77.5418 124.1738 64.4284 0.0000 -3.8486 0.0000
# 3 48.6691 64.4284 87.5495 0.0000 -28.3336 0.0000
# 4 0.0000 0.0000 0.0000 46.2133 0.0000 -7.6575
# 5 -9.6888 -3.8486 -28.3336 0.0000 41.5795 0.0000
# 6 0.0000 0.0000 0.0000 -7.6575 0.0000 32.8588
#
#
#
# Elastic Compliance Matrix: (Units=1/GPa)
#
#
# Indices 1 2 3 4 5 6 
#
# 1 0.007342 -0.004172 -0.000748 0.000000 0.000815 0.000000
# 2 -0.004172 0.017111 -0.012925 0.000000 -0.008196 0.000000
# 3 -0.000748 -0.012925 0.026821 0.000000 0.016906 0.000000
# 4 0.000000 0.000000 0.000000 0.022508 0.000000 0.005245
# 5 0.000815 -0.008196 0.016906 0.000000 0.035002 0.000000
# 6 0.000000 0.000000 0.000000 0.005245 0.000000 0.031656
#
#
# Mechanical properties :
#
#
# Convention : Reuss Voigt Hill
#
# Bulk Modulus (GPa) = 64.16713 86.58771 75.37742
# Shear Modulus (GPa) = 27.57498 37.95506 32.76502
#
# Velocity S-wave (km/s) = 3.46955 4.07052 3.78199
# Velocity P-wave (km/s) = 6.63795 7.73898 7.20951
#
# Compressibility (1/GPa) = 0.01558430
#
# Stress axis : x y z
#
# Youngs Moduli (GPa) = 136.19757 58.44316 37.28431
#
# Poissons Ratio (x) = 0.24381 0.02788
# Poissons Ratio (y) = 0.56818 0.48191
# Poissons Ratio (z) = 0.10185 0.75539
#
# Static dielectric constant tensor:
#      x y z
#    x 1.827740 0.000000 0.006330 
#    y 0.000000 1.881780 0.000000 
#    z 0.006330 0.000000 1.929490 
# 
# From -- ./inp_files/64629.got.cif
#   From: 2010.05.17/outbox.cif.g08.bks.cpg/sg15_33_cif.got.tgz:64629.got - 2010.06.03 18:47:42.
