data_PCOD9277860
_publ_section_title
;
Structure prediction by ZEFSAII (Michael W. Deem and Ramdas Pophale) SiO2 
 PCOD9277860
Probable space group: C 2/C
;
_chemical_formula_sum "Si O2"
_cell_formula_units_Z 64
_cell_length_a 8.704907
_cell_length_b 30.199169
_cell_length_c 18.178172
_cell_angle_alpha 90.000000
_cell_angle_beta 144.169542
_cell_angle_gamma 90.000000
_cell_volume 2797.394436
_symmetry_space_group_name_H-M "C 2/C"
_symmetry_group_IT_number 15
_symmetry_cell_setting 'monoclinic'
loop_
_space_group_symop_operation_xyz
x,y,z
-x,y,1/2-z
-x,-y,-z
x,-y,1/2+z
1/2+x,1/2+y,z
1/2-x,1/2+y,1/2-z
1/2-x,1/2-y,-z
1/2+x,1/2-y,1/2+z
loop_
_atom_site_type_symbol
_atom_site_label
_atom_site_fract_x
_atom_site_fract_y
_atom_site_fract_z
Si Si1 0.727523 0.581616 0.987496
Si Si2 0.971460 0.364000 0.447953
Si Si3 0.000257 0.913973 0.836401
Si Si4 0.720762 0.488079 0.026141
Si Si5 0.527587 0.239358 0.568583
Si Si6 0.364189 0.084943 0.765357
Si Si7 0.289124 0.233579 0.324173
Si Si8 0.486045 0.147675 0.324953
O O1 0.851940 0.606653 0.966858
O O2 0.426552 0.569519 0.862240
O O3 0.852713 0.533880 0.051208
O O4 0.752272 0.619491 0.058804
O O5 0.844530 0.382569 0.325286
O O6 0.277418 0.376884 0.562890
O O7 0.933232 0.312149 0.432921
O O8 0.000000 0.922775 0.750000
O O9 0.731017 0.891081 0.755578
O O10 0.079673 0.958294 0.909637
O O11 0.945853 0.456052 0.144277
O O12 0.500000 0.500000 0.000000
O O13 0.250000 0.250000 0.500000
O O14 0.476161 0.256313 0.461569
O O15 0.732519 0.249398 0.717076
O O16 0.500000 0.109218 0.750000
O O17 0.407941 0.184899 0.352981
O O18 0.000000 0.230340 0.250000
O O19 0.500000 0.168042 0.250000
#
# Coordination Sequence:
#
# PCOD9277860 Si02
#       8
#     8   8   8   8   8   8   8   8
#     4  12  25  45  71 101 145 197 243 310 375 451
#     4  11  24  45  72 103 147 190 244 309 381 457
#     4  11  22  43  71 102 136 190 247 303 370 450
#     4  11  25  44  69 102 142 189 250 314 363 437
#     4  10  20  41  75 109 143 192 247 312 379 464
#     4  11  26  45  68 105 144 195 254 304 379 450
#     4  10  21  43  74 109 147 192 251 312 382 467
#     4  12  25  42  70 104 146 190 242 310 379 450
#
# _framework density 22.878432
#
# number of rings (size 3 to 8) (size 9 to 14) (size 15 to 20)
#    0.000    1.000    3.750    3.000    3.500    5.000 
#    2.250    1.875    0.000    0.000    0.000    0.000 
#    0.000    0.000    0.000    0.000    0.000    0.000 
#
# Total GULP energy -178537.896509 kJ/mol
# GULP energy per Si atom -5579.309266 kJ/mol
# Density = 2.282636 g / cm^3
# Si number density = 22.878432 Si / 1000 Ang^3
#
#
#
# Elastic Constant Matrix: (Units=GPa)
#
#
# Indices 1 2 3 4 5 6 
#
# 1 68.3325 30.8294 11.0670 0.0000 -24.9253 0.0000
# 2 30.8294 100.6000 30.6553 0.0000 -17.3501 0.0000
# 3 11.0670 30.6553 97.8877 0.0000 -32.2603 0.0000
# 4 0.0000 0.0000 0.0000 -14.8083 0.0000 -14.3113
# 5 -24.9253 -17.3501 -32.2603 0.0000 47.0141 0.0000
# 6 0.0000 0.0000 0.0000 -14.3113 0.0000 22.0945
#
#
#
# Elastic Compliance Matrix: (Units=1/GPa)
#
#
# Indices 1 2 3 4 5 6 
#
# 1 0.020548 -0.005306 0.002951 0.000000 0.010961 0.000000
# 2 -0.005306 0.012536 -0.003526 0.000000 -0.000606 0.000000
# 3 0.002951 -0.003526 0.014309 0.000000 0.010082 0.000000
# 4 0.000000 0.000000 0.000000 -0.041531 0.000000 -0.026901
# 5 0.010961 -0.000606 0.010082 0.000000 0.033775 0.000000
# 6 0.000000 0.000000 0.000000 -0.026901 0.000000 0.027835
#
#
# Mechanical properties :
#
#
# Convention : Reuss Voigt Hill
#
# Bulk Modulus (GPa) = 28.06500 45.76928 36.91714
# Shear Modulus (GPa) = 54.87728 23.81130 39.34429
#
# Velocity S-wave (km/s) = 4.90291 3.22960 4.15144
# Velocity P-wave (km/s) = 6.65921 5.82718 6.25704
#
# Compressibility (1/GPa) = 0.03563157
#
# Stress axis : x y z
#
# Youngs Moduli (GPa) = 48.66564 79.76843 69.88639
#
# Poissons Ratio (x) = 0.42325 -0.20622
# Poissons Ratio (y) = 0.25822 0.24640
# Poissons Ratio (z) = -0.14360 0.28125
#
# Static dielectric constant tensor:
#      x y z
#    x 1.796870 0.000000 -0.140050 
#    y 0.000000 1.742660 0.000000 
#    z -0.140050 0.000000 1.819030 
# 
# From -- ./inp_files/194278.got.cif
#   From: 2010.05.17/outbox.cif.g08.bks.cpg/sg15_98_cif.got.tgz:194278.got - 2010.06.03 18:47:42.
