data_PCOD9277651
_publ_section_title
;
Structure prediction by ZEFSAII (Michael W. Deem and Ramdas Pophale) SiO2 
 PCOD9277651
Probable space group: C 2/C
;
_chemical_formula_sum "Si O2"
_cell_formula_units_Z 64
_cell_length_a 8.103177
_cell_length_b 14.778616
_cell_length_c 29.039589
_cell_angle_alpha 90.000000
_cell_angle_beta 52.258825
_cell_angle_gamma 90.000000
_cell_volume 2750.029503
_symmetry_space_group_name_H-M "C 2/C"
_symmetry_group_IT_number 15
_symmetry_cell_setting 'monoclinic'
loop_
_space_group_symop_operation_xyz
x,y,z
-x,y,1/2-z
-x,-y,-z
x,-y,1/2+z
1/2+x,1/2+y,z
1/2-x,1/2+y,1/2-z
1/2-x,1/2-y,-z
1/2+x,1/2-y,1/2+z
loop_
_atom_site_type_symbol
_atom_site_label
_atom_site_fract_x
_atom_site_fract_y
_atom_site_fract_z
Si Si1 0.754421 0.021137 0.212732
Si Si2 0.974006 0.790895 0.560679
Si Si3 0.853115 0.268053 0.560338
Si Si4 0.172726 0.575130 0.818049
Si Si5 0.124560 0.524220 0.416531
Si Si6 0.815444 0.092306 0.614398
Si Si7 0.774824 0.284987 0.811475
Si Si8 0.324154 0.488746 0.979397
O O1 0.500000 0.022531 0.250000
O O2 0.834886 0.123949 0.190401
O O3 0.782415 0.976739 0.257470
O O4 0.847592 0.955685 0.157834
O O5 0.762658 0.794963 0.626779
O O6 0.975941 0.744607 0.510120
O O7 0.140676 0.745437 0.567649
O O8 0.079427 0.889018 0.537889
O O9 0.855755 0.368126 0.580309
O O10 0.857414 0.198246 0.601524
O O11 0.227848 0.524060 0.855640
O O12 0.212349 0.682414 0.810669
O O13 0.923311 0.568968 0.854698
O O14 0.223714 0.487209 0.446612
O O15 0.878501 0.501737 0.455346
O O16 0.976917 0.052165 0.549732
O O17 0.000000 0.291539 0.750000
#
# Coordination Sequence:
#
# PCOD9277651 Si02
#       8
#     8   8   8   8   8   8   8   8
#     4   9  22  43  64  93 127 172 227 276 319 392
#     4  10  20  41  66  97 130 182 220 263 340 416
#     4  10  22  38  69  99 137 173 217 277 341 395
#     4  11  24  43  69  96 128 174 230 274 332 393
#     4  10  24  42  61 101 138 171 215 277 339 401
#     4  11  21  42  68  96 129 172 226 270 331 396
#     4  11  23  43  64  94 131 180 219 269 335 404
#     4  10  22  40  66  94 136 176 213 272 335 395
#
# _framework density 23.272476999999999
#
# number of rings (size 3 to 8) (size 9 to 14) (size 15 to 20)
#    0.000    1.750    2.500    0.750    5.250    4.500 
#    0.000    2.500    0.000    0.000    0.000    0.000 
#    0.000    0.000    0.000    0.000    0.000    0.000 
#
# Total GULP energy -178664.900800 kJ/mol
# GULP energy per Si atom -5583.278150 kJ/mol
# Density = 2.321951 g / cm^3
# Si number density = 23.272477 Si / 1000 Ang^3
#
#
#
# Elastic Constant Matrix: (Units=GPa)
#
#
# Indices 1 2 3 4 5 6 
#
# 1 54.9759 34.7629 43.6311 -0.0002 1.5214 0.0000
# 2 34.7629 140.9926 69.5735 -0.0002 31.1213 0.0002
# 3 43.6311 69.5735 176.6683 -0.0003 8.3917 0.0000
# 4 -0.0002 -0.0002 -0.0003 40.1679 0.0003 1.4805
# 5 1.5214 31.1213 8.3917 0.0003 44.7272 -0.0001
# 6 0.0000 0.0002 0.0000 1.4805 -0.0001 0.8803
#
#
#
# Elastic Compliance Matrix: (Units=1/GPa)
#
#
# Indices 1 2 3 4 5 6 
#
# 1 0.024479 -0.004564 -0.004398 0.000000 0.003169 0.000001
# 2 -0.004564 0.011253 -0.002966 0.000000 -0.007118 -0.000003
# 3 -0.004398 -0.002966 0.007880 0.000000 0.000735 0.000000
# 4 0.000000 0.000000 0.000000 0.026541 0.000000 -0.044636
# 5 0.003169 -0.007118 0.000735 0.000000 0.027065 0.000004
# 6 0.000001 -0.000003 0.000000 -0.044636 0.000004 1.211007
#
#
# Mechanical properties :
#
#
# Convention : Reuss Voigt Hill
#
# Bulk Modulus (GPa) = 50.62369 74.28574 62.45472
# Shear Modulus (GPa) = 3.73506 32.13304 17.93405
#
# Velocity S-wave (km/s) = 1.26823 3.71985 2.77900
# Velocity P-wave (km/s) = 4.89330 7.10204 6.09850
#
# Compressibility (1/GPa) = 0.01975360
#
# Stress axis : x y z
#
# Youngs Moduli (GPa) = 40.85104 88.86717 126.90758
#
# Poissons Ratio (x) = 0.40563 0.55820
# Poissons Ratio (y) = 0.18646 0.37641
# Poissons Ratio (z) = 0.17968 0.26358
#
# Static dielectric constant tensor:
#      x y z
#    x 1.938150 0.000000 -0.047710 
#    y 0.000000 1.885720 0.000000 
#    z -0.047710 0.000000 1.949220 
# 
# From -- ./inp_files/308229.got.cif
#   From: 2010.05.17/outbox.cif.g08.bks.cpg/sg15_155_cif.got.tgz:308229.got - 2010.06.03 18:47:42.
