data_PCOD9277556
_publ_section_title
;
Structure prediction by ZEFSAII (Michael W. Deem and Ramdas Pophale) SiO2 
 PCOD9277556
Probable space group: C 2/C
;
_chemical_formula_sum "Si O2"
_cell_formula_units_Z 28
_cell_length_a 24.261999
_cell_length_b 6.535166
_cell_length_c 16.967338
_cell_angle_alpha 90.000000
_cell_angle_beta 153.289809
_cell_angle_gamma 90.000000
_cell_volume 1209.219804
_symmetry_space_group_name_H-M "C 2/C"
_symmetry_group_IT_number 15
_symmetry_cell_setting 'monoclinic'
loop_
_space_group_symop_operation_xyz
x,y,z
-x,y,1/2-z
-x,-y,-z
x,-y,1/2+z
1/2+x,1/2+y,z
1/2-x,1/2+y,1/2-z
1/2-x,1/2-y,-z
1/2+x,1/2-y,1/2+z
loop_
_atom_site_type_symbol
_atom_site_label
_atom_site_fract_x
_atom_site_fract_y
_atom_site_fract_z
Si Si1 0.061700 0.310674 0.035847
Si Si2 0.872355 0.351299 0.551217
Si Si3 0.000000 0.949382 0.750000
Si Si4 0.625243 0.544432 0.258318
O O1 0.136615 0.191969 0.198291
O O2 0.134439 0.380079 0.051333
O O3 0.000000 0.500000 0.000000
O O4 0.958546 0.150566 0.873244
O O5 0.889406 0.106896 0.585641
O O6 0.758148 0.454970 0.446782
O O7 0.000000 0.431999 0.750000
O O8 0.947274 0.850944 0.761813
#
# Coordination Sequence:
#
# PCOD9277556 Si02
#       4
#     8   8   4   8
#     4  10  23  39  61  96 126 167 215 259 312 380
#     4   9  20  38  65  93 127 169 204 264 321 370
#     4   8  18  36  64  92 130 168 208 260 312 376
#     4  10  20  41  65  91 128 170 206 261 324 365
#
# _framework density 23.155425000000001
#
# number of rings (size 3 to 8) (size 9 to 14) (size 15 to 20)
#    0.857    1.714    0.000    0.857    4.000    0.000 
#    2.571    1.429    0.000    0.000    0.000    0.000 
#    0.000    0.000    0.000    0.000    0.000    0.000 
#
# Total GULP energy -78145.904171 kJ/mol
# GULP energy per Si atom -5581.850298 kJ/mol
# Density = 2.310272 g / cm^3
# Si number density = 23.155425 Si / 1000 Ang^3
#
#
#
# Elastic Constant Matrix: (Units=GPa)
#
#
# Indices 1 2 3 4 5 6 
#
# 1 189.8462 20.0853 33.6580 0.0000 -8.2620 0.0000
# 2 20.0853 46.7182 -1.7038 0.0000 -4.6685 0.0000
# 3 33.6580 -1.7038 74.3723 0.0000 8.9522 0.0000
# 4 0.0000 0.0000 0.0000 7.1223 0.0000 -3.4093
# 5 -8.2620 -4.6685 8.9522 0.0000 25.6598 0.0000
# 6 0.0000 0.0000 0.0000 -3.4093 0.0000 16.0972
#
#
#
# Elastic Compliance Matrix: (Units=1/GPa)
#
#
# Indices 1 2 3 4 5 6 
#
# 1 0.006216 -0.002523 -0.003190 0.000000 0.002655 0.000000
# 2 -0.002523 0.022826 0.001318 0.000000 0.002881 0.000000
# 3 -0.003190 0.001318 0.015673 0.000000 -0.006255 0.000000
# 4 0.000000 0.000000 0.000000 0.156245 0.000000 0.033091
# 5 0.002655 0.002881 -0.006255 0.000000 0.042533 0.000000
# 6 0.000000 0.000000 0.000000 0.033091 0.000000 0.069131
#
#
# Mechanical properties :
#
#
# Convention : Reuss Voigt Hill
#
# Bulk Modulus (GPa) = 27.83721 46.11284 36.97503
# Shear Modulus (GPa) = 14.99752 27.03566 21.01659
#
# Velocity S-wave (km/s) = 2.54774 3.42068 3.01596
# Velocity P-wave (km/s) = 4.55001 5.96315 5.30386
#
# Compressibility (1/GPa) = 0.03592314
#
# Stress axis : x y z
#
# Youngs Moduli (GPa) = 160.88690 43.81034 63.80464
#
# Poissons Ratio (x) = 0.11054 0.20356
# Poissons Ratio (y) = 0.40596 -0.08410
# Poissons Ratio (z) = 0.51328 -0.05775
#
# Static dielectric constant tensor:
#      x y z
#    x 1.932190 0.000000 -0.029140 
#    y 0.000000 1.900350 0.000000 
#    z -0.029140 0.000000 1.851420 
# 
# From -- ./inp_files/218085.got.cif
#   From: 2010.05.17/outbox.cif.g08.bks.cpg/sg15_110_cif.got.tgz:218085.got - 2010.06.03 18:47:42.
