data_PCOD9277143
_publ_section_title
;
Structure prediction by ZEFSAII (Michael W. Deem and Ramdas Pophale) SiO2 
 PCOD9277143
Probable space group: C 2/C
;
_chemical_formula_sum "Si O2"
_cell_formula_units_Z 64
_cell_length_a 10.425168
_cell_length_b 29.838919
_cell_length_c 18.204985
_cell_angle_alpha 90.000000
_cell_angle_beta 26.839525
_cell_angle_gamma 90.000000
_cell_volume 2556.864209
_symmetry_space_group_name_H-M "C 2/C"
_symmetry_group_IT_number 15
_symmetry_cell_setting 'monoclinic'
loop_
_space_group_symop_operation_xyz
x,y,z
-x,y,1/2-z
-x,-y,-z
x,-y,1/2+z
1/2+x,1/2+y,z
1/2-x,1/2+y,1/2-z
1/2-x,1/2-y,-z
1/2+x,1/2-y,1/2+z
loop_
_atom_site_type_symbol
_atom_site_label
_atom_site_fract_x
_atom_site_fract_y
_atom_site_fract_z
Si Si1 0.980630 0.638068 0.339324
Si Si2 0.607417 0.457171 0.560704
Si Si3 0.121686 0.872278 0.483593
Si Si4 0.266332 0.245341 0.669838
Si Si5 0.917789 0.397165 0.518869
Si Si6 0.801428 0.345302 0.239004
Si Si7 0.128008 0.304712 0.875968
Si Si8 0.548624 0.046914 0.095403
O O1 0.879231 0.671224 0.454215
O O2 0.856570 0.588423 0.402026
O O3 0.000000 0.658655 0.250000
O O4 0.321168 0.629717 0.178810
O O5 0.699363 0.424959 0.446599
O O6 0.691117 0.425123 0.587018
O O7 0.275320 0.466387 0.723053
O O8 0.763930 0.503604 0.491616
O O9 0.106412 0.854362 0.408804
O O10 0.375046 0.845776 0.393927
O O11 0.234336 0.199729 0.731655
O O12 0.295927 0.281696 0.721117
O O13 0.531897 0.234767 0.479875
O O14 0.000000 0.250374 0.750000
O O15 0.806220 0.348599 0.606545
O O16 0.031394 0.428945 0.525039
O O17 0.176709 0.384641 0.332008
#
# Coordination Sequence:
#
# PCOD9277143 Si02
#       8
#     8   8   8   8   8   8   8   8
#     4  10  22  41  65  94 136 182 224 273 351 413
#     4  10  20  40  68  95 131 176 235 284 350 414
#     4   9  20  41  68  91 135 188 214 279 350 416
#     4  11  23  39  67 101 136 176 232 291 341 404
#     4   9  19  39  62  90 131 181 220 274 353 412
#     4   9  20  40  64  94 130 177 228 269 345 401
#     4  10  23  40  64 100 133 179 226 279 350 403
#     4  10  21  40  64  97 130 175 231 288 344 414
#
# _framework density 25.030660000000001
#
# number of rings (size 3 to 8) (size 9 to 14) (size 15 to 20)
#    0.000    2.250    0.000    1.500    3.500    1.000 
#   11.250    6.250   19.250    0.000    0.000    0.000 
#    0.000    0.000    0.000    0.000    0.000    0.000 
#
# Total GULP energy -178546.481782 kJ/mol
# GULP energy per Si atom -5579.577556 kJ/mol
# Density = 2.497369 g / cm^3
# Si number density = 25.030660 Si / 1000 Ang^3
#
#
#
# Elastic Constant Matrix: (Units=GPa)
#
#
# Indices 1 2 3 4 5 6 
#
# 1 81.5713 45.8035 21.6621 0.0000 21.0304 0.0000
# 2 45.8035 163.2355 46.9701 0.0002 1.2351 0.0003
# 3 21.6621 46.9701 71.8824 0.0001 13.2526 0.0003
# 4 0.0000 0.0002 0.0001 13.7106 -0.0001 13.0452
# 5 21.0304 1.2351 13.2526 -0.0001 45.2092 -0.0001
# 6 0.0000 0.0003 0.0003 13.0452 -0.0001 15.5423
#
#
#
# Elastic Compliance Matrix: (Units=1/GPa)
#
#
# Indices 1 2 3 4 5 6 
#
# 1 0.016911 -0.004459 -0.000798 0.000000 -0.007511 0.000000
# 2 -0.004459 0.008794 -0.005012 0.000000 0.003303 0.000000
# 3 -0.000798 -0.005012 0.018324 0.000001 -0.004863 -0.000001
# 4 0.000000 0.000000 0.000001 0.362153 0.000000 -0.303968
# 5 -0.007511 0.003303 -0.004863 0.000000 0.026949 0.000000
# 6 0.000000 0.000000 -0.000001 -0.303968 0.000000 0.319472
#
#
# Mechanical properties :
#
#
# Convention : Reuss Voigt Hill
#
# Bulk Modulus (GPa) = 42.56768 60.61783 51.59276
# Shear Modulus (GPa) = 6.40229 28.37598 17.38914
#
# Velocity S-wave (km/s) = 1.60104 3.37062 2.63860
# Velocity P-wave (km/s) = 4.52337 6.27839 5.47170
#
# Compressibility (1/GPa) = 0.02349200
#
# Stress axis : x y z
#
# Youngs Moduli (GPa) = 59.13211 113.70918 54.57460
#
# Poissons Ratio (x) = 0.50701 0.04355
# Poissons Ratio (y) = 0.26366 0.27352
# Poissons Ratio (z) = 0.04719 0.56989
#
# Static dielectric constant tensor:
#      x y z
#    x 2.055690 0.000000 0.020110 
#    y 0.000000 1.994570 0.000000 
#    z 0.020110 0.000000 2.053660 
# 
# From -- ./inp_files/240998.got.cif
#   From: 2010.05.17/outbox.cif.g08.bks.cpg/sg15_121_cif.got.tgz:240998.got - 2010.06.03 18:47:42.
