data_PCOD9277123
_publ_section_title
;
Structure prediction by ZEFSAII (Michael W. Deem and Ramdas Pophale) SiO2 
 PCOD9277123
Probable space group: C 2/C
;
_chemical_formula_sum "Si O2"
_cell_formula_units_Z 60
_cell_length_a 13.781835
_cell_length_b 8.315667
_cell_length_c 27.721729
_cell_angle_alpha 90.000000
_cell_angle_beta 112.742911
_cell_angle_gamma 90.000000
_cell_volume 2930.033282
_symmetry_space_group_name_H-M "C 2/C"
_symmetry_group_IT_number 15
_symmetry_cell_setting 'monoclinic'
loop_
_space_group_symop_operation_xyz
x,y,z
-x,y,1/2-z
-x,-y,-z
x,-y,1/2+z
1/2+x,1/2+y,z
1/2-x,1/2+y,1/2-z
1/2-x,1/2-y,-z
1/2+x,1/2-y,1/2+z
loop_
_atom_site_type_symbol
_atom_site_label
_atom_site_fract_x
_atom_site_fract_y
_atom_site_fract_z
Si Si1 0.272340 0.893138 0.224267
Si Si2 0.772726 0.162981 0.933964
Si Si3 0.922147 0.867405 0.648713
Si Si4 0.889067 0.957901 0.877810
Si Si5 0.754469 0.031162 0.180352
Si Si6 0.500000 0.154043 0.750000
Si Si7 0.898119 0.607413 0.922729
Si Si8 0.139126 0.455702 0.487476
O O1 0.258687 0.710222 0.203471
O O2 0.391356 0.940978 0.233140
O O3 0.188367 0.003916 0.181303
O O4 0.258424 0.909963 0.278372
O O5 0.671384 0.254510 0.890852
O O6 0.721395 0.031354 0.959895
O O7 0.852396 0.086471 0.910898
O O8 0.832571 0.291652 0.978515
O O9 0.860954 0.993270 0.670642
O O10 0.991135 0.761816 0.699548
O O11 0.993378 0.949688 0.621787
O O12 0.875200 0.783254 0.898319
O O13 0.661465 0.013817 0.124228
O O14 0.021272 0.565594 0.945499
O O15 0.860091 0.587718 0.970418
#
# Coordination Sequence:
#
# PCOD9277123 Si02
#       8
#     8   8   8   8   8   4   8   8
#     4  11  23  40  68 101 129 179 219 270 342 418
#     4  11  22  45  68  94 128 179 228 267 333 418
#     4  11  21  42  67  96 131 182 215 277 334 408
#     4  12  23  40  70  99 127 174 228 269 343 411
#     4  11  22  42  66  95 138 170 223 274 337 408
#     4  10  20  40  68  92 134 174 212 264 352 396
#     4  11  22  40  67  97 131 174 217 287 336 389
#     4  10  23  43  67  94 134 177 221 280 341 385
#
# _framework density 20.477582999999999
#
# number of rings (size 3 to 8) (size 9 to 14) (size 15 to 20)
#    0.000    1.067    5.333    3.200    0.000    1.067 
#    0.000    6.667    0.000    2.400    0.000    0.000 
#    0.000    0.000    0.000    0.000    0.000    0.000 
#
# Total GULP energy -167534.880929 kJ/mol
# GULP energy per Si atom -5584.496031 kJ/mol
# Density = 2.043098 g / cm^3
# Si number density = 20.477583 Si / 1000 Ang^3
#
#
#
# Elastic Constant Matrix: (Units=GPa)
#
#
# Indices 1 2 3 4 5 6 
#
# 1 149.1126 49.7047 48.5983 0.0000 -26.0223 0.0000
# 2 49.7047 45.4562 24.6586 0.0000 2.6612 0.0000
# 3 48.5983 24.6586 89.4057 0.0000 0.2355 0.0000
# 4 0.0000 0.0000 0.0000 20.7756 0.0000 -12.0648
# 5 -26.0223 2.6612 0.2355 0.0000 39.5308 0.0000
# 6 0.0000 0.0000 0.0000 -12.0648 0.0000 30.3917
#
#
#
# Elastic Compliance Matrix: (Units=1/GPa)
#
#
# Indices 1 2 3 4 5 6 
#
# 1 0.014741 -0.014562 -0.004025 0.000000 0.010708 0.000000
# 2 -0.014562 0.040370 -0.003186 0.000000 -0.012285 0.000000
# 3 -0.004025 -0.003186 0.014258 0.000000 -0.002520 0.000000
# 4 0.000000 0.000000 0.000000 0.062554 0.000000 0.024833
# 5 0.010708 -0.012285 -0.002520 0.000000 0.033188 0.000000
# 6 0.000000 0.000000 0.000000 0.024833 0.000000 0.042762
#
#
# Mechanical properties :
#
#
# Convention : Reuss Voigt Hill
#
# Bulk Modulus (GPa) = 38.72548 58.87753 48.80150
# Shear Modulus (GPa) = 19.22881 28.87380 24.05131
#
# Velocity S-wave (km/s) = 3.06766 3.75910 3.43084
# Velocity P-wave (km/s) = 5.61245 6.90331 6.29108
#
# Compressibility (1/GPa) = 0.02582279
#
# Stress axis : x y z
#
# Youngs Moduli (GPa) = 67.83875 24.77074 70.13585
#
# Poissons Ratio (x) = 0.36072 0.28227
# Poissons Ratio (y) = 0.98789 0.22348
# Poissons Ratio (z) = 0.27302 0.07893
#
# Static dielectric constant tensor:
#      x y z
#    x 1.753210 0.000000 -0.021240 
#    y 0.000000 1.732110 0.000000 
#    z -0.021240 0.000000 1.751920 
# 
# From -- ./inp_files/310359.got.cif
#   From: 2010.05.17/outbox.cif.g08.bks.cpg/sg15_156_cif.got.tgz:310359.got - 2010.06.03 18:47:42.
