data_PCOD9277240
_publ_section_title
;
Structure prediction by ZEFSAII (Michael W. Deem and Ramdas Pophale) SiO2 
 PCOD9277240
Probable space group: C 2/C
;
_chemical_formula_sum "Si O2"
_cell_formula_units_Z 48
_cell_length_a 24.646559
_cell_length_b 15.363576
_cell_length_c 18.724228
_cell_angle_alpha 90.000000
_cell_angle_beta 18.901087
_cell_angle_gamma 90.000000
_cell_volume 2296.735032
_symmetry_space_group_name_H-M "C 2/C"
_symmetry_group_IT_number 15
_symmetry_cell_setting 'monoclinic'
loop_
_space_group_symop_operation_xyz
x,y,z
-x,y,1/2-z
-x,-y,-z
x,-y,1/2+z
1/2+x,1/2+y,z
1/2-x,1/2+y,1/2-z
1/2-x,1/2-y,-z
1/2+x,1/2-y,1/2+z
loop_
_atom_site_type_symbol
_atom_site_label
_atom_site_fract_x
_atom_site_fract_y
_atom_site_fract_z
Si Si1 0.747148 0.605544 0.009520
Si Si2 0.500000 0.980293 0.750000
Si Si3 0.607023 0.751253 0.913862
Si Si4 0.376365 0.663742 0.992207
Si Si5 0.000000 0.984147 0.250000
Si Si6 0.745085 0.745210 0.887014
Si Si7 0.269603 0.660093 0.866569
O O1 0.588458 0.542831 0.199179
O O2 0.754768 0.663724 0.071181
O O3 0.733621 0.670524 0.959851
O O4 0.910025 0.544200 0.805800
O O5 0.647182 0.919045 0.536118
O O6 0.732917 0.827154 0.731371
O O7 0.603916 0.741853 0.002751
O O8 0.671356 0.667403 0.789806
O O9 0.416610 0.767630 0.129587
O O10 0.368417 0.579297 0.952685
O O11 0.561538 0.663858 0.796457
O O12 0.333467 0.749310 0.998713
#
# Coordination Sequence:
#
# PCOD9277240 Si02
#       7
#     8   4   8   8   4   8   8
#     4  11  26  40  65  90 122 174 207 276 300 367
#     4  12  23  41  62 100 130 154 216 253 323 372
#     4  10  20  40  70  90 118 174 206 258 308 388
#     4  10  22  40  66  96 126 166 197 255 322 377
#     4  12  23  41  62 100 130 154 216 253 323 372
#     4  11  22  46  64  85 124 168 228 249 316 368
#     4  10  22  40  66  96 126 166 197 255 322 377
#
# _framework density 20.899232999999999
#
# number of rings (size 3 to 8) (size 9 to 14) (size 15 to 20)
#    1.000    0.333    3.333    2.500    2.333    4.000 
#    0.000   10.000    0.000    0.000    0.000    0.000 
#    0.000    0.000    0.000    0.000    0.000    0.000 
#
# Total GULP energy -133861.143708 kJ/mol
# GULP energy per Si atom -5577.547655 kJ/mol
# Density = 2.085167 g / cm^3
# Si number density = 20.899233 Si / 1000 Ang^3
#
#
#
# Elastic Constant Matrix: (Units=GPa)
#
#
# Indices 1 2 3 4 5 6 
#
# 1 59.4808 20.4623 -7.3565 0.0052 2.4660 -0.0092
# 2 20.4623 99.8384 18.6815 0.0012 -3.5788 -0.0012
# 3 -7.3565 18.6815 72.4999 0.0016 -5.1777 -0.0026
# 4 0.0052 0.0012 0.0016 -17.3949 0.0025 8.6733
# 5 2.4660 -3.5788 -5.1777 0.0025 33.7324 -0.0054
# 6 -0.0092 -0.0012 -0.0026 8.6733 -0.0054 -22.3841
#
#
#
# Elastic Compliance Matrix: (Units=1/GPa)
#
#
# Indices 1 2 3 4 5 6 
#
# 1 0.018765 -0.004448 0.002951 0.000002 -0.001391 -0.000007
# 2 -0.004448 0.011595 -0.003365 0.000000 0.001039 0.000001
# 3 0.002951 -0.003365 0.015084 0.000001 0.001743 -0.000003
# 4 0.000002 0.000000 0.000001 -0.071254 0.000001 -0.027609
# 5 -0.001391 0.001039 0.001743 0.000001 0.030124 -0.000007
# 6 -0.000007 0.000001 -0.000003 -0.027609 -0.000007 -0.055372
#
#
# Mechanical properties :
#
#
# Convention : Reuss Voigt Hill
#
# Bulk Modulus (GPa) = 27.99566 32.82151 30.40859
# Shear Modulus (GPa) = -169.90324 12.12614 -78.88855
#
# Velocity S-wave (km/s) = -9.02623 2.41139 -6.15053
# Velocity P-wave (km/s) = 9.75735 4.84683 5.98808
#
# Compressibility (1/GPa) = 0.03571982
#
# Stress axis : x y z
#
# Youngs Moduli (GPa) = 53.29092 86.24657 66.29532
#
# Poissons Ratio (x) = 0.38362 -0.19563
# Poissons Ratio (y) = 0.23704 0.22307
# Poissons Ratio (z) = -0.15725 0.29020
#
# Static dielectric constant tensor:
#      x y z
#    x 1.749860 0.000000 0.018590 
#    y 0.000000 1.736000 0.000000 
#    z 0.018590 0.000000 1.768150 
# 
# From -- ./inp_files/66445.got.cif
#   From: 2010.05.17/outbox.cif.g08.bks.cpg/sg15_34_cif.got.tgz:66445.got - 2010.06.03 18:47:42.
