data_PCOD9277183
_publ_section_title
;
Structure prediction by ZEFSAII (Michael W. Deem and Ramdas Pophale) SiO2 
 PCOD9277183
Probable space group: C 2/C
;
_chemical_formula_sum "Si O2"
_cell_formula_units_Z 56
_cell_length_a 5.195410
_cell_length_b 15.028619
_cell_length_c 30.888665
_cell_angle_alpha 90.000000
_cell_angle_beta 114.983126
_cell_angle_gamma 90.000000
_cell_volume 2186.116840
_symmetry_space_group_name_H-M "C 2/C"
_symmetry_group_IT_number 15
_symmetry_cell_setting 'monoclinic'
loop_
_space_group_symop_operation_xyz
x,y,z
-x,y,1/2-z
-x,-y,-z
x,-y,1/2+z
1/2+x,1/2+y,z
1/2-x,1/2+y,1/2-z
1/2-x,1/2-y,-z
1/2+x,1/2-y,1/2+z
loop_
_atom_site_type_symbol
_atom_site_label
_atom_site_fract_x
_atom_site_fract_y
_atom_site_fract_z
Si Si1 0.781738 0.062407 0.763819
Si Si2 0.010528 0.380633 0.613110
Si Si3 0.384444 0.302516 0.412792
Si Si4 0.176359 0.632072 0.221862
Si Si5 0.554685 0.447387 0.960137
Si Si6 0.585790 0.544202 0.872534
Si Si7 0.532840 0.825782 0.470846
O O1 0.500000 0.117127 0.750000
O O2 0.000000 0.114337 0.750000
O O3 0.697528 0.975666 0.729744
O O4 0.908377 0.025230 0.817050
O O5 0.182945 0.300902 0.602030
O O6 0.699280 0.379327 0.569472
O O7 0.027913 0.356025 0.665039
O O8 0.136509 0.480859 0.617200
O O9 0.466021 0.355014 0.374054
O O10 0.135388 0.339440 0.427375
O O11 0.702959 0.308512 0.455615
O O12 0.500000 0.663209 0.250000
O O13 0.000000 0.665764 0.250000
O O14 0.536637 0.509147 0.917308
O O15 0.500000 0.500000 0.000000
O O16 0.860825 0.405034 0.990879
O O17 0.750000 0.750000 0.500000
#
# Coordination Sequence:
#
# PCOD9277183 Si02
#       7
#     8   8   8   8   8   8   8
#     4  10  20  40  69 101 136 181 232 295 366 432
#     4  12  26  45  75 105 143 202 238 310 377 442
#     4  12  29  46  70 108 149 186 250 305 363 440
#     4  10  20  40  69 103 133 179 239 288 359 445
#     4  12  25  42  72 101 142 196 249 289 366 440
#     4  12  26  45  74 108 145 193 249 310 367 454
#     4  12  25  48  69  98 149 197 239 303 360 434
#
# _framework density 25.616199000000002
#
# number of rings (size 3 to 8) (size 9 to 14) (size 15 to 20)
#    0.000    0.571    5.714    3.857    2.000    1.143 
#    0.000    1.429    0.000    0.000    0.000    0.000 
#    0.000    0.000    0.000    0.000    0.000    0.000 
#
# Total GULP energy -156102.664670 kJ/mol
# GULP energy per Si atom -5575.095167 kJ/mol
# Density = 2.555790 g / cm^3
# Si number density = 25.616199 Si / 1000 Ang^3
#
#
#
# Elastic Constant Matrix: (Units=GPa)
#
#
# Indices 1 2 3 4 5 6 
#
# 1 138.0348 -10.2344 51.4251 0.0000 -9.5069 0.0000
# 2 -10.2344 76.9319 15.3900 0.0000 -6.2926 0.0000
# 3 51.4251 15.3900 162.1666 0.0000 -24.7793 0.0000
# 4 0.0000 0.0000 0.0000 -35.6983 0.0000 21.2662
# 5 -9.5069 -6.2926 -24.7793 0.0000 31.9060 0.0000
# 6 0.0000 0.0000 0.0000 21.2662 0.0000 -2.9083
#
#
#
# Elastic Compliance Matrix: (Units=1/GPa)
#
#
# Indices 1 2 3 4 5 6 
#
# 1 0.008440 0.001729 -0.002728 0.000000 0.000737 0.000000
# 2 0.001729 0.013702 -0.001540 0.000000 0.002022 0.000000
# 3 -0.002728 -0.001540 0.007951 0.000000 0.005058 0.000000
# 4 0.000000 0.000000 0.000000 0.008347 0.000000 0.061034
# 5 0.000737 0.002022 0.005058 0.000000 0.035889 0.000000
# 6 0.000000 0.000000 0.000000 0.061034 0.000000 0.102455
#
#
# Mechanical properties :
#
#
# Convention : Reuss Voigt Hill
#
# Bulk Modulus (GPa) = 39.97632 54.47720 47.22676
# Shear Modulus (GPa) = 26.28839 20.03005 23.15922
#
# Velocity S-wave (km/s) = 3.20697 2.79933 3.01006
# Velocity P-wave (km/s) = 5.41781 5.63571 5.52783
#
# Compressibility (1/GPa) = 0.02501481
#
# Stress axis : x y z
#
# Youngs Moduli (GPa) = 118.48726 72.98286 125.77796
#
# Poissons Ratio (x) = -0.12617 0.34309
# Poissons Ratio (y) = -0.20483 0.19365
# Poissons Ratio (z) = 0.32320 0.11237
#
# Static dielectric constant tensor:
#      x y z
#    x 2.204280 0.000000 -0.043730 
#    y 0.000000 2.214940 0.000000 
#    z -0.043730 0.000000 2.020510 
# 
# From -- ./inp_files/305843.got.cif
#   From: 2010.05.17/outbox.cif.g08.bks.cpg/sg15_153_cif.got.tgz:305843.got - 2010.06.03 18:47:42.
