data_PCOD9277236
_publ_section_title
;
Structure prediction by ZEFSAII (Michael W. Deem and Ramdas Pophale) SiO2 
 PCOD9277236
Probable space group: C 2/C
;
_chemical_formula_sum "Si O2"
_cell_formula_units_Z 28
_cell_length_a 6.830665
_cell_length_b 12.982125
_cell_length_c 12.877946
_cell_angle_alpha 90.000000
_cell_angle_beta 113.525036
_cell_angle_gamma 90.000000
_cell_volume 1047.057653
_symmetry_space_group_name_H-M "C 2/C"
_symmetry_group_IT_number 15
_symmetry_cell_setting 'monoclinic'
loop_
_space_group_symop_operation_xyz
x,y,z
-x,y,1/2-z
-x,-y,-z
x,-y,1/2+z
1/2+x,1/2+y,z
1/2-x,1/2+y,1/2-z
1/2-x,1/2-y,-z
1/2+x,1/2-y,1/2+z
loop_
_atom_site_type_symbol
_atom_site_label
_atom_site_fract_x
_atom_site_fract_y
_atom_site_fract_z
Si Si1 0.282357 0.078253 0.502120
Si Si2 0.000000 0.648214 0.750000
Si Si3 0.240128 0.151524 0.279002
Si Si4 0.677471 0.356025 0.535919
O O1 0.443556 0.090294 0.632381
O O2 0.363635 0.116798 0.407712
O O3 0.074295 0.146702 0.486694
O O4 0.205496 0.960498 0.477120
O O5 0.197574 0.725731 0.770524
O O6 0.290213 0.126319 0.171501
O O7 0.000000 0.106634 0.250000
O O8 0.750000 0.250000 0.500000
#
# Coordination Sequence:
#
# PCOD9277236 Si02
#       4
#     8   4   8   8
#     4  10  21  43  68  93 139 180 224 278 350 401
#     4  10  20  40  70  88 124 190 220 266 346 422
#     4   8  19  38  66  88 128 178 217 275 342 397
#     4  10  22  42  66 101 132 175 231 287 333 410
#
# _framework density 26.741603999999999
#
# number of rings (size 3 to 8) (size 9 to 14) (size 15 to 20)
#    0.857    1.714    0.000    0.857    0.000    2.286 
#    5.143    5.714    0.000    0.000    0.000    0.000 
#    0.000    0.000    0.000    0.000    0.000    0.000 
#
# Total GULP energy -78364.405813 kJ/mol
# GULP energy per Si atom -5597.457558 kJ/mol
# Density = 2.668074 g / cm^3
# Si number density = 26.741604 Si / 1000 Ang^3
#
#
#
# Elastic Constant Matrix: (Units=GPa)
#
#
# Indices 1 2 3 4 5 6 
#
# 1 101.8169 54.7232 61.9736 0.0000 -22.0690 0.0000
# 2 54.7232 154.5899 73.7159 0.0000 -41.9719 0.0000
# 3 61.9736 73.7159 248.3674 0.0000 -27.9506 0.0000
# 4 0.0000 0.0000 0.0000 33.7326 0.0000 -10.9958
# 5 -22.0690 -41.9719 -27.9506 0.0000 52.0130 0.0000
# 6 0.0000 0.0000 0.0000 -10.9958 0.0000 46.4413
#
#
#
# Elastic Compliance Matrix: (Units=1/GPa)
#
#
# Indices 1 2 3 4 5 6 
#
# 1 0.013236 -0.003134 -0.002155 0.000000 0.001929 0.000000
# 2 -0.003134 0.009874 -0.001492 0.000000 0.005837 0.000000
# 3 -0.002155 -0.001492 0.005075 0.000000 0.000609 0.000000
# 4 0.000000 0.000000 0.000000 0.032124 0.000000 0.007606
# 5 0.001929 0.005837 0.000609 0.000000 0.025081 0.000000
# 6 0.000000 0.000000 0.000000 0.007606 0.000000 0.023333
#
#
# Mechanical properties :
#
#
# Convention : Reuss Voigt Hill
#
# Bulk Modulus (GPa) = 68.38486 98.39995 83.39240
# Shear Modulus (GPa) = 39.32009 47.39481 43.35745
#
# Velocity S-wave (km/s) = 3.83870 4.21447 4.03096
# Velocity P-wave (km/s) = 6.72871 7.78195 7.27442
#
# Compressibility (1/GPa) = 0.01462312
#
# Stress axis : x y z
#
# Youngs Moduli (GPa) = 75.55168 101.27476 197.02641
#
# Poissons Ratio (x) = 0.31738 0.42469
# Poissons Ratio (y) = 0.23677 0.29393
# Poissons Ratio (z) = 0.16285 0.15109
#
# Static dielectric constant tensor:
#      x y z
#    x 2.214180 0.000000 0.079890 
#    y 0.000000 2.020290 0.000000 
#    z 0.079890 0.000000 2.082130 
# 
# From -- ./inp_files/75727.got.cif
#   From: 2010.05.17/outbox.cif.g08.bks.cpg/sg15_38_cif.got.tgz:75727.got - 2010.06.03 18:47:42.
