data_PCOD9277207
_publ_section_title
;
Structure prediction by ZEFSAII (Michael W. Deem and Ramdas Pophale) SiO2 
 PCOD9277207
Probable space group: C 2/C
;
_chemical_formula_sum "Si O2"
_cell_formula_units_Z 32
_cell_length_a 8.612342
_cell_length_b 17.894084
_cell_length_c 9.934672
_cell_angle_alpha 90.000000
_cell_angle_beta 67.457930
_cell_angle_gamma 90.000000
_cell_volume 1414.058558
_symmetry_space_group_name_H-M "C 2/C"
_symmetry_group_IT_number 15
_symmetry_cell_setting 'monoclinic'
loop_
_space_group_symop_operation_xyz
x,y,z
-x,y,1/2-z
-x,-y,-z
x,-y,1/2+z
1/2+x,1/2+y,z
1/2-x,1/2+y,1/2-z
1/2-x,1/2-y,-z
1/2+x,1/2-y,1/2+z
loop_
_atom_site_type_symbol
_atom_site_label
_atom_site_fract_x
_atom_site_fract_y
_atom_site_fract_z
Si Si1 0.389519 0.903671 0.152234
Si Si2 0.077459 0.123716 0.926157
Si Si3 0.843499 0.997070 0.899513
Si Si4 0.941830 0.277975 0.925983
O O1 0.500000 0.904907 0.250000
O O2 0.203201 0.873447 0.257854
O O3 0.328292 0.983652 0.117768
O O4 0.459130 0.851765 0.010635
O O5 0.037607 0.209030 0.965983
O O6 0.174726 0.075092 0.003272
O O7 0.912660 0.070704 0.957172
O O8 0.000000 0.981029 0.750000
O O9 0.000000 0.286252 0.750000
O O10 0.750000 0.250000 0.000000
#
# Coordination Sequence:
#
# PCOD9277207 Si02
#       4
#     8   8   8   8
#     4  11  24  42  66 105 147 177 231 304 356 415
#     4  10  20  40  69  95 134 187 238 283 347 427
#     4   9  19  40  67  94 133 192 236 280 348 430
#     4  12  22  44  74 103 140 186 237 293 353 424
#
# _framework density 22.629895999999999
#
# number of rings (size 3 to 8) (size 9 to 14) (size 15 to 20)
#    0.000    1.500    5.000    0.750    0.000    3.000 
#    4.500    1.250    0.000    0.000    0.000    0.000 
#    0.000    0.000    0.000    0.000    0.000    0.000 
#
# Total GULP energy -89277.284075 kJ/mol
# GULP energy per Si atom -5579.830255 kJ/mol
# Density = 2.257839 g / cm^3
# Si number density = 22.629896 Si / 1000 Ang^3
#
#
#
# Elastic Constant Matrix: (Units=GPa)
#
#
# Indices 1 2 3 4 5 6 
#
# 1 102.8960 46.8942 48.6569 0.0000 16.2830 0.0000
# 2 46.8942 128.1349 80.0448 0.0000 20.6587 0.0000
# 3 48.6569 80.0448 137.5348 0.0000 8.9326 0.0000
# 4 0.0000 0.0000 0.0000 41.9027 0.0000 7.0664
# 5 16.2830 20.6587 8.9326 0.0000 42.2347 0.0000
# 6 0.0000 0.0000 0.0000 7.0664 0.0000 23.4008
#
#
#
# Elastic Compliance Matrix: (Units=1/GPa)
#
#
# Indices 1 2 3 4 5 6 
#
# 1 0.012647 -0.002286 -0.002940 0.000000 -0.003136 0.000000
# 2 -0.002286 0.013604 -0.006827 0.000000 -0.004329 0.000000
# 3 -0.002940 -0.006827 0.012161 0.000000 0.001901 0.000000
# 4 0.000000 0.000000 0.000000 0.025145 0.000000 -0.007593
# 5 -0.003136 -0.004329 0.001901 0.000000 0.026601 0.000000
# 6 0.000000 0.000000 0.000000 -0.007593 0.000000 0.045027
#
#
# Mechanical properties :
#
#
# Convention : Reuss Voigt Hill
#
# Bulk Modulus (GPa) = 69.90792 79.97306 74.94049
# Shear Modulus (GPa) = 30.47644 34.37229 32.42437
#
# Velocity S-wave (km/s) = 3.67377 3.90152 3.78936
# Velocity P-wave (km/s) = 6.99674 7.46405 7.23417
#
# Compressibility (1/GPa) = 0.01430453
#
# Stress axis : x y z
#
# Youngs Moduli (GPa) = 79.07019 73.50772 82.22960
#
# Poissons Ratio (x) = 0.16807 0.24175
# Poissons Ratio (y) = 0.18079 0.56142
# Poissons Ratio (z) = 0.23246 0.50187
#
# Static dielectric constant tensor:
#      x y z
#    x 1.902270 0.000000 0.015970 
#    y 0.000000 1.861430 0.000000 
#    z 0.015970 0.000000 1.948050 
# 
# From -- ./inp_files/30016.got.cif
#   From: 2010.05.17/outbox.cif.g08.bks.cpg/sg15_16_cif.got.tgz:30016.got - 2010.06.03 18:47:42.
