data_PCOD9277585
_publ_section_title
;
Structure prediction by ZEFSAII (Michael W. Deem and Ramdas Pophale) SiO2 
 PCOD9277585
Probable space group: C 2/C
;
_chemical_formula_sum "Si O2"
_cell_formula_units_Z 44
_cell_length_a 21.071681
_cell_length_b 11.248298
_cell_length_c 15.622389
_cell_angle_alpha 90.000000
_cell_angle_beta 25.784444
_cell_angle_gamma 90.000000
_cell_volume 1610.680372
_symmetry_space_group_name_H-M "C 2/C"
_symmetry_group_IT_number 15
_symmetry_cell_setting 'monoclinic'
loop_
_space_group_symop_operation_xyz
x,y,z
-x,y,1/2-z
-x,-y,-z
x,-y,1/2+z
1/2+x,1/2+y,z
1/2-x,1/2+y,1/2-z
1/2-x,1/2-y,-z
1/2+x,1/2-y,1/2+z
loop_
_atom_site_type_symbol
_atom_site_label
_atom_site_fract_x
_atom_site_fract_y
_atom_site_fract_z
Si Si1 0.108576 0.619290 0.513267
Si Si2 0.675276 0.477893 0.047812
Si Si3 0.369978 0.133559 0.459915
Si Si4 0.403181 0.314609 0.101901
Si Si5 0.868134 0.070584 0.076679
Si Si6 0.250000 0.750000 0.500000
O O1 0.051886 0.486355 0.597422
O O2 0.038047 0.706651 0.528205
O O3 0.265997 0.593593 0.281179
O O4 0.144185 0.690646 0.554881
O O5 0.500000 0.466073 0.250000
O O6 0.711771 0.615567 0.012476
O O7 0.754313 0.409716 0.028470
O O8 0.725156 0.426695 0.895887
O O9 0.500000 0.198884 0.250000
O O10 0.265401 0.186943 0.661479
O O11 0.421473 0.434187 0.022810
O O12 0.500194 0.339211 0.067414
#
# Coordination Sequence:
#
# PCOD9277585 Si02
#       6
#     8   8   8   8   8   4
#     4  10  22  39  64  98 133 175 228 291 337 409
#     4  11  21  41  69  98 135 178 229 277 339 417
#     4  10  23  42  67 102 141 178 225 292 353 405
#     4  10  20  41  65  96 139 179 231 281 347 416
#     4  10  21  40  66  97 131 183 230 283 342 409
#     4  10  22  34  64 104 126 164 224 288 338 388
#
# _framework density 27.317647000000001
#
# number of rings (size 3 to 8) (size 9 to 14) (size 15 to 20)
#    0.000    1.818    3.636    0.000    2.545    5.818 
#    3.273    3.636    0.000    0.000    0.000    0.000 
#    0.000    0.000    0.000    0.000    0.000    0.000 
#
# Total GULP energy -122660.029720 kJ/mol
# GULP energy per Si atom -5575.455896 kJ/mol
# Density = 2.725547 g / cm^3
# Si number density = 27.317647 Si / 1000 Ang^3
#
#
#
# Elastic Constant Matrix: (Units=GPa)
#
#
# Indices 1 2 3 4 5 6 
#
# 1 147.5936 53.5440 24.4233 0.0000 9.5429 0.0000
# 2 53.5440 145.3809 17.0538 0.0000 2.6532 0.0000
# 3 24.4233 17.0538 86.9717 0.0000 -6.0814 0.0000
# 4 0.0000 0.0000 0.0000 24.4505 0.0000 4.8291
# 5 9.5429 2.6532 -6.0814 0.0000 23.5696 0.0000
# 6 0.0000 0.0000 0.0000 4.8291 0.0000 46.7996
#
#
#
# Elastic Compliance Matrix: (Units=1/GPa)
#
#
# Indices 1 2 3 4 5 6 
#
# 1 0.008353 -0.002770 -0.002054 0.000000 -0.003600 0.000000
# 2 -0.002770 0.007991 -0.000788 0.000000 0.000019 0.000000
# 3 -0.002054 -0.000788 0.012520 0.000000 0.004151 0.000000
# 4 0.000000 0.000000 0.000000 0.041750 0.000000 -0.004308
# 5 -0.003600 0.000019 0.004151 0.000000 0.044954 0.000000
# 6 0.000000 0.000000 0.000000 -0.004308 0.000000 0.021812
#
#
# Mechanical properties :
#
#
# Convention : Reuss Voigt Hill
#
# Bulk Modulus (GPa) = 56.69061 63.33205 60.01133
# Shear Modulus (GPa) = 32.36613 37.95894 35.16254
#
# Velocity S-wave (km/s) = 3.44584 3.73170 3.59161
# Velocity P-wave (km/s) = 6.05220 6.46539 6.26221
#
# Compressibility (1/GPa) = 0.01763961
#
# Stress axis : x y z
#
# Youngs Moduli (GPa) = 119.71940 125.14653 79.87491
#
# Poissons Ratio (x) = 0.34662 0.16409
# Poissons Ratio (y) = 0.33159 0.06292
# Poissons Ratio (z) = 0.24594 0.09858
#
# Static dielectric constant tensor:
#      x y z
#    x 2.157360 0.000000 0.025610 
#    y 0.000000 2.152020 0.000000 
#    z 0.025610 0.000000 2.316890 
# 
# From -- ./inp_files/168399.got.cif
#   From: 2010.05.17/outbox.cif.g08.bks.cpg/sg15_85_cif.got.tgz:168399.got - 2010.06.03 18:47:42.
