data_PCOD9277254
_publ_section_title
;
Structure prediction by ZEFSAII (Michael W. Deem and Ramdas Pophale) SiO2 
 PCOD9277254
Probable space group: C 2/C
;
_chemical_formula_sum "Si O2"
_cell_formula_units_Z 56
_cell_length_a 7.777466
_cell_length_b 15.082414
_cell_length_c 22.978058
_cell_angle_alpha 90.000000
_cell_angle_beta 72.487973
_cell_angle_gamma 90.000000
_cell_volume 2570.473007
_symmetry_space_group_name_H-M "C 2/C"
_symmetry_group_IT_number 15
_symmetry_cell_setting 'monoclinic'
loop_
_space_group_symop_operation_xyz
x,y,z
-x,y,1/2-z
-x,-y,-z
x,-y,1/2+z
1/2+x,1/2+y,z
1/2-x,1/2+y,1/2-z
1/2-x,1/2-y,-z
1/2+x,1/2-y,1/2+z
loop_
_atom_site_type_symbol
_atom_site_label
_atom_site_fract_x
_atom_site_fract_y
_atom_site_fract_z
Si Si1 0.462749 0.776001 0.816071
Si Si2 0.672190 0.484499 0.408325
Si Si3 0.817046 0.920707 0.701810
Si Si4 0.285840 0.380581 0.831703
Si Si5 0.314138 0.811336 0.066858
Si Si6 0.537180 0.356573 0.996688
Si Si7 0.548254 0.004072 0.927296
O O1 0.500000 0.729065 0.750000
O O2 0.345478 0.862331 0.807727
O O3 0.651795 0.801651 0.827179
O O4 0.337747 0.730907 0.876818
O O5 0.654620 0.493657 0.341222
O O6 0.613091 0.392308 0.443451
O O7 0.554366 0.564388 0.448326
O O8 0.871470 0.509919 0.407502
O O9 0.782315 0.939732 0.772870
O O10 0.003052 0.863776 0.679569
O O11 0.197474 0.433272 0.893709
O O12 0.464895 0.738462 0.034439
O O13 0.388740 0.896690 0.090990
O O14 0.217603 0.846778 0.017771
O O15 0.500000 0.000000 0.000000
#
# Coordination Sequence:
#
# PCOD9277254 Si02
#       7
#     8   8   8   8   8   8   8
#     4  10  21  42  68  91 123 168 211 264 325 381
#     4  11  21  41  63  93 127 170 213 261 315 385
#     4  10  20  40  70  93 122 163 220 264 311 387
#     4  10  22  40  67  95 120 168 217 260 320 383
#     4  11  22  41  59  92 131 163 210 266 321 374
#     4  10  22  37  62  88 125 169 206 261 320 378
#     4  12  24  38  62  95 128 170 212 259 317 383
#
# _framework density 21.785872000000001
#
# number of rings (size 3 to 8) (size 9 to 14) (size 15 to 20)
#    0.000    1.429    4.286    0.857    4.000    0.571 
#    7.714    0.000    0.000    0.000    0.000    0.000 
#    0.000    0.000    0.000    0.000    0.000    0.000 
#
# Total GULP energy -156280.642489 kJ/mol
# GULP energy per Si atom -5581.451517 kJ/mol
# Density = 2.173629 g / cm^3
# Si number density = 21.785872 Si / 1000 Ang^3
#
#
#
# Elastic Constant Matrix: (Units=GPa)
#
#
# Indices 1 2 3 4 5 6 
#
# 1 82.0714 -2.6000 4.7752 0.0000 -6.5099 0.0000
# 2 -2.6000 25.9132 18.6304 0.0000 -3.5304 0.0000
# 3 4.7752 18.6304 116.5889 0.0000 -2.6537 0.0000
# 4 0.0000 0.0000 0.0000 14.3525 0.0000 -2.2004
# 5 -6.5099 -3.5304 -2.6537 0.0000 28.2283 0.0000
# 6 0.0000 0.0000 0.0000 -2.2004 0.0000 23.3554
#
#
#
# Elastic Compliance Matrix: (Units=1/GPa)
#
#
# Indices 1 2 3 4 5 6 
#
# 1 0.012549 0.002260 -0.000805 0.000000 0.003101 0.000000
# 2 0.002260 0.044667 -0.007106 0.000000 0.005439 0.000000
# 3 -0.000805 -0.007106 0.009742 0.000000 -0.000158 0.000000
# 4 0.000000 0.000000 0.000000 0.070695 0.000000 0.006660
# 5 0.003101 0.005439 -0.000158 0.000000 0.036806 0.000000
# 6 0.000000 0.000000 0.000000 0.006660 0.000000 0.043444
#
#
# Mechanical properties :
#
#
# Convention : Reuss Voigt Hill
#
# Bulk Modulus (GPa) = 17.96741 29.57608 23.77175
# Shear Modulus (GPa) = 20.18100 26.77176 23.47638
#
# Velocity S-wave (km/s) = 3.04688 3.50931 3.28624
# Velocity P-wave (km/s) = 4.54347 5.47957 5.03333
#
# Compressibility (1/GPa) = 0.05565632
#
# Stress axis : x y z
#
# Youngs Moduli (GPa) = 79.68835 22.38776 102.64772
#
# Poissons Ratio (x) = -0.05060 0.08258
# Poissons Ratio (y) = -0.18009 0.72945
# Poissons Ratio (z) = 0.06411 0.15910
#
# Static dielectric constant tensor:
#      x y z
#    x 1.807520 0.000000 -0.016380 
#    y 0.000000 1.785180 0.000000 
#    z -0.016380 0.000000 1.852940 
# 
# From -- ./inp_files/264232.got.cif
#   From: 2010.05.17/outbox.cif.g08.bks.cpg/sg15_133_cif.got.tgz:264232.got - 2010.06.03 18:47:42.
