data_PCOD9277474
_publ_section_title
;
Structure prediction by ZEFSAII (Michael W. Deem and Ramdas Pophale) SiO2 
 PCOD9277474
Probable space group: C 2/C
;
_chemical_formula_sum "Si O2"
_cell_formula_units_Z 52
_cell_length_a 24.651917
_cell_length_b 5.370676
_cell_length_c 17.254269
_cell_angle_alpha 90.000000
_cell_angle_beta 63.424736
_cell_angle_gamma 90.000000
_cell_volume 2043.066457
_symmetry_space_group_name_H-M "C 2/C"
_symmetry_group_IT_number 15
_symmetry_cell_setting 'monoclinic'
loop_
_space_group_symop_operation_xyz
x,y,z
-x,y,1/2-z
-x,-y,-z
x,-y,1/2+z
1/2+x,1/2+y,z
1/2-x,1/2+y,1/2-z
1/2-x,1/2-y,-z
1/2+x,1/2-y,1/2+z
loop_
_atom_site_type_symbol
_atom_site_label
_atom_site_fract_x
_atom_site_fract_y
_atom_site_fract_z
Si Si1 0.369871 0.210756 0.720204
Si Si2 0.598700 0.074377 0.155048
Si Si3 0.613985 0.725708 0.880443
Si Si4 0.255790 0.304599 0.125830
Si Si5 0.688701 0.454511 0.044386
Si Si6 0.000000 0.044502 0.750000
Si Si7 0.562016 0.290898 0.572356
O O1 0.379078 0.481571 0.677784
O O2 0.297595 0.159061 0.778027
O O3 0.395190 0.156300 0.790337
O O4 0.398585 0.988206 0.652238
O O5 0.662124 0.196926 0.092615
O O6 0.557546 0.277191 0.222147
O O7 0.566806 0.995525 0.095686
O O8 0.680743 0.768040 0.876001
O O9 0.564611 0.676958 0.979340
O O10 0.227446 0.101429 0.084095
O O11 0.274867 0.538688 0.059474
O O12 0.626841 0.597924 0.059677
O O13 0.011691 0.902051 0.661662
#
# Coordination Sequence:
#
# PCOD9277474 Si02
#       7
#     8   8   8   8   8   4   8
#     4  12  25  44  64 102 146 189 228 284 347 415
#     4  11  23  43  75 100 137 180 240 304 353 420
#     4  11  27  42  67  99 150 190 228 279 351 419
#     4  10  20  41  64 100 145 192 234 275 334 423
#     4   9  20  38  66 105 135 181 238 295 336 395
#     4  10  24  44  78 100 124 174 246 300 368 426
#     4  10  22  45  68 101 133 176 239 296 351 426
#
# _framework density 25.451937000000001
#
# number of rings (size 3 to 8) (size 9 to 14) (size 15 to 20)
#    0.000    1.538    1.538    2.308    8.615    1.846 
#    2.769    1.538    0.000    0.000    0.000    0.000 
#    0.000    0.000    0.000    0.000    0.000    0.000 
#
# Total GULP energy -145397.358286 kJ/mol
# GULP energy per Si atom -5592.206088 kJ/mol
# Density = 2.539401 g / cm^3
# Si number density = 25.451937 Si / 1000 Ang^3
#
#
#
# Elastic Constant Matrix: (Units=GPa)
#
#
# Indices 1 2 3 4 5 6 
#
# 1 18.4560 -8.5756 -15.4394 -0.0047 0.0588 -0.0154
# 2 -8.5756 79.5738 35.1040 0.0314 -3.9584 -0.0104
# 3 -15.4394 35.1040 135.2714 -0.0259 -7.3367 -0.0119
# 4 -0.0047 0.0314 -0.0259 -8.3221 0.0078 -3.8700
# 5 0.0588 -3.9584 -7.3367 0.0078 34.3782 -0.0001
# 6 -0.0154 -0.0104 -0.0119 -3.8700 -0.0001 38.0217
#
#
#
# Elastic Compliance Matrix: (Units=1/GPa)
#
#
# Indices 1 2 3 4 5 6 
#
# 1 0.061076 0.004008 0.006020 -0.000047 0.001642 0.000023
# 2 0.004008 0.014480 -0.003248 0.000059 0.000967 0.000011
# 3 0.006020 -0.003248 0.009006 -0.000042 0.001538 0.000000
# 4 -0.000047 0.000059 -0.000042 -0.114731 0.000024 -0.011678
# 5 0.001642 0.000967 0.001538 0.000024 0.029525 0.000004
# 6 0.000023 0.000011 0.000000 -0.011678 0.000004 0.025112
#
#
# Mechanical properties :
#
#
# Convention : Reuss Voigt Hill
#
# Bulk Modulus (GPa) = 10.19138 28.38657 19.28898
# Shear Modulus (GPa) = 114.64123 27.62971 71.13547
#
# Velocity S-wave (km/s) = 6.71863 3.29836 5.29241
# Velocity P-wave (km/s) = 8.01246 5.06782 6.70382
#
# Compressibility (1/GPa) = 0.09812216
#
# Stress axis : x y z
#
# Youngs Moduli (GPa) = 16.37308 69.06217 111.03937
#
# Poissons Ratio (x) = -0.27681 -0.66844
# Poissons Ratio (y) = -0.06563 0.36062
# Poissons Ratio (z) = -0.09856 0.22429
#
# Static dielectric constant tensor:
#      x y z
#    x 2.043570 -0.000010 -0.001060 
#    y -0.000010 2.049240 0.000000 
#    z -0.001060 0.000000 2.004570 
# 
# From -- ./inp_files/221163.got.cif
#   From: 2010.05.17/outbox.cif.g08.bks.cpg/sg15_111_cif.got.tgz:221163.got - 2010.06.03 18:47:42.
