data_PCOD9277785
_publ_section_title
;
Structure prediction by ZEFSAII (Michael W. Deem and Ramdas Pophale) SiO2 
 PCOD9277785
Probable space group: C 2/C
;
_chemical_formula_sum "Si O2"
_cell_formula_units_Z 32
_cell_length_a 16.890562
_cell_length_b 10.301017
_cell_length_c 13.396210
_cell_angle_alpha 90.000000
_cell_angle_beta 35.414899
_cell_angle_gamma 90.000000
_cell_volume 1350.686105
_symmetry_space_group_name_H-M "C 2/C"
_symmetry_group_IT_number 15
_symmetry_cell_setting 'monoclinic'
loop_
_space_group_symop_operation_xyz
x,y,z
-x,y,1/2-z
-x,-y,-z
x,-y,1/2+z
1/2+x,1/2+y,z
1/2-x,1/2+y,1/2-z
1/2-x,1/2-y,-z
1/2+x,1/2-y,1/2+z
loop_
_atom_site_type_symbol
_atom_site_label
_atom_site_fract_x
_atom_site_fract_y
_atom_site_fract_z
Si Si1 0.174777 0.143964 0.647552
Si Si2 0.887904 0.029622 0.973658
Si Si3 0.484097 0.753664 0.151433
Si Si4 0.266340 0.793268 0.721879
O O1 0.250000 0.250000 0.500000
O O2 0.186436 0.023126 0.558412
O O3 0.231236 0.178644 0.697865
O O4 0.011381 0.135715 0.837447
O O5 0.958524 0.893439 0.919714
O O6 0.794574 0.083819 0.156665
O O7 0.500000 0.792199 0.250000
O O8 0.331606 0.751327 0.266837
O O9 0.586524 0.828978 0.973283
#
# Coordination Sequence:
#
# PCOD9277785 Si02
#       4
#     8   8   8   8
#     4   9  18  36  67  96 121 158 229 271 300 376
#     4  10  20  41  69  96 123 176 220 261 326 396
#     4  12  24  42  66  94 134 176 216 263 327 392
#     4  11  23  38  66  98 129 169 220 270 320 386
#
# _framework density 23.691663999999999
#
# number of rings (size 3 to 8) (size 9 to 14) (size 15 to 20)
#    0.000    1.500    5.000    1.500    0.000    0.000 
#    0.000    1.250    0.000    3.000    0.000    0.000 
#    0.000    0.000    0.000    0.000    0.000    0.000 
#
# Total GULP energy -89195.744138 kJ/mol
# GULP energy per Si atom -5574.734009 kJ/mol
# Density = 2.363774 g / cm^3
# Si number density = 23.691664 Si / 1000 Ang^3
#
#
#
# Elastic Constant Matrix: (Units=GPa)
#
#
# Indices 1 2 3 4 5 6 
#
# 1 125.2893 7.8037 -22.1083 0.0000 21.2628 0.0000
# 2 7.8037 44.3585 16.4490 0.0000 2.6554 0.0000
# 3 -22.1083 16.4490 97.4909 0.0000 20.7990 0.0000
# 4 0.0000 0.0000 0.0000 24.9899 0.0000 7.6034
# 5 21.2628 2.6554 20.7990 0.0000 38.0753 0.0000
# 6 0.0000 0.0000 0.0000 7.6034 0.0000 18.1005
#
#
#
# Elastic Compliance Matrix: (Units=1/GPa)
#
#
# Indices 1 2 3 4 5 6 
#
# 1 0.010348 -0.003036 0.004581 0.000000 -0.008069 0.000000
# 2 -0.003036 0.024951 -0.005534 0.000000 0.002978 0.000000
# 3 0.004581 -0.005534 0.014368 0.000000 -0.010020 0.000000
# 4 0.000000 0.000000 0.000000 0.045880 0.000000 -0.019272
# 5 -0.008069 0.002978 -0.010020 0.000000 0.036036 0.000000
# 6 0.000000 0.000000 0.000000 -0.019272 0.000000 0.063343
#
#
# Mechanical properties :
#
#
# Convention : Reuss Voigt Hill
#
# Bulk Modulus (GPa) = 23.98724 30.15863 27.07294
# Shear Modulus (GPa) = 23.06264 33.89943 28.48104
#
# Velocity S-wave (km/s) = 3.12340 3.78677 3.47097
# Velocity P-wave (km/s) = 4.81189 5.64596 5.24552
#
# Compressibility (1/GPa) = 0.04168883
#
# Stress axis : x y z
#
# Youngs Moduli (GPa) = 96.63387 40.07787 69.60125
#
# Poissons Ratio (x) = 0.12168 -0.31881
# Poissons Ratio (y) = 0.29338 0.38516
# Poissons Ratio (z) = -0.44263 0.22178
#
# Static dielectric constant tensor:
#      x y z
#    x 1.978030 0.000000 0.004470 
#    y 0.000000 1.921600 0.000000 
#    z 0.004470 0.000000 1.930790 
# 
# From -- ./inp_files/37238.got.cif
#   From: 2010.05.17/outbox.cif.g08.bks.cpg/sg15_19_cif.got.tgz:37238.got - 2010.06.03 18:47:42.
