data_PCOD9277489
_publ_section_title
;
Structure prediction by ZEFSAII (Michael W. Deem and Ramdas Pophale) SiO2 
 PCOD9277489
Probable space group: C 2/C
;
_chemical_formula_sum "Si O2"
_cell_formula_units_Z 40
_cell_length_a 26.473042
_cell_length_b 12.518725
_cell_length_c 5.556045
_cell_angle_alpha 90.000000
_cell_angle_beta 74.464402
_cell_angle_gamma 90.000000
_cell_volume 1774.047724
_symmetry_space_group_name_H-M "C 2/C"
_symmetry_group_IT_number 15
_symmetry_cell_setting 'monoclinic'
loop_
_space_group_symop_operation_xyz
x,y,z
-x,y,1/2-z
-x,-y,-z
x,-y,1/2+z
1/2+x,1/2+y,z
1/2-x,1/2+y,1/2-z
1/2-x,1/2-y,-z
1/2+x,1/2-y,1/2+z
loop_
_atom_site_type_symbol
_atom_site_label
_atom_site_fract_x
_atom_site_fract_y
_atom_site_fract_z
Si Si1 0.098828 0.632172 0.564936
Si Si2 0.060034 0.607599 0.116139
Si Si3 0.693725 0.760394 0.193389
Si Si4 0.651154 0.477193 0.766198
Si Si5 0.768383 0.443516 0.076907
O O1 0.080990 0.670120 0.323489
O O2 0.092460 0.503326 0.555477
O O3 0.154908 0.675706 0.568869
O O4 0.064817 0.660906 0.847848
O O5 0.000000 0.579218 0.250000
O O6 0.670202 0.644391 0.262431
O O7 0.705004 0.829362 0.417558
O O8 0.750000 0.750000 0.000000
O O9 0.623097 0.490855 0.547211
O O10 0.704730 0.549326 0.675837
O O11 0.783511 0.507462 0.301613
#
# Coordination Sequence:
#
# PCOD9277489 Si02
#       5
#     8   8   8   8   8
#     4  10  22  33  57  91 116 158 203 230 314 382
#     4  10  20  41  64  88 124 153 194 270 327 371
#     4  12  24  38  58  85 127 170 215 257 288 370
#     4  10  22  39  53  73 103 161 213 245 303 329
#     4  10  22  36  54  74 105 161 209 247 297 333
#
# _framework density 22.547308000000001
#
# number of rings (size 3 to 8) (size 9 to 14) (size 15 to 20)
#    0.000    1.600    4.000    3.000    5.600    6.400 
#    0.000    0.000    0.000    0.000    0.000    0.000 
#    0.000   27.200    0.000    0.000    0.000    0.000 
#
# Total GULP energy -111741.895695 kJ/mol
# GULP energy per Si atom -5587.094785 kJ/mol
# Density = 2.249599 g / cm^3
# Si number density = 22.547308 Si / 1000 Ang^3
#
#
#
# Elastic Constant Matrix: (Units=GPa)
#
#
# Indices 1 2 3 4 5 6 
#
# 1 69.2922 11.6585 3.5263 0.0000 1.1030 0.0000
# 2 11.6585 24.7676 7.8786 0.0000 3.1140 0.0000
# 3 3.5263 7.8786 180.0146 0.0000 24.4152 0.0000
# 4 0.0000 0.0000 0.0000 18.8338 0.0000 4.7198
# 5 1.1030 3.1140 24.4152 0.0000 30.1285 0.0000
# 6 0.0000 0.0000 0.0000 4.7198 0.0000 13.4199
#
#
#
# Elastic Compliance Matrix: (Units=1/GPa)
#
#
# Indices 1 2 3 4 5 6 
#
# 1 0.015674 -0.007400 -0.000010 0.000000 0.000199 0.000000
# 2 -0.007400 0.044702 -0.001372 0.000000 -0.003237 0.000000
# 3 -0.000010 -0.001372 0.006287 0.000000 -0.004953 0.000000
# 4 0.000000 0.000000 0.000000 0.058228 0.000000 -0.020479
# 5 0.000199 -0.003237 -0.004953 0.000000 0.037532 0.000000
# 6 0.000000 0.000000 0.000000 -0.020479 0.000000 0.081719
#
#
# Mechanical properties :
#
#
# Convention : Reuss Voigt Hill
#
# Bulk Modulus (GPa) = 20.36730 35.57792 27.97261
# Shear Modulus (GPa) = 17.98087 29.21051 23.59569
#
# Velocity S-wave (km/s) = 2.82702 3.60324 3.23847
# Velocity P-wave (km/s) = 4.43946 5.75540 5.13972
#
# Compressibility (1/GPa) = 0.04909831
#
# Stress axis : x y z
#
# Youngs Moduli (GPa) = 63.79989 22.37030 159.05600
#
# Poissons Ratio (x) = 0.16554 0.00162
# Poissons Ratio (y) = 0.47211 0.21829
# Poissons Ratio (z) = 0.00065 0.03070
#
# Static dielectric constant tensor:
#      x y z
#    x 1.839270 0.000000 0.032110 
#    y 0.000000 1.883040 0.000000 
#    z 0.032110 0.000000 1.935940 
# 
# From -- ./inp_files/16731.got.cif
#   From: 2010.05.17/outbox.cif.g08.bks.cpg/sg15_9_cif.got.tgz:16731.got - 2010.06.03 18:47:42.
