data_PCOD9277763
_publ_section_title
;
Structure prediction by ZEFSAII (Michael W. Deem and Ramdas Pophale) SiO2 
 PCOD9277763
Probable space group: C 2/C
;
_chemical_formula_sum "Si O2"
_cell_formula_units_Z 48
_cell_length_a 12.660720
_cell_length_b 7.579693
_cell_length_c 19.225956
_cell_angle_alpha 90.000000
_cell_angle_beta 92.978402
_cell_angle_gamma 90.000000
_cell_volume 1842.514520
_symmetry_space_group_name_H-M "C 2/C"
_symmetry_group_IT_number 15
_symmetry_cell_setting 'monoclinic'
loop_
_space_group_symop_operation_xyz
x,y,z
-x,y,1/2-z
-x,-y,-z
x,-y,1/2+z
1/2+x,1/2+y,z
1/2-x,1/2+y,1/2-z
1/2-x,1/2-y,-z
1/2+x,1/2-y,1/2+z
loop_
_atom_site_type_symbol
_atom_site_label
_atom_site_fract_x
_atom_site_fract_y
_atom_site_fract_z
Si Si1 0.767546 0.702833 0.676960
Si Si2 0.887920 0.033405 0.269986
Si Si3 0.875788 0.871261 0.067573
Si Si4 0.640587 0.252003 0.593275
Si Si5 0.436536 0.879666 0.903862
Si Si6 0.857677 0.721966 0.546116
O O1 0.859155 0.811781 0.716604
O O2 0.712163 0.594638 0.735803
O O3 0.667667 0.807115 0.639709
O O4 0.823346 0.611417 0.612506
O O5 0.880349 0.103149 0.348731
O O6 0.000000 0.959132 0.250000
O O7 0.760411 0.824367 0.094154
O O8 0.965061 0.750123 0.106411
O O9 0.894120 0.082577 0.070934
O O10 0.875200 0.827216 0.984919
O O11 0.563505 0.088453 0.609490
O O12 0.422630 0.863854 0.986795
O O13 0.750000 0.750000 0.500000
#
# Coordination Sequence:
#
# PCOD9277763 Si02
#       6
#     8   8   8   8   8   8
#     4  11  26  46  71 102 144 189 255 303 363 447
#     4  12  30  50  76 101 149 204 246 305 373 451
#     4  11  23  39  74 104 150 191 237 311 383 430
#     4  11  24  44  67 108 149 186 250 306 369 449
#     4  11  23  41  73 109 143 192 244 305 378 439
#     4  10  20  41  69 102 145 183 240 307 363 437
#
# _framework density 26.051355999999998
#
# number of rings (size 3 to 8) (size 9 to 14) (size 15 to 20)
#    0.000    1.000    3.333    4.000    7.000    1.333 
#    0.000    1.667    0.000    0.000    0.000    0.000 
#    0.000    0.000    0.000    0.000    0.000    0.000 
#
# Total GULP energy -134374.844725 kJ/mol
# GULP energy per Si atom -5598.951864 kJ/mol
# Density = 2.599206 g / cm^3
# Si number density = 26.051356 Si / 1000 Ang^3
#
#
#
# Elastic Constant Matrix: (Units=GPa)
#
#
# Indices 1 2 3 4 5 6 
#
# 1 114.1376 8.4099 23.2436 0.0000 -9.4087 0.0000
# 2 8.4099 87.1089 3.1053 0.0000 -11.3277 0.0000
# 3 23.2436 3.1053 108.5864 0.0000 -13.6504 0.0000
# 4 0.0000 0.0000 0.0000 26.1937 0.0000 0.7086
# 5 -9.4087 -11.3277 -13.6504 0.0000 37.9874 0.0000
# 6 0.0000 0.0000 0.0000 0.7086 0.0000 46.4444
#
#
#
# Elastic Compliance Matrix: (Units=1/GPa)
#
#
# Indices 1 2 3 4 5 6 
#
# 1 0.009294 -0.000643 -0.001786 0.000000 0.001468 0.000000
# 2 -0.000643 0.011989 0.000235 0.000000 0.003500 0.000000
# 3 -0.001786 0.000235 0.009989 0.000000 0.003217 0.000000
# 4 0.000000 0.000000 0.000000 0.038193 0.000000 -0.000583
# 5 0.001468 0.003500 0.003217 0.000000 0.028888 0.000000
# 6 0.000000 0.000000 0.000000 -0.000583 0.000000 0.021540
#
#
# Mechanical properties :
#
#
# Convention : Reuss Voigt Hill
#
# Bulk Modulus (GPa) = 37.19819 42.15007 39.67413
# Shear Modulus (GPa) = 37.52570 40.46338 38.99454
#
# Velocity S-wave (km/s) = 3.79944 3.94536 3.87309
# Velocity P-wave (km/s) = 5.79288 6.08023 5.93830
#
# Compressibility (1/GPa) = 0.02688302
#
# Stress axis : x y z
#
# Youngs Moduli (GPa) = 107.60182 83.41173 100.10651
#
# Poissons Ratio (x) = 0.05360 0.17883
# Poissons Ratio (y) = 0.06915 -0.02350
# Poissons Ratio (z) = 0.19222 -0.01958
#
# Static dielectric constant tensor:
#      x y z
#    x 2.177980 0.000000 -0.036700 
#    y 0.000000 2.128740 0.000000 
#    z -0.036700 0.000000 2.052150 
# 
# From -- ./inp_files/202971.got.cif
#   From: 2010.05.17/outbox.cif.g08.bks.cpg/sg15_102_cif.got.tgz:202971.got - 2010.06.03 18:47:42.
