data_PCOD9277319
_publ_section_title
;
Structure prediction by ZEFSAII (Michael W. Deem and Ramdas Pophale) SiO2 
 PCOD9277319
Probable space group: C 2/C
;
_chemical_formula_sum "Si O2"
_cell_formula_units_Z 60
_cell_length_a 8.244959
_cell_length_b 27.547368
_cell_length_c 12.372617
_cell_angle_alpha 90.000000
_cell_angle_beta 78.779829
_cell_angle_gamma 90.000000
_cell_volume 2756.443104
_symmetry_space_group_name_H-M "C 2/C"
_symmetry_group_IT_number 15
_symmetry_cell_setting 'monoclinic'
loop_
_space_group_symop_operation_xyz
x,y,z
-x,y,1/2-z
-x,-y,-z
x,-y,1/2+z
1/2+x,1/2+y,z
1/2-x,1/2+y,1/2-z
1/2-x,1/2-y,-z
1/2+x,1/2-y,1/2+z
loop_
_atom_site_type_symbol
_atom_site_label
_atom_site_fract_x
_atom_site_fract_y
_atom_site_fract_z
Si Si1 0.582195 0.948043 0.469119
Si Si2 0.500000 0.154529 0.750000
Si Si3 0.766953 0.411645 0.400670
Si Si4 0.037518 0.174138 0.922593
Si Si5 0.316362 0.907173 0.815917
Si Si6 0.193378 0.991207 0.249409
Si Si7 0.616422 0.692775 0.338383
Si Si8 0.738260 0.291415 0.195901
O O1 0.420743 0.915384 0.462113
O O2 0.670189 0.925700 0.561960
O O3 0.706336 0.960747 0.354352
O O4 0.500000 0.000000 0.500000
O O5 0.649025 0.119105 0.705396
O O6 0.574197 0.189107 0.831746
O O7 0.607210 0.379159 0.445076
O O8 0.723503 0.463943 0.359398
O O9 0.167450 0.201097 0.826659
O O10 0.872940 0.177047 0.870560
O O11 0.994591 0.198451 0.040592
O O12 0.500000 0.894981 0.750000
O O13 0.199196 0.860430 0.823814
O O14 0.255624 0.953614 0.753560
O O15 0.000000 0.990396 0.250000
O O16 0.500000 0.699786 0.250000
O O17 0.755725 0.734506 0.327560
#
# Coordination Sequence:
#
# PCOD9277319 Si02
#       8
#     8   4   8   8   8   8   8   8
#     4  12  24  46  72  97 142 194 245 291 364 436
#     4  10  20  40  72  98 134 182 234 300 362 412
#     4  11  23  41  70 104 139 181 238 302 358 422
#     4  10  26  44  73 107 144 185 249 299 367 433
#     4  12  28  47  70 100 143 195 243 297 365 449
#     4  12  26  44  71 106 144 183 244 307 362 435
#     4  12  28  49  71 106 152 194 240 303 374 440
#     4  10  23  49  72 105 143 183 250 307 358 435
#
# _framework density 21.767184
#
# number of rings (size 3 to 8) (size 9 to 14) (size 15 to 20)
#    0.000    0.800    4.667    0.800   11.200    2.133 
#    0.000    0.000    0.000    0.000    0.000    0.000 
#    0.000    0.000    0.000    0.000    0.000    0.000 
#
# Total GULP energy -167430.035878 kJ/mol
# GULP energy per Si atom -5581.001196 kJ/mol
# Density = 2.171764 g / cm^3
# Si number density = 21.767184 Si / 1000 Ang^3
#
#
#
# Elastic Constant Matrix: (Units=GPa)
#
#
# Indices 1 2 3 4 5 6 
#
# 1 109.4067 28.6756 30.3564 0.0000 16.3736 0.0000
# 2 28.6756 97.8759 12.0022 0.0000 1.2341 0.0000
# 3 30.3564 12.0022 98.2332 0.0000 -0.0264 0.0000
# 4 0.0000 0.0000 0.0000 11.7483 0.0000 -6.4339
# 5 16.3736 1.2341 -0.0264 0.0000 24.6788 0.0000
# 6 0.0000 0.0000 0.0000 -6.4339 0.0000 17.0557
#
#
#
# Elastic Compliance Matrix: (Units=1/GPa)
#
#
# Indices 1 2 3 4 5 6 
#
# 1 0.012034 -0.003016 -0.003352 0.000000 -0.007837 0.000000
# 2 -0.003016 0.011135 -0.000428 0.000000 0.001444 0.000000
# 3 -0.003352 -0.000428 0.011269 0.000000 0.002258 0.000000
# 4 0.000000 0.000000 0.000000 0.107281 0.000000 0.040469
# 5 -0.007837 0.001444 0.002258 0.000000 0.045650 0.000000
# 6 0.000000 0.000000 0.000000 0.040469 0.000000 0.073898
#
#
# Mechanical properties :
#
#
# Convention : Reuss Voigt Hill
#
# Bulk Modulus (GPa) = 47.97349 49.73157 48.85253
# Shear Modulus (GPa) = 17.74265 26.32867 22.03566
#
# Velocity S-wave (km/s) = 2.85811 3.48164 3.18517
# Velocity P-wave (km/s) = 5.74273 6.24973 6.00158
#
# Compressibility (1/GPa) = 0.02084485
#
# Stress axis : x y z
#
# Youngs Moduli (GPa) = 83.10077 89.80808 88.74120
#
# Poissons Ratio (x) = 0.27083 0.29749
# Poissons Ratio (y) = 0.25061 0.03799
# Poissons Ratio (z) = 0.27858 0.03845
#
# Static dielectric constant tensor:
#      x y z
#    x 1.894630 0.000000 0.042430 
#    y 0.000000 1.853600 0.000000 
#    z 0.042430 0.000000 1.882250 
# 
# From -- ./inp_files/81359.got.cif
#   From: 2010.05.17/outbox.cif.g08.bks.cpg/sg15_41_cif.got.tgz:81359.got - 2010.06.03 18:47:42.
