data_PCOD9277255
_publ_section_title
;
Structure prediction by ZEFSAII (Michael W. Deem and Ramdas Pophale) SiO2 
 PCOD9277255
Probable space group: C 2/C
;
_chemical_formula_sum "Si O2"
_cell_formula_units_Z 56
_cell_length_a 21.585591
_cell_length_b 8.650623
_cell_length_c 14.732815
_cell_angle_alpha 90.000000
_cell_angle_beta 110.267156
_cell_angle_gamma 90.000000
_cell_volume 2580.717616
_symmetry_space_group_name_H-M "C 2/C"
_symmetry_group_IT_number 15
_symmetry_cell_setting 'monoclinic'
loop_
_space_group_symop_operation_xyz
x,y,z
-x,y,1/2-z
-x,-y,-z
x,-y,1/2+z
1/2+x,1/2+y,z
1/2-x,1/2+y,1/2-z
1/2-x,1/2-y,-z
1/2+x,1/2-y,1/2+z
loop_
_atom_site_type_symbol
_atom_site_label
_atom_site_fract_x
_atom_site_fract_y
_atom_site_fract_z
Si Si1 0.157781 0.510188 0.971008
Si Si2 0.000000 0.728139 0.250000
Si Si3 0.500000 0.271221 0.750000
Si Si4 0.685142 0.313216 0.522006
Si Si5 0.889829 0.024580 0.674901
Si Si6 0.015692 0.537471 0.904650
Si Si7 0.255955 0.627194 0.158846
Si Si8 0.721449 0.990313 0.316532
O O1 0.090562 0.600398 0.944917
O O2 0.169372 0.478642 0.870247
O O3 0.150038 0.349401 0.022017
O O4 0.220303 0.597626 0.044545
O O5 0.936069 0.836714 0.235085
O O6 0.987071 0.618083 0.157309
O O7 0.439104 0.380838 0.693267
O O8 0.478312 0.163618 0.823907
O O9 0.750000 0.250000 0.500000
O O10 0.639256 0.415691 0.435103
O O11 0.713721 0.414790 0.617401
O O12 0.824014 0.970615 0.694719
O O13 0.000000 0.500000 0.000000
O O14 0.267969 0.807372 0.180723
O O15 0.207592 0.559681 0.211358
#
# Coordination Sequence:
#
# PCOD9277255 Si02
#       8
#     8   4   4   8   8   8   8   8
#     4  11  23  43  69  95 137 169 222 275 336 387
#     4  10  24  46  68  92 132 182 218 272 324 392
#     4  10  26  44  66 100 136 178 220 280 326 398
#     4  10  20  40  70  93 131 175 215 266 338 387
#     4  11  22  45  69  94 137 178 221 270 336 389
#     4  11  25  45  71  96 132 175 227 270 331 396
#     4  12  25  40  68 104 132 173 221 276 332 402
#     4  11  25  39  65 103 136 172 213 271 345 393
#
# _framework density 21.699390999999999
#
# number of rings (size 3 to 8) (size 9 to 14) (size 15 to 20)
#    0.000    1.143    4.286    2.143    4.000    5.714 
#    0.000    1.429    0.000    0.000    0.000    0.000 
#    0.000    0.000    0.000    0.000    0.000    0.000 
#
# Total GULP energy -156326.813013 kJ/mol
# GULP energy per Si atom -5583.100465 kJ/mol
# Density = 2.165000 g / cm^3
# Si number density = 21.699391 Si / 1000 Ang^3
#
#
#
# Elastic Constant Matrix: (Units=GPa)
#
#
# Indices 1 2 3 4 5 6 
#
# 1 64.5744 17.0023 34.0808 0.0000 3.0202 0.0000
# 2 17.0023 127.5734 40.0061 0.0000 1.3807 0.0000
# 3 34.0808 40.0061 96.8116 0.0000 -7.3851 0.0000
# 4 0.0000 0.0000 0.0000 39.7397 0.0000 11.2505
# 5 3.0202 1.3807 -7.3851 0.0000 36.0063 0.0000
# 6 0.0000 0.0000 0.0000 11.2505 0.0000 26.1348
#
#
#
# Elastic Compliance Matrix: (Units=1/GPa)
#
#
# Indices 1 2 3 4 5 6 
#
# 1 0.019364 -0.000388 -0.006887 0.000000 -0.003022 0.000000
# 2 -0.000388 0.009059 -0.003688 0.000000 -0.001071 0.000000
# 3 -0.006887 -0.003688 0.014561 0.000000 0.003706 0.000000
# 4 0.000000 0.000000 0.000000 0.028656 0.000000 -0.012336
# 5 -0.003022 -0.001071 0.003706 0.000000 0.028828 0.000000
# 6 0.000000 0.000000 0.000000 -0.012336 0.000000 0.043574
#
#
# Mechanical properties :
#
#
# Convention : Reuss Voigt Hill
#
# Bulk Modulus (GPa) = 47.49177 52.34865 49.92021
# Shear Modulus (GPa) = 28.90393 33.56750 31.23571
#
# Velocity S-wave (km/s) = 3.65364 3.93737 3.79816
# Velocity P-wave (km/s) = 6.30337 6.69682 6.50307
#
# Compressibility (1/GPa) = 0.02105628
#
# Stress axis : x y z
#
# Youngs Moduli (GPa) = 51.64131 110.39198 68.67855
#
# Poissons Ratio (x) = 0.04288 0.47298
# Poissons Ratio (y) = 0.02006 0.25331
# Poissons Ratio (z) = 0.35565 0.40717
#
# Static dielectric constant tensor:
#      x y z
#    x 1.827810 0.000000 0.017940 
#    y 0.000000 1.811570 0.000000 
#    z 0.017940 0.000000 1.792330 
# 
# From -- ./inp_files/172010.got.cif
#   From: 2010.05.17/outbox.cif.g08.bks.cpg/sg15_87_cif.got.tgz:172010.got - 2010.06.03 18:47:42.
