data_PCOD9277205
_publ_section_title
;
Structure prediction by ZEFSAII (Michael W. Deem and Ramdas Pophale) SiO2 
 PCOD9277205
Probable space group: C 2/C
;
_chemical_formula_sum "Si O2"
_cell_formula_units_Z 40
_cell_length_a 9.773562
_cell_length_b 22.817925
_cell_length_c 7.907038
_cell_angle_alpha 90.000000
_cell_angle_beta 75.349070
_cell_angle_gamma 90.000000
_cell_volume 1706.031177
_symmetry_space_group_name_H-M "C 2/C"
_symmetry_group_IT_number 15
_symmetry_cell_setting 'monoclinic'
loop_
_space_group_symop_operation_xyz
x,y,z
-x,y,1/2-z
-x,-y,-z
x,-y,1/2+z
1/2+x,1/2+y,z
1/2-x,1/2+y,1/2-z
1/2-x,1/2-y,-z
1/2+x,1/2-y,1/2+z
loop_
_atom_site_type_symbol
_atom_site_label
_atom_site_fract_x
_atom_site_fract_y
_atom_site_fract_z
Si Si1 0.055576 0.617807 0.536937
Si Si2 0.920673 0.748060 0.957815
Si Si3 0.194665 0.944559 0.386274
Si Si4 0.790155 0.570662 0.474354
Si Si5 0.043222 0.867903 0.931582
O O1 0.045917 0.684415 0.477570
O O2 0.212905 0.593768 0.510632
O O3 0.000000 0.615670 0.750000
O O4 0.956849 0.578307 0.450373
O O5 0.000000 0.747081 0.750000
O O6 0.980425 0.807170 0.024274
O O7 0.750000 0.750000 0.000000
O O8 0.231827 0.929061 0.183600
O O9 0.034754 0.924647 0.466140
O O10 0.243648 0.010682 0.401434
O O11 0.709447 0.623779 0.407646
O O12 0.000000 0.868588 0.750000
#
# Coordination Sequence:
#
# PCOD9277205 Si02
#       5
#     8   8   8   8   8
#     4   9  20  38  63  90 124 165 210 261 324 382
#     4  10  20  40  69  95 130 172 213 267 330 387
#     4  11  21  40  62  88 128 166 211 266 324 385
#     4  11  23  38  63  93 123 168 215 267 320 387
#     4  11  23  39  63  90 127 165 215 264 321 384
#
# _framework density 23.446231000000001
#
# number of rings (size 3 to 8) (size 9 to 14) (size 15 to 20)
#    0.000    1.600    2.000    3.000    0.000    0.800 
#    0.000    3.000    0.000    0.000    0.000    0.000 
#    0.000    0.000    0.000    0.000    0.000    0.000 
#
# Total GULP energy -111769.886796 kJ/mol
# GULP energy per Si atom -5588.494340 kJ/mol
# Density = 2.339287 g / cm^3
# Si number density = 23.446231 Si / 1000 Ang^3
#
#
#
# Elastic Constant Matrix: (Units=GPa)
#
#
# Indices 1 2 3 4 5 6 
#
# 1 106.2628 18.1963 17.3749 0.0000 19.1899 0.0000
# 2 18.1963 111.1928 -2.3354 0.0000 17.5043 0.0000
# 3 17.3749 -2.3354 72.7840 0.0000 3.4599 0.0000
# 4 0.0000 0.0000 0.0000 -1.9459 0.0000 -7.9611
# 5 19.1899 17.5043 3.4599 0.0000 29.6347 0.0000
# 6 0.0000 0.0000 0.0000 -7.9611 0.0000 -0.1216
#
#
#
# Elastic Compliance Matrix: (Units=1/GPa)
#
#
# Indices 1 2 3 4 5 6 
#
# 1 0.011102 -0.000858 -0.002373 0.000000 -0.006405 0.000000
# 2 -0.000858 0.010008 0.000785 0.000000 -0.005447 0.000000
# 3 -0.002373 0.000785 0.014360 0.000000 -0.000603 0.000000
# 4 0.000000 0.000000 0.000000 0.001926 0.000000 -0.126081
# 5 -0.006405 -0.005447 -0.000603 0.000000 0.041180 0.000000
# 6 0.000000 0.000000 0.000000 -0.126081 0.000000 0.030817
#
#
# Mechanical properties :
#
#
# Convention : Reuss Voigt Hill
#
# Bulk Modulus (GPa) = 32.70508 39.63459 36.16983
# Shear Modulus (GPa) = 40.16778 22.64704 31.40741
#
# Velocity S-wave (km/s) = 4.14356 3.11129 3.66396
# Velocity P-wave (km/s) = 6.07218 5.46333 5.77578
#
# Compressibility (1/GPa) = 0.03057629
#
# Stress axis : x y z
#
# Youngs Moduli (GPa) = 90.07055 99.92156 69.63925
#
# Poissons Ratio (x) = 0.08577 0.16528
# Poissons Ratio (y) = 0.07732 -0.05466
# Poissons Ratio (z) = 0.21378 -0.07844
#
# Static dielectric constant tensor:
#      x y z
#    x 1.763590 0.000000 0.121040 
#    y 0.000000 1.908860 0.000000 
#    z 0.121040 0.000000 1.608110 
# 
# From -- ./inp_files/23402.got.cif
#   From: 2010.05.17/outbox.cif.g08.bks.cpg/sg15_12_cif.got.tgz:23402.got - 2010.06.03 18:47:42.
