data_PCOD9277363
_publ_section_title
;
Structure prediction by ZEFSAII (Michael W. Deem and Ramdas Pophale) SiO2 
 PCOD9277363
Probable space group: C 2/C
;
_chemical_formula_sum "Si O2"
_cell_formula_units_Z 56
_cell_length_a 6.945135
_cell_length_b 13.550577
_cell_length_c 25.343346
_cell_angle_alpha 90.000000
_cell_angle_beta 69.985763
_cell_angle_gamma 90.000000
_cell_volume 2241.036638
_symmetry_space_group_name_H-M "C 2/C"
_symmetry_group_IT_number 15
_symmetry_cell_setting 'monoclinic'
loop_
_space_group_symop_operation_xyz
x,y,z
-x,y,1/2-z
-x,-y,-z
x,-y,1/2+z
1/2+x,1/2+y,z
1/2-x,1/2+y,1/2-z
1/2-x,1/2-y,-z
1/2+x,1/2-y,1/2+z
loop_
_atom_site_type_symbol
_atom_site_label
_atom_site_fract_x
_atom_site_fract_y
_atom_site_fract_z
Si Si1 0.794593 0.875050 0.231567
Si Si2 0.588746 0.029021 0.842629
Si Si3 0.205963 0.075123 0.511387
Si Si4 0.102464 0.187866 0.414302
Si Si5 0.000794 0.015444 0.872208
Si Si6 0.495141 0.189637 0.187408
Si Si7 0.388431 0.881198 0.458722
O O1 0.619562 0.901581 0.289093
O O2 0.818562 0.956118 0.184163
O O3 0.815234 0.770785 0.200167
O O4 0.000000 0.877903 0.250000
O O5 0.425669 0.069334 0.898605
O O6 0.797042 0.028067 0.857037
O O7 0.548406 0.916112 0.832707
O O8 0.180456 0.143740 0.462887
O O9 0.420362 0.102376 0.519177
O O10 0.035621 0.083628 0.573031
O O11 0.218693 0.956904 0.497680
O O12 0.297291 0.228665 0.361545
O O13 0.918844 0.265016 0.443252
O O14 0.026474 0.096344 0.387179
O O15 0.500000 0.173718 0.250000
#
# Coordination Sequence:
#
# PCOD9277363 Si02
#       7
#     8   8   8   8   8   8   8
#     4   9  19  37  61  83 115 158 200 243 301 364
#     4  10  20  41  60  86 122 156 198 254 304 366
#     4  10  21  40  58  87 123 160 205 244 302 369
#     4  12  22  38  62  92 118 160 203 252 309 364
#     4  10  22  39  57  86 125 159 194 253 310 359
#     4  11  21  37  63  91 113 158 211 247 300 374
#     4  10  21  38  63  87 121 158 204 253 298 363
#
# _framework density 24.988434999999999
#
# number of rings (size 3 to 8) (size 9 to 14) (size 15 to 20)
#    0.000    1.714    1.429    5.143    0.000    0.571 
#    2.571    0.000    0.000    0.000    0.000    0.000 
#    0.000    0.000    0.000    0.000    0.000    0.000 
#
# Total GULP energy -156563.506512 kJ/mol
# GULP energy per Si atom -5591.553804 kJ/mol
# Density = 2.493156 g / cm^3
# Si number density = 24.988435 Si / 1000 Ang^3
#
#
#
# Elastic Constant Matrix: (Units=GPa)
#
#
# Indices 1 2 3 4 5 6 
#
# 1 55.7554 0.2435 42.4827 0.0000 -12.1544 0.0000
# 2 0.2435 147.8713 54.9161 0.0000 6.4283 0.0000
# 3 42.4827 54.9161 163.4632 0.0000 -9.3674 0.0000
# 4 0.0000 0.0000 0.0000 38.3664 0.0000 8.4804
# 5 -12.1544 6.4283 -9.3674 0.0000 43.7381 0.0000
# 6 0.0000 0.0000 0.0000 8.4804 0.0000 30.6073
#
#
#
# Elastic Compliance Matrix: (Units=1/GPa)
#
#
# Indices 1 2 3 4 5 6 
#
# 1 0.024143 0.002252 -0.006748 0.000000 0.004933 0.000000
# 2 0.002252 0.008066 -0.003368 0.000000 -0.001281 0.000000
# 3 -0.006748 -0.003368 0.009035 0.000000 0.000555 0.000000
# 4 0.000000 0.000000 0.000000 0.027765 0.000000 -0.007693
# 5 0.004933 -0.001281 0.000555 0.000000 0.024541 0.000000
# 6 0.000000 0.000000 0.000000 -0.007693 0.000000 0.034803
#
#
# Mechanical properties :
#
#
# Convention : Reuss Voigt Hill
#
# Bulk Modulus (GPa) = 39.19446 62.48605 50.84025
# Shear Modulus (GPa) = 32.76820 40.50553 36.63687
#
# Velocity S-wave (km/s) = 3.62516 4.03050 3.83319
# Velocity P-wave (km/s) = 5.76554 6.83521 6.32304
#
# Compressibility (1/GPa) = 0.02551381
#
# Stress axis : x y z
#
# Youngs Moduli (GPa) = 41.41998 123.98415 110.68259
#
# Poissons Ratio (x) = -0.27922 0.74693
# Poissons Ratio (y) = -0.09328 0.37282
# Poissons Ratio (z) = 0.27952 0.41762
#
# Static dielectric constant tensor:
#      x y z
#    x 2.048860 0.000000 -0.014610 
#    y 0.000000 2.005220 0.000000 
#    z -0.014610 0.000000 1.953340 
# 
# From -- ./inp_files/264237.got.cif
#   From: 2010.05.17/outbox.cif.g08.bks.cpg/sg15_133_cif.got.tgz:264237.got - 2010.06.03 18:47:42.
