data_PCOD9277790
_publ_section_title
;
Structure prediction by ZEFSAII (Michael W. Deem and Ramdas Pophale) SiO2 
 PCOD9277790
Probable space group: C 2/C
;
_chemical_formula_sum "Si O2"
_cell_formula_units_Z 48
_cell_length_a 29.144542
_cell_length_b 14.478676
_cell_length_c 9.431949
_cell_angle_alpha 90.000000
_cell_angle_beta 146.361135
_cell_angle_gamma 90.000000
_cell_volume 2204.769138
_symmetry_space_group_name_H-M "C 2/C"
_symmetry_group_IT_number 15
_symmetry_cell_setting 'monoclinic'
loop_
_space_group_symop_operation_xyz
x,y,z
-x,y,1/2-z
-x,-y,-z
x,-y,1/2+z
1/2+x,1/2+y,z
1/2-x,1/2+y,1/2-z
1/2-x,1/2-y,-z
1/2+x,1/2-y,1/2+z
loop_
_atom_site_type_symbol
_atom_site_label
_atom_site_fract_x
_atom_site_fract_y
_atom_site_fract_z
Si Si1 0.942036 0.036073 0.220456
Si Si2 0.164730 0.030798 0.299956
Si Si3 0.786384 0.671257 0.496940
Si Si4 0.249222 0.345536 0.914661
Si Si5 0.530854 0.864438 0.975954
Si Si6 0.428411 0.918850 0.959491
O O1 0.000000 0.087765 0.250000
O O2 0.868730 0.073179 0.136332
O O3 0.897465 0.964412 0.995951
O O4 0.000000 0.000000 0.500000
O O5 0.182043 0.921637 0.368028
O O6 0.250351 0.077862 0.474172
O O7 0.750000 0.750000 0.500000
O O8 0.748456 0.676008 0.244405
O O9 0.885653 0.678948 0.748733
O O10 0.160959 0.393593 0.716208
O O11 0.250000 0.250000 0.000000
O O12 0.500000 0.822558 0.750000
O O13 0.558194 0.971467 0.023033
O O14 0.451903 0.869448 0.874109
O O15 0.500000 0.887286 0.250000
#
# Coordination Sequence:
#
# PCOD9277790 Si02
#       6
#     8   8   8   8   8   8
#     4   9  20  40  68  98 126 179 235 275 334 404
#     4  11  22  44  73  95 135 182 227 289 344 408
#     4  12  27  44  67 105 140 178 228 285 345 410
#     4  12  27  43  69 104 138 181 230 278 347 413
#     4  10  22  39  71 101 130 177 223 282 346 402
#     4  10  20  41  69  97 134 176 226 276 342 404
#
# _framework density 21.770987000000002
#
# number of rings (size 3 to 8) (size 9 to 14) (size 15 to 20)
#    0.000    1.333    5.000    0.000    4.667    0.000 
#    0.000   10.000    0.000    0.000    0.000    0.000 
#    0.000    0.000    0.000    0.000    0.000    0.000 
#
# Total GULP energy -133755.077711 kJ/mol
# GULP energy per Si atom -5573.128238 kJ/mol
# Density = 2.172144 g / cm^3
# Si number density = 21.770987 Si / 1000 Ang^3
#
#
#
# Elastic Constant Matrix: (Units=GPa)
#
#
# Indices 1 2 3 4 5 6 
#
# 1 134.0070 13.8058 27.2625 0.0000 -25.0596 0.0000
# 2 13.8058 63.2761 16.3724 0.0000 -14.2677 0.0000
# 3 27.2625 16.3724 88.4823 0.0000 -12.2960 0.0000
# 4 0.0000 0.0000 0.0000 8.7513 0.0000 -6.1273
# 5 -25.0596 -14.2677 -12.2960 0.0000 42.0104 0.0000
# 6 0.0000 0.0000 0.0000 -6.1273 0.0000 22.4145
#
#
#
# Elastic Compliance Matrix: (Units=1/GPa)
#
#
# Indices 1 2 3 4 5 6 
#
# 1 0.008751 -0.000375 -0.002000 0.000000 0.004507 0.000000
# 2 -0.000375 0.017660 -0.002449 0.000000 0.005057 0.000000
# 3 -0.002000 -0.002449 0.012602 0.000000 0.001663 0.000000
# 4 0.000000 0.000000 0.000000 0.141315 0.000000 0.038630
# 5 0.004507 0.005057 0.001663 0.000000 0.028696 0.000000
# 6 0.000000 0.000000 0.000000 0.038630 0.000000 0.055174
#
#
# Mechanical properties :
#
#
# Convention : Reuss Voigt Hill
#
# Bulk Modulus (GPa) = 34.05707 44.51633 39.28670
# Shear Modulus (GPa) = 17.62822 29.85689 23.74255
#
# Velocity S-wave (km/s) = 2.84863 3.70727 3.30594
# Velocity P-wave (km/s) = 5.14751 6.23033 5.71463
#
# Compressibility (1/GPa) = 0.02936248
#
# Stress axis : x y z
#
# Youngs Moduli (GPa) = 114.27607 56.62634 79.34977
#
# Poissons Ratio (x) = 0.02126 0.15873
# Poissons Ratio (y) = 0.04290 0.19435
# Poissons Ratio (z) = 0.22860 0.13869
#
# Static dielectric constant tensor:
#      x y z
#    x 1.707380 0.000000 -0.024990 
#    y 0.000000 1.805830 0.000000 
#    z -0.024990 0.000000 1.714670 
# 
# From -- ./inp_files/66489.got.cif
#   From: 2010.05.17/outbox.cif.g08.bks.cpg/sg15_34_cif.got.tgz:66489.got - 2010.06.03 18:47:42.
