data_PCOD9277501
_publ_section_title
;
Structure prediction by ZEFSAII (Michael W. Deem and Ramdas Pophale) SiO2 
 PCOD9277501
Probable space group: C 2/C
;
_chemical_formula_sum "Si O2"
_cell_formula_units_Z 48
_cell_length_a 32.802517
_cell_length_b 16.090507
_cell_length_c 16.936330
_cell_angle_alpha 90.000000
_cell_angle_beta 16.657236
_cell_angle_gamma 90.000000
_cell_volume 2562.367428
_symmetry_space_group_name_H-M "C 2/C"
_symmetry_group_IT_number 15
_symmetry_cell_setting 'monoclinic'
loop_
_space_group_symop_operation_xyz
x,y,z
-x,y,1/2-z
-x,-y,-z
x,-y,1/2+z
1/2+x,1/2+y,z
1/2-x,1/2+y,1/2-z
1/2-x,1/2-y,-z
1/2+x,1/2-y,1/2+z
loop_
_atom_site_type_symbol
_atom_site_label
_atom_site_fract_x
_atom_site_fract_y
_atom_site_fract_z
Si Si1 0.833592 0.382480 0.544702
Si Si2 0.340528 0.272937 0.754702
Si Si3 0.426819 0.413884 0.164678
Si Si4 0.646576 0.537817 0.522924
Si Si5 0.643598 0.085379 0.796437
Si Si6 0.159158 0.510006 0.105390
O O1 0.754455 0.314620 0.637600
O O2 0.749520 0.402844 0.780845
O O3 0.822086 0.465210 0.512348
O O4 0.000000 0.363844 0.250000
O O5 0.467745 0.336309 0.541116
O O6 0.386608 0.182226 0.640154
O O7 0.250000 0.250000 0.000000
O O8 0.391895 0.421346 0.321990
O O9 0.274572 0.417410 0.403632
O O10 0.500000 0.500000 0.000000
O O11 0.728453 0.452149 0.389673
O O12 0.500000 0.523679 0.750000
O O13 0.677980 0.056513 0.642408
O O14 0.500917 0.039642 0.087829
#
# Coordination Sequence:
#
# PCOD9277501 Si02
#       6
#     8   8   8   8   8   8
#     4  12  23  41  67  95 132 177 218 273 341 393
#     4  12  23  40  65  98 132 167 226 286 326 391
#     4  11  21  39  67  95 127 178 221 263 329 407
#     4  11  21  39  66  93 128 179 220 266 335 397
#     4  10  22  38  65  95 129 168 224 273 319 397
#     4  10  20  41  64  90 127 180 220 258 333 409
#
# _framework density 18.732676000000001
#
# number of rings (size 3 to 8) (size 9 to 14) (size 15 to 20)
#    0.000    1.000    6.667    1.000    0.000    1.333 
#    0.000    3.333    0.000    0.000    0.000    0.000 
#    0.000    0.000    0.000    0.000    0.000    0.000 
#
# Total GULP energy -133966.064863 kJ/mol
# GULP energy per Si atom -5581.919369 kJ/mol
# Density = 1.869004 g / cm^3
# Si number density = 18.732676 Si / 1000 Ang^3
#
#
#
# Elastic Constant Matrix: (Units=GPa)
#
#
# Indices 1 2 3 4 5 6 
#
# 1 59.1382 20.2737 32.6845 0.0000 7.8714 0.0000
# 2 20.2737 106.6709 36.3694 -0.0001 -0.6060 0.0001
# 3 32.6845 36.3694 110.6402 -0.0001 3.9610 0.0001
# 4 0.0000 -0.0001 -0.0001 33.3762 0.0001 -5.6497
# 5 7.8714 -0.6060 3.9610 0.0001 50.6912 -0.0001
# 6 0.0000 0.0001 0.0001 -5.6497 -0.0001 23.8914
#
#
#
# Elastic Compliance Matrix: (Units=1/GPa)
#
#
# Indices 1 2 3 4 5 6 
#
# 1 0.021016 -0.002172 -0.005392 0.000000 -0.002868 0.000000
# 2 -0.002172 0.010790 -0.002930 0.000000 0.000695 0.000000
# 3 -0.005392 -0.002930 0.011598 0.000000 -0.000104 0.000000
# 4 0.000000 0.000000 0.000000 0.031211 0.000000 0.007381
# 5 -0.002868 0.000695 -0.000104 0.000000 0.020189 0.000000
# 6 0.000000 0.000000 0.000000 0.007381 0.000000 0.043601
#
#
# Mechanical properties :
#
#
# Convention : Reuss Voigt Hill
#
# Bulk Modulus (GPa) = 44.61068 50.56717 47.58892
# Shear Modulus (GPa) = 29.96421 34.06654 32.01538
#
# Velocity S-wave (km/s) = 4.00380 4.26909 4.13857
# Velocity P-wave (km/s) = 6.72607 7.16609 6.94956
#
# Compressibility (1/GPa) = 0.02241616
#
# Stress axis : x y z
#
# Youngs Moduli (GPa) = 47.58324 92.67422 86.22186
#
# Poissons Ratio (x) = 0.20131 0.46487
# Poissons Ratio (y) = 0.10336 0.25265
# Poissons Ratio (z) = 0.25655 0.27155
#
# Static dielectric constant tensor:
#      x y z
#    x 1.658490 0.000000 -0.001030 
#    y 0.000000 1.642620 0.000000 
#    z -0.001030 0.000000 1.672010 
# 
# From -- ./inp_files/182436.got.cif
#   From: 2010.05.17/outbox.cif.g08.bks.cpg/sg15_92_cif.got.tgz:182436.got - 2010.06.03 18:47:42.
