data_PCOD9277832
_publ_section_title
;
Structure prediction by ZEFSAII (Michael W. Deem and Ramdas Pophale) SiO2 
 PCOD9277832
Probable space group: C 2/C
;
_chemical_formula_sum "Si O2"
_cell_formula_units_Z 52
_cell_length_a 26.189124
_cell_length_b 8.263589
_cell_length_c 19.428930
_cell_angle_alpha 90.000000
_cell_angle_beta 32.351474
_cell_angle_gamma 90.000000
_cell_volume 2250.001752
_symmetry_space_group_name_H-M "C 2/C"
_symmetry_group_IT_number 15
_symmetry_cell_setting 'monoclinic'
loop_
_space_group_symop_operation_xyz
x,y,z
-x,y,1/2-z
-x,-y,-z
x,-y,1/2+z
1/2+x,1/2+y,z
1/2-x,1/2+y,1/2-z
1/2-x,1/2-y,-z
1/2+x,1/2-y,1/2+z
loop_
_atom_site_type_symbol
_atom_site_label
_atom_site_fract_x
_atom_site_fract_y
_atom_site_fract_z
Si Si1 0.830578 0.372669 0.349974
Si Si2 0.500000 0.465887 0.750000
Si Si3 0.048681 0.665853 0.921923
Si Si4 0.321656 0.647664 0.963576
Si Si5 0.646094 0.797153 0.031402
Si Si6 0.683592 0.676666 0.380040
Si Si7 0.358876 0.694618 0.610265
O O1 0.749740 0.505612 0.431649
O O2 0.760380 0.218097 0.419753
O O3 0.878984 0.393046 0.369659
O O4 0.905934 0.364152 0.204192
O O5 0.415379 0.580712 0.817720
O O6 0.433458 0.348817 0.872125
O O7 0.126435 0.724986 0.887474
O O8 0.967580 0.801525 0.009345
O O9 0.208075 0.265286 0.753927
O O10 0.000000 0.500000 0.000000
O O11 0.250000 0.750000 0.000000
O O12 0.352541 0.719558 0.002075
O O13 0.648253 0.818246 0.947199
O O14 0.672340 0.485198 0.376923
#
# Coordination Sequence:
#
# PCOD9277832 Si02
#       7
#     8   4   8   8   8   8   8
#     4  10  21  42  66 100 134 178 233 282 344 415
#     4  10  20  42  68  94 138 170 230 276 346 404
#     4  12  26  44  71 102 142 189 235 292 350 431
#     4  11  25  44  68 102 143 181 227 296 362 419
#     4  10  20  41  71  96 130 176 232 289 328 413
#     4  12  25  49  65 104 144 181 238 293 357 422
#     4  12  24  45  73 100 139 188 231 294 354 421
#
# _framework density 23.111094000000001
#
# number of rings (size 3 to 8) (size 9 to 14) (size 15 to 20)
#    0.000    0.923    4.615    3.231    0.000    4.923 
#    5.538    0.769    0.000    0.000    0.000    0.000 
#    0.000    0.000    0.000    0.000    0.000    0.000 
#
# Total GULP energy -144898.455245 kJ/mol
# GULP energy per Si atom -5573.017509 kJ/mol
# Density = 2.305849 g / cm^3
# Si number density = 23.111094 Si / 1000 Ang^3
#
#
#
# Elastic Constant Matrix: (Units=GPa)
#
#
# Indices 1 2 3 4 5 6 
#
# 1 52.3099 11.4156 -0.2898 -0.0009 18.5290 -0.0013
# 2 11.4156 47.0987 29.6955 0.0000 3.4163 -0.0005
# 3 -0.2898 29.6955 137.5186 0.0031 6.3219 0.0000
# 4 -0.0009 0.0000 0.0031 29.2501 -0.0005 -10.1983
# 5 18.5290 3.4163 6.3219 -0.0005 34.7566 0.0001
# 6 -0.0013 -0.0005 0.0000 -10.1983 0.0001 21.9415
#
#
#
# Elastic Compliance Matrix: (Units=1/GPa)
#
#
# Indices 1 2 3 4 5 6 
#
# 1 0.025201 -0.006446 0.002051 0.000001 -0.013174 0.000002
# 2 -0.006446 0.026301 -0.005780 0.000001 0.001902 0.000001
# 3 0.002051 -0.005780 0.008620 -0.000001 -0.002093 -0.000001
# 4 0.000001 0.000001 -0.000001 0.040800 0.000000 0.018964
# 5 -0.013174 0.001902 -0.002093 0.000000 0.035989 -0.000001
# 6 0.000002 0.000001 -0.000001 0.018964 -0.000001 0.054390
#
#
# Mechanical properties :
#
#
# Convention : Reuss Voigt Hill
#
# Bulk Modulus (GPa) = 25.14326 35.39666 30.26996
# Shear Modulus (GPa) = 22.23123 30.26338 26.24730
#
# Velocity S-wave (km/s) = 3.10486 3.62259 3.37367
# Velocity P-wave (km/s) = 4.87406 5.73120 5.31992
#
# Compressibility (1/GPa) = 0.03977209
#
# Stress axis : x y z
#
# Youngs Moduli (GPa) = 39.68030 38.02167 116.00274
#
# Poissons Ratio (x) = 0.24507 -0.23787
# Poissons Ratio (y) = 0.25576 0.67054
# Poissons Ratio (z) = -0.08137 0.21978
#
# Static dielectric constant tensor:
#      x y z
#    x 1.956750 -0.000020 -0.012400 
#    y -0.000020 2.875810 0.000030 
#    z -0.012400 0.000030 1.892700 
# 
# From -- ./inp_files/303027.got.cif
#   From: 2010.05.17/outbox.cif.g08.bks.cpg/sg15_152_cif.got.tgz:303027.got - 2010.06.03 18:47:42.
