data_PCOD9277562
_publ_section_title
;
Structure prediction by ZEFSAII (Michael W. Deem and Ramdas Pophale) SiO2 
 PCOD9277562
Probable space group: C 2/C
;
_chemical_formula_sum "Si O2"
_cell_formula_units_Z 60
_cell_length_a 9.177221
_cell_length_b 16.638840
_cell_length_c 23.438404
_cell_angle_alpha 90.000000
_cell_angle_beta 128.155410
_cell_angle_gamma 90.000000
_cell_volume 2814.307154
_symmetry_space_group_name_H-M "C 2/C"
_symmetry_group_IT_number 15
_symmetry_cell_setting 'monoclinic'
loop_
_space_group_symop_operation_xyz
x,y,z
-x,y,1/2-z
-x,-y,-z
x,-y,1/2+z
1/2+x,1/2+y,z
1/2-x,1/2+y,1/2-z
1/2-x,1/2-y,-z
1/2+x,1/2-y,1/2+z
loop_
_atom_site_type_symbol
_atom_site_label
_atom_site_fract_x
_atom_site_fract_y
_atom_site_fract_z
Si Si1 0.167939 0.141100 0.949636
Si Si2 0.739290 0.042235 0.735868
Si Si3 0.978114 0.242834 0.493419
Si Si4 0.697220 0.699442 0.167022
Si Si5 0.194345 0.179432 0.372052
Si Si6 0.668252 0.493912 0.364351
Si Si7 0.324377 0.291768 0.300701
Si Si8 0.000000 0.428002 0.750000
O O1 0.359697 0.188977 0.997873
O O2 0.198883 0.053129 0.931073
O O3 0.029108 0.184956 0.871306
O O4 0.062839 0.158719 0.983657
O O5 0.741257 0.052045 0.667923
O O6 0.718251 0.124120 0.766612
O O7 0.945684 0.008724 0.800183
O O8 0.585974 0.980948 0.720406
O O9 0.892701 0.237115 0.410607
O O10 0.186672 0.272912 0.551550
O O11 0.520399 0.679532 0.163588
O O12 0.819880 0.755077 0.237156
O O13 0.829932 0.624994 0.185462
O O14 0.239823 0.229305 0.325667
O O15 0.241084 0.084989 0.380157
#
# Coordination Sequence:
#
# PCOD9277562 Si02
#       8
#     8   8   8   8   8   8   8   4
#     4   9  20  41  64  90 123 169 212 277 314 389
#     4  10  22  38  63  97 129 164 207 276 328 391
#     4  10  22  40  61  90 132 168 222 261 325 385
#     4  12  23  39  62  93 126 172 213 272 321 387
#     4  11  23  39  62  93 128 175 212 269 320 396
#     4  10  20  41  65  92 129 168 219 263 334 381
#     4  10  22  40  68  93 126 167 220 264 329 384
#     4  12  24  38  62  96 134 158 216 276 334 368
#
# _framework density 21.319633
#
# number of rings (size 3 to 8) (size 9 to 14) (size 15 to 20)
#    0.000    1.600    1.333    3.200    3.733    4.800 
#    0.000    2.000    0.000    0.000    0.000    0.000 
#    0.000    0.000    0.000    0.000    0.000    0.000 
#
# Total GULP energy -167457.917375 kJ/mol
# GULP energy per Si atom -5581.930579 kJ/mol
# Density = 2.127111 g / cm^3
# Si number density = 21.319633 Si / 1000 Ang^3
#
#
#
# Elastic Constant Matrix: (Units=GPa)
#
#
# Indices 1 2 3 4 5 6 
#
# 1 94.8053 44.3645 20.7132 0.0000 10.7677 0.0000
# 2 44.3645 117.1324 23.1573 0.0000 -10.4709 0.0000
# 3 20.7132 23.1573 76.3838 0.0000 -15.3884 0.0000
# 4 0.0000 0.0000 0.0000 5.4936 0.0000 2.6243
# 5 10.7677 -10.4709 -15.3884 0.0000 22.8440 0.0000
# 6 0.0000 0.0000 0.0000 2.6243 0.0000 28.6761
#
#
#
# Elastic Compliance Matrix: (Units=1/GPa)
#
#
# Indices 1 2 3 4 5 6 
#
# 1 0.016330 -0.006399 -0.005357 0.000000 -0.014239 0.000000
# 2 -0.006399 0.011732 -0.000151 0.000000 0.008292 0.000000
# 3 -0.005357 -0.000151 0.017454 0.000000 0.014213 0.000000
# 4 0.000000 0.000000 0.000000 0.190353 0.000000 -0.017420
# 5 -0.014239 0.008292 0.014213 0.000000 0.063862 0.000000
# 6 0.000000 0.000000 0.000000 -0.017420 0.000000 0.036466
#
#
# Mechanical properties :
#
#
# Convention : Reuss Voigt Hill
#
# Bulk Modulus (GPa) = 46.07881 51.64352 48.86116
# Shear Modulus (GPa) = 13.61492 24.74182 19.17837
#
# Velocity S-wave (km/s) = 2.52981 3.41033 3.00253
# Velocity P-wave (km/s) = 5.49486 6.30739 5.91510
#
# Compressibility (1/GPa) = 0.02170195
#
# Stress axis : x y z
#
# Youngs Moduli (GPa) = 61.23765 85.23658 57.29473
#
# Poissons Ratio (x) = 0.54541 0.30692
# Poissons Ratio (y) = 0.39185 0.00866
# Poissons Ratio (z) = 0.32804 0.01288
#
# Static dielectric constant tensor:
#      x y z
#    x 1.789490 0.000000 -0.011190 
#    y 0.000000 1.823890 0.000000 
#    z -0.011190 0.000000 1.774830 
# 
# From -- ./inp_files/233089.got.cif
#   From: 2010.05.17/outbox.cif.g08.bks.cpg/sg15_117_cif.got.tgz:233089.got - 2010.06.03 18:47:42.
