data_PCOD9277655
_publ_section_title
;
Structure prediction by ZEFSAII (Michael W. Deem and Ramdas Pophale) SiO2 
 PCOD9277655
Probable space group: C 2/C
;
_chemical_formula_sum "Si O2"
_cell_formula_units_Z 36
_cell_length_a 8.406125
_cell_length_b 15.729791
_cell_length_c 19.174431
_cell_angle_alpha 90.000000
_cell_angle_beta 146.402201
_cell_angle_gamma 90.000000
_cell_volume 1402.970995
_symmetry_space_group_name_H-M "C 2/C"
_symmetry_group_IT_number 15
_symmetry_cell_setting 'monoclinic'
loop_
_space_group_symop_operation_xyz
x,y,z
-x,y,1/2-z
-x,-y,-z
x,-y,1/2+z
1/2+x,1/2+y,z
1/2-x,1/2+y,1/2-z
1/2-x,1/2-y,-z
1/2+x,1/2-y,1/2+z
loop_
_atom_site_type_symbol
_atom_site_label
_atom_site_fract_x
_atom_site_fract_y
_atom_site_fract_z
Si Si1 0.500000 0.740352 0.750000
Si Si2 0.382366 0.072290 0.359994
Si Si3 0.092688 0.985549 0.900253
Si Si4 0.414437 0.732737 0.863817
Si Si5 0.102439 0.821183 0.994086
O O1 0.397358 0.690160 0.781197
O O2 0.765445 0.798402 0.868589
O O3 0.246400 0.041697 0.383712
O O4 0.297105 0.170285 0.315398
O O5 0.239783 0.016682 0.245856
O O6 0.724364 0.061759 0.498565
O O7 0.143069 0.911292 0.974251
O O8 0.295744 0.688529 0.889341
O O9 0.750000 0.750000 0.000000
O O10 0.250000 0.750000 0.000000
#
# Coordination Sequence:
#
# PCOD9277655 Si02
#       5
#     4   8   8   8   8
#     4  10  22  40  62  92 138 178 222 296 356 406
#     4  10  20  41  66  98 138 187 226 287 348 430
#     4  10  21  39  67  99 138 182 233 283 354 418
#     4  10  21  39  66  97 131 183 229 285 357 413
#     4  11  21  39  68 101 133 180 236 293 353 422
#
# _framework density 25.659832000000002
#
# number of rings (size 3 to 8) (size 9 to 14) (size 15 to 20)
#    0.000    1.778    4.444    0.000    0.000    0.889 
#    8.000    4.444    0.000    0.000    0.000    0.000 
#    0.000    0.000    0.000    0.000    0.000    0.000 
#
# Total GULP energy -100605.923506 kJ/mol
# GULP energy per Si atom -5589.217973 kJ/mol
# Density = 2.560143 g / cm^3
# Si number density = 25.659832 Si / 1000 Ang^3
#
#
#
# Elastic Constant Matrix: (Units=GPa)
#
#
# Indices 1 2 3 4 5 6 
#
# 1 127.2125 36.6028 42.3969 0.0005 -60.5333 -0.0001
# 2 36.6028 81.3803 34.6029 0.0011 -16.7020 0.0005
# 3 42.3969 34.6029 156.2226 0.0036 -22.7905 0.0021
# 4 0.0005 0.0011 0.0036 35.6073 0.0023 -0.0266
# 5 -60.5333 -16.7020 -22.7905 0.0023 57.4954 0.0005
# 6 -0.0001 0.0005 0.0021 -0.0266 0.0005 12.2152
#
#
#
# Elastic Compliance Matrix: (Units=1/GPa)
#
#
# Indices 1 2 3 4 5 6 
#
# 1 0.017302 -0.003771 -0.001446 -0.000001 0.016547 0.000000
# 2 -0.003771 0.014865 -0.002355 0.000000 -0.000585 0.000000
# 3 -0.001446 -0.002355 0.007422 -0.000001 0.000736 -0.000001
# 4 -0.000001 0.000000 -0.000001 0.028084 -0.000003 0.000061
# 5 0.016547 -0.000585 0.000736 -0.000003 0.034936 -0.000001
# 6 0.000000 0.000000 -0.000001 0.000061 -0.000001 0.081865
#
#
# Mechanical properties :
#
#
# Convention : Reuss Voigt Hill
#
# Bulk Modulus (GPa) = 40.90679 65.78007 53.34343
# Shear Modulus (GPa) = 24.06548 37.81110 30.93829
#
# Velocity S-wave (km/s) = 3.06578 3.84285 3.47610
# Velocity P-wave (km/s) = 5.33934 6.73655 6.07823
#
# Compressibility (1/GPa) = 0.02444582
#
# Stress axis : x y z
#
# Youngs Moduli (GPa) = 57.79754 67.27161 134.72630
#
# Poissons Ratio (x) = 0.25368 0.19485
# Poissons Ratio (y) = 0.21795 0.31723
# Poissons Ratio (z) = 0.08359 0.15840
#
# Static dielectric constant tensor:
#      x y z
#    x 2.085280 0.000000 0.025500 
#    y 0.000000 2.005260 0.000000 
#    z 0.025500 0.000000 2.095390 
# 
# From -- ./inp_files/76369.got.cif
#   From: 2010.05.17/outbox.cif.g08.bks.cpg/sg15_39_cif.got.tgz:76369.got - 2010.06.03 18:47:42.
