data_PCOD9277683
_publ_section_title
;
Structure prediction by ZEFSAII (Michael W. Deem and Ramdas Pophale) SiO2 
 PCOD9277683
Probable space group: C 2/C
;
_chemical_formula_sum "Si O2"
_cell_formula_units_Z 64
_cell_length_a 23.964506
_cell_length_b 13.968983
_cell_length_c 9.079180
_cell_angle_alpha 90.000000
_cell_angle_beta 91.578433
_cell_angle_gamma 90.000000
_cell_volume 3038.191005
_symmetry_space_group_name_H-M "C 2/C"
_symmetry_group_IT_number 15
_symmetry_cell_setting 'monoclinic'
loop_
_space_group_symop_operation_xyz
x,y,z
-x,y,1/2-z
-x,-y,-z
x,-y,1/2+z
1/2+x,1/2+y,z
1/2-x,1/2+y,1/2-z
1/2-x,1/2-y,-z
1/2+x,1/2-y,1/2+z
loop_
_atom_site_type_symbol
_atom_site_label
_atom_site_fract_x
_atom_site_fract_y
_atom_site_fract_z
Si Si1 0.263182 0.241771 0.326071
Si Si2 0.482951 0.401287 0.579726
Si Si3 0.124796 0.998096 0.460396
Si Si4 0.881803 0.642314 0.251402
Si Si5 0.192830 0.078382 0.224463
Si Si6 0.051691 0.174519 0.852703
Si Si7 0.858319 0.488395 0.998952
Si Si8 0.282493 0.066656 0.733173
O O1 0.250000 0.250000 0.500000
O O2 0.320960 0.188125 0.289866
O O3 0.211177 0.186643 0.246332
O O4 0.260933 0.347491 0.258641
O O5 0.500000 0.405707 0.750000
O O6 0.500000 0.500000 0.500000
O O7 0.416675 0.409939 0.546154
O O8 0.520163 0.318811 0.507847
O O9 0.179444 0.035074 0.383011
O O10 0.141862 0.951415 0.616538
O O11 0.096289 0.910963 0.369193
O O12 0.921470 0.730531 0.211915
O O13 0.896883 0.575446 0.393417
O O14 0.879998 0.571164 0.110109
O O15 0.247747 0.024211 0.175714
O O16 0.000000 0.142333 0.750000
O O17 0.815376 0.538489 0.881996
O O18 0.827081 0.415603 0.107468
#
# Coordination Sequence:
#
# PCOD9277683 Si02
#       8
#     8   8   8   8   8   8   8   8
#     4  12  23  37  62  97 137 178 228 267 325 405
#     4  10  20  41  67  92 138 179 214 271 338 398
#     4  11  22  38  62  99 140 178 209 261 342 411
#     4  11  24  43  68  94 127 180 230 276 346 389
#     4  12  23  36  62  98 139 179 222 257 321 416
#     4  11  24  44  68  99 130 172 230 292 343 404
#     4  10  21  43  63  85 128 177 219 274 335 380
#     4  11  21  39  59  86 137 177 217 264 317 383
#
# _framework density 21.065168
#
# number of rings (size 3 to 8) (size 9 to 14) (size 15 to 20)
#    0.000    1.000    3.750    6.000    1.750    1.500 
#    0.000    1.875    0.000    0.000    0.000    0.000 
#    0.000    0.000    0.000    0.000    0.000    0.000 
#
# Total GULP energy -178431.095282 kJ/mol
# GULP energy per Si atom -5575.971728 kJ/mol
# Density = 2.101722 g / cm^3
# Si number density = 21.065168 Si / 1000 Ang^3
#
#
#
# Elastic Constant Matrix: (Units=GPa)
#
#
# Indices 1 2 3 4 5 6 
#
# 1 45.4575 14.8820 30.9723 0.0000 -7.6177 0.0000
# 2 14.8820 82.7369 18.7912 0.0000 -11.8443 0.0000
# 3 30.9723 18.7912 113.5288 0.0000 -11.3261 0.0000
# 4 0.0000 0.0000 0.0000 28.1602 0.0000 -12.9225
# 5 -7.6177 -11.8443 -11.3261 0.0000 26.4957 0.0000
# 6 0.0000 0.0000 0.0000 -12.9225 0.0000 33.0699
#
#
#
# Elastic Compliance Matrix: (Units=1/GPa)
#
#
# Indices 1 2 3 4 5 6 
#
# 1 0.028281 -0.002979 -0.006836 0.000000 0.003877 0.000000
# 2 -0.002979 0.013522 -0.000948 0.000000 0.004783 0.000000
# 3 -0.006836 -0.000948 0.011064 0.000000 0.002340 0.000000
# 4 0.000000 0.000000 0.000000 0.043270 0.000000 0.016908
# 5 0.003877 0.004783 0.002340 0.000000 0.041995 0.000000
# 6 0.000000 0.000000 0.000000 0.016908 0.000000 0.036846
#
#
# Mechanical properties :
#
#
# Convention : Reuss Voigt Hill
#
# Bulk Modulus (GPa) = 31.90732 41.22382 36.56557
# Shear Modulus (GPa) = 24.16017 29.35034 26.75526
#
# Velocity S-wave (km/s) = 3.39030 3.73676 3.56774
# Velocity P-wave (km/s) = 5.52317 6.18304 5.86239
#
# Compressibility (1/GPa) = 0.03134077
#
# Stress axis : x y z
#
# Youngs Moduli (GPa) = 35.35935 73.95085 90.38660
#
# Poissons Ratio (x) = 0.22033 0.61784
# Poissons Ratio (y) = 0.10535 0.08571
# Poissons Ratio (z) = 0.24170 0.07012
#
# Static dielectric constant tensor:
#      x y z
#    x 1.971040 0.000000 -0.002840 
#    y 0.000000 1.773930 0.000000 
#    z -0.002840 0.000000 1.832730 
# 
# From -- ./inp_files/61926.got.cif
#   From: 2010.05.17/outbox.cif.g08.bks.cpg/sg15_31_cif.got.tgz:61926.got - 2010.06.03 18:47:42.
