data_PCOD9277492
_publ_section_title
;
Structure prediction by ZEFSAII (Michael W. Deem and Ramdas Pophale) SiO2 
 PCOD9277492
Probable space group: C 2/C
;
_chemical_formula_sum "Si O2"
_cell_formula_units_Z 56
_cell_length_a 21.274346
_cell_length_b 26.129050
_cell_length_c 10.118383
_cell_angle_alpha 90.000000
_cell_angle_beta 151.385241
_cell_angle_gamma 90.000000
_cell_volume 2693.717927
_symmetry_space_group_name_H-M "C 2/C"
_symmetry_group_IT_number 15
_symmetry_cell_setting 'monoclinic'
loop_
_space_group_symop_operation_xyz
x,y,z
-x,y,1/2-z
-x,-y,-z
x,-y,1/2+z
1/2+x,1/2+y,z
1/2-x,1/2+y,1/2-z
1/2-x,1/2-y,-z
1/2+x,1/2-y,1/2+z
loop_
_atom_site_type_symbol
_atom_site_label
_atom_site_fract_x
_atom_site_fract_y
_atom_site_fract_z
Si Si1 0.000000 0.853844 0.250000
Si Si2 0.378757 0.806715 0.843800
Si Si3 0.629245 0.034724 0.219884
Si Si4 0.009243 0.379058 0.906593
Si Si5 0.000000 0.117529 0.250000
Si Si6 0.393605 0.689534 0.819549
Si Si7 0.223576 0.607791 0.176882
Si Si8 0.263241 0.434198 0.459578
O O1 0.984846 0.821297 0.358093
O O2 0.129812 0.888152 0.494473
O O3 0.498567 0.837729 0.001397
O O4 0.406459 0.746994 0.899205
O O5 0.254421 0.814332 0.513358
O O6 0.338965 0.837066 0.902867
O O7 0.608881 0.080607 0.285614
O O8 0.641888 0.064535 0.104513
O O9 0.747443 0.994995 0.449917
O O10 0.500000 0.000000 0.000000
O O11 0.000000 0.352106 0.750000
O O12 0.140474 0.412325 0.150562
O O13 0.070132 0.151625 0.493807
O O14 0.105664 0.083106 0.369125
O O15 0.240993 0.592614 0.059068
#
# Coordination Sequence:
#
# PCOD9277492 Si02
#       8
#     4   8   8   8   4   8   8   8
#     4  10  20  41  64  88 128 176 209 254 322 394
#     4   9  21  40  65  91 123 169 211 260 320 386
#     4   9  22  38  62  90 120 161 207 262 314 378
#     4  10  21  38  62  93 122 159 209 263 314 385
#     4  12  24  43  60  98 132 166 215 274 316 386
#     4  10  21  40  65  91 130 167 213 264 319 380
#     4  10  21  42  63  90 124 168 214 263 325 386
#     4  11  24  40  63  89 129 168 207 273 320 376
#
# _framework density 20.789110999999998
#
# number of rings (size 3 to 8) (size 9 to 14) (size 15 to 20)
#    0.000    2.000    1.429    0.857    5.000    6.286 
#    2.571    2.857    0.000    0.000    0.000    0.000 
#    0.000    0.000    0.000    0.000    0.000    0.000 
#
# Total GULP energy -156194.978389 kJ/mol
# GULP energy per Si atom -5578.392085 kJ/mol
# Density = 2.074179 g / cm^3
# Si number density = 20.789111 Si / 1000 Ang^3
#
#
#
# Elastic Constant Matrix: (Units=GPa)
#
#
# Indices 1 2 3 4 5 6 
#
# 1 161.6496 57.8479 31.8598 0.0000 -6.0651 0.0000
# 2 57.8479 123.7169 23.4706 0.0000 6.1742 0.0000
# 3 31.8598 23.4706 38.9951 0.0000 0.1166 0.0000
# 4 0.0000 0.0000 0.0000 19.8235 0.0000 6.3554
# 5 -6.0651 6.1742 0.1166 0.0000 33.7929 0.0000
# 6 0.0000 0.0000 0.0000 6.3554 0.0000 8.5742
#
#
#
# Elastic Compliance Matrix: (Units=1/GPa)
#
#
# Indices 1 2 3 4 5 6 
#
# 1 0.008340 -0.003058 -0.004979 0.000000 0.002073 0.000000
# 2 -0.003058 0.010339 -0.003717 0.000000 -0.002425 0.000000
# 3 -0.004979 -0.003717 0.031950 0.000000 -0.000325 0.000000
# 4 0.000000 0.000000 0.000000 0.066170 0.000000 -0.049047
# 5 0.002073 -0.002425 -0.000325 0.000000 0.030408 0.000000
# 6 0.000000 0.000000 0.000000 -0.049047 0.000000 0.152984
#
#
# Mechanical properties :
#
#
# Convention : Reuss Voigt Hill
#
# Bulk Modulus (GPa) = 36.87268 61.19092 49.03180
# Shear Modulus (GPa) = 15.02672 26.51702 20.77187
#
# Velocity S-wave (km/s) = 2.69144 3.57532 3.16440
# Velocity P-wave (km/s) = 5.23770 6.82216 6.08175
#
# Compressibility (1/GPa) = 0.02712035
#
# Stress axis : x y z
#
# Youngs Moduli (GPa) = 119.90663 96.71919 31.29842
#
# Poissons Ratio (x) = 0.29580 0.15584
# Poissons Ratio (y) = 0.36672 0.11634
# Poissons Ratio (z) = 0.59704 0.35951
#
# Static dielectric constant tensor:
#      x y z
#    x 1.754160 0.000000 -0.009410 
#    y 0.000000 1.765150 0.000000 
#    z -0.009410 0.000000 1.796310 
# 
# From -- ./inp_files/52396.got.cif
#   From: 2010.05.17/outbox.cif.g08.bks.cpg/sg15_27_cif.got.tgz:52396.got - 2010.06.03 18:47:42.
