data_PCOD9277150
_publ_section_title
;
Structure prediction by ZEFSAII (Michael W. Deem and Ramdas Pophale) SiO2 
 PCOD9277150
Probable space group: C 2/C
;
_chemical_formula_sum "Si O2"
_cell_formula_units_Z 44
_cell_length_a 18.279417
_cell_length_b 13.295901
_cell_length_c 8.997703
_cell_angle_alpha 90.000000
_cell_angle_beta 81.552673
_cell_angle_gamma 90.000000
_cell_volume 2163.089582
_symmetry_space_group_name_H-M "C 2/C"
_symmetry_group_IT_number 15
_symmetry_cell_setting 'monoclinic'
loop_
_space_group_symop_operation_xyz
x,y,z
-x,y,1/2-z
-x,-y,-z
x,-y,1/2+z
1/2+x,1/2+y,z
1/2-x,1/2+y,1/2-z
1/2-x,1/2-y,-z
1/2+x,1/2-y,1/2+z
loop_
_atom_site_type_symbol
_atom_site_label
_atom_site_fract_x
_atom_site_fract_y
_atom_site_fract_z
Si Si1 0.500000 0.000000 0.500000
Si Si2 0.584518 0.795684 0.032864
Si Si3 0.857202 0.762024 0.676508
Si Si4 0.670096 0.926320 0.508942
Si Si5 0.491145 0.392477 0.575229
Si Si6 0.720284 0.887213 0.827381
O O1 0.473520 0.881632 0.494761
O O2 0.586204 0.965719 0.512076
O O3 0.661572 0.817535 0.929949
O O4 0.597755 0.796147 0.206915
O O5 0.552499 0.686829 0.003572
O O6 0.822981 0.679263 0.578184
O O7 0.912786 0.836938 0.575833
O O8 0.795899 0.828973 0.776794
O O9 0.686775 0.914854 0.676940
O O10 0.723434 0.010169 0.420852
O O11 0.500000 0.403076 0.750000
O O12 0.500000 0.500000 0.500000
#
# Coordination Sequence:
#
# PCOD9277150 Si02
#       6
#     4   8   8   8   8   8
#     4  10  20  40  68  96 128 162 228 278 338 382
#     4  10  22  41  66  96 126 174 221 282 339 392
#     4  11  23  43  64  93 136 176 225 275 339 410
#     4  11  23  40  64  97 132 173 223 281 338 392
#     4  10  23  41  64  92 129 176 221 272 331 400
#     4  11  25  39  64  97 131 176 218 275 340 404
#
# _framework density 20.341273999999999
#
# number of rings (size 3 to 8) (size 9 to 14) (size 15 to 20)
#    0.000    1.455    1.818    3.273    0.000   11.636 
#    0.000    0.000    0.000    0.000    0.000    0.000 
#    0.000    0.000    0.000    0.000    0.000    0.000 
#
# Total GULP energy -122476.423904 kJ/mol
# GULP energy per Si atom -5567.110177 kJ/mol
# Density = 2.029498 g / cm^3
# Si number density = 20.341274 Si / 1000 Ang^3
#
#
#
# Elastic Constant Matrix: (Units=GPa)
#
#
# Indices 1 2 3 4 5 6 
#
# 1 38.9380 15.9489 0.1354 0.0000 -15.3364 0.0000
# 2 15.9489 153.6342 38.9238 0.0000 -11.5179 0.0000
# 3 0.1354 38.9238 59.6789 0.0000 -6.7913 0.0000
# 4 0.0000 0.0000 0.0000 39.1043 0.0000 -15.7508
# 5 -15.3364 -11.5179 -6.7913 0.0000 21.2354 0.0000
# 6 0.0000 0.0000 0.0000 -15.7508 0.0000 42.7535
#
#
#
# Elastic Compliance Matrix: (Units=1/GPa)
#
#
# Indices 1 2 3 4 5 6 
#
# 1 0.037621 -0.003156 0.005054 0.000000 0.027075 0.000000
# 2 -0.003156 0.008214 -0.005296 0.000000 0.000482 0.000000
# 3 0.005054 -0.005296 0.021054 0.000000 0.007511 0.000000
# 4 0.000000 0.000000 0.000000 0.030029 0.000000 0.011063
# 5 0.027075 0.000482 0.007511 0.000000 0.069308 0.000000
# 6 0.000000 0.000000 0.000000 0.011063 0.000000 0.027466
#
#
# Mechanical properties :
#
#
# Convention : Reuss Voigt Hill
#
# Bulk Modulus (GPa) = 16.64068 40.25191 28.44630
# Shear Modulus (GPa) = 22.67394 33.76819 28.22107
#
# Velocity S-wave (km/s) = 3.34230 4.07883 3.72880
# Velocity P-wave (km/s) = 4.80553 6.48180 5.70556
#
# Compressibility (1/GPa) = 0.06009368
#
# Stress axis : x y z
#
# Youngs Moduli (GPa) = 26.58105 121.73700 47.49804
#
# Poissons Ratio (x) = 0.38422 -0.24007
# Poissons Ratio (y) = 0.08389 0.25153
# Poissons Ratio (z) = -0.13435 0.64467
#
# Static dielectric constant tensor:
#      x y z
#    x 1.727000 0.000000 -0.003010 
#    y 0.000000 1.715410 0.000000 
#    z -0.003010 0.000000 1.728570 
# 
# From -- ./inp_files/54443.got.cif
#   From: 2010.05.17/outbox.cif.g08.bks.cpg/sg15_28_cif.got.tgz:54443.got - 2010.06.03 18:47:42.
