data_PCOD9277285
_publ_section_title
;
Structure prediction by ZEFSAII (Michael W. Deem and Ramdas Pophale) SiO2 
 PCOD9277285
Probable space group: C 2/C
;
_chemical_formula_sum "Si O2"
_cell_formula_units_Z 56
_cell_length_a 29.346089
_cell_length_b 11.135384
_cell_length_c 14.290963
_cell_angle_alpha 90.000000
_cell_angle_beta 32.147617
_cell_angle_gamma 90.000000
_cell_volume 2484.918529
_symmetry_space_group_name_H-M "C 2/C"
_symmetry_group_IT_number 15
_symmetry_cell_setting 'monoclinic'
loop_
_space_group_symop_operation_xyz
x,y,z
-x,y,1/2-z
-x,-y,-z
x,-y,1/2+z
1/2+x,1/2+y,z
1/2-x,1/2+y,1/2-z
1/2-x,1/2-y,-z
1/2+x,1/2-y,1/2+z
loop_
_atom_site_type_symbol
_atom_site_label
_atom_site_fract_x
_atom_site_fract_y
_atom_site_fract_z
Si Si1 0.198491 0.153715 0.525732
Si Si2 0.753897 0.814930 0.268633
Si Si3 0.768778 0.480613 0.541596
Si Si4 0.556195 0.253303 0.569745
Si Si5 0.052623 0.434727 0.325504
Si Si6 0.980248 0.132747 0.569013
Si Si7 0.347359 0.249158 0.720246
O O1 0.250000 0.250000 0.500000
O O2 0.215948 0.201896 0.392610
O O3 0.099253 0.148889 0.724351
O O4 0.236403 0.028831 0.496973
O O5 0.692201 0.836562 0.289111
O O6 0.763808 0.929224 0.319866
O O7 0.846135 0.770534 0.073751
O O8 0.871659 0.501838 0.361134
O O9 0.723520 0.351308 0.633868
O O10 0.500000 0.311073 0.750000
O O11 0.518054 0.120914 0.619788
O O12 0.545274 0.303708 0.484119
O O13 0.113551 0.329386 0.263353
O O14 0.000000 0.500000 0.500000
O O15 0.066764 0.183989 0.462684
O O16 0.000000 0.000000 0.500000
#
# Coordination Sequence:
#
# PCOD9277285 Si02
#       7
#     8   8   8   8   8   8   8
#     4  10  20  40  71  92 134 182 222 276 340 405
#     4  11  24  43  69 103 132 179 235 284 341 412
#     4  11  22  44  69  97 137 185 227 283 342 417
#     4  11  23  43  68  93 134 173 223 275 337 406
#     4  11  26  43  69  98 136 180 225 278 349 408
#     4  11  21  45  65  99 134 178 226 283 343 410
#     4  11  25  42  67 102 139 174 233 282 347 416
#
# _framework density 22.535952000000002
#
# number of rings (size 3 to 8) (size 9 to 14) (size 15 to 20)
#    0.000    1.143    4.286    2.143    6.000    5.143 
#    5.143    0.000    0.000    0.000    0.000    0.000 
#    0.000    0.000    0.000    0.000    0.000    0.000 
#
# Total GULP energy -156272.576875 kJ/mol
# GULP energy per Si atom -5581.163460 kJ/mol
# Density = 2.248466 g / cm^3
# Si number density = 22.535952 Si / 1000 Ang^3
#
#
#
# Elastic Constant Matrix: (Units=GPa)
#
#
# Indices 1 2 3 4 5 6 
#
# 1 48.5805 7.5068 3.0143 0.0000 -16.6037 0.0000
# 2 7.5068 53.6778 22.1283 0.0000 2.7312 0.0000
# 3 3.0143 22.1283 183.0319 0.0000 -27.5481 0.0000
# 4 0.0000 0.0000 0.0000 34.2208 0.0000 -3.2319
# 5 -16.6037 2.7312 -27.5481 0.0000 33.4034 0.0000
# 6 0.0000 0.0000 0.0000 -3.2319 0.0000 17.6073
#
#
#
# Elastic Compliance Matrix: (Units=1/GPa)
#
#
# Indices 1 2 3 4 5 6 
#
# 1 0.026735 -0.005637 0.002638 0.000000 0.015925 0.000000
# 2 -0.005637 0.021290 -0.003613 0.000000 -0.007523 0.000000
# 3 0.002638 -0.003613 0.006963 0.000000 0.007349 0.000000
# 4 0.000000 0.000000 0.000000 0.029738 0.000000 0.005458
# 5 0.015925 -0.007523 0.007349 0.000000 0.044529 0.000000
# 6 0.000000 0.000000 0.000000 0.005458 0.000000 0.057797
#
#
# Mechanical properties :
#
#
# Convention : Reuss Voigt Hill
#
# Bulk Modulus (GPa) = 23.94396 38.95434 31.44915
# Shear Modulus (GPa) = 23.34304 33.88902 28.61603
#
# Velocity S-wave (km/s) = 3.22190 3.88206 3.56728
# Velocity P-wave (km/s) = 4.94860 6.11693 5.56352
#
# Compressibility (1/GPa) = 0.04176419
#
# Stress axis : x y z
#
# Youngs Moduli (GPa) = 37.40456 46.96972 143.61490
#
# Poissons Ratio (x) = 0.26476 -0.37887
# Poissons Ratio (y) = 0.21084 0.51893
# Poissons Ratio (z) = -0.09868 0.16972
#
# Static dielectric constant tensor:
#      x y z
#    x 1.833440 0.000000 0.022150 
#    y 0.000000 1.971640 0.000000 
#    z 0.022150 0.000000 1.887270 
# 
# From -- ./inp_files/181906.got.cif
#   From: 2010.05.17/outbox.cif.g08.bks.cpg/sg15_91_cif.got.tgz:181906.got - 2010.06.03 18:47:42.
