data_PCOD9277525
_publ_section_title
;
Structure prediction by ZEFSAII (Michael W. Deem and Ramdas Pophale) SiO2 
 PCOD9277525
Probable space group: C 2/C
;
_chemical_formula_sum "Si O2"
_cell_formula_units_Z 52
_cell_length_a 15.354752
_cell_length_b 7.919411
_cell_length_c 31.748114
_cell_angle_alpha 90.000000
_cell_angle_beta 139.189244
_cell_angle_gamma 90.000000
_cell_volume 2523.137272
_symmetry_space_group_name_H-M "C 2/C"
_symmetry_group_IT_number 15
_symmetry_cell_setting 'monoclinic'
loop_
_space_group_symop_operation_xyz
x,y,z
-x,y,1/2-z
-x,-y,-z
x,-y,1/2+z
1/2+x,1/2+y,z
1/2-x,1/2+y,1/2-z
1/2-x,1/2-y,-z
1/2+x,1/2-y,1/2+z
loop_
_atom_site_type_symbol
_atom_site_label
_atom_site_fract_x
_atom_site_fract_y
_atom_site_fract_z
Si Si1 0.962588 0.961684 0.033509
Si Si2 0.070857 0.396420 0.606296
Si Si3 0.000000 0.114598 0.250000
Si Si4 0.181578 0.132164 0.167214
Si Si5 0.772998 0.869022 0.132114
Si Si6 0.692552 0.215241 0.758948
Si Si7 0.188541 0.647426 0.438718
O O1 0.013933 0.770113 0.061483
O O2 0.804305 0.988864 0.975360
O O3 0.041977 0.075665 0.095798
O O4 0.000000 0.000000 0.000000
O O5 0.134599 0.529842 0.595585
O O6 0.192990 0.337754 0.680374
O O7 0.949999 0.430683 0.595328
O O8 0.935667 0.232136 0.261755
O O9 0.890613 0.996717 0.187345
O O10 0.269659 0.214217 0.163223
O O11 0.168705 0.258729 0.201141
O O12 0.254629 0.968883 0.211752
O O13 0.802619 0.779490 0.097676
O O14 0.250000 0.750000 0.500000
#
# Coordination Sequence:
#
# PCOD9277525 Si02
#       7
#     8   8   4   8   8   8   8
#     4  10  20  41  64  96 134 172 220 275 327 407
#     4   9  22  41  65  93 128 175 223 276 334 396
#     4  10  24  40  64  98 124 166 230 268 346 406
#     4  11  23  42  68  90 135 172 216 283 341 394
#     4  11  23  42  66  98 132 177 223 283 336 413
#     4  10  22  42  64  93 128 167 219 281 330 404
#     4  10  22  39  68  92 131 175 220 265 342 393
#
# _framework density 20.609262000000001
#
# number of rings (size 3 to 8) (size 9 to 14) (size 15 to 20)
#    0.000    1.846    1.538    1.846    8.615    3.077 
#    2.769    0.769    0.000    0.000    0.000    0.000 
#    0.000    0.000    0.000    0.000    0.000    0.000 
#
# Total GULP energy -144854.637759 kJ/mol
# GULP energy per Si atom -5571.332221 kJ/mol
# Density = 2.056235 g / cm^3
# Si number density = 20.609262 Si / 1000 Ang^3
#
#
#
# Elastic Constant Matrix: (Units=GPa)
#
#
# Indices 1 2 3 4 5 6 
#
# 1 153.2863 28.3858 59.4584 0.0000 -0.8927 0.0000
# 2 28.3858 58.0098 30.0055 0.0000 -4.0924 0.0000
# 3 59.4584 30.0055 71.2280 0.0000 -11.8824 0.0000
# 4 0.0000 0.0000 0.0000 16.5092 0.0000 -4.0564
# 5 -0.8927 -4.0924 -11.8824 0.0000 47.4008 0.0000
# 6 0.0000 0.0000 0.0000 -4.0564 0.0000 33.4135
#
#
#
# Elastic Compliance Matrix: (Units=1/GPa)
#
#
# Indices 1 2 3 4 5 6 
#
# 1 0.009839 -0.000685 -0.008248 0.000000 -0.001942 0.000000
# 2 -0.000685 0.022098 -0.008789 0.000000 -0.000308 0.000000
# 3 -0.008248 -0.008789 0.025543 0.000000 0.005489 0.000000
# 4 0.000000 0.000000 0.000000 0.062435 0.000000 0.007580
# 5 -0.001942 -0.000308 0.005489 0.000000 0.022409 0.000000
# 6 0.000000 0.000000 0.000000 0.007580 0.000000 0.030848
#
#
# Mechanical properties :
#
#
# Convention : Reuss Voigt Hill
#
# Bulk Modulus (GPa) = 45.38114 57.58040 51.48077
# Shear Modulus (GPa) = 23.15238 30.44300 26.79769
#
# Velocity S-wave (km/s) = 3.35535 3.84754 3.60984
# Velocity P-wave (km/s) = 6.08923 6.90926 6.51216
#
# Compressibility (1/GPa) = 0.02203559
#
# Stress axis : x y z
#
# Youngs Moduli (GPa) = 101.63912 45.25351 39.14998
#
# Poissons Ratio (x) = 0.03099 0.32292
# Poissons Ratio (y) = 0.06961 0.34407
# Poissons Ratio (z) = 0.83836 0.39771
#
# Static dielectric constant tensor:
#      x y z
#    x 1.640930 0.000000 -0.066240 
#    y 0.000000 1.604490 0.000000 
#    z -0.066240 0.000000 1.630070 
# 
# From -- ./inp_files/313224.got.cif
#   From: 2010.05.17/outbox.cif.g08.bks.cpg/sg15_157_cif.got.tgz:313224.got - 2010.06.03 18:47:42.
