data_PCOD9277324
_publ_section_title
;
Structure prediction by ZEFSAII (Michael W. Deem and Ramdas Pophale) SiO2 
 PCOD9277324
Probable space group: C 2/C
;
_chemical_formula_sum "Si O2"
_cell_formula_units_Z 32
_cell_length_a 7.444141
_cell_length_b 23.021684
_cell_length_c 11.570251
_cell_angle_alpha 90.000000
_cell_angle_beta 43.995569
_cell_angle_gamma 90.000000
_cell_volume 1377.307620
_symmetry_space_group_name_H-M "C 2/C"
_symmetry_group_IT_number 15
_symmetry_cell_setting 'monoclinic'
loop_
_space_group_symop_operation_xyz
x,y,z
-x,y,1/2-z
-x,-y,-z
x,-y,1/2+z
1/2+x,1/2+y,z
1/2-x,1/2+y,1/2-z
1/2-x,1/2-y,-z
1/2+x,1/2-y,1/2+z
loop_
_atom_site_type_symbol
_atom_site_label
_atom_site_fract_x
_atom_site_fract_y
_atom_site_fract_z
Si Si1 0.102876 0.094294 0.436846
Si Si2 0.715546 0.987044 0.250824
Si Si3 0.717844 0.316348 0.550897
Si Si4 0.704362 0.115792 0.921771
O O1 0.955433 0.048607 0.587563
O O2 0.900915 0.142851 0.493407
O O3 0.200382 0.054484 0.285134
O O4 0.692375 0.118763 0.066117
O O5 0.500000 0.983922 0.250000
O O6 0.653634 0.949187 0.392928
O O7 0.500000 0.319188 0.750000
O O8 0.750000 0.250000 0.500000
O O9 0.989579 0.342993 0.465898
O O10 0.000000 0.132663 0.750000
#
# Coordination Sequence:
#
# PCOD9277324 Si02
#       4
#     8   8   8   8
#     4  10  24  43  69 110 144 193 242 296 375 441
#     4  10  20  40  73 104 153 185 234 303 372 441
#     4  12  30  50  76 105 149 197 253 308 362 438
#     4  10  24  47  75 107 148 194 245 303 371 437
#
# _framework density 23.233734999999999
#
# number of rings (size 3 to 8) (size 9 to 14) (size 15 to 20)
#    0.000    1.500    2.500    0.000   10.500    7.000 
#    0.000    0.000    0.000    0.000    0.000    0.000 
#    0.000    0.000    0.000    0.000    0.000    0.000 
#
# Total GULP energy -89449.177719 kJ/mol
# GULP energy per Si atom -5590.573607 kJ/mol
# Density = 2.318085 g / cm^3
# Si number density = 23.233735 Si / 1000 Ang^3
#
#
#
# Elastic Constant Matrix: (Units=GPa)
#
#
# Indices 1 2 3 4 5 6 
#
# 1 188.5995 102.9607 37.8885 0.0000 -28.2725 0.0000
# 2 102.9607 181.6060 44.5248 0.0000 -24.0203 0.0000
# 3 37.8885 44.5248 103.9417 0.0000 -8.6929 0.0000
# 4 0.0000 0.0000 0.0000 26.4812 0.0000 -21.3004
# 5 -28.2725 -24.0203 -8.6929 0.0000 35.9623 0.0000
# 6 0.0000 0.0000 0.0000 -21.3004 0.0000 5.3038
#
#
#
# Elastic Compliance Matrix: (Units=1/GPa)
#
#
# Indices 1 2 3 4 5 6 
#
# 1 0.008178 -0.003918 -0.001004 0.000000 0.003570 0.000000
# 2 -0.003918 0.008507 -0.002039 0.000000 0.002109 0.000000
# 3 -0.001004 -0.002039 0.010901 0.000000 0.000483 0.000000
# 4 0.000000 0.000000 0.000000 -0.016931 0.000000 -0.067996
# 5 0.003570 0.002109 0.000483 0.000000 0.032138 0.000000
# 6 0.000000 0.000000 0.000000 -0.067996 0.000000 -0.084535
#
#
# Mechanical properties :
#
#
# Convention : Reuss Voigt Hill
#
# Bulk Modulus (GPa) = 73.19435 93.87726 83.53581
# Shear Modulus (GPa) = -214.92177 32.80100 -91.06038
#
# Velocity S-wave (km/s) = -9.62834 3.76145 -6.26724
# Velocity P-wave (km/s) = 9.59348 7.70441 4.04208
#
# Compressibility (1/GPa) = 0.01366226
#
# Stress axis : x y z
#
# Youngs Moduli (GPa) = 122.27748 117.55387 91.73635
#
# Poissons Ratio (x) = 0.46060 0.09211
# Poissons Ratio (y) = 0.47911 0.18708
# Poissons Ratio (z) = 0.12278 0.23974
#
# Static dielectric constant tensor:
#      x y z
#    x 1.904010 0.000000 0.044830 
#    y 0.000000 1.846200 0.000000 
#    z 0.044830 0.000000 2.001890 
# 
# From -- ./inp_files/137071.got.cif
#   From: 2010.05.17/outbox.cif.g08.bks.cpg/sg15_69_cif.got.tgz:137071.got - 2010.06.03 18:47:42.
