data_PCOD9277106
_publ_section_title
;
Structure prediction by ZEFSAII (Michael W. Deem and Ramdas Pophale) SiO2 
 PCOD9277106
Probable space group: C 2/C
;
_chemical_formula_sum "Si O2"
_cell_formula_units_Z 64
_cell_length_a 12.920335
_cell_length_b 9.426361
_cell_length_c 22.563338
_cell_angle_alpha 90.000000
_cell_angle_beta 78.373907
_cell_angle_gamma 90.000000
_cell_volume 2691.648525
_symmetry_space_group_name_H-M "C 2/C"
_symmetry_group_IT_number 15
_symmetry_cell_setting 'monoclinic'
loop_
_space_group_symop_operation_xyz
x,y,z
-x,y,1/2-z
-x,-y,-z
x,-y,1/2+z
1/2+x,1/2+y,z
1/2-x,1/2+y,1/2-z
1/2-x,1/2-y,-z
1/2+x,1/2-y,1/2+z
loop_
_atom_site_type_symbol
_atom_site_label
_atom_site_fract_x
_atom_site_fract_y
_atom_site_fract_z
Si Si1 0.887386 0.960776 0.128668
Si Si2 0.886436 0.581436 0.278484
Si Si3 0.573787 0.411736 0.039055
Si Si4 0.299262 0.249967 0.662622
Si Si5 0.171040 0.563550 0.352116
Si Si6 0.705358 0.195954 0.700307
Si Si7 0.455982 0.914889 0.949374
Si Si8 0.248143 0.093861 0.971157
O O1 0.818180 0.891048 0.189071
O O2 0.823244 0.901207 0.079481
O O3 0.009149 0.925993 0.107755
O O4 0.873767 0.129371 0.128272
O O5 0.817892 0.684994 0.326189
O O6 0.838614 0.564319 0.218245
O O7 0.880325 0.423473 0.306814
O O8 0.000000 0.636908 0.250000
O O9 0.579549 0.243490 0.027884
O O10 0.500000 0.500000 0.000000
O O11 0.685427 0.488457 0.022459
O O12 0.306954 0.097489 0.633044
O O13 0.324213 0.241855 0.730044
O O14 0.268348 0.673936 0.346469
O O15 0.057295 0.602362 0.393465
O O16 0.357524 0.015046 0.942485
O O17 0.500000 0.000000 0.000000
O O18 0.250000 0.250000 0.000000
#
# Coordination Sequence:
#
# PCOD9277106 Si02
#       8
#     8   8   8   8   8   8   8   8
#     4  10  20  40  68  88 129 175 207 260 332 383
#     4   9  19  37  62  89 122 159 207 257 310 375
#     4  10  22  43  66  90 123 167 212 268 328 385
#     4   9  20  35  62  90 123 161 204 250 309 389
#     4  10  21  36  62  89 121 163 209 250 323 378
#     4   9  18  38  59  89 123 160 206 248 310 381
#     4  12  25  41  64  92 130 166 218 268 325 388
#     4  11  26  42  64  97 128 165 225 279 325 393
#
# _framework density 23.777249000000001
#
# number of rings (size 3 to 8) (size 9 to 14) (size 15 to 20)
#    0.000    2.000    1.250    2.625    8.750    0.000 
#    0.000    0.625    0.000    0.000    0.000    0.000 
#    0.000    0.000    0.000    0.000    0.000    0.000 
#
# Total GULP energy -178573.212503 kJ/mol
# GULP energy per Si atom -5580.412891 kJ/mol
# Density = 2.372313 g / cm^3
# Si number density = 23.777249 Si / 1000 Ang^3
#
#
#
# Elastic Constant Matrix: (Units=GPa)
#
#
# Indices 1 2 3 4 5 6 
#
# 1 38.9009 15.2893 20.8524 0.0000 -14.4342 0.0000
# 2 15.2893 196.1995 30.8739 0.0000 -9.6230 0.0000
# 3 20.8524 30.8739 90.1811 0.0000 -12.4017 0.0000
# 4 0.0000 0.0000 0.0000 42.0312 0.0000 -5.4320
# 5 -14.4342 -9.6230 -12.4017 0.0000 33.1390 0.0000
# 6 0.0000 0.0000 0.0000 -5.4320 0.0000 20.9591
#
#
#
# Elastic Compliance Matrix: (Units=1/GPa)
#
#
# Indices 1 2 3 4 5 6 
#
# 1 0.033765 -0.001128 -0.005739 0.000000 0.012231 0.000000
# 2 -0.001128 0.005452 -0.001534 0.000000 0.000517 0.000000
# 3 -0.005739 -0.001534 0.013216 0.000000 0.002001 0.000000
# 4 0.000000 0.000000 0.000000 0.024616 0.000000 0.006380
# 5 0.012231 0.000517 0.002001 0.000000 0.036402 0.000000
# 6 0.000000 0.000000 0.000000 0.006380 0.000000 0.049365
#
#
# Mechanical properties :
#
#
# Convention : Reuss Voigt Hill
#
# Bulk Modulus (GPa) = 28.06677 51.03475 39.55076
# Shear Modulus (GPa) = 26.11017 36.44358 31.27688
#
# Velocity S-wave (km/s) = 3.31738 3.91923 3.63080
# Velocity P-wave (km/s) = 5.14811 6.48003 5.85208
#
# Compressibility (1/GPa) = 0.03562932
#
# Stress axis : x y z
#
# Youngs Moduli (GPa) = 29.61681 183.43262 75.66445
#
# Poissons Ratio (x) = 0.20694 0.43424
# Poissons Ratio (y) = 0.03341 0.11610
# Poissons Ratio (z) = 0.16997 0.28145
#
# Static dielectric constant tensor:
#      x y z
#    x 1.966600 0.000000 0.007050 
#    y 0.000000 1.975970 0.000000 
#    z 0.007050 0.000000 1.964520 
# 
# From -- ./inp_files/312899.got.cif
#   From: 2010.05.17/outbox.cif.g08.bks.cpg/sg15_157_cif.got.tgz:312899.got - 2010.06.03 18:47:42.
