data_PCOD9277822
_publ_section_title
;
Structure prediction by ZEFSAII (Michael W. Deem and Ramdas Pophale) SiO2 
 PCOD9277822
Probable space group: C 2/C
;
_chemical_formula_sum "Si O2"
_cell_formula_units_Z 60
_cell_length_a 17.395367
_cell_length_b 5.429665
_cell_length_c 31.136471
_cell_angle_alpha 90.000000
_cell_angle_beta 112.521046
_cell_angle_gamma 90.000000
_cell_volume 2716.597227
_symmetry_space_group_name_H-M "C 2/C"
_symmetry_group_IT_number 15
_symmetry_cell_setting 'monoclinic'
loop_
_space_group_symop_operation_xyz
x,y,z
-x,y,1/2-z
-x,-y,-z
x,-y,1/2+z
1/2+x,1/2+y,z
1/2-x,1/2+y,1/2-z
1/2-x,1/2-y,-z
1/2+x,1/2-y,1/2+z
loop_
_atom_site_type_symbol
_atom_site_label
_atom_site_fract_x
_atom_site_fract_y
_atom_site_fract_z
Si Si1 0.000000 0.754842 0.750000
Si Si2 0.303130 0.070528 0.826731
Si Si3 0.544033 0.238465 0.173328
Si Si4 0.402424 0.863603 0.158585
Si Si5 0.704436 0.499172 0.506589
Si Si6 0.592122 0.506412 0.908615
Si Si7 0.652689 0.371552 0.742765
Si Si8 0.238364 0.328494 0.893222
O O1 0.944345 0.847990 0.697101
O O2 0.914354 0.668672 0.755514
O O3 0.307855 0.295577 0.793854
O O4 0.290129 0.160375 0.872107
O O5 0.387778 0.924462 0.836696
O O6 0.223663 0.921956 0.792121
O O7 0.496342 0.395415 0.126315
O O8 0.594308 0.395753 0.219437
O O9 0.469120 0.080709 0.177946
O O10 0.401691 0.766075 0.109979
O O11 0.312008 0.973215 0.146181
O O12 0.750000 0.750000 0.500000
O O13 0.615625 0.494990 0.463505
O O14 0.709785 0.468470 0.558956
O O15 0.750000 0.250000 0.500000
O O16 0.665951 0.663231 0.900635
#
# Coordination Sequence:
#
# PCOD9277822 Si02
#       8
#     4   8   8   8   8   8   8   8
#     4  12  24  38  60  92 122 170 228 266 340 406
#     4  12  25  43  61  92 137 176 226 277 353 411
#     4  11  23  42  59  89 131 176 218 274 345 414
#     4  11  22  37  62  91 126 168 219 279 331 413
#     4  10  20  41  71 106 138 176 235 297 358 415
#     4  10  20  42  67  98 129 172 226 285 342 417
#     4  12  26  41  60  90 130 180 222 276 334 415
#     4  10  24  38  67  99 129 173 225 289 342 414
#
# _framework density 22.086455999999998
#
# number of rings (size 3 to 8) (size 9 to 14) (size 15 to 20)
#    0.000    1.067    5.333    0.800    5.600    1.067 
#    0.000    0.667    0.000    3.200    0.000    0.000 
#    0.000    0.000    0.000    0.000    0.000    0.000 
#
# Total GULP energy -167103.170847 kJ/mol
# GULP energy per Si atom -5570.105695 kJ/mol
# Density = 2.203619 g / cm^3
# Si number density = 22.086456 Si / 1000 Ang^3
#
#
#
# Elastic Constant Matrix: (Units=GPa)
#
#
# Indices 1 2 3 4 5 6 
#
# 1 73.6628 12.2891 37.2991 0.0000 -7.2510 0.0002
# 2 12.2891 78.4523 15.9241 0.0000 0.0970 0.0005
# 3 37.2991 15.9241 133.1043 0.0000 12.6792 0.0000
# 4 0.0000 0.0000 0.0000 28.1873 0.0000 9.2784
# 5 -7.2510 0.0970 12.6792 0.0000 25.4394 0.0000
# 6 0.0002 0.0005 0.0000 9.2784 0.0000 32.9897
#
#
#
# Elastic Compliance Matrix: (Units=1/GPa)
#
#
# Indices 1 2 3 4 5 6 
#
# 1 0.017326 -0.001630 -0.005387 0.000000 0.007630 0.000000
# 2 -0.001630 0.013231 -0.001131 0.000000 0.000049 0.000000
# 3 -0.005387 -0.001131 0.009767 0.000000 -0.006399 0.000000
# 4 0.000000 0.000000 0.000000 0.039096 0.000000 -0.010996
# 5 0.007630 0.000049 -0.006399 0.000000 0.044673 0.000000
# 6 0.000000 0.000000 0.000000 -0.010996 0.000000 0.033405
#
#
# Mechanical properties :
#
#
# Convention : Reuss Voigt Hill
#
# Bulk Modulus (GPa) = 41.61604 46.24932 43.93268
# Shear Modulus (GPa) = 27.50207 31.97042 29.73625
#
# Velocity S-wave (km/s) = 3.53257 3.80875 3.67325
# Velocity P-wave (km/s) = 5.96003 6.35041 6.15831
#
# Compressibility (1/GPa) = 0.02402920
#
# Stress axis : x y z
#
# Youngs Moduli (GPa) = 57.71678 75.57776 102.38231
#
# Poissons Ratio (x) = 0.12319 0.55153
# Poissons Ratio (y) = 0.09408 0.11577
# Poissons Ratio (z) = 0.31092 0.08546
#
# Static dielectric constant tensor:
#      x y z
#    x 1.807530 0.000000 -0.025740 
#    y 0.000000 2.030810 0.000000 
#    z -0.025740 0.000000 1.875580 
# 
# From -- ./inp_files/314872.got.cif
#   From: 2010.05.17/outbox.cif.g08.bks.cpg/sg15_158_cif.got.tgz:314872.got - 2010.06.03 18:47:42.
