data_PCOD9277582
_publ_section_title
;
Structure prediction by ZEFSAII (Michael W. Deem and Ramdas Pophale) SiO2 
 PCOD9277582
Probable space group: C 2/C
;
_chemical_formula_sum "Si O2"
_cell_formula_units_Z 44
_cell_length_a 11.493412
_cell_length_b 28.912932
_cell_length_c 6.019637
_cell_angle_alpha 90.000000
_cell_angle_beta 96.366353
_cell_angle_gamma 90.000000
_cell_volume 1988.039078
_symmetry_space_group_name_H-M "C 2/C"
_symmetry_group_IT_number 15
_symmetry_cell_setting 'monoclinic'
loop_
_space_group_symop_operation_xyz
x,y,z
-x,y,1/2-z
-x,-y,-z
x,-y,1/2+z
1/2+x,1/2+y,z
1/2-x,1/2+y,1/2-z
1/2-x,1/2-y,-z
1/2+x,1/2-y,1/2+z
loop_
_atom_site_type_symbol
_atom_site_label
_atom_site_fract_x
_atom_site_fract_y
_atom_site_fract_z
Si Si1 0.153728 0.394783 0.966705
Si Si2 0.132982 0.766014 0.091262
Si Si3 0.000000 0.684426 0.250000
Si Si4 0.625711 0.648355 0.875480
Si Si5 0.264326 0.988952 0.669927
Si Si6 0.000000 0.451309 0.250000
Si Si7 0.000000 0.836141 0.750000
O O1 0.105377 0.348151 0.849277
O O2 0.204851 0.434709 0.821256
O O3 0.258260 0.380065 0.157527
O O4 0.042996 0.418243 0.062588
O O5 0.147652 0.797156 0.319814
O O6 0.053212 0.720751 0.088375
O O7 0.250000 0.750000 0.000000
O O8 0.068904 0.803727 0.930960
O O9 0.500000 0.633518 0.750000
O O10 0.599983 0.639331 0.129583
O O11 0.211337 0.997717 0.404842
O O12 0.386909 0.017300 0.678846
#
# Coordination Sequence:
#
# PCOD9277582 Si02
#       7
#     8   8   4   8   8   4   4
#     4  11  23  37  65  99 127 161 219 268 321 415
#     4  11  24  38  59  83 126 171 212 273 324 380
#     4  12  23  36  56  98 127 161 226 262 327 378
#     4  10  23  45  61  88 123 178 224 264 327 379
#     4  10  20  41  65  95 139 171 200 265 356 411
#     4  10  21  39  66  98 136 164 198 276 358 402
#     4  10  20  43  58  76 119 179 218 260 327 366
#
# _framework density 22.132361
#
# number of rings (size 3 to 8) (size 9 to 14) (size 15 to 20)
#    0.000    1.455    2.727    4.909    5.091    1.455 
#   13.091    0.000    0.000    4.364    0.000    0.000 
#    0.000    0.000    0.000    0.000    0.000    0.000 
#
# Total GULP energy -122499.269582 kJ/mol
# GULP energy per Si atom -5568.148617 kJ/mol
# Density = 2.208199 g / cm^3
# Si number density = 22.132361 Si / 1000 Ang^3
#
#
#
# Elastic Constant Matrix: (Units=GPa)
#
#
# Indices 1 2 3 4 5 6 
#
# 1 55.3307 -0.6599 7.0069 0.0000 1.5290 0.0000
# 2 -0.6599 68.9244 11.4946 0.0000 10.5473 0.0000
# 3 7.0069 11.4946 79.5835 0.0000 -13.0661 0.0000
# 4 0.0000 0.0000 0.0000 9.7477 0.0000 2.5627
# 5 1.5290 10.5473 -13.0661 0.0000 26.2030 0.0000
# 6 0.0000 0.0000 0.0000 2.5627 0.0000 7.8137
#
#
#
# Elastic Compliance Matrix: (Units=1/GPa)
#
#
# Indices 1 2 3 4 5 6 
#
# 1 0.018429 0.000926 -0.002172 0.000000 -0.002531 0.000000
# 2 0.000926 0.016484 -0.003878 0.000000 -0.008623 0.000000
# 3 -0.002172 -0.003878 0.014806 0.000000 0.009071 0.000000
# 4 0.000000 0.000000 0.000000 0.112269 0.000000 -0.036821
# 5 -0.002531 -0.008623 0.009071 0.000000 0.046305 0.000000
# 6 0.000000 0.000000 0.000000 -0.036821 0.000000 0.140057
#
#
# Mechanical properties :
#
#
# Convention : Reuss Voigt Hill
#
# Bulk Modulus (GPa) = 25.33505 26.61354 25.97430
# Shear Modulus (GPa) = 13.44972 21.15268 17.30120
#
# Velocity S-wave (km/s) = 2.46782 3.09485 2.79895
# Velocity P-wave (km/s) = 4.42630 4.98213 4.71242
#
# Compressibility (1/GPa) = 0.03947101
#
# Stress axis : x y z
#
# Youngs Moduli (GPa) = 54.26182 60.66564 67.54015
#
# Poissons Ratio (x) = -0.05618 0.14669
# Poissons Ratio (y) = -0.05025 0.26193
# Poissons Ratio (z) = 0.11785 0.23527
#
# Static dielectric constant tensor:
#      x y z
#    x 1.859860 0.000000 -0.037310 
#    y 0.000000 1.800660 0.000000 
#    z -0.037310 0.000000 2.039740 
# 
# From -- ./inp_files/5893.got.cif
#   From: 2010.05.17/outbox.cif.g08.bks.cpg/sg15_3_cif.got.tgz:5893.got - 2010.06.03 18:47:42.
