data_PCOD9277494
_publ_section_title
;
Structure prediction by ZEFSAII (Michael W. Deem and Ramdas Pophale) SiO2 
 PCOD9277494
Probable space group: C 2/C
;
_chemical_formula_sum "Si O2"
_cell_formula_units_Z 56
_cell_length_a 28.606955
_cell_length_b 19.440976
_cell_length_c 8.705389
_cell_angle_alpha 90.000000
_cell_angle_beta 148.364768
_cell_angle_gamma 90.000000
_cell_volume 2539.400940
_symmetry_space_group_name_H-M "C 2/C"
_symmetry_group_IT_number 15
_symmetry_cell_setting 'monoclinic'
loop_
_space_group_symop_operation_xyz
x,y,z
-x,y,1/2-z
-x,-y,-z
x,-y,1/2+z
1/2+x,1/2+y,z
1/2-x,1/2+y,1/2-z
1/2-x,1/2-y,-z
1/2+x,1/2-y,1/2+z
loop_
_atom_site_type_symbol
_atom_site_label
_atom_site_fract_x
_atom_site_fract_y
_atom_site_fract_z
Si Si1 0.286757 0.498979 0.924280
Si Si2 0.000000 0.539039 0.250000
Si Si3 0.060527 0.905101 0.206905
Si Si4 0.716777 0.855440 0.863100
Si Si5 0.385671 0.938184 0.713886
Si Si6 0.000000 0.829319 0.750000
Si Si7 0.334487 0.725761 0.941694
Si Si8 0.636260 0.626422 0.212505
O O1 0.251280 0.427762 0.894948
O O2 0.210347 0.529292 0.600290
O O3 0.384665 0.476836 0.132188
O O4 0.302174 0.560170 0.088587
O O5 0.938158 0.576722 0.202529
O O6 0.062148 0.492018 0.532722
O O7 0.117574 0.858002 0.483200
O O8 0.055236 0.878024 0.019520
O O9 0.959725 0.898680 0.987105
O O10 0.630473 0.872590 0.724404
O O11 0.696473 0.803174 0.669035
O O12 0.781357 0.819105 0.166467
O O13 0.936563 0.783141 0.676162
O O14 0.327374 0.689285 0.085859
#
# Coordination Sequence:
#
# PCOD9277494 Si02
#       8
#     8   4   8   8   8   4   8   8
#     4  12  21  37  65 101 132 181 222 285 337 400
#     4  10  24  41  62  92 132 165 232 298 338 375
#     4  10  22  36  62  97 136 173 224 270 338 408
#     4  11  22  39  66  96 125 173 233 276 337 405
#     4  11  22  41  65  93 131 174 228 291 338 395
#     4  10  20  41  64  88 132 183 216 264 328 419
#     4  10  22  41  63  91 131 174 221 272 334 408
#     4  10  22  38  61  98 139 176 217 279 337 408
#
# _framework density 22.052444000000001
#
# number of rings (size 3 to 8) (size 9 to 14) (size 15 to 20)
#    0.000    1.429    4.286    1.286    0.000    1.714 
#    0.000    0.714    3.143    0.000    0.000    0.000 
#    0.000    0.000    0.000    0.000    0.000    0.000 
#
# Total GULP energy -156241.077133 kJ/mol
# GULP energy per Si atom -5580.038469 kJ/mol
# Density = 2.200225 g / cm^3
# Si number density = 22.052444 Si / 1000 Ang^3
#
#
#
# Elastic Constant Matrix: (Units=GPa)
#
#
# Indices 1 2 3 4 5 6 
#
# 1 74.3785 34.8705 17.2878 0.0000 -11.2306 0.0000
# 2 34.8705 99.8285 44.0397 0.0000 -16.0935 0.0000
# 3 17.2878 44.0397 115.3425 0.0000 -30.2564 0.0000
# 4 0.0000 0.0000 0.0000 12.3823 0.0000 -7.4108
# 5 -11.2306 -16.0935 -30.2564 0.0000 45.6149 0.0000
# 6 0.0000 0.0000 0.0000 -7.4108 0.0000 23.9037
#
#
#
# Elastic Compliance Matrix: (Units=1/GPa)
#
#
# Indices 1 2 3 4 5 6 
#
# 1 0.016273 -0.005419 0.000217 0.000000 0.002239 0.000000
# 2 -0.005419 0.013931 -0.004319 0.000000 0.000716 0.000000
# 3 0.000217 -0.004319 0.011986 0.000000 0.006480 0.000000
# 4 0.000000 0.000000 0.000000 0.099160 0.000000 0.030742
# 5 0.002239 0.000716 0.006480 0.000000 0.027025 0.000000
# 6 0.000000 0.000000 0.000000 0.030742 0.000000 0.051366
#
#
# Mechanical properties :
#
#
# Convention : Reuss Voigt Hill
#
# Bulk Modulus (GPa) = 43.19963 53.54949 48.37456
# Shear Modulus (GPa) = 20.28415 29.27028 24.77721
#
# Velocity S-wave (km/s) = 3.03613 3.64717 3.35559
# Velocity P-wave (km/s) = 5.65003 6.48624 6.08252
#
# Compressibility (1/GPa) = 0.02314835
#
# Stress axis : x y z
#
# Youngs Moduli (GPa) = 61.45186 71.78291 83.42939
#
# Poissons Ratio (x) = 0.38900 -0.01813
# Poissons Ratio (y) = 0.33302 0.36033
# Poissons Ratio (z) = -0.01336 0.31003
#
# Static dielectric constant tensor:
#      x y z
#    x 1.900070 0.000000 0.048170 
#    y 0.000000 1.780600 0.000000 
#    z 0.048170 0.000000 1.830210 
# 
# From -- ./inp_files/70865.got.cif
#   From: 2010.05.17/outbox.cif.g08.bks.cpg/sg15_36_cif.got.tgz:70865.got - 2010.06.03 18:47:42.
