data_PCOD9277179
_publ_section_title
;
Structure prediction by ZEFSAII (Michael W. Deem and Ramdas Pophale) SiO2 
 PCOD9277179
Probable space group: C 2/C
;
_chemical_formula_sum "Si O2"
_cell_formula_units_Z 56
_cell_length_a 21.266961
_cell_length_b 8.819983
_cell_length_c 16.083726
_cell_angle_alpha 90.000000
_cell_angle_beta 130.498833
_cell_angle_gamma 90.000000
_cell_volume 2294.103031
_symmetry_space_group_name_H-M "C 2/C"
_symmetry_group_IT_number 15
_symmetry_cell_setting 'monoclinic'
loop_
_space_group_symop_operation_xyz
x,y,z
-x,y,1/2-z
-x,-y,-z
x,-y,1/2+z
1/2+x,1/2+y,z
1/2-x,1/2+y,1/2-z
1/2-x,1/2-y,-z
1/2+x,1/2-y,1/2+z
loop_
_atom_site_type_symbol
_atom_site_label
_atom_site_fract_x
_atom_site_fract_y
_atom_site_fract_z
Si Si1 0.831807 0.279097 0.343854
Si Si2 0.821365 0.367821 0.880841
Si Si3 0.857421 0.407276 0.102670
Si Si4 0.249728 0.856749 0.580499
Si Si5 0.039143 0.084721 0.112298
Si Si6 0.000000 0.181564 0.250000
Si Si7 0.901192 0.784424 0.309887
Si Si8 0.500000 0.152854 0.250000
O O1 0.819876 0.455531 0.352989
O O2 0.759918 0.220386 0.220485
O O3 0.826383 0.178633 0.424271
O O4 0.919685 0.241082 0.379319
O O5 0.898270 0.287736 0.898940
O O6 0.832626 0.363705 0.988659
O O7 0.776270 0.473344 0.078984
O O8 0.915614 0.277468 0.190633
O O9 0.922334 0.547973 0.158395
O O10 0.250000 0.750000 0.500000
O O11 0.323976 0.794343 0.700368
O O12 0.986859 0.097695 0.151416
O O13 0.110813 0.963645 0.197553
O O14 0.000000 0.000000 0.000000
O O15 0.975629 0.746109 0.311365
#
# Coordination Sequence:
#
# PCOD9277179 Si02
#       8
#     8   8   8   8   8   4   8   4
#     4  11  25  41  69 101 138 184 237 297 350 426
#     4  11  23  43  69 101 139 178 235 288 358 422
#     4  10  22  41  69 105 130 180 231 290 353 416
#     4  10  20  40  68  99 134 175 239 285 352 420
#     4  12  28  47  68 101 146 189 236 293 365 419
#     4  11  27  48  70 106 152 180 246 296 350 432
#     4  10  23  41  65  96 135 180 231 286 343 426
#     4   9  21  38  68  92 128 174 238 276 342 416
#
# _framework density 24.410411
#
# number of rings (size 3 to 8) (size 9 to 14) (size 15 to 20)
#    0.000    1.429    1.429    3.000   10.000    1.714 
#    0.000    2.143    0.000    0.000    0.000    0.000 
#    0.000    0.000    0.000    0.000    0.000    0.000 
#
# Total GULP energy -156514.087692 kJ/mol
# GULP energy per Si atom -5589.788846 kJ/mol
# Density = 2.435485 g / cm^3
# Si number density = 24.410411 Si / 1000 Ang^3
#
#
#
# Elastic Constant Matrix: (Units=GPa)
#
#
# Indices 1 2 3 4 5 6 
#
# 1 78.0109 15.1343 16.3137 0.0000 -16.7681 0.0000
# 2 15.1343 83.6731 13.7422 0.0000 -3.7805 0.0000
# 3 16.3137 13.7422 100.2722 0.0000 -18.4270 0.0000
# 4 0.0000 0.0000 0.0000 20.3792 0.0000 -0.8272
# 5 -16.7681 -3.7805 -18.4270 0.0000 32.5274 0.0000
# 6 0.0000 0.0000 0.0000 -0.8272 0.0000 31.3319
#
#
#
# Elastic Compliance Matrix: (Units=1/GPa)
#
#
# Indices 1 2 3 4 5 6 
#
# 1 0.014926 -0.002247 -0.000842 0.000000 0.006956 0.000000
# 2 -0.002247 0.012573 -0.001453 0.000000 -0.000520 0.000000
# 3 -0.000842 -0.001453 0.011383 0.000000 0.005846 0.000000
# 4 0.000000 0.000000 0.000000 0.049122 0.000000 0.001297
# 5 0.006956 -0.000520 0.005846 0.000000 0.037580 0.000000
# 6 0.000000 0.000000 0.000000 0.001297 0.000000 0.031951
#
#
# Mechanical properties :
#
#
# Convention : Reuss Voigt Hill
#
# Bulk Modulus (GPa) = 33.55989 39.14851 36.35420
# Shear Modulus (GPa) = 28.32017 31.29876 29.80946
#
# Velocity S-wave (km/s) = 3.40982 3.58465 3.49833
# Velocity P-wave (km/s) = 5.41115 5.76241 5.58954
#
# Compressibility (1/GPa) = 0.02979747
#
# Stress axis : x y z
#
# Youngs Moduli (GPa) = 66.99727 79.53637 87.84822
#
# Poissons Ratio (x) = 0.17873 0.07397
# Poissons Ratio (y) = 0.15055 0.12765
# Poissons Ratio (z) = 0.05642 0.11558
#
# Static dielectric constant tensor:
#      x y z
#    x 2.093660 0.000000 -0.044120 
#    y 0.000000 2.017040 0.000000 
#    z -0.044120 0.000000 2.005020 
# 
# From -- ./inp_files/172509.got.cif
#   From: 2010.05.17/outbox.cif.g08.bks.cpg/sg15_87_cif.got.tgz:172509.got - 2010.06.03 18:47:42.
