data_PCOD9277308
_publ_section_title
;
Structure prediction by ZEFSAII (Michael W. Deem and Ramdas Pophale) SiO2 
 PCOD9277308
Probable space group: C 2/C
;
_chemical_formula_sum "Si O2"
_cell_formula_units_Z 44
_cell_length_a 27.701776
_cell_length_b 10.050053
_cell_length_c 14.450419
_cell_angle_alpha 90.000000
_cell_angle_beta 146.305794
_cell_angle_gamma 90.000000
_cell_volume 2231.833410
_symmetry_space_group_name_H-M "C 2/C"
_symmetry_group_IT_number 15
_symmetry_cell_setting 'monoclinic'
loop_
_space_group_symop_operation_xyz
x,y,z
-x,y,1/2-z
-x,-y,-z
x,-y,1/2+z
1/2+x,1/2+y,z
1/2-x,1/2+y,1/2-z
1/2-x,1/2-y,-z
1/2+x,1/2-y,1/2+z
loop_
_atom_site_type_symbol
_atom_site_label
_atom_site_fract_x
_atom_site_fract_y
_atom_site_fract_z
Si Si1 0.895792 0.183914 0.926736
Si Si2 0.000000 0.656707 0.750000
Si Si3 0.589643 0.418143 0.445431
Si Si4 0.743943 0.149357 0.405937
Si Si5 0.520134 0.219904 0.482509
Si Si6 0.895903 0.469464 0.238834
O O1 0.816241 0.278044 0.767632
O O2 0.951205 0.259314 0.093760
O O3 0.958024 0.175832 0.936204
O O4 0.876487 0.039387 0.936832
O O5 0.923737 0.575261 0.680828
O O6 0.500000 0.455350 0.250000
O O7 0.663380 0.383376 0.489313
O O8 0.567780 0.291408 0.474743
O O9 0.750000 0.250000 0.500000
O O10 0.697364 0.021679 0.377444
O O11 0.582040 0.151507 0.656880
O O12 0.458731 0.096910 0.355350
#
# Coordination Sequence:
#
# PCOD9277308 Si02
#       6
#     8   4   8   8   8   8
#     4  10  22  44  62  97 129 166 219 269 318 392
#     4  10  20  40  72  90 130 166 212 270 330 378
#     4  12  24  40  69  93 134 174 214 264 336 377
#     4  11  26  42  61  96 133 169 223 266 314 389
#     4   9  20  38  64  92 125 169 209 261 322 381
#     4   9  20  39  63  94 125 163 219 257 315 387
#
# _framework density 19.714732999999999
#
# number of rings (size 3 to 8) (size 9 to 14) (size 15 to 20)
#    0.000    1.818    0.909    3.818    6.364    1.455 
#    0.000    0.909    0.000    0.000    0.000    0.000 
#    0.000    0.000    0.000    0.000    0.000    0.000 
#
# Total GULP energy -122738.404111 kJ/mol
# GULP energy per Si atom -5579.018369 kJ/mol
# Density = 1.966986 g / cm^3
# Si number density = 19.714733 Si / 1000 Ang^3
#
#
#
# Elastic Constant Matrix: (Units=GPa)
#
#
# Indices 1 2 3 4 5 6 
#
# 1 150.6932 41.9929 30.1563 0.0000 28.9865 0.0000
# 2 41.9929 59.5656 8.2821 0.0000 5.9138 0.0000
# 3 30.1563 8.2821 69.1202 0.0000 9.6705 0.0000
# 4 0.0000 0.0000 0.0000 18.6670 0.0000 -1.3416
# 5 28.9865 5.9138 9.6705 0.0000 36.5400 0.0000
# 6 0.0000 0.0000 0.0000 -1.3416 0.0000 18.3775
#
#
#
# Elastic Compliance Matrix: (Units=1/GPa)
#
#
# Indices 1 2 3 4 5 6 
#
# 1 0.010109 -0.006113 -0.002798 0.000000 -0.006290 0.000000
# 2 -0.006113 0.020959 -0.000050 0.000000 0.001471 0.000000
# 3 -0.002798 -0.000050 0.015974 0.000000 -0.002000 0.000000
# 4 0.000000 0.000000 0.000000 0.053853 0.000000 0.003931
# 5 -0.006290 0.001471 -0.002000 0.000000 0.032648 0.000000
# 6 0.000000 0.000000 0.000000 0.003931 0.000000 0.054701
#
#
# Mechanical properties :
#
#
# Convention : Reuss Voigt Hill
#
# Bulk Modulus (GPa) = 34.34113 48.91574 41.62843
# Shear Modulus (GPa) = 23.16161 27.98008 25.57084
#
# Velocity S-wave (km/s) = 3.43131 3.77138 3.60535
# Velocity P-wave (km/s) = 5.75807 6.62042 6.20425
#
# Compressibility (1/GPa) = 0.02911960
#
# Stress axis : x y z
#
# Youngs Moduli (GPa) = 98.91771 47.71206 62.60129
#
# Poissons Ratio (x) = 0.29169 0.17517
# Poissons Ratio (y) = 0.60473 0.00312
# Poissons Ratio (z) = 0.27678 0.00238
#
# Static dielectric constant tensor:
#      x y z
#    x 1.686910 0.000000 0.003110 
#    y 0.000000 1.702160 0.000000 
#    z 0.003110 0.000000 1.715580 
# 
# From -- ./inp_files/177675.got.cif
#   From: 2010.05.17/outbox.cif.g08.bks.cpg/sg15_89_cif.got.tgz:177675.got - 2010.06.03 18:47:42.
