data_PCOD9277842
_publ_section_title
;
Structure prediction by ZEFSAII (Michael W. Deem and Ramdas Pophale) SiO2 
 PCOD9277842
Probable space group: C 2/C
;
_chemical_formula_sum "Si O2"
_cell_formula_units_Z 40
_cell_length_a 13.452098
_cell_length_b 7.657291
_cell_length_c 15.431382
_cell_angle_alpha 90.000000
_cell_angle_beta 95.661463
_cell_angle_gamma 90.000000
_cell_volume 1581.781124
_symmetry_space_group_name_H-M "C 2/C"
_symmetry_group_IT_number 15
_symmetry_cell_setting 'monoclinic'
loop_
_space_group_symop_operation_xyz
x,y,z
-x,y,1/2-z
-x,-y,-z
x,-y,1/2+z
1/2+x,1/2+y,z
1/2-x,1/2+y,1/2-z
1/2-x,1/2-y,-z
1/2+x,1/2-y,1/2+z
loop_
_atom_site_type_symbol
_atom_site_label
_atom_site_fract_x
_atom_site_fract_y
_atom_site_fract_z
Si Si1 0.615535 0.960732 0.989563
Si Si2 0.605339 0.362117 0.593773
Si Si3 0.193985 0.207654 0.277419
Si Si4 0.865840 0.851605 0.542468
Si Si5 0.887445 0.398350 0.708143
O O1 0.351477 0.176713 0.935597
O O2 0.659992 0.154461 0.989286
O O3 0.620527 0.870416 0.895724
O O4 0.500000 0.000000 0.000000
O O5 0.635031 0.386735 0.695042
O O6 0.486010 0.356164 0.571896
O O7 0.648680 0.509760 0.534798
O O8 0.182052 0.114835 0.368310
O O9 0.144921 0.399012 0.282111
O O10 0.308163 0.211141 0.256181
O O11 0.000000 0.373263 0.750000
#
# Coordination Sequence:
#
# PCOD9277842 Si02
#       5
#     8   8   8   8   8
#     4   9  19  40  67  98 137 191 233 300 372 417
#     4  10  20  41  72 103 145 191 245 299 366 442
#     4  11  24  46  71 104 145 195 242 301 372 436
#     4   9  20  41  67 109 145 187 245 303 362 437
#     4  11  25  48  70 105 148 192 243 307 371 432
#
# _framework density 25.287949000000001
#
# number of rings (size 3 to 8) (size 9 to 14) (size 15 to 20)
#    0.000    2.000    0.000    4.200    2.800    0.800 
#   18.000    3.000    0.000    0.000    0.000    0.000 
#    0.000    0.000    0.000    0.000    0.000    0.000 
#
# Total GULP energy -112207.379447 kJ/mol
# GULP energy per Si atom -5610.368972 kJ/mol
# Density = 2.523039 g / cm^3
# Si number density = 25.287949 Si / 1000 Ang^3
#
#
#
# Elastic Constant Matrix: (Units=GPa)
#
#
# Indices 1 2 3 4 5 6 
#
# 1 120.6399 17.0986 30.8696 0.0000 -7.7375 0.0000
# 2 17.0986 72.1515 43.7674 0.0000 -3.0255 0.0000
# 3 30.8696 43.7674 181.5397 0.0000 -21.6919 0.0000
# 4 0.0000 0.0000 0.0000 30.9102 0.0000 -0.8626
# 5 -7.7375 -3.0255 -21.6919 0.0000 50.4260 0.0000
# 6 0.0000 0.0000 0.0000 -0.8626 0.0000 41.8103
#
#
#
# Elastic Compliance Matrix: (Units=1/GPa)
#
#
# Indices 1 2 3 4 5 6 
#
# 1 0.008813 -0.001410 -0.001062 0.000000 0.000811 0.000000
# 2 -0.001410 0.016486 -0.003840 0.000000 -0.000879 0.000000
# 3 -0.001062 -0.003840 0.006924 0.000000 0.002585 0.000000
# 4 0.000000 0.000000 0.000000 0.032370 0.000000 0.000668
# 5 0.000811 -0.000879 0.002585 0.000000 0.021015 0.000000
# 6 0.000000 0.000000 0.000000 0.000668 0.000000 0.023931
#
#
# Mechanical properties :
#
#
# Convention : Reuss Voigt Hill
#
# Bulk Modulus (GPa) = 51.02362 61.97804 56.50083
# Shear Modulus (GPa) = 38.85121 43.46899 41.16010
#
# Velocity S-wave (km/s) = 3.92389 4.15053 4.03880
# Velocity P-wave (km/s) = 6.38357 6.89430 6.64385
#
# Compressibility (1/GPa) = 0.01959876
#
# Stress axis : x y z
#
# Youngs Moduli (GPa) = 113.47262 60.65594 144.43345
#
# Poissons Ratio (x) = 0.08555 0.15333
# Poissons Ratio (y) = 0.16005 0.55461
# Poissons Ratio (z) = 0.12046 0.23291
#
# Static dielectric constant tensor:
#      x y z
#    x 2.056410 0.000000 0.024480 
#    y 0.000000 1.975740 0.000000 
#    z 0.024480 0.000000 1.917930 
# 
# From -- ./inp_files/195227.got.cif
#   From: 2010.05.17/outbox.cif.g08.bks.cpg/sg15_98_cif.got.tgz:195227.got - 2010.06.03 18:47:42.
