data_PCOD9277811
_publ_section_title
;
Structure prediction by ZEFSAII (Michael W. Deem and Ramdas Pophale) SiO2 
 PCOD9277811
Probable space group: C 2/C
;
_chemical_formula_sum "Si O2"
_cell_formula_units_Z 52
_cell_length_a 8.074013
_cell_length_b 32.956742
_cell_length_c 14.912096
_cell_angle_alpha 90.000000
_cell_angle_beta 39.720943
_cell_angle_gamma 90.000000
_cell_volume 2535.750811
_symmetry_space_group_name_H-M "C 2/C"
_symmetry_group_IT_number 15
_symmetry_cell_setting 'monoclinic'
loop_
_space_group_symop_operation_xyz
x,y,z
-x,y,1/2-z
-x,-y,-z
x,-y,1/2+z
1/2+x,1/2+y,z
1/2-x,1/2+y,1/2-z
1/2-x,1/2-y,-z
1/2+x,1/2-y,1/2+z
loop_
_atom_site_type_symbol
_atom_site_label
_atom_site_fract_x
_atom_site_fract_y
_atom_site_fract_z
Si Si1 0.153600 0.602500 0.051910
Si Si2 0.782714 0.466392 0.105130
Si Si3 0.291859 0.295009 0.774019
Si Si4 0.888945 0.121483 0.146738
Si Si5 0.500000 0.257267 0.250000
Si Si6 0.378018 0.169316 0.572246
Si Si7 0.471781 0.898884 0.368126
O O1 0.276177 0.614105 0.094937
O O2 0.839020 0.603641 0.194231
O O3 0.237963 0.559656 0.977599
O O4 0.247035 0.636483 0.942610
O O5 0.500000 0.482416 0.250000
O O6 0.879653 0.434135 0.139817
O O7 0.000000 0.500000 0.000000
O O8 0.500000 0.271476 0.750000
O O9 0.402333 0.330449 0.663258
O O10 0.095875 0.269406 0.794210
O O11 0.141937 0.319814 0.912632
O O12 0.173843 0.102162 0.027382
O O13 0.268697 0.288489 0.364013
O O14 0.416476 0.145037 0.648004
O O15 0.500000 0.904082 0.250000
#
# Coordination Sequence:
#
# PCOD9277811 Si02
#       7
#     8   8   8   8   4   8   8
#     4   9  21  40  71  95 128 171 226 271 337 406
#     4  11  26  45  69 101 144 178 215 277 344 407
#     4  11  22  43  63  94 130 172 230 282 345 410
#     4  10  20  41  70  97 122 173 229 281 328 410
#     4  12  26  38  60  94 140 174 224 296 360 396
#     4  10  23  41  63  88 125 178 217 277 335 405
#     4  11  24  42  71  97 131 171 230 278 331 416
#
# _framework density 20.506747000000001
#
# number of rings (size 3 to 8) (size 9 to 14) (size 15 to 20)
#    0.000    1.538    1.538    3.231    8.615    1.231 
#    2.769    1.538    0.000    0.000    0.000    0.000 
#    0.000    0.000    0.000    0.000    0.000    0.000 
#
# Total GULP energy -145000.934674 kJ/mol
# GULP energy per Si atom -5576.959026 kJ/mol
# Density = 2.046007 g / cm^3
# Si number density = 20.506747 Si / 1000 Ang^3
#
#
#
# Elastic Constant Matrix: (Units=GPa)
#
#
# Indices 1 2 3 4 5 6 
#
# 1 119.2039 44.1479 44.7651 0.0000 5.3314 0.0000
# 2 44.1479 86.7543 30.4204 0.0000 4.1465 0.0000
# 3 44.7651 30.4204 83.6555 0.0000 -3.4627 0.0000
# 4 0.0000 0.0000 0.0000 24.4642 0.0000 -15.5490
# 5 5.3314 4.1465 -3.4627 0.0000 41.8190 0.0000
# 6 0.0000 0.0000 0.0000 -15.5490 0.0000 3.3631
#
#
#
# Elastic Compliance Matrix: (Units=1/GPa)
#
#
# Indices 1 2 3 4 5 6 
#
# 1 0.011858 -0.004259 -0.004858 0.000000 -0.001492 0.000000
# 2 -0.004259 0.014865 -0.003176 0.000000 -0.001194 0.000000
# 3 -0.004858 -0.003176 0.015801 0.000000 0.002243 0.000000
# 4 0.000000 0.000000 0.000000 -0.021086 0.000000 -0.097488
# 5 -0.001492 -0.001194 0.002243 0.000000 0.024407 0.000000
# 6 0.000000 0.000000 0.000000 -0.097488 0.000000 -0.153384
#
#
# Mechanical properties :
#
#
# Convention : Reuss Voigt Hill
#
# Bulk Modulus (GPa) = 55.74928 58.69781 57.22355
# Shear Modulus (GPa) = -64.95644 25.28128 -19.83758
#
# Velocity S-wave (km/s) = -5.63422 3.51497 -3.11363
# Velocity P-wave (km/s) = 3.88343 6.72006 3.87802
#
# Compressibility (1/GPa) = 0.01793745
#
# Stress axis : x y z
#
# Youngs Moduli (GPa) = 84.33469 67.27242 63.28728
#
# Poissons Ratio (x) = 0.28654 0.30745
# Poissons Ratio (y) = 0.35921 0.20098
# Poissons Ratio (z) = 0.40970 0.21363
#
# Static dielectric constant tensor:
#      x y z
#    x 1.711640 0.000000 0.042890 
#    y 0.000000 1.715000 0.000000 
#    z 0.042890 0.000000 1.611280 
# 
# From -- ./inp_files/139739.got.cif
#   From: 2010.05.17/outbox.cif.g08.bks.cpg/sg15_70_cif.got.tgz:139739.got - 2010.06.03 18:47:42.
