data_PCOD9277597
_publ_section_title
;
Structure prediction by ZEFSAII (Michael W. Deem and Ramdas Pophale) SiO2 
 PCOD9277597
Probable space group: C 2/C
;
_chemical_formula_sum "Si O2"
_cell_formula_units_Z 64
_cell_length_a 21.616861
_cell_length_b 32.084607
_cell_length_c 14.792764
_cell_angle_alpha 90.000000
_cell_angle_beta 162.420139
_cell_angle_gamma 90.000000
_cell_volume 3098.815469
_symmetry_space_group_name_H-M "C 2/C"
_symmetry_group_IT_number 15
_symmetry_cell_setting 'monoclinic'
loop_
_space_group_symop_operation_xyz
x,y,z
-x,y,1/2-z
-x,-y,-z
x,-y,1/2+z
1/2+x,1/2+y,z
1/2-x,1/2+y,1/2-z
1/2-x,1/2-y,-z
1/2+x,1/2-y,1/2+z
loop_
_atom_site_type_symbol
_atom_site_label
_atom_site_fract_x
_atom_site_fract_y
_atom_site_fract_z
Si Si1 0.942762 0.423965 0.434125
Si Si2 0.212894 0.347573 0.789332
Si Si3 0.968330 0.114204 0.098764
Si Si4 0.620417 0.371567 0.280963
Si Si5 0.691439 0.043064 0.448151
Si Si6 0.687357 0.950466 0.442070
Si Si7 0.579835 0.235521 0.188144
Si Si8 0.185570 0.189860 0.724748
O O1 0.892954 0.448098 0.273117
O O2 0.024522 0.378655 0.515287
O O3 0.100796 0.446474 0.721764
O O4 0.736126 0.413225 0.200081
O O5 0.165759 0.299384 0.738972
O O6 0.384744 0.357617 0.955034
O O7 0.297457 0.360725 0.005656
O O8 0.000000 0.116903 0.250000
O O9 0.156662 0.087295 0.324046
O O10 0.930961 0.160211 0.007979
O O11 0.650584 0.420316 0.308955
O O12 0.745527 0.343957 0.384630
O O13 0.500000 0.045940 0.250000
O O14 0.781217 0.996805 0.580772
O O15 0.500000 0.947622 0.250000
O O16 0.750000 0.250000 0.500000
O O17 0.544524 0.276344 0.078724
O O18 0.382723 0.214225 0.960250
#
# Coordination Sequence:
#
# PCOD9277597 Si02
#       8
#     8   8   8   8   8   8   8   8
#     4  10  20  41  66  88 126 170 212 267 321 384
#     4  10  21  39  58  92 128 161 206 249 321 388
#     4  10  23  45  67  89 125 178 221 264 319 376
#     4  10  22  36  60  92 131 167 200 254 320 391
#     4  10  21  39  62  97 129 168 214 267 326 384
#     4  10  23  43  64  92 127 169 227 273 310 371
#     4  12  24  37  63  96 130 158 205 261 321 403
#     4  12  24  41  64  92 127 170 205 258 332 382
#
# _framework density 20.653053
#
# number of rings (size 3 to 8) (size 9 to 14) (size 15 to 20)
#    0.000    1.500    2.500    2.250    5.250    0.000 
#   15.750    2.500    0.000    0.000    0.000    0.000 
#    0.000    0.000    0.000    0.000    0.000    0.000 
#
# Total GULP energy -178667.370598 kJ/mol
# GULP energy per Si atom -5583.355331 kJ/mol
# Density = 2.060605 g / cm^3
# Si number density = 20.653053 Si / 1000 Ang^3
#
#
#
# Elastic Constant Matrix: (Units=GPa)
#
#
# Indices 1 2 3 4 5 6 
#
# 1 76.4292 54.5228 26.6693 0.0002 14.3951 0.0003
# 2 54.5228 174.9571 49.2953 -0.0001 15.9879 0.0000
# 3 26.6693 49.2953 59.0110 0.0008 20.3500 0.0009
# 4 0.0002 -0.0001 0.0008 34.8396 0.0002 -1.7697
# 5 14.3951 15.9879 20.3500 0.0002 18.8869 0.0003
# 6 0.0003 0.0000 0.0009 -1.7697 0.0003 30.9915
#
#
#
# Elastic Compliance Matrix: (Units=1/GPa)
#
#
# Indices 1 2 3 4 5 6 
#
# 1 0.018482 -0.004519 -0.001654 0.000000 -0.008479 0.000000
# 2 -0.004519 0.008585 -0.006064 0.000000 0.002711 0.000000
# 3 -0.001654 -0.006064 0.032707 -0.000001 -0.028847 -0.000001
# 4 0.000000 0.000000 -0.000001 0.028786 0.000000 0.001644
# 5 -0.008479 0.002711 -0.028847 0.000000 0.088196 0.000000
# 6 0.000000 0.000000 -0.000001 0.001644 0.000000 0.032361
#
#
# Mechanical properties :
#
#
# Convention : Reuss Voigt Hill
#
# Bulk Modulus (GPa) = 28.32823 63.48579 45.90701
# Shear Modulus (GPa) = 20.37851 28.93759 24.65805
#
# Velocity S-wave (km/s) = 3.14460 3.74723 3.45906
# Velocity P-wave (km/s) = 5.18948 7.03763 6.18300
#
# Compressibility (1/GPa) = 0.03530047
#
# Stress axis : x y z
#
# Youngs Moduli (GPa) = 54.10770 116.48592 30.57464
#
# Poissons Ratio (x) = 0.52637 0.05056
# Poissons Ratio (y) = 0.24450 0.18540
# Poissons Ratio (z) = 0.08948 0.70636
#
# Static dielectric constant tensor:
#      x y z
#    x 1.770670 0.000000 0.013060 
#    y 0.000000 1.742490 0.000000 
#    z 0.013060 0.000000 1.783100 
# 
# From -- ./inp_files/148797.got.cif
#   From: 2010.05.17/outbox.cif.g08.bks.cpg/sg15_75_cif.got.tgz:148797.got - 2010.06.03 18:47:42.
