data_PCOD9277659
_publ_section_title
;
Structure prediction by ZEFSAII (Michael W. Deem and Ramdas Pophale) SiO2 
 PCOD9277659
Probable space group: C 2/C
;
_chemical_formula_sum "Si O2"
_cell_formula_units_Z 56
_cell_length_a 15.664510
_cell_length_b 12.153664
_cell_length_c 12.990599
_cell_angle_alpha 90.000000
_cell_angle_beta 57.253039
_cell_angle_gamma 90.000000
_cell_volume 2080.099811
_symmetry_space_group_name_H-M "C 2/C"
_symmetry_group_IT_number 15
_symmetry_cell_setting 'monoclinic'
loop_
_space_group_symop_operation_xyz
x,y,z
-x,y,1/2-z
-x,-y,-z
x,-y,1/2+z
1/2+x,1/2+y,z
1/2-x,1/2+y,1/2-z
1/2-x,1/2-y,-z
1/2+x,1/2-y,1/2+z
loop_
_atom_site_type_symbol
_atom_site_label
_atom_site_fract_x
_atom_site_fract_y
_atom_site_fract_z
Si Si1 0.109314 0.381213 0.218404
Si Si2 0.075819 0.177137 0.840267
Si Si3 0.138470 0.637952 0.143388
Si Si4 0.173910 0.050193 0.198206
Si Si5 0.826984 0.141576 0.517810
Si Si6 0.608650 0.941589 0.441578
Si Si7 0.642060 0.389419 0.939490
O O1 0.115131 0.513996 0.198495
O O2 0.123988 0.368899 0.330241
O O3 0.000000 0.343979 0.250000
O O4 0.206369 0.335181 0.095008
O O5 0.089480 0.276243 0.752628
O O6 0.125470 0.070442 0.750750
O O7 0.961783 0.143366 0.941021
O O8 0.122816 0.210344 0.922196
O O9 0.258423 0.658662 0.073645
O O10 0.891436 0.629926 0.455680
O O11 0.136838 0.112941 0.120590
O O12 0.294932 0.024135 0.112861
O O13 0.146453 0.123468 0.314253
O O14 0.842766 0.020274 0.557058
O O15 0.500000 0.000000 0.500000
#
# Coordination Sequence:
#
# PCOD9277659 Si02
#       7
#     8   8   8   8   8   8   8
#     4  11  20  41  68 103 145 191 246 305 371 449
#     4  11  25  43  66 106 155 197 245 321 389 421
#     4  11  24  44  65 108 154 186 249 317 370 444
#     4  11  20  42  73 103 142 197 268 306 354 463
#     4  10  20  41  67 103 138 195 259 311 361 457
#     4  12  21  40  71 103 145 200 246 298 371 450
#     4  10  22  43  68  98 149 198 250 310 376 449
#
# _framework density 26.921785
#
# number of rings (size 3 to 8) (size 9 to 14) (size 15 to 20)
#    0.000    1.143    8.571    1.714    0.000    2.857 
#    7.714    0.714    0.000    0.000    0.000    0.000 
#    0.000    0.143    0.000    0.000    0.000    0.714 
#
# Total GULP energy -157111.847035 kJ/mol
# GULP energy per Si atom -5611.137394 kJ/mol
# Density = 2.686051 g / cm^3
# Si number density = 26.921785 Si / 1000 Ang^3
#
#
#
# Elastic Constant Matrix: (Units=GPa)
#
#
# Indices 1 2 3 4 5 6 
#
# 1 170.3559 17.0009 100.8747 0.0000 10.7506 0.0000
# 2 17.0009 103.4835 43.6714 0.0000 5.7922 0.0000
# 3 100.8747 43.6714 179.5079 0.0000 12.2406 0.0000
# 4 0.0000 0.0000 0.0000 37.7937 0.0000 1.0670
# 5 10.7506 5.7922 12.2406 0.0000 89.9999 0.0000
# 6 0.0000 0.0000 0.0000 1.0670 0.0000 14.0181
#
#
#
# Elastic Compliance Matrix: (Units=1/GPa)
#
#
# Indices 1 2 3 4 5 6 
#
# 1 0.008860 0.000732 -0.005129 0.000000 -0.000408 0.000000
# 2 0.000732 0.010840 -0.003023 0.000000 -0.000374 0.000000
# 3 -0.005129 -0.003023 0.009219 0.000000 -0.000447 0.000000
# 4 0.000000 0.000000 0.000000 0.026516 0.000000 -0.002018
# 5 -0.000408 -0.000374 -0.000447 0.000000 0.011245 0.000000
# 6 0.000000 0.000000 0.000000 -0.002018 0.000000 0.071490
#
#
# Mechanical properties :
#
#
# Convention : Reuss Voigt Hill
#
# Bulk Modulus (GPa) = 71.03115 86.27128 78.65122
# Shear Modulus (GPa) = 31.70527 47.81570 39.76048
#
# Velocity S-wave (km/s) = 3.43546 4.21895 3.84720
# Velocity P-wave (km/s) = 6.49446 7.47311 7.00091
#
# Compressibility (1/GPa) = 0.01407833
#
# Stress axis : x y z
#
# Youngs Moduli (GPa) = 112.86818 92.25281 108.47236
#
# Poissons Ratio (x) = -0.06751 0.55636
# Poissons Ratio (y) = -0.08260 0.32790
# Poissons Ratio (z) = 0.57891 0.27887
#
# Static dielectric constant tensor:
#      x y z
#    x 2.183270 0.000000 0.081460 
#    y 0.000000 2.154490 0.000000 
#    z 0.081460 0.000000 2.205950 
# 
# From -- ./inp_files/162221.got.cif
#   From: 2010.05.17/outbox.cif.g08.bks.cpg/sg15_82_cif.got.tgz:162221.got - 2010.06.03 18:47:42.
