data_PCOD9277473
_publ_section_title
;
Structure prediction by ZEFSAII (Michael W. Deem and Ramdas Pophale) SiO2 
 PCOD9277473
Probable space group: C 2/C
;
_chemical_formula_sum "Si O2"
_cell_formula_units_Z 52
_cell_length_a 26.057997
_cell_length_b 17.732899
_cell_length_c 5.441853
_cell_angle_alpha 90.000000
_cell_angle_beta 113.963992
_cell_angle_gamma 90.000000
_cell_volume 2297.836666
_symmetry_space_group_name_H-M "C 2/C"
_symmetry_group_IT_number 15
_symmetry_cell_setting 'monoclinic'
loop_
_space_group_symop_operation_xyz
x,y,z
-x,y,1/2-z
-x,-y,-z
x,-y,1/2+z
1/2+x,1/2+y,z
1/2-x,1/2+y,1/2-z
1/2-x,1/2-y,-z
1/2+x,1/2-y,1/2+z
loop_
_atom_site_type_symbol
_atom_site_label
_atom_site_fract_x
_atom_site_fract_y
_atom_site_fract_z
Si Si1 0.121542 0.045924 0.723349
Si Si2 0.000000 0.694646 0.750000
Si Si3 0.760209 0.875667 0.129672
Si Si4 0.306539 0.768581 0.856238
Si Si5 0.901755 0.323864 0.375861
Si Si6 0.644294 0.044361 0.449645
Si Si7 0.585723 0.709175 0.731124
O O1 0.185887 0.076220 0.841774
O O2 0.084429 0.120603 0.689987
O O3 0.112494 0.007211 0.441595
O O4 0.953521 0.649502 0.812482
O O5 0.963367 0.747644 0.502761
O O6 0.777052 0.811345 0.364911
O O7 0.709216 0.930072 0.097501
O O8 0.736303 0.824030 0.861825
O O9 0.354784 0.739044 0.761244
O O10 0.342944 0.814862 0.121844
O O11 0.892545 0.380795 0.580694
O O12 0.915309 0.239420 0.493656
O O13 0.633477 0.008503 0.163828
#
# Coordination Sequence:
#
# PCOD9277473 Si02
#       7
#     8   4   8   8   8   8   8
#     4  11  26  43  66 103 150 187 223 276 340 409
#     4  10  24  44  78 100 120 168 240 296 354 414
#     4  10  20  41  64 100 140 190 232 268 328 405
#     4   9  20  38  66 101 133 178 235 289 324 384
#     4  11  23  44  72  96 133 172 235 291 345 408
#     4  12  26  43  65  98 143 184 222 275 340 405
#     4  10  22  44  71  99 130 176 232 289 344 413
#
# _framework density 22.629981000000001
#
# number of rings (size 3 to 8) (size 9 to 14) (size 15 to 20)
#    0.000    1.538    1.538    2.308    8.615    1.846 
#    2.769    1.538    0.000    0.000    0.000    0.000 
#    0.000    0.000    0.000    0.000    0.000    0.000 
#
# Total GULP energy -145364.112015 kJ/mol
# GULP energy per Si atom -5590.927385 kJ/mol
# Density = 2.257847 g / cm^3
# Si number density = 22.629981 Si / 1000 Ang^3
#
#
#
# Elastic Constant Matrix: (Units=GPa)
#
#
# Indices 1 2 3 4 5 6 
#
# 1 68.7557 13.0157 10.2437 0.0000 -3.0280 0.0000
# 2 13.0157 83.8024 11.7672 0.0000 -20.4007 0.0000
# 3 10.2437 11.7672 63.7005 0.0000 -6.0254 0.0000
# 4 0.0000 0.0000 0.0000 23.7163 0.0000 -16.8638
# 5 -3.0280 -20.4007 -6.0254 0.0000 34.4975 0.0000
# 6 0.0000 0.0000 0.0000 -16.8638 0.0000 29.5385
#
#
#
# Elastic Compliance Matrix: (Units=1/GPa)
#
#
# Indices 1 2 3 4 5 6 
#
# 1 0.015248 -0.002148 -0.002083 0.000000 -0.000296 0.000000
# 2 -0.002148 0.014454 -0.001560 0.000000 0.008087 0.000000
# 3 -0.002083 -0.001560 0.016489 0.000000 0.001775 0.000000
# 4 0.000000 0.000000 0.000000 0.070980 0.000000 0.040523
# 5 -0.000296 0.008087 0.001775 0.000000 0.034054 0.000000
# 6 0.000000 0.000000 0.000000 0.040523 0.000000 0.056989
#
#
# Mechanical properties :
#
#
# Convention : Reuss Voigt Hill
#
# Bulk Modulus (GPa) = 28.89318 31.81243 30.35281
# Shear Modulus (GPa) = 21.61392 29.63258 25.62325
#
# Velocity S-wave (km/s) = 3.09382 3.62254 3.36857
# Velocity P-wave (km/s) = 5.05546 5.62008 5.34523
#
# Compressibility (1/GPa) = 0.03461024
#
# Stress axis : x y z
#
# Youngs Moduli (GPa) = 65.58156 69.18489 60.64471
#
# Poissons Ratio (x) = 0.14859 0.12634
# Poissons Ratio (y) = 0.14085 0.09459
# Poissons Ratio (z) = 0.13663 0.10791
#
# Static dielectric constant tensor:
#      x y z
#    x 1.880050 0.000000 -0.039070 
#    y 0.000000 1.862630 0.000000 
#    z -0.039070 0.000000 1.864290 
# 
# From -- ./inp_files/17233.got.cif
#   From: 2010.05.17/outbox.cif.g08.bks.cpg/sg15_9_cif.got.tgz:17233.got - 2010.06.03 18:47:42.
