data_PCOD9277296
_publ_section_title
;
Structure prediction by ZEFSAII (Michael W. Deem and Ramdas Pophale) SiO2 
 PCOD9277296
Probable space group: C 2/C
;
_chemical_formula_sum "Si O2"
_cell_formula_units_Z 44
_cell_length_a 8.457605
_cell_length_b 12.664876
_cell_length_c 16.082690
_cell_angle_alpha 90.000000
_cell_angle_beta 80.904517
_cell_angle_gamma 90.000000
_cell_volume 1701.028967
_symmetry_space_group_name_H-M "C 2/C"
_symmetry_group_IT_number 15
_symmetry_cell_setting 'monoclinic'
loop_
_space_group_symop_operation_xyz
x,y,z
-x,y,1/2-z
-x,-y,-z
x,-y,1/2+z
1/2+x,1/2+y,z
1/2-x,1/2+y,1/2-z
1/2-x,1/2-y,-z
1/2+x,1/2-y,1/2+z
loop_
_atom_site_type_symbol
_atom_site_label
_atom_site_fract_x
_atom_site_fract_y
_atom_site_fract_z
Si Si1 0.053130 0.088986 0.826970
Si Si2 0.466682 0.720893 0.395982
Si Si3 0.142849 0.552134 0.583681
Si Si4 0.500000 0.963105 0.750000
Si Si5 0.817922 0.131392 0.988906
Si Si6 0.254792 0.291433 0.760311
O O1 0.192420 0.052454 0.876924
O O2 0.137125 0.193942 0.784448
O O3 0.000000 0.023185 0.750000
O O4 0.897674 0.110588 0.894258
O O5 0.400827 0.829746 0.442396
O O6 0.533367 0.638719 0.457619
O O7 0.613198 0.738428 0.319195
O O8 0.329355 0.683476 0.344403
O O9 0.181337 0.455707 0.518869
O O10 0.008833 0.527474 0.664273
O O11 0.653530 0.888735 0.736568
O O12 0.750000 0.250000 0.000000
#
# Coordination Sequence:
#
# PCOD9277296 Si02
#       6
#     8   8   8   4   8   8
#     4  11  23  43  70 102 142 183 235 303 362 427
#     4  10  23  45  68 102 144 185 242 299 361 428
#     4  11  25  42  69 106 142 186 241 299 356 445
#     4  12  20  40  72 108 142 192 242 282 366 438
#     4  12  25  45  72 100 144 188 243 299 364 437
#     4  10  20  40  72 101 143 190 232 291 360 427
#
# _framework density 25.866696999999998
#
# number of rings (size 3 to 8) (size 9 to 14) (size 15 to 20)
#    0.000    1.091    2.727    4.909    0.000    5.091 
#    0.000    3.636    0.000    0.000    0.000    0.000 
#    0.000    0.000    0.000    0.000    0.000    0.000 
#
# Total GULP energy -123228.036673 kJ/mol
# GULP energy per Si atom -5601.274394 kJ/mol
# Density = 2.580782 g / cm^3
# Si number density = 25.866697 Si / 1000 Ang^3
#
#
#
# Elastic Constant Matrix: (Units=GPa)
#
#
# Indices 1 2 3 4 5 6 
#
# 1 82.3916 16.2272 11.8751 0.0000 7.5913 0.0000
# 2 16.2272 108.9883 30.6425 0.0000 -17.8405 0.0000
# 3 11.8751 30.6425 128.1485 0.0000 -18.5476 0.0000
# 4 0.0000 0.0000 0.0000 39.9792 0.0000 -9.1837
# 5 7.5913 -17.8405 -18.5476 0.0000 47.6440 0.0000
# 6 0.0000 0.0000 0.0000 -9.1837 0.0000 49.4218
#
#
#
# Elastic Compliance Matrix: (Units=1/GPa)
#
#
# Indices 1 2 3 4 5 6 
#
# 1 0.013040 -0.002158 -0.001176 0.000000 -0.003344 0.000000
# 2 -0.002158 0.010596 -0.001812 0.000000 0.003606 0.000000
# 3 -0.001176 -0.001812 0.008769 0.000000 0.002923 0.000000
# 4 0.000000 0.000000 0.000000 0.026128 0.000000 0.004855
# 5 -0.003344 0.003606 0.002923 0.000000 0.024010 0.000000
# 6 0.000000 0.000000 0.000000 0.004855 0.000000 0.021136
#
#
# Mechanical properties :
#
#
# Convention : Reuss Voigt Hill
#
# Bulk Modulus (GPa) = 45.22339 48.55756 46.89047
# Shear Modulus (GPa) = 41.20567 44.79459 43.00013
#
# Velocity S-wave (km/s) = 3.99557 4.16594 4.08165
# Velocity P-wave (km/s) = 6.22955 6.47712 6.35454
#
# Compressibility (1/GPa) = 0.02211245
#
# Stress axis : x y z
#
# Youngs Moduli (GPa) = 76.68819 94.37204 114.04218
#
# Poissons Ratio (x) = 0.20367 0.13414
# Poissons Ratio (y) = 0.16550 0.20662
# Poissons Ratio (z) = 0.09021 0.17098
#
# Static dielectric constant tensor:
#      x y z
#    x 2.130480 0.000000 0.097180 
#    y 0.000000 2.035650 0.000000 
#    z 0.097180 0.000000 2.139810 
# 
# From -- ./inp_files/188740.got.cif
#   From: 2010.05.17/outbox.cif.g08.bks.cpg/sg15_95_cif.got.tgz:188740.got - 2010.06.03 18:47:42.
