data_PCOD9277561
_publ_section_title
;
Structure prediction by ZEFSAII (Michael W. Deem and Ramdas Pophale) SiO2 
 PCOD9277561
Probable space group: C 2/C
;
_chemical_formula_sum "Si O2"
_cell_formula_units_Z 52
_cell_length_a 6.794303
_cell_length_b 26.447324
_cell_length_c 15.110321
_cell_angle_alpha 90.000000
_cell_angle_beta 123.510096
_cell_angle_gamma 90.000000
_cell_volume 2263.894923
_symmetry_space_group_name_H-M "C 2/C"
_symmetry_group_IT_number 15
_symmetry_cell_setting 'monoclinic'
loop_
_space_group_symop_operation_xyz
x,y,z
-x,y,1/2-z
-x,-y,-z
x,-y,1/2+z
1/2+x,1/2+y,z
1/2-x,1/2+y,1/2-z
1/2-x,1/2-y,-z
1/2+x,1/2-y,1/2+z
loop_
_atom_site_type_symbol
_atom_site_label
_atom_site_fract_x
_atom_site_fract_y
_atom_site_fract_z
Si Si1 0.000000 0.052507 0.750000
Si Si2 0.494190 0.040503 0.579434
Si Si3 0.119081 0.690037 0.063886
Si Si4 0.576424 0.610584 0.411291
Si Si5 0.286317 0.807261 0.639005
Si Si6 0.826557 0.988712 0.873492
Si Si7 0.492047 0.779894 0.151080
O O1 0.739999 0.071068 0.653538
O O2 0.919370 0.022049 0.816234
O O3 0.284263 0.079905 0.510952
O O4 0.500000 0.000000 0.500000
O O5 0.420772 0.005610 0.644809
O O6 0.279236 0.641352 0.128785
O O7 0.277703 0.740096 0.109106
O O8 0.895795 0.698555 0.069784
O O9 0.051272 0.685302 0.944062
O O10 0.438319 0.656383 0.423481
O O11 0.374679 0.568107 0.351188
O O12 0.500000 0.829666 0.750000
O O13 0.205547 0.756817 0.671712
O O14 0.000000 0.000000 0.000000
O O15 0.500000 0.804805 0.250000
#
# Coordination Sequence:
#
# PCOD9277561 Si02
#       7
#     4   8   8   8   8   8   8
#     4  12  22  40  74  90 118 186 220 268 342 380
#     4  11  23  44  66  93 132 174 225 273 325 397
#     4  10  22  39  64  93 129 173 214 271 328 387
#     4  10  24  40  63  94 141 164 219 283 324 377
#     4  11  22  37  64  97 134 174 214 269 336 391
#     4  10  22  41  62  93 127 168 223 269 320 392
#     4  10  20  41  65  92 128 170 219 266 323 397
#
# _framework density 22.969263000000002
#
# number of rings (size 3 to 8) (size 9 to 14) (size 15 to 20)
#    0.000    1.538    4.615    0.923    2.154    2.462 
#    0.000    3.077    1.692    0.000    0.000    0.000 
#    0.000    0.000    0.000    0.000    0.000    0.000 
#
# Total GULP energy -144792.265172 kJ/mol
# GULP energy per Si atom -5568.933276 kJ/mol
# Density = 2.291698 g / cm^3
# Si number density = 22.969263 Si / 1000 Ang^3
#
#
#
# Elastic Constant Matrix: (Units=GPa)
#
#
# Indices 1 2 3 4 5 6 
#
# 1 171.8706 27.4712 38.0247 0.0000 -3.4449 0.0000
# 2 27.4712 58.1472 6.1522 0.0000 4.9097 0.0000
# 3 38.0247 6.1522 106.6685 0.0000 -16.6284 0.0000
# 4 0.0000 0.0000 0.0000 11.3512 0.0000 10.8192
# 5 -3.4449 4.9097 -16.6284 0.0000 57.2261 0.0000
# 6 0.0000 0.0000 0.0000 10.8192 0.0000 9.7342
#
#
#
# Elastic Compliance Matrix: (Units=1/GPa)
#
#
# Indices 1 2 3 4 5 6 
#
# 1 0.006791 -0.002971 -0.002248 0.000000 0.000011 0.000000
# 2 -0.002971 0.018794 -0.000318 0.000000 -0.001884 0.000000
# 3 -0.002248 -0.000318 0.010661 0.000000 0.002990 0.000000
# 4 0.000000 0.000000 0.000000 -1.483925 0.000000 1.649325
# 5 0.000011 -0.001884 0.002990 0.000000 0.018506 0.000000
# 6 0.000000 0.000000 0.000000 1.649325 0.000000 -1.730431
#
#
# Mechanical properties :
#
#
# Convention : Reuss Voigt Hill
#
# Bulk Modulus (GPa) = 39.72889 53.33136 46.53013
# Shear Modulus (GPa) = -1.59229 33.33153 15.86962
#
# Velocity S-wave (km/s) = -0.83350 3.81351 2.63136
# Velocity P-wave (km/s) = 4.05065 6.53142 5.43449
#
# Compressibility (1/GPa) = 0.02517060
#
# Stress axis : x y z
#
# Youngs Moduli (GPa) = 147.25917 53.20770 93.80410
#
# Poissons Ratio (x) = 0.15810 0.21084
# Poissons Ratio (y) = 0.43755 0.02987
# Poissons Ratio (z) = 0.33100 0.01694
#
# Static dielectric constant tensor:
#      x y z
#    x 1.912910 0.000000 0.065790 
#    y 0.000000 1.905690 0.000000 
#    z 0.065790 0.000000 2.005850 
# 
# From -- ./inp_files/130849.got.cif
#   From: 2010.05.17/outbox.cif.g08.bks.cpg/sg15_66_cif.got.tgz:130849.got - 2010.06.03 18:47:42.
