data_PCOD9277714
_publ_section_title
;
Structure prediction by ZEFSAII (Michael W. Deem and Ramdas Pophale) SiO2 
 PCOD9277714
Probable space group: C 2/C
;
_chemical_formula_sum "Si O2"
_cell_formula_units_Z 44
_cell_length_a 5.532602
_cell_length_b 28.672115
_cell_length_c 13.087413
_cell_angle_alpha 90.000000
_cell_angle_beta 60.384723
_cell_angle_gamma 90.000000
_cell_volume 1804.862901
_symmetry_space_group_name_H-M "C 2/C"
_symmetry_group_IT_number 15
_symmetry_cell_setting 'monoclinic'
loop_
_space_group_symop_operation_xyz
x,y,z
-x,y,1/2-z
-x,-y,-z
x,-y,1/2+z
1/2+x,1/2+y,z
1/2-x,1/2+y,1/2-z
1/2-x,1/2-y,-z
1/2+x,1/2-y,1/2+z
loop_
_atom_site_type_symbol
_atom_site_label
_atom_site_fract_x
_atom_site_fract_y
_atom_site_fract_z
Si Si1 0.000000 0.985534 0.750000
Si Si2 0.745084 0.086318 0.433919
Si Si3 0.413322 0.757538 0.074593
Si Si4 0.802303 0.838121 0.653816
Si Si5 0.790288 0.855819 0.416150
Si Si6 0.313296 0.434309 0.146772
O O1 0.759244 0.950601 0.839424
O O2 0.948159 0.020487 0.668552
O O3 0.447475 0.105163 0.528062
O O4 0.858311 0.065002 0.515948
O O5 0.937323 0.130873 0.366867
O O6 0.321593 0.716996 0.172453
O O7 0.320138 0.810422 0.121205
O O8 0.250000 0.750000 0.000000
O O9 0.750000 0.750000 0.000000
O O10 0.500000 0.856127 0.750000
O O11 0.819347 0.840454 0.528000
O O12 0.068083 0.884847 0.337529
O O13 0.000000 0.436407 0.250000
#
# Coordination Sequence:
#
# PCOD9277714 Si02
#       6
#     4   8   8   8   8   8
#     4  12  26  44  68 104 136 184 244 304 376 436
#     4  11  23  43  72  96 139 185 234 306 361 440
#     4  10  20  41  68 100 143 188 236 298 360 439
#     4  10  21  39  64 105 137 181 237 291 358 433
#     4  10  22  43  69  96 138 188 232 294 365 434
#     4  11  26  45  66  99 141 185 246 297 367 439
#
# _framework density 24.378584
#
# number of rings (size 3 to 8) (size 9 to 14) (size 15 to 20)
#    0.000    1.455    1.818    2.727    0.000    6.545 
#    4.909    0.000    0.000    0.000    0.000    0.000 
#    0.000    0.000    0.000    0.000    0.000    0.000 
#
# Total GULP energy -122877.515603 kJ/mol
# GULP energy per Si atom -5585.341618 kJ/mol
# Density = 2.432310 g / cm^3
# Si number density = 24.378584 Si / 1000 Ang^3
#
#
#
# Elastic Constant Matrix: (Units=GPa)
#
#
# Indices 1 2 3 4 5 6 
#
# 1 55.0577 10.2799 -23.7060 0.0000 -8.7191 0.0000
# 2 10.2799 151.9639 4.1285 0.0000 -0.7925 0.0000
# 3 -23.7060 4.1285 24.8019 0.0000 11.2497 0.0000
# 4 0.0000 0.0000 0.0000 31.9487 0.0000 -11.3403
# 5 -8.7191 -0.7925 11.2497 0.0000 50.2703 0.0000
# 6 0.0000 0.0000 0.0000 -11.3403 0.0000 11.8426
#
#
#
# Elastic Compliance Matrix: (Units=1/GPa)
#
#
# Indices 1 2 3 4 5 6 
#
# 1 0.032315 -0.003068 0.032139 0.000000 -0.001636 0.000000
# 2 -0.003068 0.006908 -0.004330 0.000000 0.000546 0.000000
# 3 0.032139 -0.004330 0.077087 0.000000 -0.011745 0.000000
# 4 0.000000 0.000000 0.000000 0.047417 0.000000 0.045406
# 5 -0.001636 0.000546 -0.011745 0.000000 0.022246 0.000000
# 6 0.000000 0.000000 0.000000 0.045406 0.000000 0.127922
#
#
# Mechanical properties :
#
#
# Convention : Reuss Voigt Hill
#
# Bulk Modulus (GPa) = 6.03158 23.69203 14.86181
# Shear Modulus (GPa) = 15.64090 34.88706 25.26398
#
# Velocity S-wave (km/s) = 2.53570 3.78703 3.22268
# Velocity P-wave (km/s) = 3.32453 5.37230 4.46733
#
# Compressibility (1/GPa) = 0.16579395
#
# Stress axis : x y z
#
# Youngs Moduli (GPa) = 30.94574 144.74925 12.97242
#
# Poissons Ratio (x) = 0.44404 -0.41693
# Poissons Ratio (y) = 0.09493 0.05617
# Poissons Ratio (z) = -0.99458 0.62671
#
# Static dielectric constant tensor:
#      x y z
#    x 1.962350 0.000000 -0.043860 
#    y 0.000000 2.016010 0.000000 
#    z -0.043860 0.000000 1.953020 
# 
# From -- ./inp_files/73859.got.cif
#   From: 2010.05.17/outbox.cif.g08.bks.cpg/sg15_37_cif.got.tgz:73859.got - 2010.06.03 18:47:42.
