data_PCOD9277863
_publ_section_title
;
Structure prediction by ZEFSAII (Michael W. Deem and Ramdas Pophale) SiO2 
 PCOD9277863
Probable space group: C 2/C
;
_chemical_formula_sum "Si O2"
_cell_formula_units_Z 44
_cell_length_a 9.937395
_cell_length_b 17.271648
_cell_length_c 10.529436
_cell_angle_alpha 90.000000
_cell_angle_beta 87.791524
_cell_angle_gamma 90.000000
_cell_volume 1805.879376
_symmetry_space_group_name_H-M "C 2/C"
_symmetry_group_IT_number 15
_symmetry_cell_setting 'monoclinic'
loop_
_space_group_symop_operation_xyz
x,y,z
-x,y,1/2-z
-x,-y,-z
x,-y,1/2+z
1/2+x,1/2+y,z
1/2-x,1/2+y,1/2-z
1/2-x,1/2-y,-z
1/2+x,1/2-y,1/2+z
loop_
_atom_site_type_symbol
_atom_site_label
_atom_site_fract_x
_atom_site_fract_y
_atom_site_fract_z
Si Si1 0.795520 0.289468 0.294075
Si Si2 0.061233 0.695078 0.960871
Si Si3 0.476265 0.351191 0.060716
Si Si4 0.500000 0.483315 0.250000
Si Si5 0.816854 0.110581 0.317515
Si Si6 0.975199 0.558794 0.111726
O O1 0.840109 0.325574 0.158531
O O2 0.652356 0.316704 0.354773
O O3 0.801441 0.197275 0.266185
O O4 0.912943 0.304366 0.395579
O O5 0.073047 0.779484 0.024161
O O6 0.064209 0.633384 0.073670
O O7 0.530684 0.424710 0.134269
O O8 0.420721 0.380348 0.928998
O O9 0.374140 0.540693 0.231101
O O10 0.676879 0.086293 0.381053
O O11 0.000000 0.526028 0.250000
O O12 0.000000 0.500000 0.000000
#
# Coordination Sequence:
#
# PCOD9277863 Si02
#       6
#     8   8   8   4   8   8
#     4  10  20  41  77  95 133 189 234 286 355 430
#     4  10  21  42  72 100 132 181 241 283 357 421
#     4  11  22  44  67 104 137 181 234 295 349 431
#     4  12  28  38  70 100 146 180 238 290 368 412
#     4  11  23  47  66 101 141 187 229 290 362 432
#     4  12  29  45  71 102 143 185 240 298 353 423
#
# _framework density 24.36486
#
# number of rings (size 3 to 8) (size 9 to 14) (size 15 to 20)
#    0.000    1.091    3.636    3.818    8.909    0.000 
#    0.000    1.818    0.000    0.000    0.000    0.000 
#    0.000    0.000    0.000    0.000    0.000    0.000 
#
# Total GULP energy -123164.038113 kJ/mol
# GULP energy per Si atom -5598.365369 kJ/mol
# Density = 2.430940 g / cm^3
# Si number density = 24.364860 Si / 1000 Ang^3
#
#
#
# Elastic Constant Matrix: (Units=GPa)
#
#
# Indices 1 2 3 4 5 6 
#
# 1 32.0825 6.5741 19.4038 0.0000 -7.4310 0.0000
# 2 6.5741 78.0364 43.4574 0.0000 -1.9769 0.0000
# 3 19.4038 43.4574 116.3415 0.0000 -23.0582 0.0000
# 4 0.0000 0.0000 0.0000 51.0486 0.0000 -16.9440
# 5 -7.4310 -1.9769 -23.0582 0.0000 36.6981 0.0000
# 6 0.0000 0.0000 0.0000 -16.9440 0.0000 48.1281
#
#
#
# Elastic Compliance Matrix: (Units=1/GPa)
#
#
# Indices 1 2 3 4 5 6 
#
# 1 0.035154 -0.000039 -0.005070 0.000000 0.003931 0.000000
# 2 -0.000039 0.016547 -0.006853 0.000000 -0.003422 0.000000
# 3 -0.005070 -0.006853 0.013392 0.000000 0.007019 0.000000
# 4 0.000000 0.000000 0.000000 0.022181 0.000000 0.007809
# 5 0.003931 -0.003422 0.007019 0.000000 0.032271 0.000000
# 6 0.000000 0.000000 0.000000 0.007809 0.000000 0.023527
#
#
# Mechanical properties :
#
#
# Convention : Reuss Voigt Hill
#
# Bulk Modulus (GPa) = 24.28893 40.59232 32.44062
# Shear Modulus (GPa) = 27.66738 37.64332 32.65535
#
# Velocity S-wave (km/s) = 3.37344 3.93489 3.66493
# Velocity P-wave (km/s) = 5.01637 6.11072 5.59038
#
# Compressibility (1/GPa) = 0.04117102
#
# Stress axis : x y z
#
# Youngs Moduli (GPa) = 28.44611 60.43276 74.67339
#
# Poissons Ratio (x) = 0.00235 0.37856
# Poissons Ratio (y) = 0.00110 0.51172
# Poissons Ratio (z) = 0.14421 0.41413
#
# Static dielectric constant tensor:
#      x y z
#    x 1.972250 0.000000 0.036850 
#    y 0.000000 1.593890 0.000000 
#    z 0.036850 0.000000 2.273990 
# 
# From -- ./inp_files/86082.got.cif
#   From: 2010.05.17/outbox.cif.g08.bks.cpg/sg15_44_cif.got.tgz:86082.got - 2010.06.03 18:47:42.
