data_PCOD9277871
_publ_section_title
;
Structure prediction by ZEFSAII (Michael W. Deem and Ramdas Pophale) SiO2 
 PCOD9277871
Probable space group: C 2/C
;
_chemical_formula_sum "Si O2"
_cell_formula_units_Z 60
_cell_length_a 20.656668
_cell_length_b 12.765313
_cell_length_c 25.503276
_cell_angle_alpha 90.000000
_cell_angle_beta 151.620079
_cell_angle_gamma 90.000000
_cell_volume 3196.465794
_symmetry_space_group_name_H-M "C 2/C"
_symmetry_group_IT_number 15
_symmetry_cell_setting 'monoclinic'
loop_
_space_group_symop_operation_xyz
x,y,z
-x,y,1/2-z
-x,-y,-z
x,-y,1/2+z
1/2+x,1/2+y,z
1/2-x,1/2+y,1/2-z
1/2-x,1/2-y,-z
1/2+x,1/2-y,1/2+z
loop_
_atom_site_type_symbol
_atom_site_label
_atom_site_fract_x
_atom_site_fract_y
_atom_site_fract_z
Si Si1 0.158636 0.671962 0.867888
Si Si2 0.646203 0.402942 0.258753
Si Si3 0.500000 0.479201 0.250000
Si Si4 0.849952 0.272335 0.824187
Si Si5 0.565104 0.952009 0.993843
Si Si6 0.122256 0.931290 0.653855
Si Si7 0.828890 0.897133 0.397398
Si Si8 0.279049 0.103770 0.471920
O O1 0.204911 0.610355 0.849152
O O2 0.253380 0.775756 0.937089
O O3 0.000000 0.700966 0.750000
O O4 0.183179 0.609530 0.939633
O O5 0.536728 0.409638 0.226272
O O6 0.620265 0.311776 0.199283
O O7 0.795237 0.394953 0.390067
O O8 0.641381 0.511953 0.223091
O O9 0.633770 0.547384 0.358463
O O10 0.702034 0.323026 0.710842
O O11 0.849628 0.208943 0.878601
O O12 0.957183 0.366574 0.897754
O O13 0.610199 0.041473 0.984302
O O14 0.500000 0.000000 0.000000
O O15 0.964911 0.917594 0.527791
O O16 0.183724 0.009440 0.653724
#
# Coordination Sequence:
#
# PCOD9277871 Si02
#       8
#     8   8   4   8   8   8   8   8
#     4  11  23  37  58  91 124 160 202 245 305 367
#     4  10  22  38  62  86 116 162 198 246 297 365
#     4  10  20  42  60  80 120 164 202 232 304 364
#     4  11  22  37  62  90 118 152 202 257 298 354
#     4  11  21  38  61  91 116 154 203 249 304 350
#     4  10  21  40  61  85 122 156 199 252 306 353
#     4  10  23  38  59  90 119 161 199 246 306 364
#     4  10  23  38  59  87 122 160 199 251 296 369
#
# _framework density 18.770733
#
# number of rings (size 3 to 8) (size 9 to 14) (size 15 to 20)
#    0.000    1.600    2.000    2.400    3.733    2.133 
#    0.000    4.000    0.000    0.000    0.000    0.000 
#    0.000    0.000    0.000    0.000    0.000    0.000 
#
# Total GULP energy -167560.271500 kJ/mol
# GULP energy per Si atom -5585.342383 kJ/mol
# Density = 1.872801 g / cm^3
# Si number density = 18.770733 Si / 1000 Ang^3
#
#
#
# Elastic Constant Matrix: (Units=GPa)
#
#
# Indices 1 2 3 4 5 6 
#
# 1 126.1497 33.4112 7.2569 0.0002 -7.3391 0.0002
# 2 33.4112 56.9663 -0.0591 -0.0012 -3.6416 -0.0006
# 3 7.2569 -0.0591 34.5521 -0.0011 -10.6399 -0.0005
# 4 0.0002 -0.0012 -0.0011 25.1399 -0.0005 2.1926
# 5 -7.3391 -3.6416 -10.6399 -0.0005 19.5395 -0.0002
# 6 0.0002 -0.0006 -0.0005 2.1926 -0.0002 11.6675
#
#
#
# Elastic Compliance Matrix: (Units=1/GPa)
#
#
# Indices 1 2 3 4 5 6 
#
# 1 0.009572 -0.005503 -0.001476 0.000000 0.001766 0.000000
# 2 -0.005503 0.020975 0.002113 0.000001 0.002993 0.000001
# 3 -0.001476 0.002113 0.035090 0.000002 0.018947 0.000002
# 4 0.000000 0.000001 0.000002 0.040440 0.000002 -0.007600
# 5 0.001766 0.002993 0.018947 0.000002 0.062717 0.000002
# 6 0.000000 0.000001 0.000002 -0.007600 0.000002 0.087136
#
#
# Mechanical properties :
#
#
# Convention : Reuss Voigt Hill
#
# Bulk Modulus (GPa) = 17.88707 33.20956 25.54831
# Shear Modulus (GPa) = 17.58723 23.07332 20.33027
#
# Velocity S-wave (km/s) = 3.06428 3.50982 3.29459
# Velocity P-wave (km/s) = 4.69784 5.84429 5.30214
#
# Compressibility (1/GPa) = 0.05590631
#
# Stress axis : x y z
#
# Youngs Moduli (GPa) = 104.46947 47.67533 28.49823
#
# Poissons Ratio (x) = 0.26235 0.04206
# Poissons Ratio (y) = 0.57487 -0.06023
# Poissons Ratio (z) = 0.15420 -0.10075
#
# Static dielectric constant tensor:
#      x y z
#    x 1.632240 0.000000 -0.015990 
#    y 0.000000 1.637230 0.000000 
#    z -0.015990 0.000000 1.616540 
# 
# From -- ./inp_files/111646.got.cif
#   From: 2010.05.17/outbox.cif.g08.bks.cpg/sg15_56_cif.got.tgz:111646.got - 2010.06.03 18:47:42.
