data_PCOD9277408
_publ_section_title
;
Structure prediction by ZEFSAII (Michael W. Deem and Ramdas Pophale) SiO2 
 PCOD9277408
Probable space group: C 2/C
;
_chemical_formula_sum "Si O2"
_cell_formula_units_Z 60
_cell_length_a 17.568648
_cell_length_b 11.946600
_cell_length_c 30.377378
_cell_angle_alpha 90.000000
_cell_angle_beta 152.617020
_cell_angle_gamma 90.000000
_cell_volume 2932.448448
_symmetry_space_group_name_H-M "C 2/C"
_symmetry_group_IT_number 15
_symmetry_cell_setting 'monoclinic'
loop_
_space_group_symop_operation_xyz
x,y,z
-x,y,1/2-z
-x,-y,-z
x,-y,1/2+z
1/2+x,1/2+y,z
1/2-x,1/2+y,1/2-z
1/2-x,1/2-y,-z
1/2+x,1/2-y,1/2+z
loop_
_atom_site_type_symbol
_atom_site_label
_atom_site_fract_x
_atom_site_fract_y
_atom_site_fract_z
Si Si1 0.902410 0.966427 0.288746
Si Si2 0.373765 0.300337 0.144641
Si Si3 0.000000 0.623215 0.750000
Si Si4 0.915277 0.251159 0.034143
Si Si5 0.617184 0.900753 0.073854
Si Si6 0.525090 0.279490 0.839584
Si Si7 0.074669 0.980849 0.602471
Si Si8 0.741792 0.433291 0.601867
O O1 0.964231 0.092222 0.308756
O O2 0.857836 0.970022 0.317460
O O3 0.751952 0.939022 0.179090
O O4 0.042328 0.870850 0.351423
O O5 0.500000 0.314694 0.250000
O O6 0.207194 0.357328 0.076389
O O7 0.334609 0.168107 0.124968
O O8 0.941277 0.705054 0.758859
O O9 0.143626 0.543326 0.842861
O O10 0.989969 0.279955 0.120526
O O11 0.950016 0.119597 0.050433
O O12 0.011045 0.306246 0.043327
O O13 0.722937 0.280976 0.933016
O O14 0.500000 0.000000 0.000000
O O15 0.211363 0.930754 0.639357
O O16 0.946863 0.063756 0.512701
#
# Coordination Sequence:
#
# PCOD9277408 Si02
#       8
#     8   8   4   8   8   8   8   8
#     4  10  24  42  63  91 125 164 206 268 312 367
#     4  10  21  40  63  90 125 166 203 254 323 372
#     4  12  24  36  66  94 116 160 210 246 308 384
#     4  10  20  41  62  88 122 164 199 259 313 364
#     4  11  23  38  63  92 121 161 213 255 312 374
#     4  10  23  39  64  90 125 158 207 260 314 367
#     4  10  22  42  61  89 126 161 206 254 312 367
#     4  11  22  40  64  90 125 167 203 249 310 383
#
# _framework density 20.460718
#
# number of rings (size 3 to 8) (size 9 to 14) (size 15 to 20)
#    0.000    1.600    3.333    0.800    6.533    0.533 
#    0.000    0.000    0.000    0.000    0.000    0.000 
#    0.000    0.000    0.000    0.000    0.000    0.000 
#
# Total GULP energy -167266.484003 kJ/mol
# GULP energy per Si atom -5575.549467 kJ/mol
# Density = 2.041415 g / cm^3
# Si number density = 20.460718 Si / 1000 Ang^3
#
#
#
# Elastic Constant Matrix: (Units=GPa)
#
#
# Indices 1 2 3 4 5 6 
#
# 1 64.7642 22.4767 11.1048 0.0002 -9.1778 0.0000
# 2 22.4767 79.7321 12.0488 0.0000 -10.2857 0.0000
# 3 11.1048 12.0488 42.1829 -0.0005 -6.4126 0.0001
# 4 0.0002 0.0000 -0.0005 18.3718 -0.0002 -1.0414
# 5 -9.1778 -10.2857 -6.4126 -0.0002 24.2100 0.0000
# 6 0.0000 0.0000 0.0001 -1.0414 0.0000 25.2238
#
#
#
# Elastic Compliance Matrix: (Units=1/GPa)
#
#
# Indices 1 2 3 4 5 6 
#
# 1 0.017962 -0.004068 -0.002912 0.000000 0.004310 0.000000
# 2 -0.004068 0.014580 -0.002486 0.000000 0.003994 0.000000
# 3 -0.002912 -0.002486 0.025897 0.000001 0.004699 0.000000
# 4 0.000000 0.000000 0.000001 0.054559 0.000000 0.002253
# 5 0.004310 0.003994 0.004699 0.000000 0.045881 0.000000
# 6 0.000000 0.000000 0.000000 0.002253 0.000000 0.039738
#
#
# Mechanical properties :
#
#
# Convention : Reuss Voigt Hill
#
# Bulk Modulus (GPa) = 25.31140 30.88220 28.09680
# Shear Modulus (GPa) = 21.67151 22.96438 22.31794
#
# Velocity S-wave (km/s) = 3.25803 3.35381 3.30626
# Velocity P-wave (km/s) = 5.15273 5.48849 5.32326
#
# Compressibility (1/GPa) = 0.03950789
#
# Stress axis : x y z
#
# Youngs Moduli (GPa) = 55.67204 68.58892 38.61396
#
# Poissons Ratio (x) = 0.27899 0.11243
# Poissons Ratio (y) = 0.22645 0.09601
# Poissons Ratio (z) = 0.16209 0.17055
#
# Static dielectric constant tensor:
#      x y z
#    x 1.763280 0.000000 -0.026930 
#    y 0.000000 1.616920 0.000000 
#    z -0.026930 0.000000 1.723670 
# 
# From -- ./inp_files/316068.got.cif
#   From: 2010.05.17/outbox.cif.g08.bks.cpg/sg15_159_cif.got.tgz:316068.got - 2010.06.03 18:47:42.
