data_PCOD9277895
_publ_section_title
;
Structure prediction by ZEFSAII (Michael W. Deem and Ramdas Pophale) SiO2 
 PCOD9277895
Probable space group: C 2/C
;
_chemical_formula_sum "Si O2"
_cell_formula_units_Z 60
_cell_length_a 6.026718
_cell_length_b 27.601606
_cell_length_c 18.143089
_cell_angle_alpha 90.000000
_cell_angle_beta 66.868125
_cell_angle_gamma 90.000000
_cell_volume 2775.408251
_symmetry_space_group_name_H-M "C 2/C"
_symmetry_group_IT_number 15
_symmetry_cell_setting 'monoclinic'
loop_
_space_group_symop_operation_xyz
x,y,z
-x,y,1/2-z
-x,-y,-z
x,-y,1/2+z
1/2+x,1/2+y,z
1/2-x,1/2+y,1/2-z
1/2-x,1/2-y,-z
1/2+x,1/2-y,1/2+z
loop_
_atom_site_type_symbol
_atom_site_label
_atom_site_fract_x
_atom_site_fract_y
_atom_site_fract_z
Si Si1 0.597754 0.169361 0.608789
Si Si2 0.921349 0.221567 0.343690
Si Si3 0.482067 0.457185 0.164886
Si Si4 0.500000 0.898903 0.250000
Si Si5 0.074242 0.938387 0.588000
Si Si6 0.560822 0.611085 0.538323
Si Si7 0.791114 0.865584 0.709155
Si Si8 0.552428 0.854547 0.943268
O O1 0.578399 0.226822 0.618555
O O2 0.447043 0.138016 0.688594
O O3 0.556151 0.157074 0.529435
O O4 0.872418 0.152005 0.586090
O O5 0.674827 0.190524 0.385202
O O6 0.000000 0.232376 0.250000
O O7 0.117516 0.182517 0.344674
O O8 0.500000 0.462909 0.250000
O O9 0.561101 0.506580 0.114842
O O10 0.639800 0.416960 0.101563
O O11 0.212579 0.434264 0.193449
O O12 0.296461 0.904511 0.586530
O O13 0.057376 0.927847 0.502816
O O14 0.847451 0.914217 0.658410
O O15 0.777022 0.634356 0.465079
O O16 0.500000 0.862109 0.750000
O O17 0.000000 0.867109 0.750000
#
# Coordination Sequence:
#
# PCOD9277895 Si02
#       8
#     8   8   8   4   8   8   8   8
#     4  10  20  42  61  89 128 172 215 277 332 406
#     4  10  21  39  63  93 130 171 221 276 345 404
#     4  11  23  40  62  95 125 171 222 276 345 412
#     4  10  22  38  62  90 130 166 222 278 328 408
#     4  10  23  38  64  88 129 169 220 279 346 407
#     4  10  23  40  64  91 126 172 220 278 340 414
#     4  10  23  41  64  99 140 178 228 286 347 414
#     4  10  22  40  61  90 126 167 221 274 337 409
#
# _framework density 21.61844
#
# number of rings (size 3 to 8) (size 9 to 14) (size 15 to 20)
#    0.000    1.867    0.667    2.000    6.533    2.667 
#    4.800    0.667    0.000    0.000    0.000    0.000 
#    0.000    0.000    0.000    0.000    0.000    0.000 
#
# Total GULP energy -167009.429013 kJ/mol
# GULP energy per Si atom -5566.980967 kJ/mol
# Density = 2.156924 g / cm^3
# Si number density = 21.618440 Si / 1000 Ang^3
#
#
#
# Elastic Constant Matrix: (Units=GPa)
#
#
# Indices 1 2 3 4 5 6 
#
# 1 44.5924 25.4770 26.3344 0.0000 -3.6879 0.0000
# 2 25.4770 116.7213 40.7366 0.0000 -2.5398 0.0000
# 3 26.3344 40.7366 99.9127 0.0000 -0.5820 0.0000
# 4 0.0000 0.0000 0.0000 44.3487 0.0000 -2.1432
# 5 -3.6879 -2.5398 -0.5820 0.0000 27.8570 0.0000
# 6 0.0000 0.0000 0.0000 -2.1432 0.0000 6.4850
#
#
#
# Elastic Compliance Matrix: (Units=1/GPa)
#
#
# Indices 1 2 3 4 5 6 
#
# 1 0.028479 -0.004118 -0.005808 0.000000 0.003273 0.000000
# 2 -0.004118 0.010603 -0.003236 0.000000 0.000354 0.000000
# 3 -0.005808 -0.003236 0.012854 0.000000 -0.000795 0.000000
# 4 0.000000 0.000000 0.000000 0.022915 0.000000 0.007573
# 5 0.003273 0.000354 -0.000795 0.000000 0.036347 0.000000
# 6 0.000000 0.000000 0.000000 0.007573 0.000000 0.156705
#
#
# Mechanical properties :
#
#
# Convention : Reuss Voigt Hill
#
# Bulk Modulus (GPa) = 39.04316 49.59137 44.31726
# Shear Modulus (GPa) = 16.51455 26.98337 21.74896
#
# Velocity S-wave (km/s) = 2.76689 3.53677 3.17525
# Velocity P-wave (km/s) = 5.32042 6.29821 5.82985
#
# Compressibility (1/GPa) = 0.02561268
#
# Stress axis : x y z
#
# Youngs Moduli (GPa) = 35.11381 94.31103 77.79484
#
# Poissons Ratio (x) = 0.38835 0.45186
# Poissons Ratio (y) = 0.14459 0.25173
# Poissons Ratio (z) = 0.20395 0.30517
#
# Static dielectric constant tensor:
#      x y z
#    x 1.889520 0.000000 0.022350 
#    y 0.000000 1.752240 0.000000 
#    z 0.022350 0.000000 1.866460 
# 
# From -- ./inp_files/228601.got.cif
#   From: 2010.05.17/outbox.cif.g08.bks.cpg/sg15_115_cif.got.tgz:228601.got - 2010.06.03 18:47:42.
