data_PCOD9277540
_publ_section_title
;
Structure prediction by ZEFSAII (Michael W. Deem and Ramdas Pophale) SiO2 
 PCOD9277540
Probable space group: C 2/C
;
_chemical_formula_sum "Si O2"
_cell_formula_units_Z 44
_cell_length_a 6.177557
_cell_length_b 27.788239
_cell_length_c 14.960047
_cell_angle_alpha 90.000000
_cell_angle_beta 57.612611
_cell_angle_gamma 90.000000
_cell_volume 2168.615445
_symmetry_space_group_name_H-M "C 2/C"
_symmetry_group_IT_number 15
_symmetry_cell_setting 'monoclinic'
loop_
_space_group_symop_operation_xyz
x,y,z
-x,y,1/2-z
-x,-y,-z
x,-y,1/2+z
1/2+x,1/2+y,z
1/2-x,1/2+y,1/2-z
1/2-x,1/2-y,-z
1/2+x,1/2-y,1/2+z
loop_
_atom_site_type_symbol
_atom_site_label
_atom_site_fract_x
_atom_site_fract_y
_atom_site_fract_z
Si Si1 0.770183 0.386986 0.870778
Si Si2 0.699454 0.195290 0.986220
Si Si3 0.343773 0.951557 0.019017
Si Si4 0.500000 0.422719 0.250000
Si Si5 0.278564 0.133677 0.008787
Si Si6 0.775200 0.154616 0.683396
O O1 0.000000 0.391883 0.750000
O O2 0.810405 0.339975 0.925322
O O3 0.759514 0.434173 0.938368
O O4 0.495913 0.376439 0.885802
O O5 0.432178 0.182847 0.996393
O O6 0.950941 0.181089 0.872294
O O7 0.750000 0.250000 0.000000
O O8 0.113761 0.951284 0.141482
O O9 0.530642 0.908245 0.006053
O O10 0.500000 0.000000 0.000000
O O11 0.712655 0.387537 0.246420
O O12 0.220172 0.132787 0.916791
O O13 0.500000 0.180945 0.750000
#
# Coordination Sequence:
#
# PCOD9277540 Si02
#       6
#     8   8   8   4   8   8
#     4  10  23  44  61  90 134 178 213 268 341 401
#     4  10  22  41  61 100 130 166 226 268 322 410
#     4  11  24  40  64  96 125 166 224 280 331 400
#     4  12  20  42  64  94 130 164 226 278 332 394
#     4  10  20  41  65  84 131 169 208 269 332 389
#     4  11  19  37  66  92 123 170 209 272 336 384
#
# _framework density 20.289444
#
# number of rings (size 3 to 8) (size 9 to 14) (size 15 to 20)
#    0.000    1.455    7.273    0.000    0.000    8.000 
#   11.455    0.000    0.000    0.000    0.000    0.000 
#    0.000    0.000    0.000    0.000    0.000    0.000 
#
# Total GULP energy -122565.644468 kJ/mol
# GULP energy per Si atom -5571.165658 kJ/mol
# Density = 2.024326 g / cm^3
# Si number density = 20.289444 Si / 1000 Ang^3
#
#
#
# Elastic Constant Matrix: (Units=GPa)
#
#
# Indices 1 2 3 4 5 6 
#
# 1 96.0658 17.8872 34.8964 0.0000 -23.2913 0.0000
# 2 17.8872 103.3832 30.9599 0.0000 -4.1226 0.0000
# 3 34.8964 30.9599 140.6886 0.0000 -35.8026 0.0000
# 4 0.0000 0.0000 0.0000 14.0650 0.0000 -2.3036
# 5 -23.2913 -4.1226 -35.8026 0.0000 40.0966 0.0000
# 6 0.0000 0.0000 0.0000 -2.3036 0.0000 23.6685
#
#
#
# Elastic Compliance Matrix: (Units=1/GPa)
#
#
# Indices 1 2 3 4 5 6 
#
# 1 0.012623 -0.001570 -0.001243 0.000000 0.006061 0.000000
# 2 -0.001570 0.010600 -0.002456 0.000000 -0.002015 0.000000
# 3 -0.001243 -0.002456 0.009975 0.000000 0.007932 0.000000
# 4 0.000000 0.000000 0.000000 0.072250 0.000000 0.007032
# 5 0.006061 -0.002015 0.007932 0.000000 0.035336 0.000000
# 6 0.000000 0.000000 0.000000 0.007032 0.000000 0.042935
#
#
# Mechanical properties :
#
#
# Convention : Reuss Voigt Hill
#
# Bulk Modulus (GPa) = 44.13112 56.40274 50.26693
# Shear Modulus (GPa) = 24.77577 32.65897 28.71737
#
# Velocity S-wave (km/s) = 3.49824 4.01640 3.76624
# Velocity P-wave (km/s) = 6.17373 7.02624 6.61373
#
# Compressibility (1/GPa) = 0.02265975
#
# Stress axis : x y z
#
# Youngs Moduli (GPa) = 79.22089 94.34402 100.24734
#
# Poissons Ratio (x) = 0.14812 0.12461
# Poissons Ratio (y) = 0.12438 0.24620
# Poissons Ratio (z) = 0.09848 0.23170
#
# Static dielectric constant tensor:
#      x y z
#    x 1.822300 0.000000 -0.026540 
#    y 0.000000 1.711300 0.000000 
#    z -0.026540 0.000000 1.783420 
# 
# From -- ./inp_files/129963.got.cif
#   From: 2010.05.17/outbox.cif.g08.bks.cpg/sg15_65_cif.got.tgz:129963.got - 2010.06.03 18:47:42.
