data_PCOD9277758
_publ_section_title
;
Structure prediction by ZEFSAII (Michael W. Deem and Ramdas Pophale) SiO2 
 PCOD9277758
Probable space group: C 2/C
;
_chemical_formula_sum "Si O2"
_cell_formula_units_Z 48
_cell_length_a 13.820551
_cell_length_b 12.254067
_cell_length_c 29.010247
_cell_angle_alpha 90.000000
_cell_angle_beta 27.250592
_cell_angle_gamma 90.000000
_cell_volume 2249.632876
_symmetry_space_group_name_H-M "C 2/C"
_symmetry_group_IT_number 15
_symmetry_cell_setting 'monoclinic'
loop_
_space_group_symop_operation_xyz
x,y,z
-x,y,1/2-z
-x,-y,-z
x,-y,1/2+z
1/2+x,1/2+y,z
1/2-x,1/2+y,1/2-z
1/2-x,1/2-y,-z
1/2+x,1/2-y,1/2+z
loop_
_atom_site_type_symbol
_atom_site_label
_atom_site_fract_x
_atom_site_fract_y
_atom_site_fract_z
Si Si1 0.448995 0.328822 0.927304
Si Si2 0.684475 0.920531 0.904475
Si Si3 0.083938 0.090451 0.635168
Si Si4 0.239587 0.551149 0.272677
Si Si5 0.245731 0.557493 0.037675
Si Si6 0.875514 0.235970 0.054669
O O1 0.600434 0.367881 0.821621
O O2 0.607292 0.283690 0.898694
O O3 0.250000 0.250000 0.000000
O O4 0.342307 0.436844 0.994529
O O5 0.712219 0.926866 0.838430
O O6 0.865892 0.977984 0.857731
O O7 0.595472 0.800745 0.952066
O O8 0.500000 0.000000 0.000000
O O9 0.204183 0.100589 0.535445
O O10 0.176546 0.186998 0.626387
O O11 0.839741 0.071042 0.726850
O O12 0.006449 0.556278 0.349833
O O13 0.351411 0.631645 0.032046
#
# Coordination Sequence:
#
# PCOD9277758 Si02
#       6
#     8   8   8   8   8   8
#     4  11  27  47  68 100 145 186 237 297 353 429
#     4  10  20  41  68  99 133 173 235 299 343 408
#     4  10  22  40  70 100 133 174 238 296 343 417
#     4  11  23  42  68 101 137 178 232 287 357 414
#     4  11  23  44  66  98 142 178 230 295 353 433
#     4  11  22  43  70  95 137 187 227 292 360 417
#
# _framework density 21.336815000000001
#
# number of rings (size 3 to 8) (size 9 to 14) (size 15 to 20)
#    0.000    1.333    3.333    3.500    2.333    2.000 
#    9.000    0.000    0.000    0.000    0.000    0.000 
#    0.000    0.000    0.000    0.000    0.000    0.000 
#
# Total GULP energy -133851.916587 kJ/mol
# GULP energy per Si atom -5577.163191 kJ/mol
# Density = 2.128825 g / cm^3
# Si number density = 21.336815 Si / 1000 Ang^3
#
#
#
# Elastic Constant Matrix: (Units=GPa)
#
#
# Indices 1 2 3 4 5 6 
#
# 1 111.1479 51.6665 25.1074 -0.0003 0.9971 -0.0005
# 2 51.6665 97.7670 33.4351 -0.0003 8.1742 -0.0001
# 3 25.1074 33.4351 95.3448 0.0027 5.5088 -0.0029
# 4 -0.0003 -0.0003 0.0027 9.9643 -0.0054 -0.0359
# 5 0.9971 8.1742 5.5088 -0.0054 10.6831 -0.0003
# 6 -0.0005 -0.0001 -0.0029 -0.0359 -0.0003 50.7275
#
#
#
# Elastic Compliance Matrix: (Units=1/GPa)
#
#
# Indices 1 2 3 4 5 6 
#
# 1 0.012209 -0.006401 -0.001224 0.000003 0.004389 0.000000
# 2 -0.006401 0.015509 -0.003197 -0.000004 -0.009620 0.000000
# 3 -0.001224 -0.003197 0.012146 -0.000005 -0.003702 0.000001
# 4 0.000003 -0.000004 -0.000005 0.100358 0.000056 0.000071
# 5 0.004389 -0.009620 -0.003702 0.000056 0.102466 0.000000
# 6 0.000000 0.000000 0.000001 0.000071 0.000000 0.019713
#
#
# Mechanical properties :
#
#
# Convention : Reuss Voigt Hill
#
# Bulk Modulus (GPa) = 54.88514 58.29753 56.59134
# Shear Modulus (GPa) = 17.23431 27.21169 22.22300
#
# Velocity S-wave (km/s) = 2.84514 3.57506 3.23078
# Velocity P-wave (km/s) = 6.04749 6.66508 6.36378
#
# Compressibility (1/GPa) = 0.01821987
#
# Stress axis : x y z
#
# Youngs Moduli (GPa) = 81.90361 64.48015 82.33357
#
# Poissons Ratio (x) = 0.41271 0.10079
# Poissons Ratio (y) = 0.52423 0.26324
# Poissons Ratio (z) = 0.10027 0.20615
#
# Static dielectric constant tensor:
#      x y z
#    x 1.935360 0.000000 -0.017410 
#    y 0.000000 1.824150 0.000000 
#    z -0.017410 0.000000 1.889570 
# 
# From -- ./inp_files/313520.got.cif
#   From: 2010.05.17/outbox.cif.g08.bks.cpg/sg15_157_cif.got.tgz:313520.got - 2010.06.03 18:47:42.
