data_PCOD9277882
_publ_section_title
;
Structure prediction by ZEFSAII (Michael W. Deem and Ramdas Pophale) SiO2 
 PCOD9277882
Probable space group: C 2/C
;
_chemical_formula_sum "Si O2"
_cell_formula_units_Z 52
_cell_length_a 9.360637
_cell_length_b 27.565241
_cell_length_c 13.991030
_cell_angle_alpha 90.000000
_cell_angle_beta 134.420503
_cell_angle_gamma 90.000000
_cell_volume 2578.399860
_symmetry_space_group_name_H-M "C 2/C"
_symmetry_group_IT_number 15
_symmetry_cell_setting 'monoclinic'
loop_
_space_group_symop_operation_xyz
x,y,z
-x,y,1/2-z
-x,-y,-z
x,-y,1/2+z
1/2+x,1/2+y,z
1/2-x,1/2+y,1/2-z
1/2-x,1/2-y,-z
1/2+x,1/2-y,1/2+z
loop_
_atom_site_type_symbol
_atom_site_label
_atom_site_fract_x
_atom_site_fract_y
_atom_site_fract_z
Si Si1 0.633553 0.137045 0.904326
Si Si2 0.282818 0.033290 0.604467
Si Si3 0.500000 0.296138 0.750000
Si Si4 0.441127 0.814208 0.948418
Si Si5 0.002410 0.209708 0.457475
Si Si6 0.813687 0.363028 0.602267
Si Si7 0.951013 0.051226 0.611390
O O1 0.500000 0.132720 0.750000
O O2 0.709891 0.082526 0.954967
O O3 0.501568 0.159150 0.927168
O O4 0.813829 0.172957 0.963076
O O5 0.500000 0.020873 0.750000
O O6 0.144845 0.043824 0.633554
O O7 0.192433 0.992405 0.492565
O O8 0.703711 0.326186 0.835117
O O9 0.499770 0.267774 0.650912
O O10 0.571773 0.834160 0.925854
O O11 0.461693 0.756121 0.960425
O O12 0.812947 0.176837 0.396693
O O13 0.662955 0.400652 0.481174
O O14 0.000000 0.385454 0.750000
O O15 0.000000 0.051859 0.750000
#
# Coordination Sequence:
#
# PCOD9277882 Si02
#       7
#     8   8   4   8   8   8   8
#     4  10  22  40  68 100 131 170 224 277 327 387
#     4  10  23  48  71 101 136 172 215 282 333 400
#     4  10  20  42  60  90 126 172 232 272 318 390
#     4  11  25  38  67  94 134 181 226 269 332 387
#     4  11  23  41  64  96 133 180 226 272 328 388
#     4  12  25  46  65  98 140 183 220 275 335 398
#     4  11  26  48  71 104 132 172 222 274 341 402
#
# _framework density 20.167546000000002
#
# number of rings (size 3 to 8) (size 9 to 14) (size 15 to 20)
#    0.000    1.231    3.077    2.769    8.615    0.615 
#   11.077    0.000    0.000    0.000    0.000    0.000 
#    0.000    0.000    0.000    0.000    0.000    0.000 
#
# Total GULP energy -144916.186315 kJ/mol
# GULP energy per Si atom -5573.699474 kJ/mol
# Density = 2.012164 g / cm^3
# Si number density = 20.167546 Si / 1000 Ang^3
#
#
#
# Elastic Constant Matrix: (Units=GPa)
#
#
# Indices 1 2 3 4 5 6 
#
# 1 125.7037 48.2817 53.4343 0.0000 -2.0507 0.0000
# 2 48.2817 111.7525 52.0866 0.0000 -1.2368 0.0000
# 3 53.4343 52.0866 97.3057 0.0000 3.6437 0.0000
# 4 0.0000 0.0000 0.0000 7.4139 0.0000 -2.0128
# 5 -2.0507 -1.2368 3.6437 0.0000 30.7291 0.0000
# 6 0.0000 0.0000 0.0000 -2.0128 0.0000 4.9163
#
#
#
# Elastic Compliance Matrix: (Units=1/GPa)
#
#
# Indices 1 2 3 4 5 6 
#
# 1 0.010943 -0.002522 -0.004703 0.000000 0.001186 0.000000
# 2 -0.002522 0.012552 -0.005370 0.000000 0.000974 0.000000
# 3 -0.004703 -0.005370 0.015824 0.000000 -0.002406 0.000000
# 4 0.000000 0.000000 0.000000 0.151750 0.000000 0.062130
# 5 0.001186 0.000974 -0.002406 0.000000 0.032946 0.000000
# 6 0.000000 0.000000 0.000000 0.062130 0.000000 0.228843
#
#
# Mechanical properties :
#
#
# Convention : Reuss Voigt Hill
#
# Bulk Modulus (GPa) = 70.78547 71.37413 71.07980
# Shear Modulus (GPa) = 10.35715 20.67581 15.51648
#
# Velocity S-wave (km/s) = 2.26863 3.20535 2.77678
# Velocity P-wave (km/s) = 6.48361 7.01188 6.75291
#
# Compressibility (1/GPa) = 0.01412719
#
# Stress axis : x y z
#
# Youngs Moduli (GPa) = 91.38529 79.66928 63.19386
#
# Poissons Ratio (x) = 0.20096 0.29722
# Poissons Ratio (y) = 0.23051 0.33936
# Poissons Ratio (z) = 0.42981 0.42784
#
# Static dielectric constant tensor:
#      x y z
#    x 1.718350 0.000000 -0.005290 
#    y 0.000000 1.746290 0.000000 
#    z -0.005290 0.000000 1.823300 
# 
# From -- ./inp_files/138755.got.cif
#   From: 2010.05.17/outbox.cif.g08.bks.cpg/sg15_70_cif.got.tgz:138755.got - 2010.06.03 18:47:42.
