data_PCOD9277726
_publ_section_title
;
Structure prediction by ZEFSAII (Michael W. Deem and Ramdas Pophale) SiO2 
 PCOD9277726
Probable space group: C 2/C
;
_chemical_formula_sum "Si O2"
_cell_formula_units_Z 60
_cell_length_a 9.301894
_cell_length_b 17.974995
_cell_length_c 16.512975
_cell_angle_alpha 90.000000
_cell_angle_beta 118.416980
_cell_angle_gamma 90.000000
_cell_volume 2428.315290
_symmetry_space_group_name_H-M "C 2/C"
_symmetry_group_IT_number 15
_symmetry_cell_setting 'monoclinic'
loop_
_space_group_symop_operation_xyz
x,y,z
-x,y,1/2-z
-x,-y,-z
x,-y,1/2+z
1/2+x,1/2+y,z
1/2-x,1/2+y,1/2-z
1/2-x,1/2-y,-z
1/2+x,1/2-y,1/2+z
loop_
_atom_site_type_symbol
_atom_site_label
_atom_site_fract_x
_atom_site_fract_y
_atom_site_fract_z
Si Si1 0.000000 0.283561 0.750000
Si Si2 0.128168 0.087685 0.906121
Si Si3 0.873561 0.679447 0.050047
Si Si4 0.530294 0.428412 0.672706
Si Si5 0.133731 0.097331 0.533339
Si Si6 0.762108 0.329383 0.285367
Si Si7 0.095858 0.695355 0.958745
Si Si8 0.689560 0.982611 0.299843
O O1 0.906779 0.324832 0.653708
O O2 0.865363 0.236184 0.765283
O O3 0.170038 0.132587 0.836782
O O4 0.986740 0.121921 0.925931
O O5 0.075502 0.005627 0.864579
O O6 0.291327 0.102536 0.999870
O O7 0.750000 0.750000 0.000000
O O8 0.027303 0.688949 0.031207
O O9 0.500000 0.389328 0.750000
O O10 0.473183 0.389181 0.575638
O O11 0.715865 0.456135 0.726376
O O12 0.312793 0.125848 0.557014
O O13 0.193893 0.018962 0.588376
O O14 0.794825 0.398581 0.233955
O O15 0.933653 0.294388 0.360812
O O16 0.250000 0.750000 0.000000
O O17 0.500000 0.998749 0.250000
#
# Coordination Sequence:
#
# PCOD9277726 Si02
#       8
#     4   8   8   8   8   8   8   8
#     4  12  22  38  66  92 134 172 226 266 320 394
#     4  10  20  41  68  88 127 174 220 258 322 393
#     4  11  23  40  64  95 131 175 222 268 325 393
#     4  11  23  44  70  92 127 176 216 269 332 391
#     4  11  24  41  68  95 130 168 216 272 329 384
#     4  11  22  38  69  99 124 180 227 262 319 392
#     4  11  24  42  64  98 136 172 212 277 329 379
#     4  11  21  38  66 102 126 160 229 275 312 385
#
# _framework density 24.708489
#
# number of rings (size 3 to 8) (size 9 to 14) (size 15 to 20)
#    0.000    1.067    5.333    4.000    1.867    0.000 
#    2.400    8.667    1.467    0.000    0.000    0.000 
#    0.000    0.000    0.000    0.000    0.000    0.000 
#
# Total GULP energy -167286.965312 kJ/mol
# GULP energy per Si atom -5576.232177 kJ/mol
# Density = 2.465225 g / cm^3
# Si number density = 24.708489 Si / 1000 Ang^3
#
#
#
# Elastic Constant Matrix: (Units=GPa)
#
#
# Indices 1 2 3 4 5 6 
#
# 1 167.6491 13.8918 30.3017 0.0000 4.8623 0.0000
# 2 13.8918 19.0298 -0.0093 0.0000 -0.6449 0.0000
# 3 30.3017 -0.0093 119.9952 0.0000 -2.7210 0.0000
# 4 0.0000 0.0000 0.0000 23.1432 0.0000 -6.2629
# 5 4.8623 -0.6449 -2.7210 0.0000 50.8810 0.0000
# 6 0.0000 0.0000 0.0000 -6.2629 0.0000 21.4360
#
#
#
# Elastic Compliance Matrix: (Units=1/GPa)
#
#
# Indices 1 2 3 4 5 6 
#
# 1 0.006705 -0.004923 -0.001712 0.000000 -0.000795 0.000000
# 2 -0.004923 0.056186 0.001276 0.000000 0.001251 0.000000
# 3 -0.001712 0.001276 0.008781 0.000000 0.000649 0.000000
# 4 0.000000 0.000000 0.000000 0.046919 0.000000 0.013708
# 5 -0.000795 0.001251 0.000649 0.000000 0.019780 0.000000
# 6 0.000000 0.000000 0.000000 0.013708 0.000000 0.050656
#
#
# Mechanical properties :
#
#
# Convention : Reuss Voigt Hill
#
# Bulk Modulus (GPa) = 16.40559 43.89361 30.14960
# Shear Modulus (GPa) = 22.72092 36.59135 29.65614
#
# Velocity S-wave (km/s) = 3.03571 3.85245 3.46821
# Velocity P-wave (km/s) = 4.35218 6.13120 5.31663
#
# Compressibility (1/GPa) = 0.06095482
#
# Stress axis : x y z
#
# Youngs Moduli (GPa) = 149.13919 17.79812 113.88596
#
# Poissons Ratio (x) = 0.08761 0.19493
# Poissons Ratio (y) = 0.73414 -0.14529
# Poissons Ratio (z) = 0.25527 -0.02271
#
# Static dielectric constant tensor:
#      x y z
#    x 2.153030 0.000000 -0.081180 
#    y 0.000000 2.178400 0.000000 
#    z -0.081180 0.000000 2.053630 
# 
# From -- ./inp_files/193281.got.cif
#   From: 2010.05.17/outbox.cif.g08.bks.cpg/sg15_97_cif.got.tgz:193281.got - 2010.06.03 18:47:42.
