data_PCOD9277571
_publ_section_title
;
Structure prediction by ZEFSAII (Michael W. Deem and Ramdas Pophale) SiO2 
 PCOD9277571
Probable space group: C 2/C
;
_chemical_formula_sum "Si O2"
_cell_formula_units_Z 56
_cell_length_a 7.837067
_cell_length_b 22.299737
_cell_length_c 16.829520
_cell_angle_alpha 90.000000
_cell_angle_beta 120.553650
_cell_angle_gamma 90.000000
_cell_volume 2532.827548
_symmetry_space_group_name_H-M "C 2/C"
_symmetry_group_IT_number 15
_symmetry_cell_setting 'monoclinic'
loop_
_space_group_symop_operation_xyz
x,y,z
-x,y,1/2-z
-x,-y,-z
x,-y,1/2+z
1/2+x,1/2+y,z
1/2-x,1/2+y,1/2-z
1/2-x,1/2-y,-z
1/2+x,1/2-y,1/2+z
loop_
_atom_site_type_symbol
_atom_site_label
_atom_site_fract_x
_atom_site_fract_y
_atom_site_fract_z
Si Si1 0.000000 0.663989 0.250000
Si Si2 0.000000 0.696896 0.750000
Si Si3 0.220641 0.872440 0.307743
Si Si4 0.458271 0.028592 0.576259
Si Si5 0.285813 0.947581 0.765417
Si Si6 0.102459 0.215246 0.407278
Si Si7 0.796003 0.247524 0.602420
Si Si8 0.608931 0.570787 0.399623
O O1 0.840211 0.617413 0.244838
O O2 0.968661 0.708338 0.168975
O O3 0.163822 0.657040 0.741015
O O4 0.115313 0.743591 0.832838
O O5 0.386547 0.917013 0.379831
O O6 0.176756 0.818997 0.359003
O O7 0.000000 0.901634 0.250000
O O8 0.232629 0.049558 0.506502
O O9 0.500000 0.000000 0.500000
O O10 0.517851 0.987452 0.666683
O O11 0.204110 0.943062 0.835892
O O12 0.104167 0.962224 0.662613
O O13 0.250000 0.250000 0.500000
O O14 0.120925 0.143732 0.404928
O O15 0.886081 0.226013 0.391576
O O16 0.750000 0.250000 0.500000
#
# Coordination Sequence:
#
# PCOD9277571 Si02
#       8
#     4   4   8   8   8   8   8   8
#     4  12  24  45  64 104 139 176 234 294 358 422
#     4  10  24  43  64 106 145 180 232 284 356 440
#     4  11  25  44  71 102 143 189 229 300 363 420
#     4  10  24  43  68  97 132 183 241 288 345 425
#     4  10  23  40  69  90 133 181 229 287 342 414
#     4  11  23  38  68  99 135 179 221 279 354 426
#     4  11  26  41  66 104 142 175 225 288 363 434
#     4  10  20  41  65  94 126 175 225 276 338 408
#
# _framework density 22.109677000000001
#
# number of rings (size 3 to 8) (size 9 to 14) (size 15 to 20)
#    0.000    1.429    2.143    2.571   14.000    0.571 
#    0.000    0.714    0.000    0.000    0.000    0.000 
#    0.000    0.000    0.000    0.000    0.000    0.000 
#
# Total GULP energy -155924.172473 kJ/mol
# GULP energy per Si atom -5568.720445 kJ/mol
# Density = 2.205935 g / cm^3
# Si number density = 22.109677 Si / 1000 Ang^3
#
#
#
# Elastic Constant Matrix: (Units=GPa)
#
#
# Indices 1 2 3 4 5 6 
#
# 1 54.3015 12.6004 29.1709 0.0000 7.9935 0.0000
# 2 12.6004 90.7700 66.3877 0.0000 10.2992 0.0000
# 3 29.1709 66.3877 189.2700 0.0000 27.3652 0.0000
# 4 0.0000 0.0000 0.0000 39.7058 0.0000 15.1527
# 5 7.9935 10.2992 27.3652 0.0000 31.3469 0.0000
# 6 0.0000 0.0000 0.0000 15.1527 0.0000 12.7754
#
#
#
# Elastic Compliance Matrix: (Units=1/GPa)
#
#
# Indices 1 2 3 4 5 6 
#
# 1 0.020322 -0.000684 -0.002489 0.000000 -0.002784 0.000000
# 2 -0.000684 0.014845 -0.005060 0.000000 -0.000285 0.000000
# 3 -0.002489 -0.005060 0.008137 0.000000 -0.004806 0.000000
# 4 0.000000 0.000000 0.000000 0.046012 0.000000 -0.054574
# 5 -0.002784 -0.000285 -0.004806 0.000000 0.036900 0.000000
# 6 0.000000 0.000000 0.000000 -0.054574 0.000000 0.143005
#
#
# Mechanical properties :
#
#
# Convention : Reuss Voigt Hill
#
# Bulk Modulus (GPa) = 37.26401 61.18438 49.22419
# Shear Modulus (GPa) = 16.97015 31.84446 24.40731
#
# Velocity S-wave (km/s) = 2.77346 3.79924 3.32613
# Velocity P-wave (km/s) = 5.21027 6.85411 6.08793
#
# Compressibility (1/GPa) = 0.02683555
#
# Stress axis : x y z
#
# Youngs Moduli (GPa) = 49.20857 67.36148 122.89611
#
# Poissons Ratio (x) = 0.04610 0.30595
# Poissons Ratio (y) = 0.03368 0.62190
# Poissons Ratio (z) = 0.12250 0.34087
#
# Static dielectric constant tensor:
#      x y z
#    x 1.868570 0.000000 0.136750 
#    y 0.000000 1.765060 0.000000 
#    z 0.136750 0.000000 1.495190 
# 
# From -- ./inp_files/193360.got.cif
#   From: 2010.05.17/outbox.cif.g08.bks.cpg/sg15_97_cif.got.tgz:193360.got - 2010.06.03 18:47:42.
