data_PCOD9277261
_publ_section_title
;
Structure prediction by ZEFSAII (Michael W. Deem and Ramdas Pophale) SiO2 
 PCOD9277261
Probable space group: C 2/C
;
_chemical_formula_sum "Si O2"
_cell_formula_units_Z 44
_cell_length_a 8.652891
_cell_length_b 30.102646
_cell_length_c 7.588211
_cell_angle_alpha 90.000000
_cell_angle_beta 101.477038
_cell_angle_gamma 90.000000
_cell_volume 1937.016784
_symmetry_space_group_name_H-M "C 2/C"
_symmetry_group_IT_number 15
_symmetry_cell_setting 'monoclinic'
loop_
_space_group_symop_operation_xyz
x,y,z
-x,y,1/2-z
-x,-y,-z
x,-y,1/2+z
1/2+x,1/2+y,z
1/2-x,1/2+y,1/2-z
1/2-x,1/2-y,-z
1/2+x,1/2-y,1/2+z
loop_
_atom_site_type_symbol
_atom_site_label
_atom_site_fract_x
_atom_site_fract_y
_atom_site_fract_z
Si Si1 0.500000 0.605526 0.250000
Si Si2 0.680927 0.686597 0.839464
Si Si3 0.674060 0.140459 0.128588
Si Si4 0.684228 0.276135 0.739406
Si Si5 0.137592 0.396723 0.020549
Si Si6 0.409919 0.544259 0.550856
O O1 0.356564 0.631615 0.131415
O O2 0.436808 0.576366 0.394010
O O3 0.500000 0.682341 0.750000
O O4 0.763324 0.725171 0.746301
O O5 0.764532 0.639068 0.845535
O O6 0.690506 0.704162 0.042553
O O7 0.678936 0.193992 0.133632
O O8 0.652484 0.121713 0.322829
O O9 0.547589 0.112788 0.987048
O O10 0.500000 0.279653 0.750000
O O11 0.222802 0.445079 0.049061
O O12 0.500000 0.555808 0.750000
O O13 0.500000 0.500000 0.500000
#
# Coordination Sequence:
#
# PCOD9277261 Si02
#       6
#     4   8   8   8   8   8
#     4  10  20  40  70  96 122 176 212 258 332 394
#     4  10  22  37  56  85 125 165 212 268 326 365
#     4   9  18  37  64  88 122 171 221 251 317 390
#     4  10  21  36  58  87 118 171 221 267 305 377
#     4   9  20  38  61  89 127 167 206 270 325 381
#     4  11  22  41  70  98 128 164 213 269 332 402
#
# _framework density 22.715344999999999
#
# number of rings (size 3 to 8) (size 9 to 14) (size 15 to 20)
#    0.000    2.182    1.818    0.545    7.636    0.727 
#    0.000    1.818    4.000    0.000    0.000    0.000 
#    0.000    0.000    0.000    0.000    0.000    0.000 
#
# Total GULP energy -122523.382441 kJ/mol
# GULP energy per Si atom -5569.244656 kJ/mol
# Density = 2.266364 g / cm^3
# Si number density = 22.715345 Si / 1000 Ang^3
#
#
#
# Elastic Constant Matrix: (Units=GPa)
#
#
# Indices 1 2 3 4 5 6 
#
# 1 119.6685 50.1880 24.0357 0.0000 40.1343 0.0000
# 2 50.1880 96.9230 19.5338 0.0000 26.1938 0.0000
# 3 24.0357 19.5338 82.8601 0.0000 18.3461 0.0000
# 4 0.0000 0.0000 0.0000 -4.4161 0.0000 39.6390
# 5 40.1343 26.1938 18.3461 0.0000 48.4505 0.0000
# 6 0.0000 0.0000 0.0000 39.6390 0.0000 -156.8969
#
#
#
# Elastic Compliance Matrix: (Units=1/GPa)
#
#
# Indices 1 2 3 4 5 6 
#
# 1 0.013122 -0.004405 -0.000970 0.000000 -0.008121 0.000000
# 2 -0.004405 0.013742 -0.001228 0.000000 -0.003316 0.000000
# 3 -0.000970 -0.001228 0.013441 0.000000 -0.003622 0.000000
# 4 0.000000 0.000000 0.000000 0.178621 0.000000 0.045127
# 5 -0.008121 -0.003316 -0.003622 0.000000 0.030531 0.000000
# 6 0.000000 0.000000 0.000000 0.045127 0.000000 0.005028
#
#
# Mechanical properties :
#
#
# Convention : Reuss Voigt Hill
#
# Bulk Modulus (GPa) = 36.89916 54.10739 45.50327
# Shear Modulus (GPa) = 18.06862 -8.85955 4.60453
#
# Velocity S-wave (km/s) = 2.82341 -1.97705 1.42529
# Velocity P-wave (km/s) = 5.18732 4.31970 4.77326
#
# Compressibility (1/GPa) = 0.02710089
#
# Stress axis : x y z
#
# Youngs Moduli (GPa) = 76.20686 72.77103 74.39719
#
# Poissons Ratio (x) = 0.32052 0.07216
# Poissons Ratio (y) = 0.33565 0.09134
# Poissons Ratio (z) = 0.07392 0.08934
#
# Static dielectric constant tensor:
#      x y z
#    x 2.027750 0.000000 -0.025130 
#    y 0.000000 1.968110 0.000000 
#    z -0.025130 0.000000 1.871870 
# 
# From -- ./inp_files/26225.got.cif
#   From: 2010.05.17/outbox.cif.g08.bks.cpg/sg15_14_cif.got.tgz:26225.got - 2010.06.03 18:47:42.
