data_PCOD9277768
_publ_section_title
;
Structure prediction by ZEFSAII (Michael W. Deem and Ramdas Pophale) SiO2 
 PCOD9277768
Probable space group: C 2/C
;
_chemical_formula_sum "Si O2"
_cell_formula_units_Z 32
_cell_length_a 20.145010
_cell_length_b 9.920299
_cell_length_c 10.193832
_cell_angle_alpha 90.000000
_cell_angle_beta 42.701182
_cell_angle_gamma 90.000000
_cell_volume 1381.565212
_symmetry_space_group_name_H-M "C 2/C"
_symmetry_group_IT_number 15
_symmetry_cell_setting 'monoclinic'
loop_
_space_group_symop_operation_xyz
x,y,z
-x,y,1/2-z
-x,-y,-z
x,-y,1/2+z
1/2+x,1/2+y,z
1/2-x,1/2+y,1/2-z
1/2-x,1/2-y,-z
1/2+x,1/2-y,1/2+z
loop_
_atom_site_type_symbol
_atom_site_label
_atom_site_fract_x
_atom_site_fract_y
_atom_site_fract_z
Si Si1 0.663069 0.732834 0.234271
Si Si2 0.261354 0.836502 0.851564
Si Si3 0.899407 0.949127 0.877706
Si Si4 0.463495 0.169920 0.934838
O O1 0.712327 0.742132 0.301885
O O2 0.564397 0.818964 0.367221
O O3 0.750000 0.750000 0.000000
O O4 0.617822 0.590502 0.249453
O O5 0.372332 0.873591 0.653513
O O6 0.196310 0.970495 0.947929
O O7 0.250000 0.750000 0.000000
O O8 0.921549 0.814278 0.933499
O O9 0.000000 0.031560 0.750000
O O10 0.500000 0.094143 0.750000
#
# Coordination Sequence:
#
# PCOD9277768 Si02
#       4
#     8   8   8   8
#     4  10  20  41  69  86 130 172 208 259 323 382
#     4  12  25  36  64 103 131 154 226 272 312 370
#     4   9  22  40  66  95 123 169 217 261 320 374
#     4   9  20  43  65  93 120 177 214 246 332 381
#
# _framework density 23.162136
#
# number of rings (size 3 to 8) (size 9 to 14) (size 15 to 20)
#    0.000    2.500    5.000    0.000    7.000    2.000 
#    0.000    1.250    0.000    1.500    0.000    0.000 
#    0.000    0.000    0.000    0.000    0.000    0.000 
#
# Total GULP energy -89080.396939 kJ/mol
# GULP energy per Si atom -5567.524809 kJ/mol
# Density = 2.310942 g / cm^3
# Si number density = 23.162136 Si / 1000 Ang^3
#
#
#
# Elastic Constant Matrix: (Units=GPa)
#
#
# Indices 1 2 3 4 5 6 
#
# 1 195.5201 18.1910 84.2586 0.0000 -8.5386 0.0000
# 2 18.1910 43.5877 30.2588 0.0000 -0.8899 0.0000
# 3 84.2586 30.2588 219.9707 0.0000 -34.8227 0.0000
# 4 0.0000 0.0000 0.0000 31.2463 0.0000 -8.8930
# 5 -8.5386 -0.8899 -34.8227 0.0000 48.5952 0.0000
# 6 0.0000 0.0000 0.0000 -8.8930 0.0000 18.3248
#
#
#
# Elastic Compliance Matrix: (Units=1/GPa)
#
#
# Indices 1 2 3 4 5 6 
#
# 1 0.006183 -0.000976 -0.002329 0.000000 -0.000601 0.000000
# 2 -0.000976 0.025748 -0.003520 0.000000 -0.002222 0.000000
# 3 -0.002329 -0.003520 0.006596 0.000000 0.004253 0.000000
# 4 0.000000 0.000000 0.000000 0.037133 0.000000 0.018020
# 5 -0.000601 -0.002222 0.004253 0.000000 0.023479 0.000000
# 6 0.000000 0.000000 0.000000 0.018020 0.000000 0.063316
#
#
# Mechanical properties :
#
#
# Convention : Reuss Voigt Hill
#
# Bulk Modulus (GPa) = 40.19837 80.49948 60.34893
# Shear Modulus (GPa) = 27.11563 41.39127 34.25345
#
# Velocity S-wave (km/s) = 3.42524 4.23191 3.84976
# Velocity P-wave (km/s) = 5.74769 7.66217 6.77292
#
# Compressibility (1/GPa) = 0.02487663
#
# Stress axis : x y z
#
# Youngs Moduli (GPa) = 161.73736 38.83862 151.61541
#
# Poissons Ratio (x) = 0.03790 0.35314
# Poissons Ratio (y) = 0.15781 0.53366
# Poissons Ratio (z) = 0.37671 0.13671
#
# Static dielectric constant tensor:
#      x y z
#    x 1.893470 0.000000 0.031940 
#    y 0.000000 2.063570 0.000000 
#    z 0.031940 0.000000 2.005800 
# 
# From -- ./inp_files/112220.got.cif
#   From: 2010.05.17/outbox.cif.g08.bks.cpg/sg15_57_cif.got.tgz:112220.got - 2010.06.03 18:47:42.
