data_PCOD9277973
_publ_section_title
;
Structure prediction by ZEFSAII (Michael W. Deem and Ramdas Pophale) SiO2 
 PCOD9277973
Probable space group: C 2/C
;
_chemical_formula_sum "Si O2"
_cell_formula_units_Z 48
_cell_length_a 25.246609
_cell_length_b 5.146699
_cell_length_c 17.049936
_cell_angle_alpha 90.000000
_cell_angle_beta 104.666346
_cell_angle_gamma 90.000000
_cell_volume 2143.226786
_symmetry_space_group_name_H-M "C 2/C"
_symmetry_group_IT_number 15
_symmetry_cell_setting 'monoclinic'
loop_
_space_group_symop_operation_xyz
x,y,z
-x,y,1/2-z
-x,-y,-z
x,-y,1/2+z
1/2+x,1/2+y,z
1/2-x,1/2+y,1/2-z
1/2-x,1/2-y,-z
1/2+x,1/2-y,1/2+z
loop_
_atom_site_type_symbol
_atom_site_label
_atom_site_fract_x
_atom_site_fract_y
_atom_site_fract_z
Si Si1 0.718413 0.495165 0.217142
Si Si2 0.382735 0.703221 0.217728
Si Si3 0.384256 0.201160 0.114470
Si Si4 0.051207 0.726074 0.607014
Si Si5 0.850110 0.028480 0.458089
Si Si6 0.438806 0.851815 0.022424
O O1 0.734383 0.206895 0.250163
O O2 0.668431 0.602879 0.250460
O O3 0.699731 0.492897 0.119484
O O4 0.397750 0.459859 0.168326
O O5 0.430829 0.773140 0.296746
O O6 0.367975 0.963944 0.164696
O O7 0.434764 0.087500 0.082817
O O8 0.341731 0.290277 0.030474
O O9 0.099419 0.867132 0.576764
O O10 0.051104 0.448609 0.562213
O O11 0.989532 0.821771 0.569401
O O12 0.878426 0.769412 0.501156
#
# Coordination Sequence:
#
# PCOD9277973 Si02
#       6
#     8   8   8   8   8   8
#     4  11  26  45  73  97 119 165 226 276 330 391
#     4  11  24  44  65  96 137 166 214 273 327 379
#     4  11  23  42  64  95 139 173 202 261 334 385
#     4   9  22  37  68  97 130 179 226 263 306 381
#     4  10  22  42  70  90 139 167 221 267 326 381
#     4  10  20  42  64 100 129 182 220 259 315 393
#
# _framework density 22.396134
#
# number of rings (size 3 to 8) (size 9 to 14) (size 15 to 20)
#    0.000    1.667    1.667    1.500   11.667    0.667 
#    3.000    5.000    0.000    0.000    0.000    0.000 
#    0.000    0.000    0.000    0.000    0.000    0.000 
#
# Total GULP energy -133922.041532 kJ/mol
# GULP energy per Si atom -5580.085064 kJ/mol
# Density = 2.234516 g / cm^3
# Si number density = 22.396134 Si / 1000 Ang^3
#
#
#
# Elastic Constant Matrix: (Units=GPa)
#
#
# Indices 1 2 3 4 5 6 
#
# 1 25.8092 7.3784 26.0541 0.0000 -2.2781 0.0000
# 2 7.3784 93.6247 49.4548 0.0000 -9.8047 0.0000
# 3 26.0541 49.4548 173.2493 0.0000 -2.5742 0.0000
# 4 0.0000 0.0000 0.0000 32.5459 0.0000 -7.7769
# 5 -2.2781 -9.8047 -2.5742 0.0000 29.4512 0.0000
# 6 0.0000 0.0000 0.0000 -7.7769 0.0000 36.2001
#
#
#
# Elastic Compliance Matrix: (Units=1/GPa)
#
#
# Indices 1 2 3 4 5 6 
#
# 1 0.045947 0.000385 -0.006974 0.000000 0.003073 0.000000
# 2 0.000385 0.013039 -0.003720 0.000000 0.004046 0.000000
# 3 -0.006974 -0.003720 0.007866 0.000000 -0.001090 0.000000
# 4 0.000000 0.000000 0.000000 0.032388 0.000000 0.006958
# 5 0.003073 0.004046 -0.001090 0.000000 0.035444 0.000000
# 6 0.000000 0.000000 0.000000 0.006958 0.000000 0.029119
#
#
# Mechanical properties :
#
#
# Convention : Reuss Voigt Hill
#
# Bulk Modulus (GPa) = 21.62892 50.93977 36.28435
# Shear Modulus (GPa) = 25.02080 33.62582 29.32331
#
# Velocity S-wave (km/s) = 3.34607 3.87901 3.62235
# Velocity P-wave (km/s) = 4.96051 6.54649 5.80789
#
# Compressibility (1/GPa) = 0.04623438
#
# Stress axis : x y z
#
# Youngs Moduli (GPa) = 21.76415 76.69182 127.12241
#
# Poissons Ratio (x) = -0.02949 0.88653
# Poissons Ratio (y) = -0.00837 0.47287
# Poissons Ratio (z) = 0.15178 0.28528
#
# Static dielectric constant tensor:
#      x y z
#    x 1.879280 0.000000 -0.012860 
#    y 0.000000 1.914170 0.000000 
#    z -0.012860 0.000000 1.836470 
# 
# From -- ./inp_files/220999.got.cif
#   From: 2010.05.17/outbox.cif.g08.bks.cpg/sg15_111_cif.got.tgz:220999.got - 2010.06.03 18:47:42.
