data_PCOD9277716
_publ_section_title
;
Structure prediction by ZEFSAII (Michael W. Deem and Ramdas Pophale) SiO2 
 PCOD9277716
Probable space group: C 2/C
;
_chemical_formula_sum "Si O2"
_cell_formula_units_Z 60
_cell_length_a 9.035690
_cell_length_b 16.488733
_cell_length_c 20.157769
_cell_angle_alpha 90.000000
_cell_angle_beta 58.165545
_cell_angle_gamma 90.000000
_cell_volume 2551.485650
_symmetry_space_group_name_H-M "C 2/C"
_symmetry_group_IT_number 15
_symmetry_cell_setting 'monoclinic'
loop_
_space_group_symop_operation_xyz
x,y,z
-x,y,1/2-z
-x,-y,-z
x,-y,1/2+z
1/2+x,1/2+y,z
1/2-x,1/2+y,1/2-z
1/2-x,1/2-y,-z
1/2+x,1/2-y,1/2+z
loop_
_atom_site_type_symbol
_atom_site_label
_atom_site_fract_x
_atom_site_fract_y
_atom_site_fract_z
Si Si1 0.448289 0.654960 0.403921
Si Si2 0.500000 0.746539 0.250000
Si Si3 0.795174 0.875679 0.213928
Si Si4 0.499420 0.137130 0.156485
Si Si5 0.203133 0.255510 0.434304
Si Si6 0.821964 0.091272 0.861926
Si Si7 0.734499 0.949801 0.683436
Si Si8 0.638555 0.066092 0.441213
O O1 0.466044 0.697420 0.326802
O O2 0.541549 0.708892 0.438823
O O3 0.569189 0.575564 0.372073
O O4 0.253391 0.622673 0.462502
O O5 0.673377 0.801931 0.220422
O O6 0.815262 0.879021 0.288054
O O7 0.997134 0.885110 0.144464
O O8 0.707918 0.960115 0.213834
O O9 0.618683 0.216288 0.139829
O O10 0.348820 0.115104 0.244713
O O11 0.636145 0.064658 0.137886
O O12 0.428729 0.125596 0.100260
O O13 0.250000 0.250000 0.500000
O O14 0.179206 0.350387 0.427674
O O15 0.776457 0.997108 0.874308
O O16 0.500000 0.000000 0.500000
#
# Coordination Sequence:
#
# PCOD9277716 Si02
#       8
#     8   4   8   8   8   8   8   8
#     4  11  25  44  70 104 133 183 236 288 352 410
#     4  12  24  40  72 110 144 162 232 290 356 408
#     4  11  23  40  68 105 141 171 213 299 354 411
#     4  10  22  38  71  97 131 178 228 274 353 403
#     4  11  25  48  65  97 145 189 230 277 338 426
#     4  11  24  43  66 100 137 179 225 282 361 399
#     4  10  20  41  68 101 136 168 226 294 347 411
#     4  12  25  46  68  95 134 185 238 283 329 419
#
# _framework density 23.515711
#
# number of rings (size 3 to 8) (size 9 to 14) (size 15 to 20)
#    0.000    1.067    4.000    2.400    3.733    1.067 
#    2.400    4.667    0.000    0.000    0.000    0.000 
#    0.000    0.000    0.000    0.000    0.000    0.000 
#
# Total GULP energy -167366.263322 kJ/mol
# GULP energy per Si atom -5578.875444 kJ/mol
# Density = 2.346219 g / cm^3
# Si number density = 23.515711 Si / 1000 Ang^3
#
#
#
# Elastic Constant Matrix: (Units=GPa)
#
#
# Indices 1 2 3 4 5 6 
#
# 1 153.1247 31.9358 12.4770 0.0000 -2.2392 0.0000
# 2 31.9358 98.3161 -4.2250 0.0000 5.1450 0.0000
# 3 12.4770 -4.2250 23.2496 0.0000 2.5672 0.0000
# 4 0.0000 0.0000 0.0000 28.3370 0.0000 -7.5622
# 5 -2.2392 5.1450 2.5672 0.0000 34.7292 0.0000
# 6 0.0000 0.0000 0.0000 -7.5622 0.0000 32.5695
#
#
#
# Elastic Compliance Matrix: (Units=1/GPa)
#
#
# Indices 1 2 3 4 5 6 
#
# 1 0.007489 -0.002696 -0.004645 0.000000 0.001226 0.000000
# 2 -0.002696 0.011319 0.003739 0.000000 -0.002127 0.000000
# 3 -0.004645 0.003739 0.046658 0.000000 -0.004302 0.000000
# 4 0.000000 0.000000 0.000000 0.037621 0.000000 0.008735
# 5 0.001226 -0.002127 -0.004302 0.000000 0.029506 0.000000
# 6 0.000000 0.000000 0.000000 0.008735 0.000000 0.032732
#
#
# Mechanical properties :
#
#
# Convention : Reuss Voigt Hill
#
# Bulk Modulus (GPa) = 17.16362 39.45176 28.30769
# Shear Modulus (GPa) = 26.04834 34.76066 30.40450
#
# Velocity S-wave (km/s) = 3.33182 3.84889 3.59965
# Velocity P-wave (km/s) = 4.70277 6.04691 5.41670
#
# Compressibility (1/GPa) = 0.05826275
#
# Stress axis : x y z
#
# Youngs Moduli (GPa) = 133.52243 88.34573 21.43235
#
# Poissons Ratio (x) = 0.23822 0.09954
# Poissons Ratio (y) = 0.36004 -0.08013
# Poissons Ratio (z) = 0.62015 -0.33032
#
# Static dielectric constant tensor:
#      x y z
#    x 1.974090 0.000000 -0.103720 
#    y 0.000000 1.858930 0.000000 
#    z -0.103720 0.000000 2.209790 
# 
# From -- ./inp_files/233044.got.cif
#   From: 2010.05.17/outbox.cif.g08.bks.cpg/sg15_117_cif.got.tgz:233044.got - 2010.06.03 18:47:42.
