data_PCOD9277460
_publ_section_title
;
Structure prediction by ZEFSAII (Michael W. Deem and Ramdas Pophale) SiO2 
 PCOD9277460
Probable space group: C 2/C
;
_chemical_formula_sum "Si O2"
_cell_formula_units_Z 56
_cell_length_a 14.184296
_cell_length_b 17.931508
_cell_length_c 11.940028
_cell_angle_alpha 90.000000
_cell_angle_beta 60.662847
_cell_angle_gamma 90.000000
_cell_volume 2647.419567
_symmetry_space_group_name_H-M "C 2/C"
_symmetry_group_IT_number 15
_symmetry_cell_setting 'monoclinic'
loop_
_space_group_symop_operation_xyz
x,y,z
-x,y,1/2-z
-x,-y,-z
x,-y,1/2+z
1/2+x,1/2+y,z
1/2-x,1/2+y,1/2-z
1/2-x,1/2-y,-z
1/2+x,1/2-y,1/2+z
loop_
_atom_site_type_symbol
_atom_site_label
_atom_site_fract_x
_atom_site_fract_y
_atom_site_fract_z
Si Si1 0.436442 0.937605 0.173812
Si Si2 0.318582 0.214316 0.060188
Si Si3 0.817705 0.915605 0.373999
Si Si4 0.291677 0.200887 0.693478
Si Si5 0.988634 0.796654 0.623790
Si Si6 0.339647 0.951755 0.584575
Si Si7 0.514381 0.577610 0.929434
O O1 0.500000 0.943810 0.250000
O O2 0.358298 0.866110 0.214650
O O3 0.360947 0.008984 0.191391
O O4 0.537543 0.937314 0.029205
O O5 0.304917 0.266456 0.176117
O O6 0.287438 0.129539 0.105313
O O7 0.250000 0.250000 0.000000
O O8 0.438428 0.224393 0.944099
O O9 0.750104 0.839380 0.393823
O O10 0.905117 0.908906 0.421032
O O11 0.887560 0.924986 0.217794
O O12 0.734490 0.985524 0.433731
O O13 0.371859 0.270928 0.648974
O O14 0.027481 0.863107 0.521914
O O15 0.000000 0.813177 0.750000
O O16 0.500000 0.500000 0.000000
#
# Coordination Sequence:
#
# PCOD9277460 Si02
#       7
#     8   8   8   8   8   8   8
#     4  10  20  41  63  92 133 169 213 275 334 396
#     4  12  23  38  66  99 135 172 220 281 334 394
#     4  10  25  47  67  96 134 184 222 278 342 398
#     4  11  22  41  68  95 134 174 224 282 340 394
#     4  12  25  43  69 102 133 177 230 281 336 402
#     4  10  23  39  65  97 127 169 229 267 331 403
#     4  11  27  44  67  95 138 179 228 277 330 412
#
# _framework density 21.152674999999999
#
# number of rings (size 3 to 8) (size 9 to 14) (size 15 to 20)
#    0.000    1.143    4.286    1.286    6.000    2.857 
#    0.000    1.429    0.000    0.000    0.000    0.000 
#    0.000    0.000    0.000    0.000    0.000    0.000 
#
# Total GULP energy -156095.523490 kJ/mol
# GULP energy per Si atom -5574.840125 kJ/mol
# Density = 2.110453 g / cm^3
# Si number density = 21.152675 Si / 1000 Ang^3
#
#
#
# Elastic Constant Matrix: (Units=GPa)
#
#
# Indices 1 2 3 4 5 6 
#
# 1 68.8098 2.8888 -1.3075 0.0000 0.9987 0.0000
# 2 2.8888 117.8385 24.7445 0.0000 7.3401 0.0000
# 3 -1.3075 24.7445 47.5483 0.0000 4.2193 0.0000
# 4 0.0000 0.0000 0.0000 17.1731 0.0000 -6.0467
# 5 0.9987 7.3401 4.2193 0.0000 26.8585 0.0000
# 6 0.0000 0.0000 0.0000 -6.0467 0.0000 31.5742
#
#
#
# Elastic Compliance Matrix: (Units=1/GPa)
#
#
# Indices 1 2 3 4 5 6 
#
# 1 0.014573 -0.000470 0.000692 0.000000 -0.000522 0.000000
# 2 -0.000470 0.009634 -0.004862 0.000000 -0.001852 0.000000
# 3 0.000692 -0.004862 0.023797 0.000000 -0.002435 0.000000
# 4 0.000000 0.000000 0.000000 0.062441 0.000000 0.011958
# 5 -0.000522 -0.001852 -0.002435 0.000000 0.038140 0.000000
# 6 0.000000 0.000000 0.000000 0.011958 0.000000 0.033962
#
#
# Mechanical properties :
#
#
# Convention : Reuss Voigt Hill
#
# Bulk Modulus (GPa) = 25.82451 31.87202 28.84826
# Shear Modulus (GPa) = 24.42175 28.97921 26.70048
#
# Velocity S-wave (km/s) = 3.40155 3.70537 3.55670
# Velocity P-wave (km/s) = 5.25952 5.77985 5.52581
#
# Compressibility (1/GPa) = 0.03872290
#
# Stress axis : x y z
#
# Youngs Moduli (GPa) = 68.61877 103.79849 42.02256
#
# Poissons Ratio (x) = 0.04878 -0.02907
# Poissons Ratio (y) = 0.03225 0.20432
# Poissons Ratio (z) = -0.04746 0.50469
#
# Static dielectric constant tensor:
#      x y z
#    x 1.810090 0.000000 -0.040460 
#    y 0.000000 1.606130 0.000000 
#    z -0.040460 0.000000 1.685390 
# 
# From -- ./inp_files/98690.got.cif
#   From: 2010.05.17/outbox.cif.g08.bks.cpg/sg15_50_cif.got.tgz:98690.got - 2010.06.03 18:47:42.
