data_PCOD9277072
_publ_section_title
;
Structure prediction by ZEFSAII (Michael W. Deem and Ramdas Pophale) SiO2 
 PCOD9277072
Probable space group: C 2/C
;
_chemical_formula_sum "Si O2"
_cell_formula_units_Z 52
_cell_length_a 16.791538
_cell_length_b 10.972898
_cell_length_c 15.134701
_cell_angle_alpha 90.000000
_cell_angle_beta 58.338224
_cell_angle_gamma 90.000000
_cell_volume 2373.545851
_symmetry_space_group_name_H-M "C 2/C"
_symmetry_group_IT_number 15
_symmetry_cell_setting 'monoclinic'
loop_
_space_group_symop_operation_xyz
x,y,z
-x,y,1/2-z
-x,-y,-z
x,-y,1/2+z
1/2+x,1/2+y,z
1/2-x,1/2+y,1/2-z
1/2-x,1/2-y,-z
1/2+x,1/2-y,1/2+z
loop_
_atom_site_type_symbol
_atom_site_label
_atom_site_fract_x
_atom_site_fract_y
_atom_site_fract_z
Si Si1 0.566729 0.926465 0.894914
Si Si2 0.610960 0.493857 0.191998
Si Si3 0.500000 0.980456 0.250000
Si Si4 0.363705 0.460382 0.512205
Si Si5 0.989214 0.197292 0.474564
Si Si6 0.880605 0.270114 0.262435
Si Si7 0.245656 0.056813 0.766843
O O1 0.569270 0.792984 0.935003
O O2 0.520221 0.939905 0.824879
O O3 0.668004 0.988859 0.830334
O O4 0.500000 0.000000 0.000000
O O5 0.500000 0.469251 0.250000
O O6 0.624768 0.640223 0.188348
O O7 0.656892 0.442683 0.254181
O O8 0.660396 0.443182 0.075729
O O9 0.413408 0.883796 0.303432
O O10 0.426992 0.583365 0.480272
O O11 0.428553 0.353723 0.511333
O O12 0.281806 0.483073 0.629236
O O13 0.040922 0.255112 0.359724
O O14 0.785153 0.312146 0.272133
#
# Coordination Sequence:
#
# PCOD9277072 Si02
#       7
#     8   8   4   8   8   8   8
#     4  11  24  44  71  98 147 189 234 297 369 416
#     4  12  23  46  73 100 140 196 236 290 362 430
#     4  10  20  40  68 100 124 186 242 274 348 436
#     4  11  24  42  70 101 139 184 247 286 360 428
#     4  11  21  46  69  98 141 193 228 301 360 421
#     4  11  21  44  73  96 143 188 241 292 346 434
#     4  11  26  42  66 111 141 175 246 308 348 419
#
# _framework density 21.908152000000001
#
# number of rings (size 3 to 8) (size 9 to 14) (size 15 to 20)
#    0.000    0.923    6.923    0.923    2.154    3.077 
#    4.154    0.769    0.000    0.000    0.000    0.000 
#    0.000    0.000    0.000    0.000    0.000    0.000 
#
# Total GULP energy -145401.551683 kJ/mol
# GULP energy per Si atom -5592.367372 kJ/mol
# Density = 2.185829 g / cm^3
# Si number density = 21.908152 Si / 1000 Ang^3
#
#
#
# Elastic Constant Matrix: (Units=GPa)
#
#
# Indices 1 2 3 4 5 6 
#
# 1 99.7718 12.5836 25.6795 0.0000 2.6245 0.0000
# 2 12.5836 20.6188 3.7421 0.0000 -3.2856 0.0000
# 3 25.6795 3.7421 102.4769 0.0000 -1.4700 0.0000
# 4 0.0000 0.0000 0.0000 20.6436 0.0000 -2.3961
# 5 2.6245 -3.2856 -1.4700 0.0000 44.6204 0.0000
# 6 0.0000 0.0000 0.0000 -2.3961 0.0000 27.4676
#
#
#
# Elastic Compliance Matrix: (Units=1/GPa)
#
#
# Indices 1 2 3 4 5 6 
#
# 1 0.011603 -0.006798 -0.002678 0.000000 -0.001271 0.000000
# 2 -0.006798 0.053370 -0.000183 0.000000 0.004324 0.000000
# 3 -0.002678 -0.000183 0.010443 0.000000 0.000488 0.000000
# 4 0.000000 0.000000 0.000000 0.048937 0.000000 0.004269
# 5 -0.001271 0.004324 0.000488 0.000000 0.022820 0.000000
# 6 0.000000 0.000000 0.000000 0.004269 0.000000 0.036779
#
#
# Mechanical properties :
#
#
# Convention : Reuss Voigt Hill
#
# Bulk Modulus (GPa) = 17.82575 34.09753 25.96164
# Shear Modulus (GPa) = 22.52565 30.60381 26.56473
#
# Velocity S-wave (km/s) = 3.21001 3.74159 3.48595
# Velocity P-wave (km/s) = 4.67901 5.85351 5.29890
#
# Compressibility (1/GPa) = 0.05609863
#
# Stress axis : x y z
#
# Youngs Moduli (GPa) = 86.18594 18.73699 95.75835
#
# Poissons Ratio (x) = 0.12737 0.25640
# Poissons Ratio (y) = 0.58587 0.01757
# Poissons Ratio (z) = 0.23077 0.00344
#
# Static dielectric constant tensor:
#      x y z
#    x 1.827890 0.000000 0.008650 
#    y 0.000000 1.811530 0.000000 
#    z 0.008650 0.000000 1.811490 
# 
# From -- ./inp_files/160763.got.cif
#   From: 2010.05.17/outbox.cif.g08.bks.cpg/sg15_81_cif.got.tgz:160763.got - 2010.06.03 18:47:42.
