data_PCOD9277955
_publ_section_title
;
Structure prediction by ZEFSAII (Michael W. Deem and Ramdas Pophale) SiO2 
 PCOD9277955
Probable space group: C 2/C
;
_chemical_formula_sum "Si O2"
_cell_formula_units_Z 56
_cell_length_a 10.389150
_cell_length_b 10.217061
_cell_length_c 31.122699
_cell_angle_alpha 90.000000
_cell_angle_beta 46.361694
_cell_angle_gamma 90.000000
_cell_volume 2390.827350
_symmetry_space_group_name_H-M "C 2/C"
_symmetry_group_IT_number 15
_symmetry_cell_setting 'monoclinic'
loop_
_space_group_symop_operation_xyz
x,y,z
-x,y,1/2-z
-x,-y,-z
x,-y,1/2+z
1/2+x,1/2+y,z
1/2-x,1/2+y,1/2-z
1/2-x,1/2-y,-z
1/2+x,1/2-y,1/2+z
loop_
_atom_site_type_symbol
_atom_site_label
_atom_site_fract_x
_atom_site_fract_y
_atom_site_fract_z
Si Si1 0.286308 0.018912 0.043593
Si Si2 0.774597 0.256030 0.092617
Si Si3 0.177166 0.330689 0.332850
Si Si4 0.440076 0.855808 0.722901
Si Si5 0.670490 0.104855 0.342507
Si Si6 0.694161 0.781650 0.116754
Si Si7 0.243153 0.523589 0.047779
O O1 0.229734 0.151256 0.080373
O O2 0.215194 0.886773 0.082255
O O3 0.500000 0.000000 0.000000
O O4 0.227862 0.018390 0.007554
O O5 0.904605 0.278075 0.102981
O O6 0.609552 0.194038 0.156954
O O7 0.841172 0.153032 0.042308
O O8 0.327980 0.251807 0.274034
O O9 0.261763 0.466015 0.330739
O O10 0.012185 0.324751 0.338130
O O11 0.500000 0.944956 0.750000
O O12 0.317002 0.897384 0.711945
O O13 0.738907 0.231222 0.352064
O O14 0.465761 0.071245 0.402946
O O15 0.777240 0.908748 0.074393
#
# Coordination Sequence:
#
# PCOD9277955 Si02
#       7
#     8   8   8   8   8   8   8
#     4  12  21  40  67  91 132 175 212 269 329 383
#     4  10  21  42  63  90 129 173 212 270 329 389
#     4  10  21  42  62  95 127 167 218 276 322 392
#     4   9  21  41  63  88 125 167 205 268 333 381
#     4  10  20  42  63  90 132 165 217 270 323 391
#     4  11  22  40  64  94 128 171 217 267 323 390
#     4  10  22  40  62  91 129 168 218 261 319 390
#
# _framework density 23.422854999999998
#
# number of rings (size 3 to 8) (size 9 to 14) (size 15 to 20)
#    0.000    1.714    2.857    1.714    0.000    1.714 
#   18.000    1.429    0.000    0.000    0.000    0.000 
#    0.000    0.000    0.000    0.000    0.000    0.000 
#
# Total GULP energy -155922.396576 kJ/mol
# GULP energy per Si atom -5568.657021 kJ/mol
# Density = 2.336954 g / cm^3
# Si number density = 23.422855 Si / 1000 Ang^3
#
#
#
# Elastic Constant Matrix: (Units=GPa)
#
#
# Indices 1 2 3 4 5 6 
#
# 1 71.0152 22.7132 20.8719 0.0000 26.9272 0.0000
# 2 22.7132 93.7006 2.5822 0.0000 30.5266 0.0000
# 3 20.8719 2.5822 55.8420 0.0000 34.9385 0.0000
# 4 0.0000 0.0000 0.0000 23.0529 0.0000 15.1304
# 5 26.9272 30.5266 34.9385 0.0000 51.4550 0.0000
# 6 0.0000 0.0000 0.0000 15.1304 0.0000 28.9610
#
#
#
# Elastic Compliance Matrix: (Units=1/GPa)
#
#
# Indices 1 2 3 4 5 6 
#
# 1 0.017958 -0.002254 -0.002720 0.000000 -0.006213 0.000000
# 2 -0.002254 0.015588 0.008988 0.000000 -0.014171 0.000000
# 3 -0.002720 0.008988 0.036432 0.000000 -0.028647 0.000000
# 4 0.000000 0.000000 0.000000 0.066015 0.000000 -0.034489
# 5 -0.006213 -0.014171 -0.028647 0.000000 0.050545 0.000000
# 6 0.000000 0.000000 0.000000 -0.034489 0.000000 0.052547
#
#
# Mechanical properties :
#
#
# Convention : Reuss Voigt Hill
#
# Bulk Modulus (GPa) = 12.81957 34.76582 23.79269
# Shear Modulus (GPa) = 19.45083 32.31980 25.88531
#
# Velocity S-wave (km/s) = 2.88483 3.71865 3.32796
# Velocity P-wave (km/s) = 4.07201 5.77172 4.99470
#
# Compressibility (1/GPa) = 0.07800577
#
# Stress axis : x y z
#
# Youngs Moduli (GPa) = 55.68608 64.15281 27.44831
#
# Poissons Ratio (x) = 0.14459 0.07467
# Poissons Ratio (y) = 0.12551 -0.24671
# Poissons Ratio (z) = 0.15148 -0.57662
#
# Static dielectric constant tensor:
#      x y z
#    x 2.135820 0.000000 0.065310 
#    y 0.000000 2.039360 0.000000 
#    z 0.065310 0.000000 1.915690 
# 
# From -- ./inp_files/310243.got.cif
#   From: 2010.05.17/outbox.cif.g08.bks.cpg/sg15_156_cif.got.tgz:310243.got - 2010.06.03 18:47:42.
