data_PCOD9277509
_publ_section_title
;
Structure prediction by ZEFSAII (Michael W. Deem and Ramdas Pophale) SiO2 
 PCOD9277509
Probable space group: C 2/C
;
_chemical_formula_sum "Si O2"
_cell_formula_units_Z 48
_cell_length_a 8.279572
_cell_length_b 29.712940
_cell_length_c 17.195383
_cell_angle_alpha 90.000000
_cell_angle_beta 32.615767
_cell_angle_gamma 90.000000
_cell_volume 2280.112226
_symmetry_space_group_name_H-M "C 2/C"
_symmetry_group_IT_number 15
_symmetry_cell_setting 'monoclinic'
loop_
_space_group_symop_operation_xyz
x,y,z
-x,y,1/2-z
-x,-y,-z
x,-y,1/2+z
1/2+x,1/2+y,z
1/2-x,1/2+y,1/2-z
1/2-x,1/2-y,-z
1/2+x,1/2-y,1/2+z
loop_
_atom_site_type_symbol
_atom_site_label
_atom_site_fract_x
_atom_site_fract_y
_atom_site_fract_z
Si Si1 0.792015 0.627555 0.684738
Si Si2 0.536839 0.225728 0.420955
Si Si3 0.963722 0.543562 0.356996
Si Si4 0.352656 0.876508 0.604443
Si Si5 0.290919 0.538808 0.687071
Si Si6 0.816900 0.270363 0.170494
O O1 0.500000 0.631320 0.750000
O O2 0.717225 0.588772 0.775248
O O3 0.861019 0.678414 0.682734
O O4 0.052410 0.610914 0.521524
O O5 0.499694 0.171977 0.438105
O O6 0.790388 0.238477 0.255787
O O7 0.548381 0.240237 0.506848
O O8 0.250000 0.250000 0.500000
O O9 0.617894 0.531275 0.517098
O O10 0.000000 0.554217 0.250000
O O11 0.044550 0.586285 0.376435
O O12 0.196669 0.502807 0.281002
O O13 0.000000 0.870147 0.750000
O O14 0.000000 0.537737 0.750000
O O15 0.500000 0.268825 0.250000
#
# Coordination Sequence:
#
# PCOD9277509 Si02
#       6
#     8   8   8   8   8   8
#     4  10  20  41  64  92 126 170 210 263 325 385
#     4   9  18  36  61  87 122 167 207 259 314 380
#     4  11  25  43  65  93 132 171 214 268 326 386
#     4  11  25  41  64  98 133 166 215 272 321 379
#     4  11  24  42  66  93 129 168 217 267 326 386
#     4   8  16  32  59  84 118 159 208 251 313 375
#
# _framework density 21.051596
#
# number of rings (size 3 to 8) (size 9 to 14) (size 15 to 20)
#    0.000    2.000    1.667    3.000    4.667    3.333 
#    0.000    4.167    0.000    0.000    0.000    0.000 
#    0.000    0.000    0.000    0.000    0.000    0.000 
#
# Total GULP energy -133826.631837 kJ/mol
# GULP energy per Si atom -5576.109660 kJ/mol
# Density = 2.100368 g / cm^3
# Si number density = 21.051596 Si / 1000 Ang^3
#
#
#
# Elastic Constant Matrix: (Units=GPa)
#
#
# Indices 1 2 3 4 5 6 
#
# 1 32.7808 28.5015 29.2658 0.0000 3.3656 0.0000
# 2 28.5015 89.5875 33.5626 0.0000 20.9761 0.0000
# 3 29.2658 33.5626 166.1346 0.0000 2.0242 0.0000
# 4 0.0000 0.0000 0.0000 37.6306 0.0000 11.5145
# 5 3.3656 20.9761 2.0242 0.0000 45.9224 0.0000
# 6 0.0000 0.0000 0.0000 11.5145 0.0000 22.5613
#
#
#
# Elastic Compliance Matrix: (Units=1/GPa)
#
#
# Indices 1 2 3 4 5 6 
#
# 1 0.046954 -0.013553 -0.005570 0.000000 0.002995 0.000000
# 2 -0.013553 0.017500 -0.001063 0.000000 -0.006954 0.000000
# 3 -0.005570 -0.001063 0.007208 0.000000 0.000576 0.000000
# 4 0.000000 0.000000 0.000000 0.031492 0.000000 -0.016072
# 5 0.002995 -0.006954 0.000576 0.000000 0.024707 0.000000
# 6 0.000000 0.000000 0.000000 -0.016072 0.000000 0.052527
#
#
# Mechanical properties :
#
#
# Convention : Reuss Voigt Hill
#
# Bulk Modulus (GPa) = 31.95793 52.35142 42.15467
# Shear Modulus (GPa) = 21.62718 34.36773 27.99745
#
# Velocity S-wave (km/s) = 3.20869 4.04486 3.65080
# Velocity P-wave (km/s) = 5.37972 6.83642 6.15134
#
# Compressibility (1/GPa) = 0.03129114
#
# Stress axis : x y z
#
# Youngs Moduli (GPa) = 21.29735 57.14166 138.73105
#
# Poissons Ratio (x) = 0.77442 0.77272
# Poissons Ratio (y) = 0.28863 0.14752
# Poissons Ratio (z) = 0.11862 0.06076
#
# Static dielectric constant tensor:
#      x y z
#    x 1.749260 0.000000 0.008260 
#    y 0.000000 1.783670 0.000000 
#    z 0.008260 0.000000 1.902050 
# 
# From -- ./inp_files/194179.got.cif
#   From: 2010.05.17/outbox.cif.g08.bks.cpg/sg15_98_cif.got.tgz:194179.got - 2010.06.03 18:47:42.
