data_PCOD9277626
_publ_section_title
;
Structure prediction by ZEFSAII (Michael W. Deem and Ramdas Pophale) SiO2 
 PCOD9277626
Probable space group: C 2/C
;
_chemical_formula_sum "Si O2"
_cell_formula_units_Z 40
_cell_length_a 11.192623
_cell_length_b 10.725536
_cell_length_c 14.515508
_cell_angle_alpha 90.000000
_cell_angle_beta 105.108359
_cell_angle_gamma 90.000000
_cell_volume 1682.309844
_symmetry_space_group_name_H-M "C 2/C"
_symmetry_group_IT_number 15
_symmetry_cell_setting 'monoclinic'
loop_
_space_group_symop_operation_xyz
x,y,z
-x,y,1/2-z
-x,-y,-z
x,-y,1/2+z
1/2+x,1/2+y,z
1/2-x,1/2+y,1/2-z
1/2-x,1/2-y,-z
1/2+x,1/2-y,1/2+z
loop_
_atom_site_type_symbol
_atom_site_label
_atom_site_fract_x
_atom_site_fract_y
_atom_site_fract_z
Si Si1 0.744369 0.976163 0.318906
Si Si2 0.765437 0.994529 0.115884
Si Si3 0.615971 0.244042 0.062327
Si Si4 0.506954 0.416144 0.593584
Si Si5 0.413669 0.077997 0.055579
O O1 0.810949 0.854485 0.373642
O O2 0.715713 0.961244 0.206136
O O3 0.851890 0.082935 0.345971
O O4 0.630456 0.010306 0.361163
O O5 0.709318 0.128583 0.073717
O O6 0.911878 0.015324 0.142722
O O7 0.711697 0.901354 0.028390
O O8 0.497438 0.196227 0.095730
O O9 0.553368 0.287544 0.953686
O O10 0.500000 0.500000 0.500000
O O11 0.500000 0.000000 0.000000
#
# Coordination Sequence:
#
# PCOD9277626 Si02
#       5
#     8   8   8   8   8
#     4  11  24  44  64 102 139 168 230 282 327 411
#     4  11  22  43  69  96 131 178 225 278 337 405
#     4  10  23  42  71  89 137 180 214 275 349 388
#     4  10  20  41  66  93 130 172 216 275 337 399
#     4  10  23  41  67  97 132 176 224 274 335 405
#
# _framework density 23.776833
#
# number of rings (size 3 to 8) (size 9 to 14) (size 15 to 20)
#    0.000    1.600    4.000    1.200    2.800    5.600 
#   14.400    0.000    0.000    0.000    0.000    0.000 
#    0.000    0.000    0.000    0.000    0.000    0.000 
#
# Total GULP energy -111665.143835 kJ/mol
# GULP energy per Si atom -5583.257192 kJ/mol
# Density = 2.372272 g / cm^3
# Si number density = 23.776833 Si / 1000 Ang^3
#
#
#
# Elastic Constant Matrix: (Units=GPa)
#
#
# Indices 1 2 3 4 5 6 
#
# 1 115.2663 38.2890 11.8882 0.0000 -27.1914 0.0000
# 2 38.2890 61.8012 4.1027 0.0000 -1.5549 0.0000
# 3 11.8882 4.1027 74.7510 0.0000 -30.0588 0.0000
# 4 0.0000 0.0000 0.0000 14.5672 0.0000 7.4681
# 5 -27.1914 -1.5549 -30.0588 0.0000 43.8394 0.0000
# 6 0.0000 0.0000 0.0000 7.4681 0.0000 49.1752
#
#
#
# Elastic Compliance Matrix: (Units=1/GPa)
#
#
# Indices 1 2 3 4 5 6 
#
# 1 0.013428 -0.008222 0.002137 0.000000 0.009502 0.000000
# 2 -0.008222 0.021275 -0.002219 0.000000 -0.005867 0.000000
# 3 0.002137 -0.002219 0.018861 0.000000 0.014179 0.000000
# 4 0.000000 0.000000 0.000000 0.074443 0.000000 -0.011306
# 5 0.009502 -0.005867 0.014179 0.000000 0.038218 0.000000
# 6 0.000000 0.000000 0.000000 -0.011306 0.000000 0.022052
#
#
# Mechanical properties :
#
#
# Convention : Reuss Voigt Hill
#
# Bulk Modulus (GPa) = 27.06004 40.04204 33.55104
# Shear Modulus (GPa) = 23.01970 34.68559 28.85264
#
# Velocity S-wave (km/s) = 3.11490 3.82356 3.48728
# Velocity P-wave (km/s) = 4.93379 6.03077 5.50965
#
# Compressibility (1/GPa) = 0.03695486
#
# Stress axis : x y z
#
# Youngs Moduli (GPa) = 74.47166 47.00441 53.01831
#
# Poissons Ratio (x) = 0.38647 -0.11328
# Poissons Ratio (y) = 0.61231 0.11766
# Poissons Ratio (z) = -0.15912 0.10431
#
# Static dielectric constant tensor:
#      x y z
#    x 1.988280 0.000000 0.007690 
#    y 0.000000 2.045770 0.000000 
#    z 0.007690 0.000000 1.887070 
# 
# From -- ./inp_files/141909.got.cif
#   From: 2010.05.17/outbox.cif.g08.bks.cpg/sg15_71_cif.got.tgz:141909.got - 2010.06.03 18:47:42.
