data_PCOD9277798
_publ_section_title
;
Structure prediction by ZEFSAII (Michael W. Deem and Ramdas Pophale) SiO2 
 PCOD9277798
Probable space group: C 2/C
;
_chemical_formula_sum "Si O2"
_cell_formula_units_Z 56
_cell_length_a 18.298448
_cell_length_b 4.880750
_cell_length_c 28.458693
_cell_angle_alpha 90.000000
_cell_angle_beta 120.408926
_cell_angle_gamma 90.000000
_cell_volume 2192.007595
_symmetry_space_group_name_H-M "C 2/C"
_symmetry_group_IT_number 15
_symmetry_cell_setting 'monoclinic'
loop_
_space_group_symop_operation_xyz
x,y,z
-x,y,1/2-z
-x,-y,-z
x,-y,1/2+z
1/2+x,1/2+y,z
1/2-x,1/2+y,1/2-z
1/2-x,1/2-y,-z
1/2+x,1/2-y,1/2+z
loop_
_atom_site_type_symbol
_atom_site_label
_atom_site_fract_x
_atom_site_fract_y
_atom_site_fract_z
Si Si1 0.660833 0.674935 0.202758
Si Si2 0.044184 0.683075 0.155165
Si Si3 0.772158 0.710767 0.678963
Si Si4 0.654268 0.841719 0.474560
Si Si5 0.984426 0.658902 0.946890
Si Si6 0.628114 0.053440 0.362189
Si Si7 0.306839 0.130089 0.917024
O O1 0.579168 0.487512 0.166494
O O2 0.727616 0.558786 0.186508
O O3 0.700693 0.616045 0.266801
O O4 0.622439 0.980040 0.192760
O O5 0.018643 0.566097 0.095820
O O6 0.965281 0.677681 0.165261
O O7 0.856079 0.639841 0.676948
O O8 0.710312 0.866349 0.622239
O O9 0.750000 0.750000 0.500000
O O10 0.570830 0.672572 0.464606
O O11 0.633634 0.908842 0.414202
O O12 0.667132 0.059431 0.521019
O O13 0.890099 0.778896 0.922532
O O14 0.000000 0.500000 0.000000
O O15 0.714157 0.233992 0.388818
#
# Coordination Sequence:
#
# PCOD9277798 Si02
#       7
#     8   8   8   8   8   8   8
#     4  12  28  49  74 105 148 200 252 312 371 440
#     4  11  26  50  73 107 154 190 247 313 374 448
#     4  12  27  46  74 104 141 196 253 311 370 446
#     4  10  20  41  70 106 150 189 240 307 382 457
#     4   9  20  41  70 106 144 192 244 295 371 446
#     4  11  26  44  73 109 146 195 246 312 385 456
#     4  11  22  44  71 103 148 191 244 303 376 453
#
# _framework density 25.547355
#
# number of rings (size 3 to 8) (size 9 to 14) (size 15 to 20)
#    0.000    1.143    2.857    2.143    6.000    0.571 
#    0.000    1.429    0.000    0.000    0.000    0.000 
#    0.000    0.000    0.000    0.000    0.000    0.000 
#
# Total GULP energy -156356.634223 kJ/mol
# GULP energy per Si atom -5584.165508 kJ/mol
# Density = 2.548921 g / cm^3
# Si number density = 25.547355 Si / 1000 Ang^3
#
#
#
# Elastic Constant Matrix: (Units=GPa)
#
#
# Indices 1 2 3 4 5 6 
#
# 1 260.8034 19.6371 34.7831 -0.0010 -19.9743 0.0011
# 2 19.6371 27.0356 6.1234 -0.0041 -9.5980 0.0019
# 3 34.7831 6.1234 113.4864 -0.0006 -26.3002 0.0005
# 4 -0.0010 -0.0041 -0.0006 28.0537 -0.0001 12.8797
# 5 -19.9743 -9.5980 -26.3002 -0.0001 43.0712 -0.0001
# 6 0.0011 0.0019 0.0005 12.8797 -0.0001 40.3139
#
#
#
# Elastic Compliance Matrix: (Units=1/GPa)
#
#
# Indices 1 2 3 4 5 6 
#
# 1 0.004217 -0.002562 -0.000971 0.000000 0.000792 0.000000
# 2 -0.002562 0.041724 0.000482 0.000008 0.008403 -0.000004
# 3 -0.000971 0.000482 0.010488 0.000000 0.006061 0.000000
# 4 0.000000 0.000008 0.000000 0.041773 0.000002 -0.013346
# 5 0.000792 0.008403 0.006061 0.000002 0.029158 -0.000001
# 6 0.000000 -0.000004 0.000000 -0.013346 -0.000001 0.029069
#
#
# Mechanical properties :
#
#
# Convention : Reuss Voigt Hill
#
# Bulk Modulus (GPa) = 19.87050 58.04584 38.95817
# Shear Modulus (GPa) = 27.88501 45.00654 36.44577
#
# Velocity S-wave (km/s) = 3.30737 4.20180 3.78113
# Velocity P-wave (km/s) = 4.73072 6.80517 5.86047
#
# Compressibility (1/GPa) = 0.05032587
#
# Stress axis : x y z
#
# Youngs Moduli (GPa) = 237.11521 23.96726 95.34833
#
# Poissons Ratio (x) = 0.06141 0.09256
# Poissons Ratio (y) = 0.60753 -0.04591
# Poissons Ratio (z) = 0.23019 -0.01154
#
# Static dielectric constant tensor:
#      x y z
#    x 2.058960 0.000000 0.051000 
#    y 0.000000 2.240510 0.000000 
#    z 0.051000 0.000000 2.060550 
# 
# From -- ./inp_files/297789.got.cif
#   From: 2010.05.17/outbox.cif.g08.bks.cpg/sg15_149_cif.got.tgz:297789.got - 2010.06.03 18:47:42.
