data_PCOD9277151
_publ_section_title
;
Structure prediction by ZEFSAII (Michael W. Deem and Ramdas Pophale) SiO2 
 PCOD9277151
Probable space group: C 2/C
;
_chemical_formula_sum "Si O2"
_cell_formula_units_Z 44
_cell_length_a 12.514034
_cell_length_b 9.830548
_cell_length_c 17.790132
_cell_angle_alpha 90.000000
_cell_angle_beta 134.003733
_cell_angle_gamma 90.000000
_cell_volume 1574.203931
_symmetry_space_group_name_H-M "C 2/C"
_symmetry_group_IT_number 15
_symmetry_cell_setting 'monoclinic'
loop_
_space_group_symop_operation_xyz
x,y,z
-x,y,1/2-z
-x,-y,-z
x,-y,1/2+z
1/2+x,1/2+y,z
1/2-x,1/2+y,1/2-z
1/2-x,1/2-y,-z
1/2+x,1/2-y,1/2+z
loop_
_atom_site_type_symbol
_atom_site_label
_atom_site_fract_x
_atom_site_fract_y
_atom_site_fract_z
Si Si1 0.413758 0.164211 0.364209
Si Si2 0.703911 0.422408 0.028824
Si Si3 0.778944 0.359930 0.448038
Si Si4 0.000000 0.267038 0.750000
Si Si5 0.521408 0.726699 0.340506
Si Si6 0.746762 0.941121 0.284881
O O1 0.547212 0.143178 0.487883
O O2 0.485606 0.142141 0.316823
O O3 0.371044 0.322499 0.343925
O O4 0.277995 0.057809 0.290479
O O5 0.820937 0.301399 0.095932
O O6 0.722506 0.502108 0.116246
O O7 0.749734 0.500806 0.976331
O O8 0.544035 0.364274 0.925605
O O9 0.750000 0.250000 0.500000
O O10 0.649605 0.322484 0.327373
O O11 0.500000 0.653155 0.250000
O O12 0.400821 0.845713 0.291683
#
# Coordination Sequence:
#
# PCOD9277151 Si02
#       6
#     8   8   8   4   8   8
#     4  11  24  45  68 101 138 185 226 282 340 406
#     4  10  20  40  68  96 129 181 227 277 336 406
#     4  10  21  40  68  97 127 177 228 275 335 407
#     4  10  24  44  70  98 130 182 234 280 340 412
#     4   9  20  38  66  98 131 174 227 281 335 403
#     4  11  23  42  68  99 143 178 228 282 345 400
#
# _framework density 27.950634999999998
#
# number of rings (size 3 to 8) (size 9 to 14) (size 15 to 20)
#    0.000    1.818    1.818    2.182    2.545    4.364 
#    6.545    7.273    0.000    0.000    0.000    0.000 
#    0.000    0.000    0.000    0.000    0.000    0.000 
#
# Total GULP energy -123005.015630 kJ/mol
# GULP energy per Si atom -5591.137074 kJ/mol
# Density = 2.788702 g / cm^3
# Si number density = 27.950635 Si / 1000 Ang^3
#
#
#
# Elastic Constant Matrix: (Units=GPa)
#
#
# Indices 1 2 3 4 5 6 
#
# 1 48.5397 7.0143 13.8958 0.0000 4.8999 0.0000
# 2 7.0143 98.8213 34.6044 0.0000 7.4482 0.0000
# 3 13.8958 34.6044 194.9268 0.0000 13.4971 0.0000
# 4 0.0000 0.0000 0.0000 37.1484 0.0000 -2.9876
# 5 4.8999 7.4482 13.4971 0.0000 26.8553 0.0000
# 6 0.0000 0.0000 0.0000 -2.9876 0.0000 51.0415
#
#
#
# Elastic Compliance Matrix: (Units=1/GPa)
#
#
# Indices 1 2 3 4 5 6 
#
# 1 0.021370 -0.000881 -0.001154 0.000000 -0.003075 0.000000
# 2 -0.000881 0.010942 -0.001741 0.000000 -0.001999 0.000000
# 3 -0.001154 -0.001741 0.005671 0.000000 -0.002157 0.000000
# 4 0.000000 0.000000 0.000000 0.027046 0.000000 0.001583
# 5 -0.003075 -0.001999 -0.002157 0.000000 0.039436 0.000000
# 6 0.000000 0.000000 0.000000 0.001583 0.000000 0.019685
#
#
# Mechanical properties :
#
#
# Convention : Reuss Voigt Hill
#
# Bulk Modulus (GPa) = 32.86217 50.36852 41.61535
# Shear Modulus (GPa) = 35.24956 42.12727 38.68841
#
# Velocity S-wave (km/s) = 3.55510 3.88648 3.72448
# Velocity P-wave (km/s) = 5.35111 6.18056 5.78073
#
# Compressibility (1/GPa) = 0.03043013
#
# Stress axis : x y z
#
# Youngs Moduli (GPa) = 46.79508 91.38918 176.34015
#
# Poissons Ratio (x) = 0.08051 0.20352
# Poissons Ratio (y) = 0.04122 0.30706
# Poissons Ratio (z) = 0.05401 0.15914
#
# Static dielectric constant tensor:
#      x y z
#    x 2.355930 0.000000 0.015560 
#    y 0.000000 2.233870 0.000000 
#    z 0.015560 0.000000 2.295900 
# 
# From -- ./inp_files/243839.got.cif
#   From: 2010.05.17/outbox.cif.g08.bks.cpg/sg15_122_cif.got.tgz:243839.got - 2010.06.03 18:47:42.
