data_PCOD9277463
_publ_section_title
;
Structure prediction by ZEFSAII (Michael W. Deem and Ramdas Pophale) SiO2 
 PCOD9277463
Probable space group: C 2/C
;
_chemical_formula_sum "Si O2"
_cell_formula_units_Z 44
_cell_length_a 19.035728
_cell_length_b 11.835297
_cell_length_c 8.561640
_cell_angle_alpha 90.000000
_cell_angle_beta 118.734965
_cell_angle_gamma 90.000000
_cell_volume 1691.345676
_symmetry_space_group_name_H-M "C 2/C"
_symmetry_group_IT_number 15
_symmetry_cell_setting 'monoclinic'
loop_
_space_group_symop_operation_xyz
x,y,z
-x,y,1/2-z
-x,-y,-z
x,-y,1/2+z
1/2+x,1/2+y,z
1/2-x,1/2+y,1/2-z
1/2-x,1/2-y,-z
1/2+x,1/2-y,1/2+z
loop_
_atom_site_type_symbol
_atom_site_label
_atom_site_fract_x
_atom_site_fract_y
_atom_site_fract_z
Si Si1 0.082019 0.006020 0.182692
Si Si2 0.834042 0.493706 0.618850
Si Si3 0.759945 0.293885 0.190973
Si Si4 0.603095 0.162067 0.080390
Si Si5 0.828448 0.885847 0.983764
Si Si6 0.500000 0.703010 0.250000
O O1 0.151730 0.024714 0.133076
O O2 0.071571 0.119399 0.275514
O O3 0.099771 0.904161 0.318392
O O4 0.000000 0.000000 0.000000
O O5 0.802037 0.586872 0.708808
O O6 0.867088 0.568400 0.513627
O O7 0.752608 0.420354 0.513372
O O8 0.898379 0.408021 0.761612
O O9 0.816873 0.225956 0.371768
O O10 0.750000 0.250000 0.000000
O O11 0.672521 0.257722 0.162740
O O12 0.526126 0.221148 0.923777
#
# Coordination Sequence:
#
# PCOD9277463 Si02
#       6
#     8   8   8   8   8   4
#     4  12  23  40  62  95 130 168 217 272 334 403
#     4  10  20  41  63  94 125 164 227 266 318 388
#     4   9  18  36  63  89 122 163 212 267 324 375
#     4  10  22  39  64  93 125 176 210 264 327 388
#     4  11  21  39  66  95 126 170 219 282 333 376
#     4  12  24  44  66  86 140 178 214 254 340 410
#
# _framework density 26.014786999999998
#
# number of rings (size 3 to 8) (size 9 to 14) (size 15 to 20)
#    0.000    1.455    1.818    6.545    0.000    0.727 
#    3.273    2.727    0.000    0.000    0.000    0.000 
#    0.000    0.000    0.000    0.000    0.000    0.000 
#
# Total GULP energy -123015.308809 kJ/mol
# GULP energy per Si atom -5591.604946 kJ/mol
# Density = 2.595558 g / cm^3
# Si number density = 26.014787 Si / 1000 Ang^3
#
#
#
# Elastic Constant Matrix: (Units=GPa)
#
#
# Indices 1 2 3 4 5 6 
#
# 1 51.3716 2.8959 13.0240 0.0000 -15.4168 0.0000
# 2 2.8959 108.0187 67.1928 0.0000 10.6060 0.0000
# 3 13.0240 67.1928 147.1613 0.0000 24.8654 0.0000
# 4 0.0000 0.0000 0.0000 67.1705 0.0000 -0.2564
# 5 -15.4168 10.6060 24.8654 0.0000 37.9823 0.0000
# 6 0.0000 0.0000 0.0000 -0.2564 0.0000 31.6744
#
#
#
# Elastic Compliance Matrix: (Units=1/GPa)
#
#
# Indices 1 2 3 4 5 6 
#
# 1 0.024463 0.001089 -0.004822 0.000000 0.012782 0.000000
# 2 0.001089 0.012981 -0.006168 0.000000 0.000855 0.000000
# 3 -0.004822 -0.006168 0.011331 0.000000 -0.007653 0.000000
# 4 0.000000 0.000000 0.000000 0.014888 0.000000 0.000120
# 5 0.012782 0.000855 -0.007653 0.000000 0.036288 0.000000
# 6 0.000000 0.000000 0.000000 0.000120 0.000000 0.031572
#
#
# Mechanical properties :
#
#
# Convention : Reuss Voigt Hill
#
# Bulk Modulus (GPa) = 34.51461 52.53078 43.52269
# Shear Modulus (GPa) = 31.05907 42.26137 36.66022
#
# Velocity S-wave (km/s) = 3.45904 4.03490 3.75801
# Velocity P-wave (km/s) = 5.40827 6.47640 5.96628
#
# Compressibility (1/GPa) = 0.02897324
#
# Stress axis : x y z
#
# Youngs Moduli (GPa) = 40.87802 77.03392 88.25088
#
# Poissons Ratio (x) = -0.08385 0.42553
# Poissons Ratio (y) = -0.04450 0.54433
# Poissons Ratio (z) = 0.19710 0.47514
#
# Static dielectric constant tensor:
#      x y z
#    x 2.052040 0.000000 0.006630 
#    y 0.000000 2.076370 0.000000 
#    z 0.006630 0.000000 2.095840 
# 
# From -- ./inp_files/47063.got.cif
#   From: 2010.05.17/outbox.cif.g08.bks.cpg/sg15_24_cif.got.tgz:47063.got - 2010.06.03 18:47:42.
