data_PCOD9277947
_publ_section_title
;
Structure prediction by ZEFSAII (Michael W. Deem and Ramdas Pophale) SiO2 
 PCOD9277947
Probable space group: C 2/C
;
_chemical_formula_sum "Si O2"
_cell_formula_units_Z 40
_cell_length_a 25.494622
_cell_length_b 9.342825
_cell_length_c 18.002692
_cell_angle_alpha 90.000000
_cell_angle_beta 152.887778
_cell_angle_gamma 90.000000
_cell_volume 1954.233382
_symmetry_space_group_name_H-M "C 2/C"
_symmetry_group_IT_number 15
_symmetry_cell_setting 'monoclinic'
loop_
_space_group_symop_operation_xyz
x,y,z
-x,y,1/2-z
-x,-y,-z
x,-y,1/2+z
1/2+x,1/2+y,z
1/2-x,1/2+y,1/2-z
1/2-x,1/2-y,-z
1/2+x,1/2-y,1/2+z
loop_
_atom_site_type_symbol
_atom_site_label
_atom_site_fract_x
_atom_site_fract_y
_atom_site_fract_z
Si Si1 0.082566 0.790969 0.944245
Si Si2 0.609581 0.287349 0.435912
Si Si3 0.806380 0.473237 0.945082
Si Si4 0.392109 0.522457 0.417542
Si Si5 0.662832 0.564801 0.409660
O O1 0.174121 0.837840 0.996509
O O2 0.960062 0.871893 0.775956
O O3 0.081020 0.620702 0.933724
O O4 0.128964 0.863546 0.076525
O O5 0.500000 0.236647 0.250000
O O6 0.678666 0.143599 0.538823
O O7 0.588094 0.371512 0.486920
O O8 0.657963 0.407176 0.440048
O O9 0.713505 0.428917 0.765921
O O10 0.755265 0.437935 0.961731
O O11 0.500000 0.500000 0.500000
#
# Coordination Sequence:
#
# PCOD9277947 Si02
#       5
#     8   8   8   8   8
#     4  10  21  39  61  88 127 162 203 254 313 376
#     4  11  22  41  64  93 129 162 211 261 307 381
#     4  12  23  36  68  97 118 166 218 259 307 375
#     4  11  21  42  64  85 129 171 199 253 330 364
#     4  10  20  42  63  84 126 167 197 256 321 366
#
# _framework density 20.468385000000001
#
# number of rings (size 3 to 8) (size 9 to 14) (size 15 to 20)
#    0.000    1.200    6.000    2.400    2.800    0.000 
#    0.000    1.000    0.000    0.000    0.000    0.000 
#    0.000    0.000    0.000    0.000    0.000    0.000 
#
# Total GULP energy -111340.996211 kJ/mol
# GULP energy per Si atom -5567.049811 kJ/mol
# Density = 2.042180 g / cm^3
# Si number density = 20.468385 Si / 1000 Ang^3
#
#
#
# Elastic Constant Matrix: (Units=GPa)
#
#
# Indices 1 2 3 4 5 6 
#
# 1 129.1244 49.1735 25.6686 0.0000 -5.3319 0.0000
# 2 49.1735 125.5177 18.1806 0.0000 17.6899 0.0000
# 3 25.6686 18.1806 42.5463 0.0000 -12.6433 0.0000
# 4 0.0000 0.0000 0.0000 19.2123 0.0000 -4.5488
# 5 -5.3319 17.6899 -12.6433 0.0000 22.1748 0.0000
# 6 0.0000 0.0000 0.0000 -4.5488 0.0000 0.1669
#
#
#
# Elastic Compliance Matrix: (Units=1/GPa)
#
#
# Indices 1 2 3 4 5 6 
#
# 1 0.010071 -0.004007 -0.003244 0.000000 0.003768 0.000000
# 2 -0.004007 0.012856 -0.007718 0.000000 -0.015620 0.000000
# 3 -0.003244 -0.007718 0.036549 0.000000 0.026216 0.000000
# 4 0.000000 0.000000 0.000000 -0.009545 0.000000 -0.260151
# 5 0.003768 -0.015620 0.026216 0.000000 0.073410 0.000000
# 6 0.000000 0.000000 0.000000 -0.260151 0.000000 -1.098771
#
#
# Mechanical properties :
#
#
# Convention : Reuss Voigt Hill
#
# Bulk Modulus (GPa) = 33.85328 53.69262 43.77295
# Shear Modulus (GPa) = -5.34390 21.92186 8.28898
#
# Velocity S-wave (km/s) = -1.61755 3.27618 2.01456
# Velocity P-wave (km/s) = 3.61754 6.37182 5.18105
#
# Compressibility (1/GPa) = 0.02953924
#
# Stress axis : x y z
#
# Youngs Moduli (GPa) = 99.29790 77.78548 27.36017
#
# Poissons Ratio (x) = 0.31165 0.08876
# Poissons Ratio (y) = 0.39784 0.21116
# Poissons Ratio (z) = 0.32212 0.60034
#
# Static dielectric constant tensor:
#      x y z
#    x 1.724760 0.000000 -0.010880 
#    y 0.000000 1.846870 0.000000 
#    z -0.010880 0.000000 1.776990 
# 
# From -- ./inp_files/218823.got.cif
#   From: 2010.05.17/outbox.cif.g08.bks.cpg/sg15_110_cif.got.tgz:218823.got - 2010.06.03 18:47:42.
