data_PCOD9277478
_publ_section_title
;
Structure prediction by ZEFSAII (Michael W. Deem and Ramdas Pophale) SiO2 
 PCOD9277478
Probable space group: C 2/C
;
_chemical_formula_sum "Si O2"
_cell_formula_units_Z 52
_cell_length_a 11.438398
_cell_length_b 14.767719
_cell_length_c 22.263642
_cell_angle_alpha 90.000000
_cell_angle_beta 37.302165
_cell_angle_gamma 90.000000
_cell_volume 2279.085855
_symmetry_space_group_name_H-M "C 2/C"
_symmetry_group_IT_number 15
_symmetry_cell_setting 'monoclinic'
loop_
_space_group_symop_operation_xyz
x,y,z
-x,y,1/2-z
-x,-y,-z
x,-y,1/2+z
1/2+x,1/2+y,z
1/2-x,1/2+y,1/2-z
1/2-x,1/2-y,-z
1/2+x,1/2-y,1/2+z
loop_
_atom_site_type_symbol
_atom_site_label
_atom_site_fract_x
_atom_site_fract_y
_atom_site_fract_z
Si Si1 0.322727 0.575199 0.618235
Si Si2 0.000000 0.291156 0.250000
Si Si3 0.076341 0.151349 0.119354
Si Si4 0.755927 0.018831 0.265113
Si Si5 0.886298 0.427145 0.854865
Si Si6 0.490466 0.911673 0.045831
Si Si7 0.594856 0.710885 0.440325
O O1 0.156383 0.640560 0.711457
O O2 0.357505 0.513308 0.661631
O O3 0.271011 0.508667 0.582807
O O4 0.475010 0.647659 0.534060
O O5 0.903940 0.235040 0.342841
O O6 0.979310 0.186647 0.096894
O O7 0.288642 0.108213 0.022485
O O8 0.920629 0.087992 0.217787
O O9 0.678150 0.937360 0.337743
O O10 0.551278 0.070601 0.337208
O O11 0.803956 0.330136 0.870190
O O12 0.000000 0.459707 0.750000
O O13 0.428322 0.817287 0.040724
O O14 0.500000 0.000000 0.000000
#
# Coordination Sequence:
#
# PCOD9277478 Si02
#       7
#     8   4   8   8   8   8   8
#     4  11  21  39  68 103 131 173 223 290 336 393
#     4  12  22  40  66  96 140 174 234 280 328 412
#     4  12  25  44  71 102 130 192 234 281 341 407
#     4  11  24  44  71 100 143 177 232 285 345 406
#     4  10  20  41  64 104 136 168 223 293 340 391
#     4  12  28  49  65 101 143 186 227 283 346 415
#     4  12  24  43  74 100 136 177 235 282 346 413
#
# _framework density 22.816165999999999
#
# number of rings (size 3 to 8) (size 9 to 14) (size 15 to 20)
#    0.000    0.615    6.923    3.692    2.154    0.000 
#    2.769    0.769    0.000    0.000    0.000    0.000 
#    0.000    0.000    0.000    0.000    0.000    0.000 
#
# Total GULP energy -144911.807703 kJ/mol
# GULP energy per Si atom -5573.531065 kJ/mol
# Density = 2.276424 g / cm^3
# Si number density = 22.816166 Si / 1000 Ang^3
#
#
#
# Elastic Constant Matrix: (Units=GPa)
#
#
# Indices 1 2 3 4 5 6 
#
# 1 40.0314 41.5683 5.6376 0.0002 5.7950 -0.0001
# 2 41.5683 164.6598 39.5137 0.0002 -8.5901 -0.0001
# 3 5.6376 39.5137 77.8291 0.0006 -1.2214 -0.0004
# 4 0.0002 0.0002 0.0006 41.5732 -0.0003 -2.5984
# 5 5.7950 -8.5901 -1.2214 -0.0003 29.3449 0.0001
# 6 -0.0001 -0.0001 -0.0004 -2.5984 0.0001 19.8597
#
#
#
# Elastic Compliance Matrix: (Units=1/GPa)
#
#
# Indices 1 2 3 4 5 6 
#
# 1 0.036986 -0.010466 0.002473 0.000000 -0.010265 0.000000
# 2 -0.010466 0.009983 -0.004234 0.000000 0.004813 0.000000
# 3 0.002473 -0.004234 0.014802 0.000000 -0.001112 0.000000
# 4 0.000000 0.000000 0.000000 0.024252 0.000000 0.003173
# 5 -0.010265 0.004813 -0.001112 0.000000 0.037467 0.000000
# 6 0.000000 0.000000 0.000000 0.003173 0.000000 0.050768
#
#
# Mechanical properties :
#
#
# Convention : Reuss Voigt Hill
#
# Bulk Modulus (GPa) = 26.79813 50.66217 38.73015
# Shear Modulus (GPa) = 23.67971 31.20892 27.44432
#
# Velocity S-wave (km/s) = 3.22506 3.70245 3.47197
# Velocity P-wave (km/s) = 5.06347 6.36633 5.75191
#
# Compressibility (1/GPa) = 0.03731603
#
# Stress axis : x y z
#
# Youngs Moduli (GPa) = 27.03730 100.17498 67.55894
#
# Poissons Ratio (x) = 1.04845 -0.16710
# Poissons Ratio (y) = 0.28298 0.28608
# Poissons Ratio (z) = -0.06688 0.42419
#
# Static dielectric constant tensor:
#      x y z
#    x 1.954370 0.000000 -0.101430 
#    y 0.000000 1.819780 0.000000 
#    z -0.101430 0.000000 1.986300 
# 
# From -- ./inp_files/269886.got.cif
#   From: 2010.05.17/outbox.cif.g08.bks.cpg/sg15_135_cif.got.tgz:269886.got - 2010.06.03 18:47:42.
