data_PCOD9277916
_publ_section_title
;
Structure prediction by ZEFSAII (Michael W. Deem and Ramdas Pophale) SiO2 
 PCOD9277916
Probable space group: C 2/C
;
_chemical_formula_sum "Si O2"
_cell_formula_units_Z 52
_cell_length_a 16.194877
_cell_length_b 8.544049
_cell_length_c 26.796991
_cell_angle_alpha 90.000000
_cell_angle_beta 137.061401
_cell_angle_gamma 90.000000
_cell_volume 2525.870703
_symmetry_space_group_name_H-M "C 2/C"
_symmetry_group_IT_number 15
_symmetry_cell_setting 'monoclinic'
loop_
_space_group_symop_operation_xyz
x,y,z
-x,y,1/2-z
-x,-y,-z
x,-y,1/2+z
1/2+x,1/2+y,z
1/2-x,1/2+y,1/2-z
1/2-x,1/2-y,-z
1/2+x,1/2-y,1/2+z
loop_
_atom_site_type_symbol
_atom_site_label
_atom_site_fract_x
_atom_site_fract_y
_atom_site_fract_z
Si Si1 0.000000 0.059480 0.250000
Si Si2 0.338339 0.192181 0.924641
Si Si3 0.780974 0.922771 0.216407
Si Si4 0.795153 0.090442 0.084824
Si Si5 0.399460 0.305528 0.477381
Si Si6 0.642698 0.746664 0.651935
Si Si7 0.607539 0.397072 0.465420
O O1 0.091112 0.964728 0.253798
O O2 0.091455 0.140878 0.329999
O O3 0.277107 0.212695 0.843882
O O4 0.289056 0.024815 0.919655
O O5 0.481627 0.201507 0.979214
O O6 0.307832 0.308525 0.956912
O O7 0.797941 0.859392 0.279327
O O8 0.696496 0.078319 0.179112
O O9 0.703752 0.230943 0.033549
O O10 0.837620 0.983663 0.057755
O O11 0.338637 0.318114 0.395909
O O12 0.444779 0.462282 0.523913
O O13 0.497602 0.725303 0.595767
#
# Coordination Sequence:
#
# PCOD9277916 Si02
#       7
#     4   8   8   8   8   8   8
#     4  10  20  42  62  88 122 170 206 258 316 384
#     4  10  22  40  62  92 124 167 207 264 305 381
#     4  11  24  40  69  87 129 166 217 259 325 378
#     4  11  21  41  65  91 126 171 209 259 321 368
#     4  11  23  41  65  95 131 163 211 262 317 377
#     4  11  23  40  64  94 122 170 207 262 317 383
#     4  11  24  39  65  94 130 161 216 258 316 376
#
# _framework density 20.586960999999999
#
# number of rings (size 3 to 8) (size 9 to 14) (size 15 to 20)
#    0.000    1.231    4.615    3.231    6.462    0.000 
#    0.000    0.000    0.000    4.615    0.000    0.000 
#    0.000    0.000    0.000    0.000    0.000    0.000 
#
# Total GULP energy -144849.164833 kJ/mol
# GULP energy per Si atom -5571.121724 kJ/mol
# Density = 2.054010 g / cm^3
# Si number density = 20.586961 Si / 1000 Ang^3
#
#
#
# Elastic Constant Matrix: (Units=GPa)
#
#
# Indices 1 2 3 4 5 6 
#
# 1 95.7764 19.9392 41.8659 0.0000 -12.9102 0.0000
# 2 19.9392 50.7075 26.8047 0.0000 3.4645 0.0000
# 3 41.8659 26.8047 93.1218 0.0000 1.2010 0.0000
# 4 0.0000 0.0000 0.0000 25.5951 0.0000 -4.3282
# 5 -12.9102 3.4645 1.2010 0.0000 27.2767 0.0000
# 6 0.0000 0.0000 0.0000 -4.3282 0.0000 26.3660
#
#
#
# Elastic Compliance Matrix: (Units=1/GPa)
#
#
# Indices 1 2 3 4 5 6 
#
# 1 0.014656 -0.003240 -0.005754 0.000000 0.007601 0.000000
# 2 -0.003240 0.024171 -0.005444 0.000000 -0.004364 0.000000
# 3 -0.005754 -0.005444 0.014927 0.000000 -0.002689 0.000000
# 4 0.000000 0.000000 0.000000 0.040185 0.000000 0.006597
# 5 0.007601 -0.004364 -0.002689 0.000000 0.040932 0.000000
# 6 0.000000 0.000000 0.000000 0.006597 0.000000 0.039011
#
#
# Mechanical properties :
#
#
# Convention : Reuss Voigt Hill
#
# Bulk Modulus (GPa) = 40.19918 46.31391 43.25655
# Shear Modulus (GPa) = 23.69080 25.91395 24.80238
#
# Velocity S-wave (km/s) = 3.39598 3.55174 3.47473
# Velocity P-wave (km/s) = 5.91150 6.27419 6.09554
#
# Compressibility (1/GPa) = 0.02487613
#
# Stress axis : x y z
#
# Youngs Moduli (GPa) = 68.23374 41.37129 66.99087
#
# Poissons Ratio (x) = 0.13406 0.38547
# Poissons Ratio (y) = 0.22111 0.36473
# Poissons Ratio (z) = 0.39263 0.22524
#
# Static dielectric constant tensor:
#      x y z
#    x 1.764780 0.000000 -0.018850 
#    y 0.000000 1.749900 0.000000 
#    z -0.018850 0.000000 1.800560 
# 
# From -- ./inp_files/298444.got.cif
#   From: 2010.05.17/outbox.cif.g08.bks.cpg/sg15_150_cif.got.tgz:298444.got - 2010.06.03 18:47:42.
