data_PCOD9277548
_publ_section_title
;
Structure prediction by ZEFSAII (Michael W. Deem and Ramdas Pophale) SiO2 
 PCOD9277548
Probable space group: C 2/C
;
_chemical_formula_sum "Si O2"
_cell_formula_units_Z 64
_cell_length_a 13.608247
_cell_length_b 29.030455
_cell_length_c 12.313097
_cell_angle_alpha 90.000000
_cell_angle_beta 138.210386
_cell_angle_gamma 90.000000
_cell_volume 3241.578724
_symmetry_space_group_name_H-M "C 2/C"
_symmetry_group_IT_number 15
_symmetry_cell_setting 'monoclinic'
loop_
_space_group_symop_operation_xyz
x,y,z
-x,y,1/2-z
-x,-y,-z
x,-y,1/2+z
1/2+x,1/2+y,z
1/2-x,1/2+y,1/2-z
1/2-x,1/2-y,-z
1/2+x,1/2-y,1/2+z
loop_
_atom_site_type_symbol
_atom_site_label
_atom_site_fract_x
_atom_site_fract_y
_atom_site_fract_z
Si Si1 0.477711 0.068082 0.937920
Si Si2 0.113451 0.517761 0.252476
Si Si3 0.156493 0.229587 0.325255
Si Si4 0.322720 0.147140 0.339756
Si Si5 0.351078 0.411554 0.986254
Si Si6 0.318093 0.392503 0.209219
Si Si7 0.478324 0.222742 0.105614
Si Si8 0.721441 0.709822 0.753953
O O1 0.328613 0.081319 0.877539
O O2 0.421197 0.036130 0.793364
O O3 0.574878 0.039042 0.103623
O O4 0.582116 0.112442 0.006069
O O5 0.271150 0.538622 0.414995
O O6 0.000000 0.535547 0.250000
O O7 0.250000 0.250000 0.500000
O O8 0.227621 0.184398 0.328215
O O9 0.167839 0.270715 0.245949
O O10 0.000000 0.219378 0.250000
O O11 0.220828 0.119468 0.168960
O O12 0.444785 0.175863 0.372476
O O13 0.320240 0.389049 0.079590
O O14 0.527717 0.415127 0.126911
O O15 0.308707 0.343700 0.262241
O O16 0.500000 0.227518 0.250000
O O17 0.568235 0.263384 0.120669
O O18 0.308294 0.223089 0.934564
#
# Coordination Sequence:
#
# PCOD9277548 Si02
#       8
#     8   8   8   8   8   8   8   8
#     4  10  21  39  66  92 121 158 208 267 301 402
#     4  10  20  41  65  90 122 160 206 250 334 382
#     4  11  25  44  63  81 126 185 224 273 313 363
#     4  10  22  40  61  89 121 164 221 254 323 372
#     4  10  23  37  65  93 127 164 192 265 331 397
#     4  11  22  38  62  97 129 157 210 257 319 390
#     4  11  22  35  58  89 129 165 197 258 317 374
#     4  11  24  38  59  90 124 166 221 256 307 376
#
# _framework density 19.743466000000002
#
# number of rings (size 3 to 8) (size 9 to 14) (size 15 to 20)
#    0.000    1.500    2.500    2.625    7.000    0.500 
#    2.250    0.000    0.000    0.000    0.000    0.000 
#    0.000    0.000    0.000    0.000    0.000    0.000 
#
# Total GULP energy -178461.089998 kJ/mol
# GULP energy per Si atom -5576.909062 kJ/mol
# Density = 1.969853 g / cm^3
# Si number density = 19.743466 Si / 1000 Ang^3
#
#
#
# Elastic Constant Matrix: (Units=GPa)
#
#
# Indices 1 2 3 4 5 6 
#
# 1 84.0031 37.2515 31.7261 0.0000 13.7190 0.0000
# 2 37.2515 53.7916 32.7954 0.0000 -0.3998 0.0000
# 3 31.7261 32.7954 99.6256 0.0000 14.7150 0.0000
# 4 0.0000 0.0000 0.0000 6.1110 0.0000 -4.7310
# 5 13.7190 -0.3998 14.7150 0.0000 34.0355 0.0000
# 6 0.0000 0.0000 0.0000 -4.7310 0.0000 16.2495
#
#
#
# Elastic Compliance Matrix: (Units=1/GPa)
#
#
# Indices 1 2 3 4 5 6 
#
# 1 0.019107 -0.012831 -0.000749 0.000000 -0.007528 0.000000
# 2 -0.012831 0.032351 -0.007887 0.000000 0.008962 0.000000
# 3 -0.000749 -0.007887 0.013717 0.000000 -0.005721 0.000000
# 4 0.000000 0.000000 0.000000 0.211256 0.000000 0.061507
# 5 -0.007528 0.008962 -0.005721 0.000000 0.034995 0.000000
# 6 0.000000 0.000000 0.000000 0.061507 0.000000 0.079448
#
#
# Mechanical properties :
#
#
# Convention : Reuss Voigt Hill
#
# Bulk Modulus (GPa) = 44.96155 48.99627 46.97891
# Shear Modulus (GPa) = 11.33217 20.32236 15.82726
#
# Velocity S-wave (km/s) = 2.39837 3.21178 2.83441
# Velocity P-wave (km/s) = 5.52194 6.21485 5.87862
#
# Compressibility (1/GPa) = 0.02224123
#
# Stress axis : x y z
#
# Youngs Moduli (GPa) = 52.33788 30.91080 72.89976
#
# Poissons Ratio (x) = 0.39662 0.05459
# Poissons Ratio (y) = 0.67155 0.57497
# Poissons Ratio (z) = 0.03919 0.24380
#
# Static dielectric constant tensor:
#      x y z
#    x 1.667420 0.000000 -0.015060 
#    y 0.000000 1.735600 0.000000 
#    z -0.015060 0.000000 1.734360 
# 
# From -- ./inp_files/101663.got.cif
#   From: 2010.05.17/outbox.cif.g08.bks.cpg/sg15_51_cif.got.tgz:101663.got - 2010.06.03 18:47:42.
