data_PCOD9277741
_publ_section_title
;
Structure prediction by ZEFSAII (Michael W. Deem and Ramdas Pophale) SiO2 
 PCOD9277741
Probable space group: C 2/C
;
_chemical_formula_sum "Si O2"
_cell_formula_units_Z 56
_cell_length_a 14.687253
_cell_length_b 8.849361
_cell_length_c 19.842418
_cell_angle_alpha 90.000000
_cell_angle_beta 116.497957
_cell_angle_gamma 90.000000
_cell_volume 2308.054110
_symmetry_space_group_name_H-M "C 2/C"
_symmetry_group_IT_number 15
_symmetry_cell_setting 'monoclinic'
loop_
_space_group_symop_operation_xyz
x,y,z
-x,y,1/2-z
-x,-y,-z
x,-y,1/2+z
1/2+x,1/2+y,z
1/2-x,1/2+y,1/2-z
1/2-x,1/2-y,-z
1/2+x,1/2-y,1/2+z
loop_
_atom_site_type_symbol
_atom_site_label
_atom_site_fract_x
_atom_site_fract_y
_atom_site_fract_z
Si Si1 0.882696 0.650242 0.564579
Si Si2 0.621367 0.716101 0.302823
Si Si3 0.911755 0.749371 0.310193
Si Si4 0.543252 0.335272 0.029478
Si Si5 0.136398 0.134549 0.844153
Si Si6 0.881504 0.596374 0.823927
Si Si7 0.336505 0.861793 0.462632
O O1 0.836665 0.682789 0.622214
O O2 0.844113 0.501828 0.515098
O O3 0.886772 0.781118 0.509553
O O4 0.001438 0.634487 0.621553
O O5 0.500000 0.730597 0.250000
O O6 0.632897 0.547469 0.336990
O O7 0.660300 0.780160 0.243630
O O8 0.850540 0.822189 0.229359
O O9 0.887065 0.572529 0.297133
O O10 0.897872 0.813294 0.380772
O O11 0.029050 0.794694 0.332198
O O12 0.500000 0.500000 0.000000
O O13 0.440092 0.233670 0.002550
O O14 0.221258 0.199532 0.922972
O O15 0.837150 0.584179 0.884318
#
# Coordination Sequence:
#
# PCOD9277741 Si02
#       7
#     8   8   8   8   8   8   8
#     4  10  20  41  68  93 123 174 223 272 330 402
#     4  10  21  40  68  93 124 177 222 265 330 413
#     4  11  22  43  62  95 130 183 213 274 342 408
#     4  11  22  40  69  93 130 173 224 268 341 398
#     4  11  26  39  64  96 141 166 223 278 339 398
#     4  10  21  40  70  90 126 176 226 268 335 406
#     4  11  23  44  64  99 133 173 224 287 327 397
#
# _framework density 24.262861999999998
#
# number of rings (size 3 to 8) (size 9 to 14) (size 15 to 20)
#    0.000    1.429    4.286    1.714   10.000    2.286 
#    0.000    0.000    0.000    0.000    0.000    0.000 
#    0.000    0.000    0.000    0.000    0.000    0.000 
#
# Total GULP energy -156377.178448 kJ/mol
# GULP energy per Si atom -5584.899230 kJ/mol
# Density = 2.420764 g / cm^3
# Si number density = 24.262862 Si / 1000 Ang^3
#
#
#
# Elastic Constant Matrix: (Units=GPa)
#
#
# Indices 1 2 3 4 5 6 
#
# 1 47.3404 -11.7295 18.6939 0.0000 8.0349 0.0000
# 2 -11.7295 81.8085 28.6865 0.0000 -11.1870 0.0000
# 3 18.6939 28.6865 170.5150 0.0000 3.9124 0.0000
# 4 0.0000 0.0000 0.0000 113.4907 0.0000 -26.1931
# 5 8.0349 -11.1870 3.9124 0.0000 32.2226 0.0000
# 6 0.0000 0.0000 0.0000 -26.1931 0.0000 12.5887
#
#
#
# Elastic Compliance Matrix: (Units=1/GPa)
#
#
# Indices 1 2 3 4 5 6 
#
# 1 0.024106 0.004007 -0.003220 0.000000 -0.004229 0.000000
# 2 0.004007 0.014437 -0.002968 0.000000 0.004374 0.000000
# 3 -0.003220 -0.002968 0.006741 0.000000 -0.001046 0.000000
# 4 0.000000 0.000000 0.000000 0.016952 0.000000 0.035271
# 5 -0.004229 0.004374 -0.001046 0.000000 0.033734 0.000000
# 6 0.000000 0.000000 0.000000 0.035271 0.000000 0.152824
#
#
# Mechanical properties :
#
#
# Convention : Reuss Voigt Hill
#
# Bulk Modulus (GPa) = 24.43728 41.21841 32.82784
# Shear Modulus (GPa) = 18.74090 49.26126 34.00108
#
# Velocity S-wave (km/s) = 2.78224 4.51079 3.74754
# Velocity P-wave (km/s) = 4.51829 6.64491 5.68198
#
# Compressibility (1/GPa) = 0.04092109
#
# Stress axis : x y z
#
# Youngs Moduli (GPa) = 41.48416 69.26572 148.34621
#
# Poissons Ratio (x) = -0.27755 0.47765
# Poissons Ratio (y) = -0.16623 0.44036
# Poissons Ratio (z) = 0.13357 0.20561
#
# Static dielectric constant tensor:
#      x y z
#    x 2.097710 0.000000 -0.064520 
#    y 0.000000 1.967670 0.000000 
#    z -0.064520 0.000000 1.931720 
# 
# From -- ./inp_files/247592.got.cif
#   From: 2010.05.17/outbox.cif.g08.bks.cpg/sg15_124_cif.got.tgz:247592.got - 2010.06.03 18:47:42.
