data_PCOD9277058
_publ_section_title
;
Structure prediction by ZEFSAII (Michael W. Deem and Ramdas Pophale) SiO2 
 PCOD9277058
Probable space group: C 2/C
;
_chemical_formula_sum "Si O2"
_cell_formula_units_Z 48
_cell_length_a 11.289848
_cell_length_b 20.290687
_cell_length_c 9.856302
_cell_angle_alpha 90.000000
_cell_angle_beta 105.797875
_cell_angle_gamma 90.000000
_cell_volume 2172.585516
_symmetry_space_group_name_H-M "C 2/C"
_symmetry_group_IT_number 15
_symmetry_cell_setting 'monoclinic'
loop_
_space_group_symop_operation_xyz
x,y,z
-x,y,1/2-z
-x,-y,-z
x,-y,1/2+z
1/2+x,1/2+y,z
1/2-x,1/2+y,1/2-z
1/2-x,1/2-y,-z
1/2+x,1/2-y,1/2+z
loop_
_atom_site_type_symbol
_atom_site_label
_atom_site_fract_x
_atom_site_fract_y
_atom_site_fract_z
Si Si1 0.820729 0.237697 0.326534
Si Si2 0.480710 0.423416 0.464191
Si Si3 0.500000 0.173149 0.750000
Si Si4 0.794063 0.853103 0.083263
Si Si5 0.138518 0.481820 0.085826
Si Si6 0.706282 0.931576 0.377760
Si Si7 0.500000 0.653443 0.250000
O O1 0.791319 0.189121 0.441600
O O2 0.719094 0.295152 0.308131
O O3 0.945322 0.283322 0.357231
O O4 0.867452 0.192563 0.216363
O O5 0.500000 0.500000 0.500000
O O6 0.581947 0.394482 0.395028
O O7 0.341687 0.412533 0.373163
O O8 0.497248 0.387215 0.612408
O O9 0.391610 0.127170 0.658890
O O10 0.685498 0.907920 0.062768
O O11 0.156585 0.484606 0.252668
O O12 0.217479 0.534246 0.026588
O O13 0.000000 0.500000 0.000000
#
# Coordination Sequence:
#
# PCOD9277058 Si02
#       7
#     8   8   4   8   8   8   4
#     4   9  19  40  69  92 129 183 224 270 330 396
#     4  11  24  39  64 102 135 174 218 281 346 411
#     4  11  20  44  68  98 128 187 220 282 334 401
#     4  10  20  40  67  96 133 177 220 276 337 402
#     4  12  23  42  66 101 133 175 220 277 343 399
#     4  12  25  40  69  99 142 170 227 280 342 408
#     4   9  22  42  66  96 134 177 226 270 340 403
#
# _framework density 22.093492000000001
#
# number of rings (size 3 to 8) (size 9 to 14) (size 15 to 20)
#    0.000    1.333    5.000    0.000    2.333    0.667 
#    0.000    7.500    0.000   12.000    0.000    0.000 
#    0.000    0.000    0.000    0.000    0.000    0.000 
#
# Total GULP energy -133669.302941 kJ/mol
# GULP energy per Si atom -5569.554289 kJ/mol
# Density = 2.204321 g / cm^3
# Si number density = 22.093492 Si / 1000 Ang^3
#
#
#
# Elastic Constant Matrix: (Units=GPa)
#
#
# Indices 1 2 3 4 5 6 
#
# 1 120.8915 43.2947 11.0348 0.0000 -2.8716 0.0000
# 2 43.2947 113.9719 9.1694 0.0000 -8.0808 0.0000
# 3 11.0348 9.1694 44.0412 0.0000 -9.5608 0.0000
# 4 0.0000 0.0000 0.0000 20.1958 0.0000 -15.8913
# 5 -2.8716 -8.0808 -9.5608 0.0000 42.3429 0.0000
# 6 0.0000 0.0000 0.0000 -15.8913 0.0000 46.2211
#
#
#
# Elastic Compliance Matrix: (Units=1/GPa)
#
#
# Indices 1 2 3 4 5 6 
#
# 1 0.009704 -0.003573 -0.001780 0.000000 -0.000426 0.000000
# 2 -0.003573 0.010313 -0.000922 0.000000 0.001518 0.000000
# 3 -0.001780 -0.000922 0.024480 0.000000 0.005231 0.000000
# 4 0.000000 0.000000 0.000000 0.067879 0.000000 0.023337
# 5 -0.000426 0.001518 0.005231 0.000000 0.025059 0.000000
# 6 0.000000 0.000000 0.000000 0.023337 0.000000 0.029659
#
#
# Mechanical properties :
#
#
# Convention : Reuss Voigt Hill
#
# Bulk Modulus (GPa) = 31.30322 45.10026 38.20174
# Shear Modulus (GPa) = 26.27536 36.11233 31.19385
#
# Velocity S-wave (km/s) = 3.45234 4.04731 3.76160
# Velocity P-wave (km/s) = 5.48551 6.50374 6.01620
#
# Compressibility (1/GPa) = 0.03194559
#
# Stress axis : x y z
#
# Youngs Moduli (GPa) = 103.05134 96.96245 40.85048
#
# Poissons Ratio (x) = 0.34647 0.07271
# Poissons Ratio (y) = 0.36823 0.03768
# Poissons Ratio (z) = 0.18342 0.08945
#
# Static dielectric constant tensor:
#      x y z
#    x 1.877350 0.000000 -0.065410 
#    y 0.000000 1.891980 0.000000 
#    z -0.065410 0.000000 2.013830 
# 
# From -- ./inp_files/87513.got.cif
#   From: 2010.05.17/outbox.cif.g08.bks.cpg/sg15_44_cif.got.tgz:87513.got - 2010.06.03 18:47:42.
