data_PCOD9277596
_publ_section_title
;
Structure prediction by ZEFSAII (Michael W. Deem and Ramdas Pophale) SiO2 
 PCOD9277596
Probable space group: C 2/C
;
_chemical_formula_sum "Si O2"
_cell_formula_units_Z 48
_cell_length_a 20.299704
_cell_length_b 8.897274
_cell_length_c 19.426884
_cell_angle_alpha 90.000000
_cell_angle_beta 134.534392
_cell_angle_gamma 90.000000
_cell_volume 2501.125829
_symmetry_space_group_name_H-M "C 2/C"
_symmetry_group_IT_number 15
_symmetry_cell_setting 'monoclinic'
loop_
_space_group_symop_operation_xyz
x,y,z
-x,y,1/2-z
-x,-y,-z
x,-y,1/2+z
1/2+x,1/2+y,z
1/2-x,1/2+y,1/2-z
1/2-x,1/2-y,-z
1/2+x,1/2-y,1/2+z
loop_
_atom_site_type_symbol
_atom_site_label
_atom_site_fract_x
_atom_site_fract_y
_atom_site_fract_z
Si Si1 0.502484 0.141664 0.950503
Si Si2 0.669162 0.688587 0.989948
Si Si3 0.062813 0.456837 0.862349
Si Si4 0.751042 0.107968 0.952313
Si Si5 0.817963 0.172110 0.338546
Si Si6 0.674869 0.324988 0.137485
O O1 0.527104 0.072903 0.893897
O O2 0.405191 0.228481 0.878802
O O3 0.582053 0.251452 0.038800
O O4 0.500000 0.000000 0.000000
O O5 0.582147 0.794565 0.911225
O O6 0.750000 0.750000 0.000000
O O7 0.664855 0.509777 0.973720
O O8 0.694300 0.701776 0.088814
O O9 0.158800 0.519400 0.903097
O O10 0.000000 0.440332 0.750000
O O11 0.757096 0.157819 0.878039
O O12 0.750000 0.250000 0.000000
O O13 0.726223 0.221560 0.230759
O O14 0.838489 0.994645 0.344760
#
# Coordination Sequence:
#
# PCOD9277596 Si02
#       6
#     8   8   8   8   8   8
#     4  12  23  40  65  94 133 166 211 271 319 384
#     4   9  21  39  61  86 125 161 207 253 307 380
#     4  11  22  40  64  92 128 167 213 261 319 379
#     4  10  20  41  66  87 124 167 210 260 315 372
#     4  11  23  41  63  98 126 167 217 260 328 384
#     4  11  24  41  68  92 128 170 212 264 325 388
#
# _framework density 19.191358000000001
#
# number of rings (size 3 to 8) (size 9 to 14) (size 15 to 20)
#    0.000    1.333    3.333    2.500    0.000    2.667 
#    0.000    0.833    0.000    0.000    0.000    0.000 
#    0.000    0.000    0.000    0.000    0.000    0.000 
#
# Total GULP energy -133945.036511 kJ/mol
# GULP energy per Si atom -5581.043188 kJ/mol
# Density = 1.914768 g / cm^3
# Si number density = 19.191358 Si / 1000 Ang^3
#
#
#
# Elastic Constant Matrix: (Units=GPa)
#
#
# Indices 1 2 3 4 5 6 
#
# 1 61.5854 11.5750 4.0984 0.0000 -4.7992 0.0000
# 2 11.5750 117.0537 46.5712 0.0000 -10.7778 0.0000
# 3 4.0984 46.5712 98.0201 0.0000 -11.7131 0.0000
# 4 0.0000 0.0000 0.0000 21.3585 0.0000 -2.7222
# 5 -4.7992 -10.7778 -11.7131 0.0000 16.5389 0.0000
# 6 0.0000 0.0000 0.0000 -2.7222 0.0000 34.7441
#
#
#
# Elastic Compliance Matrix: (Units=1/GPa)
#
#
# Indices 1 2 3 4 5 6 
#
# 1 0.016814 -0.001470 0.000507 0.000000 0.004280 0.000000
# 2 -0.001470 0.010866 -0.004704 0.000000 0.003323 0.000000
# 3 0.000507 -0.004704 0.013183 0.000000 0.006418 0.000000
# 4 0.000000 0.000000 0.000000 0.047292 0.000000 0.003705
# 5 0.004280 0.003323 0.006418 0.000000 0.068416 0.000000
# 6 0.000000 0.000000 0.000000 0.003705 0.000000 0.029072
#
#
# Mechanical properties :
#
#
# Convention : Reuss Voigt Hill
#
# Bulk Modulus (GPa) = 33.86654 44.57204 39.21929
# Shear Modulus (GPa) = 24.17561 28.82261 26.49911
#
# Velocity S-wave (km/s) = 3.55309 3.87958 3.71992
# Velocity P-wave (km/s) = 5.87518 6.58359 6.23945
#
# Compressibility (1/GPa) = 0.02952767
#
# Stress axis : x y z
#
# Youngs Moduli (GPa) = 59.47512 92.03003 75.85694
#
# Poissons Ratio (x) = 0.13531 -0.03846
# Poissons Ratio (y) = 0.08744 0.35684
# Poissons Ratio (z) = -0.03015 0.43292
#
# Static dielectric constant tensor:
#      x y z
#    x 1.671200 0.000000 0.015040 
#    y 0.000000 1.672960 0.000000 
#    z 0.015040 0.000000 1.656190 
# 
# From -- ./inp_files/252003.got.cif
#   From: 2010.05.17/outbox.cif.g08.bks.cpg/sg15_127_cif.got.tgz:252003.got - 2010.06.03 18:47:42.
