data_PCOD9277325
_publ_section_title
;
Structure prediction by ZEFSAII (Michael W. Deem and Ramdas Pophale) SiO2 
 PCOD9277325
Probable space group: C 2/C
;
_chemical_formula_sum "Si O2"
_cell_formula_units_Z 48
_cell_length_a 9.852166
_cell_length_b 21.755414
_cell_length_c 11.263802
_cell_angle_alpha 90.000000
_cell_angle_beta 123.866107
_cell_angle_gamma 90.000000
_cell_volume 2004.661840
_symmetry_space_group_name_H-M "C 2/C"
_symmetry_group_IT_number 15
_symmetry_cell_setting 'monoclinic'
loop_
_space_group_symop_operation_xyz
x,y,z
-x,y,1/2-z
-x,-y,-z
x,-y,1/2+z
1/2+x,1/2+y,z
1/2-x,1/2+y,1/2-z
1/2-x,1/2-y,-z
1/2+x,1/2-y,1/2+z
loop_
_atom_site_type_symbol
_atom_site_label
_atom_site_fract_x
_atom_site_fract_y
_atom_site_fract_z
Si Si1 0.625788 0.303239 0.402000
Si Si2 0.500000 0.455554 0.750000
Si Si3 0.980511 0.841866 0.903700
Si Si4 0.841099 0.496856 0.337135
Si Si5 0.000000 0.262558 0.250000
Si Si6 0.612499 0.868572 0.694376
Si Si7 0.873888 0.636913 0.858372
O O1 0.500000 0.275205 0.250000
O O2 0.750000 0.250000 0.500000
O O3 0.523926 0.332916 0.458932
O O4 0.727535 0.353610 0.379823
O O5 0.529702 0.407520 0.873747
O O6 0.335937 0.494717 0.687294
O O7 0.068874 0.785561 0.881133
O O8 0.786613 0.835662 0.778806
O O9 0.851495 0.558817 0.266308
O O10 0.854210 0.429360 0.288085
O O11 0.000000 0.500000 0.500000
O O12 0.113830 0.308678 0.230485
O O13 0.500000 0.851013 0.750000
O O14 0.528649 0.861193 0.524696
#
# Coordination Sequence:
#
# PCOD9277325 Si02
#       7
#     8   4   8   8   4   8   8
#     4  12  27  46  67 101 136 187 236 295 357 434
#     4   9  20  44  74 104 142 189 236 300 352 429
#     4  10  22  44  70 100 136 180 240 286 361 423
#     4   9  21  41  65 103 141 184 234 287 357 430
#     4  11  24  42  60 102 134 177 224 294 354 423
#     4  10  20  40  73  96 134 190 233 285 352 431
#     4  11  24  42  66  99 141 179 235 294 358 421
#
# _framework density 23.944186999999999
#
# number of rings (size 3 to 8) (size 9 to 14) (size 15 to 20)
#    0.000    1.667    3.333    0.000    4.667    0.667 
#   12.000    0.833    0.000    0.000    0.000    0.000 
#    0.000    0.000    0.000    0.000    0.000    0.000 
#
# Total GULP energy -134100.429700 kJ/mol
# GULP energy per Si atom -5587.517904 kJ/mol
# Density = 2.388969 g / cm^3
# Si number density = 23.944187 Si / 1000 Ang^3
#
#
#
# Elastic Constant Matrix: (Units=GPa)
#
#
# Indices 1 2 3 4 5 6 
#
# 1 103.3173 23.4379 35.6089 0.0000 -6.4559 0.0000
# 2 23.4379 129.1404 25.2782 0.0000 -1.7551 0.0000
# 3 35.6089 25.2782 88.7086 0.0000 6.1075 0.0000
# 4 0.0000 0.0000 0.0000 -80.9002 0.0000 -4.6301
# 5 -6.4559 -1.7551 6.1075 0.0000 44.6754 0.0000
# 6 0.0000 0.0000 0.0000 -4.6301 0.0000 32.0762
#
#
#
# Elastic Compliance Matrix: (Units=1/GPa)
#
#
# Indices 1 2 3 4 5 6 
#
# 1 0.011638 -0.001204 -0.004483 0.000000 0.002247 0.000000
# 2 -0.001204 0.008344 -0.001923 0.000000 0.000417 0.000000
# 3 -0.004483 -0.001923 0.013800 0.000000 -0.002610 0.000000
# 4 0.000000 0.000000 0.000000 -0.012260 0.000000 -0.001770
# 5 0.002247 0.000417 -0.002610 0.000000 0.023082 0.000000
# 6 0.000000 0.000000 0.000000 -0.001770 0.000000 0.030920
#
#
# Mechanical properties :
#
#
# Convention : Reuss Voigt Hill
#
# Bulk Modulus (GPa) = 53.87537 54.42404 54.14970
# Shear Modulus (GPa) = 51.58258 14.95969 33.27114
#
# Velocity S-wave (km/s) = 4.64646 2.50226 3.73168
# Velocity P-wave (km/s) = 7.16487 5.57918 6.42116
#
# Compressibility (1/GPa) = 0.01856136
#
# Stress axis : x y z
#
# Youngs Moduli (GPa) = 85.92816 119.84474 72.46300
#
# Poissons Ratio (x) = 0.14430 0.32486
# Poissons Ratio (y) = 0.10346 0.13935
# Poissons Ratio (z) = 0.38523 0.23047
#
# Static dielectric constant tensor:
#      x y z
#    x 1.949010 0.000000 -0.020780 
#    y 0.000000 1.916360 0.000000 
#    z -0.020780 0.000000 1.917860 
# 
# From -- ./inp_files/89829.got.cif
#   From: 2010.05.17/outbox.cif.g08.bks.cpg/sg15_45_cif.got.tgz:89829.got - 2010.06.03 18:47:42.
