data_PCOD9277464
_publ_section_title
;
Structure prediction by ZEFSAII (Michael W. Deem and Ramdas Pophale) SiO2 
 PCOD9277464
Probable space group: C 2/C
;
_chemical_formula_sum "Si O2"
_cell_formula_units_Z 56
_cell_length_a 26.956681
_cell_length_b 12.866355
_cell_length_c 6.750218
_cell_angle_alpha 90.000000
_cell_angle_beta 67.787948
_cell_angle_gamma 90.000000
_cell_volume 2167.468244
_symmetry_space_group_name_H-M "C 2/C"
_symmetry_group_IT_number 15
_symmetry_cell_setting 'monoclinic'
loop_
_space_group_symop_operation_xyz
x,y,z
-x,y,1/2-z
-x,-y,-z
x,-y,1/2+z
1/2+x,1/2+y,z
1/2-x,1/2+y,1/2-z
1/2-x,1/2-y,-z
1/2+x,1/2-y,1/2+z
loop_
_atom_site_type_symbol
_atom_site_label
_atom_site_fract_x
_atom_site_fract_y
_atom_site_fract_z
Si Si1 0.199580 0.919627 0.774210
Si Si2 0.171684 0.244207 0.042249
Si Si3 0.439669 0.804969 0.182307
Si Si4 0.899174 0.478759 0.764961
Si Si5 0.546430 0.755795 0.873555
Si Si6 0.314261 0.028199 0.135766
Si Si7 0.135615 0.895604 0.238618
O O1 0.211114 0.825407 0.610263
O O2 0.250021 0.995077 0.733560
O O3 0.148265 0.984384 0.768854
O O4 0.179375 0.870712 0.007159
O O5 0.122863 0.279796 0.261160
O O6 0.185809 0.347926 0.904361
O O7 0.150528 0.165887 0.911144
O O8 0.448277 0.763897 0.391801
O O9 0.443702 0.929318 0.185695
O O10 0.481634 0.760403 0.962084
O O11 0.922752 0.361778 0.737866
O O12 0.882811 0.494317 0.536399
O O13 0.827473 0.483988 0.870453
O O14 0.577939 0.650819 0.767450
#
# Coordination Sequence:
#
# PCOD9277464 Si02
#       7
#     8   8   8   8   8   8   8
#     4  12  24  43  66  91 129 176 220 272 331 371
#     4  10  22  46  62  93 131 167 222 270 322 394
#     4   9  20  39  66  89 133 172 205 274 330 386
#     4  11  19  39  60  95 128 165 210 256 322 402
#     4  10  20  41  63  94 131 171 216 266 333 391
#     4  11  24  40  60  95 134 168 214 270 323 394
#     4  11  23  42  66  92 126 172 221 273 319 394
#
# _framework density 25.836596
#
# number of rings (size 3 to 8) (size 9 to 14) (size 15 to 20)
#    0.000    1.429    5.714    1.714    0.000    2.857 
#    2.571    2.857    3.143    0.000    0.000    0.000 
#    0.000    0.000    0.000    0.000    0.000    0.000 
#
# Total GULP energy -156213.714709 kJ/mol
# GULP energy per Si atom -5579.061240 kJ/mol
# Density = 2.577779 g / cm^3
# Si number density = 25.836596 Si / 1000 Ang^3
#
#
#
# Elastic Constant Matrix: (Units=GPa)
#
#
# Indices 1 2 3 4 5 6 
#
# 1 102.6811 29.2045 22.3369 0.0000 -2.8471 0.0000
# 2 29.2045 111.6689 30.3159 0.0000 -4.7326 0.0000
# 3 22.3369 30.3159 115.8381 0.0000 -9.0203 0.0000
# 4 0.0000 0.0000 0.0000 2261.2239 0.0000 1501.1815
# 5 -2.8471 -4.7326 -9.0203 0.0000 42.3117 0.0000
# 6 0.0000 0.0000 0.0000 1501.1815 0.0000 1048.3839
#
#
#
# Elastic Compliance Matrix: (Units=1/GPa)
#
#
# Indices 1 2 3 4 5 6 
#
# 1 0.010740 -0.002415 -0.001427 0.000000 0.000148 0.000000
# 2 -0.002415 0.010196 -0.002162 0.000000 0.000517 0.000000
# 3 -0.001427 -0.002162 0.009607 0.000000 0.001710 0.000000
# 4 0.000000 0.000000 0.000000 0.008954 0.000000 -0.012821
# 5 0.000148 0.000517 0.001710 0.000000 0.024066 0.000000
# 6 0.000000 0.000000 0.000000 -0.012821 0.000000 0.019313
#
#
# Mechanical properties :
#
#
# Convention : Reuss Voigt Hill
#
# Bulk Modulus (GPa) = 53.95694 54.87808 54.41751
# Shear Modulus (GPa) = 49.47366 686.93929 368.20647
#
# Velocity S-wave (km/s) = 4.38067 16.32347 11.95085
# Velocity P-wave (km/s) = 6.82028 19.40517 14.54436
#
# Compressibility (1/GPa) = 0.01853330
#
# Stress axis : x y z
#
# Youngs Moduli (GPa) = 93.10612 98.08155 104.09001
#
# Poissons Ratio (x) = 0.23688 0.14858
# Poissons Ratio (y) = 0.22486 0.22508
# Poissons Ratio (z) = 0.13291 0.21209
#
# Static dielectric constant tensor:
#      x y z
#    x 2.261050 0.000000 0.079390 
#    y 0.000000 1.921680 0.000000 
#    z 0.079390 0.000000 2.182040 
# 
# From -- ./inp_files/69309.got.cif
#   From: 2010.05.17/outbox.cif.g08.bks.cpg/sg15_35_cif.got.tgz:69309.got - 2010.06.03 18:47:42.
