data_PCOD9277527
_publ_section_title
;
Structure prediction by ZEFSAII (Michael W. Deem and Ramdas Pophale) SiO2 
 PCOD9277527
Probable space group: C 2/C
;
_chemical_formula_sum "Si O2"
_cell_formula_units_Z 36
_cell_length_a 11.889051
_cell_length_b 11.405802
_cell_length_c 12.916510
_cell_angle_alpha 90.000000
_cell_angle_beta 50.009027
_cell_angle_gamma 90.000000
_cell_volume 1341.929111
_symmetry_space_group_name_H-M "C 2/C"
_symmetry_group_IT_number 15
_symmetry_cell_setting 'monoclinic'
loop_
_space_group_symop_operation_xyz
x,y,z
-x,y,1/2-z
-x,-y,-z
x,-y,1/2+z
1/2+x,1/2+y,z
1/2-x,1/2+y,1/2-z
1/2-x,1/2-y,-z
1/2+x,1/2-y,1/2+z
loop_
_atom_site_type_symbol
_atom_site_label
_atom_site_fract_x
_atom_site_fract_y
_atom_site_fract_z
Si Si1 0.802796 0.060471 0.002796
Si Si2 0.199201 0.707196 0.866474
Si Si3 0.000000 0.460692 0.750000
Si Si4 0.855547 0.843059 0.883131
Si Si5 0.390875 0.169232 0.110233
O O1 0.827782 0.160725 0.072659
O O2 0.655654 0.989448 0.124674
O O3 0.775540 0.135546 0.914114
O O4 0.910862 0.953723 0.917435
O O5 0.307349 0.714902 0.704333
O O6 0.031045 0.667003 0.951160
O O7 0.959157 0.382984 0.674115
O O8 0.745361 0.895908 0.861224
O O9 0.000000 0.786880 0.750000
O O10 0.750000 0.750000 0.000000
#
# Coordination Sequence:
#
# PCOD9277527 Si02
#       5
#     8   8   4   8   8
#     4   9  20  39  68  97 129 164 217 277 329 388
#     4   9  19  38  70  99 124 157 224 285 323 371
#     4   8  18  38  68  96 120 156 216 278 326 364
#     4  12  28  45  61  92 142 185 216 257 337 407
#     4  10  20  41  64  97 129 169 214 273 328 383
#
# _framework density 26.827051999999998
#
# number of rings (size 3 to 8) (size 9 to 14) (size 15 to 20)
#    0.000    2.222    0.000    2.667    4.667    3.556 
#    8.000    5.556    0.000    0.000    0.000    0.000 
#    0.000    0.000    0.000    0.000    0.000    0.000 
#
# Total GULP energy -100441.373656 kJ/mol
# GULP energy per Si atom -5580.076314 kJ/mol
# Density = 2.676599 g / cm^3
# Si number density = 26.827052 Si / 1000 Ang^3
#
#
#
# Elastic Constant Matrix: (Units=GPa)
#
#
# Indices 1 2 3 4 5 6 
#
# 1 77.7909 13.5516 -8.2179 0.0000 -3.1796 0.0000
# 2 13.5516 93.5093 9.9419 0.0000 10.4013 0.0000
# 3 -8.2179 9.9419 84.9475 0.0000 -11.8227 0.0000
# 4 0.0000 0.0000 0.0000 34.2059 0.0000 4.5349
# 5 -3.1796 10.4013 -11.8227 0.0000 41.0898 0.0000
# 6 0.0000 0.0000 0.0000 4.5349 0.0000 22.3263
#
#
#
# Elastic Compliance Matrix: (Units=1/GPa)
#
#
# Indices 1 2 3 4 5 6 
#
# 1 0.013567 -0.002414 0.001902 0.000000 0.002208 0.000000
# 2 -0.002414 0.011688 -0.002124 0.000000 -0.003757 0.000000
# 3 0.001902 -0.002124 0.012813 0.000000 0.004372 0.000000
# 4 0.000000 0.000000 0.000000 0.030044 0.000000 -0.006102
# 5 0.002208 -0.003757 0.004372 0.000000 0.026717 0.000000
# 6 0.000000 0.000000 0.000000 -0.006102 0.000000 0.046030
#
#
# Mechanical properties :
#
#
# Convention : Reuss Voigt Hill
#
# Bulk Modulus (GPa) = 30.49192 31.86657 31.17925
# Shear Modulus (GPa) = 31.83474 35.58923 33.71199
#
# Velocity S-wave (km/s) = 3.44854 3.64623 3.54876
# Velocity P-wave (km/s) = 5.21990 5.44343 5.33284
#
# Compressibility (1/GPa) = 0.03279557
#
# Stress axis : x y z
#
# Youngs Moduli (GPa) = 73.70978 85.56024 78.04542
#
# Poissons Ratio (x) = 0.20654 -0.14847
# Poissons Ratio (y) = 0.17794 0.16579
# Poissons Ratio (z) = -0.14022 0.18175
#
# Static dielectric constant tensor:
#      x y z
#    x 2.194740 0.000000 0.056860 
#    y 0.000000 2.112380 0.000000 
#    z 0.056860 0.000000 2.249370 
# 
# From -- ./inp_files/117864.got.cif
#   From: 2010.05.17/outbox.cif.g08.bks.cpg/sg15_59_cif.got.tgz:117864.got - 2010.06.03 18:47:42.
