data_PCOD9277944
_publ_section_title
;
Structure prediction by ZEFSAII (Michael W. Deem and Ramdas Pophale) SiO2 
 PCOD9277944
Probable space group: C 2/C
;
_chemical_formula_sum "Si O2"
_cell_formula_units_Z 60
_cell_length_a 22.149500
_cell_length_b 9.787497
_cell_length_c 19.071559
_cell_angle_alpha 90.000000
_cell_angle_beta 37.848954
_cell_angle_gamma 90.000000
_cell_volume 2536.847358
_symmetry_space_group_name_H-M "C 2/C"
_symmetry_group_IT_number 15
_symmetry_cell_setting 'monoclinic'
loop_
_space_group_symop_operation_xyz
x,y,z
-x,y,1/2-z
-x,-y,-z
x,-y,1/2+z
1/2+x,1/2+y,z
1/2-x,1/2+y,1/2-z
1/2-x,1/2-y,-z
1/2+x,1/2-y,1/2+z
loop_
_atom_site_type_symbol
_atom_site_label
_atom_site_fract_x
_atom_site_fract_y
_atom_site_fract_z
Si Si1 0.835403 0.218537 0.110232
Si Si2 0.156367 0.934370 0.689739
Si Si3 0.751782 0.178215 0.676253
Si Si4 0.857968 0.477943 0.436303
Si Si5 0.000000 0.761243 0.750000
Si Si6 0.319297 0.089369 0.330334
Si Si7 0.491664 0.909767 0.937947
Si Si8 0.896797 0.052337 0.620982
O O1 0.803826 0.329431 0.197401
O O2 0.764115 0.201478 0.109256
O O3 0.828036 0.071622 0.153815
O O4 0.945803 0.260143 0.991697
O O5 0.216503 0.816194 0.674386
O O6 0.239878 0.975766 0.557382
O O7 0.121780 0.046095 0.778942
O O8 0.060062 0.860023 0.747080
O O9 0.726503 0.061117 0.643561
O O10 0.862618 0.177371 0.603577
O O11 0.867787 0.581739 0.362016
O O12 0.913398 0.524089 0.455663
O O13 0.916108 0.338566 0.360489
O O14 0.404675 0.103067 0.195018
O O15 0.500000 0.000000 0.000000
O O16 0.000000 0.000000 0.500000
#
# Coordination Sequence:
#
# PCOD9277944 Si02
#       8
#     8   8   8   8   4   8   8   8
#     4  10  24  39  66  96 128 180 220 280 343 395
#     4  11  25  40  71  99 135 186 223 280 357 414
#     4  10  20  42  63 100 135 170 223 280 341 401
#     4  12  25  45  67 100 139 180 229 289 339 410
#     4  12  24  42  66 102 132 178 228 278 348 410
#     4  11  23  44  66  96 138 172 231 284 334 412
#     4  12  24  42  70  99 132 182 229 280 337 417
#     4  10  24  40  63 101 136 169 221 287 339 408
#
# _framework density 23.651402000000001
#
# number of rings (size 3 to 8) (size 9 to 14) (size 15 to 20)
#    0.000    1.067    4.000    1.200    9.333    1.600 
#    0.000    0.000    0.000    0.000    0.000    0.000 
#    0.000    0.000    0.000    0.000    0.000    0.000 
#
# Total GULP energy -167482.855119 kJ/mol
# GULP energy per Si atom -5582.761837 kJ/mol
# Density = 2.359757 g / cm^3
# Si number density = 23.651402 Si / 1000 Ang^3
#
#
#
# Elastic Constant Matrix: (Units=GPa)
#
#
# Indices 1 2 3 4 5 6 
#
# 1 131.0699 26.5026 29.6607 0.0000 10.0352 0.0000
# 2 26.5026 48.7929 2.7489 -0.0001 10.1518 0.0000
# 3 29.6607 2.7489 94.7489 0.0000 -4.2743 0.0000
# 4 0.0000 -0.0001 0.0000 28.6506 0.0000 -5.7543
# 5 10.0352 10.1518 -4.2743 0.0000 36.6933 0.0000
# 6 0.0000 0.0000 0.0000 -5.7543 0.0000 30.3466
#
#
#
# Elastic Compliance Matrix: (Units=1/GPa)
#
#
# Indices 1 2 3 4 5 6 
#
# 1 0.009324 -0.004566 -0.002859 0.000000 -0.001620 0.000000
# 2 -0.004566 0.024061 0.000490 0.000000 -0.005351 0.000000
# 3 -0.002859 0.000490 0.011525 0.000000 0.001989 0.000000
# 4 0.000000 0.000000 0.000000 0.036285 0.000000 0.006880
# 5 -0.001620 -0.005351 0.001989 0.000000 0.029408 0.000000
# 6 0.000000 0.000000 0.000000 0.006880 0.000000 0.034257
#
#
# Mechanical properties :
#
#
# Convention : Reuss Voigt Hill
#
# Bulk Modulus (GPa) = 32.21850 43.60402 37.91126
# Shear Modulus (GPa) = 29.57225 33.51805 31.54515
#
# Velocity S-wave (km/s) = 3.53985 3.76862 3.65602
# Velocity P-wave (km/s) = 5.50992 6.11660 5.82117
#
# Compressibility (1/GPa) = 0.03103807
#
# Stress axis : x y z
#
# Youngs Moduli (GPa) = 107.25092 41.56145 86.76913
#
# Poissons Ratio (x) = 0.18978 0.24811
# Poissons Ratio (y) = 0.48975 -0.04252
# Poissons Ratio (z) = 0.30667 -0.02037
#
# Static dielectric constant tensor:
#      x y z
#    x 1.948920 0.000000 -0.022950 
#    y 0.000000 1.984740 0.000000 
#    z -0.022950 0.000000 2.034910 
# 
# From -- ./inp_files/215174.got.cif
#   From: 2010.05.17/outbox.cif.g08.bks.cpg/sg15_108_cif.got.tgz:215174.got - 2010.06.03 18:47:42.
