data_PCOD9277753
_publ_section_title
;
Structure prediction by ZEFSAII (Michael W. Deem and Ramdas Pophale) SiO2 
 PCOD9277753
Probable space group: C 2/C
;
_chemical_formula_sum "Si O2"
_cell_formula_units_Z 64
_cell_length_a 29.584702
_cell_length_b 13.477980
_cell_length_c 13.229332
_cell_angle_alpha 90.000000
_cell_angle_beta 151.210476
_cell_angle_gamma 90.000000
_cell_volume 2540.449031
_symmetry_space_group_name_H-M "C 2/C"
_symmetry_group_IT_number 15
_symmetry_cell_setting 'monoclinic'
loop_
_space_group_symop_operation_xyz
x,y,z
-x,y,1/2-z
-x,-y,-z
x,-y,1/2+z
1/2+x,1/2+y,z
1/2-x,1/2+y,1/2-z
1/2-x,1/2-y,-z
1/2+x,1/2-y,1/2+z
loop_
_atom_site_type_symbol
_atom_site_label
_atom_site_fract_x
_atom_site_fract_y
_atom_site_fract_z
Si Si1 0.673687 0.333379 0.261870
Si Si2 0.860283 0.686201 0.011681
Si Si3 0.669108 0.968067 0.210264
Si Si4 0.930760 0.358192 0.870041
Si Si5 0.478019 0.421391 0.809462
Si Si6 0.576302 0.799360 0.314733
Si Si7 0.680155 0.526884 0.355690
Si Si8 0.278413 0.383601 0.775260
O O1 0.752107 0.331985 0.331463
O O2 0.643686 0.225124 0.237007
O O3 0.712519 0.412284 0.417889
O O4 0.576500 0.383323 0.042120
O O5 0.879735 0.611174 0.958464
O O6 0.851035 0.801817 0.961843
O O7 0.920507 0.656222 0.229039
O O8 0.598753 0.037419 0.136990
O O9 0.739354 0.035370 0.278302
O O10 0.739085 0.915203 0.425925
O O11 0.030166 0.328655 0.116643
O O12 0.500000 0.479695 0.750000
O O13 0.423656 0.319462 0.676009
O O14 0.415376 0.470521 0.770458
O O15 0.500000 0.835156 0.250000
O O16 0.679287 0.837571 0.541451
O O17 0.676195 0.566998 0.234750
#
# Coordination Sequence:
#
# PCOD9277753 Si02
#       8
#     8   8   8   8   8   8   8   8
#     4  11  20  39  67  93 131 173 226 275 341 417
#     4  12  23  41  69 104 134 183 231 288 346 409
#     4  12  22  40  65  94 138 174 233 282 339 410
#     4  11  22  42  70  97 133 183 238 283 337 415
#     4  10  22  39  63  97 134 178 222 280 348 416
#     4  10  20  41  68  96 133 184 235 279 339 411
#     4  12  25  40  66 103 137 176 231 286 348 414
#     4  12  24  42  70 101 137 180 232 289 346 409
#
# _framework density 25.192397
#
# number of rings (size 3 to 8) (size 9 to 14) (size 15 to 20)
#    0.000    0.750    5.000    4.500    0.000    2.000 
#    0.000    3.750    0.000    3.000    0.000    0.000 
#    0.000    0.000    0.000    0.000    0.000    0.000 
#
# Total GULP energy -179064.855052 kJ/mol
# GULP energy per Si atom -5595.776720 kJ/mol
# Density = 2.513506 g / cm^3
# Si number density = 25.192397 Si / 1000 Ang^3
#
#
#
# Elastic Constant Matrix: (Units=GPa)
#
#
# Indices 1 2 3 4 5 6 
#
# 1 137.8465 52.9645 44.5915 0.0000 -5.5541 0.0000
# 2 52.9645 86.3097 20.6807 0.0000 -8.0077 0.0000
# 3 44.5915 20.6807 107.4476 0.0000 -25.2417 0.0000
# 4 0.0000 0.0000 0.0000 31.3616 0.0000 -15.5519
# 5 -5.5541 -8.0077 -25.2417 0.0000 39.1836 0.0000
# 6 0.0000 0.0000 0.0000 -15.5519 0.0000 27.9855
#
#
#
# Elastic Compliance Matrix: (Units=1/GPa)
#
#
# Indices 1 2 3 4 5 6 
#
# 1 0.010628 -0.005810 -0.003791 0.000000 -0.002123 0.000000
# 2 -0.005810 0.015367 -0.000002 0.000000 0.002315 0.000000
# 3 -0.003791 -0.000002 0.012672 0.000000 0.007625 0.000000
# 4 0.000000 0.000000 0.000000 0.044016 0.000000 0.024460
# 5 -0.002123 0.002315 0.007625 0.000000 0.030605 0.000000
# 6 0.000000 0.000000 0.000000 0.024460 0.000000 0.049326
#
#
# Mechanical properties :
#
#
# Convention : Reuss Voigt Hill
#
# Bulk Modulus (GPa) = 51.38989 63.11970 57.25479
# Shear Modulus (GPa) = 26.55229 33.93060 30.24145
#
# Velocity S-wave (km/s) = 3.25003 3.67394 3.46847
# Velocity P-wave (km/s) = 5.87595 6.56556 6.23030
#
# Compressibility (1/GPa) = 0.01945908
#
# Stress axis : x y z
#
# Youngs Moduli (GPa) = 94.09317 65.07376 78.91422
#
# Poissons Ratio (x) = 0.37811 0.29917
# Poissons Ratio (y) = 0.54672 0.00020
# Poissons Ratio (z) = 0.35671 0.00016
#
# Static dielectric constant tensor:
#      x y z
#    x 2.003910 0.000000 -0.068290 
#    y 0.000000 2.028260 0.000000 
#    z -0.068290 0.000000 2.049200 
# 
# From -- ./inp_files/123560.got.cif
#   From: 2010.05.17/outbox.cif.g08.bks.cpg/sg15_62_cif.got.tgz:123560.got - 2010.06.03 18:47:42.
