data_PCOD9277699
_publ_section_title
;
Structure prediction by ZEFSAII (Michael W. Deem and Ramdas Pophale) SiO2 
 PCOD9277699
Probable space group: C 2/C
;
_chemical_formula_sum "Si O2"
_cell_formula_units_Z 40
_cell_length_a 7.314640
_cell_length_b 12.607275
_cell_length_c 18.408349
_cell_angle_alpha 90.000000
_cell_angle_beta 94.858347
_cell_angle_gamma 90.000000
_cell_volume 1691.476033
_symmetry_space_group_name_H-M "C 2/C"
_symmetry_group_IT_number 15
_symmetry_cell_setting 'monoclinic'
loop_
_space_group_symop_operation_xyz
x,y,z
-x,y,1/2-z
-x,-y,-z
x,-y,1/2+z
1/2+x,1/2+y,z
1/2-x,1/2+y,1/2-z
1/2-x,1/2-y,-z
1/2+x,1/2-y,1/2+z
loop_
_atom_site_type_symbol
_atom_site_label
_atom_site_fract_x
_atom_site_fract_y
_atom_site_fract_z
Si Si1 0.202917 0.236953 0.378104
Si Si2 0.306499 0.788483 0.421624
Si Si3 0.717781 0.841784 0.773738
Si Si4 0.113922 0.519876 0.075853
Si Si5 0.843139 0.557848 0.687240
O O1 0.178370 0.197672 0.294460
O O2 0.302135 0.137344 0.418468
O O3 0.274995 0.354709 0.359505
O O4 0.024050 0.267126 0.418275
O O5 0.250000 0.750000 0.500000
O O6 0.237021 0.723836 0.348940
O O7 0.261518 0.913943 0.412887
O O8 0.500000 0.836187 0.750000
O O9 0.774037 0.964774 0.782325
O O10 0.967835 0.506263 0.134670
O O11 0.000000 0.500000 0.000000
O O12 0.000000 0.598342 0.750000
#
# Coordination Sequence:
#
# PCOD9277699 Si02
#       5
#     8   8   8   8   8
#     4  11  23  43  74  99 139 198 243 294 383 433
#     4  11  26  45  69 108 151 184 251 313 364 456
#     4  11  22  44  71 104 144 188 243 310 370 442
#     4  11  23  44  70  99 141 192 239 301 378 441
#     4  10  20  41  67  96 140 180 240 299 362 438
#
# _framework density 23.647984000000001
#
# number of rings (size 3 to 8) (size 9 to 14) (size 15 to 20)
#    0.000    1.200    4.000    4.200    0.000    4.000 
#    3.600    1.000    0.000    0.000    0.000    0.000 
#    0.000    0.000    0.000    0.000    0.000    0.000 
#
# Total GULP energy -111494.477616 kJ/mol
# GULP energy per Si atom -5574.723881 kJ/mol
# Density = 2.359416 g / cm^3
# Si number density = 23.647984 Si / 1000 Ang^3
#
#
#
# Elastic Constant Matrix: (Units=GPa)
#
#
# Indices 1 2 3 4 5 6 
#
# 1 33.0556 41.4032 33.7254 0.0000 -2.3591 0.0000
# 2 41.4032 178.6816 39.8060 0.0000 20.9598 0.0000
# 3 33.7254 39.8060 156.5536 0.0000 -3.5999 0.0000
# 4 0.0000 0.0000 0.0000 45.3158 0.0000 12.0890
# 5 -2.3591 20.9598 -3.5999 0.0000 48.3910 0.0000
# 6 0.0000 0.0000 0.0000 12.0890 0.0000 36.3613
#
#
#
# Elastic Compliance Matrix: (Units=1/GPa)
#
#
# Indices 1 2 3 4 5 6 
#
# 1 0.053631 -0.011340 -0.008512 0.000000 0.006893 0.000000
# 2 -0.011340 0.008701 0.000131 0.000000 -0.004312 0.000000
# 3 -0.008512 0.000131 0.008191 0.000000 0.000137 0.000000
# 4 0.000000 0.000000 0.000000 0.024215 0.000000 -0.008051
# 5 0.006893 -0.004312 0.000137 0.000000 0.022879 0.000000
# 6 0.000000 0.000000 0.000000 -0.008051 0.000000 0.030178
#
#
# Mechanical properties :
#
#
# Convention : Reuss Voigt Hill
#
# Bulk Modulus (GPa) = 32.17175 66.46220 49.31697
# Shear Modulus (GPa) = 25.30420 42.90405 34.10413
#
# Velocity S-wave (km/s) = 3.27469 4.26406 3.80170
# Velocity P-wave (km/s) = 5.28508 7.23939 6.33801
#
# Compressibility (1/GPa) = 0.03108317
#
# Stress axis : x y z
#
# Youngs Moduli (GPa) = 18.64584 114.93513 122.08579
#
# Poissons Ratio (x) = 1.30331 1.03916
# Poissons Ratio (y) = 0.21143 -0.01604
# Poissons Ratio (z) = 0.15871 -0.01510
#
# Static dielectric constant tensor:
#      x y z
#    x 1.911400 0.000000 -0.006040 
#    y 0.000000 2.065540 0.000000 
#    z -0.006040 0.000000 1.954000 
# 
# From -- ./inp_files/187893.got.cif
#   From: 2010.05.17/outbox.cif.g08.bks.cpg/sg15_94_cif.got.tgz:187893.got - 2010.06.03 18:47:42.
