data_PCOD9277093
_publ_section_title
;
Structure prediction by ZEFSAII (Michael W. Deem and Ramdas Pophale) SiO2 
 PCOD9277093
Probable space group: C 2/C
;
_chemical_formula_sum "Si O2"
_cell_formula_units_Z 52
_cell_length_a 27.682515
_cell_length_b 9.364538
_cell_length_c 11.221513
_cell_angle_alpha 90.000000
_cell_angle_beta 138.223748
_cell_angle_gamma 90.000000
_cell_volume 1938.042147
_symmetry_space_group_name_H-M "C 2/C"
_symmetry_group_IT_number 15
_symmetry_cell_setting 'monoclinic'
loop_
_space_group_symop_operation_xyz
x,y,z
-x,y,1/2-z
-x,-y,-z
x,-y,1/2+z
1/2+x,1/2+y,z
1/2-x,1/2+y,1/2-z
1/2-x,1/2-y,-z
1/2+x,1/2-y,1/2+z
loop_
_atom_site_type_symbol
_atom_site_label
_atom_site_fract_x
_atom_site_fract_y
_atom_site_fract_z
Si Si1 0.444819 0.342080 0.794449
Si Si2 0.593969 0.337468 0.202806
Si Si3 0.866724 0.471658 0.647391
Si Si4 0.887705 0.242894 0.416110
Si Si5 0.366153 0.438045 0.452140
Si Si6 0.210759 0.535796 0.739143
Si Si7 0.000000 0.547485 0.250000
O O1 0.429279 0.514021 0.778856
O O2 0.387532 0.265519 0.773779
O O3 0.419694 0.327867 0.614037
O O4 0.520366 0.303499 0.994146
O O5 0.617790 0.201558 0.321917
O O6 0.654219 0.372769 0.213691
O O7 0.831445 0.491479 0.715715
O O8 0.817527 0.518099 0.442903
O O9 0.947056 0.526887 0.750021
O O10 0.808978 0.296253 0.307154
O O11 0.945982 0.355094 0.571876
O O12 0.905876 0.085379 0.492691
O O13 0.296334 0.476736 0.400720
#
# Coordination Sequence:
#
# PCOD9277093 Si02
#       7
#     8   8   8   8   8   8   4
#     4  10  20  40  68 104 134 172 235 297 357 408
#     4  10  22  40  72 103 135 178 234 300 360 409
#     4  11  25  47  71 101 140 192 241 286 349 424
#     4  10  23  41  67  97 137 185 223 299 354 414
#     4  11  25  39  68 104 144 181 228 296 348 433
#     4  11  28  45  69 102 148 198 233 279 355 436
#     4  10  20  46  72  98 136 178 234 302 356 404
#
# _framework density 26.831199999999999
#
# number of rings (size 3 to 8) (size 9 to 14) (size 15 to 20)
#    0.000    1.538    1.538    2.308   10.769    4.923 
#    0.000    0.000    0.000    0.000    0.000    0.000 
#    0.000    0.000    0.000    0.000    0.000    0.000 
#
# Total GULP energy -145090.992541 kJ/mol
# GULP energy per Si atom -5580.422790 kJ/mol
# Density = 2.677013 g / cm^3
# Si number density = 26.831200 Si / 1000 Ang^3
#
#
#
# Elastic Constant Matrix: (Units=GPa)
#
#
# Indices 1 2 3 4 5 6 
#
# 1 170.8889 13.5460 50.6642 0.0000 -15.7045 0.0000
# 2 13.5460 63.4170 9.9827 0.0000 -1.0248 0.0000
# 3 50.6642 9.9827 112.1827 0.0000 -8.6114 0.0000
# 4 0.0000 0.0000 0.0000 26.6287 0.0000 -3.1252
# 5 -15.7045 -1.0248 -8.6114 0.0000 54.2429 0.0000
# 6 0.0000 0.0000 0.0000 -3.1252 0.0000 36.3892
#
#
#
# Elastic Compliance Matrix: (Units=1/GPa)
#
#
# Indices 1 2 3 4 5 6 
#
# 1 0.006939 -0.000997 -0.002928 0.000000 0.001525 0.000000
# 2 -0.000997 0.016136 -0.000997 0.000000 -0.000142 0.000000
# 3 -0.002928 -0.000997 0.010385 0.000000 0.000782 0.000000
# 4 0.000000 0.000000 0.000000 0.037936 0.000000 0.003258
# 5 0.001525 -0.000142 0.000782 0.000000 0.018999 0.000000
# 6 0.000000 0.000000 0.000000 0.003258 0.000000 0.027760
#
#
# Mechanical properties :
#
#
# Convention : Reuss Voigt Hill
#
# Bulk Modulus (GPa) = 42.34137 54.98605 48.66371
# Shear Modulus (GPa) = 36.79975 41.60522 39.20249
#
# Velocity S-wave (km/s) = 3.70743 3.94207 3.82655
# Velocity P-wave (km/s) = 5.84309 6.42322 6.14001
#
# Compressibility (1/GPa) = 0.02361756
#
# Stress axis : x y z
#
# Youngs Moduli (GPa) = 144.11255 61.97279 96.29149
#
# Poissons Ratio (x) = 0.06176 0.28195
# Poissons Ratio (y) = 0.14363 0.09597
# Poissons Ratio (z) = 0.42197 0.06177
#
# Static dielectric constant tensor:
#      x y z
#    x 2.342150 0.000000 -0.041810 
#    y 0.000000 2.151900 0.000000 
#    z -0.041810 0.000000 2.101880 
# 
# From -- ./inp_files/126484.got.cif
#   From: 2010.05.17/outbox.cif.g08.bks.cpg/sg15_64_cif.got.tgz:126484.got - 2010.06.03 18:47:42.
