data_PCOD9277355
_publ_section_title
;
Structure prediction by ZEFSAII (Michael W. Deem and Ramdas Pophale) SiO2 
 PCOD9277355
Probable space group: C 2/C
;
_chemical_formula_sum "Si O2"
_cell_formula_units_Z 48
_cell_length_a 14.642199
_cell_length_b 10.170948
_cell_length_c 17.252505
_cell_angle_alpha 90.000000
_cell_angle_beta 111.514644
_cell_angle_gamma 90.000000
_cell_volume 2390.309088
_symmetry_space_group_name_H-M "C 2/C"
_symmetry_group_IT_number 15
_symmetry_cell_setting 'monoclinic'
loop_
_space_group_symop_operation_xyz
x,y,z
-x,y,1/2-z
-x,-y,-z
x,-y,1/2+z
1/2+x,1/2+y,z
1/2-x,1/2+y,1/2-z
1/2-x,1/2-y,-z
1/2+x,1/2-y,1/2+z
loop_
_atom_site_type_symbol
_atom_site_label
_atom_site_fract_x
_atom_site_fract_y
_atom_site_fract_z
Si Si1 0.361729 0.963275 0.166800
Si Si2 0.309372 0.204285 0.792719
Si Si3 0.513542 0.686771 0.546297
Si Si4 0.412227 0.231765 0.271897
Si Si5 0.652816 0.437481 0.582817
Si Si6 0.008271 0.597090 0.574405
O O1 0.341570 0.838256 0.216369
O O2 0.443756 0.937463 0.128602
O O3 0.391378 0.089274 0.228164
O O4 0.258915 0.005362 0.096042
O O5 0.191807 0.193045 0.761686
O O6 0.334550 0.347965 0.835977
O O7 0.377617 0.111929 0.867030
O O8 0.544628 0.775172 0.628329
O O9 0.578669 0.556839 0.574477
O O10 0.399133 0.646725 0.501583
O O11 0.531038 0.764180 0.471988
O O12 0.500000 0.296213 0.250000
O O13 0.000000 0.500000 0.500000
#
# Coordination Sequence:
#
# PCOD9277355 Si02
#       6
#     8   8   8   8   8   8
#     4  11  21  40  65  92 122 163 210 258 308 366
#     4  10  21  39  61  87 122 157 206 254 305 368
#     4  10  20  41  59  86 130 161 201 252 313 366
#     4  11  22  38  63  88 120 162 204 254 310 369
#     4   9  21  38  61  88 124 162 201 255 307 371
#     4  11  23  38  64  93 123 161 208 259 309 365
#
# _framework density 20.081083
#
# number of rings (size 3 to 8) (size 9 to 14) (size 15 to 20)
#    0.000    1.667    1.667    3.500    0.000    2.000 
#    0.000   10.000    0.000    0.000    0.000    0.000 
#    0.000    0.000    0.000    0.000    0.000    0.000 
#
# Total GULP energy -133808.503052 kJ/mol
# GULP energy per Si atom -5575.354294 kJ/mol
# Density = 2.003538 g / cm^3
# Si number density = 20.081083 Si / 1000 Ang^3
#
#
#
# Elastic Constant Matrix: (Units=GPa)
#
#
# Indices 1 2 3 4 5 6 
#
# 1 143.2864 44.1525 80.4042 0.0000 15.7846 0.0000
# 2 44.1525 56.9466 38.4019 0.0000 5.0609 0.0000
# 3 80.4042 38.4019 127.6912 0.0000 20.4109 0.0000
# 4 0.0000 0.0000 0.0000 25.8480 0.0000 3.4937
# 5 15.7846 5.0609 20.4109 0.0000 37.0570 0.0000
# 6 0.0000 0.0000 0.0000 3.4937 0.0000 29.5476
#
#
#
# Elastic Compliance Matrix: (Units=1/GPa)
#
#
# Indices 1 2 3 4 5 6 
#
# 1 0.011972 -0.005296 -0.005753 0.000000 -0.001208 0.000000
# 2 -0.005296 0.024387 -0.004197 0.000000 0.001237 0.000000
# 3 -0.005753 -0.004197 0.013414 0.000000 -0.004365 0.000000
# 4 0.000000 0.000000 0.000000 0.039316 0.000000 -0.004649
# 5 -0.001208 0.001237 -0.004365 0.000000 0.029735 0.000000
# 6 0.000000 0.000000 0.000000 -0.004649 0.000000 0.034393
#
#
# Mechanical properties :
#
#
# Convention : Reuss Voigt Hill
#
# Bulk Modulus (GPa) = 51.86446 72.64904 62.25675
# Shear Modulus (GPa) = 26.29708 29.48824 27.89266
#
# Velocity S-wave (km/s) = 3.62269 3.83620 3.73097
# Velocity P-wave (km/s) = 6.58651 7.47518 7.04487
#
# Compressibility (1/GPa) = 0.01928103
#
# Stress axis : x y z
#
# Youngs Moduli (GPa) = 83.52808 41.00616 74.55004
#
# Poissons Ratio (x) = 0.21715 0.42888
# Poissons Ratio (y) = 0.44232 0.31291
# Poissons Ratio (z) = 0.48053 0.17211
#
# Static dielectric constant tensor:
#      x y z
#    x 1.703080 0.000000 0.032740 
#    y 0.000000 1.782720 0.000000 
#    z 0.032740 0.000000 1.731550 
# 
# From -- ./inp_files/152202.got.cif
#   From: 2010.05.17/outbox.cif.g08.bks.cpg/sg15_77_cif.got.tgz:152202.got - 2010.06.03 18:47:42.
