data_PCOD9277777
_publ_section_title
;
Structure prediction by ZEFSAII (Michael W. Deem and Ramdas Pophale) SiO2 
 PCOD9277777
Probable space group: C 2/C
;
_chemical_formula_sum "Si O2"
_cell_formula_units_Z 48
_cell_length_a 9.248676
_cell_length_b 17.315880
_cell_length_c 14.277010
_cell_angle_alpha 90.000000
_cell_angle_beta 83.194852
_cell_angle_gamma 90.000000
_cell_volume 2270.340021
_symmetry_space_group_name_H-M "C 2/C"
_symmetry_group_IT_number 15
_symmetry_cell_setting 'monoclinic'
loop_
_space_group_symop_operation_xyz
x,y,z
-x,y,1/2-z
-x,-y,-z
x,-y,1/2+z
1/2+x,1/2+y,z
1/2-x,1/2+y,1/2-z
1/2-x,1/2-y,-z
1/2+x,1/2-y,1/2+z
loop_
_atom_site_type_symbol
_atom_site_label
_atom_site_fract_x
_atom_site_fract_y
_atom_site_fract_z
Si Si1 0.076370 0.418755 0.515993
Si Si2 0.218247 0.330180 0.952369
Si Si3 0.048506 0.095962 0.933338
Si Si4 0.655063 0.296676 0.759341
Si Si5 0.839467 0.054287 0.118727
Si Si6 0.290484 0.694513 0.907898
O O1 0.172218 0.434171 0.601680
O O2 0.184828 0.380171 0.430792
O O3 0.000000 0.500000 0.500000
O O4 0.947158 0.357455 0.536606
O O5 0.271673 0.320900 0.842706
O O6 0.250000 0.250000 0.000000
O O7 0.315317 0.386732 0.009226
O O8 0.959491 0.167636 0.896281
O O9 0.106983 0.031023 0.857308
O O10 0.926245 0.066779 0.015354
O O11 0.500000 0.257403 0.750000
O O12 0.621387 0.375806 0.817212
O O13 0.749336 0.241814 0.818668
O O14 0.250000 0.750000 0.000000
#
# Coordination Sequence:
#
# PCOD9277777 Si02
#       6
#     8   8   8   8   8   8
#     4  11  22  41  68  97 135 175 217 283 346 394
#     4  12  25  41  68  98 137 179 229 284 340 411
#     4  10  20  41  69  93 130 179 221 269 340 410
#     4  12  23  42  71  98 131 181 237 279 347 413
#     4  10  21  40  68  95 127 177 223 271 339 411
#     4  11  21  42  70  96 134 177 222 284 340 403
#
# _framework density 21.142208
#
# number of rings (size 3 to 8) (size 9 to 14) (size 15 to 20)
#    0.000    1.000    6.667    2.000    0.000    0.667 
#    0.000    3.333    3.667    0.000    0.000    0.000 
#    0.000    0.000    0.000    0.000    0.000    0.000 
#
# Total GULP energy -133907.456801 kJ/mol
# GULP energy per Si atom -5579.477367 kJ/mol
# Density = 2.109409 g / cm^3
# Si number density = 21.142208 Si / 1000 Ang^3
#
#
#
# Elastic Constant Matrix: (Units=GPa)
#
#
# Indices 1 2 3 4 5 6 
#
# 1 125.4740 25.0215 26.2407 0.0000 20.9921 0.0000
# 2 25.0215 104.1023 35.1940 0.0000 9.3783 0.0000
# 3 26.2407 35.1940 64.2966 0.0000 13.7625 0.0000
# 4 0.0000 0.0000 0.0000 7.7410 0.0000 8.5888
# 5 20.9921 9.3783 13.7625 0.0000 29.9838 0.0000
# 6 0.0000 0.0000 0.0000 8.5888 0.0000 50.1265
#
#
#
# Elastic Compliance Matrix: (Units=1/GPa)
#
#
# Indices 1 2 3 4 5 6 
#
# 1 0.009530 -0.001081 -0.002153 0.000000 -0.005346 0.000000
# 2 -0.001081 0.011927 -0.006045 0.000000 -0.000199 0.000000
# 3 -0.002153 -0.006045 0.021085 0.000000 -0.006279 0.000000
# 4 0.000000 0.000000 0.000000 0.159505 0.000000 -0.027330
# 5 -0.005346 -0.000199 -0.006279 0.000000 0.040038 0.000000
# 6 0.000000 0.000000 0.000000 -0.027330 0.000000 0.024632
#
#
# Mechanical properties :
#
#
# Convention : Reuss Voigt Hill
#
# Bulk Modulus (GPa) = 41.69558 51.86503 46.78031
# Shear Modulus (GPa) = 17.04908 31.39805 24.22356
#
# Velocity S-wave (km/s) = 2.84280 3.85787 3.38856
# Velocity P-wave (km/s) = 5.52627 6.66550 6.12244
#
# Compressibility (1/GPa) = 0.02398336
#
# Stress axis : x y z
#
# Youngs Moduli (GPa) = 104.93142 83.84150 47.42794
#
# Poissons Ratio (x) = 0.09063 0.10214
# Poissons Ratio (y) = 0.11343 0.28669
# Poissons Ratio (z) = 0.22597 0.50680
#
# Static dielectric constant tensor:
#      x y z
#    x 1.835470 0.000000 0.071180 
#    y 0.000000 1.960150 0.000000 
#    z 0.071180 0.000000 1.811450 
# 
# From -- ./inp_files/134872.got.cif
#   From: 2010.05.17/outbox.cif.g08.bks.cpg/sg15_68_cif.got.tgz:134872.got - 2010.06.03 18:47:42.
