data_PCOD9277534
_publ_section_title
;
Structure prediction by ZEFSAII (Michael W. Deem and Ramdas Pophale) SiO2 
 PCOD9277534
Probable space group: C 2/C
;
_chemical_formula_sum "Si O2"
_cell_formula_units_Z 36
_cell_length_a 8.101077
_cell_length_b 11.834012
_cell_length_c 18.164100
_cell_angle_alpha 90.000000
_cell_angle_beta 62.633714
_cell_angle_gamma 90.000000
_cell_volume 1546.477780
_symmetry_space_group_name_H-M "C 2/C"
_symmetry_group_IT_number 15
_symmetry_cell_setting 'monoclinic'
loop_
_space_group_symop_operation_xyz
x,y,z
-x,y,1/2-z
-x,-y,-z
x,-y,1/2+z
1/2+x,1/2+y,z
1/2-x,1/2+y,1/2-z
1/2-x,1/2-y,-z
1/2+x,1/2-y,1/2+z
loop_
_atom_site_type_symbol
_atom_site_label
_atom_site_fract_x
_atom_site_fract_y
_atom_site_fract_z
Si Si1 0.998595 0.954401 0.098575
Si Si2 0.271587 0.732904 0.583874
Si Si3 0.500000 0.684307 0.750000
Si Si4 0.905093 0.381938 0.000182
Si Si5 0.885596 0.786511 0.644149
O O1 0.196580 0.918227 0.021707
O O2 0.840695 0.890811 0.086209
O O3 0.006032 0.898336 0.178121
O O4 0.941985 0.084631 0.115543
O O5 0.250000 0.750000 0.500000
O O6 0.435909 0.816109 0.579089
O O7 0.064128 0.748772 0.655050
O O8 0.683352 0.762558 0.718543
O O9 0.880221 0.294587 0.073011
O O10 0.000000 0.500000 0.000000
#
# Coordination Sequence:
#
# PCOD9277534 Si02
#       5
#     8   8   4   8   8
#     4  11  23  43  69  91 134 177 213 284 325 401
#     4  10  22  40  64 100 130 165 213 267 341 397
#     4  10  26  44  60  94 124 176 236 264 330 386
#     4  10  20  41  65 100 133 164 211 272 338 402
#     4  10  23  43  63  94 129 174 222 272 328 397
#
# _framework density 23.278706
#
# number of rings (size 3 to 8) (size 9 to 14) (size 15 to 20)
#    0.000    1.778    2.222    0.667    0.000    8.000 
#   16.000    0.000    0.000    0.000    0.000    0.000 
#    0.000    0.000    0.000    0.000    0.000    0.000 
#
# Total GULP energy -100455.397435 kJ/mol
# GULP energy per Si atom -5580.855413 kJ/mol
# Density = 2.322572 g / cm^3
# Si number density = 23.278706 Si / 1000 Ang^3
#
#
#
# Elastic Constant Matrix: (Units=GPa)
#
#
# Indices 1 2 3 4 5 6 
#
# 1 158.7315 104.1523 75.1506 0.0000 -51.9937 0.0000
# 2 104.1523 198.8606 27.5189 0.0000 -25.2139 0.0000
# 3 75.1506 27.5189 83.9715 0.0000 -15.3456 0.0000
# 4 0.0000 0.0000 0.0000 14.8410 0.0000 -7.2033
# 5 -51.9937 -25.2139 -15.3456 0.0000 56.9626 0.0000
# 6 0.0000 0.0000 0.0000 -7.2033 0.0000 38.1470
#
#
#
# Elastic Compliance Matrix: (Units=1/GPa)
#
#
# Indices 1 2 3 4 5 6 
#
# 1 0.024341 -0.008713 -0.016379 0.000000 0.013948 0.000000
# 2 -0.008713 0.008604 0.004439 0.000000 -0.002949 0.000000
# 3 -0.016379 0.004439 0.023917 0.000000 -0.006542 0.000000
# 4 0.000000 0.000000 0.000000 0.074179 0.000000 0.014007
# 5 0.013948 -0.002949 -0.006542 0.000000 0.027219 0.000000
# 6 0.000000 0.000000 0.000000 0.014007 0.000000 0.028859
#
#
# Mechanical properties :
#
#
# Convention : Reuss Voigt Hill
#
# Bulk Modulus (GPa) = 64.28637 95.02301 79.65469
# Shear Modulus (GPa) = 21.40314 37.63959 29.52136
#
# Velocity S-wave (km/s) = 3.03550 4.02545 3.56500
# Velocity P-wave (km/s) = 6.32152 7.90658 7.15806
#
# Compressibility (1/GPa) = 0.01555540
#
# Stress axis : x y z
#
# Youngs Moduli (GPa) = 41.08370 116.22616 41.81115
#
# Poissons Ratio (x) = 1.01270 0.68484
# Poissons Ratio (y) = 0.35797 -0.18561
# Poissons Ratio (z) = 0.67292 -0.51597
#
# Static dielectric constant tensor:
#      x y z
#    x 1.944060 0.000000 -0.018960 
#    y 0.000000 1.860790 0.000000 
#    z -0.018960 0.000000 2.007440 
# 
# From -- ./inp_files/229648.got.cif
#   From: 2010.05.17/outbox.cif.g08.bks.cpg/sg15_115_cif.got.tgz:229648.got - 2010.06.03 18:47:42.
