data_PCOD9277484
_publ_section_title
;
Structure prediction by ZEFSAII (Michael W. Deem and Ramdas Pophale) SiO2 
 PCOD9277484
Probable space group: C 2/C
;
_chemical_formula_sum "Si O2"
_cell_formula_units_Z 36
_cell_length_a 13.963689
_cell_length_b 7.264624
_cell_length_c 18.013226
_cell_angle_alpha 90.000000
_cell_angle_beta 54.960761
_cell_angle_gamma 90.000000
_cell_volume 1496.101003
_symmetry_space_group_name_H-M "C 2/C"
_symmetry_group_IT_number 15
_symmetry_cell_setting 'monoclinic'
loop_
_space_group_symop_operation_xyz
x,y,z
-x,y,1/2-z
-x,-y,-z
x,-y,1/2+z
1/2+x,1/2+y,z
1/2-x,1/2+y,1/2-z
1/2-x,1/2-y,-z
1/2+x,1/2-y,1/2+z
loop_
_atom_site_type_symbol
_atom_site_label
_atom_site_fract_x
_atom_site_fract_y
_atom_site_fract_z
Si Si1 0.486354 0.214643 0.029546
Si Si2 0.930447 0.373951 0.850223
Si Si3 0.756234 0.105015 0.321977
Si Si4 0.792976 0.178671 0.135163
Si Si5 0.000000 0.721935 0.750000
O O1 0.543726 0.226996 0.085673
O O2 0.347226 0.236096 0.100743
O O3 0.568723 0.337592 0.940815
O O4 0.500000 0.000000 0.000000
O O5 0.796066 0.396840 0.886972
O O6 0.000000 0.282995 0.750000
O O7 0.986358 0.579176 0.825040
O O8 0.755732 0.110879 0.232763
O O9 0.882388 0.166930 0.293195
O O10 0.731828 0.897300 0.356186
#
# Coordination Sequence:
#
# PCOD9277484 Si02
#       5
#     8   8   8   8   4
#     4  10  21  39  64  92 122 162 205 254 306 368
#     4  10  20  41  64  87 127 162 203 250 310 356
#     4  11  22  40  62  93 124 163 206 253 310 362
#     4  11  22  40  66  88 125 163 205 254 311 363
#     4  10  22  36  62  86 124 166 202 252 306 358
#
# _framework density 24.062548
#
# number of rings (size 3 to 8) (size 9 to 14) (size 15 to 20)
#    0.667    0.889    2.222    4.667    1.556    0.000 
#    0.000   14.444    0.000    0.000    0.000    0.000 
#    0.000    0.000    0.000    0.000    0.000    0.000 
#
# Total GULP energy -100675.467911 kJ/mol
# GULP energy per Si atom -5593.081551 kJ/mol
# Density = 2.400778 g / cm^3
# Si number density = 24.062548 Si / 1000 Ang^3
#
#
#
# Elastic Constant Matrix: (Units=GPa)
#
#
# Indices 1 2 3 4 5 6 
#
# 1 124.9014 10.1997 51.0013 0.0000 -43.2726 0.0001
# 2 10.1997 49.5052 15.2587 0.0000 -18.9011 0.0002
# 3 51.0013 15.2587 96.3010 0.0000 -34.0785 0.0000
# 4 0.0000 0.0000 0.0000 14.5471 0.0000 -14.4096
# 5 -43.2726 -18.9011 -34.0785 0.0000 51.1514 0.0000
# 6 0.0001 0.0002 0.0000 -14.4096 0.0000 35.4434
#
#
#
# Elastic Compliance Matrix: (Units=1/GPa)
#
#
# Indices 1 2 3 4 5 6 
#
# 1 0.012409 0.001928 -0.003808 0.000000 0.008673 0.000000
# 2 0.001928 0.023871 -0.001446 0.000000 0.009489 0.000000
# 3 -0.003808 -0.001446 0.014787 0.000000 0.006096 0.000000
# 4 0.000000 0.000000 0.000000 0.115091 0.000000 0.046791
# 5 0.008673 0.009489 0.006096 0.000000 0.034454 0.000000
# 6 0.000000 0.000000 0.000000 0.046791 0.000000 0.047237
#
#
# Mechanical properties :
#
#
# Convention : Reuss Voigt Hill
#
# Bulk Modulus (GPa) = 22.51449 47.06967 34.79208
# Shear Modulus (GPa) = 18.56635 33.17824 25.87230
#
# Velocity S-wave (km/s) = 2.78076 3.71729 3.28260
# Velocity P-wave (km/s) = 4.43702 6.16670 5.37193
#
# Compressibility (1/GPa) = 0.04441584
#
# Stress axis : x y z
#
# Youngs Moduli (GPa) = 80.58985 41.89178 67.62638
#
# Poissons Ratio (x) = -0.08079 0.25753
# Poissons Ratio (y) = -0.15541 0.09777
# Poissons Ratio (z) = 0.30689 0.06057
#
# Static dielectric constant tensor:
#      x y z
#    x 1.901260 0.000000 -0.028590 
#    y 0.000000 1.959820 0.000000 
#    z -0.028590 0.000000 1.991520 
# 
# From -- ./inp_files/176810.got.cif
#   From: 2010.05.17/outbox.cif.g08.bks.cpg/sg15_89_cif.got.tgz:176810.got - 2010.06.03 18:47:42.
