data_PCOD9277441
_publ_section_title
;
Structure prediction by ZEFSAII (Michael W. Deem and Ramdas Pophale) SiO2 
 PCOD9277441
Probable space group: C 2/C
;
_chemical_formula_sum "Si O2"
_cell_formula_units_Z 48
_cell_length_a 11.099033
_cell_length_b 17.269965
_cell_length_c 8.795989
_cell_angle_alpha 90.000000
_cell_angle_beta 83.459288
_cell_angle_gamma 90.000000
_cell_volume 1675.040407
_symmetry_space_group_name_H-M "C 2/C"
_symmetry_group_IT_number 15
_symmetry_cell_setting 'monoclinic'
loop_
_space_group_symop_operation_xyz
x,y,z
-x,y,1/2-z
-x,-y,-z
x,-y,1/2+z
1/2+x,1/2+y,z
1/2-x,1/2+y,1/2-z
1/2-x,1/2-y,-z
1/2+x,1/2-y,1/2+z
loop_
_atom_site_type_symbol
_atom_site_label
_atom_site_fract_x
_atom_site_fract_y
_atom_site_fract_z
Si Si1 0.038180 0.866881 0.575118
Si Si2 0.061560 0.387450 0.101916
Si Si3 0.386243 0.530099 0.878416
Si Si4 0.134193 0.382128 0.784624
Si Si5 0.699284 0.132576 0.946599
Si Si6 0.287290 0.715550 0.681592
O O1 0.100873 0.814151 0.437555
O O2 0.000000 0.837437 0.750000
O O3 0.927886 0.914752 0.511742
O O4 0.127210 0.940174 0.587814
O O5 0.166069 0.328405 0.141458
O O6 0.000000 0.434807 0.250000
O O7 0.106552 0.428826 0.943257
O O8 0.938473 0.343241 0.068119
O O9 0.500000 0.537245 0.750000
O O10 0.261584 0.564496 0.836034
O O11 0.192928 0.403920 0.615966
O O12 0.211544 0.307522 0.826757
O O13 0.000000 0.355259 0.750000
O O14 0.785996 0.199578 0.864294
#
# Coordination Sequence:
#
# PCOD9277441 Si02
#       6
#     8   8   8   8   8   8
#     4  10  23  37  60  95 122 156 206 257 309 360
#     4   9  21  40  56  83 122 158 197 250 305 359
#     4  10  20  41  63  88 123 159 205 259 303 358
#     4  10  22  37  60  91 120 160 211 249 305 372
#     4  10  21  39  62  84 118 165 203 253 299 366
#     4  11  21  38  60  87 124 163 197 258 309 361
#
# _framework density 28.656025
#
# number of rings (size 3 to 8) (size 9 to 14) (size 15 to 20)
#    0.000    2.000    1.667    1.000    4.667    0.667 
#    0.000    0.833    0.000    7.000    0.000    0.000 
#    0.000    0.000    0.000    0.000    0.000    0.000 
#
# Total GULP energy -133821.924760 kJ/mol
# GULP energy per Si atom -5575.913532 kJ/mol
# Density = 2.859080 g / cm^3
# Si number density = 28.656025 Si / 1000 Ang^3
#
#
#
# Elastic Constant Matrix: (Units=GPa)
#
#
# Indices 1 2 3 4 5 6 
#
# 1 148.8007 33.5218 33.3108 0.0000 -36.4664 0.0000
# 2 33.5218 60.4746 28.4659 0.0000 -9.5701 0.0000
# 3 33.3108 28.4659 255.6797 0.0000 -30.1062 0.0000
# 4 0.0000 0.0000 0.0000 40.4824 0.0000 -1.9395
# 5 -36.4664 -9.5701 -30.1062 0.0000 43.1035 0.0000
# 6 0.0000 0.0000 0.0000 -1.9395 0.0000 34.5316
#
#
#
# Elastic Compliance Matrix: (Units=1/GPa)
#
#
# Indices 1 2 3 4 5 6 
#
# 1 0.009358 -0.004103 0.000068 0.000000 0.007054 0.000000
# 2 -0.004103 0.019552 -0.001678 0.000000 -0.000302 0.000000
# 3 0.000068 -0.001678 0.004415 0.000000 0.002769 0.000000
# 4 0.000000 0.000000 0.000000 0.024769 0.000000 0.001391
# 5 0.007054 -0.000302 0.002769 0.000000 0.031035 0.000000
# 6 0.000000 0.000000 0.000000 0.001391 0.000000 0.029037
#
#
# Mechanical properties :
#
#
# Convention : Reuss Voigt Hill
#
# Bulk Modulus (GPa) = 45.66235 72.83912 59.25073
# Shear Modulus (GPa) = 36.52525 48.26726 42.39626
#
# Velocity S-wave (km/s) = 3.57404 4.10856 3.85058
# Velocity P-wave (km/s) = 5.74464 6.92680 6.36323
#
# Compressibility (1/GPa) = 0.02189988
#
# Stress axis : x y z
#
# Youngs Moduli (GPa) = 106.85865 51.14500 226.49517
#
# Poissons Ratio (x) = 0.20986 -0.01545
# Poissons Ratio (y) = 0.43846 0.38002
# Poissons Ratio (z) = -0.00729 0.08581
#
# Static dielectric constant tensor:
#      x y z
#    x 2.382720 0.000000 0.221060 
#    y 0.000000 2.240310 0.000000 
#    z 0.221060 0.000000 2.433110 
# 
# From -- ./inp_files/32509.got.cif
#   From: 2010.05.17/outbox.cif.g08.bks.cpg/sg15_17_cif.got.tgz:32509.got - 2010.06.03 18:47:42.
