data_PCOD9277604
_publ_section_title
;
Structure prediction by ZEFSAII (Michael W. Deem and Ramdas Pophale) SiO2 
 PCOD9277604
Probable space group: C 2/C
;
_chemical_formula_sum "Si O2"
_cell_formula_units_Z 36
_cell_length_a 18.173943
_cell_length_b 7.375678
_cell_length_c 16.168807
_cell_angle_alpha 90.000000
_cell_angle_beta 137.282751
_cell_angle_gamma 90.000000
_cell_volume 1470.288940
_symmetry_space_group_name_H-M "C 2/C"
_symmetry_group_IT_number 15
_symmetry_cell_setting 'monoclinic'
loop_
_space_group_symop_operation_xyz
x,y,z
-x,y,1/2-z
-x,-y,-z
x,-y,1/2+z
1/2+x,1/2+y,z
1/2-x,1/2+y,1/2-z
1/2-x,1/2-y,-z
1/2+x,1/2-y,1/2+z
loop_
_atom_site_type_symbol
_atom_site_label
_atom_site_fract_x
_atom_site_fract_y
_atom_site_fract_z
Si Si1 0.396029 0.003924 0.525356
Si Si2 0.562150 0.549516 0.154794
Si Si3 0.656238 0.629278 0.066873
Si Si4 0.500000 0.769038 0.250000
Si Si5 0.131837 0.644039 0.174338
O O1 0.336256 0.810493 0.481233
O O2 0.518414 0.944972 0.603072
O O3 0.417209 0.114110 0.625842
O O4 0.348080 0.110279 0.406501
O O5 0.600666 0.675382 0.110807
O O6 0.573164 0.644952 0.250613
O O7 0.619785 0.357071 0.186667
O O8 0.433017 0.506786 0.042246
O O9 0.773739 0.563904 0.190475
#
# Coordination Sequence:
#
# PCOD9277604 Si02
#       5
#     8   8   8   4   8
#     4  10  22  38  63  89 120 159 195 245 303 351
#     4  10  22  38  63  89 120 159 195 245 303 351
#     4  10  20  41  66  90 114 154 207 247 288 357
#     4  12  24  42  54  84 132 158 192 248 302 354
#     4  10  20  41  66  90 114 154 207 247 288 357
#
# _framework density 24.484981999999999
#
# number of rings (size 3 to 8) (size 9 to 14) (size 15 to 20)
#    0.000    1.778    0.000    6.667    0.000    3.556 
#    0.000   14.444    0.000    0.000    0.000    0.000 
#    0.000    0.000    0.000    0.000    0.000    0.000 
#
# Total GULP energy -100669.132118 kJ/mol
# GULP energy per Si atom -5592.729562 kJ/mol
# Density = 2.442925 g / cm^3
# Si number density = 24.484982 Si / 1000 Ang^3
#
#
#
# Elastic Constant Matrix: (Units=GPa)
#
#
# Indices 1 2 3 4 5 6 
#
# 1 34.9593 22.7602 24.9801 0.0000 -19.4104 0.0000
# 2 22.7602 70.8803 11.5807 0.0000 -16.2076 0.0000
# 3 24.9801 11.5807 117.8004 0.0000 5.5618 0.0000
# 4 0.0000 0.0000 0.0000 41.8427 0.0000 -12.5757
# 5 -19.4104 -16.2076 5.5618 0.0000 51.7176 0.0000
# 6 0.0000 0.0000 0.0000 -12.5757 0.0000 18.4512
#
#
#
# Elastic Compliance Matrix: (Units=1/GPa)
#
#
# Indices 1 2 3 4 5 6 
#
# 1 0.053920 -0.011407 -0.011156 0.000000 0.017862 0.000000
# 2 -0.011407 0.017969 0.000592 0.000000 0.001286 0.000000
# 3 -0.011156 0.000592 0.011041 0.000000 -0.005189 0.000000
# 4 0.000000 0.000000 0.000000 0.030056 0.000000 0.020485
# 5 0.017862 0.001286 -0.005189 0.000000 0.027001 0.000000
# 6 0.000000 0.000000 0.000000 0.020485 0.000000 0.068159
#
#
# Mechanical properties :
#
#
# Convention : Reuss Voigt Hill
#
# Bulk Modulus (GPa) = 25.64915 38.03132 31.84024
# Shear Modulus (GPa) = 18.86195 33.35692 26.10943
#
# Velocity S-wave (km/s) = 2.77852 3.69500 3.26904
# Velocity P-wave (km/s) = 4.55980 5.81121 5.22312
#
# Compressibility (1/GPa) = 0.03898764
#
# Stress axis : x y z
#
# Youngs Moduli (GPa) = 18.54590 55.65253 90.56810
#
# Poissons Ratio (x) = 0.63484 1.01037
# Poissons Ratio (y) = 0.21156 -0.05359
# Poissons Ratio (z) = 0.20690 -0.03293
#
# Static dielectric constant tensor:
#      x y z
#    x 1.937890 0.000000 0.007270 
#    y 0.000000 2.012810 0.000000 
#    z 0.007270 0.000000 1.965960 
# 
# From -- ./inp_files/218075.got.cif
#   From: 2010.05.17/outbox.cif.g08.bks.cpg/sg15_110_cif.got.tgz:218075.got - 2010.06.03 18:47:42.
