data_PCOD9277166
_publ_section_title
;
Structure prediction by ZEFSAII (Michael W. Deem and Ramdas Pophale) SiO2 
 PCOD9277166
Probable space group: C 2/C
;
_chemical_formula_sum "Si O2"
_cell_formula_units_Z 44
_cell_length_a 8.886906
_cell_length_b 27.034996
_cell_length_c 9.662950
_cell_angle_alpha 90.000000
_cell_angle_beta 121.736975
_cell_angle_gamma 90.000000
_cell_volume 1974.451908
_symmetry_space_group_name_H-M "C 2/C"
_symmetry_group_IT_number 15
_symmetry_cell_setting 'monoclinic'
loop_
_space_group_symop_operation_xyz
x,y,z
-x,y,1/2-z
-x,-y,-z
x,-y,1/2+z
1/2+x,1/2+y,z
1/2-x,1/2+y,1/2-z
1/2-x,1/2-y,-z
1/2+x,1/2-y,1/2+z
loop_
_atom_site_type_symbol
_atom_site_label
_atom_site_fract_x
_atom_site_fract_y
_atom_site_fract_z
Si Si1 0.000000 0.014982 0.750000
Si Si2 0.209024 0.205774 0.374395
Si Si3 0.000000 0.444432 0.250000
Si Si4 0.779748 0.969714 0.891886
Si Si5 0.802402 0.771674 0.173012
Si Si6 0.000000 0.389293 0.750000
Si Si7 0.032281 0.643834 0.562378
O O1 0.097830 0.982826 0.679589
O O2 0.870758 0.044260 0.582636
O O3 0.250000 0.250000 0.500000
O O4 0.293329 0.225621 0.273002
O O5 0.328028 0.160210 0.482709
O O6 0.000000 0.197090 0.250000
O O7 0.839274 0.481451 0.136197
O O8 0.056373 0.407479 0.154210
O O9 0.657292 0.925534 0.782512
O O10 0.665773 0.812188 0.167524
O O11 0.000000 0.792193 0.250000
O O12 0.750000 0.750000 0.000000
O O13 0.937815 0.360827 0.586263
#
# Coordination Sequence:
#
# PCOD9277166 Si02
#       7
#     4   8   4   8   8   4   8
#     4  10  20  40  68  98 118 164 222 254 312 400
#     4  12  23  43  68  92 128 178 219 267 333 386
#     4  11  24  44  66  94 129 176 213 262 326 391
#     4  10  22  44  70  90 134 174 204 262 338 380
#     4  12  23  43  68  92 128 178 219 267 333 386
#     4  11  24  44  66  94 129 176 213 262 326 391
#     4  12  24  41  68 100 132 166 230 273 312 392
#
# _framework density 22.284666000000001
#
# number of rings (size 3 to 8) (size 9 to 14) (size 15 to 20)
#    0.000    0.727    3.636    4.364    0.000    2.909 
#   19.636    0.000    0.000    0.000    0.000    0.000 
#    0.000    0.000    0.000    0.000    0.000    0.000 
#
# Total GULP energy -122928.218833 kJ/mol
# GULP energy per Si atom -5587.646311 kJ/mol
# Density = 2.223394 g / cm^3
# Si number density = 22.284666 Si / 1000 Ang^3
#
#
#
# Elastic Constant Matrix: (Units=GPa)
#
#
# Indices 1 2 3 4 5 6 
#
# 1 94.3451 2.9983 16.2572 0.0000 14.8062 0.0000
# 2 2.9983 56.3115 5.6895 0.0000 11.7137 0.0000
# 3 16.2572 5.6895 102.5355 0.0000 -9.2451 0.0000
# 4 0.0000 0.0000 0.0000 19.5476 0.0000 -16.5214
# 5 14.8062 11.7137 -9.2451 0.0000 55.2545 0.0000
# 6 0.0000 0.0000 0.0000 -16.5214 0.0000 -6.9274
#
#
#
# Elastic Compliance Matrix: (Units=1/GPa)
#
#
# Indices 1 2 3 4 5 6 
#
# 1 0.011513 0.000337 -0.002161 0.000000 -0.003518 0.000000
# 2 0.000337 0.018790 -0.001486 0.000000 -0.004322 0.000000
# 3 -0.002161 -0.001486 0.010416 0.000000 0.002637 0.000000
# 4 0.000000 0.000000 0.000000 0.016964 0.000000 -0.040457
# 5 -0.003518 -0.004322 0.002637 0.000000 0.020398 0.000000
# 6 0.000000 0.000000 0.000000 -0.040457 0.000000 -0.047867
#
#
# Mechanical properties :
#
#
# Convention : Reuss Voigt Hill
#
# Bulk Modulus (GPa) = 29.32671 33.67579 31.50125
# Shear Modulus (GPa) = 103.73620 28.79140 66.26380
#
# Velocity S-wave (km/s) = 6.83019 3.59832 5.45891
# Velocity P-wave (km/s) = 8.68278 5.69283 7.34163
#
# Compressibility (1/GPa) = 0.03409860
#
# Stress axis : x y z
#
# Youngs Moduli (GPa) = 86.85637 53.22079 96.00977
#
# Poissons Ratio (x) = -0.01795 0.20751
# Poissons Ratio (y) = -0.02929 0.14265
# Poissons Ratio (z) = 0.18773 0.07908
#
# Static dielectric constant tensor:
#      x y z
#    x 1.823550 0.000000 0.089190 
#    y 0.000000 1.747510 0.000000 
#    z 0.089190 0.000000 1.791370 
# 
# From -- ./inp_files/26297.got.cif
#   From: 2010.05.17/outbox.cif.g08.bks.cpg/sg15_14_cif.got.tgz:26297.got - 2010.06.03 18:47:42.
