data_PCOD9277383
_publ_section_title
;
Structure prediction by ZEFSAII (Michael W. Deem and Ramdas Pophale) SiO2 
 PCOD9277383
Probable space group: C 2/C
;
_chemical_formula_sum "Si O2"
_cell_formula_units_Z 48
_cell_length_a 20.351304
_cell_length_b 7.350086
_cell_length_c 14.988533
_cell_angle_alpha 90.000000
_cell_angle_beta 73.620493
_cell_angle_gamma 90.000000
_cell_volume 2151.048729
_symmetry_space_group_name_H-M "C 2/C"
_symmetry_group_IT_number 15
_symmetry_cell_setting 'monoclinic'
loop_
_space_group_symop_operation_xyz
x,y,z
-x,y,1/2-z
-x,-y,-z
x,-y,1/2+z
1/2+x,1/2+y,z
1/2-x,1/2+y,1/2-z
1/2-x,1/2-y,-z
1/2+x,1/2-y,1/2+z
loop_
_atom_site_type_symbol
_atom_site_label
_atom_site_fract_x
_atom_site_fract_y
_atom_site_fract_z
Si Si1 0.445959 0.474081 0.196662
Si Si2 0.956652 0.584276 0.128886
Si Si3 0.820124 0.652116 0.942897
Si Si4 0.693989 0.686266 0.233515
Si Si5 0.186052 0.562560 0.887689
Si Si6 0.969418 0.248302 0.433982
O O1 0.500000 0.531381 0.250000
O O2 0.443434 0.256296 0.196081
O O3 0.371742 0.556187 0.241212
O O4 0.481643 0.577295 0.100556
O O5 0.886614 0.488412 0.127106
O O6 0.007042 0.421420 0.135656
O O7 0.982514 0.682063 0.028787
O O8 0.819881 0.654853 0.835248
O O9 0.887773 0.766245 0.948469
O O10 0.750000 0.750000 0.000000
O O11 0.820799 0.468140 0.003091
O O12 0.758769 0.579568 0.170955
O O13 0.705193 0.751444 0.330676
#
# Coordination Sequence:
#
# PCOD9277383 Si02
#       6
#     8   8   8   8   8   8
#     4  12  23  36  60  94 122 161 210 257 313 370
#     4  10  22  38  63  88 122 161 213 251 310 379
#     4   9  20  38  64  85 121 171 202 253 325 372
#     4  11  21  39  62  87 128 164 211 264 315 376
#     4  10  21  39  62  88 121 167 210 257 324 374
#     4  10  20  41  61  88 123 164 201 262 313 362
#
# _framework density 22.314696999999999
#
# number of rings (size 3 to 8) (size 9 to 14) (size 15 to 20)
#    0.000    1.667    3.333    1.500    0.000    2.000 
#    0.000    0.833    0.000    0.000    0.000    0.000 
#    0.000    0.000    0.000    0.000    0.000    0.000 
#
# Total GULP energy -133798.483160 kJ/mol
# GULP energy per Si atom -5574.936798 kJ/mol
# Density = 2.226391 g / cm^3
# Si number density = 22.314697 Si / 1000 Ang^3
#
#
#
# Elastic Constant Matrix: (Units=GPa)
#
#
# Indices 1 2 3 4 5 6 
#
# 1 84.5405 8.8374 4.6887 0.0000 -25.3396 0.0000
# 2 8.8374 63.8813 9.1133 0.0000 -6.9626 0.0000
# 3 4.6887 9.1133 59.3196 0.0000 -6.5156 0.0000
# 4 0.0000 0.0000 0.0000 29.1982 0.0000 -2.9665
# 5 -25.3396 -6.9626 -6.5156 0.0000 32.9231 0.0000
# 6 0.0000 0.0000 0.0000 -2.9665 0.0000 8.7398
#
#
#
# Elastic Compliance Matrix: (Units=1/GPa)
#
#
# Indices 1 2 3 4 5 6 
#
# 1 0.015424 -0.000885 0.000205 0.000000 0.011725 0.000000
# 2 -0.000885 0.016343 -0.002184 0.000000 0.002343 0.000000
# 3 0.000205 -0.002184 0.017525 0.000000 0.003164 0.000000
# 4 0.000000 0.000000 0.000000 0.035472 0.000000 0.012040
# 5 0.011725 0.002343 0.003164 0.000000 0.040519 0.000000
# 6 0.000000 0.000000 0.000000 0.012040 0.000000 0.118505
#
#
# Mechanical properties :
#
#
# Convention : Reuss Voigt Hill
#
# Bulk Modulus (GPa) = 22.95465 28.11336 25.53401
# Shear Modulus (GPa) = 18.93666 26.51236 22.72451
#
# Velocity S-wave (km/s) = 2.91627 3.45064 3.19465
# Velocity P-wave (km/s) = 4.65280 5.33871 5.00751
#
# Compressibility (1/GPa) = 0.04356416
#
# Stress axis : x y z
#
# Youngs Moduli (GPa) = 64.83359 61.18702 57.06252
#
# Poissons Ratio (x) = 0.05416 -0.01168
# Poissons Ratio (y) = 0.05738 0.12460
# Poissons Ratio (z) = -0.01327 0.13360
#
# Static dielectric constant tensor:
#      x y z
#    x 1.780310 0.000000 0.046050 
#    y 0.000000 1.886570 0.000000 
#    z 0.046050 0.000000 1.795360 
# 
# From -- ./inp_files/217747.got.cif
#   From: 2010.05.17/outbox.cif.g08.bks.cpg/sg15_109_cif.got.tgz:217747.got - 2010.06.03 18:47:42.
