data_PCOD9277340
_publ_section_title
;
Structure prediction by ZEFSAII (Michael W. Deem and Ramdas Pophale) SiO2 
 PCOD9277340
Probable space group: C 2/C
;
_chemical_formula_sum "Si O2"
_cell_formula_units_Z 60
_cell_length_a 11.585108
_cell_length_b 25.967130
_cell_length_c 18.714575
_cell_angle_alpha 90.000000
_cell_angle_beta 152.442366
_cell_angle_gamma 90.000000
_cell_volume 2604.640416
_symmetry_space_group_name_H-M "C 2/C"
_symmetry_group_IT_number 15
_symmetry_cell_setting 'monoclinic'
loop_
_space_group_symop_operation_xyz
x,y,z
-x,y,1/2-z
-x,-y,-z
x,-y,1/2+z
1/2+x,1/2+y,z
1/2-x,1/2+y,1/2-z
1/2-x,1/2-y,-z
1/2+x,1/2-y,1/2+z
loop_
_atom_site_type_symbol
_atom_site_label
_atom_site_fract_x
_atom_site_fract_y
_atom_site_fract_z
Si Si1 0.002348 0.272887 0.170099
Si Si2 0.614017 0.107605 0.886589
Si Si3 0.500000 0.929872 0.750000
Si Si4 0.643698 0.052546 0.486295
Si Si5 0.736408 0.053869 0.091959
Si Si6 0.857235 0.142572 0.368494
Si Si7 0.441726 0.731160 0.520356
Si Si8 0.159867 0.333272 0.987763
O O1 0.988263 0.334666 0.161932
O O2 0.000000 0.253577 0.250000
O O3 0.280935 0.261315 0.296104
O O4 0.750000 0.250000 0.000000
O O5 0.500000 0.085589 0.750000
O O6 0.575101 0.079204 0.939976
O O7 0.910341 0.113746 0.037944
O O8 0.445121 0.956466 0.644324
O O9 0.263535 0.893492 0.636991
O O10 0.416753 0.052392 0.418758
O O11 0.767072 0.109554 0.558514
O O12 0.795774 0.002750 0.593104
O O13 0.000000 0.081358 0.250000
O O14 0.626737 0.153376 0.189717
O O15 0.950744 0.195309 0.455838
O O16 0.277820 0.697965 0.486006
O O17 0.335813 0.788735 0.449871
#
# Coordination Sequence:
#
# PCOD9277340 Si02
#       8
#     8   8   4   8   8   8   8   8
#     4  11  24  41  64  99 142 186 235 290 341 425
#     4  11  24  43  68 101 141 185 240 294 350 431
#     4  10  20  40  76 100 130 180 228 292 360 412
#     4  10  23  46  68 101 135 177 235 299 353 435
#     4  11  25  48  69  98 142 184 237 299 366 425
#     4  11  18  40  65  97 137 170 237 292 332 427
#     4  11  20  37  64  99 137 176 225 284 348 423
#     4  10  22  39  66  97 134 183 226 290 363 416
#
# _framework density 23.035810999999999
#
# number of rings (size 3 to 8) (size 9 to 14) (size 15 to 20)
#    0.000    1.333    5.333    2.400    0.933    1.600 
#    9.600    2.667    0.000    0.000    0.000    0.000 
#    0.000    0.000    0.000    0.000    0.000    0.000 
#
# Total GULP energy -167458.552492 kJ/mol
# GULP energy per Si atom -5581.951750 kJ/mol
# Density = 2.298338 g / cm^3
# Si number density = 23.035811 Si / 1000 Ang^3
#
#
#
# Elastic Constant Matrix: (Units=GPa)
#
#
# Indices 1 2 3 4 5 6 
#
# 1 76.5311 11.0715 25.5259 -0.0017 -20.6624 -0.0053
# 2 11.0715 85.6483 13.5272 0.0038 -22.1359 0.0092
# 3 25.5259 13.5272 99.6957 0.0236 -24.6400 0.0316
# 4 -0.0017 0.0038 0.0236 28.1574 -0.0007 -9.5303
# 5 -20.6624 -22.1359 -24.6400 -0.0007 43.6275 0.0002
# 6 -0.0053 0.0092 0.0316 -9.5303 0.0002 25.6355
#
#
#
# Elastic Compliance Matrix: (Units=1/GPa)
#
#
# Indices 1 2 3 4 5 6 
#
# 1 0.015503 -0.000088 -0.002503 0.000006 0.005884 0.000009
# 2 -0.000088 0.013441 -0.000146 -0.000004 0.006695 -0.000006
# 3 -0.002503 -0.000146 0.012064 -0.000018 0.005554 -0.000022
# 4 0.000006 -0.000004 -0.000018 0.040627 -0.000008 0.015103
# 5 0.005884 0.006695 0.005554 -0.000008 0.032242 -0.000011
# 6 0.000009 -0.000006 -0.000022 0.015103 -0.000011 0.044623
#
#
# Mechanical properties :
#
#
# Convention : Reuss Voigt Hill
#
# Bulk Modulus (GPa) = 28.14354 40.23603 34.18978
# Shear Modulus (GPa) = 28.43853 33.60079 31.01966
#
# Velocity S-wave (km/s) = 3.51741 3.82335 3.67356
# Velocity P-wave (km/s) = 5.36097 6.08238 5.73303
#
# Compressibility (1/GPa) = 0.03553213
#
# Stress axis : x y z
#
# Youngs Moduli (GPa) = 64.50461 74.40185 82.89189
#
# Poissons Ratio (x) = 0.00654 0.20749
# Poissons Ratio (y) = 0.00567 0.01214
# Poissons Ratio (z) = 0.16146 0.01090
#
# Static dielectric constant tensor:
#      x y z
#    x 1.942330 0.000010 0.048230 
#    y 0.000010 1.911930 0.000010 
#    z 0.048230 0.000010 1.957490 
# 
# From -- ./inp_files/201278.got.cif
#   From: 2010.05.17/outbox.cif.g08.bks.cpg/sg15_101_cif.got.tgz:201278.got - 2010.06.03 18:47:42.
