data_PCOD9277943
_publ_section_title
;
Structure prediction by ZEFSAII (Michael W. Deem and Ramdas Pophale) SiO2 
 PCOD9277943
Probable space group: C 2/C
;
_chemical_formula_sum "Si O2"
_cell_formula_units_Z 52
_cell_length_a 24.449989
_cell_length_b 7.382441
_cell_length_c 24.233102
_cell_angle_alpha 90.000000
_cell_angle_beta 144.314403
_cell_angle_gamma 90.000000
_cell_volume 2551.568461
_symmetry_space_group_name_H-M "C 2/C"
_symmetry_group_IT_number 15
_symmetry_cell_setting 'monoclinic'
loop_
_space_group_symop_operation_xyz
x,y,z
-x,y,1/2-z
-x,-y,-z
x,-y,1/2+z
1/2+x,1/2+y,z
1/2-x,1/2+y,1/2-z
1/2-x,1/2-y,-z
1/2+x,1/2-y,1/2+z
loop_
_atom_site_type_symbol
_atom_site_label
_atom_site_fract_x
_atom_site_fract_y
_atom_site_fract_z
Si Si1 0.282227 0.558513 0.725059
Si Si2 0.000000 0.364765 0.750000
Si Si3 0.936550 0.329543 0.812975
Si Si4 0.687989 0.563665 0.520980
Si Si5 0.711558 0.138257 0.788859
Si Si6 0.147427 0.624119 0.927193
Si Si7 0.151154 0.342022 0.017814
O O1 0.373069 0.683654 0.792087
O O2 0.306143 0.351840 0.729770
O O3 0.243734 0.568706 0.755475
O O4 0.202825 0.637608 0.618445
O O5 0.050830 0.265432 0.740832
O O6 0.067015 0.497855 0.838179
O O7 0.876622 0.515915 0.764317
O O8 0.037823 0.352863 0.924876
O O9 0.705071 0.609844 0.598547
O O10 0.780148 0.630597 0.563726
O O11 0.614262 0.687586 0.427315
O O12 0.674230 0.349669 0.507785
O O13 0.189529 0.505126 0.011644
#
# Coordination Sequence:
#
# PCOD9277943 Si02
#       7
#     8   4   8   8   8   8   8
#     4  12  24  46  70  94 134 186 221 282 337 399
#     4  10  20  42  62  98 144 168 212 288 326 406
#     4  11  25  43  66 102 136 173 227 278 335 404
#     4  11  21  40  63  96 130 180 224 270 332 402
#     4  12  23  45  69  93 135 176 230 274 335 398
#     4  10  21  37  64  95 134 177 223 267 334 399
#     4  11  23  41  66  98 134 174 225 275 341 393
#
# _framework density 20.379621
#
# number of rings (size 3 to 8) (size 9 to 14) (size 15 to 20)
#    0.000    0.923    6.154    0.462    0.000    4.308 
#    0.000    3.077    0.000    0.000    0.000    0.000 
#    0.000    0.000    0.000    0.000    0.000    0.000 
#
# Total GULP energy -145040.102830 kJ/mol
# GULP energy per Si atom -5578.465493 kJ/mol
# Density = 2.033324 g / cm^3
# Si number density = 20.379621 Si / 1000 Ang^3
#
#
#
# Elastic Constant Matrix: (Units=GPa)
#
#
# Indices 1 2 3 4 5 6 
#
# 1 89.7844 12.6577 27.7276 0.0000 -18.8441 0.0000
# 2 12.6577 108.6566 -12.3217 0.0003 6.6103 -0.0003
# 3 27.7276 -12.3217 50.3460 0.0000 -8.7115 0.0001
# 4 0.0000 0.0003 0.0000 6.5111 0.0000 -10.8662
# 5 -18.8441 6.6103 -8.7115 0.0000 29.1349 -0.0001
# 6 0.0000 -0.0003 0.0001 -10.8662 -0.0001 21.7962
#
#
#
# Elastic Compliance Matrix: (Units=1/GPa)
#
#
# Indices 1 2 3 4 5 6 
#
# 1 0.015904 -0.003293 -0.008074 0.000001 0.008620 0.000001
# 2 -0.003293 0.010213 0.003737 -0.000002 -0.003330 -0.000001
# 3 -0.008074 0.003737 0.025492 -0.000002 0.001553 -0.000001
# 4 0.000001 -0.000002 -0.000002 0.914183 0.000002 0.455754
# 5 0.008620 -0.003330 0.001553 0.000002 0.041118 0.000001
# 6 0.000001 -0.000001 -0.000001 0.455754 0.000001 0.273089
#
#
# Mechanical properties :
#
#
# Convention : Reuss Voigt Hill
#
# Bulk Modulus (GPa) = 27.50950 33.87935 30.69442
# Shear Modulus (GPa) = 3.82445 26.20333 15.01389
#
# Velocity S-wave (km/s) = 1.37138 3.58964 2.71719
# Velocity P-wave (km/s) = 4.00442 5.81730 4.99381
#
# Compressibility (1/GPa) = 0.03635108
#
# Stress axis : x y z
#
# Youngs Moduli (GPa) = 62.87533 97.91245 39.22765
#
# Poissons Ratio (x) = 0.32240 0.31671
# Poissons Ratio (y) = 0.20703 -0.14659
# Poissons Ratio (z) = 0.50763 -0.36589
#
# Static dielectric constant tensor:
#      x y z
#    x 1.769390 0.000000 0.006350 
#    y 0.000000 1.806510 0.000000 
#    z 0.006350 0.000000 1.802200 
# 
# From -- ./inp_files/166363.got.cif
#   From: 2010.05.17/outbox.cif.g08.bks.cpg/sg15_84_cif.got.tgz:166363.got - 2010.06.03 18:47:42.
