data_PCOD9277644
_publ_section_title
;
Structure prediction by ZEFSAII (Michael W. Deem and Ramdas Pophale) SiO2 
 PCOD9277644
Probable space group: C 2/C
;
_chemical_formula_sum "Si O2"
_cell_formula_units_Z 48
_cell_length_a 25.102999
_cell_length_b 7.275693
_cell_length_c 10.396198
_cell_angle_alpha 90.000000
_cell_angle_beta 86.282619
_cell_angle_gamma 90.000000
_cell_volume 1894.784384
_symmetry_space_group_name_H-M "C 2/C"
_symmetry_group_IT_number 15
_symmetry_cell_setting 'monoclinic'
loop_
_space_group_symop_operation_xyz
x,y,z
-x,y,1/2-z
-x,-y,-z
x,-y,1/2+z
1/2+x,1/2+y,z
1/2-x,1/2+y,1/2-z
1/2-x,1/2-y,-z
1/2+x,1/2-y,1/2+z
loop_
_atom_site_type_symbol
_atom_site_label
_atom_site_fract_x
_atom_site_fract_y
_atom_site_fract_z
Si Si1 0.484959 0.380769 0.881492
Si Si2 0.629020 0.518517 0.051116
Si Si3 0.156196 0.643756 0.380672
Si Si4 0.088784 0.677806 0.910475
Si Si5 0.215390 0.484759 0.616957
Si Si6 0.308441 0.339204 0.740942
O O1 0.500000 0.488101 0.750000
O O2 0.421978 0.361515 0.894679
O O3 0.528281 0.217043 0.877931
O O4 0.500000 0.500000 0.000000
O O5 0.673977 0.514868 0.153653
O O6 0.649374 0.645450 0.928147
O O7 0.604642 0.317542 0.024480
O O8 0.100121 0.537758 0.413067
O O9 0.192543 0.529004 0.479533
O O10 0.177151 0.609040 0.232288
O O11 0.136039 0.748832 0.809761
O O12 0.271640 0.384160 0.624981
O O13 0.224160 0.687546 0.674358
#
# Coordination Sequence:
#
# PCOD9277644 Si02
#       6
#     8   8   8   8   8   8
#     4  10  20  41  66  96 127 159 206 255 301 374
#     4  10  22  38  65  87 124 163 201 250 311 357
#     4  10  24  43  58  94 124 159 206 258 294 372
#     4  10  22  38  65  87 124 163 201 250 311 357
#     4  10  24  38  60  87 129 155 212 248 300 367
#     4  10  22  37  58  91 121 164 198 258 304 353
#
# _framework density 25.332697
#
# number of rings (size 3 to 8) (size 9 to 14) (size 15 to 20)
#    0.000    2.000    1.667    0.000    7.000    3.333 
#    3.000    0.000    0.000    0.000    0.000    0.000 
#    0.000    0.000    0.000    0.000    0.000    0.000 
#
# Total GULP energy -133845.113723 kJ/mol
# GULP energy per Si atom -5576.879738 kJ/mol
# Density = 2.527504 g / cm^3
# Si number density = 25.332697 Si / 1000 Ang^3
#
#
#
# Elastic Constant Matrix: (Units=GPa)
#
#
# Indices 1 2 3 4 5 6 
#
# 1 94.5370 11.4863 12.7172 0.0000 2.7594 0.0000
# 2 11.4863 70.3019 10.8451 0.0000 -0.9460 0.0000
# 3 12.7172 10.8451 100.3287 0.0000 3.0691 0.0000
# 4 0.0000 0.0000 0.0000 26.1615 0.0000 8.5813
# 5 2.7594 -0.9460 3.0691 0.0000 45.7543 0.0000
# 6 0.0000 0.0000 0.0000 8.5813 0.0000 16.1772
#
#
#
# Elastic Compliance Matrix: (Units=1/GPa)
#
#
# Indices 1 2 3 4 5 6 
#
# 1 0.010953 -0.001613 -0.001195 0.000000 -0.000614 0.000000
# 2 -0.001613 0.014711 -0.001401 0.000000 0.000495 0.000000
# 3 -0.001195 -0.001401 0.010290 0.000000 -0.000647 0.000000
# 4 0.000000 0.000000 0.000000 0.046276 0.000000 -0.024547
# 5 -0.000614 0.000495 -0.000647 0.000000 0.021947 0.000000
# 6 0.000000 0.000000 0.000000 -0.024547 0.000000 0.074837
#
#
# Mechanical properties :
#
#
# Convention : Reuss Voigt Hill
#
# Bulk Modulus (GPa) = 36.31795 37.25166 36.78480
# Shear Modulus (GPa) = 25.43114 32.95985 29.19550
#
# Velocity S-wave (km/s) = 3.17185 3.61096 3.39851
# Velocity P-wave (km/s) = 5.27084 5.66765 5.47284
#
# Compressibility (1/GPa) = 0.02753460
#
# Stress axis : x y z
#
# Youngs Moduli (GPa) = 91.30271 67.97756 97.18222
#
# Poissons Ratio (x) = 0.10967 0.11614
# Poissons Ratio (y) = 0.14731 0.13614
# Poissons Ratio (z) = 0.10912 0.09522
#
# Static dielectric constant tensor:
#      x y z
#    x 2.021350 0.000000 -0.040240 
#    y 0.000000 2.043930 0.000000 
#    z -0.040240 0.000000 2.050730 
# 
# From -- ./inp_files/121126.got.cif
#   From: 2010.05.17/outbox.cif.g08.bks.cpg/sg15_61_cif.got.tgz:121126.got - 2010.06.03 18:47:42.
