data_PCOD9277356
_publ_section_title
;
Structure prediction by ZEFSAII (Michael W. Deem and Ramdas Pophale) SiO2 
 PCOD9277356
Probable space group: C 2/C
;
_chemical_formula_sum "Si O2"
_cell_formula_units_Z 52
_cell_length_a 6.718023
_cell_length_b 12.483669
_cell_length_c 24.786909
_cell_angle_alpha 90.000000
_cell_angle_beta 78.083881
_cell_angle_gamma 90.000000
_cell_volume 2033.972872
_symmetry_space_group_name_H-M "C 2/C"
_symmetry_group_IT_number 15
_symmetry_cell_setting 'monoclinic'
loop_
_space_group_symop_operation_xyz
x,y,z
-x,y,1/2-z
-x,-y,-z
x,-y,1/2+z
1/2+x,1/2+y,z
1/2-x,1/2+y,1/2-z
1/2-x,1/2-y,-z
1/2+x,1/2-y,1/2+z
loop_
_atom_site_type_symbol
_atom_site_label
_atom_site_fract_x
_atom_site_fract_y
_atom_site_fract_z
Si Si1 0.435592 0.239551 0.315280
Si Si2 0.766830 0.964767 0.305412
Si Si3 0.355085 0.048696 0.380959
Si Si4 0.368595 0.592659 0.534396
Si Si5 0.871115 0.814883 0.840245
Si Si6 0.110597 0.331053 0.953733
Si Si7 0.000000 0.644644 0.750000
O O1 0.500000 0.218550 0.250000
O O2 0.362581 0.359816 0.325825
O O3 0.285964 0.147967 0.347376
O O4 0.641604 0.220906 0.336084
O O5 0.699614 0.928249 0.248752
O O6 0.547614 0.993621 0.342234
O O7 0.896843 0.069618 0.310567
O O8 0.444899 0.099940 0.431051
O O9 0.198270 0.957757 0.405210
O O10 0.500000 0.500000 0.500000
O O11 0.174452 0.618859 0.507126
O O12 0.466474 0.709423 0.535570
O O13 0.824416 0.826617 0.906717
O O14 0.997016 0.724311 0.801634
#
# Coordination Sequence:
#
# PCOD9277356 Si02
#       7
#     8   8   8   8   8   8   4
#     4  10  20  41  59  87 124 159 212 250 298 378
#     4  10  23  38  60  83 123 163 196 254 303 355
#     4  10  24  41  63  91 124 166 203 259 315 362
#     4  11  23  41  67  93 121 164 205 261 315 367
#     4  10  24  39  59  91 122 163 202 254 302 366
#     4   9  22  43  59  90 129 151 216 252 303 380
#     4  12  22  34  60  88 118 160 206 240 308 358
#
# _framework density 25.565732000000001
#
# number of rings (size 3 to 8) (size 9 to 14) (size 15 to 20)
#    0.000    2.154    1.538    1.385    5.385    9.231 
#    0.000    0.000    0.000    0.000    0.000    0.000 
#    0.000    0.000    0.000    0.000    0.000    0.000 
#
# Total GULP energy -145393.761545 kJ/mol
# GULP energy per Si atom -5592.067752 kJ/mol
# Density = 2.550754 g / cm^3
# Si number density = 25.565732 Si / 1000 Ang^3
#
#
#
# Elastic Constant Matrix: (Units=GPa)
#
#
# Indices 1 2 3 4 5 6 
#
# 1 21.7131 38.9556 -1.4243 0.0000 1.7561 0.0000
# 2 38.9556 224.5558 40.7588 0.0000 8.5499 0.0000
# 3 -1.4243 40.7588 68.6350 0.0000 0.1694 0.0000
# 4 0.0000 0.0000 0.0000 48.4669 0.0000 6.2694
# 5 1.7561 8.5499 0.1694 0.0000 42.4448 0.0000
# 6 0.0000 0.0000 0.0000 6.2694 0.0000 43.4671
#
#
#
# Elastic Compliance Matrix: (Units=1/GPa)
#
#
# Indices 1 2 3 4 5 6 
#
# 1 0.072587 -0.014414 0.010066 0.000000 -0.000140 0.000000
# 2 -0.014414 0.007896 -0.004986 0.000000 -0.000974 0.000000
# 3 0.010066 -0.004986 0.017738 0.000000 0.000517 0.000000
# 4 0.000000 0.000000 0.000000 0.021025 0.000000 -0.003032
# 5 -0.000140 -0.000974 0.000517 0.000000 0.023760 0.000000
# 6 0.000000 0.000000 0.000000 -0.003032 0.000000 0.023443
#
#
# Mechanical properties :
#
#
# Convention : Reuss Voigt Hill
#
# Bulk Modulus (GPa) = 12.56999 52.38710 32.47855
# Shear Modulus (GPa) = 23.62570 42.65003 33.13786
#
# Velocity S-wave (km/s) = 3.04323 4.08885 3.60416
# Velocity P-wave (km/s) = 4.15641 6.54425 5.48192
#
# Compressibility (1/GPa) = 0.07955454
#
# Stress axis : x y z
#
# Youngs Moduli (GPa) = 13.77655 126.64955 56.37562
#
# Poissons Ratio (x) = 1.82554 -0.56750
# Poissons Ratio (y) = 0.19858 0.28107
# Poissons Ratio (z) = -0.13868 0.63143
#
# Static dielectric constant tensor:
#      x y z
#    x 2.101810 0.000000 -0.078580 
#    y 0.000000 2.008230 0.000000 
#    z -0.078580 0.000000 2.171220 
# 
# From -- ./inp_files/287646.got.cif
#   From: 2010.05.17/outbox.cif.g08.bks.cpg/sg15_144_cif.got.tgz:287646.got - 2010.06.03 18:47:42.
