data_PCOD9277897
_publ_section_title
;
Structure prediction by ZEFSAII (Michael W. Deem and Ramdas Pophale) SiO2 
 PCOD9277897
Probable space group: C 2/C
;
_chemical_formula_sum "Si O2"
_cell_formula_units_Z 60
_cell_length_a 25.720218
_cell_length_b 13.457190
_cell_length_c 15.410442
_cell_angle_alpha 90.000000
_cell_angle_beta 36.805520
_cell_angle_gamma 90.000000
_cell_volume 3195.537958
_symmetry_space_group_name_H-M "C 2/C"
_symmetry_group_IT_number 15
_symmetry_cell_setting 'monoclinic'
loop_
_space_group_symop_operation_xyz
x,y,z
-x,y,1/2-z
-x,-y,-z
x,-y,1/2+z
1/2+x,1/2+y,z
1/2-x,1/2+y,1/2-z
1/2-x,1/2-y,-z
1/2+x,1/2-y,1/2+z
loop_
_atom_site_type_symbol
_atom_site_label
_atom_site_fract_x
_atom_site_fract_y
_atom_site_fract_z
Si Si1 0.444624 0.423397 0.015334
Si Si2 0.163503 0.766026 0.234851
Si Si3 0.067823 0.785945 0.734920
Si Si4 0.617601 0.103182 0.790453
Si Si5 0.500000 0.768090 0.750000
Si Si6 0.668464 0.668216 0.527865
Si Si7 0.317854 0.443026 0.025500
Si Si8 0.033559 0.606385 0.373159
O O1 0.378878 0.358704 0.161214
O O2 0.381622 0.461329 0.022445
O O3 0.500000 0.500000 0.000000
O O4 0.513733 0.352361 0.875221
O O5 0.165594 0.791800 0.130086
O O6 0.101312 0.672748 0.336856
O O7 0.260213 0.727662 0.122956
O O8 0.106069 0.693349 0.737622
O O9 0.137259 0.858870 0.594870
O O10 0.000000 0.753324 0.750000
O O11 0.719033 0.089155 0.676887
O O12 0.574149 0.002653 0.810013
O O13 0.558404 0.114443 0.955534
O O14 0.575011 0.695738 0.615852
O O15 0.472255 0.840551 0.710730
O O16 0.687795 0.552082 0.508889
#
# Coordination Sequence:
#
# PCOD9277897 Si02
#       8
#     8   8   8   8   4   8   8   8
#     4  11  24  41  65  92 126 165 211 264 321 385
#     4  10  20  42  61  90 123 160 205 265 308 375
#     4  10  23  41  64  91 129 172 215 259 323 386
#     4  11  22  42  64  89 129 170 208 268 315 383
#     4  10  24  38  64  94 122 166 204 266 314 380
#     4  10  22  38  66  89 124 159 206 260 319 366
#     4  11  24  40  62  96 125 167 214 260 315 392
#     4  10  22  40  64  90 124 163 214 255 323 373
#
# _framework density 18.776181000000001
#
# number of rings (size 3 to 8) (size 9 to 14) (size 15 to 20)
#    0.000    1.600    2.667    1.200    9.333    0.000 
#    0.000    0.000    2.933    0.000    0.000    0.000 
#    0.000    0.000    0.000    0.000    0.000    0.000 
#
# Total GULP energy -167182.538097 kJ/mol
# GULP energy per Si atom -5572.751270 kJ/mol
# Density = 1.873345 g / cm^3
# Si number density = 18.776181 Si / 1000 Ang^3
#
#
#
# Elastic Constant Matrix: (Units=GPa)
#
#
# Indices 1 2 3 4 5 6 
#
# 1 67.6869 42.0214 38.1253 0.0000 -12.7006 0.0000
# 2 42.0214 108.6008 53.0668 0.0000 -8.9207 0.0000
# 3 38.1253 53.0668 136.4864 0.0000 -22.2469 0.0000
# 4 0.0000 0.0000 0.0000 30.5104 0.0000 9.6201
# 5 -12.7006 -8.9207 -22.2469 0.0000 27.6022 0.0000
# 6 0.0000 0.0000 0.0000 9.6201 0.0000 -4.5895
#
#
#
# Elastic Compliance Matrix: (Units=1/GPa)
#
#
# Indices 1 2 3 4 5 6 
#
# 1 0.021314 -0.006572 -0.002471 0.000000 0.005692 0.000000
# 2 -0.006572 0.013395 -0.003637 0.000000 -0.001627 0.000000
# 3 -0.002471 -0.003637 0.010424 0.000000 0.006089 0.000000
# 4 0.000000 0.000000 0.000000 0.019734 0.000000 0.041364
# 5 0.005692 -0.001627 0.006089 0.000000 0.043230 0.000000
# 6 0.000000 0.000000 0.000000 0.041364 0.000000 -0.131186
#
#
# Mechanical properties :
#
#
# Convention : Reuss Voigt Hill
#
# Bulk Modulus (GPa) = 50.57712 64.35567 57.46640
# Shear Modulus (GPa) = 564.33443 22.67534 293.50489
#
# Velocity S-wave (km/s) = 17.35544 3.47892 12.51627
# Velocity P-wave (km/s) = 20.70290 7.10540 15.47735
#
# Compressibility (1/GPa) = 0.01977178
#
# Stress axis : x y z
#
# Youngs Moduli (GPa) = 46.91838 74.65611 95.93705
#
# Poissons Ratio (x) = 0.49066 0.23702
# Poissons Ratio (y) = 0.30836 0.34895
# Poissons Ratio (z) = 0.11591 0.27154
#
# Static dielectric constant tensor:
#      x y z
#    x 1.680690 0.000000 -0.032960 
#    y 0.000000 1.679950 0.000000 
#    z -0.032960 0.000000 1.670690 
# 
# From -- ./inp_files/224988.got.cif
#   From: 2010.05.17/outbox.cif.g08.bks.cpg/sg15_113_cif.got.tgz:224988.got - 2010.06.03 18:47:42.
