data_PCOD9277909
_publ_section_title
;
Structure prediction by ZEFSAII (Michael W. Deem and Ramdas Pophale) SiO2 
 PCOD9277909
Probable space group: C 2/C
;
_chemical_formula_sum "Si O2"
_cell_formula_units_Z 44
_cell_length_a 11.123266
_cell_length_b 12.760882
_cell_length_c 16.226736
_cell_angle_alpha 90.000000
_cell_angle_beta 65.920118
_cell_angle_gamma 90.000000
_cell_volume 2102.830459
_symmetry_space_group_name_H-M "C 2/C"
_symmetry_group_IT_number 15
_symmetry_cell_setting 'monoclinic'
loop_
_space_group_symop_operation_xyz
x,y,z
-x,y,1/2-z
-x,-y,-z
x,-y,1/2+z
1/2+x,1/2+y,z
1/2-x,1/2+y,1/2-z
1/2-x,1/2-y,-z
1/2+x,1/2-y,1/2+z
loop_
_atom_site_type_symbol
_atom_site_label
_atom_site_fract_x
_atom_site_fract_y
_atom_site_fract_z
Si Si1 0.133414 0.936819 0.480735
Si Si2 0.857243 0.385533 0.933054
Si Si3 0.213621 0.927792 0.290191
Si Si4 0.466935 0.362202 0.666153
Si Si5 0.500000 0.987801 0.750000
Si Si6 0.708994 0.799742 0.382258
O O1 0.161122 0.872689 0.388885
O O2 0.098463 0.879702 0.575028
O O3 0.247989 0.022276 0.458558
O O4 0.000000 0.000000 0.500000
O O5 0.973405 0.421626 0.840575
O O6 0.801362 0.280432 0.906216
O O7 0.872319 0.363090 0.025641
O O8 0.208190 0.869019 0.204955
O O9 0.128061 0.034749 0.307906
O O10 0.366910 0.950024 0.266776
O O11 0.500000 0.336993 0.750000
O O12 0.387881 0.270298 0.644503
#
# Coordination Sequence:
#
# PCOD9277909 Si02
#       6
#     8   8   8   8   4   8
#     4   9  17  39  61  84 117 156 196 245 292 343
#     4  10  21  39  62  88 120 154 204 247 291 351
#     4  10  22  39  61  89 121 158 195 244 303 349
#     4  11  22  41  62  88 122 156 200 248 295 352
#     4  10  20  42  62  84 126 160 190 248 296 366
#     4  11  22  38  60  94 116 157 203 243 297 350
#
# _framework density 20.92418
#
# number of rings (size 3 to 8) (size 9 to 14) (size 15 to 20)
#    0.000    1.818    5.455    1.091    1.273    2.182 
#    4.909    0.909    0.000    0.000    0.000    0.000 
#    0.000    0.000    0.000    0.000    0.000    0.000 
#
# Total GULP energy -122712.542919 kJ/mol
# GULP energy per Si atom -5577.842860 kJ/mol
# Density = 2.087656 g / cm^3
# Si number density = 20.924180 Si / 1000 Ang^3
#
#
#
# Elastic Constant Matrix: (Units=GPa)
#
#
# Indices 1 2 3 4 5 6 
#
# 1 39.1655 5.4379 36.3943 0.0000 5.2720 0.0000
# 2 5.4379 41.8168 50.5126 0.0000 6.2744 0.0000
# 3 36.3943 50.5126 234.0455 0.0000 15.4918 0.0000
# 4 0.0000 0.0000 0.0000 26.0665 0.0000 7.0906
# 5 5.2720 6.2744 15.4918 0.0000 41.6586 0.0000
# 6 0.0000 0.0000 0.0000 7.0906 0.0000 -13.0103
#
#
#
# Elastic Compliance Matrix: (Units=1/GPa)
#
#
# Indices 1 2 3 4 5 6 
#
# 1 0.030229 0.002583 -0.005105 0.000000 -0.002316 0.000000
# 2 0.002583 0.032790 -0.007310 0.000000 -0.002547 0.000000
# 3 -0.005105 -0.007310 0.006693 0.000000 -0.000742 0.000000
# 4 0.000000 0.000000 0.000000 0.033410 0.000000 0.018209
# 5 -0.002316 -0.002547 -0.000742 0.000000 0.024957 0.000000
# 6 0.000000 0.000000 0.000000 0.018209 0.000000 -0.066938
#
#
# Mechanical properties :
#
#
# Convention : Reuss Voigt Hill
#
# Bulk Modulus (GPa) = 19.98043 55.52417 37.75230
# Shear Modulus (GPa) = 51.28776 25.78847 38.53812
#
# Velocity S-wave (km/s) = 4.95625 3.51447 4.29627
# Velocity P-wave (km/s) = 6.50556 6.56217 6.53393
#
# Compressibility (1/GPa) = 0.05004898
#
# Stress axis : x y z
#
# Youngs Moduli (GPa) = 33.08030 30.49698 149.40425
#
# Poissons Ratio (x) = -0.07877 0.76268
# Poissons Ratio (y) = -0.08544 1.09213
# Poissons Ratio (z) = 0.16887 0.22293
#
# Static dielectric constant tensor:
#      x y z
#    x 1.698440 0.000000 -0.023300 
#    y 0.000000 1.792070 0.000000 
#    z -0.023300 0.000000 1.793270 
# 
# From -- ./inp_files/143341.got.cif
#   From: 2010.05.17/outbox.cif.g08.bks.cpg/sg15_72_cif.got.tgz:143341.got - 2010.06.03 18:47:42.
