data_PCOD9277989
_publ_section_title
;
Structure prediction by ZEFSAII (Michael W. Deem and Ramdas Pophale) SiO2 
 PCOD9277989
Probable space group: C 2/C
;
_chemical_formula_sum "Si O2"
_cell_formula_units_Z 52
_cell_length_a 8.784278
_cell_length_b 14.249781
_cell_length_c 30.470588
_cell_angle_alpha 90.000000
_cell_angle_beta 136.968742
_cell_angle_gamma 90.000000
_cell_volume 2602.749465
_symmetry_space_group_name_H-M "C 2/C"
_symmetry_group_IT_number 15
_symmetry_cell_setting 'monoclinic'
loop_
_space_group_symop_operation_xyz
x,y,z
-x,y,1/2-z
-x,-y,-z
x,-y,1/2+z
1/2+x,1/2+y,z
1/2-x,1/2+y,1/2-z
1/2-x,1/2-y,-z
1/2+x,1/2-y,1/2+z
loop_
_atom_site_type_symbol
_atom_site_label
_atom_site_fract_x
_atom_site_fract_y
_atom_site_fract_z
Si Si1 0.556974 0.120652 0.448209
Si Si2 0.563714 0.666578 0.345918
Si Si3 0.848046 0.187010 0.582316
Si Si4 0.502443 0.960927 0.130418
Si Si5 0.500000 0.537575 0.250000
Si Si6 0.017255 0.265319 0.424134
Si Si7 0.671535 0.868726 0.323945
O O1 0.298700 0.117354 0.406334
O O2 0.711098 0.115413 0.523000
O O3 0.590846 0.223084 0.434349
O O4 0.595084 0.044960 0.418893
O O5 0.461334 0.602228 0.285553
O O6 0.469373 0.692172 0.374191
O O7 0.607195 0.767564 0.331744
O O8 0.689250 0.226113 0.586426
O O9 0.081374 0.140042 0.643674
O O10 0.470402 0.866403 0.096224
O O11 0.364825 0.944722 0.145808
O O12 0.767676 0.980786 0.194463
O O13 0.250000 0.250000 0.500000
O O14 0.500000 0.889928 0.250000
#
# Coordination Sequence:
#
# PCOD9277989 Si02
#       7
#     8   8   8   8   4   8   8
#     4   9  19  40  61  90 119 168 206 258 317 379
#     4   9  18  39  67  83 122 169 207 257 327 389
#     4  10  21  38  66  88 125 166 211 251 330 382
#     4  10  24  39  61  92 128 160 219 267 315 381
#     4  10  20  42  64  88 126 176 216 270 334 384
#     4  11  22  41  63  98 124 162 212 272 323 390
#     4  10  21  39  61  85 122 173 208 257 316 387
#
# _framework density 19.978871999999999
#
# number of rings (size 3 to 8) (size 9 to 14) (size 15 to 20)
#    0.000    2.154    2.308    0.000    4.308    1.231 
#    2.769    0.000    0.000    0.000    0.000    0.000 
#    0.000    0.000    0.000    0.000    0.000    0.000 
#
# Total GULP energy -144933.464043 kJ/mol
# GULP energy per Si atom -5574.364002 kJ/mol
# Density = 1.993340 g / cm^3
# Si number density = 19.978872 Si / 1000 Ang^3
#
#
#
# Elastic Constant Matrix: (Units=GPa)
#
#
# Indices 1 2 3 4 5 6 
#
# 1 114.1884 5.2999 58.9485 0.0000 1.5213 0.0000
# 2 5.2999 55.5671 42.0284 0.0000 0.8284 0.0000
# 3 58.9485 42.0284 129.7711 0.0000 -7.2998 0.0000
# 4 0.0000 0.0000 0.0000 18.6654 0.0000 -8.2215
# 5 1.5213 0.8284 -7.2998 0.0000 16.6753 0.0000
# 6 0.0000 0.0000 0.0000 -8.2215 0.0000 29.7727
#
#
#
# Elastic Compliance Matrix: (Units=1/GPa)
#
#
# Indices 1 2 3 4 5 6 
#
# 1 0.012389 0.004419 -0.007315 0.000000 -0.004552 0.000000
# 2 0.004419 0.025772 -0.010713 0.000000 -0.006373 0.000000
# 3 -0.007315 -0.010713 0.014933 0.000000 0.007737 0.000000
# 4 0.000000 0.000000 0.000000 0.060994 0.000000 0.016843
# 5 -0.004552 -0.006373 0.007737 0.000000 0.064088 0.000000
# 6 0.000000 0.000000 0.000000 0.016843 0.000000 0.038239
#
#
# Mechanical properties :
#
#
# Convention : Reuss Voigt Hill
#
# Bulk Modulus (GPa) = 38.64339 56.89779 47.77059
# Shear Modulus (GPa) = 19.82094 25.90600 22.86347
#
# Velocity S-wave (km/s) = 3.15317 3.60484 3.38654
# Velocity P-wave (km/s) = 5.71321 6.77254 6.26530
#
# Compressibility (1/GPa) = 0.02587765
#
# Stress axis : x y z
#
# Youngs Moduli (GPa) = 80.71468 38.80143 66.96416
#
# Poissons Ratio (x) = -0.17146 0.48985
# Poissons Ratio (y) = -0.35667 0.71736
# Poissons Ratio (z) = 0.59043 0.41566
#
# Static dielectric constant tensor:
#      x y z
#    x 1.807720 0.000000 -0.022880 
#    y 0.000000 1.711930 0.000000 
#    z -0.022880 0.000000 1.713180 
# 
# From -- ./inp_files/264467.got.cif
#   From: 2010.05.17/outbox.cif.g08.bks.cpg/sg15_133_cif.got.tgz:264467.got - 2010.06.03 18:47:42.
