data_PCOD9277875
_publ_section_title
;
Structure prediction by ZEFSAII (Michael W. Deem and Ramdas Pophale) SiO2 
 PCOD9277875
Probable space group: C 2/C
;
_chemical_formula_sum "Si O2"
_cell_formula_units_Z 56
_cell_length_a 25.708628
_cell_length_b 13.189882
_cell_length_c 9.218160
_cell_angle_alpha 90.000000
_cell_angle_beta 111.868087
_cell_angle_gamma 90.000000
_cell_volume 2900.898635
_symmetry_space_group_name_H-M "C 2/C"
_symmetry_group_IT_number 15
_symmetry_cell_setting 'monoclinic'
loop_
_space_group_symop_operation_xyz
x,y,z
-x,y,1/2-z
-x,-y,-z
x,-y,1/2+z
1/2+x,1/2+y,z
1/2-x,1/2+y,1/2-z
1/2-x,1/2-y,-z
1/2+x,1/2-y,1/2+z
loop_
_atom_site_type_symbol
_atom_site_label
_atom_site_fract_x
_atom_site_fract_y
_atom_site_fract_z
Si Si1 0.750612 0.270002 0.674499
Si Si2 0.556683 0.777577 0.714389
Si Si3 0.701082 0.478897 0.580011
Si Si4 0.693710 0.092405 0.730341
Si Si5 0.130661 0.528774 0.398685
Si Si6 0.150054 0.123033 0.740185
Si Si7 0.469252 0.915675 0.066155
O O1 0.750000 0.250000 0.500000
O O2 0.737110 0.386587 0.688532
O O3 0.701077 0.210886 0.706736
O O4 0.810229 0.217442 0.772324
O O5 0.500000 0.768669 0.750000
O O6 0.597408 0.867923 0.820186
O O7 0.592900 0.676017 0.731839
O O8 0.537551 0.816992 0.537469
O O9 0.749486 0.562615 0.628459
O O10 0.652481 0.534709 0.621578
O O11 0.677993 0.432255 0.408155
O O12 0.683998 0.053476 0.555295
O O13 0.646711 0.040898 0.779397
O O14 0.089915 0.462415 0.453745
O O15 0.500000 0.899801 0.250000
O O16 0.500000 0.000000 0.000000
#
# Coordination Sequence:
#
# PCOD9277875 Si02
#       7
#     8   8   8   8   8   8   8
#     4   9  18  36  58  85 122 164 206 240 311 386
#     4  12  24  42  66  91 126 173 221 264 325 389
#     4  10  20  42  60  86 133 166 212 262 307 378
#     4  11  21  33  60  96 124 169 201 250 316 396
#     4  12  20  34  59  94 133 157 201 250 327 388
#     4  10  22  41  64  91 122 173 216 260 324 377
#     4  12  21  40  59  91 134 167 202 266 330 383
#
# _framework density 19.304362000000001
#
# number of rings (size 3 to 8) (size 9 to 14) (size 15 to 20)
#    0.000    1.143    4.286    5.143    0.000    0.000 
#    2.571    2.857    0.000    0.000    0.000    0.000 
#    0.000    0.000    0.000    0.000    0.000    0.000 
#
# Total GULP energy -155938.493206 kJ/mol
# GULP energy per Si atom -5569.231900 kJ/mol
# Density = 1.926042 g / cm^3
# Si number density = 19.304362 Si / 1000 Ang^3
#
#
#
# Elastic Constant Matrix: (Units=GPa)
#
#
# Indices 1 2 3 4 5 6 
#
# 1 99.3113 31.9887 21.1704 0.0000 -16.2206 0.0000
# 2 31.9887 55.2399 0.0979 0.0000 -13.7421 0.0000
# 3 21.1704 0.0979 79.4260 0.0000 0.0207 0.0000
# 4 0.0000 0.0000 0.0000 21.9657 0.0000 -0.6830
# 5 -16.2206 -13.7421 0.0207 0.0000 24.4099 0.0000
# 6 0.0000 0.0000 0.0000 -0.6830 0.0000 39.8887
#
#
#
# Elastic Compliance Matrix: (Units=1/GPa)
#
#
# Indices 1 2 3 4 5 6 
#
# 1 0.013906 -0.006682 -0.003700 0.000000 0.005482 0.000000
# 2 -0.006682 0.024262 0.001749 0.000000 0.009217 0.000000
# 3 -0.003700 0.001749 0.013575 0.000000 -0.001485 0.000000
# 4 0.000000 0.000000 0.000000 0.045550 0.000000 0.000780
# 5 0.005482 0.009217 -0.001485 0.000000 0.049800 0.000000
# 6 0.000000 0.000000 0.000000 0.000780 0.000000 0.025083
#
#
# Mechanical properties :
#
#
# Convention : Reuss Voigt Hill
#
# Bulk Modulus (GPa) = 29.00537 37.83234 33.41885
# Shear Modulus (GPa) = 24.88378 29.30088 27.09233
#
# Velocity S-wave (km/s) = 3.59419 3.90017 3.75030
# Velocity P-wave (km/s) = 5.68174 6.31840 6.00851
#
# Compressibility (1/GPa) = 0.03447638
#
# Stress axis : x y z
#
# Youngs Moduli (GPa) = 71.91261 41.21606 73.66650
#
# Poissons Ratio (x) = 0.27542 0.27254
# Poissons Ratio (y) = 0.48055 -0.12883
# Poissons Ratio (z) = 0.26605 -0.07208
#
# Static dielectric constant tensor:
#      x y z
#    x 1.722930 0.000000 0.021210 
#    y 0.000000 1.682790 0.000000 
#    z 0.021210 0.000000 1.755450 
# 
# From -- ./inp_files/61608.got.cif
#   From: 2010.05.17/outbox.cif.g08.bks.cpg/sg15_31_cif.got.tgz:61608.got - 2010.06.03 18:47:42.
