data_PCOD9277067
_publ_section_title
;
Structure prediction by ZEFSAII (Michael W. Deem and Ramdas Pophale) SiO2 
 PCOD9277067
Probable space group: C 2/C
;
_chemical_formula_sum "Si O2"
_cell_formula_units_Z 56
_cell_length_a 18.732055
_cell_length_b 12.678464
_cell_length_c 19.197061
_cell_angle_alpha 90.000000
_cell_angle_beta 29.990486
_cell_angle_gamma 90.000000
_cell_volume 2278.934719
_symmetry_space_group_name_H-M "C 2/C"
_symmetry_group_IT_number 15
_symmetry_cell_setting 'monoclinic'
loop_
_space_group_symop_operation_xyz
x,y,z
-x,y,1/2-z
-x,-y,-z
x,-y,1/2+z
1/2+x,1/2+y,z
1/2-x,1/2+y,1/2-z
1/2-x,1/2-y,-z
1/2+x,1/2-y,1/2+z
loop_
_atom_site_type_symbol
_atom_site_label
_atom_site_fract_x
_atom_site_fract_y
_atom_site_fract_z
Si Si1 0.741045 0.257839 0.591180
Si Si2 0.154024 0.976376 0.639157
Si Si3 0.048421 0.332295 0.979359
Si Si4 0.648960 0.039239 0.658185
Si Si5 0.785915 0.698503 0.392626
Si Si6 0.459887 0.329620 0.132531
Si Si7 0.282234 0.961364 0.163867
O O1 0.750000 0.250000 0.500000
O O2 0.637942 0.360182 0.687992
O O3 0.890801 0.295267 0.497934
O O4 0.693729 0.144863 0.662579
O O5 0.000000 0.023501 0.750000
O O6 0.227920 0.966905 0.503063
O O7 0.272601 0.033019 0.587576
O O8 0.076851 0.240615 0.902004
O O9 0.147058 0.430694 0.872633
O O10 0.886588 0.372118 0.105620
O O11 0.500000 0.070600 0.750000
O O12 0.635857 0.915094 0.687186
O O13 0.750000 0.750000 0.500000
O O14 0.627732 0.674464 0.498651
O O15 0.880083 0.778881 0.267060
O O16 0.384143 0.441232 0.181647
#
# Coordination Sequence:
#
# PCOD9277067 Si02
#       7
#     8   8   8   8   8   8   8
#     4   9  21  44  68 101 135 177 229 288 350 412
#     4  10  20  40  67  98 134 180 226 271 340 428
#     4  10  23  45  68 100 138 187 230 280 352 431
#     4  11  23  39  64 103 133 169 222 295 344 389
#     4  12  26  44  68  99 139 181 231 288 347 411
#     4  12  24  46  66 101 134 180 234 283 343 419
#     4  10  22  44  69  95 139 189 225 272 358 420
#
# _framework density 24.572883999999998
#
# number of rings (size 3 to 8) (size 9 to 14) (size 15 to 20)
#    0.000    1.429    1.429    3.429    2.000    1.143 
#   20.571    1.429    0.000    0.000    0.000    0.000 
#    0.000    0.000    0.000    0.000    0.000    0.000 
#
# Total GULP energy -156128.758379 kJ/mol
# GULP energy per Si atom -5576.027085 kJ/mol
# Density = 2.451696 g / cm^3
# Si number density = 24.572884 Si / 1000 Ang^3
#
#
#
# Elastic Constant Matrix: (Units=GPa)
#
#
# Indices 1 2 3 4 5 6 
#
# 1 126.5624 22.8470 25.8533 -0.0001 -24.7538 -0.0001
# 2 22.8470 101.6389 -12.2499 -0.0008 -12.5395 0.0001
# 3 25.8533 -12.2499 82.8341 -0.0014 -30.3090 0.0003
# 4 -0.0001 -0.0008 -0.0014 31.3526 0.0006 -3.9299
# 5 -24.7538 -12.5395 -30.3090 0.0006 46.3284 -0.0002
# 6 -0.0001 0.0001 0.0003 -3.9299 -0.0002 69.5421
#
#
#
# Elastic Compliance Matrix: (Units=1/GPa)
#
#
# Indices 1 2 3 4 5 6 
#
# 1 0.009277 -0.001953 -0.002056 0.000000 0.003083 0.000000
# 2 -0.001953 0.011327 0.003977 0.000000 0.004624 0.000000
# 3 -0.002056 0.003977 0.017478 0.000001 0.011412 0.000000
# 4 0.000000 0.000000 0.000001 0.032123 0.000000 0.001815
# 5 0.003083 0.004624 0.011412 0.000000 0.031950 0.000000
# 6 0.000000 0.000000 0.000000 0.001815 0.000000 0.014482
#
#
# Mechanical properties :
#
#
# Convention : Reuss Voigt Hill
#
# Bulk Modulus (GPa) = 26.30358 42.65956 34.48157
# Shear Modulus (GPa) = 38.64766 47.75030 43.19898
#
# Velocity S-wave (km/s) = 3.97013 4.41297 4.19739
# Velocity P-wave (km/s) = 5.63413 6.58512 6.12810
#
# Compressibility (1/GPa) = 0.03801765
#
# Stress axis : x y z
#
# Youngs Moduli (GPa) = 107.79652 88.28099 57.21548
#
# Poissons Ratio (x) = 0.17239 0.11764
# Poissons Ratio (y) = 0.21050 -0.22752
# Poissons Ratio (z) = 0.22164 -0.35106
#
# Static dielectric constant tensor:
#      x y z
#    x 1.991500 0.000000 0.029080 
#    y 0.000000 2.183270 0.000000 
#    z 0.029080 0.000000 1.911640 
# 
# From -- ./inp_files/279972.got.cif
#   From: 2010.05.17/outbox.cif.g08.bks.cpg/sg15_140_cif.got.tgz:279972.got - 2010.06.03 18:47:42.
