data_PCOD9277843
_publ_section_title
;
Structure prediction by ZEFSAII (Michael W. Deem and Ramdas Pophale) SiO2 
 PCOD9277843
Probable space group: C 2/C
;
_chemical_formula_sum "Si O2"
_cell_formula_units_Z 40
_cell_length_a 11.992420
_cell_length_b 8.460544
_cell_length_c 17.772881
_cell_angle_alpha 90.000000
_cell_angle_beta 58.372108
_cell_angle_gamma 90.000000
_cell_volume 1535.441224
_symmetry_space_group_name_H-M "C 2/C"
_symmetry_group_IT_number 15
_symmetry_cell_setting 'monoclinic'
loop_
_space_group_symop_operation_xyz
x,y,z
-x,y,1/2-z
-x,-y,-z
x,-y,1/2+z
1/2+x,1/2+y,z
1/2-x,1/2+y,1/2-z
1/2-x,1/2-y,-z
1/2+x,1/2-y,1/2+z
loop_
_atom_site_type_symbol
_atom_site_label
_atom_site_fract_x
_atom_site_fract_y
_atom_site_fract_z
Si Si1 0.082380 0.573100 0.357154
Si Si2 0.879654 0.920653 0.584660
Si Si3 0.324700 0.910671 0.027299
Si Si4 0.798041 0.319323 0.296509
Si Si5 0.440952 0.549054 0.341540
O O1 0.125216 0.535803 0.428033
O O2 0.174608 0.722340 0.303761
O O3 0.926576 0.593477 0.422010
O O4 0.232854 0.951165 0.372013
O O5 0.836677 0.757480 0.563837
O O6 0.940070 0.901251 0.647137
O O7 0.000000 0.000000 0.500000
O O8 0.173286 0.959687 0.072707
O O9 0.875567 0.198884 0.322749
O O10 0.878800 0.426238 0.208975
O O11 0.500000 0.451642 0.250000
#
# Coordination Sequence:
#
# PCOD9277843 Si02
#       5
#     8   8   8   8   8
#     4  10  20  41  72 103 147 192 237 316 367 428
#     4  12  25  48  76 109 150 195 247 309 374 442
#     4  10  22  45  71 108 148 186 249 307 363 447
#     4  11  23  45  71 108 149 196 249 306 375 446
#     4  11  26  48  75 108 148 201 248 304 376 442
#
# _framework density 26.051144000000001
#
# number of rings (size 3 to 8) (size 9 to 14) (size 15 to 20)
#    0.000    1.200    2.000    4.800    0.000    1.600 
#    3.600    3.000    0.000    4.800    0.000    0.000 
#    0.000    0.000    0.000    0.000    0.000    0.000 
#
# Total GULP energy -112029.476560 kJ/mol
# GULP energy per Si atom -5601.473828 kJ/mol
# Density = 2.599185 g / cm^3
# Si number density = 26.051144 Si / 1000 Ang^3
#
#
#
# Elastic Constant Matrix: (Units=GPa)
#
#
# Indices 1 2 3 4 5 6 
#
# 1 117.8921 49.1077 37.5001 0.0000 -13.6854 0.0000
# 2 49.1077 133.8847 58.5017 0.0000 -18.1528 0.0000
# 3 37.5001 58.5017 168.5177 0.0000 -30.6089 0.0000
# 4 0.0000 0.0000 0.0000 51.6988 0.0000 4.7180
# 5 -13.6854 -18.1528 -30.6089 0.0000 41.1535 0.0000
# 6 0.0000 0.0000 0.0000 4.7180 0.0000 31.9360
#
#
#
# Elastic Compliance Matrix: (Units=1/GPa)
#
#
# Indices 1 2 3 4 5 6 
#
# 1 0.010256 -0.003172 -0.000943 0.000000 0.001310 0.000000
# 2 -0.003172 0.009911 -0.002465 0.000000 0.001483 0.000000
# 3 -0.000943 -0.002465 0.007799 0.000000 0.004400 0.000000
# 4 0.000000 0.000000 0.000000 0.019607 0.000000 -0.002897
# 5 0.001310 0.001483 0.004400 0.000000 0.028661 0.000000
# 6 0.000000 0.000000 0.000000 -0.002897 0.000000 0.031741
#
#
# Mechanical properties :
#
#
# Convention : Reuss Voigt Hill
#
# Bulk Modulus (GPa) = 67.54645 78.94596 73.24621
# Shear Modulus (GPa) = 39.66037 43.30331 41.48184
#
# Velocity S-wave (km/s) = 3.90603 4.08148 3.99472
# Velocity P-wave (km/s) = 6.80643 7.25130 7.03238
#
# Compressibility (1/GPa) = 0.01480463
#
# Stress axis : x y z
#
# Youngs Moduli (GPa) = 97.50709 100.89870 128.22254
#
# Poissons Ratio (x) = 0.32005 0.12093
# Poissons Ratio (y) = 0.30929 0.31611
# Poissons Ratio (z) = 0.09196 0.24875
#
# Static dielectric constant tensor:
#      x y z
#    x 2.141590 0.000000 0.001790 
#    y 0.000000 1.998950 0.000000 
#    z 0.001790 0.000000 2.107160 
# 
# From -- ./inp_files/297936.got.cif
#   From: 2010.05.17/outbox.cif.g08.bks.cpg/sg15_149_cif.got.tgz:297936.got - 2010.06.03 18:47:42.
