data_PCOD9277147
_publ_section_title
;
Structure prediction by ZEFSAII (Michael W. Deem and Ramdas Pophale) SiO2 
 PCOD9277147
Probable space group: C 2/C
;
_chemical_formula_sum "Si O2"
_cell_formula_units_Z 48
_cell_length_a 17.425192
_cell_length_b 5.240669
_cell_length_c 23.046237
_cell_angle_alpha 90.000000
_cell_angle_beta 93.956799
_cell_angle_gamma 90.000000
_cell_volume 2099.558067
_symmetry_space_group_name_H-M "C 2/C"
_symmetry_group_IT_number 15
_symmetry_cell_setting 'monoclinic'
loop_
_space_group_symop_operation_xyz
x,y,z
-x,y,1/2-z
-x,-y,-z
x,-y,1/2+z
1/2+x,1/2+y,z
1/2-x,1/2+y,1/2-z
1/2-x,1/2-y,-z
1/2+x,1/2-y,1/2+z
loop_
_atom_site_type_symbol
_atom_site_label
_atom_site_fract_x
_atom_site_fract_y
_atom_site_fract_z
Si Si1 0.703460 0.498049 0.516626
Si Si2 0.407560 0.801778 0.687423
Si Si3 0.234074 0.407147 0.359893
Si Si4 0.530859 0.872403 0.144329
Si Si5 0.615403 0.358143 0.184676
Si Si6 0.404578 0.405646 0.587284
O O1 0.750000 0.750000 0.500000
O O2 0.708061 0.502432 0.586140
O O3 0.624202 0.501122 0.476785
O O4 0.750000 0.250000 0.500000
O O5 0.320325 0.877272 0.668801
O O6 0.463183 0.047485 0.686243
O O7 0.411341 0.682955 0.750672
O O8 0.429795 0.620456 0.634682
O O9 0.292879 0.319170 0.314228
O O10 0.171630 0.218451 0.386170
O O11 0.581172 0.127730 0.143866
O O12 0.584154 0.636527 0.165420
O O13 0.476457 0.787195 0.088020
#
# Coordination Sequence:
#
# PCOD9277147 Si02
#       6
#     8   8   8   8   8   8
#     4  10  20  40  68  96 125 168 218 270 318 384
#     4  11  24  41  68  91 130 174 219 257 319 397
#     4  10  25  42  67 102 132 164 217 279 330 370
#     4  11  26  44  63  94 128 181 216 257 318 403
#     4  12  28  40  66  96 139 166 212 274 331 379
#     4  10  22  43  70  95 124 175 224 258 317 392
#
# _framework density 22.861953
#
# number of rings (size 3 to 8) (size 9 to 14) (size 15 to 20)
#    0.000    1.333    3.333    0.500   11.667    0.000 
#    0.000    1.667    0.000    0.000    0.000    0.000 
#    0.000    0.000    0.000    0.000    0.000    0.000 
#
# Total GULP energy -133917.113396 kJ/mol
# GULP energy per Si atom -5579.879725 kJ/mol
# Density = 2.280992 g / cm^3
# Si number density = 22.861953 Si / 1000 Ang^3
#
#
#
# Elastic Constant Matrix: (Units=GPa)
#
#
# Indices 1 2 3 4 5 6 
#
# 1 57.0513 24.4563 -1.9858 0.0000 -5.3491 0.0000
# 2 24.4563 121.2319 10.4722 0.0000 10.9061 0.0000
# 3 -1.9858 10.4722 37.8866 0.0000 7.9144 0.0000
# 4 0.0000 0.0000 0.0000 17.5229 0.0000 16.1355
# 5 -5.3491 10.9061 7.9144 0.0000 19.9476 0.0000
# 6 0.0000 0.0000 0.0000 16.1355 0.0000 39.6750
#
#
#
# Elastic Compliance Matrix: (Units=1/GPa)
#
#
# Indices 1 2 3 4 5 6 
#
# 1 0.020382 -0.004883 0.000784 0.000000 0.007825 0.000000
# 2 -0.004883 0.009928 -0.001737 0.000000 -0.006048 0.000000
# 3 0.000784 -0.001737 0.029084 0.000000 -0.010380 0.000000
# 4 0.000000 0.000000 0.000000 0.091235 0.000000 -0.037105
# 5 0.007825 -0.006048 -0.010380 0.000000 0.059655 0.000000
# 6 0.000000 0.000000 0.000000 -0.037105 0.000000 0.040295
#
#
# Mechanical properties :
#
#
# Convention : Reuss Voigt Hill
#
# Bulk Modulus (GPa) = 20.95495 31.33946 26.14720
# Shear Modulus (GPa) = 17.97534 27.64424 22.80979
#
# Velocity S-wave (km/s) = 2.80707 3.48110 3.16209
# Velocity P-wave (km/s) = 4.43756 5.46766 4.97932
#
# Compressibility (1/GPa) = 0.04772143
#
# Stress axis : x y z
#
# Youngs Moduli (GPa) = 49.06203 100.72597 34.38322
#
# Poissons Ratio (x) = 0.49188 -0.02694
# Poissons Ratio (y) = 0.23959 0.05971
# Poissons Ratio (z) = -0.03845 0.17492
#
# Static dielectric constant tensor:
#      x y z
#    x 1.873460 0.000000 0.025050 
#    y 0.000000 1.898310 0.000000 
#    z 0.025050 0.000000 1.876350 
# 
# From -- ./inp_files/275665.got.cif
#   From: 2010.05.17/outbox.cif.g08.bks.cpg/sg15_138_cif.got.tgz:275665.got - 2010.06.03 18:47:42.
