data_PCOD9277130
_publ_section_title
;
Structure prediction by ZEFSAII (Michael W. Deem and Ramdas Pophale) SiO2 
 PCOD9277130
Probable space group: C 2/C
;
_chemical_formula_sum "Si O2"
_cell_formula_units_Z 52
_cell_length_a 5.776993
_cell_length_b 16.676032
_cell_length_c 25.020378
_cell_angle_alpha 90.000000
_cell_angle_beta 110.346816
_cell_angle_gamma 90.000000
_cell_volume 2259.999841
_symmetry_space_group_name_H-M "C 2/C"
_symmetry_group_IT_number 15
_symmetry_cell_setting 'monoclinic'
loop_
_space_group_symop_operation_xyz
x,y,z
-x,y,1/2-z
-x,-y,-z
x,-y,1/2+z
1/2+x,1/2+y,z
1/2-x,1/2+y,1/2-z
1/2-x,1/2-y,-z
1/2+x,1/2-y,1/2+z
loop_
_atom_site_type_symbol
_atom_site_label
_atom_site_fract_x
_atom_site_fract_y
_atom_site_fract_z
Si Si1 0.349654 0.100237 0.593541
Si Si2 0.535299 0.148859 0.167036
Si Si3 0.871982 0.448063 0.925873
Si Si4 0.125693 0.012212 0.148724
Si Si5 0.299035 0.236735 0.910705
Si Si6 0.000000 0.921307 0.750000
Si Si7 0.638880 0.370675 0.496677
O O1 0.479114 0.185621 0.596740
O O2 0.128665 0.091717 0.533148
O O3 0.542722 0.030124 0.595744
O O4 0.237033 0.073363 0.641363
O O5 0.639243 0.126603 0.116479
O O6 0.336734 0.079204 0.162047
O O7 0.390394 0.231451 0.149005
O O8 0.760661 0.135191 0.224923
O O9 0.584324 0.466246 0.912125
O O10 0.108503 0.422897 0.980508
O O11 0.018114 0.022990 0.199157
O O12 0.171341 0.182279 0.945691
O O13 0.377479 0.313827 0.952460
#
# Coordination Sequence:
#
# PCOD9277130 Si02
#       7
#     8   8   8   8   8   4   8
#     4  11  21  34  56  90 129 168 201 255 311 365
#     4   9  20  38  62  93 113 152 207 262 312 376
#     4   9  20  36  56  87 127 162 211 247 297 365
#     4  10  21  38  61  93 114 153 209 271 319 371
#     4  10  22  36  55  91 131 170 204 244 310 383
#     4  10  20  40  68  94 104 146 216 284 326 384
#     4  10  21  37  56  85 131 181 211 240 290 376
#
# _framework density 23.008852999999998
#
# number of rings (size 3 to 8) (size 9 to 14) (size 15 to 20)
#    0.000    2.154    0.000    2.308    0.000   11.077 
#    0.000    0.000    0.000    0.000  180.000    0.000 
#    0.000    0.000    0.000    0.000    0.000    0.000 
#
# Total GULP energy -145121.126628 kJ/mol
# GULP energy per Si atom -5581.581793 kJ/mol
# Density = 2.295648 g / cm^3
# Si number density = 23.008853 Si / 1000 Ang^3
#
#
#
# Elastic Constant Matrix: (Units=GPa)
#
#
# Indices 1 2 3 4 5 6 
#
# 1 104.1840 61.4817 58.4646 0.0000 29.6894 0.0000
# 2 61.4817 86.5184 46.4226 0.0000 7.3708 0.0000
# 3 58.4646 46.4226 118.7754 0.0000 27.2017 0.0000
# 4 0.0000 0.0000 0.0000 24.3632 0.0000 7.4426
# 5 29.6894 7.3708 27.2017 0.0000 54.3073 0.0000
# 6 0.0000 0.0000 0.0000 7.4426 0.0000 45.5789
#
#
#
# Elastic Compliance Matrix: (Units=1/GPa)
#
#
# Indices 1 2 3 4 5 6 
#
# 1 0.021408 -0.012482 -0.003803 0.000000 -0.008105 0.000000
# 2 -0.012482 0.021950 -0.003745 0.000000 0.005721 0.000000
# 3 -0.003803 -0.003745 0.012609 0.000000 -0.003728 0.000000
# 4 0.000000 0.000000 0.000000 0.043200 0.000000 -0.007054
# 5 -0.008105 0.005721 -0.003728 0.000000 0.023935 0.000000
# 6 0.000000 0.000000 0.000000 -0.007054 0.000000 0.023092
#
#
# Mechanical properties :
#
#
# Convention : Reuss Voigt Hill
#
# Bulk Modulus (GPa) = 62.86662 71.35728 67.11195
# Shear Modulus (GPa) = 26.10177 34.39049 30.24613
#
# Velocity S-wave (km/s) = 3.37177 3.87028 3.62960
# Velocity P-wave (km/s) = 6.52231 7.14510 6.84080
#
# Compressibility (1/GPa) = 0.01590669
#
# Stress axis : x y z
#
# Youngs Moduli (GPa) = 46.71138 45.55728 79.30923
#
# Poissons Ratio (x) = 0.56864 0.30162
# Poissons Ratio (y) = 0.58305 0.29704
# Poissons Ratio (z) = 0.17765 0.17063
#
# Static dielectric constant tensor:
#      x y z
#    x 1.951330 0.000000 -0.022940 
#    y 0.000000 1.839770 0.000000 
#    z -0.022940 0.000000 1.923370 
# 
# From -- ./inp_files/305729.got.cif
#   From: 2010.05.17/outbox.cif.g08.bks.cpg/sg15_153_cif.got.tgz:305729.got - 2010.06.03 18:47:42.
