data_PCOD9277098
_publ_section_title
;
Structure prediction by ZEFSAII (Michael W. Deem and Ramdas Pophale) SiO2 
 PCOD9277098
Probable space group: C 2/C
;
_chemical_formula_sum "Si O2"
_cell_formula_units_Z 44
_cell_length_a 20.853058
_cell_length_b 6.679868
_cell_length_c 16.238144
_cell_angle_alpha 90.000000
_cell_angle_beta 40.824194
_cell_angle_gamma 90.000000
_cell_volume 1478.697064
_symmetry_space_group_name_H-M "C 2/C"
_symmetry_group_IT_number 15
_symmetry_cell_setting 'monoclinic'
loop_
_space_group_symop_operation_xyz
x,y,z
-x,y,1/2-z
-x,-y,-z
x,-y,1/2+z
1/2+x,1/2+y,z
1/2-x,1/2+y,1/2-z
1/2-x,1/2-y,-z
1/2+x,1/2-y,1/2+z
loop_
_atom_site_type_symbol
_atom_site_label
_atom_site_fract_x
_atom_site_fract_y
_atom_site_fract_z
Si Si1 0.666373 0.983050 0.350118
Si Si2 0.319786 0.144003 0.339311
Si Si3 0.736312 0.607970 0.091814
Si Si4 0.138397 0.963880 0.922714
Si Si5 0.500000 0.809268 0.750000
Si Si6 0.523709 0.590343 0.319168
O O1 0.634239 0.089885 0.296352
O O2 0.676873 0.102729 0.425898
O O3 0.783446 0.946698 0.218021
O O4 0.621077 0.767902 0.414873
O O5 0.292151 0.372617 0.390298
O O6 0.211525 0.049586 0.431048
O O7 0.398155 0.078176 0.332907
O O8 0.631038 0.674204 0.231891
O O9 0.750000 0.750000 0.000000
O O10 0.954629 0.902875 0.965285
O O11 0.493209 0.649913 0.681774
O O12 0.500000 0.669267 0.250000
#
# Coordination Sequence:
#
# PCOD9277098 Si02
#       6
#     8   8   8   8   4   8
#     4   9  20  39  67 105 143 197 246 304 384 451
#     4   8  18  38  65 104 141 192 247 298 380 448
#     4  10  20  40  68 106 151 195 258 312 382 451
#     4   9  19  38  65 102 145 198 244 306 377 455
#     4   8  16  36  58 102 138 174 250 294 366 434
#     4   9  20  37  65 105 141 192 251 307 380 443
#
# _framework density 29.755925999999999
#
# number of rings (size 3 to 8) (size 9 to 14) (size 15 to 20)
#    1.636    1.455    0.000    0.000    0.000    2.909 
#    0.000    3.636    0.000   13.091    2.364    1.273 
#    0.000    0.000    0.000    0.000    0.000    0.000 
#
# Total GULP energy -122662.203485 kJ/mol
# GULP energy per Si atom -5575.554704 kJ/mol
# Density = 2.968820 g / cm^3
# Si number density = 29.755926 Si / 1000 Ang^3
#
#
#
# Elastic Constant Matrix: (Units=GPa)
#
#
# Indices 1 2 3 4 5 6 
#
# 1 194.5603 70.4107 63.8444 0.0015 22.0617 -0.0016
# 2 70.4107 163.5231 66.4352 0.0005 14.0957 -0.0018
# 3 63.8444 66.4352 172.8920 0.0023 16.3633 -0.0032
# 4 0.0015 0.0005 0.0023 39.6490 -0.0007 13.4844
# 5 22.0617 14.0957 16.3633 -0.0007 52.0525 0.0006
# 6 -0.0016 -0.0018 -0.0032 13.4844 0.0006 41.1015
#
#
#
# Elastic Compliance Matrix: (Units=1/GPa)
#
#
# Indices 1 2 3 4 5 6 
#
# 1 0.006573 -0.002086 -0.001459 0.000000 -0.001763 0.000000
# 2 -0.002086 0.007972 -0.002239 0.000000 -0.000571 0.000000
# 3 -0.001459 -0.002239 0.007284 -0.000001 -0.001065 0.000001
# 4 0.000000 0.000000 -0.000001 0.028389 0.000001 -0.009314
# 5 -0.001763 -0.000571 -0.001065 0.000001 0.020448 -0.000001
# 6 0.000000 0.000000 0.000001 -0.009314 -0.000001 0.027386
#
#
# Mechanical properties :
#
#
# Convention : Reuss Voigt Hill
#
# Bulk Modulus (GPa) = 97.44986 103.59513 100.52249
# Shear Modulus (GPa) = 44.23204 48.57961 46.40583
#
# Velocity S-wave (km/s) = 3.85969 4.04493 3.95340
# Velocity P-wave (km/s) = 7.25836 7.53033 7.39559
#
# Compressibility (1/GPa) = 0.01026169
#
# Stress axis : x y z
#
# Youngs Moduli (GPa) = 152.13239 125.43357 137.28719
#
# Poissons Ratio (x) = 0.26161 0.20031
# Poissons Ratio (y) = 0.31729 0.30742
# Poissons Ratio (z) = 0.22197 0.28088
#
# Static dielectric constant tensor:
#      x y z
#    x 2.307930 0.000000 -0.102940 
#    y 0.000000 2.487560 0.000000 
#    z -0.102940 0.000000 2.763850 
# 
# From -- ./inp_files/209789.got.cif
#   From: 2010.05.17/outbox.cif.g08.bks.cpg/sg15_105_cif.got.tgz:209789.got - 2010.06.03 18:47:42.
