data_PCOD9277366
_publ_section_title
;
Structure prediction by ZEFSAII (Michael W. Deem and Ramdas Pophale) SiO2 
 PCOD9277366
Probable space group: C 2/C
;
_chemical_formula_sum "Si O2"
_cell_formula_units_Z 56
_cell_length_a 9.639123
_cell_length_b 18.266652
_cell_length_c 20.922852
_cell_angle_alpha 90.000000
_cell_angle_beta 126.852625
_cell_angle_gamma 90.000000
_cell_volume 2947.850874
_symmetry_space_group_name_H-M "C 2/C"
_symmetry_group_IT_number 15
_symmetry_cell_setting 'monoclinic'
loop_
_space_group_symop_operation_xyz
x,y,z
-x,y,1/2-z
-x,-y,-z
x,-y,1/2+z
1/2+x,1/2+y,z
1/2-x,1/2+y,1/2-z
1/2-x,1/2-y,-z
1/2+x,1/2-y,1/2+z
loop_
_atom_site_type_symbol
_atom_site_label
_atom_site_fract_x
_atom_site_fract_y
_atom_site_fract_z
Si Si1 0.500646 0.580173 0.676385
Si Si2 0.613020 0.406851 0.581546
Si Si3 0.549138 0.591660 0.335961
Si Si4 0.249734 0.337091 0.007999
Si Si5 0.813778 0.454080 0.181090
Si Si6 0.113691 0.679938 0.032486
Si Si7 0.741953 0.340245 0.062681
O O1 0.500000 0.604668 0.750000
O O2 0.429523 0.496464 0.652304
O O3 0.394923 0.629823 0.596451
O O4 0.699270 0.571718 0.709066
O O5 0.594385 0.382927 0.651131
O O6 0.722089 0.368710 0.555530
O O7 0.694018 0.487101 0.611302
O O8 0.414893 0.392788 0.504582
O O9 0.500000 0.607434 0.250000
O O10 0.726590 0.632289 0.399315
O O11 0.250000 0.250000 0.000000
O O12 0.063003 0.351489 0.988224
O O13 0.839716 0.383432 0.144403
O O14 0.000000 0.486480 0.250000
O O15 0.150719 0.764985 0.059465
O O16 0.129028 0.677295 0.959797
#
# Coordination Sequence:
#
# PCOD9277366 Si02
#       7
#     8   8   8   8   8   8   8
#     4  10  23  41  61  89 132 163 197 263 318 356
#     4  10  21  39  65  84 124 164 199 257 306 361
#     4   9  21  41  62  90 126 163 204 257 312 363
#     4  12  23  40  63  93 123 163 210 254 309 374
#     4  11  23  38  63  92 120 161 213 250 309 373
#     4  10  22  36  64  89 118 164 212 246 304 376
#     4  10  20  41  60  87 121 163 205 254 300 364
#
# _framework density 18.996891000000002
#
# number of rings (size 3 to 8) (size 9 to 14) (size 15 to 20)
#    0.000    1.714    2.857    0.429    6.000    4.571 
#    0.000    3.571    0.000    0.000    0.000    0.000 
#    0.000    0.000    0.000    0.000    0.000    0.000 
#
# Total GULP energy -155987.357160 kJ/mol
# GULP energy per Si atom -5570.977041 kJ/mol
# Density = 1.895365 g / cm^3
# Si number density = 18.996891 Si / 1000 Ang^3
#
#
#
# Elastic Constant Matrix: (Units=GPa)
#
#
# Indices 1 2 3 4 5 6 
#
# 1 141.2304 34.3505 39.5039 0.0000 -16.7790 0.0000
# 2 34.3505 45.8100 42.7704 0.0000 -8.4651 0.0000
# 3 39.5039 42.7704 63.5613 0.0000 -20.2606 0.0000
# 4 0.0000 0.0000 0.0000 12.9885 0.0000 -2.3605
# 5 -16.7790 -8.4651 -20.2606 0.0000 35.9813 0.0000
# 6 0.0000 0.0000 0.0000 -2.3605 0.0000 22.7568
#
#
#
# Elastic Compliance Matrix: (Units=1/GPa)
#
#
# Indices 1 2 3 4 5 6 
#
# 1 0.008960 -0.004724 -0.001722 0.000000 0.002098 0.000000
# 2 -0.004724 0.064506 -0.044283 0.000000 -0.011962 0.000000
# 3 -0.001722 -0.044283 0.052436 0.000000 0.018305 0.000000
# 4 0.000000 0.000000 0.000000 0.078471 0.000000 0.008140
# 5 0.002098 -0.011962 0.018305 0.000000 0.036263 0.000000
# 6 0.000000 0.000000 0.000000 0.008140 0.000000 0.044787
#
#
# Mechanical properties :
#
#
# Convention : Reuss Voigt Hill
#
# Bulk Modulus (GPa) = 40.90854 53.76125 47.33489
# Shear Modulus (GPa) = 12.65730 23.27711 17.96720
#
# Velocity S-wave (km/s) = 2.58405 3.50424 3.07872
# Velocity P-wave (km/s) = 5.52124 6.68838 6.13264
#
# Compressibility (1/GPa) = 0.02444477
#
# Stress axis : x y z
#
# Youngs Moduli (GPa) = 111.60267 15.50244 19.07097
#
# Poissons Ratio (x) = 0.07323 0.03283
# Poissons Ratio (y) = 0.52721 0.84452
# Poissons Ratio (z) = 0.19212 0.68650
#
# Static dielectric constant tensor:
#      x y z
#    x 1.695950 0.000000 -0.028300 
#    y 0.000000 1.661900 0.000000 
#    z -0.028300 0.000000 1.657910 
# 
# From -- ./inp_files/232771.got.cif
#   From: 2010.05.17/outbox.cif.g08.bks.cpg/sg15_117_cif.got.tgz:232771.got - 2010.06.03 18:47:42.
