data_PCOD9277804
_publ_section_title
;
Structure prediction by ZEFSAII (Michael W. Deem and Ramdas Pophale) SiO2 
 PCOD9277804
Probable space group: C 2/C
;
_chemical_formula_sum "Si O2"
_cell_formula_units_Z 64
_cell_length_a 26.140756
_cell_length_b 20.057124
_cell_length_c 20.290609
_cell_angle_alpha 90.000000
_cell_angle_beta 163.871437
_cell_angle_gamma 90.000000
_cell_volume 2955.317172
_symmetry_space_group_name_H-M "C 2/C"
_symmetry_group_IT_number 15
_symmetry_cell_setting 'monoclinic'
loop_
_space_group_symop_operation_xyz
x,y,z
-x,y,1/2-z
-x,-y,-z
x,-y,1/2+z
1/2+x,1/2+y,z
1/2-x,1/2+y,1/2-z
1/2-x,1/2-y,-z
1/2+x,1/2-y,1/2+z
loop_
_atom_site_type_symbol
_atom_site_label
_atom_site_fract_x
_atom_site_fract_y
_atom_site_fract_z
Si Si1 0.805347 0.102366 0.825919
Si Si2 0.144044 0.556781 0.368304
Si Si3 0.928968 0.486291 0.986961
Si Si4 0.410749 0.446072 0.711821
Si Si5 0.599864 0.206731 0.276524
Si Si6 0.286942 0.317189 0.508016
Si Si7 0.008442 0.342600 0.467959
Si Si8 0.313275 0.276023 0.246544
O O1 0.616669 0.133721 0.624044
O O2 0.876061 0.157660 0.862458
O O3 0.744313 0.033940 0.716046
O O4 0.940939 0.080838 0.052328
O O5 0.318809 0.516946 0.613550
O O6 0.167512 0.630128 0.365424
O O7 0.000000 0.562499 0.250000
O O8 0.072825 0.509829 0.220298
O O9 0.898217 0.407720 0.948213
O O10 0.000000 0.500000 0.000000
O O11 0.500000 0.454999 0.750000
O O12 0.266692 0.385046 0.525209
O O13 0.750000 0.250000 0.500000
O O14 0.579987 0.245105 0.182681
O O15 0.386185 0.207744 0.032056
O O16 0.500000 0.316743 0.750000
O O17 0.250000 0.250000 0.500000
O O18 0.147983 0.318595 0.275540
O O19 0.156504 0.285520 0.665662
#
# Coordination Sequence:
#
# PCOD9277804 Si02
#       8
#     8   8   8   8   8   8   8   8
#     4  11  21  42  70 102 141 182 237 301 351 428
#     4  12  25  47  71 103 147 185 239 313 366 422
#     4  10  20  41  70  94 133 185 229 284 359 426
#     4  11  22  43  72 102 143 191 243 288 360 446
#     4  12  27  47  73 100 140 189 242 304 366 427
#     4  11  22  38  61  93 139 182 225 279 341 422
#     4  11  21  39  67 101 135 184 233 278 356 434
#     4  12  24  45  69 105 142 188 239 300 361 431
#
# _framework density 21.655881999999998
#
# number of rings (size 3 to 8) (size 9 to 14) (size 15 to 20)
#    0.000    0.750    6.250    3.375    0.000    2.500 
#    2.250    0.625    0.000    0.000    0.000    0.000 
#    0.000    0.000    0.000    0.000    0.000    0.000 
#
# Total GULP energy -178494.227702 kJ/mol
# GULP energy per Si atom -5577.944616 kJ/mol
# Density = 2.160659 g / cm^3
# Si number density = 21.655882 Si / 1000 Ang^3
#
#
#
# Elastic Constant Matrix: (Units=GPa)
#
#
# Indices 1 2 3 4 5 6 
#
# 1 56.9670 42.7114 9.5149 0.0003 -10.5311 -0.0006
# 2 42.7114 156.3168 51.2086 -0.0056 -0.5198 -0.0024
# 3 9.5149 51.2086 105.1274 -0.0006 -21.8548 -0.0011
# 4 0.0003 -0.0056 -0.0006 42.7654 -0.0001 -0.5488
# 5 -10.5311 -0.5198 -21.8548 -0.0001 23.2217 -0.0003
# 6 -0.0006 -0.0024 -0.0011 -0.5488 -0.0003 16.7422
#
#
#
# Elastic Compliance Matrix: (Units=1/GPa)
#
#
# Indices 1 2 3 4 5 6 
#
# 1 0.026528 -0.009001 0.005523 -0.000001 0.017027 0.000000
# 2 -0.009001 0.010998 -0.006639 0.000001 -0.010084 0.000001
# 3 0.005523 -0.006639 0.015834 -0.000001 0.017258 0.000001
# 4 -0.000001 0.000001 -0.000001 0.023393 -0.000001 0.000767
# 5 0.017027 -0.010084 0.017258 -0.000001 0.066801 0.000002
# 6 0.000000 0.000001 0.000001 0.000767 0.000002 0.059755
#
#
# Mechanical properties :
#
#
# Convention : Reuss Voigt Hill
#
# Bulk Modulus (GPa) = 30.18750 58.36457 44.27604
# Shear Modulus (GPa) = 21.31427 30.87760 26.09593
#
# Velocity S-wave (km/s) = 3.14064 3.78011 3.47512
# Velocity P-wave (km/s) = 5.20782 6.78688 6.04910
#
# Compressibility (1/GPa) = 0.03312630
#
# Stress axis : x y z
#
# Youngs Moduli (GPa) = 37.69630 90.92529 63.15521
#
# Poissons Ratio (x) = 0.81843 -0.34882
# Poissons Ratio (y) = 0.33931 0.41928
# Poissons Ratio (z) = -0.20821 0.60364
#
# Static dielectric constant tensor:
#      x y z
#    x 2.319540 0.000010 -0.039500 
#    y 0.000010 1.802170 0.000000 
#    z -0.039500 0.000000 1.808850 
# 
# From -- ./inp_files/220294.got.cif
#   From: 2010.05.17/outbox.cif.g08.bks.cpg/sg15_111_cif.got.tgz:220294.got - 2010.06.03 18:47:42.
