data_PCOD9277937
_publ_section_title
;
Structure prediction by ZEFSAII (Michael W. Deem and Ramdas Pophale) SiO2 
 PCOD9277937
Probable space group: C 2/C
;
_chemical_formula_sum "Si O2"
_cell_formula_units_Z 36
_cell_length_a 21.127462
_cell_length_b 5.110624
_cell_length_c 17.926120
_cell_angle_alpha 90.000000
_cell_angle_beta 126.106837
_cell_angle_gamma 90.000000
_cell_volume 1563.780117
_symmetry_space_group_name_H-M "C 2/C"
_symmetry_group_IT_number 15
_symmetry_cell_setting 'monoclinic'
loop_
_space_group_symop_operation_xyz
x,y,z
-x,y,1/2-z
-x,-y,-z
x,-y,1/2+z
1/2+x,1/2+y,z
1/2-x,1/2+y,1/2-z
1/2-x,1/2-y,-z
1/2+x,1/2-y,1/2+z
loop_
_atom_site_type_symbol
_atom_site_label
_atom_site_fract_x
_atom_site_fract_y
_atom_site_fract_z
Si Si1 0.830849 0.482328 0.118574
Si Si2 0.462275 0.732327 0.881426
Si Si3 0.395502 0.241645 0.902703
Si Si4 0.000000 0.375002 0.750000
Si Si5 0.242799 0.491645 0.097297
O O1 0.923115 0.451452 0.185576
O O2 0.808076 0.771520 0.129611
O O3 0.784227 0.270892 0.135608
O O4 0.803796 0.471342 0.013439
O O5 0.398619 0.520890 0.864391
O O6 0.487539 0.701456 0.814424
O O7 0.428465 0.021519 0.870390
O O8 0.540358 0.721339 0.986561
O O9 0.316849 0.125000 0.883699
#
# Coordination Sequence:
#
# PCOD9277937 Si02
#       5
#     8   8   8   4   8
#     4  10  23  36  67  92 134 169 222 269 342 378
#     4  10  23  36  67  92 134 169 222 269 342 378
#     4  10  20  42  62  95 124 183 218 267 318 428
#     4  12  24  46  60 110 132 178 216 308 320 418
#     4  10  20  42  62  95 124 183 218 267 318 428
#
# _framework density 23.021138000000001
#
# number of rings (size 3 to 8) (size 9 to 14) (size 15 to 20)
#    0.000    1.778    2.222    1.333    0.000    5.333 
#    0.000    4.444    0.000    0.000    0.000    0.000 
#    0.000    0.000    0.000    0.000    0.000    0.000 
#
# Total GULP energy -100706.625958 kJ/mol
# GULP energy per Si atom -5594.812553 kJ/mol
# Density = 2.296874 g / cm^3
# Si number density = 23.021138 Si / 1000 Ang^3
#
#
#
# Elastic Constant Matrix: (Units=GPa)
#
#
# Indices 1 2 3 4 5 6 
#
# 1 126.9357 23.1089 48.4051 0.0000 -0.0005 0.0000
# 2 23.1089 109.2024 43.2593 -0.0003 -0.0014 0.0005
# 3 48.4051 43.2593 43.2548 0.0000 0.0002 -0.0001
# 4 0.0000 -0.0003 0.0000 -1.9866 0.0000 0.0009
# 5 -0.0005 -0.0014 0.0002 0.0000 43.7408 0.0001
# 6 0.0000 0.0005 -0.0001 0.0009 0.0001 38.9124
#
#
#
# Elastic Compliance Matrix: (Units=1/GPa)
#
#
# Indices 1 2 3 4 5 6 
#
# 1 0.015858 0.006085 -0.023832 -0.000002 0.000000 0.000000
# 2 0.006085 0.017501 -0.024312 -0.000003 0.000001 0.000000
# 3 -0.023832 -0.024312 0.074103 0.000006 -0.000001 0.000000
# 4 -0.000002 -0.000003 0.000006 -0.503381 0.000000 0.000012
# 5 0.000000 0.000001 -0.000001 0.000000 0.022862 0.000000
# 6 0.000000 0.000000 0.000000 0.000012 0.000000 0.025699
#
#
# Mechanical properties :
#
#
# Convention : Reuss Voigt Hill
#
# Bulk Modulus (GPa) = 42.83788 56.54886 49.69337
# Shear Modulus (GPa) = -19.57266 27.10795 3.76765
#
# Velocity S-wave (km/s) = -2.91899 3.43523 1.28069
# Velocity P-wave (km/s) = 2.69959 6.35229 4.88054
#
# Compressibility (1/GPa) = 0.02334383
#
# Stress axis : x y z
#
# Youngs Moduli (GPa) = 63.05856 57.14113 13.49470
#
# Poissons Ratio (x) = -0.34770 0.32161
# Poissons Ratio (y) = -0.38371 0.32808
# Poissons Ratio (z) = 1.50282 1.38921
#
# Static dielectric constant tensor:
#      x y z
#    x 1.829520 0.000000 0.000000 
#    y 0.000000 1.814610 0.000000 
#    z 0.000000 0.000000 1.913210 
# 
# From -- ./inp_files/250660.got.cif
#   From: 2010.05.17/outbox.cif.g08.bks.cpg/sg15_126_cif.got.tgz:250660.got - 2010.06.03 18:47:42.
