data_PCOD9277598
_publ_section_title
;
Structure prediction by ZEFSAII (Michael W. Deem and Ramdas Pophale) SiO2 
 PCOD9277598
Probable space group: C 2/C
;
_chemical_formula_sum "Si O2"
_cell_formula_units_Z 28
_cell_length_a 5.031620
_cell_length_b 15.302518
_cell_length_c 15.145516
_cell_angle_alpha 90.000000
_cell_angle_beta 117.717193
_cell_angle_gamma 90.000000
_cell_volume 1032.339997
_symmetry_space_group_name_H-M "C 2/C"
_symmetry_group_IT_number 15
_symmetry_cell_setting 'monoclinic'
loop_
_space_group_symop_operation_xyz
x,y,z
-x,y,1/2-z
-x,-y,-z
x,-y,1/2+z
1/2+x,1/2+y,z
1/2-x,1/2+y,1/2-z
1/2-x,1/2-y,-z
1/2+x,1/2-y,1/2+z
loop_
_atom_site_type_symbol
_atom_site_label
_atom_site_fract_x
_atom_site_fract_y
_atom_site_fract_z
Si Si1 0.759721 0.172102 0.431068
Si Si2 0.500000 0.273943 0.250000
Si Si3 0.682320 0.414539 0.133684
Si Si4 0.662913 0.980540 0.617062
O O1 0.750000 0.250000 0.500000
O O2 0.766216 0.217573 0.336699
O O3 0.454092 0.115253 0.378539
O O4 0.017636 0.112036 0.515052
O O5 0.629217 0.333529 0.190778
O O6 0.992079 0.448727 0.342472
O O7 0.504906 0.495859 0.151290
O O8 0.500000 0.000000 0.500000
#
# Coordination Sequence:
#
# PCOD9277598 Si02
#       4
#     8   4   8   8
#     4   9  19  38  62  90 122 157 201 254 308 358
#     4  10  22  40  60  92 128 162 206 260 308 362
#     4  10  22  41  63  89 123 166 208 251 307 372
#     4  10  20  41  66  89 119 165 208 252 307 373
#
# _framework density 27.122847
#
# number of rings (size 3 to 8) (size 9 to 14) (size 15 to 20)
#    0.000    2.286    0.000    3.429    0.000    3.429 
#    0.000   62.857    0.000    0.000    0.000    0.000 
#    0.000    0.000    0.000    0.000    0.000    0.000 
#
# Total GULP energy -78350.919859 kJ/mol
# GULP energy per Si atom -5596.494276 kJ/mol
# Density = 2.706111 g / cm^3
# Si number density = 27.122847 Si / 1000 Ang^3
#
#
#
# Elastic Constant Matrix: (Units=GPa)
#
#
# Indices 1 2 3 4 5 6 
#
# 1 109.0054 30.9581 49.9595 0.0000 6.6278 0.0000
# 2 30.9581 132.8569 51.7341 0.0000 -1.9865 0.0000
# 3 49.9595 51.7341 176.1062 0.0000 -13.4059 0.0000
# 4 0.0000 0.0000 0.0000 67.2892 0.0000 -13.5344
# 5 6.6278 -1.9865 -13.4059 0.0000 55.6040 0.0000
# 6 0.0000 0.0000 0.0000 -13.5344 0.0000 23.0007
#
#
#
# Elastic Compliance Matrix: (Units=1/GPa)
#
#
# Indices 1 2 3 4 5 6 
#
# 1 0.011027 -0.001492 -0.002846 0.000000 -0.002054 0.000000
# 2 -0.001492 0.008706 -0.002136 0.000000 -0.000026 0.000000
# 3 -0.002846 -0.002136 0.007267 0.000000 0.002015 0.000000
# 4 0.000000 0.000000 0.000000 0.016856 0.000000 0.009919
# 5 -0.002054 -0.000026 0.002015 0.000000 0.018714 0.000000
# 6 0.000000 0.000000 0.000000 0.009919 0.000000 0.049314
#
#
# Mechanical properties :
#
#
# Convention : Reuss Voigt Hill
#
# Bulk Modulus (GPa) = 71.17017 75.91910 73.54463
# Shear Modulus (GPa) = 38.60522 48.19990 43.40256
#
# Velocity S-wave (km/s) = 3.77682 4.22013 4.00462
# Velocity P-wave (km/s) = 6.73172 7.19706 6.96827
#
# Compressibility (1/GPa) = 0.01405083
#
# Stress axis : x y z
#
# Youngs Moduli (GPa) = 90.68675 114.86333 137.61158
#
# Poissons Ratio (x) = 0.17136 0.39169
# Poissons Ratio (y) = 0.13529 0.29398
# Poissons Ratio (z) = 0.25813 0.24538
#
# Static dielectric constant tensor:
#      x y z
#    x 2.116300 0.000000 0.034400 
#    y 0.000000 2.186740 0.000000 
#    z 0.034400 0.000000 2.247340 
# 
# From -- ./inp_files/83633.got.cif
#   From: 2010.05.17/outbox.cif.g08.bks.cpg/sg15_42_cif.got.tgz:83633.got - 2010.06.03 18:47:42.
