data_PCOD9277248
_publ_section_title
;
Structure prediction by ZEFSAII (Michael W. Deem and Ramdas Pophale) SiO2 
 PCOD9277248
Probable space group: C 2/C
;
_chemical_formula_sum "Si O2"
_cell_formula_units_Z 40
_cell_length_a 12.596247
_cell_length_b 12.513521
_cell_length_c 11.049077
_cell_angle_alpha 90.000000
_cell_angle_beta 69.646804
_cell_angle_gamma 90.000000
_cell_volume 1632.859206
_symmetry_space_group_name_H-M "C 2/C"
_symmetry_group_IT_number 15
_symmetry_cell_setting 'monoclinic'
loop_
_space_group_symop_operation_xyz
x,y,z
-x,y,1/2-z
-x,-y,-z
x,-y,1/2+z
1/2+x,1/2+y,z
1/2-x,1/2+y,1/2-z
1/2-x,1/2-y,-z
1/2+x,1/2-y,1/2+z
loop_
_atom_site_type_symbol
_atom_site_label
_atom_site_fract_x
_atom_site_fract_y
_atom_site_fract_z
Si Si1 0.230675 0.989593 0.597556
Si Si2 0.579679 0.066092 0.323013
Si Si3 0.250000 0.250000 0.000000
Si Si4 0.000609 0.759173 0.489939
Si Si5 0.000000 0.092218 0.750000
Si Si6 0.230658 0.164767 0.401799
O O1 0.334462 0.015672 0.647485
O O2 0.255211 0.867840 0.559125
O O3 0.112933 0.020871 0.706302
O O4 0.227825 0.052368 0.472238
O O5 0.500000 0.018419 0.250000
O O6 0.501280 0.136625 0.442316
O O7 0.663472 0.154198 0.228031
O O8 0.384288 0.273047 0.983971
O O9 0.998273 0.834591 0.370905
O O10 0.888313 0.797174 0.606437
O O11 0.250000 0.250000 0.500000
#
# Coordination Sequence:
#
# PCOD9277248 Si02
#       6
#     8   8   4   8   4   8
#     4  10  25  39  65  98 130 171 224 273 330 392
#     4  11  21  41  64  95 136 172 219 281 333 394
#     4  10  24  42  60  94 138 158 210 286 328 370
#     4  10  21  42  65  96 129 174 227 273 315 404
#     4  10  20  40  70  92 124 180 232 264 310 402
#     4  11  22  42  71  93 125 182 222 265 335 400
#
# _framework density 24.496907
#
# number of rings (size 3 to 8) (size 9 to 14) (size 15 to 20)
#    0.000    1.600    3.000    1.200    5.600    2.400 
#    0.000    0.000    2.200    0.000    0.000    0.000 
#    0.000    0.000    0.000    0.000    0.000    0.000 
#
# Total GULP energy -111380.852009 kJ/mol
# GULP energy per Si atom -5569.042600 kJ/mol
# Density = 2.444115 g / cm^3
# Si number density = 24.496907 Si / 1000 Ang^3
#
#
#
# Elastic Constant Matrix: (Units=GPa)
#
#
# Indices 1 2 3 4 5 6 
#
# 1 246.3090 36.8870 27.5996 0.0000 -16.9555 0.0000
# 2 36.8870 43.9195 21.0422 0.0000 -17.4408 0.0000
# 3 27.5996 21.0422 47.7172 0.0000 -33.9973 0.0000
# 4 0.0000 0.0000 0.0000 16.1173 0.0000 -15.5541
# 5 -16.9555 -17.4408 -33.9973 0.0000 39.3034 0.0000
# 6 0.0000 0.0000 0.0000 -15.5541 0.0000 32.2636
#
#
#
# Elastic Compliance Matrix: (Units=1/GPa)
#
#
# Indices 1 2 3 4 5 6 
#
# 1 0.004731 -0.003475 -0.002211 0.000000 -0.001414 0.000000
# 2 -0.003475 0.031756 -0.007875 0.000000 0.005780 0.000000
# 3 -0.002211 -0.007875 0.058740 0.000000 0.046361 0.000000
# 4 0.000000 0.000000 0.000000 0.116026 0.000000 0.055935
# 5 -0.001414 0.005780 0.046361 0.000000 0.067501 0.000000
# 6 0.000000 0.000000 0.000000 0.055935 0.000000 0.057961
#
#
# Mechanical properties :
#
#
# Convention : Reuss Voigt Hill
#
# Bulk Modulus (GPa) = 14.68351 56.55591 35.61971
# Shear Modulus (GPa) = 12.93530 34.36467 23.64998
#
# Velocity S-wave (km/s) = 2.30040 3.74948 3.11050
# Velocity P-wave (km/s) = 3.61425 6.47162 5.24141
#
# Compressibility (1/GPa) = 0.06810359
#
# Stress axis : x y z
#
# Youngs Moduli (GPa) = 211.37851 31.48969 17.02420
#
# Poissons Ratio (x) = 0.10944 0.03764
# Poissons Ratio (y) = 0.73464 0.13407
# Poissons Ratio (z) = 0.46739 0.24799
#
# Static dielectric constant tensor:
#      x y z
#    x 1.999510 0.000000 -0.012520 
#    y 0.000000 1.919850 0.000000 
#    z -0.012520 0.000000 1.991000 
# 
# From -- ./inp_files/142163.got.cif
#   From: 2010.05.17/outbox.cif.g08.bks.cpg/sg15_72_cif.got.tgz:142163.got - 2010.06.03 18:47:42.
