data_PCOD9277092
_publ_section_title
;
Structure prediction by ZEFSAII (Michael W. Deem and Ramdas Pophale) SiO2 
 PCOD9277092
Probable space group: C 2/C
;
_chemical_formula_sum "Si O2"
_cell_formula_units_Z 56
_cell_length_a 30.157531
_cell_length_b 8.495296
_cell_length_c 11.876333
_cell_angle_alpha 90.000000
_cell_angle_beta 63.588540
_cell_angle_gamma 90.000000
_cell_volume 2725.096023
_symmetry_space_group_name_H-M "C 2/C"
_symmetry_group_IT_number 15
_symmetry_cell_setting 'monoclinic'
loop_
_space_group_symop_operation_xyz
x,y,z
-x,y,1/2-z
-x,-y,-z
x,-y,1/2+z
1/2+x,1/2+y,z
1/2-x,1/2+y,1/2-z
1/2-x,1/2-y,-z
1/2+x,1/2-y,1/2+z
loop_
_atom_site_type_symbol
_atom_site_label
_atom_site_fract_x
_atom_site_fract_y
_atom_site_fract_z
Si Si1 0.978566 0.844051 0.462169
Si Si2 0.304796 0.166152 0.938543
Si Si3 0.071760 0.826583 0.224413
Si Si4 0.288946 0.728454 0.678784
Si Si5 0.306233 0.375141 0.619575
Si Si6 0.173110 0.687298 0.125291
Si Si7 0.389159 0.649130 0.205092
O O1 0.949398 0.867599 0.375997
O O2 0.940173 0.775098 0.598090
O O3 0.028618 0.766506 0.357062
O O4 0.000000 0.000000 0.500000
O O5 0.315681 0.158756 0.060192
O O6 0.250000 0.250000 0.000000
O O7 0.350119 0.257831 0.827755
O O8 0.305457 0.987827 0.895249
O O9 0.114469 0.696517 0.171514
O O10 0.095471 0.987163 0.249525
O O11 0.290945 0.554854 0.627526
O O12 0.233181 0.784974 0.759216
O O13 0.313981 0.731872 0.771707
O O14 0.305894 0.288108 0.501515
O O15 0.357869 0.378439 0.626530
#
# Coordination Sequence:
#
# PCOD9277092 Si02
#       7
#     8   8   8   8   8   8   8
#     4   9  20  38  70 100 133 169 229 295 347 415
#     4  12  27  44  64  96 143 187 233 277 339 416
#     4  10  20  40  68 104 129 173 234 288 354 409
#     4  12  26  42  63  95 139 181 234 281 338 413
#     4  12  24  41  67  95 136 184 230 284 340 404
#     4  12  26  43  68  99 137 185 231 284 353 406
#     4  11  22  41  66  95 136 180 224 286 341 410
#
# _framework density 20.549734000000001
#
# number of rings (size 3 to 8) (size 9 to 14) (size 15 to 20)
#    0.000    0.857    4.286    3.000    2.000    0.000 
#    0.000    0.714    0.000    6.857    0.000    0.000 
#    0.000    0.000    0.000    0.000    0.000    0.000 
#
# Total GULP energy -156171.058046 kJ/mol
# GULP energy per Si atom -5577.537787 kJ/mol
# Density = 2.050296 g / cm^3
# Si number density = 20.549734 Si / 1000 Ang^3
#
#
#
# Elastic Constant Matrix: (Units=GPa)
#
#
# Indices 1 2 3 4 5 6 
#
# 1 98.5727 30.8875 42.6982 0.0000 -8.5070 0.0000
# 2 30.8875 66.1067 23.7851 0.0000 -11.2177 0.0000
# 3 42.6982 23.7851 147.6305 0.0000 -24.6183 0.0000
# 4 0.0000 0.0000 0.0000 38.9526 0.0000 5.9024
# 5 -8.5070 -11.2177 -24.6183 0.0000 44.6066 0.0000
# 6 0.0000 0.0000 0.0000 5.9024 0.0000 30.7980
#
#
#
# Elastic Compliance Matrix: (Units=1/GPa)
#
#
# Indices 1 2 3 4 5 6 
#
# 1 0.013001 -0.005066 -0.003021 0.000000 -0.000462 0.000000
# 2 -0.005066 0.018374 -0.000975 0.000000 0.003116 0.000000
# 3 -0.003021 -0.000975 0.008445 0.000000 0.003839 0.000000
# 4 0.000000 0.000000 0.000000 0.026440 0.000000 -0.005067
# 5 -0.000462 0.003116 0.003839 0.000000 0.025233 0.000000
# 6 0.000000 0.000000 0.000000 -0.005067 0.000000 0.033441
#
#
# Mechanical properties :
#
#
# Convention : Reuss Voigt Hill
#
# Bulk Modulus (GPa) = 46.09398 56.33904 51.21651
# Shear Modulus (GPa) = 33.26918 37.20071 35.23494
#
# Velocity S-wave (km/s) = 4.02799 4.25935 4.14529
# Velocity P-wave (km/s) = 6.64170 7.18783 6.92015
#
# Compressibility (1/GPa) = 0.02169481
#
# Stress axis : x y z
#
# Youngs Moduli (GPa) = 76.91758 54.42531 118.41634
#
# Poissons Ratio (x) = 0.27571 0.35774
# Poissons Ratio (y) = 0.38966 0.11551
# Poissons Ratio (z) = 0.23237 0.05309
#
# Static dielectric constant tensor:
#      x y z
#    x 1.770240 0.000000 -0.027220 
#    y 0.000000 1.732590 0.000000 
#    z -0.027220 0.000000 1.761060 
# 
# From -- ./inp_files/125534.got.cif
#   From: 2010.05.17/outbox.cif.g08.bks.cpg/sg15_63_cif.got.tgz:125534.got - 2010.06.03 18:47:42.
