data_PCOD9277893
_publ_section_title
;
Structure prediction by ZEFSAII (Michael W. Deem and Ramdas Pophale) SiO2 
 PCOD9277893
Probable space group: C 2/C
;
_chemical_formula_sum "Si O2"
_cell_formula_units_Z 44
_cell_length_a 9.025396
_cell_length_b 30.457045
_cell_length_c 7.496406
_cell_angle_alpha 90.000000
_cell_angle_beta 106.967751
_cell_angle_gamma 90.000000
_cell_volume 1970.961336
_symmetry_space_group_name_H-M "C 2/C"
_symmetry_group_IT_number 15
_symmetry_cell_setting 'monoclinic'
loop_
_space_group_symop_operation_xyz
x,y,z
-x,y,1/2-z
-x,-y,-z
x,-y,1/2+z
1/2+x,1/2+y,z
1/2-x,1/2+y,1/2-z
1/2-x,1/2-y,-z
1/2+x,1/2-y,1/2+z
loop_
_atom_site_type_symbol
_atom_site_label
_atom_site_fract_x
_atom_site_fract_y
_atom_site_fract_z
Si Si1 0.500000 0.563898 0.250000
Si Si2 0.752700 0.626997 0.729479
Si Si3 0.000000 0.298533 0.250000
Si Si4 0.921892 0.766946 0.026479
Si Si5 0.500000 0.966427 0.750000
Si Si6 0.900582 0.864543 0.966327
Si Si7 0.307522 0.044015 0.518083
O O1 0.390863 0.598106 0.316984
O O2 0.626117 0.537406 0.405814
O O3 0.852337 0.669150 0.708869
O O4 0.731453 0.627065 0.934064
O O5 0.575704 0.629747 0.600747
O O6 0.817485 0.582709 0.666523
O O7 0.006046 0.267649 0.426921
O O8 0.900317 0.813431 0.919003
O O9 0.000000 0.773360 0.250000
O O10 0.750000 0.750000 0.000000
O O11 0.586251 0.943549 0.615499
O O12 0.372961 0.998955 0.618884
#
# Coordination Sequence:
#
# PCOD9277893 Si02
#       7
#     4   8   4   8   4   8   8
#     4  10  23  38  70  99 118 174 226 255 318 398
#     4  10  21  41  63  90 128 172 215 269 323 386
#     4  12  24  38  66  96 132 176 236 278 330 398
#     4  12  24  42  63  95 134 180 223 283 339 379
#     4  10  23  46  66  95 140 158 200 269 336 398
#     4  10  20  42  61  88 136 167 215 274 320 374
#     4  10  23  42  68  96 127 173 204 264 332 392
#
# _framework density 22.32413
#
# number of rings (size 3 to 8) (size 9 to 14) (size 15 to 20)
#    0.000    1.455    3.636    1.091    0.000   10.909 
#    1.636    1.818    0.000    0.000    0.000    0.000 
#    0.000    0.000    0.000    0.000    0.000    0.000 
#
# Total GULP energy -122924.920342 kJ/mol
# GULP energy per Si atom -5587.496379 kJ/mol
# Density = 2.227332 g / cm^3
# Si number density = 22.324130 Si / 1000 Ang^3
#
#
#
# Elastic Constant Matrix: (Units=GPa)
#
#
# Indices 1 2 3 4 5 6 
#
# 1 119.6888 55.9270 37.4639 0.0000 -21.0294 0.0000
# 2 55.9270 70.7876 23.3990 0.0000 -6.4264 0.0000
# 3 37.4639 23.3990 58.0246 0.0000 -3.3282 0.0000
# 4 0.0000 0.0000 0.0000 35.8267 0.0000 -8.3429
# 5 -21.0294 -6.4264 -3.3282 0.0000 52.8889 0.0000
# 6 0.0000 0.0000 0.0000 -8.3429 0.0000 42.1635
#
#
#
# Elastic Compliance Matrix: (Units=1/GPa)
#
#
# Indices 1 2 3 4 5 6 
#
# 1 0.015687 -0.010052 -0.005808 0.000000 0.004651 0.000000
# 2 -0.010052 0.022872 -0.002813 0.000000 -0.001395 0.000000
# 3 -0.005808 -0.002813 0.022046 0.000000 -0.001264 0.000000
# 4 0.000000 0.000000 0.000000 0.029260 0.000000 0.005790
# 5 0.004651 -0.001395 -0.001264 0.000000 0.020508 0.000000
# 6 0.000000 0.000000 0.000000 0.005790 0.000000 0.024863
#
#
# Mechanical properties :
#
#
# Convention : Reuss Voigt Hill
#
# Bulk Modulus (GPa) = 42.99514 53.56453 48.27984
# Shear Modulus (GPa) = 27.72622 34.95656 31.34139
#
# Velocity S-wave (km/s) = 3.52800 3.96139 3.75096
# Velocity P-wave (km/s) = 5.99141 6.70594 6.35872
#
# Compressibility (1/GPa) = 0.02325844
#
# Stress axis : x y z
#
# Youngs Moduli (GPa) = 63.74719 43.72236 45.35939
#
# Poissons Ratio (x) = 0.43948 0.26346
# Poissons Ratio (y) = 0.64077 0.12761
# Poissons Ratio (z) = 0.37026 0.12300
#
# Static dielectric constant tensor:
#      x y z
#    x 1.772730 0.000000 -0.049060 
#    y 0.000000 1.797250 0.000000 
#    z -0.049060 0.000000 1.911760 
# 
# From -- ./inp_files/25758.got.cif
#   From: 2010.05.17/outbox.cif.g08.bks.cpg/sg15_13_cif.got.tgz:25758.got - 2010.06.03 18:47:42.
