data_PCOD9277727
_publ_section_title
;
Structure prediction by ZEFSAII (Michael W. Deem and Ramdas Pophale) SiO2 
 PCOD9277727
Probable space group: C 2/C
;
_chemical_formula_sum "Si O2"
_cell_formula_units_Z 36
_cell_length_a 18.774826
_cell_length_b 14.724203
_cell_length_c 8.090145
_cell_angle_alpha 90.000000
_cell_angle_beta 41.414291
_cell_angle_gamma 90.000000
_cell_volume 1479.425759
_symmetry_space_group_name_H-M "C 2/C"
_symmetry_group_IT_number 15
_symmetry_cell_setting 'monoclinic'
loop_
_space_group_symop_operation_xyz
x,y,z
-x,y,1/2-z
-x,-y,-z
x,-y,1/2+z
1/2+x,1/2+y,z
1/2-x,1/2+y,1/2-z
1/2-x,1/2-y,-z
1/2+x,1/2-y,1/2+z
loop_
_atom_site_type_symbol
_atom_site_label
_atom_site_fract_x
_atom_site_fract_y
_atom_site_fract_z
Si Si1 0.156951 0.421422 0.418664
Si Si2 0.500000 0.214787 0.250000
Si Si3 0.887762 0.624738 0.883519
Si Si4 0.341830 0.358573 0.641871
Si Si5 0.622209 0.464690 0.585951
O O1 0.124844 0.524500 0.513412
O O2 0.117175 0.394319 0.303814
O O3 0.285583 0.418140 0.186282
O O4 0.093856 0.353310 0.649401
O O5 0.432270 0.282441 0.482712
O O6 0.000000 0.664940 0.750000
O O7 0.779732 0.677452 0.126761
O O8 0.355069 0.427111 0.464854
O O9 0.360408 0.424709 0.763878
O O10 0.500000 0.448535 0.750000
#
# Coordination Sequence:
#
# PCOD9277727 Si02
#       5
#     8   4   8   8   8
#     4  10  23  39  67  89 126 156 209 246 312 346
#     4  12  24  42  58  96 132 156 184 282 310 336
#     4  10  20  41  68  89 114 170 210 241 285 391
#     4  10  23  39  67  89 126 156 209 246 312 346
#     4  10  20  41  68  89 114 170 210 241 285 391
#
# _framework density 24.333767000000002
#
# number of rings (size 3 to 8) (size 9 to 14) (size 15 to 20)
#    0.000    1.778    2.222    1.333    0.000    3.556 
#    0.000    6.667    0.000    0.000    0.000    0.000 
#    0.000    0.000    0.000    0.000    0.000    0.000 
#
# Total GULP energy -100625.349426 kJ/mol
# GULP energy per Si atom -5590.297190 kJ/mol
# Density = 2.427838 g / cm^3
# Si number density = 24.333767 Si / 1000 Ang^3
#
#
#
# Elastic Constant Matrix: (Units=GPa)
#
#
# Indices 1 2 3 4 5 6 
#
# 1 103.1296 1.3118 64.8796 0.0000 -35.1922 0.0000
# 2 1.3118 79.3097 42.7289 0.0000 -3.6828 0.0000
# 3 64.8796 42.7289 164.1482 0.0000 -52.3607 0.0000
# 4 0.0000 0.0000 0.0000 27.6907 0.0000 -15.3784
# 5 -35.1922 -3.6828 -52.3607 0.0000 46.6345 0.0000
# 6 0.0000 0.0000 0.0000 -15.3784 0.0000 4.6124
#
#
#
# Elastic Compliance Matrix: (Units=1/GPa)
#
#
# Indices 1 2 3 4 5 6 
#
# 1 0.014560 0.002415 -0.004390 0.000000 0.006249 0.000000
# 2 0.002415 0.015813 -0.006374 0.000000 -0.004086 0.000000
# 3 -0.004390 -0.006374 0.012883 0.000000 0.010649 0.000000
# 4 0.000000 0.000000 0.000000 -0.042403 0.000000 -0.141378
# 5 0.006249 -0.004086 0.010649 0.000000 0.037793 0.000000
# 6 0.000000 0.000000 0.000000 -0.141378 0.000000 -0.254569
#
#
# Mechanical properties :
#
#
# Convention : Reuss Voigt Hill
#
# Bulk Modulus (GPa) = 37.65374 62.71423 50.18398
# Shear Modulus (GPa) = -26.26441 31.63200 2.68379
#
# Velocity S-wave (km/s) = -3.28890 3.60935 1.05133
# Velocity P-wave (km/s) = 1.04164 6.57255 4.70550
#
# Compressibility (1/GPa) = 0.02655779
#
# Stress axis : x y z
#
# Youngs Moduli (GPa) = 68.68082 63.23862 77.62060
#
# Poissons Ratio (x) = -0.15269 0.34075
# Poissons Ratio (y) = -0.16583 0.49474
# Poissons Ratio (z) = 0.30151 0.40307
#
# Static dielectric constant tensor:
#      x y z
#    x 1.926860 0.000000 0.018780 
#    y 0.000000 1.940060 0.000000 
#    z 0.018780 0.000000 2.037620 
# 
# From -- ./inp_files/55592.got.cif
#   From: 2010.05.17/outbox.cif.g08.bks.cpg/sg15_28_cif.got.tgz:55592.got - 2010.06.03 18:47:42.
