data_PCOD9277015
_publ_section_title
;
Structure prediction by ZEFSAII (Michael W. Deem and Ramdas Pophale) SiO2 
 PCOD9277015
Probable space group: C 2/C
;
_chemical_formula_sum "Si O2"
_cell_formula_units_Z 40
_cell_length_a 9.732485
_cell_length_b 14.081465
_cell_length_c 14.454037
_cell_angle_alpha 90.000000
_cell_angle_beta 92.922036
_cell_angle_gamma 90.000000
_cell_volume 1978.316253
_symmetry_space_group_name_H-M "C 2/C"
_symmetry_group_IT_number 15
_symmetry_cell_setting 'monoclinic'
loop_
_space_group_symop_operation_xyz
x,y,z
-x,y,1/2-z
-x,-y,-z
x,-y,1/2+z
1/2+x,1/2+y,z
1/2-x,1/2+y,1/2-z
1/2-x,1/2-y,-z
1/2+x,1/2-y,1/2+z
loop_
_atom_site_type_symbol
_atom_site_label
_atom_site_fract_x
_atom_site_fract_y
_atom_site_fract_z
Si Si1 0.488453 0.063293 0.093392
Si Si2 0.880056 0.129472 0.685388
Si Si3 0.885126 0.760329 0.811432
Si Si4 0.087024 0.769346 0.484903
Si Si5 0.769669 0.450022 0.747489
O O1 0.473230 0.173556 0.062290
O O2 0.620699 0.053054 0.164548
O O3 0.357755 0.037227 0.155140
O O4 0.500000 0.000000 0.000000
O O5 0.739005 0.187487 0.682544
O O6 0.931025 0.139957 0.581727
O O7 0.000000 0.176292 0.750000
O O8 0.839428 0.030914 0.730221
O O9 0.815844 0.853795 0.767393
O O10 0.000000 0.717599 0.750000
O O11 0.957139 0.782903 0.911563
O O12 0.250000 0.750000 0.500000
#
# Coordination Sequence:
#
# PCOD9277015 Si02
#       5
#     8   8   8   8   8
#     4  11  22  40  66 100 132 173 222 265 330 389
#     4  11  23  43  66  93 131 176 213 269 333 381
#     4  11  24  43  66  98 131 168 221 270 328 393
#     4  10  20  40  67  90 129 175 210 271 329 390
#     4  11  24  40  66  96 135 171 217 274 320 390
#
# _framework density 20.219213
#
# number of rings (size 3 to 8) (size 9 to 14) (size 15 to 20)
#    0.000    1.200    4.000    4.200    5.600    0.000 
#    3.600    4.000    0.000    0.000    0.000    0.000 
#    0.000    0.000    0.000    0.000    0.000    0.000 
#
# Total GULP energy -111582.774678 kJ/mol
# GULP energy per Si atom -5579.138734 kJ/mol
# Density = 2.017319 g / cm^3
# Si number density = 20.219213 Si / 1000 Ang^3
#
#
#
# Elastic Constant Matrix: (Units=GPa)
#
#
# Indices 1 2 3 4 5 6 
#
# 1 63.0668 -4.1933 35.2770 0.0000 0.3804 0.0000
# 2 -4.1933 64.4813 3.9841 0.0000 -3.5609 0.0000
# 3 35.2770 3.9841 114.7565 0.0000 7.0950 0.0000
# 4 0.0000 0.0000 0.0000 28.6998 0.0000 4.4691
# 5 0.3804 -3.5609 7.0950 0.0000 17.9222 0.0000
# 6 0.0000 0.0000 0.0000 4.4691 0.0000 25.6177
#
#
#
# Elastic Compliance Matrix: (Units=1/GPa)
#
#
# Indices 1 2 3 4 5 6 
#
# 1 0.019415 0.001776 -0.006178 0.000000 0.002386 0.000000
# 2 0.001776 0.015907 -0.001324 0.000000 0.003647 0.000000
# 3 -0.006178 -0.001324 0.010935 0.000000 -0.004461 0.000000
# 4 0.000000 0.000000 0.000000 0.035816 0.000000 -0.006248
# 5 0.002386 0.003647 -0.004461 0.000000 0.058237 0.000000
# 6 0.000000 0.000000 0.000000 -0.006248 0.000000 0.040125
#
#
# Mechanical properties :
#
#
# Convention : Reuss Voigt Hill
#
# Bulk Modulus (GPa) = 28.72997 34.71558 31.72278
# Shear Modulus (GPa) = 24.57139 28.26375 26.41757
#
# Velocity S-wave (km/s) = 3.48982 3.74286 3.61856
# Velocity P-wave (km/s) = 5.52074 5.99045 5.76039
#
# Compressibility (1/GPa) = 0.03480685
#
# Stress axis : x y z
#
# Youngs Moduli (GPa) = 51.50545 62.86519 91.45026
#
# Poissons Ratio (x) = -0.11165 0.56495
# Poissons Ratio (y) = -0.09148 0.12105
# Poissons Ratio (z) = 0.31818 0.08322
#
# Static dielectric constant tensor:
#      x y z
#    x 1.731310 0.000000 0.022100 
#    y 0.000000 1.732640 0.000000 
#    z 0.022100 0.000000 1.912720 
# 
# From -- ./inp_files/133206.got.cif
#   From: 2010.05.17/outbox.cif.g08.bks.cpg/sg15_67_cif.got.tgz:133206.got - 2010.06.03 18:47:42.
