data_PCOD9277707
_publ_section_title
;
Structure prediction by ZEFSAII (Michael W. Deem and Ramdas Pophale) SiO2 
 PCOD9277707
Probable space group: C 2/C
;
_chemical_formula_sum "Si O2"
_cell_formula_units_Z 48
_cell_length_a 9.639046
_cell_length_b 18.506397
_cell_length_c 13.396883
_cell_angle_alpha 90.000000
_cell_angle_beta 119.335488
_cell_angle_gamma 90.000000
_cell_volume 2083.337417
_symmetry_space_group_name_H-M "C 2/C"
_symmetry_group_IT_number 15
_symmetry_cell_setting 'monoclinic'
loop_
_space_group_symop_operation_xyz
x,y,z
-x,y,1/2-z
-x,-y,-z
x,-y,1/2+z
1/2+x,1/2+y,z
1/2-x,1/2+y,1/2-z
1/2-x,1/2-y,-z
1/2+x,1/2-y,1/2+z
loop_
_atom_site_type_symbol
_atom_site_label
_atom_site_fract_x
_atom_site_fract_y
_atom_site_fract_z
Si Si1 0.528447 0.078896 0.972938
Si Si2 0.500000 0.862850 0.250000
Si Si3 0.415992 0.860913 0.823641
Si Si4 0.176177 0.993380 0.699127
Si Si5 0.869855 0.091140 0.017691
Si Si6 0.346479 0.295534 0.366255
Si Si7 0.500000 0.607484 0.750000
O O1 0.476659 0.091724 0.842404
O O2 0.717186 0.095019 0.034043
O O3 0.462306 0.125767 0.040902
O O4 0.500000 0.000000 0.000000
O O5 0.662036 0.818526 0.311125
O O6 0.500000 0.845506 0.750000
O O7 0.312242 0.933692 0.765522
O O8 0.336718 0.787048 0.831618
O O9 0.183668 0.042208 0.599094
O O10 0.983677 0.947251 0.878109
O O11 0.143152 0.049152 0.779338
O O12 0.912843 0.171453 0.993722
O O13 0.459043 0.338341 0.326435
#
# Coordination Sequence:
#
# PCOD9277707 Si02
#       7
#     8   4   8   8   8   8   4
#     4  11  25  40  69  97 141 179 232 293 349 420
#     4  10  26  45  67 104 134 192 228 280 360 425
#     4  12  26  44  67 107 142 186 239 301 353 425
#     4  10  21  38  69  98 135 179 248 288 346 427
#     4   9  21  41  64  98 133 187 233 294 348 424
#     4  10  23  44  68  98 152 181 234 293 365 423
#     4  10  20  41  67  98 134 188 220 296 354 411
#
# _framework density 23.039954999999999
#
# number of rings (size 3 to 8) (size 9 to 14) (size 15 to 20)
#    0.000    1.667    0.833    2.000   10.500    6.000 
#    3.000    1.667    0.000    0.000    0.000    0.000 
#    0.000    0.000    0.000    0.000    0.000    0.000 
#
# Total GULP energy -133699.853897 kJ/mol
# GULP energy per Si atom -5570.827246 kJ/mol
# Density = 2.298752 g / cm^3
# Si number density = 23.039955 Si / 1000 Ang^3
#
#
#
# Elastic Constant Matrix: (Units=GPa)
#
#
# Indices 1 2 3 4 5 6 
#
# 1 51.6923 31.5622 17.8975 0.0000 -16.6882 0.0000
# 2 31.5622 133.7168 36.7751 0.0000 -12.4791 0.0000
# 3 17.8975 36.7751 120.7931 0.0000 -20.4896 0.0000
# 4 0.0000 0.0000 0.0000 15.7771 0.0000 -8.6141
# 5 -16.6882 -12.4791 -20.4896 0.0000 34.2188 0.0000
# 6 0.0000 0.0000 0.0000 -8.6141 0.0000 41.1683
#
#
#
# Elastic Compliance Matrix: (Units=1/GPa)
#
#
# Indices 1 2 3 4 5 6 
#
# 1 0.025984 -0.005002 -0.000542 0.000000 0.010524 0.000000
# 2 -0.005002 0.009210 -0.002122 0.000000 -0.000352 0.000000
# 3 -0.000542 -0.002122 0.009827 0.000000 0.004846 0.000000
# 4 0.000000 0.000000 0.000000 0.071558 0.000000 0.014973
# 5 0.010524 -0.000352 0.004846 0.000000 0.037129 0.000000
# 6 0.000000 0.000000 0.000000 0.014973 0.000000 0.027423
#
#
# Mechanical properties :
#
#
# Convention : Reuss Voigt Hill
#
# Bulk Modulus (GPa) = 33.68326 53.18574 43.43450
# Shear Modulus (GPa) = 24.22929 32.89734 28.56332
#
# Velocity S-wave (km/s) = 3.24639 3.78277 3.52480
# Velocity P-wave (km/s) = 5.35754 6.49719 5.95469
#
# Compressibility (1/GPa) = 0.02968834
#
# Stress axis : x y z
#
# Youngs Moduli (GPa) = 38.48450 108.57658 101.75941
#
# Poissons Ratio (x) = 0.54311 0.05516
# Poissons Ratio (y) = 0.19250 0.21598
# Poissons Ratio (z) = 0.02086 0.23045
#
# Static dielectric constant tensor:
#      x y z
#    x 1.887040 0.000000 0.036410 
#    y 0.000000 2.021820 0.000000 
#    z 0.036410 0.000000 2.028330 
# 
# From -- ./inp_files/87497.got.cif
#   From: 2010.05.17/outbox.cif.g08.bks.cpg/sg15_44_cif.got.tgz:87497.got - 2010.06.03 18:47:42.
