data_PCOD9277249
_publ_section_title
;
Structure prediction by ZEFSAII (Michael W. Deem and Ramdas Pophale) SiO2 
 PCOD9277249
Probable space group: C 2/C
;
_chemical_formula_sum "Si O2"
_cell_formula_units_Z 44
_cell_length_a 24.635378
_cell_length_b 8.278061
_cell_length_c 14.223481
_cell_angle_alpha 90.000000
_cell_angle_beta 142.014580
_cell_angle_gamma 90.000000
_cell_volume 1785.230258
_symmetry_space_group_name_H-M "C 2/C"
_symmetry_group_IT_number 15
_symmetry_cell_setting 'monoclinic'
loop_
_space_group_symop_operation_xyz
x,y,z
-x,y,1/2-z
-x,-y,-z
x,-y,1/2+z
1/2+x,1/2+y,z
1/2-x,1/2+y,1/2-z
1/2-x,1/2-y,-z
1/2+x,1/2-y,1/2+z
loop_
_atom_site_type_symbol
_atom_site_label
_atom_site_fract_x
_atom_site_fract_y
_atom_site_fract_z
Si Si1 0.279969 0.648842 0.746024
Si Si2 0.608595 0.504121 0.754800
Si Si3 0.249679 0.494629 0.886192
Si Si4 0.103265 0.509930 0.958207
Si Si5 0.569857 0.138125 0.709367
Si Si6 0.500000 0.706085 0.750000
O O1 0.364637 0.593944 0.803471
O O2 0.291662 0.628545 0.873502
O O3 0.202645 0.517032 0.623490
O O4 0.249428 0.818273 0.660432
O O5 0.579109 0.322989 0.693943
O O6 0.535534 0.597756 0.714554
O O7 0.694789 0.505357 0.941401
O O8 0.147945 0.540082 0.765986
O O9 0.093217 0.618249 0.851890
O O10 0.030068 0.571842 0.932333
O O11 0.072768 0.330519 0.886172
#
# Coordination Sequence:
#
# PCOD9277249 Si02
#       6
#     8   8   8   8   8   4
#     4  12  25  43  68  96 133 171 222 266 324 386
#     4  12  23  44  70  96 131 171 218 272 319 395
#     4  12  25  42  68  98 131 175 215 270 323 387
#     4  10  21  41  67  95 130 174 212 266 326 386
#     4  10  22  40  67  97 128 170 214 260 331 377
#     4  10  20  40  70  92 126 174 218 262 330 376
#
# _framework density 24.646681999999998
#
# number of rings (size 3 to 8) (size 9 to 14) (size 15 to 20)
#    0.000    1.091    3.636    5.455    2.545    0.727 
#    0.000    0.909    0.000    0.000    0.000    0.000 
#    0.000    0.000    0.000    0.000    0.000    0.000 
#
# Total GULP energy -123235.432817 kJ/mol
# GULP energy per Si atom -5601.610583 kJ/mol
# Density = 2.459058 g / cm^3
# Si number density = 24.646682 Si / 1000 Ang^3
#
#
#
# Elastic Constant Matrix: (Units=GPa)
#
#
# Indices 1 2 3 4 5 6 
#
# 1 123.8542 -8.9130 4.8284 0.0000 -14.4524 0.0000
# 2 -8.9130 73.6170 1.3199 0.0000 -0.2646 0.0000
# 3 4.8284 1.3199 41.5194 0.0000 -9.8807 0.0000
# 4 0.0000 0.0000 0.0000 -139.6163 0.0000 -97.6045
# 5 -14.4524 -0.2646 -9.8807 0.0000 10.2927 0.0000
# 6 0.0000 0.0000 0.0000 -97.6045 0.0000 -14.7876
#
#
#
# Elastic Compliance Matrix: (Units=1/GPa)
#
#
# Indices 1 2 3 4 5 6 
#
# 1 0.010009 0.001222 0.002786 0.000000 0.016760 0.000000
# 2 0.001222 0.013741 -0.000112 0.000000 0.001962 0.000000
# 3 0.002786 -0.000112 0.032007 0.000000 0.034635 0.000000
# 4 0.000000 0.000000 0.000000 0.001982 0.000000 -0.013080
# 5 0.016760 0.001962 0.034635 0.000000 0.153988 0.000000
# 6 0.000000 0.000000 0.000000 -0.013080 0.000000 0.018710
#
#
# Mechanical properties :
#
#
# Convention : Reuss Voigt Hill
#
# Bulk Modulus (GPa) = 15.73609 25.94013 20.83811
# Shear Modulus (GPa) = 20.50621 -12.70524 3.90049
#
# Velocity S-wave (km/s) = 2.88758 -2.27291 1.25936
# Velocity P-wave (km/s) = 4.18522 1.91297 3.25388
#
# Compressibility (1/GPa) = 0.06354819
#
# Stress axis : x y z
#
# Youngs Moduli (GPa) = 99.90990 72.77574 31.24315
#
# Poissons Ratio (x) = -0.08894 -0.08703
# Poissons Ratio (y) = -0.12210 0.00350
# Poissons Ratio (z) = -0.27831 0.00816
#
# Static dielectric constant tensor:
#      x y z
#    x 1.933130 0.000000 -0.005160 
#    y 0.000000 1.894270 0.000000 
#    z -0.005160 0.000000 2.041060 
# 
# From -- ./inp_files/172089.got.cif
#   From: 2010.05.17/outbox.cif.g08.bks.cpg/sg15_87_cif.got.tgz:172089.got - 2010.06.03 18:47:42.
