data_PCOD9277416
_publ_section_title
;
Structure prediction by ZEFSAII (Michael W. Deem and Ramdas Pophale) SiO2 
 PCOD9277416
Probable space group: C 2/C
;
_chemical_formula_sum "Si O2"
_cell_formula_units_Z 44
_cell_length_a 23.412779
_cell_length_b 9.851442
_cell_length_c 15.795058
_cell_angle_alpha 90.000000
_cell_angle_beta 32.626086
_cell_angle_gamma 90.000000
_cell_volume 1964.206111
_symmetry_space_group_name_H-M "C 2/C"
_symmetry_group_IT_number 15
_symmetry_cell_setting 'monoclinic'
loop_
_space_group_symop_operation_xyz
x,y,z
-x,y,1/2-z
-x,-y,-z
x,-y,1/2+z
1/2+x,1/2+y,z
1/2-x,1/2+y,1/2-z
1/2-x,1/2-y,-z
1/2+x,1/2-y,1/2+z
loop_
_atom_site_type_symbol
_atom_site_label
_atom_site_fract_x
_atom_site_fract_y
_atom_site_fract_z
Si Si1 0.580145 0.115453 0.869352
Si Si2 0.429321 0.794745 0.423521
Si Si3 0.177766 0.579039 0.918489
Si Si4 0.722034 0.384369 0.481351
Si Si5 0.000000 0.285988 0.750000
Si Si6 0.165314 0.148467 0.650129
O O1 0.510594 0.217958 0.900281
O O2 0.669773 0.060618 0.694185
O O3 0.644334 0.151653 0.873363
O O4 0.500000 0.000000 0.000000
O O5 0.500000 0.825219 0.250000
O O6 0.361299 0.663675 0.484868
O O7 0.347324 0.917213 0.549704
O O8 0.092942 0.626676 0.094032
O O9 0.292655 0.626817 0.807122
O O10 0.750000 0.250000 0.500000
O O11 0.675393 0.500498 0.597028
O O12 0.051588 0.203245 0.763551
O O13 0.250000 0.250000 0.500000
#
# Coordination Sequence:
#
# PCOD9277416 Si02
#       6
#     8   8   8   8   4   8
#     4  10  24  39  65 101 134 180 223 280 353 416
#     4  11  20  38  69  93 130 172 233 284 344 409
#     4  10  20  41  62  91 131 179 221 271 345 416
#     4  12  23  41  70  99 132 177 239 289 352 405
#     4  10  22  38  64  88 126 180 218 258 344 408
#     4  10  23  40  64  94 130 175 224 273 338 432
#
# _framework density 22.400907
#
# number of rings (size 3 to 8) (size 9 to 14) (size 15 to 20)
#    0.000    1.455    4.545    0.000    8.909    1.455 
#    9.818    0.000    0.000    6.545    0.000    0.000 
#    0.000    0.000    0.000    0.000    0.000    0.000 
#
# Total GULP energy -122761.576723 kJ/mol
# GULP energy per Si atom -5580.071669 kJ/mol
# Density = 2.234992 g / cm^3
# Si number density = 22.400907 Si / 1000 Ang^3
#
#
#
# Elastic Constant Matrix: (Units=GPa)
#
#
# Indices 1 2 3 4 5 6 
#
# 1 191.9462 26.6502 2.7235 0.0001 -32.9452 0.0000
# 2 26.6502 69.1988 -4.9051 -0.0002 -11.2140 0.0001
# 3 2.7235 -4.9051 48.9246 -0.0001 -5.7415 0.0000
# 4 0.0001 -0.0002 -0.0001 8.7701 0.0000 -5.9308
# 5 -32.9452 -11.2140 -5.7415 0.0000 36.9461 0.0000
# 6 0.0000 0.0001 0.0000 -5.9308 0.0000 20.4281
#
#
#
# Elastic Compliance Matrix: (Units=1/GPa)
#
#
# Indices 1 2 3 4 5 6 
#
# 1 0.006315 -0.001589 0.000095 0.000000 0.005164 0.000000
# 2 -0.001589 0.015814 0.002109 0.000000 0.003711 0.000000
# 3 0.000095 0.002109 0.021116 0.000000 0.004007 0.000000
# 4 0.000000 0.000000 0.000000 0.141879 0.000000 0.041191
# 5 0.005164 0.003711 0.004007 0.000000 0.033420 0.000000
# 6 0.000000 0.000000 0.000000 0.041191 0.000000 0.060911
#
#
# Mechanical properties :
#
#
# Convention : Reuss Voigt Hill
#
# Bulk Modulus (GPa) = 22.48339 39.88963 31.18651
# Shear Modulus (GPa) = 17.06198 32.26893 24.66546
#
# Velocity S-wave (km/s) = 2.76282 3.79953 3.32187
# Velocity P-wave (km/s) = 4.49847 6.09052 5.35400
#
# Compressibility (1/GPa) = 0.04447728
#
# Stress axis : x y z
#
# Youngs Moduli (GPa) = 158.34425 63.23575 47.35745
#
# Poissons Ratio (x) = 0.10046 -0.00451
# Poissons Ratio (y) = 0.25154 -0.09990
# Poissons Ratio (z) = -0.01508 -0.13339
#
# Static dielectric constant tensor:
#      x y z
#    x 1.975590 0.000000 0.015920 
#    y 0.000000 1.808880 0.000000 
#    z 0.015920 0.000000 1.882050 
# 
# From -- ./inp_files/219046.got.cif
#   From: 2010.05.17/outbox.cif.g08.bks.cpg/sg15_110_cif.got.tgz:219046.got - 2010.06.03 18:47:42.
