data_PCOD9277246
_publ_section_title
;
Structure prediction by ZEFSAII (Michael W. Deem and Ramdas Pophale) SiO2 
 PCOD9277246
Probable space group: C 2/C
;
_chemical_formula_sum "Si O2"
_cell_formula_units_Z 44
_cell_length_a 8.239089
_cell_length_b 19.362602
_cell_length_c 16.413693
_cell_angle_alpha 90.000000
_cell_angle_beta 38.852315
_cell_angle_gamma 90.000000
_cell_volume 1642.611987
_symmetry_space_group_name_H-M "C 2/C"
_symmetry_group_IT_number 15
_symmetry_cell_setting 'monoclinic'
loop_
_space_group_symop_operation_xyz
x,y,z
-x,y,1/2-z
-x,-y,-z
x,-y,1/2+z
1/2+x,1/2+y,z
1/2-x,1/2+y,1/2-z
1/2-x,1/2-y,-z
1/2+x,1/2-y,1/2+z
loop_
_atom_site_type_symbol
_atom_site_label
_atom_site_fract_x
_atom_site_fract_y
_atom_site_fract_z
Si Si1 0.117848 0.481857 0.325720
Si Si2 0.904917 0.372333 0.869103
Si Si3 0.027829 0.283819 0.140680
Si Si4 0.500000 0.660256 0.250000
Si Si5 0.335575 0.589961 0.584615
Si Si6 0.050022 0.376189 0.472419
O O1 0.293722 0.445707 0.188406
O O2 0.161776 0.450165 0.398391
O O3 0.097442 0.563230 0.316538
O O4 0.831823 0.454056 0.413329
O O5 0.000000 0.335188 0.750000
O O6 0.630935 0.403289 0.949142
O O7 0.849263 0.345135 0.981992
O O8 0.202326 0.334429 0.130520
O O9 0.879258 0.217903 0.235746
O O10 0.879513 0.329629 0.132980
O O11 0.250000 0.250000 0.000000
O O12 0.265825 0.623809 0.389492
#
# Coordination Sequence:
#
# PCOD9277246 Si02
#       6
#     8   8   8   4   8   8
#     4  10  21  41  64  88 123 178 209 237 313 385
#     4  12  25  37  61  97 135 165 202 262 319 355
#     4   9  19  38  64  85 117 167 207 251 308 369
#     4  10  20  40  70  92 122 158 220 262 304 380
#     4  10  21  40  64  88 127 169 209 255 308 385
#     4  10  23  37  63  96 123 161 214 257 304 374
#
# _framework density 26.786605999999999
#
# number of rings (size 3 to 8) (size 9 to 14) (size 15 to 20)
#    0.000    1.818    1.818    3.273    7.636    0.727 
#    0.000    3.636    0.000    0.000    0.000    0.000 
#    0.000    0.000    0.000    0.000    0.000    0.000 
#
# Total GULP energy -122648.351928 kJ/mol
# GULP energy per Si atom -5574.925088 kJ/mol
# Density = 2.672564 g / cm^3
# Si number density = 26.786606 Si / 1000 Ang^3
#
#
#
# Elastic Constant Matrix: (Units=GPa)
#
#
# Indices 1 2 3 4 5 6 
#
# 1 83.3151 -17.3428 22.4657 -0.0003 25.9000 -0.0004
# 2 -17.3428 60.4385 6.6809 -0.0007 19.4038 0.0002
# 3 22.4657 6.6809 93.0907 -0.0072 28.3006 0.0037
# 4 -0.0003 -0.0007 -0.0072 37.9357 0.0009 18.5271
# 5 25.9000 19.4038 28.3006 0.0009 33.7595 0.0000
# 6 -0.0004 0.0002 0.0037 18.5271 0.0000 14.9210
#
#
#
# Elastic Compliance Matrix: (Units=1/GPa)
#
#
# Indices 1 2 3 4 5 6 
#
# 1 0.023856 0.015979 0.001949 0.000004 -0.029120 -0.000005
# 2 0.015979 0.031553 0.004187 0.000007 -0.033904 -0.000010
# 3 0.001949 0.004187 0.014974 0.000013 -0.016454 -0.000020
# 4 0.000004 0.000007 0.000013 0.066975 -0.000020 -0.083162
# 5 -0.029120 -0.033904 -0.016454 -0.000020 0.085242 0.000029
# 6 -0.000005 -0.000010 -0.000020 -0.083162 0.000029 0.170280
#
#
# Mechanical properties :
#
#
# Convention : Reuss Voigt Hill
#
# Bulk Modulus (GPa) = 8.72517 28.93909 18.83213
# Shear Modulus (GPa) = 12.92475 32.32593 22.62534
#
# Velocity S-wave (km/s) = 2.19899 3.47766 2.90944
# Velocity P-wave (km/s) = 3.11637 5.19158 4.28161
#
# Compressibility (1/GPa) = 0.11461096
#
# Stress axis : x y z
#
# Youngs Moduli (GPa) = 41.91873 31.69262 66.78421
#
# Poissons Ratio (x) = -0.50641 -0.13015
# Poissons Ratio (y) = -0.66981 -0.27960
# Poissons Ratio (z) = -0.08169 -0.13268
#
# Static dielectric constant tensor:
#      x y z
#    x 2.212250 0.000000 0.061560 
#    y 0.000000 2.283270 0.000000 
#    z 0.061560 0.000000 2.081030 
# 
# From -- ./inp_files/193148.got.cif
#   From: 2010.05.17/outbox.cif.g08.bks.cpg/sg15_97_cif.got.tgz:193148.got - 2010.06.03 18:47:42.
