data_PCOD9277148
_publ_section_title
;
Structure prediction by ZEFSAII (Michael W. Deem and Ramdas Pophale) SiO2 
 PCOD9277148
Probable space group: C 2/C
;
_chemical_formula_sum "Si O2"
_cell_formula_units_Z 52
_cell_length_a 26.427292
_cell_length_b 11.352604
_cell_length_c 8.672863
_cell_angle_alpha 90.000000
_cell_angle_beta 53.300463
_cell_angle_gamma 90.000000
_cell_volume 2086.248867
_symmetry_space_group_name_H-M "C 2/C"
_symmetry_group_IT_number 15
_symmetry_cell_setting 'monoclinic'
loop_
_space_group_symop_operation_xyz
x,y,z
-x,y,1/2-z
-x,-y,-z
x,-y,1/2+z
1/2+x,1/2+y,z
1/2-x,1/2+y,1/2-z
1/2-x,1/2-y,-z
1/2+x,1/2-y,1/2+z
loop_
_atom_site_type_symbol
_atom_site_label
_atom_site_fract_x
_atom_site_fract_y
_atom_site_fract_z
Si Si1 0.000000 0.500000 0.000000
Si Si2 0.298279 0.697582 0.229698
Si Si3 0.190470 0.575725 0.593661
Si Si4 0.500000 0.197940 0.250000
Si Si5 0.083977 0.073343 0.347245
Si Si6 0.878947 0.620733 0.080844
Si Si7 0.500000 0.441213 0.750000
Si Si8 0.122421 0.183486 0.691193
O O1 0.051773 0.418166 0.995554
O O2 0.978477 0.387755 0.926663
O O3 0.248048 0.597661 0.368230
O O4 0.288660 0.826494 0.318522
O O5 0.362854 0.656261 0.189639
O O6 0.314846 0.707355 0.021232
O O7 0.132900 0.601627 0.578940
O O8 0.168202 0.461158 0.728147
O O9 0.439335 0.265487 0.286966
O O10 0.042864 0.131236 0.287894
O O11 0.114174 0.955301 0.222552
O O12 0.039909 0.023778 0.563036
O O13 0.870900 0.753428 0.156377
#
# Coordination Sequence:
#
# PCOD9277148 Si02
#       8
#     4   8   8   4   8   8   4   8
#     4  10  20  40  68  96 126 166 214 268 346 400
#     4  11  26  45  67  94 136 181 234 279 333 408
#     4  11  26  46  68  99 132 178 228 291 337 403
#     4  10  21  38  65  96 136 171 214 283 332 410
#     4  11  23  44  65  99 138 181 221 283 333 413
#     4  11  24  45  70 100 133 172 224 286 353 410
#     4  10  23  40  67  98 138 175 226 271 342 394
#     4  11  24  42  67 100 136 180 225 279 346 407
#
# _framework density 24.925115999999999
#
# number of rings (size 3 to 8) (size 9 to 14) (size 15 to 20)
#    0.000    1.231    1.538    4.154    6.462    0.615 
#    2.769    3.077    0.000    0.000    0.000    0.000 
#    0.000    0.000    0.000    0.000    0.000    0.000 
#
# Total GULP energy -144873.872200 kJ/mol
# GULP energy per Si atom -5572.072008 kJ/mol
# Density = 2.486839 g / cm^3
# Si number density = 24.925116 Si / 1000 Ang^3
#
#
#
# Elastic Constant Matrix: (Units=GPa)
#
#
# Indices 1 2 3 4 5 6 
#
# 1 63.5611 -15.3017 -4.1791 0.0000 18.2583 0.0000
# 2 -15.3017 47.6141 -3.6844 0.0000 4.1119 0.0000
# 3 -4.1791 -3.6844 82.1212 0.0000 11.8612 0.0000
# 4 0.0000 0.0000 0.0000 39.5045 0.0000 12.6880
# 5 18.2583 4.1119 11.8612 0.0000 29.7761 0.0000
# 6 0.0000 0.0000 0.0000 12.6880 0.0000 13.7342
#
#
#
# Elastic Compliance Matrix: (Units=1/GPa)
#
#
# Indices 1 2 3 4 5 6 
#
# 1 0.023121 0.009218 0.004055 0.000000 -0.017066 0.000000
# 2 0.009218 0.025097 0.003090 0.000000 -0.010349 0.000000
# 3 0.004055 0.003090 0.013733 0.000000 -0.008384 0.000000
# 4 0.000000 0.000000 0.000000 0.035993 0.000000 -0.033252
# 5 -0.017066 -0.010349 -0.008384 0.000000 0.048817 0.000000
# 6 0.000000 0.000000 0.000000 -0.033252 0.000000 0.103530
#
#
# Mechanical properties :
#
#
# Convention : Reuss Voigt Hill
#
# Bulk Modulus (GPa) = 10.56225 16.32955 13.44590
# Shear Modulus (GPa) = 20.07028 31.03373 25.55201
#
# Velocity S-wave (km/s) = 2.84072 3.53240 3.20527
# Velocity P-wave (km/s) = 3.87381 4.81692 4.37088
#
# Compressibility (1/GPa) = 0.09467678
#
# Stress axis : x y z
#
# Youngs Moduli (GPa) = 43.25101 39.84490 72.81716
#
# Poissons Ratio (x) = -0.36728 -0.29528
# Poissons Ratio (y) = -0.39868 -0.22499
# Poissons Ratio (z) = -0.17539 -0.12311
#
# Static dielectric constant tensor:
#      x y z
#    x 2.004280 0.000000 -0.061910 
#    y 0.000000 1.949170 0.000000 
#    z -0.061910 0.000000 2.066710 
# 
# From -- ./inp_files/65383.got.cif
#   From: 2010.05.17/outbox.cif.g08.bks.cpg/sg15_33_cif.got.tgz:65383.got - 2010.06.03 18:47:42.
