data_PCOD9277797
_publ_section_title
;
Structure prediction by ZEFSAII (Michael W. Deem and Ramdas Pophale) SiO2 
 PCOD9277797
Probable space group: C 2/C
;
_chemical_formula_sum "Si O2"
_cell_formula_units_Z 40
_cell_length_a 8.932561
_cell_length_b 15.627376
_cell_length_c 20.467840
_cell_angle_alpha 90.000000
_cell_angle_beta 41.528076
_cell_angle_gamma 90.000000
_cell_volume 1894.257691
_symmetry_space_group_name_H-M "C 2/C"
_symmetry_group_IT_number 15
_symmetry_cell_setting 'monoclinic'
loop_
_space_group_symop_operation_xyz
x,y,z
-x,y,1/2-z
-x,-y,-z
x,-y,1/2+z
1/2+x,1/2+y,z
1/2-x,1/2+y,1/2-z
1/2-x,1/2-y,-z
1/2+x,1/2-y,1/2+z
loop_
_atom_site_type_symbol
_atom_site_label
_atom_site_fract_x
_atom_site_fract_y
_atom_site_fract_z
Si Si1 0.500000 0.567408 0.250000
Si Si2 0.000000 0.648532 0.750000
Si Si3 0.144160 0.090631 0.640130
Si Si4 0.566271 0.419765 0.433823
Si Si5 0.213924 0.230884 0.412720
Si Si6 0.238978 0.292042 0.755493
O O1 0.317745 0.504165 0.344153
O O2 0.638837 0.626437 0.253462
O O3 0.834670 0.590966 0.846418
O O4 0.848969 0.709851 0.754284
O O5 0.320182 0.166578 0.568630
O O6 0.000000 0.127569 0.750000
O O7 0.012566 0.073108 0.615775
O O8 0.500000 0.500000 0.500000
O O9 0.457400 0.331809 0.495694
O O10 0.208408 0.209632 0.338118
O O11 0.469314 0.211176 0.353339
#
# Coordination Sequence:
#
# PCOD9277797 Si02
#       6
#     4   4   8   8   8   8
#     4   9  20  36  67  96 138 172 227 266 340 389
#     4  11  24  44  67  98 142 174 231 286 348 391
#     4  10  20  42  66  94 138 181 217 269 348 406
#     4  12  26  42  70 104 135 179 237 288 333 409
#     4  11  21  42  70  98 137 183 230 265 352 406
#     4  10  20  41  70 102 134 184 217 290 333 413
#
# _framework density 21.116451999999999
#
# number of rings (size 3 to 8) (size 9 to 14) (size 15 to 20)
#    0.600    0.800    4.000    1.800    0.000    4.000 
#    0.000    1.000    0.000    0.000    0.000    0.000 
#    0.000    0.000    0.000    0.000    0.000    0.000 
#
# Total GULP energy -111605.129599 kJ/mol
# GULP energy per Si atom -5580.256480 kJ/mol
# Density = 2.106839 g / cm^3
# Si number density = 21.116452 Si / 1000 Ang^3
#
#
#
# Elastic Constant Matrix: (Units=GPa)
#
#
# Indices 1 2 3 4 5 6 
#
# 1 103.9580 53.1815 34.6837 -0.0006 11.0372 -0.0002
# 2 53.1815 161.9735 49.9016 -0.0005 2.4570 -0.0006
# 3 34.6837 49.9016 100.9266 -0.0016 -0.6388 -0.0002
# 4 -0.0006 -0.0005 -0.0016 26.7500 0.0008 8.5128
# 5 11.0372 2.4570 -0.6388 0.0008 28.0381 0.0004
# 6 -0.0002 -0.0006 -0.0002 8.5128 0.0004 14.5586
#
#
#
# Elastic Compliance Matrix: (Units=1/GPa)
#
#
# Indices 1 2 3 4 5 6 
#
# 1 0.012719 -0.003241 -0.002799 0.000000 -0.004787 0.000000
# 2 -0.003241 0.008124 -0.002900 0.000000 0.000498 0.000000
# 3 -0.002799 -0.002900 0.012314 0.000001 0.001636 0.000000
# 4 0.000000 0.000000 0.000001 0.045930 -0.000001 -0.026856
# 5 -0.004787 0.000498 0.001636 -0.000001 0.037544 0.000000
# 6 0.000000 0.000000 0.000000 -0.026856 0.000000 0.084391
#
#
# Mechanical properties :
#
#
# Convention : Reuss Voigt Hill
#
# Bulk Modulus (GPa) = 65.45440 71.37686 68.41563
# Shear Modulus (GPa) = 22.32199 29.14210 25.73205
#
# Velocity S-wave (km/s) = 3.25482 3.71895 3.49460
# Velocity P-wave (km/s) = 6.72230 7.23296 6.98230
#
# Compressibility (1/GPa) = 0.01527781
#
# Stress axis : x y z
#
# Youngs Moduli (GPa) = 78.62013 123.09372 81.20820
#
# Poissons Ratio (x) = 0.39899 0.22728
# Poissons Ratio (y) = 0.25484 0.23548
# Poissons Ratio (z) = 0.22003 0.35693
#
# Static dielectric constant tensor:
#      x y z
#    x 1.743240 0.000000 -0.003580 
#    y 0.000000 1.776190 0.000000 
#    z -0.003580 0.000000 1.792770 
# 
# From -- ./inp_files/264118.got.cif
#   From: 2010.05.17/outbox.cif.g08.bks.cpg/sg15_133_cif.got.tgz:264118.got - 2010.06.03 18:47:42.
