data_PCOD9277754
_publ_section_title
;
Structure prediction by ZEFSAII (Michael W. Deem and Ramdas Pophale) SiO2 
 PCOD9277754
Probable space group: C 2/C
;
_chemical_formula_sum "Si O2"
_cell_formula_units_Z 56
_cell_length_a 11.559273
_cell_length_b 15.216447
_cell_length_c 28.591357
_cell_angle_alpha 90.000000
_cell_angle_beta 28.365437
_cell_angle_gamma 90.000000
_cell_volume 2389.228143
_symmetry_space_group_name_H-M "C 2/C"
_symmetry_group_IT_number 15
_symmetry_cell_setting 'monoclinic'
loop_
_space_group_symop_operation_xyz
x,y,z
-x,y,1/2-z
-x,-y,-z
x,-y,1/2+z
1/2+x,1/2+y,z
1/2-x,1/2+y,1/2-z
1/2-x,1/2-y,-z
1/2+x,1/2-y,1/2+z
loop_
_atom_site_type_symbol
_atom_site_label
_atom_site_fract_x
_atom_site_fract_y
_atom_site_fract_z
Si Si1 0.000000 0.431758 0.250000
Si Si2 0.503967 0.006644 0.943479
Si Si3 0.500000 0.230695 0.250000
Si Si4 0.236415 0.420594 0.725833
Si Si5 0.256832 0.442142 0.540384
Si Si6 0.485802 0.197090 0.541861
Si Si7 0.831966 0.867050 0.052590
Si Si8 0.637457 0.378966 0.660902
O O1 0.203821 0.498007 0.200488
O O2 0.108614 0.375969 0.168282
O O3 0.486823 0.108908 0.936548
O O4 0.293114 0.948489 0.996331
O O5 0.759365 0.959623 0.844414
O O6 0.500000 0.000000 0.000000
O O7 0.329543 0.167434 0.279272
O O8 0.696660 0.283632 0.148838
O O9 0.473864 0.406514 0.673990
O O10 0.005954 0.433909 0.842012
O O11 0.430641 0.368333 0.498383
O O12 0.345929 0.539504 0.522034
O O13 0.630979 0.288470 0.496960
O O14 0.625726 0.170462 0.443957
O O15 0.500000 0.324146 0.750000
#
# Coordination Sequence:
#
# PCOD9277754 Si02
#       8
#     4   8   4   8   8   8   8   8
#     4   9  22  38  70 101 134 172 230 283 338 420
#     4  10  24  42  65  95 128 184 228 274 338 417
#     4  11  24  44  66 103 138 170 236 291 362 394
#     4  10  21  42  69  99 129 186 225 284 341 418
#     4  10  20  41  68  96 134 179 227 274 342 419
#     4  11  26  43  68 102 141 178 225 298 349 409
#     4  10  22  40  67 101 132 174 222 287 344 401
#     4  11  24  44  69  93 137 184 237 275 347 423
#
# _framework density 23.438531999999999
#
# number of rings (size 3 to 8) (size 9 to 14) (size 15 to 20)
#    0.000    1.714    2.857    0.000    8.000    2.286 
#    0.000    7.857    0.000    0.000    0.000    0.000 
#    0.000    0.000    0.000    0.000    0.000    0.000 
#
# Total GULP energy -155895.275416 kJ/mol
# GULP energy per Si atom -5567.688408 kJ/mol
# Density = 2.338518 g / cm^3
# Si number density = 23.438532 Si / 1000 Ang^3
#
#
#
# Elastic Constant Matrix: (Units=GPa)
#
#
# Indices 1 2 3 4 5 6 
#
# 1 132.4942 28.5307 18.3242 0.0011 -14.9573 0.0016
# 2 28.5307 91.7744 34.0357 -0.0035 -18.1041 -0.0015
# 3 18.3242 34.0357 141.0328 -0.0096 -0.0963 0.0155
# 4 0.0011 -0.0035 -0.0096 21.5486 0.0038 -2.0017
# 5 -14.9573 -18.1041 -0.0963 0.0038 26.2143 -0.0047
# 6 0.0016 -0.0015 0.0155 -2.0017 -0.0047 20.1236
#
#
#
# Elastic Compliance Matrix: (Units=1/GPa)
#
#
# Indices 1 2 3 4 5 6 
#
# 1 0.008409 -0.001633 -0.000696 -0.000002 0.003668 0.000000
# 2 -0.001633 0.014384 -0.003253 0.000000 0.008990 0.000006
# 3 -0.000696 -0.003253 0.007964 0.000003 -0.002615 -0.000007
# 4 -0.000002 0.000000 0.000003 0.046839 -0.000007 0.004659
# 5 0.003668 0.008990 -0.002615 -0.000007 0.046439 0.000012
# 6 0.000000 0.000006 -0.000007 0.004659 0.000012 0.050156
#
#
# Mechanical properties :
#
#
# Convention : Reuss Voigt Hill
#
# Bulk Modulus (GPa) = 51.03581 58.56473 54.80027
# Shear Modulus (GPa) = 26.05696 32.53802 29.29749
#
# Velocity S-wave (km/s) = 3.33786 3.72993 3.53933
# Velocity P-wave (km/s) = 6.05612 6.60232 6.33511
#
# Compressibility (1/GPa) = 0.01959409
#
# Stress axis : x y z
#
# Youngs Moduli (GPa) = 118.91422 69.52315 125.56085
#
# Poissons Ratio (x) = 0.11350 0.08741
# Poissons Ratio (y) = 0.19413 0.40845
# Poissons Ratio (z) = 0.08278 0.22616
#
# Static dielectric constant tensor:
#      x y z
#    x 1.925070 0.000020 -0.051640 
#    y 0.000020 2.089470 -0.000270 
#    z -0.051640 -0.000270 3.010930 
# 
# From -- ./inp_files/311340.got.cif
#   From: 2010.05.17/outbox.cif.g08.bks.cpg/sg15_156_cif.got.tgz:311340.got - 2010.06.03 18:47:42.
