data_PCOD9277138
_publ_section_title
;
Structure prediction by ZEFSAII (Michael W. Deem and Ramdas Pophale) SiO2 
 PCOD9277138
Probable space group: C 2/C
;
_chemical_formula_sum "Si O2"
_cell_formula_units_Z 44
_cell_length_a 23.081988
_cell_length_b 5.624139
_cell_length_c 14.813788
_cell_angle_alpha 90.000000
_cell_angle_beta 102.256648
_cell_angle_gamma 90.000000
_cell_volume 1879.237717
_symmetry_space_group_name_H-M "C 2/C"
_symmetry_group_IT_number 15
_symmetry_cell_setting 'monoclinic'
loop_
_space_group_symop_operation_xyz
x,y,z
-x,y,1/2-z
-x,-y,-z
x,-y,1/2+z
1/2+x,1/2+y,z
1/2-x,1/2+y,1/2-z
1/2-x,1/2-y,-z
1/2+x,1/2-y,1/2+z
loop_
_atom_site_type_symbol
_atom_site_label
_atom_site_fract_x
_atom_site_fract_y
_atom_site_fract_z
Si Si1 0.444818 0.858394 0.389575
Si Si2 0.067246 0.262557 0.454976
Si Si3 0.155277 0.872381 0.554027
Si Si4 0.117785 0.358407 0.857647
Si Si5 0.264576 0.870556 0.706266
Si Si6 0.500000 0.821198 0.750000
O O1 0.499814 0.675395 0.418125
O O2 0.381138 0.735219 0.372354
O O3 0.465997 0.023864 0.315024
O O4 0.440975 0.020861 0.477472
O O5 0.093032 0.379279 0.372603
O O6 0.116165 0.098778 0.514980
O O7 0.149959 0.723178 0.460160
O O8 0.222126 0.909240 0.605670
O O9 0.166485 0.355791 0.796773
O O10 0.057924 0.206040 0.816791
O O11 0.247410 0.610166 0.739951
#
# Coordination Sequence:
#
# PCOD9277138 Si02
#       6
#     8   8   8   8   8   4
#     4   9  19  38  61 100 136 181 224 294 348 423
#     4   9  20  38  66  95 135 177 236 287 351 420
#     4  11  23  42  72  96 137 190 241 292 353 433
#     4  10  24  44  68 103 136 190 235 291 359 425
#     4  12  30  49  73 105 146 188 239 302 358 424
#     4  10  20  40  68  94 150 174 236 298 358 422
#
# _framework density 23.413747999999998
#
# number of rings (size 3 to 8) (size 9 to 14) (size 15 to 20)
#    0.000    1.818    0.000    3.273   10.182    0.727 
#    0.000    1.818    0.000    0.000    0.000    0.000 
#    0.000    0.000    0.000    0.000    0.000    0.000 
#
# Total GULP energy -122667.001237 kJ/mol
# GULP energy per Si atom -5575.772784 kJ/mol
# Density = 2.336046 g / cm^3
# Si number density = 23.413748 Si / 1000 Ang^3
#
#
#
# Elastic Constant Matrix: (Units=GPa)
#
#
# Indices 1 2 3 4 5 6 
#
# 1 158.8746 31.0647 28.6143 0.0000 -6.5009 0.0000
# 2 31.0647 49.7643 -7.8768 0.0000 -18.4581 0.0000
# 3 28.6143 -7.8768 55.9291 0.0000 5.2968 0.0000
# 4 0.0000 0.0000 0.0000 22.0190 0.0000 9.6138
# 5 -6.5009 -18.4581 5.2968 0.0000 53.0684 0.0000
# 6 0.0000 0.0000 0.0000 9.6138 0.0000 22.3509
#
#
#
# Elastic Compliance Matrix: (Units=1/GPa)
#
#
# Indices 1 2 3 4 5 6 
#
# 1 0.008428 -0.006317 -0.005140 0.000000 -0.000651 0.000000
# 2 -0.006317 0.028160 0.006404 0.000000 0.008382 0.000000
# 3 -0.005140 0.006404 0.021463 0.000000 -0.000545 0.000000
# 4 0.000000 0.000000 0.000000 0.055916 0.000000 -0.024051
# 5 -0.000651 0.008382 -0.000545 0.000000 0.021733 0.000000
# 6 0.000000 0.000000 0.000000 -0.024051 0.000000 0.055086
#
#
# Mechanical properties :
#
#
# Convention : Reuss Voigt Hill
#
# Bulk Modulus (GPa) = 20.85675 40.90802 30.88239
# Shear Modulus (GPa) = 23.05472 33.67204 28.36338
#
# Velocity S-wave (km/s) = 3.14134 3.79638 3.48429
# Velocity P-wave (km/s) = 4.69943 6.06023 5.42269
#
# Compressibility (1/GPa) = 0.04794610
#
# Stress axis : x y z
#
# Youngs Moduli (GPa) = 118.64593 35.51111 46.59190
#
# Poissons Ratio (x) = 0.22431 0.23948
# Poissons Ratio (y) = 0.74943 -0.29837
# Poissons Ratio (z) = 0.60984 -0.22741
#
# Static dielectric constant tensor:
#      x y z
#    x 1.886410 0.000000 0.026970 
#    y 0.000000 1.977740 0.000000 
#    z 0.026970 0.000000 1.945810 
# 
# From -- ./inp_files/170883.got.cif
#   From: 2010.05.17/outbox.cif.g08.bks.cpg/sg15_86_cif.got.tgz:170883.got - 2010.06.03 18:47:42.
