data_PCOD9277335
_publ_section_title
;
Structure prediction by ZEFSAII (Michael W. Deem and Ramdas Pophale) SiO2 
 PCOD9277335
Probable space group: C 2/C
;
_chemical_formula_sum "Si O2"
_cell_formula_units_Z 60
_cell_length_a 8.268596
_cell_length_b 14.193903
_cell_length_c 29.085061
_cell_angle_alpha 90.000000
_cell_angle_beta 125.401560
_cell_angle_gamma 90.000000
_cell_volume 2782.408454
_symmetry_space_group_name_H-M "C 2/C"
_symmetry_group_IT_number 15
_symmetry_cell_setting 'monoclinic'
loop_
_space_group_symop_operation_xyz
x,y,z
-x,y,1/2-z
-x,-y,-z
x,-y,1/2+z
1/2+x,1/2+y,z
1/2-x,1/2+y,1/2-z
1/2-x,1/2-y,-z
1/2+x,1/2-y,1/2+z
loop_
_atom_site_type_symbol
_atom_site_label
_atom_site_fract_x
_atom_site_fract_y
_atom_site_fract_z
Si Si1 0.175359 0.383293 0.455341
Si Si2 0.887667 0.726277 0.065554
Si Si3 0.127127 0.453857 0.606912
Si Si4 0.217729 0.991448 0.268930
Si Si5 0.700143 0.627787 0.630477
Si Si6 0.000000 0.635861 0.750000
Si Si7 0.068589 0.060567 0.154960
Si Si8 0.536442 0.312935 0.569823
O O1 0.234473 0.371637 0.411611
O O2 0.374035 0.379788 0.518570
O O3 0.045617 0.292554 0.447938
O O4 0.042359 0.475583 0.438180
O O5 0.745070 0.679420 0.079154
O O6 0.059533 0.651359 0.083387
O O7 0.989770 0.821277 0.099221
O O8 0.750000 0.750000 0.000000
O O9 0.164234 0.470581 0.667591
O O10 0.341573 0.472984 0.620965
O O11 0.357377 0.921318 0.262521
O O12 0.000000 0.952831 0.250000
O O13 0.156608 0.068206 0.220492
O O14 0.685181 0.520656 0.646265
O O15 0.848277 0.682763 0.689381
O O16 0.066620 0.156490 0.126843
#
# Coordination Sequence:
#
# PCOD9277335 Si02
#       8
#     8   8   8   8   8   4   8   8
#     4  11  23  41  68  92 129 170 214 267 325 386
#     4  12  26  42  63  94 133 171 221 270 315 393
#     4  11  23  43  67  94 129 173 212 270 331 385
#     4   9  20  40  66 101 129 166 220 272 326 402
#     4  11  22  43  66  98 127 171 215 266 327 384
#     4  10  20  40  74  92 136 166 222 270 332 392
#     4  10  23  41  69  95 128 167 214 268 331 390
#     4  11  25  42  63  97 130 169 219 268 323 394
#
# _framework density 21.564053000000001
#
# number of rings (size 3 to 8) (size 9 to 14) (size 15 to 20)
#    0.000    1.333    2.667    2.400    5.600    1.600 
#    6.000    0.000    0.000    0.000    0.000    0.000 
#    0.000    0.000    0.000    0.000    0.000    0.000 
#
# Total GULP energy -167585.819940 kJ/mol
# GULP energy per Si atom -5586.193998 kJ/mol
# Density = 2.151497 g / cm^3
# Si number density = 21.564053 Si / 1000 Ang^3
#
#
#
# Elastic Constant Matrix: (Units=GPa)
#
#
# Indices 1 2 3 4 5 6 
#
# 1 67.8720 -9.1747 24.0338 0.0000 -0.1161 0.0000
# 2 -9.1747 32.3873 -1.8913 0.0000 1.1806 0.0000
# 3 24.0338 -1.8913 70.8461 0.0000 0.0569 0.0000
# 4 0.0000 0.0000 0.0000 13.6541 0.0000 1.2469
# 5 -0.1161 1.1806 0.0569 0.0000 29.5879 0.0000
# 6 0.0000 0.0000 0.0000 1.2469 0.0000 28.6220
#
#
#
# Elastic Compliance Matrix: (Units=1/GPa)
#
#
# Indices 1 2 3 4 5 6 
#
# 1 0.017402 0.004596 -0.005781 0.000000 -0.000104 0.000000
# 2 0.004596 0.032184 -0.000699 0.000000 -0.001265 0.000000
# 3 -0.005781 -0.000699 0.016057 0.000000 -0.000026 0.000000
# 4 0.000000 0.000000 0.000000 0.073531 0.000000 -0.003203
# 5 -0.000104 -0.001265 -0.000026 0.000000 0.033848 0.000000
# 6 0.000000 0.000000 0.000000 -0.003203 0.000000 0.035078
#
#
# Mechanical properties :
#
#
# Convention : Reuss Voigt Hill
#
# Bulk Modulus (GPa) = 16.16156 21.89344 19.02750
# Shear Modulus (GPa) = 21.50620 24.91529 23.21074
#
# Velocity S-wave (km/s) = 3.16146 3.40282 3.28436
# Velocity P-wave (km/s) = 4.56480 5.06100 4.81929
#
# Compressibility (1/GPa) = 0.06187523
#
# Stress axis : x y z
#
# Youngs Moduli (GPa) = 57.46605 31.07182 62.27639
#
# Poissons Ratio (x) = -0.14280 0.35999
# Poissons Ratio (y) = -0.26410 0.04352
# Poissons Ratio (z) = 0.33218 0.02172
#
# Static dielectric constant tensor:
#      x y z
#    x 1.794930 0.000000 0.007800 
#    y 0.000000 1.737890 0.000000 
#    z 0.007800 0.000000 1.795300 
# 
# From -- ./inp_files/308293.got.cif
#   From: 2010.05.17/outbox.cif.g08.bks.cpg/sg15_155_cif.got.tgz:308293.got - 2010.06.03 18:47:42.
