data_PCOD9277300
_publ_section_title
;
Structure prediction by ZEFSAII (Michael W. Deem and Ramdas Pophale) SiO2 
 PCOD9277300
Probable space group: C 2/C
;
_chemical_formula_sum "Si O2"
_cell_formula_units_Z 56
_cell_length_a 17.456572
_cell_length_b 5.807574
_cell_length_c 27.513864
_cell_angle_alpha 90.000000
_cell_angle_beta 102.185820
_cell_angle_gamma 90.000000
_cell_volume 2726.515207
_symmetry_space_group_name_H-M "C 2/C"
_symmetry_group_IT_number 15
_symmetry_cell_setting 'monoclinic'
loop_
_space_group_symop_operation_xyz
x,y,z
-x,y,1/2-z
-x,-y,-z
x,-y,1/2+z
1/2+x,1/2+y,z
1/2-x,1/2+y,1/2-z
1/2-x,1/2-y,-z
1/2+x,1/2-y,1/2+z
loop_
_atom_site_type_symbol
_atom_site_label
_atom_site_fract_x
_atom_site_fract_y
_atom_site_fract_z
Si Si1 0.461300 0.242960 0.603569
Si Si2 0.146404 0.793055 0.746143
Si Si3 0.954335 0.750990 0.496025
Si Si4 0.613020 0.087517 0.109827
Si Si5 0.744908 0.626991 0.827078
Si Si6 0.464422 0.621710 0.824290
Si Si7 0.896895 0.447878 0.681253
O O1 0.419734 0.252083 0.545881
O O2 0.488613 0.488610 0.626992
O O3 0.541445 0.094876 0.606341
O O4 0.412216 0.126761 0.639884
O O5 0.200830 0.739835 0.707406
O O6 0.074278 0.943765 0.717520
O O7 0.114590 0.568284 0.768527
O O8 0.196463 0.929030 0.792934
O O9 0.900283 0.730367 0.441187
O O10 0.000000 0.500000 0.500000
O O11 0.000000 0.000000 0.500000
O O12 0.604039 0.243345 0.156791
O O13 0.696381 0.966261 0.124449
O O14 0.681278 0.803382 0.838449
O O15 0.527333 0.786885 0.808736
#
# Coordination Sequence:
#
# PCOD9277300 Si02
#       7
#     8   8   8   8   8   8   8
#     4  10  21  42  67  99 132 171 224 282 345 404
#     4  12  25  43  65  92 132 180 228 268 341 409
#     4  10  20  40  72 106 137 177 229 293 347 414
#     4  10  22  40  69 102 130 173 227 279 342 411
#     4  12  24  43  63  92 135 180 220 278 341 414
#     4  11  23  43  67  94 130 172 226 283 331 404
#     4  11  27  43  62  95 135 175 224 281 340 410
#
# _framework density 20.539038000000001
#
# number of rings (size 3 to 8) (size 9 to 14) (size 15 to 20)
#    0.000    1.143    4.286    1.714    0.000    3.429 
#    0.000    0.714    0.000    3.429    0.000    0.000 
#    0.000    0.000    0.000    0.000    0.000    0.000 
#
# Total GULP energy -156503.193214 kJ/mol
# GULP energy per Si atom -5589.399758 kJ/mol
# Density = 2.049229 g / cm^3
# Si number density = 20.539038 Si / 1000 Ang^3
#
#
#
# Elastic Constant Matrix: (Units=GPa)
#
#
# Indices 1 2 3 4 5 6 
#
# 1 79.1375 20.5238 30.4232 0.0000 2.9788 0.0000
# 2 20.5238 59.5484 1.1182 0.0000 2.1419 0.0000
# 3 30.4232 1.1182 78.8509 0.0000 4.2685 0.0000
# 4 0.0000 0.0000 0.0000 28.7105 0.0000 -3.2830
# 5 2.9788 2.1419 4.2685 0.0000 8.0643 0.0000
# 6 0.0000 0.0000 0.0000 -3.2830 0.0000 27.0531
#
#
#
# Elastic Compliance Matrix: (Units=1/GPa)
#
#
# Indices 1 2 3 4 5 6 
#
# 1 0.016511 -0.005526 -0.006219 0.000000 -0.001339 0.000000
# 2 -0.005526 0.018804 0.002085 0.000000 -0.004057 0.000000
# 3 -0.006219 0.002085 0.015399 0.000000 -0.006407 0.000000
# 4 0.000000 0.000000 0.000000 0.035321 0.000000 0.004286
# 5 -0.001339 -0.004057 -0.006407 0.000000 0.128967 0.000000
# 6 0.000000 0.000000 0.000000 0.004286 0.000000 0.037485
#
#
# Mechanical properties :
#
#
# Convention : Reuss Voigt Hill
#
# Bulk Modulus (GPa) = 31.85353 35.74080 33.79717
# Shear Modulus (GPa) = 17.71351 23.79703 20.75527
#
# Velocity S-wave (km/s) = 2.93990 3.40755 3.18233
# Velocity P-wave (km/s) = 5.20255 5.73769 5.47666
#
# Compressibility (1/GPa) = 0.03139369
#
# Stress axis : x y z
#
# Youngs Moduli (GPa) = 60.56709 53.17950 64.93883
#
# Poissons Ratio (x) = 0.29385 0.40388
# Poissons Ratio (y) = 0.33467 -0.13539
# Poissons Ratio (z) = 0.37669 -0.11087
#
# Static dielectric constant tensor:
#      x y z
#    x 1.700340 0.000000 0.003530 
#    y 0.000000 1.801620 0.000000 
#    z 0.003530 0.000000 1.737850 
# 
# From -- ./inp_files/297775.got.cif
#   From: 2010.05.17/outbox.cif.g08.bks.cpg/sg15_149_cif.got.tgz:297775.got - 2010.06.03 18:47:42.
