data_PCOD9277857
_publ_section_title
;
Structure prediction by ZEFSAII (Michael W. Deem and Ramdas Pophale) SiO2 
 PCOD9277857
Probable space group: C 2/C
;
_chemical_formula_sum "Si O2"
_cell_formula_units_Z 52
_cell_length_a 5.507214
_cell_length_b 18.612624
_cell_length_c 21.742300
_cell_angle_alpha 90.000000
_cell_angle_beta 97.821252
_cell_angle_gamma 90.000000
_cell_volume 2207.933955
_symmetry_space_group_name_H-M "C 2/C"
_symmetry_group_IT_number 15
_symmetry_cell_setting 'monoclinic'
loop_
_space_group_symop_operation_xyz
x,y,z
-x,y,1/2-z
-x,-y,-z
x,-y,1/2+z
1/2+x,1/2+y,z
1/2-x,1/2+y,1/2-z
1/2-x,1/2-y,-z
1/2+x,1/2-y,1/2+z
loop_
_atom_site_type_symbol
_atom_site_label
_atom_site_fract_x
_atom_site_fract_y
_atom_site_fract_z
Si Si1 0.993015 0.386655 0.383774
Si Si2 0.969729 0.095556 0.139147
Si Si3 0.005622 0.232129 0.953581
Si Si4 0.957960 0.936950 0.320613
Si Si5 0.500000 0.310837 0.750000
Si Si6 0.765181 0.378368 0.988933
Si Si7 0.218460 0.760589 0.645173
O O1 0.210364 0.406162 0.343660
O O2 0.051385 0.411545 0.455443
O O3 0.723489 0.414227 0.356885
O O4 0.975316 0.299280 0.384189
O O5 0.864485 0.139184 0.194669
O O6 0.159677 0.157435 0.123002
O O7 0.072723 0.022470 0.169241
O O8 0.809748 0.078358 0.073690
O O9 0.042337 0.236321 0.881721
O O10 0.943364 0.151681 0.972270
O O11 0.250000 0.250000 0.000000
O O12 0.844373 0.301258 0.964204
O O13 0.000000 0.921423 0.250000
O O14 0.689949 0.264429 0.717187
#
# Coordination Sequence:
#
# PCOD9277857 Si02
#       7
#     8   8   8   8   4   8   8
#     4  12  27  45  74 109 147 186 239 303 368 434
#     4  10  22  45  73  96 142 187 243 300 348 433
#     4  11  18  38  68 103 147 185 225 302 370 422
#     4  12  28  50  71 101 147 198 238 296 373 436
#     4   8  20  42  68 106 132 182 254 296 342 430
#     4  11  23  39  67 108 142 185 246 295 369 426
#     4  10  20  41  74 101 138 183 239 297 352 421
#
# _framework density 23.551428999999999
#
# number of rings (size 3 to 8) (size 9 to 14) (size 15 to 20)
#    0.923    0.308    3.846    2.308    2.154    2.462 
#    0.000    0.769    0.000    0.000    0.000    0.000 
#    0.000    0.000    0.000    0.000    0.000    0.000 
#
# Total GULP energy -144831.201449 kJ/mol
# GULP energy per Si atom -5570.430825 kJ/mol
# Density = 2.349782 g / cm^3
# Si number density = 23.551429 Si / 1000 Ang^3
#
#
#
# Elastic Constant Matrix: (Units=GPa)
#
#
# Indices 1 2 3 4 5 6 
#
# 1 69.0577 14.8404 30.0697 0.0000 -12.3753 0.0000
# 2 14.8404 51.5581 10.2682 0.0000 -13.8039 0.0000
# 3 30.0697 10.2682 159.9857 0.0000 -17.3171 0.0000
# 4 0.0000 0.0000 0.0000 31.3894 0.0000 6.2536
# 5 -12.3753 -13.8039 -17.3171 0.0000 36.6752 0.0000
# 6 0.0000 0.0000 0.0000 6.2536 0.0000 7.0804
#
#
#
# Elastic Compliance Matrix: (Units=1/GPa)
#
#
# Indices 1 2 3 4 5 6 
#
# 1 0.016940 -0.003509 -0.002617 0.000000 0.003160 0.000000
# 2 -0.003509 0.022339 0.000008 0.000000 0.007228 0.000000
# 3 -0.002617 0.000008 0.007005 0.000000 0.002427 0.000000
# 4 0.000000 0.000000 0.000000 0.038661 0.000000 -0.034146
# 5 0.003160 0.007228 0.002427 0.000000 0.032199 0.000000
# 6 0.000000 0.000000 0.000000 -0.034146 0.000000 0.171394
#
#
# Mechanical properties :
#
#
# Convention : Reuss Voigt Hill
#
# Bulk Modulus (GPa) = 29.36947 43.43979 36.40463
# Shear Modulus (GPa) = 16.01934 30.05721 23.03827
#
# Velocity S-wave (km/s) = 2.61087 3.57632 3.13103
# Velocity P-wave (km/s) = 4.64610 5.96139 5.34436
#
# Compressibility (1/GPa) = 0.03404897
#
# Stress axis : x y z
#
# Youngs Moduli (GPa) = 59.03054 44.76450 142.76304
#
# Poissons Ratio (x) = 0.15708 0.37357
# Poissons Ratio (y) = 0.20713 -0.00115
# Poissons Ratio (z) = 0.15447 -0.00036
#
# Static dielectric constant tensor:
#      x y z
#    x 2.049810 0.000000 -0.049690 
#    y 0.000000 1.889240 0.000000 
#    z -0.049690 0.000000 2.004190 
# 
# From -- ./inp_files/227544.got.cif
#   From: 2010.05.17/outbox.cif.g08.bks.cpg/sg15_114_cif.got.tgz:227544.got - 2010.06.03 18:47:42.
