data_PCOD9277933
_publ_section_title
;
Structure prediction by ZEFSAII (Michael W. Deem and Ramdas Pophale) SiO2 
 PCOD9277933
Probable space group: C 2/C
;
_chemical_formula_sum "Si O2"
_cell_formula_units_Z 36
_cell_length_a 9.417765
_cell_length_b 16.710014
_cell_length_c 11.023187
_cell_angle_alpha 90.000000
_cell_angle_beta 83.437827
_cell_angle_gamma 90.000000
_cell_volume 1723.364595
_symmetry_space_group_name_H-M "C 2/C"
_symmetry_group_IT_number 15
_symmetry_cell_setting 'monoclinic'
loop_
_space_group_symop_operation_xyz
x,y,z
-x,y,1/2-z
-x,-y,-z
x,-y,1/2+z
1/2+x,1/2+y,z
1/2-x,1/2+y,1/2-z
1/2-x,1/2-y,-z
1/2+x,1/2-y,1/2+z
loop_
_atom_site_type_symbol
_atom_site_label
_atom_site_fract_x
_atom_site_fract_y
_atom_site_fract_z
Si Si1 0.845479 0.012394 0.952267
Si Si2 0.147777 0.643353 0.452255
Si Si3 0.500000 0.399434 0.250000
Si Si4 0.234916 0.791133 0.311447
Si Si5 0.179737 0.666939 0.967446
O O1 0.883462 0.040927 0.813531
O O2 0.734499 0.939676 0.955975
O O3 0.774466 0.093513 0.007361
O O4 0.000000 0.000000 0.000000
O O5 0.203691 0.697072 0.333947
O O6 0.179872 0.685810 0.577429
O O7 0.976700 0.645848 0.467987
O O8 0.810761 0.321113 0.180837
O O9 0.083413 0.839170 0.330765
O O10 0.250000 0.750000 0.000000
#
# Coordination Sequence:
#
# PCOD9277933 Si02
#       5
#     8   8   4   8   8
#     4  11  23  41  65  96 130 170 216 270 324 386
#     4  11  22  42  67  99 128 171 222 267 327 388
#     4  10  20  42  62  94 134 172 212 272 328 390
#     4  10  22  40  67  93 133 170 216 267 326 388
#     4  11  25  43  67  96 135 173 219 269 329 389
#
# _framework density 20.88937
#
# number of rings (size 3 to 8) (size 9 to 14) (size 15 to 20)
#    0.000    1.333    2.222    4.000    3.111    1.778 
#    0.000    0.000    0.000    0.000    0.000    0.000 
#    0.000    0.000    0.000    0.000    0.000    0.000 
#
# Total GULP energy -100215.374687 kJ/mol
# GULP energy per Si atom -5567.520816 kJ/mol
# Density = 2.084183 g / cm^3
# Si number density = 20.889370 Si / 1000 Ang^3
#
#
#
# Elastic Constant Matrix: (Units=GPa)
#
#
# Indices 1 2 3 4 5 6 
#
# 1 141.7068 85.1910 -0.4321 0.0000 -17.5291 0.0000
# 2 85.1910 183.3843 20.4370 0.0000 -21.6267 0.0000
# 3 -0.4321 20.4370 19.7706 0.0000 -1.2526 0.0000
# 4 0.0000 0.0000 0.0000 23.7654 0.0000 7.1682
# 5 -17.5291 -21.6267 -1.2526 0.0000 25.9337 0.0000
# 6 0.0000 0.0000 0.0000 7.1682 0.0000 29.3045
#
#
#
# Elastic Compliance Matrix: (Units=1/GPa)
#
#
# Indices 1 2 3 4 5 6 
#
# 1 0.010582 -0.005197 0.005799 0.000000 0.003099 0.000000
# 2 -0.005197 0.009389 -0.009575 0.000000 0.003854 0.000000
# 3 0.005799 -0.009575 0.060532 0.000000 -0.001141 0.000000
# 4 0.000000 0.000000 0.000000 0.045430 0.000000 -0.011113
# 5 0.003099 0.003854 -0.001141 0.000000 0.043814 0.000000
# 6 0.000000 0.000000 0.000000 -0.011113 0.000000 0.036843
#
#
# Mechanical properties :
#
#
# Convention : Reuss Voigt Hill
#
# Bulk Modulus (GPa) = 15.98492 61.69483 38.83988
# Shear Modulus (GPa) = 20.37611 31.77844 26.07727
#
# Velocity S-wave (km/s) = 3.12657 3.90458 3.53703
# Velocity P-wave (km/s) = 4.55003 7.06582 5.94258
#
# Compressibility (1/GPa) = 0.06255895
#
# Stress axis : x y z
#
# Youngs Moduli (GPa) = 94.50011 106.51072 16.52026
#
# Poissons Ratio (x) = 0.55350 -0.09581
# Poissons Ratio (y) = 0.49109 0.15817
# Poissons Ratio (z) = -0.54805 1.01979
#
# Static dielectric constant tensor:
#      x y z
#    x 1.881510 0.000000 -0.060990 
#    y 0.000000 1.804550 0.000000 
#    z -0.060990 0.000000 1.844510 
# 
# From -- ./inp_files/133570.got.cif
#   From: 2010.05.17/outbox.cif.g08.bks.cpg/sg15_67_cif.got.tgz:133570.got - 2010.06.03 18:47:42.
