data_PCOD9277558
_publ_section_title
;
Structure prediction by ZEFSAII (Michael W. Deem and Ramdas Pophale) SiO2 
 PCOD9277558
Probable space group: C 2/C
;
_chemical_formula_sum "Si O2"
_cell_formula_units_Z 52
_cell_length_a 14.476265
_cell_length_b 11.841147
_cell_length_c 21.008844
_cell_angle_alpha 90.000000
_cell_angle_beta 42.868790
_cell_angle_gamma 90.000000
_cell_volume 2450.004050
_symmetry_space_group_name_H-M "C 2/C"
_symmetry_group_IT_number 15
_symmetry_cell_setting 'monoclinic'
loop_
_space_group_symop_operation_xyz
x,y,z
-x,y,1/2-z
-x,-y,-z
x,-y,1/2+z
1/2+x,1/2+y,z
1/2-x,1/2+y,1/2-z
1/2-x,1/2-y,-z
1/2+x,1/2-y,1/2+z
loop_
_atom_site_type_symbol
_atom_site_label
_atom_site_fract_x
_atom_site_fract_y
_atom_site_fract_z
Si Si1 0.842055 0.611277 0.133796
Si Si2 0.777887 0.745163 0.561303
Si Si3 0.889382 0.504292 0.480895
Si Si4 0.934402 0.146993 0.568006
Si Si5 0.000000 0.810037 0.250000
Si Si6 0.189411 0.869392 0.509175
Si Si7 0.561872 0.506519 0.318072
O O1 0.866212 0.742562 0.134865
O O2 0.693958 0.566692 0.223953
O O3 0.956659 0.537523 0.111543
O O4 0.877651 0.590722 0.041243
O O5 0.750000 0.750000 0.500000
O O6 0.824747 0.615162 0.546413
O O7 0.636221 0.760777 0.668970
O O8 0.904708 0.822992 0.516315
O O9 0.804224 0.463588 0.463866
O O10 0.865858 0.133365 0.534300
O O11 0.914787 0.039478 0.622600
O O12 0.977560 0.895780 0.202525
O O13 0.250000 0.750000 0.500000
O O14 0.064293 0.908145 0.616693
#
# Coordination Sequence:
#
# PCOD9277558 Si02
#       7
#     8   8   8   8   4   8   8
#     4  10  22  41  68  96 130 179 233 277 344 421
#     4  11  21  41  68  99 132 176 235 288 352 411
#     4  10  20  41  65  91 132 177 221 278 342 414
#     4  11  25  43  68 101 140 179 228 297 357 411
#     4  12  22  38  74  94 130 180 236 288 346 418
#     4  12  24  42  67  99 138 185 222 280 360 418
#     4  12  24  43  68 102 135 178 238 291 340 421
#
# _framework density 21.224456
#
# number of rings (size 3 to 8) (size 9 to 14) (size 15 to 20)
#    0.000    0.923    6.154    0.462    0.000    2.462 
#    0.000    2.308    0.000    0.000    0.000    0.000 
#    0.000    0.000    0.000    0.000    0.000    0.000 
#
# Total GULP energy -145412.778739 kJ/mol
# GULP energy per Si atom -5592.799182 kJ/mol
# Density = 2.117615 g / cm^3
# Si number density = 21.224456 Si / 1000 Ang^3
#
#
#
# Elastic Constant Matrix: (Units=GPa)
#
#
# Indices 1 2 3 4 5 6 
#
# 1 146.5771 15.1989 36.3111 0.0000 -8.6492 0.0000
# 2 15.1989 58.6246 15.6425 0.0000 -1.5842 0.0000
# 3 36.3111 15.6425 71.9368 0.0000 -15.9433 0.0000
# 4 0.0000 0.0000 0.0000 26.5164 0.0000 -7.2255
# 5 -8.6492 -1.5842 -15.9433 0.0000 27.7918 0.0000
# 6 0.0000 0.0000 0.0000 -7.2255 0.0000 39.9409
#
#
#
# Elastic Compliance Matrix: (Units=1/GPa)
#
#
# Indices 1 2 3 4 5 6 
#
# 1 0.007858 -0.001049 -0.003677 0.000000 0.000276 0.000000
# 2 -0.001049 0.018296 -0.003770 0.000000 -0.001446 0.000000
# 3 -0.003677 -0.003770 0.018646 0.000000 0.009338 0.000000
# 4 0.000000 0.000000 0.000000 0.039668 0.000000 0.007176
# 5 0.000276 -0.001446 0.009338 0.000000 0.041342 0.000000
# 6 0.000000 0.000000 0.000000 0.007176 0.000000 0.026335
#
#
# Mechanical properties :
#
#
# Convention : Reuss Voigt Hill
#
# Bulk Modulus (GPa) = 35.95849 45.71594 40.83722
# Shear Modulus (GPa) = 28.02570 32.84889 30.43729
#
# Velocity S-wave (km/s) = 3.63773 3.93834 3.79102
# Velocity P-wave (km/s) = 5.88412 6.50129 6.20039
#
# Compressibility (1/GPa) = 0.02780984
#
# Stress axis : x y z
#
# Youngs Moduli (GPa) = 127.25287 54.65582 53.62945
#
# Poissons Ratio (x) = 0.05732 0.19722
# Poissons Ratio (y) = 0.13345 0.20216
# Poissons Ratio (z) = 0.46796 0.20603
#
# Static dielectric constant tensor:
#      x y z
#    x 1.817260 0.000000 0.004960 
#    y 0.000000 1.820630 0.000000 
#    z 0.004960 0.000000 1.754350 
# 
# From -- ./inp_files/273800.got.cif
#   From: 2010.05.17/outbox.cif.g08.bks.cpg/sg15_137_cif.got.tgz:273800.got - 2010.06.03 18:47:42.
