data_PCOD9277701
_publ_section_title
;
Structure prediction by ZEFSAII (Michael W. Deem and Ramdas Pophale) SiO2 
 PCOD9277701
Probable space group: C 2/C
;
_chemical_formula_sum "Si O2"
_cell_formula_units_Z 56
_cell_length_a 22.550609
_cell_length_b 9.227511
_cell_length_c 14.040289
_cell_angle_alpha 90.000000
_cell_angle_beta 117.314978
_cell_angle_gamma 90.000000
_cell_volume 2595.822594
_symmetry_space_group_name_H-M "C 2/C"
_symmetry_group_IT_number 15
_symmetry_cell_setting 'monoclinic'
loop_
_space_group_symop_operation_xyz
x,y,z
-x,y,1/2-z
-x,-y,-z
x,-y,1/2+z
1/2+x,1/2+y,z
1/2-x,1/2+y,1/2-z
1/2-x,1/2-y,-z
1/2+x,1/2-y,1/2+z
loop_
_atom_site_type_symbol
_atom_site_label
_atom_site_fract_x
_atom_site_fract_y
_atom_site_fract_z
Si Si1 0.777769 0.411826 0.514752
Si Si2 0.029733 0.280157 0.589331
Si Si3 0.605894 0.953289 0.051547
Si Si4 0.554929 0.622491 0.430107
Si Si5 0.185051 0.154343 0.434216
Si Si6 0.000000 0.123415 0.750000
Si Si7 0.861267 0.409165 0.218659
Si Si8 0.500000 0.134078 0.750000
O O1 0.750000 0.250000 0.500000
O O2 0.839878 0.447132 0.491341
O O3 0.714404 0.501040 0.429449
O O4 0.805578 0.483180 0.634129
O O5 0.080906 0.392354 0.576088
O O6 0.030990 0.141781 0.519956
O O7 0.040561 0.223352 0.704868
O O8 0.958651 0.362831 0.529813
O O9 0.640143 0.889494 0.170431
O O10 0.634866 0.639025 0.484736
O O11 0.539227 0.484122 0.351492
O O12 0.521787 0.760909 0.352028
O O13 0.250000 0.250000 0.500000
O O14 0.145783 0.247499 0.328474
O O15 0.935836 0.453836 0.238801
#
# Coordination Sequence:
#
# PCOD9277701 Si02
#       8
#     8   8   8   8   8   4   8   4
#     4  11  26  44  65 100 143 182 231 286 342 417
#     4  11  24  43  65 108 139 170 234 288 362 420
#     4  11  25  41  70  98 134 186 227 298 342 416
#     4  10  20  41  67  97 138 178 222 285 360 424
#     4   9  20  41  67  90 128 187 232 276 331 419
#     4  11  26  39  68 106 143 177 216 300 372 420
#     4  10  21  40  70  96 131 184 234 282 346 417
#     4   9  16  35  66 100 125 177 234 276 344 416
#
# _framework density 21.573122000000001
#
# number of rings (size 3 to 8) (size 9 to 14) (size 15 to 20)
#    0.000    1.714    1.429    3.000    6.000    1.143 
#    0.000    2.857    0.000    0.000    0.000    0.000 
#    0.000    0.000    0.000    0.000    0.000    0.000 
#
# Total GULP energy -156149.703186 kJ/mol
# GULP energy per Si atom -5576.775114 kJ/mol
# Density = 2.152402 g / cm^3
# Si number density = 21.573122 Si / 1000 Ang^3
#
#
#
# Elastic Constant Matrix: (Units=GPa)
#
#
# Indices 1 2 3 4 5 6 
#
# 1 97.4915 36.6897 24.3124 0.0000 -6.0124 0.0000
# 2 36.6897 133.2924 16.5994 0.0000 -4.1492 0.0000
# 3 24.3124 16.5994 69.7539 0.0000 -21.5681 0.0000
# 4 0.0000 0.0000 0.0000 25.2088 0.0000 -2.0135
# 5 -6.0124 -4.1492 -21.5681 0.0000 35.2835 0.0000
# 6 0.0000 0.0000 0.0000 -2.0135 0.0000 24.0365
#
#
#
# Elastic Compliance Matrix: (Units=1/GPa)
#
#
# Indices 1 2 3 4 5 6 
#
# 1 0.012258 -0.002925 -0.003745 0.000000 -0.000544 0.000000
# 2 -0.002925 0.008431 -0.001029 0.000000 -0.000136 0.000000
# 3 -0.003745 -0.001029 0.019299 0.000000 0.011038 0.000000
# 4 0.000000 0.000000 0.000000 0.039936 0.000000 0.003345
# 5 -0.000544 -0.000136 0.011038 0.000000 0.034980 0.000000
# 6 0.000000 0.000000 0.000000 0.003345 0.000000 0.041884
#
#
# Mechanical properties :
#
#
# Convention : Reuss Voigt Hill
#
# Bulk Modulus (GPa) = 40.66434 50.63787 45.65110
# Shear Modulus (GPa) = 27.71877 31.76820 29.74348
#
# Velocity S-wave (km/s) = 3.58840 3.84159 3.71715
# Velocity P-wave (km/s) = 6.00494 6.57272 6.29524
#
# Compressibility (1/GPa) = 0.02459157
#
# Stress axis : x y z
#
# Youngs Moduli (GPa) = 81.57723 118.60585 51.81554
#
# Poissons Ratio (x) = 0.34690 0.19404
# Poissons Ratio (y) = 0.23859 0.05332
# Poissons Ratio (z) = 0.30549 0.12205
#
# Static dielectric constant tensor:
#      x y z
#    x 1.815940 0.000000 -0.000530 
#    y 0.000000 1.893820 0.000000 
#    z -0.000530 0.000000 1.850610 
# 
# From -- ./inp_files/172507.got.cif
#   From: 2010.05.17/outbox.cif.g08.bks.cpg/sg15_87_cif.got.tgz:172507.got - 2010.06.03 18:47:42.
