data_PCOD9277809
_publ_section_title
;
Structure prediction by ZEFSAII (Michael W. Deem and Ramdas Pophale) SiO2 
 PCOD9277809
Probable space group: C 2/C
;
_chemical_formula_sum "Si O2"
_cell_formula_units_Z 60
_cell_length_a 13.413323
_cell_length_b 17.031706
_cell_length_c 13.195732
_cell_angle_alpha 90.000000
_cell_angle_beta 64.572131
_cell_angle_gamma 90.000000
_cell_volume 2722.554804
_symmetry_space_group_name_H-M "C 2/C"
_symmetry_group_IT_number 15
_symmetry_cell_setting 'monoclinic'
loop_
_space_group_symop_operation_xyz
x,y,z
-x,y,1/2-z
-x,-y,-z
x,-y,1/2+z
1/2+x,1/2+y,z
1/2-x,1/2+y,1/2-z
1/2-x,1/2-y,-z
1/2+x,1/2-y,1/2+z
loop_
_atom_site_type_symbol
_atom_site_label
_atom_site_fract_x
_atom_site_fract_y
_atom_site_fract_z
Si Si1 0.099884 0.578843 0.638081
Si Si2 0.788771 0.597317 0.617029
Si Si3 0.863715 0.759174 0.889361
Si Si4 0.772743 0.741608 0.241745
Si Si5 0.300632 0.632433 0.065111
Si Si6 0.000000 0.500000 0.500000
Si Si7 0.676336 0.469350 0.343767
Si Si8 0.537172 0.322971 0.463308
O O1 0.087186 0.672059 0.635760
O O2 0.215709 0.562161 0.642480
O O3 0.000000 0.544987 0.750000
O O4 0.095744 0.536577 0.532346
O O5 0.766307 0.678125 0.687792
O O6 0.752757 0.610451 0.517783
O O7 0.914994 0.570982 0.570623
O O8 0.712352 0.534875 0.710770
O O9 0.822464 0.783745 0.796368
O O10 0.750000 0.750000 0.000000
O O11 0.938013 0.813348 0.927967
O O12 0.783297 0.676625 0.323546
O O13 0.884962 0.761486 0.131680
O O14 0.342941 0.555492 0.105440
O O15 0.408108 0.686242 0.999557
O O16 0.579240 0.407892 0.407478
#
# Coordination Sequence:
#
# PCOD9277809 Si02
#       8
#     8   8   8   8   8   4   8   8
#     4  12  22  41  68  96 137 176 225 293 358 398
#     4  11  24  45  67  96 144 178 228 295 352 418
#     4  10  20  41  70  96 130 177 234 291 339 413
#     4  10  23  45  66  99 143 186 236 289 349 423
#     4  12  26  43  70 102 142 190 235 284 363 434
#     4  12  24  38  72 100 126 186 224 286 366 404
#     4  11  23  45  66  97 140 181 232 290 353 423
#     4  10  24  43  71 102 138 183 233 295 354 415
#
# _framework density 22.038122999999999
#
# number of rings (size 3 to 8) (size 9 to 14) (size 15 to 20)
#    0.000    1.067    6.667    0.800    3.733    5.333 
#    0.000    1.333    0.000    0.000    0.000    0.000 
#    0.000    0.000    0.000    0.000    0.000    0.000 
#
# Total GULP energy -167210.698832 kJ/mol
# GULP energy per Si atom -5573.689961 kJ/mol
# Density = 2.198796 g / cm^3
# Si number density = 22.038123 Si / 1000 Ang^3
#
#
#
# Elastic Constant Matrix: (Units=GPa)
#
#
# Indices 1 2 3 4 5 6 
#
# 1 62.9484 6.3378 37.2538 0.0000 4.1535 0.0000
# 2 6.3378 29.2522 32.0775 0.0000 -0.1795 0.0000
# 3 37.2538 32.0775 114.4218 0.0000 20.0985 0.0000
# 4 0.0000 0.0000 0.0000 33.4887 0.0000 9.9587
# 5 4.1535 -0.1795 20.0985 0.0000 39.8865 0.0000
# 6 0.0000 0.0000 0.0000 9.9587 0.0000 22.7972
#
#
#
# Elastic Compliance Matrix: (Units=1/GPa)
#
#
# Indices 1 2 3 4 5 6 
#
# 1 0.020153 0.004680 -0.008238 0.000000 0.002073 0.000000
# 2 0.004680 0.052820 -0.017869 0.000000 0.008755 0.000000
# 3 -0.008238 -0.017869 0.017877 0.000000 -0.008231 0.000000
# 4 0.000000 0.000000 0.000000 0.034319 0.000000 -0.014992
# 5 0.002073 0.008755 -0.008231 0.000000 0.029042 0.000000
# 6 0.000000 0.000000 0.000000 -0.014992 0.000000 0.050414
#
#
# Mechanical properties :
#
#
# Convention : Reuss Voigt Hill
#
# Bulk Modulus (GPa) = 20.83510 39.77340 30.30425
# Shear Modulus (GPa) = 18.97684 27.96470 23.47077
#
# Velocity S-wave (km/s) = 2.93762 3.56606 3.26699
# Velocity P-wave (km/s) = 4.58048 5.91967 5.29260
#
# Compressibility (1/GPa) = 0.04799594
#
# Stress axis : x y z
#
# Youngs Moduli (GPa) = 49.61987 18.93206 55.93801
#
# Poissons Ratio (x) = -0.08859 0.46080
# Poissons Ratio (y) = -0.23220 0.99957
# Poissons Ratio (z) = 0.40875 0.33830
#
# Static dielectric constant tensor:
#      x y z
#    x 1.791740 0.000000 0.071810 
#    y 0.000000 1.826580 0.000000 
#    z 0.071810 0.000000 3.407020 
# 
# From -- ./inp_files/98756.got.cif
#   From: 2010.05.17/outbox.cif.g08.bks.cpg/sg15_50_cif.got.tgz:98756.got - 2010.06.03 18:47:42.
