data_PCOD9277657
_publ_section_title
;
Structure prediction by ZEFSAII (Michael W. Deem and Ramdas Pophale) SiO2 
 PCOD9277657
Probable space group: C 2/C
;
_chemical_formula_sum "Si O2"
_cell_formula_units_Z 60
_cell_length_a 19.110663
_cell_length_b 19.182591
_cell_length_c 12.720427
_cell_angle_alpha 90.000000
_cell_angle_beta 34.411451
_cell_angle_gamma 90.000000
_cell_volume 2635.327123
_symmetry_space_group_name_H-M "C 2/C"
_symmetry_group_IT_number 15
_symmetry_cell_setting 'monoclinic'
loop_
_space_group_symop_operation_xyz
x,y,z
-x,y,1/2-z
-x,-y,-z
x,-y,1/2+z
1/2+x,1/2+y,z
1/2-x,1/2+y,1/2-z
1/2-x,1/2-y,-z
1/2+x,1/2-y,1/2+z
loop_
_atom_site_type_symbol
_atom_site_label
_atom_site_fract_x
_atom_site_fract_y
_atom_site_fract_z
Si Si1 0.395698 0.366714 0.703208
Si Si2 0.176380 0.113441 0.847533
Si Si3 0.735588 0.085594 0.988550
Si Si4 0.213691 0.046509 0.351762
Si Si5 0.179516 0.425979 0.069788
Si Si6 0.399355 0.221638 0.593862
Si Si7 0.048247 0.386401 0.027539
Si Si8 0.500000 0.185350 0.250000
O O1 0.539828 0.364512 0.548214
O O2 0.364691 0.420964 0.646766
O O3 0.361343 0.292134 0.697625
O O4 0.315058 0.392252 0.902530
O O5 0.183399 0.107009 0.711592
O O6 0.283686 0.168724 0.739254
O O7 0.199333 0.036209 0.864805
O O8 0.811760 0.079143 0.002352
O O9 0.615489 0.136001 0.142073
O O10 0.688797 0.006543 0.025757
O O11 0.357404 0.067663 0.156240
O O12 0.117982 0.381262 0.051935
O O13 0.081909 0.422277 0.284103
O O14 0.512050 0.184915 0.516669
O O15 0.448046 0.228312 0.413724
#
# Coordination Sequence:
#
# PCOD9277657 Si02
#       8
#     8   8   8   8   8   8   8   4
#     4  11  26  46  64  94 148 181 223 276 342 416
#     4  11  25  43  66 102 135 177 229 279 339 412
#     4  11  21  37  68 104 129 170 223 279 344 390
#     4  11  23  42  72  98 134 177 222 286 342 402
#     4  10  22  39  70  96 132 174 224 289 334 389
#     4  11  25  41  71  97 140 182 225 281 342 407
#     4  10  20  41  67 101 128 170 224 278 341 388
#     4  10  22  38  64 110 136 170 224 290 330 408
#
# _framework density 22.767571
#
# number of rings (size 3 to 8) (size 9 to 14) (size 15 to 20)
#    0.000    1.333    4.000    2.000    5.600    3.200 
#    0.000    4.667    0.000    0.000    0.000    0.000 
#    0.000    0.000    0.000    0.000    0.000    0.000 
#
# Total GULP energy -167659.893426 kJ/mol
# GULP energy per Si atom -5588.663114 kJ/mol
# Density = 2.271575 g / cm^3
# Si number density = 22.767571 Si / 1000 Ang^3
#
#
#
# Elastic Constant Matrix: (Units=GPa)
#
#
# Indices 1 2 3 4 5 6 
#
# 1 63.2436 -1.2071 -5.7274 -0.0001 -3.9116 0.0001
# 2 -1.2071 93.5587 10.4072 -0.0001 -3.4095 0.0001
# 3 -5.7274 10.4072 82.7226 -0.0001 -20.5782 0.0001
# 4 -0.0001 -0.0001 -0.0001 22.0441 0.0001 -1.9278
# 5 -3.9116 -3.4095 -20.5782 0.0001 20.0208 -0.0001
# 6 0.0001 0.0001 0.0001 -1.9278 -0.0001 28.9195
#
#
#
# Elastic Compliance Matrix: (Units=1/GPa)
#
#
# Indices 1 2 3 4 5 6 
#
# 1 0.016412 0.000139 0.002583 0.000000 0.005885 0.000000
# 2 0.000139 0.010847 -0.001194 0.000000 0.000647 0.000000
# 3 0.002583 -0.001194 0.016784 0.000000 0.017553 0.000000
# 4 0.000000 0.000000 0.000000 0.045630 0.000000 0.003042
# 5 0.005885 0.000647 0.017553 0.000000 0.069250 0.000000
# 6 0.000000 0.000000 0.000000 0.003042 0.000000 0.034781
#
#
# Mechanical properties :
#
#
# Convention : Reuss Voigt Hill
#
# Bulk Modulus (GPa) = 21.23208 27.38560 24.30884
# Shear Modulus (GPa) = 24.23093 29.93370 27.08232
#
# Velocity S-wave (km/s) = 3.26586 3.62988 3.45267
# Velocity P-wave (km/s) = 4.85458 5.44266 5.15701
#
# Compressibility (1/GPa) = 0.04709853
#
# Stress axis : x y z
#
# Youngs Moduli (GPa) = 60.92951 92.19424 59.58031
#
# Poissons Ratio (x) = -0.01281 -0.15389
# Poissons Ratio (y) = -0.00846 0.07114
# Poissons Ratio (z) = -0.15737 0.11008
#
# Static dielectric constant tensor:
#      x y z
#    x 1.917940 0.000000 0.025990 
#    y 0.000000 1.790060 0.000000 
#    z 0.025990 0.000000 1.865850 
# 
# From -- ./inp_files/174076.got.cif
#   From: 2010.05.17/outbox.cif.g08.bks.cpg/sg15_88_cif.got.tgz:174076.got - 2010.06.03 18:47:42.
