data_PCOD9277680
_publ_section_title
;
Structure prediction by ZEFSAII (Michael W. Deem and Ramdas Pophale) SiO2 
 PCOD9277680
Probable space group: C 2/C
;
_chemical_formula_sum "Si O2"
_cell_formula_units_Z 60
_cell_length_a 24.069391
_cell_length_b 13.079163
_cell_length_c 8.793449
_cell_angle_alpha 90.000000
_cell_angle_beta 115.284716
_cell_angle_gamma 90.000000
_cell_volume 2503.036217
_symmetry_space_group_name_H-M "C 2/C"
_symmetry_group_IT_number 15
_symmetry_cell_setting 'monoclinic'
loop_
_space_group_symop_operation_xyz
x,y,z
-x,y,1/2-z
-x,-y,-z
x,-y,1/2+z
1/2+x,1/2+y,z
1/2-x,1/2+y,1/2-z
1/2-x,1/2-y,-z
1/2+x,1/2-y,1/2+z
loop_
_atom_site_type_symbol
_atom_site_label
_atom_site_fract_x
_atom_site_fract_y
_atom_site_fract_z
Si Si1 0.388743 0.195759 0.378192
Si Si2 0.078518 0.103875 0.057615
Si Si3 0.519168 0.188584 0.440326
Si Si4 0.119013 0.451983 0.144664
Si Si5 0.282285 0.370950 0.845820
Si Si6 0.000000 0.955517 0.750000
Si Si7 0.300358 0.165403 0.516437
Si Si8 0.807933 0.339177 0.512348
O O1 0.457404 0.233231 0.441566
O O2 0.356408 0.222719 0.497110
O O3 0.344853 0.222911 0.186527
O O4 0.391298 0.072169 0.368358
O O5 0.151416 0.086319 0.121817
O O6 0.048286 0.098920 0.190851
O O7 0.065701 0.217507 0.980208
O O8 0.041771 0.025531 0.908626
O O9 0.500000 0.150396 0.250000
O O10 0.553343 0.104133 0.580179
O O11 0.167915 0.405159 0.320503
O O12 0.145694 0.415705 0.013768
O O13 0.234137 0.397025 0.657475
O O14 0.248548 0.393948 0.966784
O O15 0.287818 0.247161 0.869234
O O16 0.250000 0.250000 0.500000
#
# Coordination Sequence:
#
# PCOD9277680 Si02
#       8
#     8   8   8   8   8   4   8   8
#     4  11  25  41  66 104 136 177 221 279 343 398
#     4  11  22  48  69 102 132 177 224 288 343 407
#     4  12  23  42  75  95 130 187 228 266 349 425
#     4  12  23  43  67 100 144 169 227 287 330 402
#     4  10  21  42  71  93 128 175 235 259 339 409
#     4  10  26  44  72 100 140 162 226 300 338 390
#     4  11  23  42  64  97 135 178 221 278 329 389
#     4  10  20  41  67  92 129 182 216 272 320 413
#
# _framework density 23.970887000000001
#
# number of rings (size 3 to 8) (size 9 to 14) (size 15 to 20)
#    0.000    1.067    4.667    1.200    0.000    2.667 
#    9.600    1.333    0.000    0.000    0.000    0.000 
#    0.000    0.000    0.000    0.000    0.000    0.000 
#
# Total GULP energy -167710.433568 kJ/mol
# GULP energy per Si atom -5590.347786 kJ/mol
# Density = 2.391633 g / cm^3
# Si number density = 23.970887 Si / 1000 Ang^3
#
#
#
# Elastic Constant Matrix: (Units=GPa)
#
#
# Indices 1 2 3 4 5 6 
#
# 1 162.3929 -12.9426 23.2657 0.0000 0.9365 0.0000
# 2 -12.9426 34.8639 19.7361 0.0000 5.1633 0.0000
# 3 23.2657 19.7361 77.6349 0.0000 3.0090 0.0000
# 4 0.0000 0.0000 0.0000 26.0646 0.0000 0.8003
# 5 0.9365 5.1633 3.0090 0.0000 45.3011 0.0000
# 6 0.0000 0.0000 0.0000 0.8003 0.0000 37.4410
#
#
#
# Elastic Compliance Matrix: (Units=1/GPa)
#
#
# Indices 1 2 3 4 5 6 
#
# 1 0.006977 0.004473 -0.003211 0.000000 -0.000441 0.000000
# 2 0.004473 0.036860 -0.010572 0.000000 -0.003591 0.000000
# 3 -0.003211 -0.010572 0.016524 0.000000 0.000174 0.000000
# 4 0.000000 0.000000 0.000000 0.038391 0.000000 -0.000821
# 5 -0.000441 -0.003591 0.000174 0.000000 0.022481 0.000000
# 6 0.000000 0.000000 0.000000 -0.000821 0.000000 0.026726
#
#
# Mechanical properties :
#
#
# Convention : Reuss Voigt Hill
#
# Bulk Modulus (GPa) = 23.95692 37.22333 30.59013
# Shear Modulus (GPa) = 27.70194 38.08352 32.89273
#
# Velocity S-wave (km/s) = 3.40317 3.99022 3.70833
# Velocity P-wave (km/s) = 5.04559 6.06560 5.57895
#
# Compressibility (1/GPa) = 0.04174159
#
# Stress axis : x y z
#
# Youngs Moduli (GPa) = 143.32884 27.12971 60.51872
#
# Poissons Ratio (x) = -0.12135 0.19432
# Poissons Ratio (y) = -0.64111 0.63979
# Poissons Ratio (z) = 0.46021 0.28681
#
# Static dielectric constant tensor:
#      x y z
#    x 1.985990 0.000000 -0.037740 
#    y 0.000000 1.909060 0.000000 
#    z -0.037740 0.000000 1.929250 
# 
# From -- ./inp_files/61962.got.cif
#   From: 2010.05.17/outbox.cif.g08.bks.cpg/sg15_31_cif.got.tgz:61962.got - 2010.06.03 18:47:42.
