data_PCOD9277827
_publ_section_title
;
Structure prediction by ZEFSAII (Michael W. Deem and Ramdas Pophale) SiO2 
 PCOD9277827
Probable space group: C 2/C
;
_chemical_formula_sum "Si O2"
_cell_formula_units_Z 60
_cell_length_a 17.994816
_cell_length_b 27.391804
_cell_length_c 13.148748
_cell_angle_alpha 90.000000
_cell_angle_beta 157.755509
_cell_angle_gamma 90.000000
_cell_volume 2453.503830
_symmetry_space_group_name_H-M "C 2/C"
_symmetry_group_IT_number 15
_symmetry_cell_setting 'monoclinic'
loop_
_space_group_symop_operation_xyz
x,y,z
-x,y,1/2-z
-x,-y,-z
x,-y,1/2+z
1/2+x,1/2+y,z
1/2-x,1/2+y,1/2-z
1/2-x,1/2-y,-z
1/2+x,1/2-y,1/2+z
loop_
_atom_site_type_symbol
_atom_site_label
_atom_site_fract_x
_atom_site_fract_y
_atom_site_fract_z
Si Si1 0.042629 0.414014 0.546818
Si Si2 0.264232 0.831149 0.438961
Si Si3 0.775782 0.937500 0.187167
Si Si4 0.271394 0.816253 0.671304
Si Si5 0.209555 0.958646 0.812079
Si Si6 0.679784 0.134915 0.917413
Si Si7 0.686921 0.234943 0.692489
Si Si8 0.500000 0.705900 0.250000
O O1 0.201248 0.373703 0.781827
O O2 0.162888 0.452566 0.630519
O O3 0.909547 0.431197 0.471990
O O4 0.893894 0.383955 0.285022
O O5 0.193589 0.886450 0.331520
O O6 0.204646 0.808031 0.471278
O O7 0.238676 0.798065 0.307619
O O8 0.500000 0.835750 0.750000
O O9 0.978191 0.949714 0.502064
O O10 0.748702 0.987686 0.090281
O O11 0.147874 0.788993 0.600089
O O12 0.483359 0.791339 0.960561
O O13 0.274640 0.914275 0.964237
O O14 0.500000 0.159171 0.750000
O O15 0.863413 0.170293 0.143826
O O16 0.844921 0.233722 0.982574
#
# Coordination Sequence:
#
# PCOD9277827 Si02
#       8
#     8   8   8   8   8   8   8   4
#     4  11  21  44  64  95 133 177 221 274 341 400
#     4  10  20  41  71  91 134 184 223 277 344 400
#     4  11  21  43  68  96 136 175 225 275 346 392
#     4  11  24  44  65  99 131 181 231 279 346 407
#     4  10  24  38  66 105 132 176 224 278 329 423
#     4  10  21  38  64  95 132 171 219 265 343 403
#     4  11  24  42  66  99 128 174 230 280 344 404
#     4  12  22  44  70  96 136 178 214 288 350 406
#
# _framework density 24.454822
#
# number of rings (size 3 to 8) (size 9 to 14) (size 15 to 20)
#    0.000    1.333    4.000    2.400    0.000    5.333 
#    6.000    2.000    0.000    0.000    0.000    0.000 
#    0.000    0.000    0.000    0.000    0.000    0.000 
#
# Total GULP energy -167920.221455 kJ/mol
# GULP energy per Si atom -5597.340715 kJ/mol
# Density = 2.439916 g / cm^3
# Si number density = 24.454822 Si / 1000 Ang^3
#
#
#
# Elastic Constant Matrix: (Units=GPa)
#
#
# Indices 1 2 3 4 5 6 
#
# 1 54.9441 21.2588 20.1370 0.0000 8.4645 0.0000
# 2 21.2588 115.3113 21.0239 0.0000 -2.5605 0.0000
# 3 20.1370 21.0239 82.7079 -0.0002 1.4214 0.0000
# 4 0.0000 0.0000 -0.0002 37.1649 0.0000 -0.4007
# 5 8.4645 -2.5605 1.4214 0.0000 50.8443 0.0000
# 6 0.0000 0.0000 0.0000 -0.4007 0.0000 15.8040
#
#
#
# Elastic Compliance Matrix: (Units=1/GPa)
#
#
# Indices 1 2 3 4 5 6 
#
# 1 0.021630 -0.003271 -0.004372 0.000000 -0.003643 0.000000
# 2 -0.003271 0.009602 -0.001663 0.000000 0.001075 0.000000
# 3 -0.004372 -0.001663 0.013573 0.000000 0.000265 0.000000
# 4 0.000000 0.000000 0.000000 0.026914 0.000000 0.000682
# 5 -0.003643 0.001075 0.000265 0.000000 0.020321 0.000000
# 6 0.000000 0.000000 0.000000 0.000682 0.000000 0.063293
#
#
# Mechanical properties :
#
#
# Convention : Reuss Voigt Hill
#
# Bulk Modulus (GPa) = 38.17840 41.97808 40.07824
# Shear Modulus (GPa) = 27.37070 33.46555 30.41812
#
# Velocity S-wave (km/s) = 3.34913 3.70329 3.53065
# Velocity P-wave (km/s) = 5.53184 5.95723 5.74847
#
# Compressibility (1/GPa) = 0.02619282
#
# Stress axis : x y z
#
# Youngs Moduli (GPa) = 46.23267 104.14134 73.67385
#
# Poissons Ratio (x) = 0.34069 0.32210
# Poissons Ratio (y) = 0.15125 0.12251
# Poissons Ratio (z) = 0.20213 0.17317
#
# Static dielectric constant tensor:
#      x y z
#    x 1.997640 0.000000 0.032890 
#    y 0.000000 1.937610 0.000000 
#    z 0.032890 0.000000 1.967810 
# 
# From -- ./inp_files/170044.got.cif
#   From: 2010.05.17/outbox.cif.g08.bks.cpg/sg15_86_cif.got.tgz:170044.got - 2010.06.03 18:47:42.
