data_PCOD9277189
_publ_section_title
;
Structure prediction by ZEFSAII (Michael W. Deem and Ramdas Pophale) SiO2 
 PCOD9277189
Probable space group: C 2/C
;
_chemical_formula_sum "Si O2"
_cell_formula_units_Z 44
_cell_length_a 24.177367
_cell_length_b 5.068949
_cell_length_c 14.063113
_cell_angle_alpha 90.000000
_cell_angle_beta 88.760567
_cell_angle_gamma 90.000000
_cell_volume 1723.085266
_symmetry_space_group_name_H-M "C 2/C"
_symmetry_group_IT_number 15
_symmetry_cell_setting 'monoclinic'
loop_
_space_group_symop_operation_xyz
x,y,z
-x,y,1/2-z
-x,-y,-z
x,-y,1/2+z
1/2+x,1/2+y,z
1/2-x,1/2+y,1/2-z
1/2-x,1/2-y,-z
1/2+x,1/2-y,1/2+z
loop_
_atom_site_type_symbol
_atom_site_label
_atom_site_fract_x
_atom_site_fract_y
_atom_site_fract_z
Si Si1 0.785014 0.463820 0.273787
Si Si2 0.360659 0.533949 0.988638
Si Si3 0.801550 0.546604 0.993933
Si Si4 0.000000 0.040403 0.750000
Si Si5 0.391398 0.747003 0.302449
Si Si6 0.539944 0.851245 0.568979
O O1 0.757832 0.722087 0.231344
O O2 0.799975 0.513995 0.382119
O O3 0.845140 0.369569 0.235776
O O4 0.348584 0.246210 0.030928
O O5 0.360516 0.464899 0.873568
O O6 0.421318 0.655095 0.993272
O O7 0.315618 0.749282 0.026864
O O8 0.750000 0.750000 0.000000
O O9 0.993222 0.205052 0.846586
O O10 0.943341 0.876220 0.747121
O O11 0.419362 0.954212 0.374225
O O12 0.500000 0.000000 0.500000
#
# Coordination Sequence:
#
# PCOD9277189 Si02
#       6
#     8   8   8   4   8   8
#     4  11  23  41  69  95 131 185 225 274 357 409
#     4  10  20  40  69  90 134 180 215 283 355 403
#     4  11  22  42  64  94 132 175 227 280 334 410
#     4  10  24  42  74 106 142 186 238 306 358 428
#     4  10  22  45  68  97 143 176 241 296 351 431
#     4  11  23  45  74 102 143 190 236 294 373 428
#
# _framework density 25.535592000000001
#
# number of rings (size 3 to 8) (size 9 to 14) (size 15 to 20)
#    0.000    1.455    3.636    3.273    2.545    2.909 
#    3.273    3.636    0.000    0.000    0.000    0.000 
#    0.000    0.000    0.000    0.000    0.000    0.000 
#
# Total GULP energy -122849.991176 kJ/mol
# GULP energy per Si atom -5584.090508 kJ/mol
# Density = 2.547747 g / cm^3
# Si number density = 25.535592 Si / 1000 Ang^3
#
#
#
# Elastic Constant Matrix: (Units=GPa)
#
#
# Indices 1 2 3 4 5 6 
#
# 1 87.0649 39.5879 39.0866 0.0000 2.1410 0.0000
# 2 39.5879 168.8782 27.8222 0.0000 10.2407 0.0000
# 3 39.0866 27.8222 76.0855 0.0000 20.2929 0.0000
# 4 0.0000 0.0000 0.0000 35.3786 0.0000 3.0553
# 5 2.1410 10.2407 20.2929 0.0000 37.8286 0.0000
# 6 0.0000 0.0000 0.0000 3.0553 0.0000 55.5994
#
#
#
# Elastic Compliance Matrix: (Units=1/GPa)
#
#
# Indices 1 2 3 4 5 6 
#
# 1 0.016502 -0.002709 -0.008674 0.000000 0.004453 0.000000
# 2 -0.002709 0.006756 -0.000737 0.000000 -0.001280 0.000000
# 3 -0.008674 -0.000737 0.020637 0.000000 -0.010380 0.000000
# 4 0.000000 0.000000 0.000000 0.028400 0.000000 -0.001561
# 5 0.004453 -0.001280 -0.010380 0.000000 0.032098 0.000000
# 6 0.000000 0.000000 0.000000 -0.001561 0.000000 0.018072
#
#
# Mechanical properties :
#
#
# Convention : Reuss Voigt Hill
#
# Bulk Modulus (GPa) = 50.88118 60.55798 55.71958
# Shear Modulus (GPa) = 32.62463 40.79680 36.71071
#
# Velocity S-wave (km/s) = 3.57825 4.00139 3.79572
# Velocity P-wave (km/s) = 6.08611 6.71675 6.40919
#
# Compressibility (1/GPa) = 0.01965363
#
# Stress axis : x y z
#
# Youngs Moduli (GPa) = 60.59724 148.02542 48.45564
#
# Poissons Ratio (x) = 0.40105 0.42033
# Poissons Ratio (y) = 0.16418 0.03571
# Poissons Ratio (z) = 0.52565 0.10910
#
# Static dielectric constant tensor:
#      x y z
#    x 2.142130 0.000000 -0.064140 
#    y 0.000000 2.088970 0.000000 
#    z -0.064140 0.000000 1.960780 
# 
# From -- ./inp_files/212924.got.cif
#   From: 2010.05.17/outbox.cif.g08.bks.cpg/sg15_107_cif.got.tgz:212924.got - 2010.06.03 18:47:42.
