data_PCOD9277579
_publ_section_title
;
Structure prediction by ZEFSAII (Michael W. Deem and Ramdas Pophale) SiO2 
 PCOD9277579
Probable space group: C 2/C
;
_chemical_formula_sum "Si O2"
_cell_formula_units_Z 64
_cell_length_a 26.754483
_cell_length_b 14.821774
_cell_length_c 11.872293
_cell_angle_alpha 90.000000
_cell_angle_beta 142.702388
_cell_angle_gamma 90.000000
_cell_volume 2852.803809
_symmetry_space_group_name_H-M "C 2/C"
_symmetry_group_IT_number 15
_symmetry_cell_setting 'monoclinic'
loop_
_space_group_symop_operation_xyz
x,y,z
-x,y,1/2-z
-x,-y,-z
x,-y,1/2+z
1/2+x,1/2+y,z
1/2-x,1/2+y,1/2-z
1/2-x,1/2-y,-z
1/2+x,1/2-y,1/2+z
loop_
_atom_site_type_symbol
_atom_site_label
_atom_site_fract_x
_atom_site_fract_y
_atom_site_fract_z
Si Si1 0.164958 0.269347 0.462735
Si Si2 0.247093 0.989303 0.610993
Si Si3 0.588799 0.580612 0.946034
Si Si4 0.049618 0.556957 0.240918
Si Si5 0.862579 0.263244 0.590804
Si Si6 0.893389 0.408737 0.313533
Si Si7 0.821367 0.710914 0.264673
Si Si8 0.822584 0.885869 0.678429
O O1 0.116876 0.319594 0.276762
O O2 0.135459 0.277621 0.537620
O O3 0.166256 0.168229 0.418454
O O4 0.253196 0.323568 0.616604
O O5 0.168410 0.978243 0.551363
O O6 0.293747 0.893321 0.698961
O O7 0.317161 0.065298 0.757583
O O8 0.211098 0.017869 0.424342
O O9 0.500000 0.542972 0.750000
O O10 0.599412 0.675749 0.899339
O O11 0.601991 0.601188 0.101794
O O12 0.094039 0.644826 0.367541
O O13 0.107566 0.488636 0.280500
O O14 0.000000 0.506987 0.250000
O O15 0.980103 0.588933 0.029405
O O16 0.869074 0.259399 0.738422
O O17 0.765334 0.264580 0.388921
#
# Coordination Sequence:
#
# PCOD9277579 Si02
#       8
#     8   8   8   8   8   8   8   8
#     4  10  21  40  63  93 129 171 209 271 325 391
#     4  10  21  43  65  94 124 173 221 273 325 394
#     4  11  24  43  70  95 130 170 219 285 331 387
#     4  11  24  36  60  97 130 173 214 268 331 391
#     4  10  21  38  62  96 126 168 219 266 321 398
#     4  10  24  39  60  92 136 170 219 267 327 397
#     4  10  20  41  65  95 127 170 228 267 320 390
#     4  10  22  40  63  97 126 163 218 268 335 384
#
# _framework density 22.434069000000001
#
# number of rings (size 3 to 8) (size 9 to 14) (size 15 to 20)
#    0.000    1.750    3.750    0.375    5.250    1.500 
#    6.750    0.000    0.000    0.000    0.000    0.000 
#    0.000    0.000    0.000    0.000    0.000    0.000 
#
# Total GULP energy -178659.790230 kJ/mol
# GULP energy per Si atom -5583.118445 kJ/mol
# Density = 2.238301 g / cm^3
# Si number density = 22.434069 Si / 1000 Ang^3
#
#
#
# Elastic Constant Matrix: (Units=GPa)
#
#
# Indices 1 2 3 4 5 6 
#
# 1 66.9267 25.3911 11.6804 0.0000 -10.9805 0.0000
# 2 25.3911 59.5331 22.2644 0.0000 -11.1322 0.0000
# 3 11.6804 22.2644 63.4175 0.0000 -15.2835 0.0000
# 4 0.0000 0.0000 0.0000 9.6868 0.0000 -1.4724
# 5 -10.9805 -11.1322 -15.2835 0.0000 33.0518 0.0000
# 6 0.0000 0.0000 0.0000 -1.4724 0.0000 7.3713
#
#
#
# Elastic Compliance Matrix: (Units=1/GPa)
#
#
# Indices 1 2 3 4 5 6 
#
# 1 0.018234 -0.007096 0.000019 0.000000 0.003676 0.000000
# 2 -0.007096 0.022531 -0.006012 0.000000 0.002451 0.000000
# 3 0.000019 -0.006012 0.019570 0.000000 0.007031 0.000000
# 4 0.000000 0.000000 0.000000 0.106466 0.000000 0.021267
# 5 0.003676 0.002451 0.007031 0.000000 0.035553 0.000000
# 6 0.000000 0.000000 0.000000 0.021267 0.000000 0.139910
#
#
# Mechanical properties :
#
#
# Convention : Reuss Voigt Hill
#
# Bulk Modulus (GPa) = 29.27802 34.28322 31.78062
# Shear Modulus (GPa) = 13.16381 18.72473 15.94427
#
# Velocity S-wave (km/s) = 2.42498 2.89218 2.66882
# Velocity P-wave (km/s) = 4.57381 5.14469 4.86763
#
# Compressibility (1/GPa) = 0.03415531
#
# Stress axis : x y z
#
# Youngs Moduli (GPa) = 54.84301 44.38352 51.09803
#
# Poissons Ratio (x) = 0.31497 -0.00097
# Poissons Ratio (y) = 0.38919 0.30722
# Poissons Ratio (z) = -0.00104 0.26685
#
# Static dielectric constant tensor:
#      x y z
#    x 1.867050 0.000000 0.003520 
#    y 0.000000 1.843440 0.000000 
#    z 0.003520 0.000000 1.825240 
# 
# From -- ./inp_files/123566.got.cif
#   From: 2010.05.17/outbox.cif.g08.bks.cpg/sg15_62_cif.got.tgz:123566.got - 2010.06.03 18:47:42.
