data_PCOD9277100
_publ_section_title
;
Structure prediction by ZEFSAII (Michael W. Deem and Ramdas Pophale) SiO2 
 PCOD9277100
Probable space group: C 2/C
;
_chemical_formula_sum "Si O2"
_cell_formula_units_Z 48
_cell_length_a 14.056118
_cell_length_b 23.151352
_cell_length_c 8.311185
_cell_angle_alpha 90.000000
_cell_angle_beta 62.771136
_cell_angle_gamma 90.000000
_cell_volume 2404.901604
_symmetry_space_group_name_H-M "C 2/C"
_symmetry_group_IT_number 15
_symmetry_cell_setting 'monoclinic'
loop_
_space_group_symop_operation_xyz
x,y,z
-x,y,1/2-z
-x,-y,-z
x,-y,1/2+z
1/2+x,1/2+y,z
1/2-x,1/2+y,1/2-z
1/2-x,1/2-y,-z
1/2+x,1/2-y,1/2+z
loop_
_atom_site_type_symbol
_atom_site_label
_atom_site_fract_x
_atom_site_fract_y
_atom_site_fract_z
Si Si1 0.346330 0.181711 0.392546
Si Si2 0.745993 0.002790 0.478539
Si Si3 0.802116 0.086705 0.676961
Si Si4 0.887142 0.563717 0.178344
Si Si5 0.883374 0.191837 0.773761
Si Si6 0.563034 0.126738 0.864726
O O1 0.370318 0.125774 0.270602
O O2 0.220431 0.181504 0.532562
O O3 0.376516 0.238645 0.268579
O O4 0.410289 0.173605 0.513672
O O5 0.827880 0.037462 0.527738
O O6 0.703114 0.046390 0.378262
O O7 0.796224 0.947179 0.351731
O O8 0.640875 0.981118 0.658384
O O9 0.865019 0.146538 0.643322
O O10 0.680408 0.104498 0.729710
O O11 0.997858 0.573835 0.998559
O O12 0.000000 0.178359 0.750000
O O13 0.500000 0.144478 0.750000
#
# Coordination Sequence:
#
# PCOD9277100 Si02
#       6
#     8   8   8   8   8   8
#     4  10  22  39  61  88 114 149 194 243 288 345
#     4  10  21  34  55  81 128 150 193 236 288 343
#     4  10  21  37  54  86 114 158 194 238 289 342
#     4  11  20  34  54  83 121 155 188 233 288 346
#     4  10  20  40  68  81 108 152 200 237 291 345
#     4  11  20  33  54  88 124 155 193 224 294 351
#
# _framework density 19.959237000000002
#
# number of rings (size 3 to 8) (size 9 to 14) (size 15 to 20)
#    0.000    1.667    5.000    1.500    0.000    4.000 
#    0.000    1.667    7.333    0.000    0.000    0.000 
#    0.000    0.000    0.000    0.000    0.000    0.000 
#
# Total GULP energy -133626.458623 kJ/mol
# GULP energy per Si atom -5567.769109 kJ/mol
# Density = 1.991381 g / cm^3
# Si number density = 19.959237 Si / 1000 Ang^3
#
#
#
# Elastic Constant Matrix: (Units=GPa)
#
#
# Indices 1 2 3 4 5 6 
#
# 1 79.8830 48.2969 23.5117 0.0000 7.2098 0.0000
# 2 48.2969 128.7279 31.5212 0.0000 34.0984 0.0000
# 3 23.5117 31.5212 57.9657 0.0000 22.1103 0.0000
# 4 0.0000 0.0000 0.0000 9.4735 0.0000 11.0436
# 5 7.2098 34.0984 22.1103 0.0000 22.3499 0.0000
# 6 0.0000 0.0000 0.0000 11.0436 0.0000 28.3944
#
#
#
# Elastic Compliance Matrix: (Units=1/GPa)
#
#
# Indices 1 2 3 4 5 6 
#
# 1 0.019621 -0.009815 -0.009506 0.000000 0.018048 0.000000
# 2 -0.009815 0.017969 0.005555 0.000000 -0.029745 0.000000
# 3 -0.009506 0.005555 0.032361 0.000000 -0.037423 0.000000
# 4 0.000000 0.000000 0.000000 0.193115 0.000000 -0.075109
# 5 0.018048 -0.029745 -0.037423 0.000000 0.121323 0.000000
# 6 0.000000 0.000000 0.000000 -0.075109 0.000000 0.064431
#
#
# Mechanical properties :
#
#
# Convention : Reuss Voigt Hill
#
# Bulk Modulus (GPa) = 23.57332 52.58181 38.07756
# Shear Modulus (GPa) = 10.19388 22.92668 16.56028
#
# Velocity S-wave (km/s) = 2.26240 3.39289 2.88358
# Velocity P-wave (km/s) = 4.31983 6.46148 5.49598
#
# Compressibility (1/GPa) = 0.04242084
#
# Stress axis : x y z
#
# Youngs Moduli (GPa) = 50.96569 55.65034 30.90156
#
# Poissons Ratio (x) = 0.54619 0.29374
# Poissons Ratio (y) = 0.50021 -0.17166
# Poissons Ratio (z) = 0.48446 -0.30914
#
# Static dielectric constant tensor:
#      x y z
#    x 1.706850 0.000000 0.016570 
#    y 0.000000 1.734240 0.000000 
#    z 0.016570 0.000000 1.786640 
# 
# From -- ./inp_files/33025.got.cif
#   From: 2010.05.17/outbox.cif.g08.bks.cpg/sg15_17_cif.got.tgz:33025.got - 2010.06.03 18:47:42.
