data_PCOD9277924
_publ_section_title
;
Structure prediction by ZEFSAII (Michael W. Deem and Ramdas Pophale) SiO2 
 PCOD9277924
Probable space group: C 2/C
;
_chemical_formula_sum "Si O2"
_cell_formula_units_Z 40
_cell_length_a 5.156054
_cell_length_b 29.601359
_cell_length_c 10.357004
_cell_angle_alpha 90.000000
_cell_angle_beta 78.345352
_cell_angle_gamma 90.000000
_cell_volume 1548.159922
_symmetry_space_group_name_H-M "C 2/C"
_symmetry_group_IT_number 15
_symmetry_cell_setting 'monoclinic'
loop_
_space_group_symop_operation_xyz
x,y,z
-x,y,1/2-z
-x,-y,-z
x,-y,1/2+z
1/2+x,1/2+y,z
1/2-x,1/2+y,1/2-z
1/2-x,1/2-y,-z
1/2+x,1/2-y,1/2+z
loop_
_atom_site_type_symbol
_atom_site_label
_atom_site_fract_x
_atom_site_fract_y
_atom_site_fract_z
Si Si1 0.212179 0.014527 0.588732
Si Si2 0.000000 0.132736 0.250000
Si Si3 0.300615 0.715816 0.665063
Si Si4 0.727364 0.602779 0.473097
Si Si5 0.000000 0.539406 0.250000
Si Si6 0.081392 0.314469 0.928743
O O1 0.177426 0.069052 0.595673
O O2 0.500000 0.000000 0.500000
O O3 0.261489 0.992406 0.724883
O O4 0.000000 0.000000 0.500000
O O5 0.991203 0.105249 0.118118
O O6 0.749545 0.164809 0.294447
O O7 0.500000 0.695529 0.750000
O O8 0.253826 0.686474 0.542459
O O9 0.447483 0.761991 0.604400
O O10 0.000000 0.724752 0.750000
O O11 0.943399 0.574443 0.370094
O O12 0.837976 0.652701 0.483882
#
# Coordination Sequence:
#
# PCOD9277924 Si02
#       6
#     8   4   8   8   4   8
#     4  10  23  40  63  94 129 175 220 286 355 412
#     4  12  20  38  70 101 132 176 241 302 344 420
#     4  11  26  47  69 102 146 188 233 294 370 431
#     4  11  22  39  66  96 135 174 243 287 351 427
#     4  10  20  42  62  91 132 178 227 292 350 416
#     4  11  25  41  72 102 138 188 239 297 355 432
#
# _framework density 25.837126000000001
#
# number of rings (size 3 to 8) (size 9 to 14) (size 15 to 20)
#    0.000    1.200    3.000    2.400    5.600    4.000 
#    1.800    0.000    0.000    0.000    0.000    0.000 
#    0.000    0.000    0.000    0.000    0.000    0.000 
#
# Total GULP energy -111614.856394 kJ/mol
# GULP energy per Si atom -5580.742820 kJ/mol
# Density = 2.577832 g / cm^3
# Si number density = 25.837126 Si / 1000 Ang^3
#
#
#
# Elastic Constant Matrix: (Units=GPa)
#
#
# Indices 1 2 3 4 5 6 
#
# 1 156.0858 39.8095 38.1960 0.0000 37.7590 0.0000
# 2 39.8095 99.0576 34.5970 0.0000 11.5106 0.0000
# 3 38.1960 34.5970 112.1162 0.0000 23.9213 0.0000
# 4 0.0000 0.0000 0.0000 16.0238 0.0000 25.1728
# 5 37.7590 11.5106 23.9213 0.0000 45.3316 0.0000
# 6 0.0000 0.0000 0.0000 25.1728 0.0000 16.1776
#
#
#
# Elastic Compliance Matrix: (Units=1/GPa)
#
#
# Indices 1 2 3 4 5 6 
#
# 1 0.008758 -0.002488 -0.000895 0.000000 -0.006191 0.000000
# 2 -0.002488 0.012076 -0.003005 0.000000 0.000592 0.000000
# 3 -0.000895 -0.003005 0.011077 0.000000 -0.004337 0.000000
# 4 0.000000 0.000000 0.000000 -0.043204 0.000000 0.067227
# 5 -0.006191 0.000592 -0.004337 0.000000 0.029355 0.000000
# 6 0.000000 0.000000 0.000000 0.067227 0.000000 -0.042794
#
#
# Mechanical properties :
#
#
# Convention : Reuss Voigt Hill
#
# Bulk Modulus (GPa) = 52.26088 65.82941 59.04515
# Shear Modulus (GPa) = -896.17716 32.48376 -431.84670
#
# Velocity S-wave (km/s) = -18.64429 3.54962 -12.94236
# Velocity P-wave (km/s) = 21.05251 6.50643 14.15759
#
# Compressibility (1/GPa) = 0.01913477
#
# Stress axis : x y z
#
# Youngs Moduli (GPa) = 114.18280 82.81112 90.27850
#
# Poissons Ratio (x) = 0.20600 0.08081
# Poissons Ratio (y) = 0.28404 0.27129
# Poissons Ratio (z) = 0.10221 0.24885
#
# Static dielectric constant tensor:
#      x y z
#    x 1.743810 0.000000 0.166680 
#    y 0.000000 2.093400 0.000000 
#    z 0.166680 0.000000 2.165910 
# 
# From -- ./inp_files/73655.got.cif
#   From: 2010.05.17/outbox.cif.g08.bks.cpg/sg15_37_cif.got.tgz:73655.got - 2010.06.03 18:47:42.
