data_PCOD9277888
_publ_section_title
;
Structure prediction by ZEFSAII (Michael W. Deem and Ramdas Pophale) SiO2 
 PCOD9277888
Probable space group: C 2/C
;
_chemical_formula_sum "Si O2"
_cell_formula_units_Z 64
_cell_length_a 16.931969
_cell_length_b 9.415979
_cell_length_c 18.876841
_cell_angle_alpha 90.000000
_cell_angle_beta 95.356749
_cell_angle_gamma 90.000000
_cell_volume 2996.411289
_symmetry_space_group_name_H-M "C 2/C"
_symmetry_group_IT_number 15
_symmetry_cell_setting 'monoclinic'
loop_
_space_group_symop_operation_xyz
x,y,z
-x,y,1/2-z
-x,-y,-z
x,-y,1/2+z
1/2+x,1/2+y,z
1/2-x,1/2+y,1/2-z
1/2-x,1/2-y,-z
1/2+x,1/2-y,1/2+z
loop_
_atom_site_type_symbol
_atom_site_label
_atom_site_fract_x
_atom_site_fract_y
_atom_site_fract_z
Si Si1 0.263687 0.086024 0.481257
Si Si2 0.878408 0.739250 0.131587
Si Si3 0.795023 0.846708 0.919508
Si Si4 0.592527 0.985923 0.278721
Si Si5 0.378665 0.284750 0.788938
Si Si6 0.087662 0.611674 0.504910
Si Si7 0.467885 0.204934 0.608636
Si Si8 0.366554 0.560853 0.137236
O O1 0.250000 0.250000 0.500000
O O2 0.221830 0.061121 0.401918
O O3 0.218821 0.986996 0.535507
O O4 0.353913 0.025044 0.487639
O O5 0.789880 0.728176 0.093204
O O6 0.878423 0.642435 0.201611
O O7 0.931898 0.664718 0.075931
O O8 0.898622 0.901767 0.144146
O O9 0.825043 0.863185 0.841866
O O10 0.857644 0.740100 0.959414
O O11 0.500000 0.996043 0.250000
O O12 0.639768 0.882411 0.229530
O O13 0.589878 0.898023 0.352086
O O14 0.465492 0.266953 0.831548
O O15 0.374303 0.367427 0.714753
O O16 0.987387 0.380531 0.449033
O O17 0.416816 0.343098 0.586057
#
# Coordination Sequence:
#
# PCOD9277888 Si02
#       8
#     8   8   8   8   8   8   8   8
#     4  11  23  40  61  92 130 162 208 271 322 376
#     4  11  21  35  61  87 123 155 198 259 313 366
#     4  10  20  42  61  85 123 169 199 251 326 382
#     4   9  20  39  57  85 117 160 198 250 308 371
#     4   9  21  40  62  83 120 163 210 247 310 386
#     4  10  20  42  61  84 121 166 201 249 320 387
#     4   9  21  40  64  82 119 169 205 244 311 385
#     4  11  21  39  60  94 122 161 209 261 315 371
#
# _framework density 21.358884
#
# number of rings (size 3 to 8) (size 9 to 14) (size 15 to 20)
#    0.000    2.000    2.500    1.875    7.000    3.000 
#    2.250    0.000    0.000    0.000    0.000    0.000 
#    0.000    0.000    0.000    0.000    0.000    0.000 
#
# Total GULP energy -178519.693113 kJ/mol
# GULP energy per Si atom -5578.740410 kJ/mol
# Density = 2.131027 g / cm^3
# Si number density = 21.358884 Si / 1000 Ang^3
#
#
#
# Elastic Constant Matrix: (Units=GPa)
#
#
# Indices 1 2 3 4 5 6 
#
# 1 50.6471 14.6012 17.4249 0.0000 -9.9987 0.0000
# 2 14.6012 151.2904 23.9964 0.0000 0.6822 0.0000
# 3 17.4249 23.9964 85.1263 0.0000 -5.4360 0.0000
# 4 0.0000 0.0000 0.0000 33.1124 0.0000 -1.3048
# 5 -9.9987 0.6822 -5.4360 0.0000 27.4884 0.0000
# 6 0.0000 0.0000 0.0000 -1.3048 0.0000 23.2937
#
#
#
# Elastic Compliance Matrix: (Units=1/GPa)
#
#
# Indices 1 2 3 4 5 6 
#
# 1 0.023031 -0.001662 -0.003756 0.000000 0.007676 0.000000
# 2 -0.001662 0.007048 -0.001718 0.000000 -0.001119 0.000000
# 3 -0.003756 -0.001718 0.013081 0.000000 0.001263 0.000000
# 4 0.000000 0.000000 0.000000 0.030267 0.000000 0.001695
# 5 0.007676 -0.001119 0.001263 0.000000 0.039449 0.000000
# 6 0.000000 0.000000 0.000000 0.001695 0.000000 0.043025
#
#
# Mechanical properties :
#
#
# Convention : Reuss Voigt Hill
#
# Bulk Modulus (GPa) = 34.61539 44.34541 39.48040
# Shear Modulus (GPa) = 27.80855 32.18166 29.99511
#
# Velocity S-wave (km/s) = 3.61219 3.88585 3.75152
# Velocity P-wave (km/s) = 5.79991 6.39845 6.10652
#
# Compressibility (1/GPa) = 0.02888889
#
# Stress axis : x y z
#
# Youngs Moduli (GPa) = 43.41969 141.88991 76.44670
#
# Poissons Ratio (x) = 0.23577 0.28712
# Poissons Ratio (y) = 0.07215 0.13134
# Poissons Ratio (z) = 0.16307 0.24377
#
# Static dielectric constant tensor:
#      x y z
#    x 1.831780 0.000000 -0.023820 
#    y 0.000000 1.813570 0.000000 
#    z -0.023820 0.000000 1.852240 
# 
# From -- ./inp_files/251601.got.cif
#   From: 2010.05.17/outbox.cif.g08.bks.cpg/sg15_126_cif.got.tgz:251601.got - 2010.06.03 18:47:42.
