data_PCOD9277475
_publ_section_title
;
Structure prediction by ZEFSAII (Michael W. Deem and Ramdas Pophale) SiO2 
 PCOD9277475
Probable space group: C 2/C
;
_chemical_formula_sum "Si O2"
_cell_formula_units_Z 60
_cell_length_a 25.474662
_cell_length_b 11.451645
_cell_length_c 20.164914
_cell_angle_alpha 90.000000
_cell_angle_beta 28.539721
_cell_angle_gamma 90.000000
_cell_volume 2810.539187
_symmetry_space_group_name_H-M "C 2/C"
_symmetry_group_IT_number 15
_symmetry_cell_setting 'monoclinic'
loop_
_space_group_symop_operation_xyz
x,y,z
-x,y,1/2-z
-x,-y,-z
x,-y,1/2+z
1/2+x,1/2+y,z
1/2-x,1/2+y,1/2-z
1/2-x,1/2-y,-z
1/2+x,1/2-y,1/2+z
loop_
_atom_site_type_symbol
_atom_site_label
_atom_site_fract_x
_atom_site_fract_y
_atom_site_fract_z
Si Si1 0.598673 0.284566 0.371144
Si Si2 0.640814 0.599413 0.690886
Si Si3 0.376388 0.951381 0.964678
Si Si4 0.448216 0.787653 0.376781
Si Si5 0.086037 0.596229 0.928926
Si Si6 0.254633 0.257786 0.813972
Si Si7 0.042955 0.891475 0.872159
Si Si8 0.500000 0.248628 0.250000
O O1 0.651449 0.317299 0.243337
O O2 0.491414 0.208774 0.474890
O O3 0.680729 0.221459 0.330662
O O4 0.551974 0.392399 0.467036
O O5 0.762382 0.544944 0.549936
O O6 0.554742 0.500844 0.810808
O O7 0.590535 0.670798 0.685870
O O8 0.442778 0.839012 0.865536
O O9 0.443466 0.071935 0.882921
O O10 0.359682 0.938842 0.062046
O O11 0.500000 0.749211 0.250000
O O12 0.324238 0.750534 0.534687
O O13 0.517774 0.724901 0.356872
O O14 0.178255 0.639165 0.775193
O O15 0.000000 0.500000 0.000000
O O16 0.338656 0.363978 0.728639
#
# Coordination Sequence:
#
# PCOD9277475 Si02
#       8
#     8   8   8   8   8   8   8   4
#     4  10  21  39  66 100 134 178 223 289 360 413
#     4  12  24  45  68  96 141 184 230 288 359 421
#     4  12  23  47  70  94 140 191 233 291 349 421
#     4  11  24  44  70  99 138 190 238 289 354 418
#     4  11  22  39  70 103 139 177 237 296 349 425
#     4  10  20  41  64 102 135 173 236 284 358 415
#     4  10  23  40  68 101 138 173 229 294 355 422
#     4  12  28  46  66 100 140 190 244 280 348 444
#
# _framework density 21.348217000000002
#
# number of rings (size 3 to 8) (size 9 to 14) (size 15 to 20)
#    0.000    1.067    4.667    3.200    0.933    0.533 
#    0.000    2.667    0.000    0.000    0.000    0.000 
#    0.000    0.000    0.000    0.000    0.000    0.000 
#
# Total GULP energy -167480.416302 kJ/mol
# GULP energy per Si atom -5582.680543 kJ/mol
# Density = 2.129963 g / cm^3
# Si number density = 21.348217 Si / 1000 Ang^3
#
#
#
# Elastic Constant Matrix: (Units=GPa)
#
#
# Indices 1 2 3 4 5 6 
#
# 1 87.2391 25.0173 18.7833 0.0000 -2.3327 0.0000
# 2 25.0173 71.0621 1.5086 0.0000 -1.6293 0.0000
# 3 18.7833 1.5086 52.6435 0.0000 3.4225 0.0000
# 4 0.0000 0.0000 0.0000 33.4683 0.0000 5.3327
# 5 -2.3327 -1.6293 3.4225 0.0000 35.9685 0.0000
# 6 0.0000 0.0000 0.0000 5.3327 0.0000 20.6759
#
#
#
# Elastic Compliance Matrix: (Units=1/GPa)
#
#
# Indices 1 2 3 4 5 6 
#
# 1 0.013917 -0.004769 -0.004904 0.000000 0.001153 0.000000
# 2 -0.004769 0.015731 0.001232 0.000000 0.000286 0.000000
# 3 -0.004904 0.001232 0.020856 0.000000 -0.002247 0.000000
# 4 0.000000 0.000000 0.000000 0.031160 0.000000 -0.008037
# 5 0.001153 0.000286 -0.002247 0.000000 0.028104 0.000000
# 6 0.000000 0.000000 0.000000 -0.008037 0.000000 0.050438
#
#
# Mechanical properties :
#
#
# Convention : Reuss Voigt Hill
#
# Bulk Modulus (GPa) = 29.74127 33.50699 31.62413
# Shear Modulus (GPa) = 26.55406 29.06492 27.80949
#
# Velocity S-wave (km/s) = 3.53066 3.69381 3.61316
# Velocity P-wave (km/s) = 5.53014 5.82425 5.67910
#
# Compressibility (1/GPa) = 0.03362331
#
# Stress axis : x y z
#
# Youngs Moduli (GPa) = 71.85455 63.56681 47.94742
#
# Poissons Ratio (x) = 0.30314 0.23513
# Poissons Ratio (y) = 0.34267 -0.05908
# Poissons Ratio (z) = 0.35237 -0.07832
#
# Static dielectric constant tensor:
#      x y z
#    x 1.762690 0.000000 0.001050 
#    y 0.000000 1.811990 0.000000 
#    z 0.001050 0.000000 1.818010 
# 
# From -- ./inp_files/255533.got.cif
#   From: 2010.05.17/outbox.cif.g08.bks.cpg/sg15_128_cif.got.tgz:255533.got - 2010.06.03 18:47:42.
