data_PCOD9277620
_publ_section_title
;
Structure prediction by ZEFSAII (Michael W. Deem and Ramdas Pophale) SiO2 
 PCOD9277620
Probable space group: C 2/C
;
_chemical_formula_sum "Si O2"
_cell_formula_units_Z 44
_cell_length_a 7.849266
_cell_length_b 18.481316
_cell_length_c 14.352692
_cell_angle_alpha 90.000000
_cell_angle_beta 120.782197
_cell_angle_gamma 90.000000
_cell_volume 1788.745720
_symmetry_space_group_name_H-M "C 2/C"
_symmetry_group_IT_number 15
_symmetry_cell_setting 'monoclinic'
loop_
_space_group_symop_operation_xyz
x,y,z
-x,y,1/2-z
-x,-y,-z
x,-y,1/2+z
1/2+x,1/2+y,z
1/2-x,1/2+y,1/2-z
1/2-x,1/2-y,-z
1/2+x,1/2-y,1/2+z
loop_
_atom_site_type_symbol
_atom_site_label
_atom_site_fract_x
_atom_site_fract_y
_atom_site_fract_z
Si Si1 0.270493 0.861963 0.182034
Si Si2 0.752179 0.336245 0.392947
Si Si3 0.500000 0.123827 0.250000
Si Si4 0.733983 0.999861 0.591491
Si Si5 0.844560 0.979286 0.839638
Si Si6 0.940571 0.729231 0.401335
O O1 0.500000 0.878233 0.250000
O O2 0.221450 0.838505 0.274520
O O3 0.223304 0.787726 0.115346
O O4 0.177593 0.938873 0.128584
O O5 0.710042 0.417235 0.411161
O O6 0.609565 0.281577 0.405695
O O7 0.971543 0.314327 0.487165
O O8 0.315892 0.075380 0.161133
O O9 0.408871 0.172657 0.307950
O O10 0.764016 0.985288 0.710045
O O11 0.922606 0.957653 0.598802
O O12 0.500000 0.000000 0.500000
#
# Coordination Sequence:
#
# PCOD9277620 Si02
#       6
#     8   8   4   8   8   8
#     4  11  21  42  67  93 130 180 220 272 336 405
#     4  10  21  40  66  92 124 177 224 266 335 400
#     4  12  22  42  64 104 136 170 222 286 332 384
#     4  10  20  41  66  92 129 179 223 272 330 403
#     4  10  22  39  67  94 132 175 223 271 339 393
#     4  11  22  40  66  93 132 175 218 276 334 400
#
# _framework density 24.598243
#
# number of rings (size 3 to 8) (size 9 to 14) (size 15 to 20)
#    0.000    1.455    4.545    1.091    0.000    0.727 
#    6.545   10.909    0.000    0.000    0.000    0.000 
#    0.000    0.000    0.000    0.000    0.000    0.000 
#
# Total GULP energy -122793.706859 kJ/mol
# GULP energy per Si atom -5581.532130 kJ/mol
# Density = 2.454226 g / cm^3
# Si number density = 24.598243 Si / 1000 Ang^3
#
#
#
# Elastic Constant Matrix: (Units=GPa)
#
#
# Indices 1 2 3 4 5 6 
#
# 1 86.7309 7.7719 21.3939 0.0000 31.3178 0.0000
# 2 7.7719 93.1981 -5.1167 0.0000 1.4823 0.0000
# 3 21.3939 -5.1167 104.8149 0.0000 5.5651 0.0000
# 4 0.0000 0.0000 0.0000 125.2420 0.0000 22.4114
# 5 31.3178 1.4823 5.5651 0.0000 42.6053 0.0000
# 6 0.0000 0.0000 0.0000 22.4114 0.0000 31.7380
#
#
#
# Elastic Compliance Matrix: (Units=1/GPa)
#
#
# Indices 1 2 3 4 5 6 
#
# 1 0.016606 -0.001353 -0.002830 0.000000 -0.011790 0.000000
# 2 -0.001353 0.010877 0.000780 0.000000 0.000514 0.000000
# 3 -0.002830 0.000780 0.010117 0.000000 0.000731 0.000000
# 4 0.000000 0.000000 0.000000 0.009139 0.000000 -0.006454
# 5 -0.011790 0.000514 0.000731 0.000000 0.032025 0.000000
# 6 0.000000 0.000000 0.000000 -0.006454 0.000000 0.036065
#
#
# Mechanical properties :
#
#
# Convention : Reuss Voigt Hill
#
# Bulk Modulus (GPa) = 32.47153 36.98245 34.72699
# Shear Modulus (GPa) = 37.90734 57.29669 47.60201
#
# Velocity S-wave (km/s) = 3.92989 4.83152 4.40384
# Velocity P-wave (km/s) = 5.81562 6.79647 6.32509
#
# Compressibility (1/GPa) = 0.03079621
#
# Stress axis : x y z
#
# Youngs Moduli (GPa) = 60.21758 91.93480 98.83944
#
# Poissons Ratio (x) = 0.12436 0.27968
# Poissons Ratio (y) = 0.08145 -0.07707
# Poissons Ratio (z) = 0.17039 -0.07169
#
# Static dielectric constant tensor:
#      x y z
#    x 2.194960 0.000000 0.138360 
#    y 0.000000 2.011020 0.000000 
#    z 0.138360 0.000000 2.121730 
# 
# From -- ./inp_files/134305.got.cif
#   From: 2010.05.17/outbox.cif.g08.bks.cpg/sg15_68_cif.got.tgz:134305.got - 2010.06.03 18:47:42.
