data_PCOD9277307
_publ_section_title
;
Structure prediction by ZEFSAII (Michael W. Deem and Ramdas Pophale) SiO2 
 PCOD9277307
Probable space group: C 2/C
;
_chemical_formula_sum "Si O2"
_cell_formula_units_Z 52
_cell_length_a 30.949484
_cell_length_b 8.149976
_cell_length_c 21.523037
_cell_angle_alpha 90.000000
_cell_angle_beta 23.789860
_cell_angle_gamma 90.000000
_cell_volume 2189.935269
_symmetry_space_group_name_H-M "C 2/C"
_symmetry_group_IT_number 15
_symmetry_cell_setting 'monoclinic'
loop_
_space_group_symop_operation_xyz
x,y,z
-x,y,1/2-z
-x,-y,-z
x,-y,1/2+z
1/2+x,1/2+y,z
1/2-x,1/2+y,1/2-z
1/2-x,1/2-y,-z
1/2+x,1/2-y,1/2+z
loop_
_atom_site_type_symbol
_atom_site_label
_atom_site_fract_x
_atom_site_fract_y
_atom_site_fract_z
Si Si1 0.561402 0.315702 0.342083
Si Si2 0.866776 0.249177 0.878604
Si Si3 0.210741 0.674267 0.893471
Si Si4 0.501985 0.333254 0.615228
Si Si5 0.082290 0.356309 0.376860
Si Si6 0.000000 0.052384 0.250000
Si Si7 0.721118 0.486418 0.311204
O O1 0.557902 0.217620 0.280820
O O2 0.671898 0.285737 0.232478
O O3 0.561819 0.503102 0.320108
O O4 0.464728 0.286422 0.516973
O O5 0.904111 0.073088 0.857776
O O6 0.750000 0.250000 0.000000
O O7 0.859869 0.353024 0.951453
O O8 0.217754 0.524082 0.835506
O O9 0.184696 0.838828 0.887390
O O10 0.437634 0.189287 0.667854
O O11 0.517567 0.336004 0.667646
O O12 0.620414 0.366856 0.433375
O O13 0.199235 0.407509 0.243276
O O14 0.000000 0.500000 0.500000
#
# Coordination Sequence:
#
# PCOD9277307 Si02
#       7
#     8   8   8   8   8   4   8
#     4  10  21  40  67  92 122 164 214 263 319 384
#     4   9  20  37  63  95 125 157 215 266 310 376
#     4  11  22  39  63  95 126 166 209 267 320 382
#     4  11  23  42  69  93 122 173 221 256 325 393
#     4  12  24  40  62  94 132 166 213 272 322 373
#     4  10  20  40  72  90 122 178 214 262 318 406
#     4  12  23  38  63  91 131 161 212 263 321 379
#
# _framework density 23.744996
#
# number of rings (size 3 to 8) (size 9 to 14) (size 15 to 20)
#    0.000    1.231    4.615    1.385    4.308    0.000 
#    0.000    0.769    6.769    0.000    0.000    0.000 
#    0.000    0.000    0.000    0.000    0.000    0.000 
#
# Total GULP energy -145187.219043 kJ/mol
# GULP energy per Si atom -5584.123809 kJ/mol
# Density = 2.369095 g / cm^3
# Si number density = 23.744996 Si / 1000 Ang^3
#
#
#
# Elastic Constant Matrix: (Units=GPa)
#
#
# Indices 1 2 3 4 5 6 
#
# 1 175.1650 32.8546 34.9602 0.0035 10.1157 0.0007
# 2 32.8546 40.8471 -2.6961 0.0014 8.3035 0.0022
# 3 34.9602 -2.6961 52.1931 -0.0045 13.6789 -0.0011
# 4 0.0035 0.0014 -0.0045 21.2228 0.0012 1.4341
# 5 10.1157 8.3035 13.6789 0.0012 63.9550 0.0011
# 6 0.0007 0.0022 -0.0011 1.4341 0.0011 36.8298
#
#
#
# Elastic Compliance Matrix: (Units=1/GPa)
#
#
# Indices 1 2 3 4 5 6 
#
# 1 0.008233 -0.007220 -0.006136 -0.000002 0.000948 0.000000
# 2 -0.007220 0.031736 0.007687 0.000001 -0.004622 -0.000001
# 3 -0.006136 0.007687 0.025080 0.000006 -0.005392 0.000000
# 4 -0.000002 0.000001 0.000006 0.047243 -0.000002 -0.001840
# 5 0.000948 -0.004622 -0.005392 -0.000002 0.017239 0.000000
# 6 0.000000 -0.000001 0.000000 -0.001840 0.000000 0.027224
#
#
# Mechanical properties :
#
#
# Convention : Reuss Voigt Hill
#
# Bulk Modulus (GPa) = 18.61835 44.27141 31.44488
# Shear Modulus (GPa) = 26.88232 37.94062 32.41147
#
# Velocity S-wave (km/s) = 3.36836 4.00163 3.69857
# Velocity P-wave (km/s) = 4.79435 6.32738 5.61344
#
# Compressibility (1/GPa) = 0.05371046
#
# Stress axis : x y z
#
# Youngs Moduli (GPa) = 121.46312 31.51044 39.87287
#
# Poissons Ratio (x) = 0.22749 0.24466
# Poissons Ratio (y) = 0.87692 -0.30649
# Poissons Ratio (z) = 0.74528 -0.24221
#
# Static dielectric constant tensor:
#      x y z
#    x 1.926550 -0.000010 0.065470 
#    y -0.000010 2.018810 -0.000010 
#    z 0.065470 -0.000010 2.038000 
# 
# From -- ./inp_files/258825.got.cif
#   From: 2010.05.17/outbox.cif.g08.bks.cpg/sg15_130_cif.got.tgz:258825.got - 2010.06.03 18:47:42.
