data_PCOD9277676
_publ_section_title
;
Structure prediction by ZEFSAII (Michael W. Deem and Ramdas Pophale) SiO2 
 PCOD9277676
Probable space group: C 2/C
;
_chemical_formula_sum "Si O2"
_cell_formula_units_Z 52
_cell_length_a 15.571791
_cell_length_b 7.585352
_cell_length_c 19.063671
_cell_angle_alpha 90.000000
_cell_angle_beta 81.713920
_cell_angle_gamma 90.000000
_cell_volume 2228.247030
_symmetry_space_group_name_H-M "C 2/C"
_symmetry_group_IT_number 15
_symmetry_cell_setting 'monoclinic'
loop_
_space_group_symop_operation_xyz
x,y,z
-x,y,1/2-z
-x,-y,-z
x,-y,1/2+z
1/2+x,1/2+y,z
1/2-x,1/2+y,1/2-z
1/2-x,1/2-y,-z
1/2+x,1/2-y,1/2+z
loop_
_atom_site_type_symbol
_atom_site_label
_atom_site_fract_x
_atom_site_fract_y
_atom_site_fract_z
Si Si1 0.455471 0.880759 0.403352
Si Si2 0.918830 0.033708 0.936176
Si Si3 0.667889 0.600185 0.279417
Si Si4 0.784570 0.855236 0.350694
Si Si5 0.866046 0.506351 0.542652
Si Si6 0.500000 0.825964 0.250000
Si Si7 0.384125 0.611863 0.579093
O O1 0.434129 0.670446 0.409971
O O2 0.385359 0.984577 0.458109
O O3 0.463965 0.930539 0.321223
O O4 0.547549 0.917168 0.430290
O O5 0.873947 0.147014 0.881643
O O6 0.864263 0.013911 0.014725
O O7 0.011494 0.120372 0.939063
O O8 0.703394 0.517039 0.204266
O O9 0.581529 0.713206 0.270660
O O10 0.640045 0.461714 0.342595
O O11 0.746188 0.704749 0.306414
O O12 0.713804 0.885975 0.419290
O O13 0.849650 0.306221 0.570304
#
# Coordination Sequence:
#
# PCOD9277676 Si02
#       7
#     8   8   8   8   8   4   8
#     4  10  20  41  67  92 121 179 214 256 320 402
#     4  10  21  40  66  89 130 167 217 260 331 386
#     4  12  24  42  66  90 136 172 220 269 342 387
#     4  12  24  43  60  96 128 173 211 285 330 385
#     4  10  22  40  66  94 129 160 225 269 315 391
#     4  12  20  44  70  86 120 184 212 258 322 414
#     4  10  21  41  63  95 122 172 214 262 315 413
#
# _framework density 23.336731
#
# number of rings (size 3 to 8) (size 9 to 14) (size 15 to 20)
#    0.000    1.231    4.615    0.923    0.000    3.077 
#    5.538    0.769    0.000    0.000    0.000    0.000 
#    0.000    0.000    0.000    0.000    0.000    0.000 
#
# Total GULP energy -145427.437208 kJ/mol
# GULP energy per Si atom -5593.362970 kJ/mol
# Density = 2.328362 g / cm^3
# Si number density = 23.336731 Si / 1000 Ang^3
#
#
#
# Elastic Constant Matrix: (Units=GPa)
#
#
# Indices 1 2 3 4 5 6 
#
# 1 34.0775 7.8629 26.1025 0.0000 12.8735 0.0000
# 2 7.8629 45.7262 26.3923 0.0000 11.3218 0.0000
# 3 26.1025 26.3923 170.5311 0.0000 -1.4382 0.0000
# 4 0.0000 0.0000 0.0000 39.2180 0.0000 -1.5786
# 5 12.8735 11.3218 -1.4382 0.0000 39.7241 0.0000
# 6 0.0000 0.0000 0.0000 -1.5786 0.0000 4.9185
#
#
#
# Elastic Compliance Matrix: (Units=1/GPa)
#
#
# Indices 1 2 3 4 5 6 
#
# 1 0.038812 -0.000017 -0.006046 0.000000 -0.012792 0.000000
# 2 -0.000017 0.026119 -0.004104 0.000000 -0.007587 0.000000
# 3 -0.006046 -0.004104 0.007453 0.000000 0.003399 0.000000
# 4 0.000000 0.000000 0.000000 0.025832 0.000000 0.008291
# 5 -0.012792 -0.007587 0.003399 0.000000 0.031605 0.000000
# 6 0.000000 0.000000 0.000000 0.008291 0.000000 0.205973
#
#
# Mechanical properties :
#
#
# Convention : Reuss Voigt Hill
#
# Bulk Modulus (GPa) = 19.21181 41.22782 30.21982
# Shear Modulus (GPa) = 13.38760 29.43727 21.41244
#
# Velocity S-wave (km/s) = 2.39774 3.55549 3.03238
# Velocity P-wave (km/s) = 3.98947 5.87879 5.02375
#
# Compressibility (1/GPa) = 0.05205132
#
# Stress axis : x y z
#
# Youngs Moduli (GPa) = 25.76495 38.28562 134.16934
#
# Poissons Ratio (x) = 0.00065 0.81120
# Poissons Ratio (y) = 0.00044 0.55060
# Poissons Ratio (z) = 0.15578 0.15712
#
# Static dielectric constant tensor:
#      x y z
#    x 1.907330 0.000000 0.009930 
#    y 0.000000 1.906130 0.000000 
#    z 0.009930 0.000000 1.881270 
# 
# From -- ./inp_files/209102.got.cif
#   From: 2010.05.17/outbox.cif.g08.bks.cpg/sg15_105_cif.got.tgz:209102.got - 2010.06.03 18:47:42.
