data_PCOD9277756
_publ_section_title
;
Structure prediction by ZEFSAII (Michael W. Deem and Ramdas Pophale) SiO2 
 PCOD9277756
Probable space group: C 2/C
;
_chemical_formula_sum "Si O2"
_cell_formula_units_Z 40
_cell_length_a 18.824300
_cell_length_b 21.512654
_cell_length_c 13.509985
_cell_angle_alpha 90.000000
_cell_angle_beta 19.143028
_cell_angle_gamma 90.000000
_cell_volume 1794.095097
_symmetry_space_group_name_H-M "C 2/C"
_symmetry_group_IT_number 15
_symmetry_cell_setting 'monoclinic'
loop_
_space_group_symop_operation_xyz
x,y,z
-x,y,1/2-z
-x,-y,-z
x,-y,1/2+z
1/2+x,1/2+y,z
1/2-x,1/2+y,1/2-z
1/2-x,1/2-y,-z
1/2+x,1/2-y,1/2+z
loop_
_atom_site_type_symbol
_atom_site_label
_atom_site_fract_x
_atom_site_fract_y
_atom_site_fract_z
Si Si1 0.967847 0.881620 0.680738
Si Si2 0.616078 0.059001 0.891975
Si Si3 0.500000 0.845277 0.250000
Si Si4 0.079764 0.810423 0.336499
Si Si5 0.110117 0.681311 0.391634
Si Si6 0.000000 0.385163 0.750000
O O1 0.000000 0.857598 0.750000
O O2 0.124363 0.941354 0.465921
O O3 0.061549 0.837228 0.472076
O O4 0.714460 0.885976 0.988766
O O5 0.522731 0.120471 0.961492
O O6 0.554887 0.071074 0.085684
O O7 0.500000 0.000000 0.000000
O O8 0.456129 0.805049 0.406597
O O9 0.071269 0.736813 0.366157
O O10 0.866667 0.830467 0.558099
O O11 0.293631 0.839801 0.008216
#
# Coordination Sequence:
#
# PCOD9277756 Si02
#       6
#     8   8   4   8   8   4
#     4  10  20  41  68  97 138 175 224 287 344 406
#     4  11  25  47  70  98 136 188 236 284 349 415
#     4  10  22  37  68 102 142 177 224 280 352 412
#     4  10  23  39  68 103 135 180 229 286 357 415
#     4  11  23  40  65 104 139 180 230 285 357 415
#     4  10  24  49  68  94 140 181 236 296 342 424
#
# _framework density 22.295361
#
# number of rings (size 3 to 8) (size 9 to 14) (size 15 to 20)
#    0.000    1.600    2.000    2.400    1.400    6.400 
#    3.600    5.000    0.000    0.000    0.000    0.000 
#    0.000    0.000    0.000    0.000    0.000    0.000 
#
# Total GULP energy -111785.390911 kJ/mol
# GULP energy per Si atom -5589.269546 kJ/mol
# Density = 2.224462 g / cm^3
# Si number density = 22.295361 Si / 1000 Ang^3
#
#
#
# Elastic Constant Matrix: (Units=GPa)
#
#
# Indices 1 2 3 4 5 6 
#
# 1 83.3723 10.7427 34.7754 -0.0379 -4.3131 0.0115
# 2 10.7427 74.3273 29.4607 -0.0819 -13.8735 0.0123
# 3 34.7754 29.4607 170.8122 -0.1081 -31.2521 0.0274
# 4 -0.0379 -0.0819 -0.1081 13.1515 0.0361 -6.5730
# 5 -4.3131 -13.8735 -31.2521 0.0361 42.1587 0.0093
# 6 0.0115 0.0123 0.0274 -6.5730 0.0093 24.0329
#
#
#
# Elastic Compliance Matrix: (Units=1/GPa)
#
#
# Indices 1 2 3 4 5 6 
#
# 1 0.013198 -0.001024 -0.002690 0.000013 -0.000981 0.000001
# 2 -0.001024 0.014945 -0.001722 0.000073 0.003537 0.000013
# 3 -0.002690 -0.001722 0.007572 0.000031 0.004771 0.000000
# 4 0.000013 0.000073 0.000031 0.088078 -0.000033 0.024089
# 5 -0.000981 0.003537 0.004771 -0.000033 0.028320 -0.000027
# 6 0.000001 0.000013 0.000000 0.024089 -0.000027 0.048198
#
#
# Mechanical properties :
#
#
# Convention : Reuss Voigt Hill
#
# Bulk Modulus (GPa) = 40.25392 53.16328 46.70860
# Shear Modulus (GPa) = 22.78291 32.77082 27.77687
#
# Velocity S-wave (km/s) = 3.20013 3.83802 3.53350
# Velocity P-wave (km/s) = 5.63458 6.59828 6.13538
#
# Compressibility (1/GPa) = 0.02484230
#
# Stress axis : x y z
#
# Youngs Moduli (GPa) = 75.77179 66.91297 132.06722
#
# Poissons Ratio (x) = 0.06855 0.35521
# Poissons Ratio (y) = 0.07762 0.22741
# Poissons Ratio (z) = 0.20380 0.11522
#
# Static dielectric constant tensor:
#      x y z
#    x 1.851000 -0.000010 0.013740 
#    y -0.000010 1.786160 0.000030 
#    z 0.013740 0.000030 1.857790 
# 
# From -- ./inp_files/169077.got.cif
#   From: 2010.05.17/outbox.cif.g08.bks.cpg/sg15_85_cif.got.tgz:169077.got - 2010.06.03 18:47:42.
