data_PCOD9277019
_publ_section_title
;
Structure prediction by ZEFSAII (Michael W. Deem and Ramdas Pophale) SiO2 
 PCOD9277019
Probable space group: C 2/C
;
_chemical_formula_sum "Si O2"
_cell_formula_units_Z 56
_cell_length_a 11.987935
_cell_length_b 13.943233
_cell_length_c 17.937148
_cell_angle_alpha 90.000000
_cell_angle_beta 68.746572
_cell_angle_gamma 90.000000
_cell_volume 2794.285194
_symmetry_space_group_name_H-M "C 2/C"
_symmetry_group_IT_number 15
_symmetry_cell_setting 'monoclinic'
loop_
_space_group_symop_operation_xyz
x,y,z
-x,y,1/2-z
-x,-y,-z
x,-y,1/2+z
1/2+x,1/2+y,z
1/2-x,1/2+y,1/2-z
1/2-x,1/2-y,-z
1/2+x,1/2-y,1/2+z
loop_
_atom_site_type_symbol
_atom_site_label
_atom_site_fract_x
_atom_site_fract_y
_atom_site_fract_z
Si Si1 0.871115 0.311256 0.474120
Si Si2 0.495711 0.344049 0.472123
Si Si3 0.673601 0.516854 0.407295
Si Si4 0.556596 0.960899 0.154516
Si Si5 0.632173 0.531562 0.751673
Si Si6 0.152356 0.576055 0.372487
Si Si7 0.577326 0.261738 0.302862
O O1 0.750000 0.250000 0.500000
O O2 0.973857 0.243263 0.481573
O O3 0.911006 0.357743 0.387433
O O4 0.851479 0.393872 0.540585
O O5 0.608293 0.418158 0.448647
O O6 0.381471 0.401210 0.527970
O O7 0.492115 0.304540 0.388885
O O8 0.815871 0.513752 0.374743
O O9 0.636114 0.522850 0.329827
O O10 0.500000 0.955999 0.250000
O O11 0.462795 0.015224 0.124538
O O12 0.500000 0.526127 0.750000
O O13 0.730617 0.484553 0.675405
O O14 0.655584 0.645124 0.761001
O O15 0.146709 0.674009 0.324317
O O16 0.500000 0.230630 0.250000
#
# Coordination Sequence:
#
# PCOD9277019 Si02
#       7
#     8   8   8   8   8   8   8
#     4  11  24  44  65  97 135 177 221 276 335 397
#     4   9  20  40  63  93 125 169 224 266 324 389
#     4  10  20  40  67  91 127 173 220 269 325 393
#     4  12  24  43  66  97 137 176 217 275 341 399
#     4  10  22  40  63  96 126 171 225 267 328 391
#     4  11  24  43  68  94 135 176 217 279 338 398
#     4   9  20  40  65  91 128 170 215 274 330 390
#
# _framework density 20.040903
#
# number of rings (size 3 to 8) (size 9 to 14) (size 15 to 20)
#    0.000    1.714    2.857    0.857    2.000    2.286 
#    5.143    2.857    0.000    0.000    0.000    0.000 
#    0.000    0.000    0.000    0.000    0.000    0.000 
#
# Total GULP energy -156432.568847 kJ/mol
# GULP energy per Si atom -5586.877459 kJ/mol
# Density = 1.999529 g / cm^3
# Si number density = 20.040903 Si / 1000 Ang^3
#
#
#
# Elastic Constant Matrix: (Units=GPa)
#
#
# Indices 1 2 3 4 5 6 
#
# 1 99.5008 24.3595 41.2267 0.0000 -19.7593 0.0000
# 2 24.3595 56.6185 32.7995 0.0000 -19.6236 0.0000
# 3 41.2267 32.7995 67.3787 0.0000 -21.0139 0.0000
# 4 0.0000 0.0000 0.0000 19.0128 0.0000 -10.3850
# 5 -19.7593 -19.6236 -21.0139 0.0000 32.4884 0.0000
# 6 0.0000 0.0000 0.0000 -10.3850 0.0000 17.4636
#
#
#
# Elastic Compliance Matrix: (Units=1/GPa)
#
#
# Indices 1 2 3 4 5 6 
#
# 1 0.013821 -0.000664 -0.007061 0.000000 0.003437 0.000000
# 2 -0.000664 0.026878 -0.009696 0.000000 0.009559 0.000000
# 3 -0.007061 -0.009696 0.025951 0.000000 0.006634 0.000000
# 4 0.000000 0.000000 0.000000 0.077898 0.000000 0.046323
# 5 0.003437 0.009559 0.006634 0.000000 0.042936 0.000000
# 6 0.000000 0.000000 0.000000 0.046323 0.000000 0.084809
#
#
# Mechanical properties :
#
#
# Convention : Reuss Voigt Hill
#
# Bulk Modulus (GPa) = 31.44002 46.69661 39.06831
# Shear Modulus (GPa) = 15.73617 22.13378 18.93498
#
# Velocity S-wave (km/s) = 2.80519 3.32690 3.07712
# Velocity P-wave (km/s) = 5.11997 6.17324 5.67111
#
# Compressibility (1/GPa) = 0.03180660
#
# Stress axis : x y z
#
# Youngs Moduli (GPa) = 72.35283 37.20482 38.53399
#
# Poissons Ratio (x) = 0.02472 0.27210
# Poissons Ratio (y) = 0.04807 0.37364
# Poissons Ratio (z) = 0.51090 0.36075
#
# Static dielectric constant tensor:
#      x y z
#    x 1.678560 0.000000 0.021570 
#    y 0.000000 1.736790 0.000000 
#    z 0.021570 0.000000 1.706130 
# 
# From -- ./inp_files/197746.got.cif
#   From: 2010.05.17/outbox.cif.g08.bks.cpg/sg15_99_cif.got.tgz:197746.got - 2010.06.03 18:47:42.
