data_PCOD9277694
_publ_section_title
;
Structure prediction by ZEFSAII (Michael W. Deem and Ramdas Pophale) SiO2 
 PCOD9277694
Probable space group: C 2/C
;
_chemical_formula_sum "Si O2"
_cell_formula_units_Z 40
_cell_length_a 16.577045
_cell_length_b 6.733630
_cell_length_c 15.032683
_cell_angle_alpha 90.000000
_cell_angle_beta 74.616401
_cell_angle_gamma 90.000000
_cell_volume 1617.882961
_symmetry_space_group_name_H-M "C 2/C"
_symmetry_group_IT_number 15
_symmetry_cell_setting 'monoclinic'
loop_
_space_group_symop_operation_xyz
x,y,z
-x,y,1/2-z
-x,-y,-z
x,-y,1/2+z
1/2+x,1/2+y,z
1/2-x,1/2+y,1/2-z
1/2-x,1/2-y,-z
1/2+x,1/2-y,1/2+z
loop_
_atom_site_type_symbol
_atom_site_label
_atom_site_fract_x
_atom_site_fract_y
_atom_site_fract_z
Si Si1 0.918100 0.582710 0.333945
Si Si2 0.009203 0.272832 0.970706
Si Si3 0.741946 0.316944 0.167823
Si Si4 0.175272 0.786096 0.680015
Si Si5 0.608225 0.548779 0.373832
O O1 0.947322 0.725136 0.404562
O O2 0.844556 0.702086 0.308574
O O3 0.875258 0.367518 0.365542
O O4 0.000000 0.546746 0.250000
O O5 0.095232 0.176043 0.910629
O O6 0.974756 0.151116 0.063764
O O7 0.000000 0.500000 0.000000
O O8 0.769908 0.338948 0.263330
O O9 0.730416 0.532646 0.126728
O O10 0.814687 0.175643 0.107770
O O11 0.114724 0.904158 0.767374
#
# Coordination Sequence:
#
# PCOD9277694 Si02
#       5
#     8   8   8   8   8
#     4  12  25  38  67 103 131 179 231 285 353 413
#     4  11  24  43  66  98 142 180 227 288 349 411
#     4  10  21  41  67  92 132 178 230 283 336 408
#     4  10  20  41  67  95 132 172 230 285 336 402
#     4   9  22  43  68  92 138 185 226 283 341 409
#
# _framework density 24.723666000000001
#
# number of rings (size 3 to 8) (size 9 to 14) (size 15 to 20)
#    1.200    0.400    2.000    2.400    0.000    9.600 
#    0.000    2.000    0.000    0.000    0.000    0.000 
#    0.000    0.000    0.000    0.000    0.000    0.000 
#
# Total GULP energy -111504.094986 kJ/mol
# GULP energy per Si atom -5575.204749 kJ/mol
# Density = 2.466739 g / cm^3
# Si number density = 24.723666 Si / 1000 Ang^3
#
#
#
# Elastic Constant Matrix: (Units=GPa)
#
#
# Indices 1 2 3 4 5 6 
#
# 1 88.0787 30.3162 2.5025 0.0000 -3.9638 0.0000
# 2 30.3162 143.8535 8.9211 0.0000 -8.1423 0.0000
# 3 2.5025 8.9211 43.2804 0.0000 -10.6285 0.0000
# 4 0.0000 0.0000 0.0000 34.1461 0.0000 -12.3781
# 5 -3.9638 -8.1423 -10.6285 0.0000 18.3080 0.0000
# 6 0.0000 0.0000 0.0000 -12.3781 0.0000 54.1602
#
#
#
# Elastic Compliance Matrix: (Units=1/GPa)
#
#
# Indices 1 2 3 4 5 6 
#
# 1 0.012286 -0.002508 0.000217 0.000000 0.001670 0.000000
# 2 -0.002508 0.007667 -0.000853 0.000000 0.002372 0.000000
# 3 0.000217 -0.000853 0.027042 0.000000 0.015367 0.000000
# 4 0.000000 0.000000 0.000000 0.031931 0.000000 0.007298
# 5 0.001670 0.002372 0.015367 0.000000 0.064958 0.000000
# 6 0.000000 0.000000 0.000000 0.007298 0.000000 0.020132
#
#
# Mechanical properties :
#
#
# Convention : Reuss Voigt Hill
#
# Bulk Modulus (GPa) = 24.56598 39.85467 32.21033
# Shear Modulus (GPa) = 27.19259 36.88772 32.04015
#
# Velocity S-wave (km/s) = 3.32001 3.86683 3.60381
# Velocity P-wave (km/s) = 4.96532 6.00763 5.51117
#
# Compressibility (1/GPa) = 0.04070669
#
# Stress axis : x y z
#
# Youngs Moduli (GPa) = 81.39511 130.42559 36.97939
#
# Poissons Ratio (x) = 0.32711 -0.00802
# Poissons Ratio (y) = 0.20414 0.03154
# Poissons Ratio (z) = -0.01765 0.11124
#
# Static dielectric constant tensor:
#      x y z
#    x 2.154620 0.000000 0.184650 
#    y 0.000000 2.145280 0.000000 
#    z 0.184650 0.000000 2.206950 
# 
# From -- ./inp_files/246200.got.cif
#   From: 2010.05.17/outbox.cif.g08.bks.cpg/sg15_124_cif.got.tgz:246200.got - 2010.06.03 18:47:42.
