data_PCOD9277481
_publ_section_title
;
Structure prediction by ZEFSAII (Michael W. Deem and Ramdas Pophale) SiO2 
 PCOD9277481
Probable space group: C 2/C
;
_chemical_formula_sum "Si O2"
_cell_formula_units_Z 56
_cell_length_a 18.281003
_cell_length_b 9.144195
_cell_length_c 18.113199
_cell_angle_alpha 90.000000
_cell_angle_beta 108.266644
_cell_angle_gamma 90.000000
_cell_volume 2875.312645
_symmetry_space_group_name_H-M "C 2/C"
_symmetry_group_IT_number 15
_symmetry_cell_setting 'monoclinic'
loop_
_space_group_symop_operation_xyz
x,y,z
-x,y,1/2-z
-x,-y,-z
x,-y,1/2+z
1/2+x,1/2+y,z
1/2-x,1/2+y,1/2-z
1/2-x,1/2-y,-z
1/2+x,1/2-y,1/2+z
loop_
_atom_site_type_symbol
_atom_site_label
_atom_site_fract_x
_atom_site_fract_y
_atom_site_fract_z
Si Si1 0.826915 0.649473 0.262036
Si Si2 0.501504 0.821459 0.661565
Si Si3 0.571527 0.681884 0.317058
Si Si4 0.806719 0.974866 0.200823
Si Si5 0.223680 0.915800 0.480423
Si Si6 0.450846 0.467946 0.057124
Si Si7 0.144195 0.521082 0.879807
O O1 0.911088 0.628195 0.325009
O O2 0.814779 0.822108 0.245767
O O3 0.758661 0.576120 0.285468
O O4 0.828623 0.571421 0.182691
O O5 0.500000 0.791759 0.750000
O O6 0.480295 0.676409 0.609539
O O7 0.436544 0.942900 0.624006
O O8 0.500000 0.745926 0.250000
O O9 0.613041 0.561910 0.278735
O O10 0.546109 0.601213 0.383724
O O11 0.628895 0.812661 0.353344
O O12 0.786321 0.942939 0.109392
O O13 0.250000 0.750000 0.500000
O O14 0.139753 0.943790 0.489007
O O15 0.290691 0.011117 0.537813
O O16 0.500000 0.500000 0.000000
#
# Coordination Sequence:
#
# PCOD9277481 Si02
#       7
#     8   8   8   8   8   8   8
#     4  11  22  39  62  94 122 161 217 266 307 378
#     4  10  20  41  64  86 123 169 208 257 320 377
#     4  11  23  42  63  93 125 164 208 261 321 377
#     4  11  24  40  66  93 127 170 211 261 327 380
#     4  11  21  45  66  88 129 178 209 257 331 388
#     4  11  24  40  64  93 123 167 214 260 315 385
#     4  11  22  40  66  91 126 167 209 260 319 382
#
# _framework density 19.476143
#
# number of rings (size 3 to 8) (size 9 to 14) (size 15 to 20)
#    0.000    1.143    2.857    6.000    0.000    6.857 
#    5.143    1.429    0.000    0.000    0.000    0.000 
#    0.000    0.000    0.000    0.000    0.000    0.000 
#
# Total GULP energy -156532.247028 kJ/mol
# GULP energy per Si atom -5590.437394 kJ/mol
# Density = 1.943181 g / cm^3
# Si number density = 19.476143 Si / 1000 Ang^3
#
#
#
# Elastic Constant Matrix: (Units=GPa)
#
#
# Indices 1 2 3 4 5 6 
#
# 1 123.2960 13.9428 40.5290 0.0000 -8.0553 0.0000
# 2 13.9428 66.4095 0.0386 0.0000 -16.6252 0.0000
# 3 40.5290 0.0386 32.4560 0.0000 17.0880 0.0000
# 4 0.0000 0.0000 0.0000 30.9082 0.0000 5.9254
# 5 -8.0553 -16.6252 17.0880 0.0000 33.6256 0.0000
# 6 0.0000 0.0000 0.0000 5.9254 0.0000 28.6411
#
#
#
# Elastic Compliance Matrix: (Units=1/GPa)
#
#
# Indices 1 2 3 4 5 6 
#
# 1 0.027057 0.002929 -0.051834 0.000000 0.034271 0.000000
# 2 0.002929 0.018446 -0.012084 0.000000 0.015963 0.000000
# 3 -0.051834 -0.012084 0.143678 0.000000 -0.091407 0.000000
# 4 0.000000 0.000000 0.000000 0.033690 0.000000 -0.006970
# 5 0.034271 0.015963 -0.091407 0.000000 0.092293 0.000000
# 6 0.000000 0.000000 0.000000 -0.006970 0.000000 0.036357
#
#
# Mechanical properties :
#
#
# Convention : Reuss Voigt Hill
#
# Bulk Modulus (GPa) = 14.88025 36.79803 25.83914
# Shear Modulus (GPa) = 10.08268 29.81175 19.94722
#
# Velocity S-wave (km/s) = 2.27776 3.91664 3.20376
# Velocity P-wave (km/s) = 3.81764 6.27601 5.19436
#
# Compressibility (1/GPa) = 0.06720319
#
# Stress axis : x y z
#
# Youngs Moduli (GPa) = 36.95907 54.21141 6.96001
#
# Poissons Ratio (x) = -0.15879 0.36077
# Poissons Ratio (y) = -0.10825 0.08410
# Poissons Ratio (z) = 1.91574 0.65508
#
# Static dielectric constant tensor:
#      x y z
#    x 1.708280 0.000000 0.032150 
#    y 0.000000 1.664960 0.000000 
#    z 0.032150 0.000000 1.690100 
# 
# From -- ./inp_files/209537.got.cif
#   From: 2010.05.17/outbox.cif.g08.bks.cpg/sg15_105_cif.got.tgz:209537.got - 2010.06.03 18:47:42.
