data_PCOD9277780
_publ_section_title
;
Structure prediction by ZEFSAII (Michael W. Deem and Ramdas Pophale) SiO2 
 PCOD9277780
Probable space group: C 2/C
;
_chemical_formula_sum "Si O2"
_cell_formula_units_Z 28
_cell_length_a 9.858004
_cell_length_b 10.872407
_cell_length_c 10.633966
_cell_angle_alpha 90.000000
_cell_angle_beta 71.363715
_cell_angle_gamma 90.000000
_cell_volume 1079.989496
_symmetry_space_group_name_H-M "C 2/C"
_symmetry_group_IT_number 15
_symmetry_cell_setting 'monoclinic'
loop_
_space_group_symop_operation_xyz
x,y,z
-x,y,1/2-z
-x,-y,-z
x,-y,1/2+z
1/2+x,1/2+y,z
1/2-x,1/2+y,1/2-z
1/2-x,1/2-y,-z
1/2+x,1/2-y,1/2+z
loop_
_atom_site_type_symbol
_atom_site_label
_atom_site_fract_x
_atom_site_fract_y
_atom_site_fract_z
Si Si1 0.986106 0.808063 0.943702
Si Si2 0.303430 0.900299 0.369509
Si Si3 0.801064 0.403932 0.089304
Si Si4 0.000000 0.980707 0.250000
O O1 0.892276 0.720689 0.879697
O O2 0.045169 0.922310 0.846482
O O3 0.113665 0.722153 0.954762
O O4 0.862819 0.856277 0.074077
O O5 0.343531 0.945702 0.218762
O O6 0.330611 0.999017 0.470967
O O7 0.629790 0.403665 0.154645
#
# Coordination Sequence:
#
# PCOD9277780 Si02
#       4
#     8   8   8   4
#     4  10  20  41  69  94 136 179 215 270 337 394
#     4  10  22  40  72  97 132 176 223 271 336 392
#     4  11  22  41  69 101 131 177 222 273 332 396
#     4  10  22  40  70  94 134 178 216 266 338 392
#
# _framework density 25.926176000000002
#
# number of rings (size 3 to 8) (size 9 to 14) (size 15 to 20)
#    0.000    1.714    2.857    0.857    0.000    4.571 
#    0.000    5.714    6.286    0.000    0.000    0.000 
#    0.000    0.000    0.000    0.000    0.000    0.000 
#
# Total GULP energy -78416.143397 kJ/mol
# GULP energy per Si atom -5601.153100 kJ/mol
# Density = 2.586717 g / cm^3
# Si number density = 25.926176 Si / 1000 Ang^3
#
#
#
# Elastic Constant Matrix: (Units=GPa)
#
#
# Indices 1 2 3 4 5 6 
#
# 1 146.7228 104.4658 45.8660 0.0000 -24.4879 0.0000
# 2 104.4658 156.0864 94.4293 0.0000 -8.5966 0.0000
# 3 45.8660 94.4293 196.5487 0.0000 4.3779 0.0000
# 4 0.0000 0.0000 0.0000 51.8667 0.0000 6.3370
# 5 -24.4879 -8.5966 4.3779 0.0000 53.6106 0.0000
# 6 0.0000 0.0000 0.0000 6.3370 0.0000 54.5323
#
#
#
# Elastic Compliance Matrix: (Units=1/GPa)
#
#
# Indices 1 2 3 4 5 6 
#
# 1 0.014538 -0.010354 0.001474 0.000000 0.004860 0.000000
# 2 -0.010354 0.016584 -0.005515 0.000000 -0.001620 0.000000
# 3 0.001474 -0.005515 0.007412 0.000000 -0.000817 0.000000
# 4 0.000000 0.000000 0.000000 0.019558 0.000000 -0.002273
# 5 0.004860 -0.001620 -0.000817 0.000000 0.020680 0.000000
# 6 0.000000 0.000000 0.000000 -0.002273 0.000000 0.018602
#
#
# Mechanical properties :
#
#
# Convention : Reuss Voigt Hill
#
# Bulk Modulus (GPa) = 102.64228 109.87557 106.25892
# Shear Modulus (GPa) = 38.63649 48.97502 43.80575
#
# Velocity S-wave (km/s) = 3.86456 4.35100 4.11498
# Velocity P-wave (km/s) = 7.71941 8.22884 7.97819
#
# Compressibility (1/GPa) = 0.00974257
#
# Stress axis : x y z
#
# Youngs Moduli (GPa) = 68.78589 60.30024 134.91934
#
# Poissons Ratio (x) = 0.62433 -0.19881
# Poissons Ratio (y) = 0.71219 0.74411
# Poissons Ratio (z) = -0.10136 0.33257
#
# Static dielectric constant tensor:
#      x y z
#    x 2.163700 0.000000 0.065250 
#    y 0.000000 1.941600 0.000000 
#    z 0.065250 0.000000 2.036330 
# 
# From -- ./inp_files/83479.got.cif
#   From: 2010.05.17/outbox.cif.g08.bks.cpg/sg15_42_cif.got.tgz:83479.got - 2010.06.03 18:47:42.
