data_PCOD9277720
_publ_section_title
;
Structure prediction by ZEFSAII (Michael W. Deem and Ramdas Pophale) SiO2 
 PCOD9277720
Probable space group: C 2/C
;
_chemical_formula_sum "Si O2"
_cell_formula_units_Z 60
_cell_length_a 24.502428
_cell_length_b 5.380989
_cell_length_c 18.901060
_cell_angle_alpha 90.000000
_cell_angle_beta 99.268428
_cell_angle_gamma 90.000000
_cell_volume 2459.518927
_symmetry_space_group_name_H-M "C 2/C"
_symmetry_group_IT_number 15
_symmetry_cell_setting 'monoclinic'
loop_
_space_group_symop_operation_xyz
x,y,z
-x,y,1/2-z
-x,-y,-z
x,-y,1/2+z
1/2+x,1/2+y,z
1/2-x,1/2+y,1/2-z
1/2-x,1/2-y,-z
1/2+x,1/2-y,1/2+z
loop_
_atom_site_type_symbol
_atom_site_label
_atom_site_fract_x
_atom_site_fract_y
_atom_site_fract_z
Si Si1 0.507272 0.531382 0.396854
Si Si2 0.607250 0.201490 0.474141
Si Si3 0.730469 0.098730 0.282591
Si Si4 0.118750 0.645218 0.720154
Si Si5 0.424119 0.921482 0.152550
Si Si6 0.000000 0.804870 0.250000
Si Si7 0.174230 0.962935 0.604776
Si Si8 0.417461 0.163297 0.411633
O O1 0.563385 0.391215 0.431129
O O2 0.529514 0.807893 0.389913
O O3 0.484681 0.472698 0.313482
O O4 0.458571 0.396940 0.430476
O O5 0.655792 0.329564 0.528660
O O6 0.621566 0.025583 0.410752
O O7 0.575783 0.038877 0.526584
O O8 0.741882 0.381214 0.260753
O O9 0.666475 0.035778 0.260674
O O10 0.761419 0.051373 0.363313
O O11 0.096489 0.759950 0.789247
O O12 0.145276 0.830065 0.667486
O O13 0.079021 0.478536 0.662276
O O14 0.453064 0.132260 0.205614
O O15 0.145116 0.231188 0.596339
#
# Coordination Sequence:
#
# PCOD9277720 Si02
#       8
#     8   8   8   8   8   4   8   8
#     4  11  23  37  61  86 124 172 213 258 322 382
#     4  10  24  40  56  89 130 172 214 264 318 398
#     4  10  20  41  68 103 131 167 220 293 344 398
#     4  10  22  39  64  96 126 165 216 277 337 396
#     4  11  23  39  59  89 132 166 214 264 327 395
#     4  10  22  36  54  84 122 160 204 258 310 378
#     4  10  22  37  65  93 123 164 220 271 333 391
#     4  11  21  40  64  88 124 170 219 264 321 395
#
# _framework density 24.395016999999999
#
# number of rings (size 3 to 8) (size 9 to 14) (size 15 to 20)
#    0.000    1.600    2.667    1.600    3.733    3.200 
#    0.000    0.667    0.000    3.200    0.000    0.000 
#    0.000    0.000    0.000    0.000    0.000    0.000 
#
# Total GULP energy -167432.503418 kJ/mol
# GULP energy per Si atom -5581.083447 kJ/mol
# Density = 2.433949 g / cm^3
# Si number density = 24.395017 Si / 1000 Ang^3
#
#
#
# Elastic Constant Matrix: (Units=GPa)
#
#
# Indices 1 2 3 4 5 6 
#
# 1 43.1105 6.1438 30.5787 0.0000 23.9733 0.0000
# 2 6.1438 58.6433 35.3429 0.0000 8.8426 0.0000
# 3 30.5787 35.3429 169.2143 0.0000 32.8117 0.0000
# 4 0.0000 0.0000 0.0000 48.1021 0.0000 8.7602
# 5 23.9733 8.8426 32.8117 0.0000 41.5704 0.0000
# 6 0.0000 0.0000 0.0000 8.7602 0.0000 20.5071
#
#
#
# Elastic Compliance Matrix: (Units=1/GPa)
#
#
# Indices 1 2 3 4 5 6 
#
# 1 0.035328 0.000872 -0.003046 0.000000 -0.018155 0.000000
# 2 0.000872 0.019572 -0.003944 0.000000 -0.001553 0.000000
# 3 -0.003046 -0.003944 0.008006 0.000000 -0.003724 0.000000
# 4 0.000000 0.000000 0.000000 0.022543 0.000000 -0.009630
# 5 -0.018155 -0.001553 -0.003724 0.000000 0.037795 0.000000
# 6 0.000000 0.000000 0.000000 -0.009630 0.000000 0.052877
#
#
# Mechanical properties :
#
#
# Convention : Reuss Voigt Hill
#
# Bulk Modulus (GPa) = 19.73570 46.12210 32.92890
# Shear Modulus (GPa) = 24.36084 35.29612 29.82848
#
# Velocity S-wave (km/s) = 3.16349 3.80788 3.50055
# Velocity P-wave (km/s) = 4.63154 6.18714 5.46497
#
# Compressibility (1/GPa) = 0.05066960
#
# Stress axis : x y z
#
# Youngs Moduli (GPa) = 28.30606 51.09279 124.90683
#
# Poissons Ratio (x) = -0.04455 0.38046
# Poissons Ratio (y) = -0.02468 0.49269
# Poissons Ratio (z) = 0.08622 0.20153
#
# Static dielectric constant tensor:
#      x y z
#    x 2.036060 0.000000 -0.079000 
#    y 0.000000 2.023270 0.000000 
#    z -0.079000 0.000000 1.950370 
# 
# From -- ./inp_files/223930.got.cif
#   From: 2010.05.17/outbox.cif.g08.bks.cpg/sg15_112_cif.got.tgz:223930.got - 2010.06.03 18:47:42.
