data_PCOD9277806
_publ_section_title
;
Structure prediction by ZEFSAII (Michael W. Deem and Ramdas Pophale) SiO2 
 PCOD9277806
Probable space group: C 2/C
;
_chemical_formula_sum "Si O2"
_cell_formula_units_Z 32
_cell_length_a 6.621789
_cell_length_b 17.791881
_cell_length_c 10.298323
_cell_angle_alpha 90.000000
_cell_angle_beta 84.751835
_cell_angle_gamma 90.000000
_cell_volume 1208.201195
_symmetry_space_group_name_H-M "C 2/C"
_symmetry_group_IT_number 15
_symmetry_cell_setting 'monoclinic'
loop_
_space_group_symop_operation_xyz
x,y,z
-x,y,1/2-z
-x,-y,-z
x,-y,1/2+z
1/2+x,1/2+y,z
1/2-x,1/2+y,1/2-z
1/2-x,1/2-y,-z
1/2+x,1/2-y,1/2+z
loop_
_atom_site_type_symbol
_atom_site_label
_atom_site_fract_x
_atom_site_fract_y
_atom_site_fract_z
Si Si1 0.326651 0.678083 0.077902
Si Si2 0.358206 0.975393 0.888616
Si Si3 0.794818 0.703012 0.136559
Si Si4 0.825197 0.637999 0.869646
O O1 0.197664 0.679227 0.217430
O O2 0.250000 0.750000 0.000000
O O3 0.557471 0.691889 0.109385
O O4 0.288639 0.590384 0.048588
O O5 0.500000 0.963156 0.750000
O O6 0.399373 0.842925 0.513737
O O7 0.500000 0.000000 0.500000
O O8 0.757732 0.054121 0.634952
O O9 0.827333 0.792790 0.142021
O O10 0.000000 0.645447 0.750000
#
# Coordination Sequence:
#
# PCOD9277806 Si02
#       4
#     8   8   8   8
#     4  11  23  41  67 102 136 184 235 281 350 415
#     4  11  24  40  68 100 136 182 229 287 347 419
#     4  10  22  43  69  95 140 182 230 294 337 417
#     4  10  20  41  70  95 135 181 226 285 349 402
#
# _framework density 26.485654
#
# number of rings (size 3 to 8) (size 9 to 14) (size 15 to 20)
#    0.000    1.500    2.500    3.000    3.500    3.000 
#    0.000    0.000    0.000    0.000    0.000    0.000 
#    0.000    0.000    0.000    0.000    0.000    0.000 
#
# Total GULP energy -89233.174599 kJ/mol
# GULP energy per Si atom -5577.073412 kJ/mol
# Density = 2.642537 g / cm^3
# Si number density = 26.485654 Si / 1000 Ang^3
#
#
#
# Elastic Constant Matrix: (Units=GPa)
#
#
# Indices 1 2 3 4 5 6 
#
# 1 60.6211 35.0106 20.4019 0.0000 -15.5645 0.0000
# 2 35.0106 254.7277 21.2604 0.0000 -7.2753 0.0000
# 3 20.4019 21.2604 206.7754 0.0000 -4.1261 0.0000
# 4 0.0000 0.0000 0.0000 40.5194 0.0000 -8.7324
# 5 -15.5645 -7.2753 -4.1261 0.0000 36.1176 0.0000
# 6 0.0000 0.0000 0.0000 -8.7324 0.0000 18.1885
#
#
#
# Elastic Compliance Matrix: (Units=1/GPa)
#
#
# Indices 1 2 3 4 5 6 
#
# 1 0.020558 -0.002457 -0.001613 0.000000 0.008180 0.000000
# 2 -0.002457 0.004274 -0.000201 0.000000 -0.000221 0.000000
# 3 -0.001613 -0.000201 0.005013 0.000000 -0.000163 0.000000
# 4 0.000000 0.000000 0.000000 0.027528 0.000000 0.013216
# 5 0.008180 -0.000221 -0.000163 0.000000 0.031149 0.000000
# 6 0.000000 0.000000 0.000000 0.013216 0.000000 0.061325
#
#
# Mechanical properties :
#
#
# Convention : Reuss Voigt Hill
#
# Bulk Modulus (GPa) = 46.94345 75.05222 60.99783
# Shear Modulus (GPa) = 30.21329 48.66186 39.43757
#
# Velocity S-wave (km/s) = 3.38115 4.29101 3.86296
# Velocity P-wave (km/s) = 5.74504 7.27660 6.55570
#
# Compressibility (1/GPa) = 0.02130223
#
# Stress axis : x y z
#
# Youngs Moduli (GPa) = 48.64287 233.97271 199.49228
#
# Poissons Ratio (x) = 0.57495 0.32168
# Poissons Ratio (y) = 0.11953 0.04018
# Poissons Ratio (z) = 0.07844 0.04712
#
# Static dielectric constant tensor:
#      x y z
#    x 1.997460 0.000000 -0.237510 
#    y 0.000000 2.235400 0.000000 
#    z -0.237510 0.000000 1.883590 
# 
# From -- ./inp_files/22765.got.cif
#   From: 2010.05.17/outbox.cif.g08.bks.cpg/sg15_12_cif.got.tgz:22765.got - 2010.06.03 18:47:42.
