data_PCOD9277866
_publ_section_title
;
Structure prediction by ZEFSAII (Michael W. Deem and Ramdas Pophale) SiO2 
 PCOD9277866
Probable space group: C 2/C
;
_chemical_formula_sum "Si O2"
_cell_formula_units_Z 48
_cell_length_a 10.593848
_cell_length_b 9.602252
_cell_length_c 19.391263
_cell_angle_alpha 90.000000
_cell_angle_beta 75.439731
_cell_angle_gamma 90.000000
_cell_volume 1909.220653
_symmetry_space_group_name_H-M "C 2/C"
_symmetry_group_IT_number 15
_symmetry_cell_setting 'monoclinic'
loop_
_space_group_symop_operation_xyz
x,y,z
-x,y,1/2-z
-x,-y,-z
x,-y,1/2+z
1/2+x,1/2+y,z
1/2-x,1/2+y,1/2-z
1/2-x,1/2-y,-z
1/2+x,1/2-y,1/2+z
loop_
_atom_site_type_symbol
_atom_site_label
_atom_site_fract_x
_atom_site_fract_y
_atom_site_fract_z
Si Si1 0.527974 0.216613 0.137304
Si Si2 0.593862 0.934016 0.368351
Si Si3 0.424956 0.378372 0.649442
Si Si4 0.717070 0.278912 0.232235
Si Si5 0.366325 0.629975 0.563213
Si Si6 0.196369 0.898423 0.586464
O O1 0.651658 0.255185 0.165791
O O2 0.400388 0.267616 0.198906
O O3 0.500671 0.292983 0.068695
O O4 0.513962 0.050292 0.131291
O O5 0.549994 0.775979 0.387180
O O6 0.689719 0.912592 0.288884
O O7 0.684667 0.998407 0.415085
O O8 0.326274 0.340500 0.723817
O O9 0.360599 0.489320 0.607669
O O10 0.568045 0.431841 0.648388
O O11 0.254013 0.744695 0.592710
O O12 0.352608 0.595046 0.485159
#
# Coordination Sequence:
#
# PCOD9277866 Si02
#       6
#     8   8   8   8   8   8
#     4  10  20  42  58  83 123 152 197 242 289 360
#     4   9  22  38  59  87 114 151 198 241 289 346
#     4  10  22  35  61  88 111 154 196 236 295 341
#     4   9  22  36  61  84 116 153 194 241 297 338
#     4  10  22  38  64  83 120 162 189 240 300 340
#     4  10  21  43  56  89 122 150 199 242 285 357
#
# _framework density 25.14115
#
# number of rings (size 3 to 8) (size 9 to 14) (size 15 to 20)
#    1.000    1.333    0.000    1.500    4.667    0.667 
#    3.000    5.000    0.000    0.000    0.000    0.000 
#    0.000    0.000    0.000    0.000    0.000    0.000 
#
# Total GULP energy -133996.630606 kJ/mol
# GULP energy per Si atom -5583.192942 kJ/mol
# Density = 2.508393 g / cm^3
# Si number density = 25.141150 Si / 1000 Ang^3
#
#
#
# Elastic Constant Matrix: (Units=GPa)
#
#
# Indices 1 2 3 4 5 6 
#
# 1 74.7532 0.8303 11.3059 0.0000 10.0076 0.0000
# 2 0.8303 160.1481 12.6493 0.0000 12.0938 0.0000
# 3 11.3059 12.6493 37.0676 0.0000 20.5679 0.0000
# 4 0.0000 0.0000 0.0000 19.8827 0.0000 -0.8156
# 5 10.0076 12.0938 20.5679 0.0000 32.8403 0.0000
# 6 0.0000 0.0000 0.0000 -0.8156 0.0000 29.1206
#
#
#
# Elastic Compliance Matrix: (Units=1/GPa)
#
#
# Indices 1 2 3 4 5 6 
#
# 1 0.014173 0.000359 -0.003028 0.000000 -0.002555 0.000000
# 2 0.000359 0.006476 -0.001434 0.000000 -0.001596 0.000000
# 3 -0.003028 -0.001434 0.042278 0.000000 -0.025028 0.000000
# 4 0.000000 0.000000 0.000000 0.050353 0.000000 0.001410
# 5 -0.002555 -0.001596 -0.025028 0.000000 0.047492 0.000000
# 6 0.000000 0.000000 0.000000 0.001410 0.000000 0.034379
#
#
# Mechanical properties :
#
#
# Convention : Reuss Voigt Hill
#
# Bulk Modulus (GPa) = 18.27423 35.72667 27.00045
# Shear Modulus (GPa) = 22.56346 32.84763 27.70555
#
# Velocity S-wave (km/s) = 2.99903 3.61851 3.32324
# Velocity P-wave (km/s) = 4.39052 5.63023 5.04857
#
# Compressibility (1/GPa) = 0.05472188
#
# Stress axis : x y z
#
# Youngs Moduli (GPa) = 70.55508 154.41295 23.65309
#
# Poissons Ratio (x) = -0.05537 0.07161
# Poissons Ratio (y) = -0.02530 0.03391
# Poissons Ratio (z) = 0.21362 0.22136
#
# Static dielectric constant tensor:
#      x y z
#    x 1.958300 0.000000 -0.021650 
#    y 0.000000 2.012970 0.000000 
#    z -0.021650 0.000000 2.037940 
# 
# From -- ./inp_files/267667.got.cif
#   From: 2010.05.17/outbox.cif.g08.bks.cpg/sg15_134_cif.got.tgz:267667.got - 2010.06.03 18:47:42.
