data_PCOD9277087
_publ_section_title
;
Structure prediction by ZEFSAII (Michael W. Deem and Ramdas Pophale) SiO2 
 PCOD9277087
Probable space group: C 2/C
;
_chemical_formula_sum "Si O2"
_cell_formula_units_Z 44
_cell_length_a 10.350389
_cell_length_b 29.654891
_cell_length_c 5.861517
_cell_angle_alpha 90.000000
_cell_angle_beta 96.211196
_cell_angle_gamma 90.000000
_cell_volume 1788.570830
_symmetry_space_group_name_H-M "C 2/C"
_symmetry_group_IT_number 15
_symmetry_cell_setting 'monoclinic'
loop_
_space_group_symop_operation_xyz
x,y,z
-x,y,1/2-z
-x,-y,-z
x,-y,1/2+z
1/2+x,1/2+y,z
1/2-x,1/2+y,1/2-z
1/2-x,1/2-y,-z
1/2+x,1/2-y,1/2+z
loop_
_atom_site_type_symbol
_atom_site_label
_atom_site_fract_x
_atom_site_fract_y
_atom_site_fract_z
Si Si1 0.317846 0.331947 0.148071
Si Si2 0.500000 0.418727 0.750000
Si Si3 0.650391 0.985625 0.801336
Si Si4 0.385463 0.188266 0.550488
Si Si5 0.000000 0.916263 0.250000
Si Si6 0.210224 0.615951 0.254211
Si Si7 0.500000 0.740318 0.750000
O O1 0.252228 0.309021 0.350800
O O2 0.381720 0.380224 0.220724
O O3 0.420991 0.295504 0.078525
O O4 0.210573 0.345818 0.946595
O O5 0.501081 0.441055 0.495890
O O6 0.635974 0.390916 0.776289
O O7 0.500000 0.001167 0.750000
O O8 0.659860 0.932005 0.823930
O O9 0.706485 0.996199 0.555512
O O10 0.500000 0.193754 0.750000
O O11 0.379050 0.137012 0.456619
O O12 0.407956 0.226186 0.368782
#
# Coordination Sequence:
#
# PCOD9277087 Si02
#       7
#     8   4   8   8   4   8   4
#     4  10  23  43  67  94 141 191 242 300 365 431
#     4  10  20  40  68 102 136 182 238 295 350 419
#     4  10  25  46  74 110 151 187 229 298 369 441
#     4  12  26  41  66 101 140 193 244 310 362 434
#     4   9  18  38  62  97 128 184 238 290 344 417
#     4  11  25  44  74 103 140 191 247 293 366 446
#     4  11  26  46  64 103 142 192 250 309 370 422
#
# _framework density 24.600645
#
# number of rings (size 3 to 8) (size 9 to 14) (size 15 to 20)
#    0.000    1.455    1.818    1.636    6.364    5.091 
#    3.273    0.909    0.000    0.000    0.000    0.000 
#    0.000    0.000    0.000    0.000    0.000    0.000 
#
# Total GULP energy -122695.011149 kJ/mol
# GULP energy per Si atom -5577.045961 kJ/mol
# Density = 2.454465 g / cm^3
# Si number density = 24.600645 Si / 1000 Ang^3
#
#
#
# Elastic Constant Matrix: (Units=GPa)
#
#
# Indices 1 2 3 4 5 6 
#
# 1 41.0353 6.9628 2.5216 0.0000 -10.9548 0.0000
# 2 6.9628 95.4773 36.2707 0.0000 0.7621 0.0000
# 3 2.5216 36.2707 157.4387 0.0000 -8.4581 0.0000
# 4 0.0000 0.0000 0.0000 17.4649 0.0000 2.1396
# 5 -10.9548 0.7621 -8.4581 0.0000 33.5264 0.0000
# 6 0.0000 0.0000 0.0000 2.1396 0.0000 22.7730
#
#
#
# Elastic Compliance Matrix: (Units=1/GPa)
#
#
# Indices 1 2 3 4 5 6 
#
# 1 0.027139 -0.002270 0.000575 0.000000 0.009064 0.000000
# 2 -0.002270 0.011697 -0.002750 0.000000 -0.001701 0.000000
# 3 0.000575 -0.002750 0.007085 0.000000 0.002038 0.000000
# 4 0.000000 0.000000 0.000000 0.057924 0.000000 -0.005442
# 5 0.009064 -0.001701 0.002038 0.000000 0.033342 0.000000
# 6 0.000000 0.000000 0.000000 -0.005442 0.000000 0.044423
#
#
# Mechanical properties :
#
#
# Convention : Reuss Voigt Hill
#
# Bulk Modulus (GPa) = 27.00329 42.82907 34.91618
# Shear Modulus (GPa) = 24.64941 31.29928 27.97435
#
# Velocity S-wave (km/s) = 3.16884 3.57079 3.37581
# Velocity P-wave (km/s) = 4.93855 5.86927 5.42391
#
# Compressibility (1/GPa) = 0.03703253
#
# Stress axis : x y z
#
# Youngs Moduli (GPa) = 36.84745 85.48855 141.13378
#
# Poissons Ratio (x) = 0.19406 -0.08119
# Poissons Ratio (y) = 0.08364 0.38811
# Poissons Ratio (z) = -0.02120 0.23509
#
# Static dielectric constant tensor:
#      x y z
#    x 2.020100 0.000000 -0.025990 
#    y 0.000000 1.845020 0.000000 
#    z -0.025990 0.000000 2.155490 
# 
# From -- ./inp_files/5888.got.cif
#   From: 2010.05.17/outbox.cif.g08.bks.cpg/sg15_3_cif.got.tgz:5888.got - 2010.06.03 18:47:42.
