data_PCOD9277428
_publ_section_title
;
Structure prediction by ZEFSAII (Michael W. Deem and Ramdas Pophale) SiO2 
 PCOD9277428
Probable space group: C 2/C
;
_chemical_formula_sum "Si O2"
_cell_formula_units_Z 48
_cell_length_a 5.132458
_cell_length_b 17.079907
_cell_length_c 24.632661
_cell_angle_alpha 90.000000
_cell_angle_beta 90.589916
_cell_angle_gamma 90.000000
_cell_volume 2159.231544
_symmetry_space_group_name_H-M "C 2/C"
_symmetry_group_IT_number 15
_symmetry_cell_setting 'monoclinic'
loop_
_space_group_symop_operation_xyz
x,y,z
-x,y,1/2-z
-x,-y,-z
x,-y,1/2+z
1/2+x,1/2+y,z
1/2-x,1/2+y,1/2-z
1/2-x,1/2-y,-z
1/2+x,1/2-y,1/2+z
loop_
_atom_site_type_symbol
_atom_site_label
_atom_site_fract_x
_atom_site_fract_y
_atom_site_fract_z
Si Si1 0.222103 0.765058 0.388000
Si Si2 0.219396 0.158640 0.389225
Si Si3 0.240566 0.413461 0.044289
Si Si4 0.365647 0.460394 0.935118
Si Si5 0.971672 0.510931 0.354173
Si Si6 0.263725 0.128107 0.784045
O O1 0.480265 0.715471 0.375771
O O2 0.267466 0.823954 0.438235
O O3 0.178133 0.819517 0.335210
O O4 0.974558 0.710682 0.399674
O O5 0.313663 0.091275 0.347797
O O6 0.097059 0.103808 0.435964
O O7 0.525532 0.454010 0.050720
O O8 0.092197 0.461896 0.090630
O O9 0.173631 0.430132 0.981758
O O10 0.259766 0.463016 0.873181
O O11 0.899334 0.450625 0.307611
O O12 0.500000 0.166413 0.750000
O O13 0.000000 0.112627 0.750000
#
# Coordination Sequence:
#
# PCOD9277428 Si02
#       6
#     8   8   8   8   8   8
#     4  11  24  43  64  94 134 170 208 271 327 379
#     4  11  23  41  65  93 138 171 206 263 328 385
#     4   9  22  36  66  94 135 177 226 261 310 376
#     4  10  20  41  63 101 129 184 218 262 313 386
#     4  10  22  42  68  92 136 164 221 269 326 373
#     4  11  26  45  72  97 118 163 222 271 328 395
#
# _framework density 22.230129000000002
#
# number of rings (size 3 to 8) (size 9 to 14) (size 15 to 20)
#    0.000    1.667    1.667    1.500   11.667    1.333 
#    0.000    5.000    0.000    0.000    0.000    0.000 
#    0.000    0.000    0.000    0.000    0.000    0.000 
#
# Total GULP energy -133763.859363 kJ/mol
# GULP energy per Si atom -5573.494140 kJ/mol
# Density = 2.217953 g / cm^3
# Si number density = 22.230129 Si / 1000 Ang^3
#
#
#
# Elastic Constant Matrix: (Units=GPa)
#
#
# Indices 1 2 3 4 5 6 
#
# 1 108.3846 32.7338 24.9268 0.0000 22.5774 0.0000
# 2 32.7338 121.8970 18.3576 0.0000 13.2530 0.0000
# 3 24.9268 18.3576 67.5903 0.0000 15.5160 0.0000
# 4 0.0000 0.0000 0.0000 16.0046 0.0000 2.0591
# 5 22.5774 13.2530 15.5160 0.0000 31.5610 0.0000
# 6 0.0000 0.0000 0.0000 2.0591 0.0000 32.1426
#
#
#
# Elastic Compliance Matrix: (Units=1/GPa)
#
#
# Indices 1 2 3 4 5 6 
#
# 1 0.011716 -0.002109 -0.002285 0.000000 -0.006372 0.000000
# 2 -0.002109 0.009152 -0.001321 0.000000 -0.001685 0.000000
# 3 -0.002285 -0.001321 0.017465 0.000000 -0.006397 0.000000
# 4 0.000000 0.000000 0.000000 0.063001 0.000000 -0.004036
# 5 -0.006372 -0.001685 -0.006397 0.000000 0.040095 0.000000
# 6 0.000000 0.000000 0.000000 -0.004036 0.000000 0.031370
#
#
# Mechanical properties :
#
#
# Convention : Reuss Voigt Hill
#
# Bulk Modulus (GPa) = 37.17153 49.98982 43.58068
# Shear Modulus (GPa) = 25.88008 30.73188 28.30598
#
# Velocity S-wave (km/s) = 3.41572 3.72216 3.57223
# Velocity P-wave (km/s) = 5.68452 6.40381 6.05486
#
# Compressibility (1/GPa) = 0.02690231
#
# Stress axis : x y z
#
# Youngs Moduli (GPa) = 85.35045 109.26327 57.25739
#
# Poissons Ratio (x) = 0.23047 0.13085
# Poissons Ratio (y) = 0.18003 0.07564
# Poissons Ratio (z) = 0.19505 0.14435
#
# Static dielectric constant tensor:
#      x y z
#    x 1.981320 0.000000 0.011060 
#    y 0.000000 1.823670 0.000000 
#    z 0.011060 0.000000 1.872900 
# 
# From -- ./inp_files/285716.got.cif
#   From: 2010.05.17/outbox.cif.g08.bks.cpg/sg15_143_cif.got.tgz:285716.got - 2010.06.03 18:47:42.
