data_PCOD9277878
_publ_section_title
;
Structure prediction by ZEFSAII (Michael W. Deem and Ramdas Pophale) SiO2 
 PCOD9277878
Probable space group: C 2/C
;
_chemical_formula_sum "Si O2"
_cell_formula_units_Z 60
_cell_length_a 20.410795
_cell_length_b 7.731297
_cell_length_c 16.956682
_cell_angle_alpha 90.000000
_cell_angle_beta 97.220044
_cell_angle_gamma 90.000000
_cell_volume 2654.580002
_symmetry_space_group_name_H-M "C 2/C"
_symmetry_group_IT_number 15
_symmetry_cell_setting 'monoclinic'
loop_
_space_group_symop_operation_xyz
x,y,z
-x,y,1/2-z
-x,-y,-z
x,-y,1/2+z
1/2+x,1/2+y,z
1/2-x,1/2+y,1/2-z
1/2-x,1/2-y,-z
1/2+x,1/2-y,1/2+z
loop_
_atom_site_type_symbol
_atom_site_label
_atom_site_fract_x
_atom_site_fract_y
_atom_site_fract_z
Si Si1 0.000000 0.787731 0.250000
Si Si2 0.872537 0.773088 0.138632
Si Si3 0.290046 0.650232 0.877211
Si Si4 0.869244 0.394198 0.379697
Si Si5 0.048235 0.163050 0.002213
Si Si6 0.212169 0.568910 0.476743
Si Si7 0.761001 0.993342 0.210118
Si Si8 0.563435 0.764484 0.610311
O O1 0.066024 0.713991 0.299700
O O2 0.032883 0.858044 0.174341
O O3 0.900089 0.857454 0.061879
O O4 0.833825 0.606040 0.104641
O O5 0.822151 0.900304 0.175218
O O6 0.259795 0.579768 0.953694
O O7 0.279432 0.511675 0.804939
O O8 0.367602 0.680718 0.903458
O O9 0.257411 0.824182 0.834355
O O10 0.911948 0.231634 0.416166
O O11 0.834339 0.462042 0.455701
O O12 0.806421 0.381739 0.313172
O O13 0.916508 0.545619 0.355635
O O14 0.993052 0.297926 0.962621
O O15 0.000000 0.000000 0.000000
O O16 0.250000 0.750000 0.500000
#
# Coordination Sequence:
#
# PCOD9277878 Si02
#       8
#     4   8   8   8   8   8   8   8
#     4  10  20  42  60  88 122 176 210 256 322 380
#     4  10  21  40  62  88 127 168 212 265 321 388
#     4  11  25  38  68  98 126 175 212 276 329 390
#     4  10  23  40  63  94 125 168 208 278 321 386
#     4  10  23  37  63  89 126 171 215 260 318 381
#     4  11  23  40  65  95 133 167 210 275 335 382
#     4  11  22  41  64  95 131 162 221 271 332 390
#     4  10  22  39  65  88 128 165 219 259 321 393
#
# _framework density 22.602444999999999
#
# number of rings (size 3 to 8) (size 9 to 14) (size 15 to 20)
#    0.000    1.600    2.667    1.200    5.600    3.200 
#    0.000    0.000    0.000    0.800    0.000    0.000 
#    0.000    0.000    0.000    0.000    0.000    0.000 
#
# Total GULP energy -167141.014931 kJ/mol
# GULP energy per Si atom -5571.367164 kJ/mol
# Density = 2.255100 g / cm^3
# Si number density = 22.602445 Si / 1000 Ang^3
#
#
#
# Elastic Constant Matrix: (Units=GPa)
#
#
# Indices 1 2 3 4 5 6 
#
# 1 124.9638 24.8255 13.7119 0.0000 15.7032 0.0000
# 2 24.8255 76.7244 18.3518 0.0000 -7.2497 0.0000
# 3 13.7119 18.3518 41.5536 0.0000 6.7247 0.0000
# 4 0.0000 0.0000 0.0000 29.7183 0.0000 1.9175
# 5 15.7032 -7.2497 6.7247 0.0000 48.7975 0.0000
# 6 0.0000 0.0000 0.0000 1.9175 0.0000 23.2646
#
#
#
# Elastic Compliance Matrix: (Units=1/GPa)
#
#
# Indices 1 2 3 4 5 6 
#
# 1 0.009127 -0.002976 -0.001177 0.000000 -0.003217 0.000000
# 2 -0.002976 0.016023 -0.006786 0.000000 0.004273 0.000000
# 3 -0.001177 -0.006786 0.028181 0.000000 -0.004513 0.000000
# 4 0.000000 0.000000 0.000000 0.033829 0.000000 -0.002788
# 5 -0.003217 0.004273 -0.004513 0.000000 0.022785 0.000000
# 6 0.000000 0.000000 0.000000 -0.002788 0.000000 0.043214
#
#
# Mechanical properties :
#
#
# Convention : Reuss Voigt Hill
#
# Bulk Modulus (GPa) = 31.79270 39.66892 35.73081
# Shear Modulus (GPa) = 26.95108 32.77960 29.86534
#
# Velocity S-wave (km/s) = 3.45686 3.81237 3.63896
# Velocity P-wave (km/s) = 5.47994 6.08011 5.78781
#
# Compressibility (1/GPa) = 0.03145376
#
# Stress axis : x y z
#
# Youngs Moduli (GPa) = 109.56690 62.40843 35.48476
#
# Poissons Ratio (x) = 0.18570 0.04176
# Poissons Ratio (y) = 0.32603 0.24081
# Poissons Ratio (z) = 0.12895 0.42352
#
# Static dielectric constant tensor:
#      x y z
#    x 1.855920 0.000000 0.035220 
#    y 0.000000 1.932340 0.000000 
#    z 0.035220 0.000000 1.925730 
# 
# From -- ./inp_files/209587.got.cif
#   From: 2010.05.17/outbox.cif.g08.bks.cpg/sg15_105_cif.got.tgz:209587.got - 2010.06.03 18:47:42.
