data_PCOD9277052
_publ_section_title
;
Structure prediction by ZEFSAII (Michael W. Deem and Ramdas Pophale) SiO2 
 PCOD9277052
Probable space group: C 2/C
;
_chemical_formula_sum "Si O2"
_cell_formula_units_Z 36
_cell_length_a 11.482222
_cell_length_b 21.793970
_cell_length_c 14.088051
_cell_angle_alpha 90.000000
_cell_angle_beta 28.661556
_cell_angle_gamma 90.000000
_cell_volume 1690.923390
_symmetry_space_group_name_H-M "C 2/C"
_symmetry_group_IT_number 15
_symmetry_cell_setting 'monoclinic'
loop_
_space_group_symop_operation_xyz
x,y,z
-x,y,1/2-z
-x,-y,-z
x,-y,1/2+z
1/2+x,1/2+y,z
1/2-x,1/2+y,1/2-z
1/2-x,1/2-y,-z
1/2+x,1/2-y,1/2+z
loop_
_atom_site_type_symbol
_atom_site_label
_atom_site_fract_x
_atom_site_fract_y
_atom_site_fract_z
Si Si1 0.353276 0.306799 0.541601
Si Si2 0.000000 0.109998 0.250000
Si Si3 0.746800 0.356240 0.386876
Si Si4 0.472566 0.935847 0.073836
Si Si5 0.141503 0.664657 0.001397
O O1 0.611184 0.316150 0.405892
O O2 0.323367 0.340360 0.461220
O O3 0.308616 0.234191 0.567433
O O4 0.131434 0.333938 0.760656
O O5 0.936902 0.142980 0.393505
O O6 0.748185 0.076101 0.409929
O O7 0.000000 0.333315 0.250000
O O8 0.812543 0.420198 0.283563
O O9 0.372398 0.887003 0.068440
O O10 0.500000 0.000000 0.000000
#
# Coordination Sequence:
#
# PCOD9277052 Si02
#       5
#     8   4   8   8   8
#     4  10  20  40  67  95 132 162 219 277 329 390
#     4  10  22  46  60  92 136 166 220 268 304 400
#     4  10  22  42  67  94 130 171 213 266 325 382
#     4  11  24  42  65  97 130 176 218 263 330 390
#     4  10  21  39  65  98 128 167 212 278 334 381
#
# _framework density 21.290143
#
# number of rings (size 3 to 8) (size 9 to 14) (size 15 to 20)
#    0.000    1.778    2.222    1.333    0.000    5.333 
#   14.000    3.333    0.000    0.000    0.000    0.000 
#    0.000    0.000    0.000    0.000    0.000    0.000 
#
# Total GULP energy -100291.118566 kJ/mol
# GULP energy per Si atom -5571.728809 kJ/mol
# Density = 2.124169 g / cm^3
# Si number density = 21.290143 Si / 1000 Ang^3
#
#
#
# Elastic Constant Matrix: (Units=GPa)
#
#
# Indices 1 2 3 4 5 6 
#
# 1 173.8017 50.3664 27.6377 -0.0304 -9.6299 0.0047
# 2 50.3664 58.2323 8.5013 -0.0253 6.1915 0.0013
# 3 27.6377 8.5013 81.4819 -0.1286 25.7032 0.0220
# 4 -0.0304 -0.0253 -0.1286 4.6661 0.0414 4.8257
# 5 -9.6299 6.1915 25.7032 0.0414 49.8259 -0.0056
# 6 0.0047 0.0013 0.0220 4.8257 -0.0056 26.7094
#
#
#
# Elastic Compliance Matrix: (Units=1/GPa)
#
#
# Indices 1 2 3 4 5 6 
#
# 1 0.008755 -0.007523 -0.003599 -0.000154 0.004484 0.000031
# 2 -0.007523 0.023994 0.001730 0.000219 -0.005328 -0.000042
# 3 -0.003599 0.001730 0.016245 0.000653 -0.009291 -0.000133
# 4 -0.000154 0.000219 0.000653 0.263589 -0.000618 -0.047625
# 5 0.004484 -0.005328 -0.009291 -0.000618 0.026392 0.000124
# 6 0.000031 -0.000042 -0.000133 -0.047625 0.000124 0.046045
#
#
# Mechanical properties :
#
#
# Convention : Reuss Voigt Hill
#
# Bulk Modulus (GPa) = 33.10447 54.05853 43.58150
# Shear Modulus (GPa) = 12.08097 31.37432 21.72764
#
# Velocity S-wave (km/s) = 2.38469 3.84299 3.19807
# Velocity P-wave (km/s) = 4.81303 6.71847 5.84393
#
# Compressibility (1/GPa) = 0.03020740
#
# Stress axis : x y z
#
# Youngs Moduli (GPa) = 114.22501 41.67730 61.55760
#
# Poissons Ratio (x) = 0.31356 0.22155
# Poissons Ratio (y) = 0.85937 -0.10647
# Poissons Ratio (z) = 0.41111 -0.07208
#
# Static dielectric constant tensor:
#      x y z
#    x 1.834140 -0.000010 0.061540 
#    y -0.000010 1.751640 0.000010 
#    z 0.061540 0.000010 1.872970 
# 
# From -- ./inp_files/146970.got.cif
#   From: 2010.05.17/outbox.cif.g08.bks.cpg/sg15_74_cif.got.tgz:146970.got - 2010.06.03 18:47:42.
