data_PCOD9277504
_publ_section_title
;
Structure prediction by ZEFSAII (Michael W. Deem and Ramdas Pophale) SiO2 
 PCOD9277504
Probable space group: C 2/C
;
_chemical_formula_sum "Si O2"
_cell_formula_units_Z 60
_cell_length_a 7.809074
_cell_length_b 13.894969
_cell_length_c 27.112731
_cell_angle_alpha 90.000000
_cell_angle_beta 71.217408
_cell_angle_gamma 90.000000
_cell_volume 2785.251281
_symmetry_space_group_name_H-M "C 2/C"
_symmetry_group_IT_number 15
_symmetry_cell_setting 'monoclinic'
loop_
_space_group_symop_operation_xyz
x,y,z
-x,y,1/2-z
-x,-y,-z
x,-y,1/2+z
1/2+x,1/2+y,z
1/2-x,1/2+y,1/2-z
1/2-x,1/2-y,-z
1/2+x,1/2-y,1/2+z
loop_
_atom_site_type_symbol
_atom_site_label
_atom_site_fract_x
_atom_site_fract_y
_atom_site_fract_z
Si Si1 0.500000 0.126562 0.250000
Si Si2 0.023423 0.771476 0.891512
Si Si3 0.972036 0.237519 0.660195
Si Si4 0.347589 0.166298 0.522185
Si Si5 0.914867 0.636934 0.812772
Si Si6 0.840395 0.055621 0.883229
Si Si7 0.134457 0.626673 0.416441
Si Si8 0.724139 0.546817 0.339011
O O1 0.523698 0.191754 0.294921
O O2 0.312946 0.070866 0.277755
O O3 0.058990 0.711831 0.937811
O O4 0.176946 0.854111 0.871288
O O5 0.013582 0.706124 0.842853
O O6 0.826331 0.823555 0.912958
O O7 0.780727 0.183524 0.678208
O O8 0.965258 0.301392 0.611695
O O9 0.127717 0.156599 0.647586
O O10 0.250000 0.250000 0.500000
O O11 0.200986 0.090848 0.557137
O O12 0.500771 0.117044 0.474809
O O13 0.869723 0.533455 0.842340
O O14 0.000000 0.628503 0.750000
O O15 0.688695 0.975627 0.887175
O O16 0.029876 0.002921 0.857084
#
# Coordination Sequence:
#
# PCOD9277504 Si02
#       8
#     4   8   8   8   8   8   8   8
#     4  12  22  40  66  94 130 170 216 262 342 390
#     4  10  23  42  67  94 132 172 219 276 336 402
#     4  10  22  40  65  94 131 171 212 282 330 401
#     4  12  23  42  69  94 132 178 220 279 336 394
#     4  10  20  41  64  91 129 170 218 266 335 404
#     4  10  22  43  62  95 134 166 224 271 332 404
#     4  10  22  44  66  94 133 171 223 272 340 401
#     4  10  22  40  63  96 131 168 218 275 329 405
#
# _framework density 21.542043
#
# number of rings (size 3 to 8) (size 9 to 14) (size 15 to 20)
#    0.000    1.600    2.000    2.400    0.000    1.067 
#    7.200    1.333    1.467    0.000    0.000    0.000 
#    0.000    0.000    0.000    0.000    0.000    0.000 
#
# Total GULP energy -167298.517793 kJ/mol
# GULP energy per Si atom -5576.617260 kJ/mol
# Density = 2.149301 g / cm^3
# Si number density = 21.542043 Si / 1000 Ang^3
#
#
#
# Elastic Constant Matrix: (Units=GPa)
#
#
# Indices 1 2 3 4 5 6 
#
# 1 103.6713 35.2859 54.3698 0.0000 -20.8757 0.0000
# 2 35.2859 111.6481 39.1968 0.0000 -25.3848 0.0000
# 3 54.3698 39.1968 119.6954 0.0000 -37.1123 0.0000
# 4 0.0000 0.0000 0.0000 46.3093 0.0000 -17.1333
# 5 -20.8757 -25.3848 -37.1123 0.0000 37.4736 0.0000
# 6 0.0000 0.0000 0.0000 -17.1333 0.0000 -3.8996
#
#
#
# Elastic Compliance Matrix: (Units=1/GPa)
#
#
# Indices 1 2 3 4 5 6 
#
# 1 0.013199 -0.002213 -0.004987 0.000000 0.000915 0.000000
# 2 -0.002213 0.011232 -0.001005 0.000000 0.005381 0.000000
# 3 -0.004987 -0.001005 0.014253 0.000000 0.010657 0.000000
# 4 0.000000 0.000000 0.000000 0.008225 0.000000 -0.036136
# 5 0.000915 0.005381 0.010657 0.000000 0.041394 0.000000
# 6 0.000000 0.000000 0.000000 -0.036136 0.000000 -0.097670
#
#
# Mechanical properties :
#
#
# Convention : Reuss Voigt Hill
#
# Bulk Modulus (GPa) = 44.89300 65.85776 55.37538
# Shear Modulus (GPa) = 345.61787 29.72081 187.66934
#
# Velocity S-wave (km/s) = 12.68018 3.71841 9.34381
# Velocity P-wave (km/s) = 15.33844 7.00525 11.92353
#
# Compressibility (1/GPa) = 0.02227519
#
# Stress axis : x y z
#
# Youngs Moduli (GPa) = 75.76573 89.02978 70.16029
#
# Poissons Ratio (x) = 0.19698 0.34989
# Poissons Ratio (y) = 0.16763 0.07050
# Poissons Ratio (z) = 0.37785 0.08946
#
# Static dielectric constant tensor:
#      x y z
#    x 1.772600 0.000000 -0.041510 
#    y 0.000000 1.876360 0.000000 
#    z -0.041510 0.000000 1.792100 
# 
# From -- ./inp_files/264686.got.cif
#   From: 2010.05.17/outbox.cif.g08.bks.cpg/sg15_133_cif.got.tgz:264686.got - 2010.06.03 18:47:42.
