data_PCOD9277457
_publ_section_title
;
Structure prediction by ZEFSAII (Michael W. Deem and Ramdas Pophale) SiO2 
 PCOD9277457
Probable space group: C 2/C
;
_chemical_formula_sum "Si O2"
_cell_formula_units_Z 48
_cell_length_a 13.285615
_cell_length_b 5.281890
_cell_length_c 29.510770
_cell_angle_alpha 90.000000
_cell_angle_beta 112.503680
_cell_angle_gamma 90.000000
_cell_volume 1913.177865
_symmetry_space_group_name_H-M "C 2/C"
_symmetry_group_IT_number 15
_symmetry_cell_setting 'monoclinic'
loop_
_space_group_symop_operation_xyz
x,y,z
-x,y,1/2-z
-x,-y,-z
x,-y,1/2+z
1/2+x,1/2+y,z
1/2-x,1/2+y,1/2-z
1/2-x,1/2-y,-z
1/2+x,1/2-y,1/2+z
loop_
_atom_site_type_symbol
_atom_site_label
_atom_site_fract_x
_atom_site_fract_y
_atom_site_fract_z
Si Si1 0.932701 0.792687 0.784048
Si Si2 0.718421 0.203354 0.607074
Si Si3 0.065408 0.305120 0.541520
Si Si4 0.565565 0.556812 0.628940
Si Si5 0.270996 0.497979 0.973887
Si Si6 0.774895 0.559822 0.304963
O O1 0.885004 0.546015 0.800711
O O2 0.000000 0.748198 0.750000
O O3 0.986910 0.960542 0.833434
O O4 0.819799 0.916790 0.747524
O O5 0.604598 0.316985 0.606678
O O6 0.775303 0.404490 0.583558
O O7 0.771926 0.117316 0.663087
O O8 0.678564 0.954456 0.573536
O O9 0.013231 0.233835 0.581347
O O10 0.106301 0.061338 0.520718
O O11 0.000000 0.500000 0.500000
O O12 0.679999 0.688314 0.663388
O O13 0.250000 0.750000 0.000000
O O14 0.250000 0.250000 0.000000
#
# Coordination Sequence:
#
# PCOD9277457 Si02
#       6
#     8   8   8   8   8   8
#     4  11  22  39  66  97 127 178 235 289 364 438
#     4   9  20  39  64  90 132 183 224 274 370 411
#     4  10  21  40  68  96 135 185 231 290 357 429
#     4   9  20  39  65  89 134 179 228 291 362 427
#     4  11  21  39  62  95 130 176 229 285 339 419
#     4  10  20  41  63  91 134 174 223 299 353 421
#
# _framework density 25.089148000000002
#
# number of rings (size 3 to 8) (size 9 to 14) (size 15 to 20)
#    0.000    2.000    3.333    0.000    0.000    3.333 
#    3.000    3.333    0.000    0.000    0.000    0.000 
#    0.000    0.000    0.000    0.000    0.000    0.000 
#
# Total GULP energy -133678.439427 kJ/mol
# GULP energy per Si atom -5569.934976 kJ/mol
# Density = 2.503204 g / cm^3
# Si number density = 25.089148 Si / 1000 Ang^3
#
#
#
# Elastic Constant Matrix: (Units=GPa)
#
#
# Indices 1 2 3 4 5 6 
#
# 1 63.1762 21.9955 30.0191 0.0000 -32.2297 0.0000
# 2 21.9955 109.8756 47.8542 0.0000 -20.1282 0.0000
# 3 30.0191 47.8542 150.9534 0.0000 -36.0148 0.0000
# 4 0.0000 0.0000 0.0000 40.4703 0.0000 -9.0145
# 5 -32.2297 -20.1282 -36.0148 0.0000 42.8906 0.0000
# 6 0.0000 0.0000 0.0000 -9.0145 0.0000 22.8698
#
#
#
# Elastic Compliance Matrix: (Units=1/GPa)
#
#
# Indices 1 2 3 4 5 6 
#
# 1 0.025987 -0.001717 -0.000196 0.000000 0.018557 0.000000
# 2 -0.001717 0.010925 -0.002759 0.000000 0.001520 0.000000
# 3 -0.000196 -0.002759 0.008997 0.000000 0.006112 0.000000
# 4 0.000000 0.000000 0.000000 0.027088 0.000000 0.010677
# 5 0.018557 0.001520 0.006112 0.000000 0.043105 0.000000
# 6 0.000000 0.000000 0.000000 0.010677 0.000000 0.047934
#
#
# Mechanical properties :
#
#
# Convention : Reuss Voigt Hill
#
# Bulk Modulus (GPa) = 27.35009 58.19364 42.77186
# Shear Modulus (GPa) = 26.94424 36.18855 31.56640
#
# Velocity S-wave (km/s) = 3.28066 3.80201 3.55092
# Velocity P-wave (km/s) = 5.02744 6.52065 5.82211
#
# Compressibility (1/GPa) = 0.03656296
#
# Stress axis : x y z
#
# Youngs Moduli (GPa) = 38.48124 91.53191 111.15404
#
# Poissons Ratio (x) = 0.15719 0.02179
# Poissons Ratio (y) = 0.06608 0.30671
# Poissons Ratio (z) = 0.00754 0.25257
#
# Static dielectric constant tensor:
#      x y z
#    x 1.558530 0.000000 -0.477880 
#    y 0.000000 2.147440 0.000000 
#    z -0.477880 0.000000 1.596450 
# 
# From -- ./inp_files/294421.got.cif
#   From: 2010.05.17/outbox.cif.g08.bks.cpg/sg15_148_cif.got.tgz:294421.got - 2010.06.03 18:47:42.
