data_PCOD9277998
_publ_section_title
;
Structure prediction by ZEFSAII (Michael W. Deem and Ramdas Pophale) SiO2 
 PCOD9277998
Probable space group: C 2/C
;
_chemical_formula_sum "Si O2"
_cell_formula_units_Z 36
_cell_length_a 16.508386
_cell_length_b 10.992066
_cell_length_c 13.147009
_cell_angle_alpha 90.000000
_cell_angle_beta 49.184106
_cell_angle_gamma 90.000000
_cell_volume 1805.510114
_symmetry_space_group_name_H-M "C 2/C"
_symmetry_group_IT_number 15
_symmetry_cell_setting 'monoclinic'
loop_
_space_group_symop_operation_xyz
x,y,z
-x,y,1/2-z
-x,-y,-z
x,-y,1/2+z
1/2+x,1/2+y,z
1/2-x,1/2+y,1/2-z
1/2-x,1/2-y,-z
1/2+x,1/2-y,1/2+z
loop_
_atom_site_type_symbol
_atom_site_label
_atom_site_fract_x
_atom_site_fract_y
_atom_site_fract_z
Si Si1 0.665636 0.177355 0.966405
Si Si2 0.623846 0.412329 0.114777
Si Si3 0.952540 0.325084 0.148673
Si Si4 0.134155 0.196130 0.085879
Si Si5 0.000000 0.455226 0.750000
O O1 0.660923 0.320361 0.995978
O O2 0.591144 0.118830 0.116138
O O3 0.784493 0.119700 0.876254
O O4 0.608843 0.162581 0.905177
O O5 0.500000 0.390062 0.250000
O O6 0.630874 0.552098 0.074602
O O7 0.909656 0.226268 0.264804
O O8 0.074044 0.274771 0.047718
O O9 0.949569 0.453678 0.208503
O O10 0.250000 0.250000 0.000000
#
# Coordination Sequence:
#
# PCOD9277998 Si02
#       5
#     8   8   8   8   4
#     4  11  24  40  65  97 127 174 217 271 336 387
#     4  11  22  44  62  90 138 168 212 281 329 388
#     4  10  22  40  64  96 122 173 223 260 333 395
#     4  10  21  43  65  93 132 169 218 275 328 398
#     4  10  20  42  64  90 134 162 218 272 324 396
#
# _framework density 19.938963000000001
#
# number of rings (size 3 to 8) (size 9 to 14) (size 15 to 20)
#    0.000    1.778    3.333    3.333    0.000    2.667 
#   12.000    0.000    0.000    0.000    0.000    0.000 
#    0.000    0.000    0.000    0.000    0.000    0.000 
#
# Total GULP energy -100297.175332 kJ/mol
# GULP energy per Si atom -5572.065296 kJ/mol
# Density = 1.989358 g / cm^3
# Si number density = 19.938963 Si / 1000 Ang^3
#
#
#
# Elastic Constant Matrix: (Units=GPa)
#
#
# Indices 1 2 3 4 5 6 
#
# 1 200.2564 31.0516 59.8032 0.0000 4.9775 0.0000
# 2 31.0516 109.6578 28.8327 0.0000 -3.3472 0.0000
# 3 59.8032 28.8327 40.1276 0.0000 -3.5143 0.0000
# 4 0.0000 0.0000 0.0000 21.5602 0.0000 -11.6065
# 5 4.9775 -3.3472 -3.5143 0.0000 27.8645 0.0000
# 6 0.0000 0.0000 0.0000 -11.6065 0.0000 17.6019
#
#
#
# Elastic Compliance Matrix: (Units=1/GPa)
#
#
# Indices 1 2 3 4 5 6 
#
# 1 0.009449 0.001234 -0.015273 0.000000 -0.003466 0.000000
# 2 0.001234 0.011408 -0.010046 0.000000 -0.000117 0.000000
# 3 -0.015273 -0.010046 0.055649 0.000000 0.008540 0.000000
# 4 0.000000 0.000000 0.000000 0.071906 0.000000 0.047414
# 5 -0.003466 -0.000117 0.008540 0.000000 0.037570 0.000000
# 6 0.000000 0.000000 0.000000 0.047414 0.000000 0.088076
#
#
# Mechanical properties :
#
#
# Convention : Reuss Voigt Hill
#
# Bulk Modulus (GPa) = 35.29145 65.49073 50.39109
# Shear Modulus (GPa) = 15.07509 28.76230 21.91869
#
# Velocity S-wave (km/s) = 2.75264 3.80217 3.31915
# Velocity P-wave (km/s) = 5.27645 7.22442 6.32586
#
# Compressibility (1/GPa) = 0.02833547
#
# Stress axis : x y z
#
# Youngs Moduli (GPa) = 105.82688 87.65981 17.96987
#
# Poissons Ratio (x) = -0.10819 0.27445
# Poissons Ratio (y) = -0.13061 0.18053
# Poissons Ratio (z) = 1.61630 0.88066
#
# Static dielectric constant tensor:
#      x y z
#    x 1.675140 0.000000 -0.023290 
#    y 0.000000 1.660010 0.000000 
#    z -0.023290 0.000000 1.732350 
# 
# From -- ./inp_files/94367.got.cif
#   From: 2010.05.17/outbox.cif.g08.bks.cpg/sg15_48_cif.got.tgz:94367.got - 2010.06.03 18:47:42.
