data_PCOD9277190
_publ_section_title
;
Structure prediction by ZEFSAII (Michael W. Deem and Ramdas Pophale) SiO2 
 PCOD9277190
Probable space group: C 2/C
;
_chemical_formula_sum "Si O2"
_cell_formula_units_Z 44
_cell_length_a 27.498877
_cell_length_b 12.363031
_cell_length_c 13.846200
_cell_angle_alpha 90.000000
_cell_angle_beta 157.867344
_cell_angle_gamma 90.000000
_cell_volume 1773.480460
_symmetry_space_group_name_H-M "C 2/C"
_symmetry_group_IT_number 15
_symmetry_cell_setting 'monoclinic'
loop_
_space_group_symop_operation_xyz
x,y,z
-x,y,1/2-z
-x,-y,-z
x,-y,1/2+z
1/2+x,1/2+y,z
1/2-x,1/2+y,1/2-z
1/2-x,1/2-y,-z
1/2+x,1/2-y,1/2+z
loop_
_atom_site_type_symbol
_atom_site_label
_atom_site_fract_x
_atom_site_fract_y
_atom_site_fract_z
Si Si1 0.959611 0.828021 0.066364
Si Si2 0.188480 0.968098 0.222039
Si Si3 0.270237 0.294979 0.432285
Si Si4 0.643272 0.004544 0.149730
Si Si5 0.500000 0.681547 0.250000
Si Si6 0.111738 0.635446 0.270579
O O1 0.000000 0.853803 0.250000
O O2 0.068839 0.757521 0.215021
O O3 0.835876 0.748766 0.837574
O O4 0.904438 0.934984 0.914757
O O5 0.296865 0.015785 0.346573
O O6 0.264257 0.903032 0.442293
O O7 0.096872 0.890160 0.991520
O O8 0.250000 0.250000 0.500000
O O9 0.246710 0.423463 0.391470
O O10 0.408495 0.255326 0.652764
O O11 0.630954 0.110070 0.193124
O O12 0.506552 0.941600 0.908362
#
# Coordination Sequence:
#
# PCOD9277190 Si02
#       6
#     8   8   8   8   4   8
#     4  11  22  41  65  95 131 171 224 278 330 412
#     4  11  21  41  68  93 133 177 217 278 348 398
#     4  10  21  42  66  96 133 173 226 284 340 410
#     4   9  20  39  65  96 128 171 225 270 341 417
#     4  10  22  42  64  94 132 172 222 276 346 412
#     4  10  20  40  69  91 132 178 215 280 344 402
#
# _framework density 24.809971999999998
#
# number of rings (size 3 to 8) (size 9 to 14) (size 15 to 20)
#    0.000    1.818    0.909    4.909    0.000    0.000 
#   16.364    3.636    0.000    0.000    0.000    0.000 
#    0.000    0.000    0.000    0.000    0.000    0.000 
#
# Total GULP energy -123111.312276 kJ/mol
# GULP energy per Si atom -5595.968740 kJ/mol
# Density = 2.475350 g / cm^3
# Si number density = 24.809972 Si / 1000 Ang^3
#
#
#
# Elastic Constant Matrix: (Units=GPa)
#
#
# Indices 1 2 3 4 5 6 
#
# 1 80.2002 42.5732 50.1559 0.0000 12.3017 0.0000
# 2 42.5732 66.9305 21.3789 0.0000 12.5709 0.0000
# 3 50.1559 21.3789 133.3654 0.0000 3.9533 0.0000
# 4 0.0000 0.0000 0.0000 40.9965 0.0000 6.2292
# 5 12.3017 12.5709 3.9533 0.0000 15.7489 0.0000
# 6 0.0000 0.0000 0.0000 6.2292 0.0000 23.8048
#
#
#
# Elastic Compliance Matrix: (Units=1/GPa)
#
#
# Indices 1 2 3 4 5 6 
#
# 1 0.024294 -0.011736 -0.007023 0.000000 -0.007846 0.000000
# 2 -0.011736 0.024056 0.000861 0.000000 -0.010251 0.000000
# 3 -0.007023 0.000861 0.009933 0.000000 0.002305 0.000000
# 4 0.000000 0.000000 0.000000 0.025402 0.000000 -0.006647
# 5 -0.007846 -0.010251 0.002305 0.000000 0.077229 0.000000
# 6 0.000000 0.000000 0.000000 -0.006647 0.000000 0.043748
#
#
# Mechanical properties :
#
#
# Convention : Reuss Voigt Hill
#
# Bulk Modulus (GPa) = 44.46782 56.52356 50.49569
# Shear Modulus (GPa) = 20.16510 27.20258 23.68384
#
# Velocity S-wave (km/s) = 2.85403 3.31484 3.09303
# Velocity P-wave (km/s) = 5.36870 6.12233 5.75786
#
# Compressibility (1/GPa) = 0.02248817
#
# Stress axis : x y z
#
# Youngs Moduli (GPa) = 41.16228 41.56917 100.67608
#
# Poissons Ratio (x) = 0.48787 0.70700
# Poissons Ratio (y) = 0.48309 -0.08672
# Poissons Ratio (z) = 0.28906 -0.03580
#
# Static dielectric constant tensor:
#      x y z
#    x 1.652640 0.000000 0.353780 
#    y 0.000000 2.013960 0.000000 
#    z 0.353780 0.000000 1.669770 
# 
# From -- ./inp_files/182367.got.cif
#   From: 2010.05.17/outbox.cif.g08.bks.cpg/sg15_92_cif.got.tgz:182367.got - 2010.06.03 18:47:42.
