data_PCOD9277503
_publ_section_title
;
Structure prediction by ZEFSAII (Michael W. Deem and Ramdas Pophale) SiO2 
 PCOD9277503
Probable space group: C 2/C
;
_chemical_formula_sum "Si O2"
_cell_formula_units_Z 52
_cell_length_a 28.758778
_cell_length_b 8.573616
_cell_length_c 13.715679
_cell_angle_alpha 90.000000
_cell_angle_beta 49.048019
_cell_angle_gamma 90.000000
_cell_volume 2554.158035
_symmetry_space_group_name_H-M "C 2/C"
_symmetry_group_IT_number 15
_symmetry_cell_setting 'monoclinic'
loop_
_space_group_symop_operation_xyz
x,y,z
-x,y,1/2-z
-x,-y,-z
x,-y,1/2+z
1/2+x,1/2+y,z
1/2-x,1/2+y,1/2-z
1/2-x,1/2-y,-z
1/2+x,1/2-y,1/2+z
loop_
_atom_site_type_symbol
_atom_site_label
_atom_site_fract_x
_atom_site_fract_y
_atom_site_fract_z
Si Si1 0.500000 0.350720 0.750000
Si Si2 0.670072 0.641173 0.150621
Si Si3 0.905476 0.605763 0.864989
Si Si4 0.331691 0.077849 0.145265
Si Si5 0.446873 0.546293 0.648101
Si Si6 0.233743 0.847136 0.366572
Si Si7 0.945428 0.584759 0.134486
O O1 0.448596 0.231297 0.861388
O O2 0.467788 0.461026 0.717675
O O3 0.633556 0.790726 0.157713
O O4 0.622022 0.525405 0.269298
O O5 0.721931 0.711259 0.149969
O O6 0.700673 0.578866 0.007732
O O7 0.942700 0.492317 0.744533
O O8 0.863261 0.520669 0.001354
O O9 0.311600 0.253962 0.143653
O O10 0.382489 0.064470 0.159685
O O11 0.274046 0.974697 0.256394
O O12 0.500000 0.500000 0.500000
O O13 0.450106 0.731317 0.644075
O O14 0.000000 0.500000 0.000000
#
# Coordination Sequence:
#
# PCOD9277503 Si02
#       7
#     4   8   8   8   8   8   8
#     4  10  22  44  64  92 130 172 218 274 332 402
#     4   9  20  43  64  86 131 176 217 271 337 389
#     4  10  20  41  64  91 128 170 215 275 329 393
#     4  11  24  40  66  96 126 174 224 271 336 393
#     4  11  24  41  67  96 129 173 222 276 335 403
#     4  10  22  41  65  93 131 177 222 277 331 399
#     4  12  25  42  66  99 135 174 219 278 343 400
#
# _framework density 20.35896
#
# number of rings (size 3 to 8) (size 9 to 14) (size 15 to 20)
#    0.000    1.538    1.538    3.692    2.154    3.077 
#    0.000    1.538    0.000    0.000    0.000    0.000 
#    0.000    0.000    0.000    0.000    0.000    0.000 
#
# Total GULP energy -145077.502400 kJ/mol
# GULP energy per Si atom -5579.903938 kJ/mol
# Density = 2.031262 g / cm^3
# Si number density = 20.358960 Si / 1000 Ang^3
#
#
#
# Elastic Constant Matrix: (Units=GPa)
#
#
# Indices 1 2 3 4 5 6 
#
# 1 70.8439 14.5410 -2.9302 0.0000 -7.5638 0.0000
# 2 14.5410 84.6728 65.4656 0.0000 -5.2937 0.0000
# 3 -2.9302 65.4656 143.4234 0.0000 -22.6818 0.0000
# 4 0.0000 0.0000 0.0000 39.9390 0.0000 -9.2459
# 5 -7.5638 -5.2937 -22.6818 0.0000 27.9870 0.0000
# 6 0.0000 0.0000 0.0000 -9.2459 0.0000 27.6692
#
#
#
# Elastic Compliance Matrix: (Units=1/GPa)
#
#
# Indices 1 2 3 4 5 6 
#
# 1 0.016021 -0.005230 0.003720 0.000000 0.006355 0.000000
# 2 -0.005230 0.020315 -0.010318 0.000000 -0.005933 0.000000
# 3 0.003720 -0.010318 0.013315 0.000000 0.009844 0.000000
# 4 0.000000 0.000000 0.000000 0.027137 0.000000 0.009068
# 5 0.006355 -0.005933 0.009844 0.000000 0.044304 0.000000
# 6 0.000000 0.000000 0.000000 0.009068 0.000000 0.039172
#
#
# Mechanical properties :
#
#
# Convention : Reuss Voigt Hill
#
# Bulk Modulus (GPa) = 38.46945 50.34366 44.40655
# Shear Modulus (GPa) = 25.96256 33.90996 29.93626
#
# Velocity S-wave (km/s) = 3.57492 4.08561 3.83877
# Velocity P-wave (km/s) = 5.99806 6.85842 6.44262
#
# Compressibility (1/GPa) = 0.02599465
#
# Stress axis : x y z
#
# Youngs Moduli (GPa) = 62.41671 49.22567 75.10492
#
# Poissons Ratio (x) = 0.25744 -0.27935
# Poissons Ratio (y) = 0.32643 0.77491
# Poissons Ratio (z) = -0.23216 0.50790
#
# Static dielectric constant tensor:
#      x y z
#    x 1.787570 0.000000 -0.049340 
#    y 0.000000 1.751920 0.000000 
#    z -0.049340 0.000000 1.739040 
# 
# From -- ./inp_files/121826.got.cif
#   From: 2010.05.17/outbox.cif.g08.bks.cpg/sg15_61_cif.got.tgz:121826.got - 2010.06.03 18:47:42.
