data_PCOD9277231
_publ_section_title
;
Structure prediction by ZEFSAII (Michael W. Deem and Ramdas Pophale) SiO2 
 PCOD9277231
Probable space group: C 2/C
;
_chemical_formula_sum "Si O2"
_cell_formula_units_Z 44
_cell_length_a 27.832191
_cell_length_b 7.223757
_cell_length_c 8.024069
_cell_angle_alpha 90.000000
_cell_angle_beta 98.504521
_cell_angle_gamma 90.000000
_cell_volume 1595.523899
_symmetry_space_group_name_H-M "C 2/C"
_symmetry_group_IT_number 15
_symmetry_cell_setting 'monoclinic'
loop_
_space_group_symop_operation_xyz
x,y,z
-x,y,1/2-z
-x,-y,-z
x,-y,1/2+z
1/2+x,1/2+y,z
1/2-x,1/2+y,1/2-z
1/2-x,1/2-y,-z
1/2+x,1/2-y,1/2+z
loop_
_atom_site_type_symbol
_atom_site_label
_atom_site_fract_x
_atom_site_fract_y
_atom_site_fract_z
Si Si1 0.454399 0.285479 0.643885
Si Si2 0.790050 0.279460 0.663220
Si Si3 0.250000 0.250000 0.500000
Si Si4 0.132561 0.631012 0.507092
Si Si5 0.932392 0.603880 0.309976
Si Si6 0.347689 0.595447 0.182978
O O1 0.500000 0.388634 0.750000
O O2 0.462951 0.224252 0.455589
O O3 0.402140 0.383492 0.637285
O O4 0.450858 0.095431 0.753605
O O5 0.750000 0.250000 0.500000
O O6 0.823885 0.431954 0.592271
O O7 0.827563 0.110745 0.701109
O O8 0.761650 0.325952 0.814252
O O9 0.305774 0.324427 0.544393
O O10 0.087580 0.693835 0.368303
O O11 0.112854 0.456526 0.597285
O O12 0.149383 0.787411 0.643546
#
# Coordination Sequence:
#
# PCOD9277231 Si02
#       6
#     8   8   4   8   8   8
#     4  10  20  40  70 107 149 196 247 311 374 449
#     4  12  26  45  69 101 138 188 243 305 368 448
#     4  12  26  46  70 102 134 188 238 302 378 438
#     4  10  21  43  65 103 146 189 238 310 370 445
#     4   9  20  37  69 105 144 191 246 299 372 441
#     4  11  25  45  67 105 145 193 248 305 375 454
#
# _framework density 27.577151000000001
#
# number of rings (size 3 to 8) (size 9 to 14) (size 15 to 20)
#    0.000    1.455    1.818    2.727    0.000    5.818 
#    3.273    0.000    0.000   21.818    0.000    0.000 
#    0.000    0.000    0.000    0.000    0.000    0.000 
#
# Total GULP energy -122722.181693 kJ/mol
# GULP energy per Si atom -5578.280986 kJ/mol
# Density = 2.751438 g / cm^3
# Si number density = 27.577151 Si / 1000 Ang^3
#
#
#
# Elastic Constant Matrix: (Units=GPa)
#
#
# Indices 1 2 3 4 5 6 
#
# 1 146.8515 24.1680 30.2397 0.0000 25.2649 0.0000
# 2 24.1680 106.2324 13.3998 0.0000 5.7783 0.0000
# 3 30.2397 13.3998 177.0060 0.0000 17.5294 0.0000
# 4 0.0000 0.0000 0.0000 25.9241 0.0000 -1.7753
# 5 25.2649 5.7783 17.5294 0.0000 56.3756 0.0000
# 6 0.0000 0.0000 0.0000 -1.7753 0.0000 17.6897
#
#
#
# Elastic Compliance Matrix: (Units=1/GPa)
#
#
# Indices 1 2 3 4 5 6 
#
# 1 0.007766 -0.001486 -0.000913 0.000000 -0.003044 0.000000
# 2 -0.001486 0.009821 -0.000470 0.000000 -0.000194 0.000000
# 3 -0.000913 -0.000470 0.005980 0.000000 -0.001402 0.000000
# 4 0.000000 0.000000 0.000000 0.038841 0.000000 0.003898
# 5 -0.003044 -0.000194 -0.001402 0.000000 0.019558 0.000000
# 6 0.000000 0.000000 0.000000 0.003898 0.000000 0.056921
#
#
# Mechanical properties :
#
#
# Convention : Reuss Voigt Hill
#
# Bulk Modulus (GPa) = 56.08906 62.85609 59.47258
# Shear Modulus (GPa) = 33.20733 44.15001 38.67867
#
# Velocity S-wave (km/s) = 3.47387 4.00555 3.74914
# Velocity P-wave (km/s) = 6.03933 6.65093 6.35249
#
# Compressibility (1/GPa) = 0.01782879
#
# Stress axis : x y z
#
# Youngs Moduli (GPa) = 128.76892 101.81946 167.22614
#
# Poissons Ratio (x) = 0.15131 0.15264
# Poissons Ratio (y) = 0.19135 0.07866
# Poissons Ratio (z) = 0.11753 0.04789
#
# Static dielectric constant tensor:
#      x y z
#    x 2.232010 0.000000 0.032920 
#    y 0.000000 2.256660 0.000000 
#    z 0.032920 0.000000 2.180840 
# 
# From -- ./inp_files/68422.got.cif
#   From: 2010.05.17/outbox.cif.g08.bks.cpg/sg15_35_cif.got.tgz:68422.got - 2010.06.03 18:47:42.
