data_PCOD9277910
_publ_section_title
;
Structure prediction by ZEFSAII (Michael W. Deem and Ramdas Pophale) SiO2 
 PCOD9277910
Probable space group: C 2/C
;
_chemical_formula_sum "Si O2"
_cell_formula_units_Z 56
_cell_length_a 6.827756
_cell_length_b 13.984891
_cell_length_c 22.614480
_cell_angle_alpha 90.000000
_cell_angle_beta 108.721982
_cell_angle_gamma 90.000000
_cell_volume 2045.095779
_symmetry_space_group_name_H-M "C 2/C"
_symmetry_group_IT_number 15
_symmetry_cell_setting 'monoclinic'
loop_
_space_group_symop_operation_xyz
x,y,z
-x,y,1/2-z
-x,-y,-z
x,-y,1/2+z
1/2+x,1/2+y,z
1/2-x,1/2+y,1/2-z
1/2-x,1/2-y,-z
1/2+x,1/2-y,1/2+z
loop_
_atom_site_type_symbol
_atom_site_label
_atom_site_fract_x
_atom_site_fract_y
_atom_site_fract_z
Si Si1 0.365326 0.407917 0.505767
Si Si2 0.849807 0.806202 0.878430
Si Si3 0.973253 0.593358 0.609041
Si Si4 0.300687 0.030658 0.275211
Si Si5 0.227428 0.232090 0.261465
Si Si6 0.412313 0.587926 0.837657
Si Si7 0.418295 0.718379 0.562040
O O1 0.500000 0.500000 0.500000
O O2 0.476292 0.377921 0.578548
O O3 0.128369 0.433211 0.464865
O O4 0.404442 0.313647 0.467198
O O5 0.769723 0.808724 0.804129
O O6 0.638877 0.802704 0.897015
O O7 0.958219 0.702716 0.890094
O O8 0.779760 0.579584 0.635547
O O9 0.148280 0.538051 0.664290
O O10 0.500000 0.031718 0.250000
O O11 0.120282 0.994190 0.213019
O O12 0.253394 0.133763 0.298516
O O13 0.375786 0.315744 0.295644
O O14 0.000000 0.273716 0.250000
O O15 0.594002 0.621326 0.899628
O O16 0.250000 0.750000 0.500000
#
# Coordination Sequence:
#
# PCOD9277910 Si02
#       7
#     8   8   8   8   8   8   8
#     4  10  23  41  66  92 125 166 213 266 314 377
#     4  11  22  40  65  91 120 171 213 250 324 380
#     4  10  20  43  63  86 128 170 202 253 324 382
#     4  10  23  38  61  89 125 166 207 256 321 377
#     4  12  24  40  63  96 127 163 215 262 316 384
#     4  10  20  42  62  85 129 167 197 259 320 374
#     4   9  22  39  61  88 122 158 211 253 305 372
#
# _framework density 27.382580999999998
#
# number of rings (size 3 to 8) (size 9 to 14) (size 15 to 20)
#    0.000    1.714    2.857    0.857    8.000    2.286 
#    0.000    0.714    0.000    0.000    0.000    0.000 
#    0.000    0.000    0.000    0.000    0.000    0.000 
#
# Total GULP energy -155969.193515 kJ/mol
# GULP energy per Si atom -5570.328340 kJ/mol
# Density = 2.732026 g / cm^3
# Si number density = 27.382581 Si / 1000 Ang^3
#
#
#
# Elastic Constant Matrix: (Units=GPa)
#
#
# Indices 1 2 3 4 5 6 
#
# 1 42.3370 -9.8167 18.4738 0.0000 -8.9146 0.0000
# 2 -9.8167 89.3155 15.8801 0.0000 17.8054 0.0000
# 3 18.4738 15.8801 147.3987 0.0000 16.3386 0.0000
# 4 0.0000 0.0000 0.0000 43.6140 0.0000 5.5056
# 5 -8.9146 17.8054 16.3386 0.0000 49.0774 0.0000
# 6 0.0000 0.0000 0.0000 5.5056 0.0000 35.4837
#
#
#
# Elastic Compliance Matrix: (Units=1/GPa)
#
#
# Indices 1 2 3 4 5 6 
#
# 1 0.027260 0.002683 -0.004305 0.000000 0.005412 0.000000
# 2 0.002683 0.012436 -0.001277 0.000000 -0.003599 0.000000
# 3 -0.004305 -0.001277 0.007784 0.000000 -0.002910 0.000000
# 4 0.000000 0.000000 0.000000 0.023386 0.000000 -0.003629
# 5 0.005412 -0.003599 -0.002910 0.000000 0.023634 0.000000
# 6 0.000000 0.000000 0.000000 -0.003629 0.000000 0.028745
#
#
# Mechanical properties :
#
#
# Convention : Reuss Voigt Hill
#
# Bulk Modulus (GPa) = 23.99191 36.45840 30.22516
# Shear Modulus (GPa) = 34.98017 42.60262 38.79139
#
# Velocity S-wave (km/s) = 3.57804 3.94868 3.76792
# Velocity P-wave (km/s) = 5.08434 5.84233 5.47646
#
# Compressibility (1/GPa) = 0.04168071
#
# Stress axis : x y z
#
# Youngs Moduli (GPa) = 36.68342 80.41359 128.46688
#
# Poissons Ratio (x) = -0.21574 0.55311
# Poissons Ratio (y) = -0.09842 0.16406
# Poissons Ratio (z) = 0.15794 0.10269
#
# Static dielectric constant tensor:
#      x y z
#    x 0.863170 0.000000 -0.723450 
#    y 0.000000 2.108490 0.000000 
#    z -0.723450 0.000000 1.865250 
# 
# From -- ./inp_files/264808.got.cif
#   From: 2010.05.17/outbox.cif.g08.bks.cpg/sg15_133_cif.got.tgz:264808.got - 2010.06.03 18:47:42.
