data_PCOD9277336
_publ_section_title
;
Structure prediction by ZEFSAII (Michael W. Deem and Ramdas Pophale) SiO2 
 PCOD9277336
Probable space group: C 2/C
;
_chemical_formula_sum "Si O2"
_cell_formula_units_Z 44
_cell_length_a 6.019941
_cell_length_b 13.680511
_cell_length_c 26.457078
_cell_angle_alpha 90.000000
_cell_angle_beta 51.146890
_cell_angle_gamma 90.000000
_cell_volume 1696.829813
_symmetry_space_group_name_H-M "C 2/C"
_symmetry_group_IT_number 15
_symmetry_cell_setting 'monoclinic'
loop_
_space_group_symop_operation_xyz
x,y,z
-x,y,1/2-z
-x,-y,-z
x,-y,1/2+z
1/2+x,1/2+y,z
1/2-x,1/2+y,1/2-z
1/2-x,1/2-y,-z
1/2+x,1/2-y,1/2+z
loop_
_atom_site_type_symbol
_atom_site_label
_atom_site_fract_x
_atom_site_fract_y
_atom_site_fract_z
Si Si1 0.144141 0.712580 0.931928
Si Si2 0.000000 0.135696 0.250000
Si Si3 0.941783 0.368283 0.954420
Si Si4 0.570874 0.694677 0.348472
Si Si5 0.719244 0.058483 0.557415
Si Si6 0.552735 0.995600 0.686679
O O1 0.252792 0.816252 0.938286
O O2 0.233905 0.726204 0.860114
O O3 0.843300 0.657778 0.963069
O O4 0.228083 0.647755 0.968999
O O5 0.947485 0.203094 0.208809
O O6 0.728688 0.063078 0.291889
O O7 0.007894 0.479477 0.931677
O O8 0.244101 0.314247 0.913251
O O9 0.718827 0.590328 0.336422
O O10 0.666226 0.062498 0.624886
O O11 0.000000 0.000000 0.500000
O O12 0.500000 0.040438 0.750000
#
# Coordination Sequence:
#
# PCOD9277336 Si02
#       6
#     8   4   8   8   8   8
#     4  11  25  39  68  98 136 179 229 294 354 425
#     4  10  20  40  74  94 132 190 232 284 372 430
#     4  11  24  44  64  96 142 185 225 295 368 429
#     4  11  20  42  69  94 130 180 236 282 357 431
#     4  12  25  44  69 104 140 189 244 297 366 439
#     4  10  22  43  72  96 136 188 235 297 365 441
#
# _framework density 25.930707000000002
#
# number of rings (size 3 to 8) (size 9 to 14) (size 15 to 20)
#    0.000    1.091    3.636    2.182    5.091    0.000 
#    1.636    0.000    6.000    0.000    0.000    0.000 
#    0.000    0.000    0.000    0.000    0.000    0.000 
#
# Total GULP energy -122602.411706 kJ/mol
# GULP energy per Si atom -5572.836896 kJ/mol
# Density = 2.587169 g / cm^3
# Si number density = 25.930707 Si / 1000 Ang^3
#
#
#
# Elastic Constant Matrix: (Units=GPa)
#
#
# Indices 1 2 3 4 5 6 
#
# 1 113.7446 37.8730 75.6644 0.0019 19.8782 -0.0056
# 2 37.8730 72.4279 40.4224 0.0011 6.0989 -0.0029
# 3 75.6644 40.4224 169.3201 0.0010 56.7628 -0.0052
# 4 0.0019 0.0011 0.0010 32.5118 -0.0013 12.1266
# 5 19.8782 6.0989 56.7628 -0.0013 74.6273 0.0037
# 6 -0.0056 -0.0029 -0.0052 12.1266 0.0037 46.8948
#
#
#
# Elastic Compliance Matrix: (Units=1/GPa)
#
#
# Indices 1 2 3 4 5 6 
#
# 1 0.013605 -0.004200 -0.005338 -0.000001 0.000780 0.000001
# 2 -0.004200 0.017484 -0.002944 0.000000 0.001929 0.000000
# 3 -0.005338 -0.002944 0.011325 -0.000001 -0.006951 0.000001
# 4 -0.000001 0.000000 -0.000001 0.034041 0.000002 -0.008803
# 5 0.000780 0.001929 -0.006951 0.000002 0.018322 -0.000002
# 6 0.000001 0.000000 0.000001 -0.008803 -0.000002 0.023601
#
#
# Mechanical properties :
#
#
# Convention : Reuss Voigt Hill
#
# Bulk Modulus (GPa) = 57.31117 73.71248 65.51182
# Shear Modulus (GPa) = 33.52149 44.24229 38.88189
#
# Velocity S-wave (km/s) = 3.59936 4.13507 3.87648
# Velocity P-wave (km/s) = 6.27881 7.16148 6.73462
#
# Compressibility (1/GPa) = 0.01744861
#
# Stress axis : x y z
#
# Youngs Moduli (GPa) = 73.50180 57.19625 88.30382
#
# Poissons Ratio (x) = 0.24025 0.47140
# Poissons Ratio (y) = 0.30874 0.25992
# Poissons Ratio (z) = 0.39238 0.16836
#
# Static dielectric constant tensor:
#      x y z
#    x 2.088450 0.000000 -0.013550 
#    y 0.000000 2.050400 0.000000 
#    z -0.013550 0.000000 2.104790 
# 
# From -- ./inp_files/285534.got.cif
#   From: 2010.05.17/outbox.cif.g08.bks.cpg/sg15_143_cif.got.tgz:285534.got - 2010.06.03 18:47:42.
