data_PCOD9277639
_publ_section_title
;
Structure prediction by ZEFSAII (Michael W. Deem and Ramdas Pophale) SiO2 
 PCOD9277639
Probable space group: C 2/C
;
_chemical_formula_sum "Si O2"
_cell_formula_units_Z 60
_cell_length_a 8.169079
_cell_length_b 16.390979
_cell_length_c 22.047575
_cell_angle_alpha 90.000000
_cell_angle_beta 81.478981
_cell_angle_gamma 90.000000
_cell_volume 2919.565583
_symmetry_space_group_name_H-M "C 2/C"
_symmetry_group_IT_number 15
_symmetry_cell_setting 'monoclinic'
loop_
_space_group_symop_operation_xyz
x,y,z
-x,y,1/2-z
-x,-y,-z
x,-y,1/2+z
1/2+x,1/2+y,z
1/2-x,1/2+y,1/2-z
1/2-x,1/2-y,-z
1/2+x,1/2-y,1/2+z
loop_
_atom_site_type_symbol
_atom_site_label
_atom_site_fract_x
_atom_site_fract_y
_atom_site_fract_z
Si Si1 0.761952 0.170473 0.268979
Si Si2 0.972806 0.093540 0.517819
Si Si3 0.890836 0.591861 0.946457
Si Si4 0.520244 0.614578 0.840634
Si Si5 0.500000 0.524122 0.250000
Si Si6 0.660583 0.103945 0.036831
Si Si7 0.614546 0.167162 0.688309
Si Si8 0.902077 0.292157 0.841042
O O1 0.843451 0.082924 0.262235
O O2 0.867726 0.234739 0.303453
O O3 0.742178 0.191319 0.199033
O O4 0.577383 0.175674 0.305535
O O5 0.147881 0.129265 0.486351
O O6 0.784422 0.121054 0.512718
O O7 0.968184 0.098361 0.589796
O O8 0.000000 0.000000 0.500000
O O9 0.864084 0.492523 0.942204
O O10 0.918617 0.633881 0.878418
O O11 0.043057 0.610051 0.983699
O O12 0.473612 0.534530 0.808142
O O13 0.701149 0.637369 0.806579
O O14 0.410730 0.694532 0.840774
O O15 0.611806 0.164048 0.093843
O O16 0.500000 0.137757 0.750000
#
# Coordination Sequence:
#
# PCOD9277639 Si02
#       8
#     8   8   8   8   4   8   8   8
#     4  10  23  41  63  98 129 165 221 277 334 397
#     4   9  20  39  61  91 130 168 215 270 319 389
#     4   9  21  39  64 100 133 170 225 274 329 398
#     4  10  23  41  62  92 132 172 212 268 335 391
#     4  12  24  40  68  94 120 176 222 266 338 394
#     4  10  21  40  65  95 133 180 223 267 334 399
#     4  10  20  41  66  95 135 170 212 279 338 398
#     4  10  23  45  64  93 139 170 213 280 334 399
#
# _framework density 20.551002
#
# number of rings (size 3 to 8) (size 9 to 14) (size 15 to 20)
#    0.000    2.133    0.667    1.600    5.600    6.933 
#    0.000    7.333    0.000    0.000    0.000    0.000 
#    0.000    0.000    0.000    0.000    0.000    0.000 
#
# Total GULP energy -167099.970655 kJ/mol
# GULP energy per Si atom -5569.999022 kJ/mol
# Density = 2.050423 g / cm^3
# Si number density = 20.551002 Si / 1000 Ang^3
#
#
#
# Elastic Constant Matrix: (Units=GPa)
#
#
# Indices 1 2 3 4 5 6 
#
# 1 84.9313 42.1006 38.9513 0.0000 -7.0411 0.0000
# 2 42.1006 111.7241 46.8864 0.0000 13.1951 0.0000
# 3 38.9513 46.8864 80.7164 0.0000 -8.1306 0.0000
# 4 0.0000 0.0000 0.0000 35.7554 0.0000 4.3192
# 5 -7.0411 13.1951 -8.1306 0.0000 33.6056 0.0000
# 6 0.0000 0.0000 0.0000 4.3192 0.0000 26.9155
#
#
#
# Elastic Compliance Matrix: (Units=1/GPa)
#
#
# Indices 1 2 3 4 5 6 
#
# 1 0.016713 -0.004739 -0.004892 0.000000 0.004179 0.000000
# 2 -0.004739 0.014731 -0.007127 0.000000 -0.008501 0.000000
# 3 -0.004892 -0.007127 0.019544 0.000000 0.006502 0.000000
# 4 0.000000 0.000000 0.000000 0.028521 0.000000 -0.004577
# 5 0.004179 -0.008501 0.006502 0.000000 0.035544 0.000000
# 6 0.000000 0.000000 0.000000 -0.004577 0.000000 0.037888
#
#
# Mechanical properties :
#
#
# Convention : Reuss Voigt Hill
#
# Bulk Modulus (GPa) = 57.22601 59.24983 58.23792
# Shear Modulus (GPa) = 26.00390 29.21753 27.61072
#
# Velocity S-wave (km/s) = 3.56101 3.77465 3.66938
# Velocity P-wave (km/s) = 6.69433 6.92029 6.80825
#
# Compressibility (1/GPa) = 0.01747457
#
# Stress axis : x y z
#
# Youngs Moduli (GPa) = 59.83349 67.88393 51.16596
#
# Poissons Ratio (x) = 0.32167 0.25029
# Poissons Ratio (y) = 0.28353 0.36464
# Poissons Ratio (z) = 0.29269 0.48378
#
# Static dielectric constant tensor:
#      x y z
#    x 1.823270 0.000000 -0.014800 
#    y 0.000000 1.733000 0.000000 
#    z -0.014800 0.000000 1.702220 
# 
# From -- ./inp_files/232666.got.cif
#   From: 2010.05.17/outbox.cif.g08.bks.cpg/sg15_117_cif.got.tgz:232666.got - 2010.06.03 18:47:42.
