data_PCOD9277867
_publ_section_title
;
Structure prediction by ZEFSAII (Michael W. Deem and Ramdas Pophale) SiO2 
 PCOD9277867
Probable space group: C 2/C
;
_chemical_formula_sum "Si O2"
_cell_formula_units_Z 32
_cell_length_a 7.689054
_cell_length_b 7.447019
_cell_length_c 23.003122
_cell_angle_alpha 90.000000
_cell_angle_beta 117.581470
_cell_angle_gamma 90.000000
_cell_volume 1167.478938
_symmetry_space_group_name_H-M "C 2/C"
_symmetry_group_IT_number 15
_symmetry_cell_setting 'monoclinic'
loop_
_space_group_symop_operation_xyz
x,y,z
-x,y,1/2-z
-x,-y,-z
x,-y,1/2+z
1/2+x,1/2+y,z
1/2-x,1/2+y,1/2-z
1/2-x,1/2-y,-z
1/2+x,1/2-y,1/2+z
loop_
_atom_site_type_symbol
_atom_site_label
_atom_site_fract_x
_atom_site_fract_y
_atom_site_fract_z
Si Si1 0.704838 0.881379 0.936421
Si Si2 0.209311 0.395602 0.810105
Si Si3 0.901916 0.657447 0.479178
Si Si4 0.111208 0.046722 0.852710
O O1 0.716200 0.978925 0.876444
O O2 0.586740 0.974344 0.971374
O O3 0.586494 0.702204 0.898103
O O4 0.919887 0.809335 0.985182
O O5 0.401061 0.462478 0.806560
O O6 0.000000 0.437902 0.750000
O O7 0.212049 0.177908 0.820732
O O8 0.750000 0.750000 0.500000
O O9 0.749630 0.601658 0.402615
#
# Coordination Sequence:
#
# PCOD9277867 Si02
#       4
#     8   8   8   8
#     4   7  19  37  58  89 117 155 197 252 311 369
#     4  10  23  41  61  87 119 171 207 257 308 381
#     4   8  17  38  60  95 118 156 203 257 322 375
#     4  10  20  42  58  86 123 157 205 255 318 366
#
# _framework density 27.409490999999999
#
# number of rings (size 3 to 8) (size 9 to 14) (size 15 to 20)
#    3.000    0.000    0.000    0.750    0.000    3.000 
#    9.000    3.750    0.000    0.000    0.000    0.000 
#    0.000    0.000    0.000    0.000    0.000    0.000 
#
# Total GULP energy -89210.948351 kJ/mol
# GULP energy per Si atom -5575.684272 kJ/mol
# Density = 2.734711 g / cm^3
# Si number density = 27.409491 Si / 1000 Ang^3
#
#
#
# Elastic Constant Matrix: (Units=GPa)
#
#
# Indices 1 2 3 4 5 6 
#
# 1 192.5598 78.5720 26.0797 0.0000 32.8619 0.0000
# 2 78.5720 151.7184 43.9483 0.0000 18.8207 0.0000
# 3 26.0797 43.9483 91.7520 0.0000 27.1191 0.0000
# 4 0.0000 0.0000 0.0000 29.4768 0.0000 -3.1657
# 5 32.8619 18.8207 27.1191 0.0000 61.9981 0.0000
# 6 0.0000 0.0000 0.0000 -3.1657 0.0000 74.6163
#
#
#
# Elastic Compliance Matrix: (Units=1/GPa)
#
#
# Indices 1 2 3 4 5 6 
#
# 1 0.007015 -0.003418 0.000500 0.000000 -0.002899 0.000000
# 2 -0.003418 0.009356 -0.003682 0.000000 0.000582 0.000000
# 3 0.000500 -0.003682 0.014090 0.000000 -0.005311 0.000000
# 4 0.000000 0.000000 0.000000 0.034080 0.000000 0.001446
# 5 -0.002899 0.000582 -0.005311 0.000000 0.019813 0.000000
# 6 0.000000 0.000000 0.000000 0.001446 0.000000 0.013463
#
#
# Mechanical properties :
#
#
# Convention : Reuss Voigt Hill
#
# Bulk Modulus (GPa) = 57.93280 81.47001 69.70140
# Shear Modulus (GPa) = 42.81930 52.38025 47.59977
#
# Velocity S-wave (km/s) = 3.95676 4.37627 4.17179
# Velocity P-wave (km/s) = 6.48510 7.43798 6.97782
#
# Compressibility (1/GPa) = 0.01726138
#
# Stress axis : x y z
#
# Youngs Moduli (GPa) = 142.55157 106.88741 70.97260
#
# Poissons Ratio (x) = 0.36536 -0.03551
# Poissons Ratio (y) = 0.48727 0.26130
# Poissons Ratio (z) = -0.07132 0.39353
#
# Static dielectric constant tensor:
#      x y z
#    x 2.211880 0.000000 -0.107540 
#    y 0.000000 2.319590 0.000000 
#    z -0.107540 0.000000 2.145400 
# 
# From -- ./inp_files/287138.got.cif
#   From: 2010.05.17/outbox.cif.g08.bks.cpg/sg15_144_cif.got.tgz:287138.got - 2010.06.03 18:47:42.
