data_PCOD9277950
_publ_section_title
;
Structure prediction by ZEFSAII (Michael W. Deem and Ramdas Pophale) SiO2 
 PCOD9277950
Probable space group: C 2/C
;
_chemical_formula_sum "Si O2"
_cell_formula_units_Z 48
_cell_length_a 13.984487
_cell_length_b 29.519292
_cell_length_c 13.447984
_cell_angle_alpha 90.000000
_cell_angle_beta 157.231339
_cell_angle_gamma 90.000000
_cell_volume 2148.489839
_symmetry_space_group_name_H-M "C 2/C"
_symmetry_group_IT_number 15
_symmetry_cell_setting 'monoclinic'
loop_
_space_group_symop_operation_xyz
x,y,z
-x,y,1/2-z
-x,-y,-z
x,-y,1/2+z
1/2+x,1/2+y,z
1/2-x,1/2+y,1/2-z
1/2-x,1/2-y,-z
1/2+x,1/2-y,1/2+z
loop_
_atom_site_type_symbol
_atom_site_label
_atom_site_fract_x
_atom_site_fract_y
_atom_site_fract_z
Si Si1 0.309117 0.652123 0.811129
Si Si2 0.046273 0.221300 0.902319
Si Si3 0.840046 0.011225 0.697642
Si Si4 0.971251 0.404412 0.611257
Si Si5 0.487887 0.778398 0.354362
Si Si6 0.400596 0.428114 0.883101
O O1 0.494110 0.689550 0.945646
O O2 0.230040 0.625370 0.636637
O O3 0.088607 0.679069 0.651937
O O4 0.421702 0.611738 0.985466
O O5 0.821151 0.258275 0.679673
O O6 0.000000 0.198185 0.750000
O O7 0.602149 0.042508 0.452878
O O8 0.000000 0.011158 0.750000
O O9 0.797333 0.960890 0.698457
O O10 0.972618 0.038819 0.914044
O O11 0.000000 0.387497 0.750000
O O12 0.199895 0.402601 0.756842
O O13 0.500000 0.791787 0.250000
O O14 0.750551 0.755678 0.632762
#
# Coordination Sequence:
#
# PCOD9277950 Si02
#       6
#     8   8   8   8   8   8
#     4  11  25  38  63  96 129 162 217 277 326 392
#     4  10  23  39  60  89 127 171 210 254 316 387
#     4  10  20  42  63  87 124 168 215 265 324 404
#     4  11  23  38  65  92 126 173 211 266 334 403
#     4  10  23  46  74  98 133 185 228 273 338 404
#     4  10  23  39  62  93 123 167 214 267 330 393
#
# _framework density 22.341273999999999
#
# number of rings (size 3 to 8) (size 9 to 14) (size 15 to 20)
#    0.000    1.667    1.667    1.500    7.000    0.667 
#    3.000    0.000    0.000    0.000    0.000    0.000 
#    0.000    0.000    0.000    0.000    0.000    0.000 
#
# Total GULP energy -133954.838567 kJ/mol
# GULP energy per Si atom -5581.451607 kJ/mol
# Density = 2.229042 g / cm^3
# Si number density = 22.341274 Si / 1000 Ang^3
#
#
#
# Elastic Constant Matrix: (Units=GPa)
#
#
# Indices 1 2 3 4 5 6 
#
# 1 86.2636 50.9687 9.5456 0.0074 3.8949 0.0078
# 2 50.9687 72.7843 15.9458 -0.0036 -1.6984 -0.0035
# 3 9.5456 15.9458 64.6492 -0.0035 4.9070 -0.0033
# 4 0.0074 -0.0036 -0.0035 344.2254 0.0058 331.2039
# 5 3.8949 -1.6984 4.9070 0.0058 33.0462 0.0061
# 6 0.0078 -0.0035 -0.0033 331.2039 0.0061 334.0007
#
#
#
# Elastic Compliance Matrix: (Units=1/GPa)
#
#
# Indices 1 2 3 4 5 6 
#
# 1 0.020125 -0.014346 0.000812 0.000000 -0.003230 -0.000001
# 2 -0.014346 0.024806 -0.004273 0.000000 0.003600 0.000001
# 3 0.000812 -0.004273 0.016613 0.000000 -0.002782 0.000000
# 4 0.000000 0.000000 0.000000 0.063312 0.000000 -0.062782
# 5 -0.003230 0.003600 -0.002782 0.000000 0.031240 -0.000001
# 6 -0.000001 0.000001 0.000000 -0.062782 -0.000001 0.065250
#
#
# Mechanical properties :
#
#
# Convention : Reuss Voigt Hill
#
# Bulk Modulus (GPa) = 38.56662 41.84638 40.20650
# Shear Modulus (GPa) = 18.82513 152.07025 85.44769
#
# Velocity S-wave (km/s) = 2.90594 8.25922 6.19109
# Velocity P-wave (km/s) = 5.34409 10.47493 8.31515
#
# Compressibility (1/GPa) = 0.02592916
#
# Stress axis : x y z
#
# Youngs Moduli (GPa) = 49.69032 40.31356 60.19245
#
# Poissons Ratio (x) = 0.57834 -0.04889
# Poissons Ratio (y) = 0.71286 0.25722
# Poissons Ratio (z) = -0.04036 0.17227
#
# Static dielectric constant tensor:
#      x y z
#    x 1.848760 0.000000 0.015120 
#    y 0.000000 1.847800 0.000000 
#    z 0.015120 0.000000 1.890620 
# 
# From -- ./inp_files/157730.got.cif
#   From: 2010.05.17/outbox.cif.g08.bks.cpg/sg15_79_cif.got.tgz:157730.got - 2010.06.03 18:47:42.
