data_PCOD9277401
_publ_section_title
;
Structure prediction by ZEFSAII (Michael W. Deem and Ramdas Pophale) SiO2 
 PCOD9277401
Probable space group: C 2/C
;
_chemical_formula_sum "Si O2"
_cell_formula_units_Z 56
_cell_length_a 12.301294
_cell_length_b 26.441529
_cell_length_c 9.342928
_cell_angle_alpha 90.000000
_cell_angle_beta 116.608359
_cell_angle_gamma 90.000000
_cell_volume 2717.071517
_symmetry_space_group_name_H-M "C 2/C"
_symmetry_group_IT_number 15
_symmetry_cell_setting 'monoclinic'
loop_
_space_group_symop_operation_xyz
x,y,z
-x,y,1/2-z
-x,-y,-z
x,-y,1/2+z
1/2+x,1/2+y,z
1/2-x,1/2+y,1/2-z
1/2-x,1/2-y,-z
1/2+x,1/2-y,1/2+z
loop_
_atom_site_type_symbol
_atom_site_label
_atom_site_fract_x
_atom_site_fract_y
_atom_site_fract_z
Si Si1 0.152912 0.441560 0.633265
Si Si2 0.516372 0.837775 0.595833
Si Si3 0.248997 0.805279 0.930518
Si Si4 0.879535 0.349893 0.260412
Si Si5 0.540521 0.550505 0.608890
Si Si6 0.406784 0.615070 0.316031
Si Si7 0.679167 0.040836 0.813230
O O1 0.058285 0.396371 0.604106
O O2 0.283690 0.417299 0.749259
O O3 0.129158 0.489695 0.716874
O O4 0.168569 0.458737 0.478279
O O5 0.500000 0.825280 0.750000
O O6 0.631314 0.808915 0.596788
O O7 0.395825 0.828499 0.428903
O O8 0.140336 0.829839 0.770982
O O9 0.250000 0.750000 0.000000
O O10 0.270648 0.839717 0.085717
O O11 0.890287 0.409707 0.278794
O O12 0.000000 0.330459 0.250000
O O13 0.500000 0.546472 0.750000
O O14 0.500000 0.500000 0.500000
O O15 0.477933 0.600760 0.503169
O O16 0.684740 0.549913 0.666629
O O17 0.500000 0.596320 0.250000
#
# Coordination Sequence:
#
# PCOD9277401 Si02
#       7
#     8   8   8   8   8   8   8
#     4  11  23  35  56  89 127 176 215 249 308 378
#     4  10  23  42  62  95 129 160 203 267 324 381
#     4  10  22  43  72  95 113 164 220 268 336 394
#     4  10  20  41  62  86 128 162 209 259 317 384
#     4  12  23  35  57  90 133 185 218 260 325 374
#     4  11  20  39  60  90 130 163 220 273 318 402
#     4  12  22  36  55  88 129 173 219 254 300 384
#
# _framework density 20.610423999999998
#
# number of rings (size 3 to 8) (size 9 to 14) (size 15 to 20)
#    0.000    1.143    7.143    1.286    2.000    4.000 
#    0.000    0.714    0.000    4.286    0.000    0.000 
#    0.000    0.000    0.000    0.000    0.000    0.000 
#
# Total GULP energy -156115.343201 kJ/mol
# GULP energy per Si atom -5575.547971 kJ/mol
# Density = 2.056351 g / cm^3
# Si number density = 20.610424 Si / 1000 Ang^3
#
#
#
# Elastic Constant Matrix: (Units=GPa)
#
#
# Indices 1 2 3 4 5 6 
#
# 1 58.0558 9.7125 45.9221 0.0000 -7.5763 0.0000
# 2 9.7125 101.6128 28.9568 0.0000 -9.7471 0.0000
# 3 45.9221 28.9568 120.9106 0.0000 -24.5770 0.0000
# 4 0.0000 0.0000 0.0000 30.0451 0.0000 -9.4542
# 5 -7.5763 -9.7471 -24.5770 0.0000 33.7599 0.0000
# 6 0.0000 0.0000 0.0000 -9.4542 0.0000 6.2975
#
#
#
# Elastic Compliance Matrix: (Units=1/GPa)
#
#
# Indices 1 2 3 4 5 6 
#
# 1 0.024694 0.000275 -0.009744 0.000000 -0.001472 0.000000
# 2 0.000275 0.010623 -0.002362 0.000000 0.001409 0.000000
# 3 -0.009744 -0.002362 0.014030 0.000000 0.007345 0.000000
# 4 0.000000 0.000000 0.000000 0.063085 0.000000 0.094707
# 5 -0.001472 0.001409 0.007345 0.000000 0.035045 0.000000
# 6 0.000000 0.000000 0.000000 0.094707 0.000000 0.300975
#
#
# Mechanical properties :
#
#
# Convention : Reuss Voigt Hill
#
# Bulk Modulus (GPa) = 38.93269 49.97358 44.45313
# Shear Modulus (GPa) = 10.40201 27.08635 18.74418
#
# Velocity S-wave (km/s) = 2.24898 3.62913 3.01898
# Velocity P-wave (km/s) = 5.06702 6.46994 5.81098
#
# Compressibility (1/GPa) = 0.02568536
#
# Stress axis : x y z
#
# Youngs Moduli (GPa) = 40.49532 94.13251 71.27513
#
# Poissons Ratio (x) = -0.02591 0.69451
# Poissons Ratio (y) = -0.01114 0.16837
# Poissons Ratio (z) = 0.39459 0.22236
#
# Static dielectric constant tensor:
#      x y z
#    x 1.667850 0.000000 0.083980 
#    y 0.000000 1.782690 0.000000 
#    z 0.083980 0.000000 1.795940 
# 
# From -- ./inp_files/34334.got.cif
#   From: 2010.05.17/outbox.cif.g08.bks.cpg/sg15_18_cif.got.tgz:34334.got - 2010.06.03 18:47:42.
