data_PCOD9277563
_publ_section_title
;
Structure prediction by ZEFSAII (Michael W. Deem and Ramdas Pophale) SiO2 
 PCOD9277563
Probable space group: C 2/C
;
_chemical_formula_sum "Si O2"
_cell_formula_units_Z 64
_cell_length_a 12.297330
_cell_length_b 21.464209
_cell_length_c 13.292982
_cell_angle_alpha 90.000000
_cell_angle_beta 46.675428
_cell_angle_gamma 90.000000
_cell_volume 2552.515198
_symmetry_space_group_name_H-M "C 2/C"
_symmetry_group_IT_number 15
_symmetry_cell_setting 'monoclinic'
loop_
_space_group_symop_operation_xyz
x,y,z
-x,y,1/2-z
-x,-y,-z
x,-y,1/2+z
1/2+x,1/2+y,z
1/2-x,1/2+y,1/2-z
1/2-x,1/2-y,-z
1/2+x,1/2-y,1/2+z
loop_
_atom_site_type_symbol
_atom_site_label
_atom_site_fract_x
_atom_site_fract_y
_atom_site_fract_z
Si Si1 0.086256 0.625590 0.105727
Si Si2 0.817680 0.070503 0.092845
Si Si3 0.137586 0.039903 0.820021
Si Si4 0.898315 0.613723 0.033662
Si Si5 0.163959 0.161581 0.686836
Si Si6 0.597278 0.664808 0.313002
Si Si7 0.857419 0.696072 0.735625
Si Si8 0.722154 0.392308 0.471685
O O1 0.000000 0.660307 0.250000
O O2 0.823211 0.573773 0.388938
O O3 0.977374 0.597936 0.089264
O O4 0.206550 0.669970 0.976621
O O5 0.862593 0.139805 0.100418
O O6 0.809326 0.030964 0.202487
O O7 0.958655 0.042998 0.943462
O O8 0.176923 0.087299 0.707293
O O9 0.202566 0.068291 0.882497
O O10 0.752672 0.654399 0.155077
O O11 0.820280 0.573590 0.994495
O O12 0.031354 0.648738 0.890874
O O13 0.208110 0.197047 0.760649
O O14 0.000000 0.173489 0.750000
O O15 0.567485 0.737107 0.318148
O O16 0.444211 0.627197 0.387973
O O17 0.808605 0.669048 0.874397
#
# Coordination Sequence:
#
# PCOD9277563 Si02
#       8
#     8   8   8   8   8   8   8   8
#     4  11  22  41  64  91 136 167 204 271 330 377
#     4  10  20  41  65  92 131 169 211 269 321 376
#     4   9  20  41  70  94 122 169 222 269 311 383
#     4  11  23  40  62  94 132 168 210 266 331 387
#     4  10  20  41  66  96 127 172 226 264 320 394
#     4  11  22  40  64  95 131 169 217 262 326 389
#     4  10  23  39  64  97 128 172 211 274 328 383
#     4  10  22  41  67  93 128 168 224 264 319 390
#
# _framework density 25.073308000000001
#
# number of rings (size 3 to 8) (size 9 to 14) (size 15 to 20)
#    0.000    1.750    2.500    1.500    0.000    3.000 
#    4.500    6.250    0.000    0.000    0.000    0.000 
#    0.000    0.000    0.000    0.000    0.000    0.000 
#
# Total GULP energy -178649.986933 kJ/mol
# GULP energy per Si atom -5582.812092 kJ/mol
# Density = 2.501624 g / cm^3
# Si number density = 25.073308 Si / 1000 Ang^3
#
#
#
# Elastic Constant Matrix: (Units=GPa)
#
#
# Indices 1 2 3 4 5 6 
#
# 1 231.9494 9.3619 36.4917 0.0001 0.1511 -0.0001
# 2 9.3619 48.3702 -0.3140 0.0000 0.0550 0.0000
# 3 36.4917 -0.3140 115.1864 0.0001 -7.1193 -0.0001
# 4 0.0001 0.0000 0.0001 19.6062 -0.0001 -2.3824
# 5 0.1511 0.0550 -7.1193 -0.0001 37.4555 0.0001
# 6 -0.0001 0.0000 -0.0001 -2.3824 0.0001 3.7850
#
#
#
# Elastic Compliance Matrix: (Units=1/GPa)
#
#
# Indices 1 2 3 4 5 6 
#
# 1 0.004579 -0.000895 -0.001471 0.000000 -0.000297 0.000000
# 2 -0.000895 0.020849 0.000343 0.000000 0.000038 0.000000
# 3 -0.001471 0.000343 0.009258 0.000000 0.001765 0.000000
# 4 0.000000 0.000000 0.000000 0.055228 0.000000 0.034762
# 5 -0.000297 0.000038 0.001765 0.000000 0.027035 -0.000001
# 6 0.000000 0.000000 0.000000 0.034762 -0.000001 0.286082
#
#
# Mechanical properties :
#
#
# Convention : Reuss Voigt Hill
#
# Bulk Modulus (GPa) = 32.63909 54.06503 43.35206
# Shear Modulus (GPa) = 11.98201 35.50045 23.74123
#
# Velocity S-wave (km/s) = 2.18842 3.76688 3.08047
# Velocity P-wave (km/s) = 4.40809 6.36622 5.47540
#
# Compressibility (1/GPa) = 0.03063811
#
# Stress axis : x y z
#
# Youngs Moduli (GPa) = 218.38240 47.96308 108.01722
#
# Poissons Ratio (x) = 0.04295 0.15895
# Poissons Ratio (y) = 0.19556 -0.03704
# Poissons Ratio (z) = 0.32135 -0.01645
#
# Static dielectric constant tensor:
#      x y z
#    x 2.028000 0.000000 0.041970 
#    y 0.000000 2.027260 0.000000 
#    z 0.041970 0.000000 2.050600 
# 
# From -- ./inp_files/156785.got.cif
#   From: 2010.05.17/outbox.cif.g08.bks.cpg/sg15_79_cif.got.tgz:156785.got - 2010.06.03 18:47:42.
