data_PCOD9277157
_publ_section_title
;
Structure prediction by ZEFSAII (Michael W. Deem and Ramdas Pophale) SiO2 
 PCOD9277157
Probable space group: C 2/C
;
_chemical_formula_sum "Si O2"
_cell_formula_units_Z 52
_cell_length_a 14.452876
_cell_length_b 31.306253
_cell_length_c 15.235678
_cell_angle_alpha 90.000000
_cell_angle_beta 159.987778
_cell_angle_gamma 90.000000
_cell_volume 2359.137654
_symmetry_space_group_name_H-M "C 2/C"
_symmetry_group_IT_number 15
_symmetry_cell_setting 'monoclinic'
loop_
_space_group_symop_operation_xyz
x,y,z
-x,y,1/2-z
-x,-y,-z
x,-y,1/2+z
1/2+x,1/2+y,z
1/2-x,1/2+y,1/2-z
1/2-x,1/2-y,-z
1/2+x,1/2-y,1/2+z
loop_
_atom_site_type_symbol
_atom_site_label
_atom_site_fract_x
_atom_site_fract_y
_atom_site_fract_z
Si Si1 0.127842 0.430850 0.530884
Si Si2 0.202704 0.484840 0.014648
Si Si3 0.632026 0.278443 0.629248
Si Si4 0.653036 0.149287 0.293817
Si Si5 0.000000 0.611532 0.750000
Si Si6 0.495584 0.353313 0.638869
Si Si7 0.719580 0.400060 0.304903
O O1 0.150239 0.420192 0.447678
O O2 0.852450 0.418095 0.334284
O O3 0.139462 0.481847 0.536796
O O4 0.356063 0.396449 0.763697
O O5 0.000000 0.484892 0.750000
O O6 0.500000 0.497668 0.250000
O O7 0.234018 0.437658 0.082961
O O8 0.352646 0.255640 0.356695
O O9 0.731348 0.305323 0.633674
O O10 0.596361 0.313155 0.675218
O O11 0.500000 0.149562 0.250000
O O12 0.911571 0.116735 0.525472
O O13 0.422337 0.136791 0.018026
O O14 0.823917 0.640156 0.657331
O O15 0.500000 0.348271 0.750000
#
# Coordination Sequence:
#
# PCOD9277157 Si02
#       7
#     8   8   8   8   4   8   8
#     4  11  23  41  68 101 143 193 236 286 340 411
#     4  12  25  43  65 105 149 186 242 288 337 403
#     4  12  28  47  73 106 139 176 228 301 354 426
#     4  12  26  49  75 103 140 187 232 290 361 423
#     4  10  20  40  68  96 138 196 228 282 336 426
#     4  10  23  42  69 101 140 189 231 278 355 421
#     4  12  25  44  74 103 142 189 237 290 347 410
#
# _framework density 22.041954
#
# number of rings (size 3 to 8) (size 9 to 14) (size 15 to 20)
#    0.000    0.615    2.308    6.462    4.308    1.231 
#    0.000    3.077    0.000    0.000    0.000    0.000 
#    0.000    0.000    0.000    0.000    0.000    0.000 
#
# Total GULP energy -145026.528375 kJ/mol
# GULP energy per Si atom -5577.943399 kJ/mol
# Density = 2.199179 g / cm^3
# Si number density = 22.041954 Si / 1000 Ang^3
#
#
#
# Elastic Constant Matrix: (Units=GPa)
#
#
# Indices 1 2 3 4 5 6 
#
# 1 99.5515 23.8721 35.7866 -0.0023 20.6493 -0.0086
# 2 23.8721 72.8406 15.6566 -0.0014 1.2889 0.0046
# 3 35.7866 15.6566 102.0885 -0.0035 13.2230 -0.0461
# 4 -0.0023 -0.0014 -0.0035 32.2406 0.0026 3.8946
# 5 20.6493 1.2889 13.2230 0.0026 31.4478 0.0102
# 6 -0.0086 0.0046 -0.0461 3.8946 0.0102 41.6149
#
#
#
# Elastic Compliance Matrix: (Units=1/GPa)
#
#
# Indices 1 2 3 4 5 6 
#
# 1 0.013629 -0.003635 -0.003258 0.000001 -0.007430 0.000001
# 2 -0.003635 0.015170 -0.001355 0.000001 0.002335 -0.000005
# 3 -0.003258 -0.001355 0.011486 0.000000 -0.002635 0.000013
# 4 0.000001 0.000001 0.000000 0.031371 -0.000002 -0.002936
# 5 -0.007430 0.002335 -0.002635 -0.000002 0.037690 -0.000014
# 6 0.000001 -0.000005 0.000013 -0.002936 -0.000014 0.024305
#
#
# Mechanical properties :
#
#
# Convention : Reuss Voigt Hill
#
# Bulk Modulus (GPa) = 42.03336 47.23457 44.63396
# Shear Modulus (GPa) = 31.63035 34.33835 32.98435
#
# Velocity S-wave (km/s) = 3.79226 3.95126 3.87258
# Velocity P-wave (km/s) = 6.18757 6.50327 6.34738
#
# Compressibility (1/GPa) = 0.02379063
#
# Stress axis : x y z
#
# Youngs Moduli (GPa) = 73.37299 65.92065 87.05889
#
# Poissons Ratio (x) = 0.23962 0.28361
# Poissons Ratio (y) = 0.26671 0.11793
# Poissons Ratio (z) = 0.23903 0.08930
#
# Static dielectric constant tensor:
#      x y z
#    x 1.875100 -0.000040 -0.030610 
#    y -0.000040 1.887910 -0.000010 
#    z -0.030610 -0.000010 1.934150 
# 
# From -- ./inp_files/207638.got.cif
#   From: 2010.05.17/outbox.cif.g08.bks.cpg/sg15_104_cif.got.tgz:207638.got - 2010.06.03 18:47:42.
