data_PCOD9277165
_publ_section_title
;
Structure prediction by ZEFSAII (Michael W. Deem and Ramdas Pophale) SiO2 
 PCOD9277165
Probable space group: C 2/C
;
_chemical_formula_sum "Si O2"
_cell_formula_units_Z 44
_cell_length_a 9.432221
_cell_length_b 30.168494
_cell_length_c 9.702685
_cell_angle_alpha 90.000000
_cell_angle_beta 60.898331
_cell_angle_gamma 90.000000
_cell_volume 2412.407799
_symmetry_space_group_name_H-M "C 2/C"
_symmetry_group_IT_number 15
_symmetry_cell_setting 'monoclinic'
loop_
_space_group_symop_operation_xyz
x,y,z
-x,y,1/2-z
-x,-y,-z
x,-y,1/2+z
1/2+x,1/2+y,z
1/2-x,1/2+y,1/2-z
1/2-x,1/2-y,-z
1/2+x,1/2-y,1/2+z
loop_
_atom_site_type_symbol
_atom_site_label
_atom_site_fract_x
_atom_site_fract_y
_atom_site_fract_z
Si Si1 0.573254 0.060599 0.453249
Si Si2 0.157795 0.625811 0.075588
Si Si3 0.809680 0.232545 0.328255
Si Si4 0.305598 0.711755 0.866532
Si Si5 0.000000 0.501516 0.750000
Si Si6 0.821060 0.867268 0.770291
O O1 0.403701 0.085391 0.491995
O O2 0.606042 0.030740 0.300065
O O3 0.704924 0.098970 0.404101
O O4 0.572376 0.032335 0.594039
O O5 0.302183 0.619108 0.118556
O O6 0.000000 0.634570 0.250000
O O7 0.217339 0.667081 0.957177
O O8 0.750000 0.250000 0.500000
O O9 0.761668 0.269420 0.242888
O O10 0.754012 0.183079 0.314345
O O11 0.000000 0.228573 0.250000
O O12 0.500000 0.706964 0.750000
O O13 0.250000 0.750000 0.000000
O O14 0.000000 0.869187 0.750000
#
# Coordination Sequence:
#
# PCOD9277165 Si02
#       6
#     8   8   8   8   4   8
#     4  10  21  40  70  88 124 158 202 257 305 384
#     4  10  21  41  63  88 118 172 202 252 312 366
#     4  11  25  38  56  84 122 163 210 253 293 353
#     4  12  24  38  61  86 121 166 214 256 293 361
#     4  10  20  40  68  98 112 154 214 248 312 378
#     4  10  21  39  60  84 127 160 195 249 324 351
#
# _framework density 18.239038000000001
#
# number of rings (size 3 to 8) (size 9 to 14) (size 15 to 20)
#    0.000    1.455    4.545    1.636   10.182    1.455 
#    0.000    0.909    0.000    0.000    0.000    0.000 
#    0.000    0.000    0.000    0.000    0.000    0.000 
#
# Total GULP energy -122474.061588 kJ/mol
# GULP energy per Si atom -5567.002799 kJ/mol
# Density = 1.819753 g / cm^3
# Si number density = 18.239038 Si / 1000 Ang^3
#
#
#
# Elastic Constant Matrix: (Units=GPa)
#
#
# Indices 1 2 3 4 5 6 
#
# 1 82.2341 32.7917 25.8673 0.0000 15.9579 0.0000
# 2 32.7917 98.6467 38.2396 0.0000 2.8765 0.0000
# 3 25.8673 38.2396 107.4557 0.0000 19.3559 0.0000
# 4 0.0000 0.0000 0.0000 41.8477 0.0000 -2.9233
# 5 15.9579 2.8765 19.3559 0.0000 31.7819 0.0000
# 6 0.0000 0.0000 0.0000 -2.9233 0.0000 25.6061
#
#
#
# Elastic Compliance Matrix: (Units=1/GPa)
#
#
# Indices 1 2 3 4 5 6 
#
# 1 0.015629 -0.004660 -0.000861 0.000000 -0.006901 0.000000
# 2 -0.004660 0.013228 -0.004259 0.000000 0.003736 0.000000
# 3 -0.000861 -0.004259 0.012222 0.000000 -0.006626 0.000000
# 4 0.000000 0.000000 0.000000 0.024088 0.000000 0.002750
# 5 -0.006901 0.003736 -0.006626 0.000000 0.038627 0.000000
# 6 0.000000 0.000000 0.000000 0.002750 0.000000 0.039367
#
#
# Mechanical properties :
#
#
# Convention : Reuss Voigt Hill
#
# Bulk Modulus (GPa) = 46.46817 53.57042 50.01930
# Shear Modulus (GPa) = 29.43004 32.60965 31.01984
#
# Velocity S-wave (km/s) = 4.02129 4.23295 4.12848
# Velocity P-wave (km/s) = 6.86248 7.30243 7.08587
#
# Compressibility (1/GPa) = 0.02152011
#
# Stress axis : x y z
#
# Youngs Moduli (GPa) = 63.98465 75.59582 81.81715
#
# Poissons Ratio (x) = 0.35231 0.07041
# Poissons Ratio (y) = 0.29819 0.34843
# Poissons Ratio (z) = 0.05507 0.32193
#
# Static dielectric constant tensor:
#      x y z
#    x 1.618280 0.000000 0.038510 
#    y 0.000000 1.669010 0.000000 
#    z 0.038510 0.000000 1.549250 
# 
# From -- ./inp_files/25477.got.cif
#   From: 2010.05.17/outbox.cif.g08.bks.cpg/sg15_13_cif.got.tgz:25477.got - 2010.06.03 18:47:42.
