data_PCOD9277233
_publ_section_title
;
Structure prediction by ZEFSAII (Michael W. Deem and Ramdas Pophale) SiO2 
 PCOD9277233
Probable space group: C 2/C
;
_chemical_formula_sum "Si O2"
_cell_formula_units_Z 40
_cell_length_a 11.090277
_cell_length_b 11.885143
_cell_length_c 27.672887
_cell_angle_alpha 90.000000
_cell_angle_beta 29.233244
_cell_angle_gamma 90.000000
_cell_volume 1781.339713
_symmetry_space_group_name_H-M "C 2/C"
_symmetry_group_IT_number 15
_symmetry_cell_setting 'monoclinic'
loop_
_space_group_symop_operation_xyz
x,y,z
-x,y,1/2-z
-x,-y,-z
x,-y,1/2+z
1/2+x,1/2+y,z
1/2-x,1/2+y,1/2-z
1/2-x,1/2-y,-z
1/2+x,1/2-y,1/2+z
loop_
_atom_site_type_symbol
_atom_site_label
_atom_site_fract_x
_atom_site_fract_y
_atom_site_fract_z
Si Si1 0.338809 0.453160 0.250839
Si Si2 0.693654 0.835001 0.401918
Si Si3 0.434454 0.594230 0.087841
Si Si4 0.863880 0.419382 0.360921
Si Si5 0.134492 0.840542 0.624054
O O1 0.227832 0.398160 0.338323
O O2 0.562581 0.372579 0.154627
O O3 0.475517 0.570937 0.209018
O O4 0.121502 0.467216 0.289085
O O5 0.695729 0.702179 0.391153
O O6 0.429127 0.863601 0.517680
O O7 0.260491 0.486497 0.139591
O O8 0.527636 0.639406 0.107022
O O9 0.676518 0.567954 0.971630
O O10 0.894685 0.285209 0.345948
#
# Coordination Sequence:
#
# PCOD9277233 Si02
#       5
#     8   8   8   8   8
#     4  11  22  34  64  90 126 173 219 257 334 394
#     4  10  21  41  61  91 124 176 211 268 334 383
#     4  10  20  40  70  87 129 166 218 276 331 385
#     4  10  21  38  64 101 120 167 223 271 329 394
#     4  11  21  41  63  94 133 164 215 281 319 386
#
# _framework density 22.455009
#
# number of rings (size 3 to 8) (size 9 to 14) (size 15 to 20)
#    0.000    1.600    4.000    1.800    2.800    0.800 
#    0.000    4.000    0.000    6.000    0.000    0.000 
#    0.000    0.000    0.000    0.000    0.000    0.000 
#
# Total GULP energy -111717.026162 kJ/mol
# GULP energy per Si atom -5585.851308 kJ/mol
# Density = 2.240390 g / cm^3
# Si number density = 22.455009 Si / 1000 Ang^3
#
#
#
# Elastic Constant Matrix: (Units=GPa)
#
#
# Indices 1 2 3 4 5 6 
#
# 1 87.8982 48.1387 35.8257 -0.0018 -9.9510 -0.0008
# 2 48.1387 144.4826 67.3221 0.0071 -16.0071 -0.0011
# 3 35.8257 67.3221 106.3438 -0.0829 -20.3746 0.0073
# 4 -0.0018 0.0071 -0.0829 42.9104 0.0127 -3.6116
# 5 -9.9510 -16.0071 -20.3746 0.0127 36.6366 0.0030
# 6 -0.0008 -0.0011 0.0073 -3.6116 0.0030 23.2947
#
#
#
# Elastic Compliance Matrix: (Units=1/GPa)
#
#
# Indices 1 2 3 4 5 6 
#
# 1 0.014429 -0.003575 -0.002402 -0.000004 0.001021 0.000000
# 2 -0.003575 0.010731 -0.005459 -0.000013 0.000682 0.000000
# 3 -0.002402 -0.005459 0.014647 0.000027 0.005108 -0.000001
# 4 -0.000004 -0.000013 0.000027 0.023613 0.000000 0.003661
# 5 0.001021 0.000682 0.005108 0.000000 0.030711 -0.000005
# 6 0.000000 0.000000 -0.000001 0.003661 -0.000005 0.043496
#
#
# Mechanical properties :
#
#
# Convention : Reuss Voigt Hill
#
# Bulk Modulus (GPa) = 59.04510 71.25529 65.15019
# Shear Modulus (GPa) = 30.09425 33.06420 31.57922
#
# Velocity S-wave (km/s) = 3.66485 3.84143 3.75418
# Velocity P-wave (km/s) = 6.65283 7.17474 6.91870
#
# Compressibility (1/GPa) = 0.01693621
#
# Stress axis : x y z
#
# Youngs Moduli (GPa) = 69.30262 93.18432 68.27335
#
# Poissons Ratio (x) = 0.33315 0.16400
# Poissons Ratio (y) = 0.24777 0.37267
# Poissons Ratio (z) = 0.16647 0.50865
#
# Static dielectric constant tensor:
#      x y z
#    x 1.887720 0.000000 0.035920 
#    y 0.000000 1.852740 0.000000 
#    z 0.035920 0.000000 1.873010 
# 
# From -- ./inp_files/141740.got.cif
#   From: 2010.05.17/outbox.cif.g08.bks.cpg/sg15_71_cif.got.tgz:141740.got - 2010.06.03 18:47:42.
