data_PCOD9277433
_publ_section_title
;
Structure prediction by ZEFSAII (Michael W. Deem and Ramdas Pophale) SiO2 
 PCOD9277433
Probable space group: C 2/C
;
_chemical_formula_sum "Si O2"
_cell_formula_units_Z 52
_cell_length_a 6.778851
_cell_length_b 14.150742
_cell_length_c 31.064670
_cell_angle_alpha 90.000000
_cell_angle_beta 120.983693
_cell_angle_gamma 90.000000
_cell_volume 2554.711636
_symmetry_space_group_name_H-M "C 2/C"
_symmetry_group_IT_number 15
_symmetry_cell_setting 'monoclinic'
loop_
_space_group_symop_operation_xyz
x,y,z
-x,y,1/2-z
-x,-y,-z
x,-y,1/2+z
1/2+x,1/2+y,z
1/2-x,1/2+y,1/2-z
1/2-x,1/2-y,-z
1/2+x,1/2-y,1/2+z
loop_
_atom_site_type_symbol
_atom_site_label
_atom_site_fract_x
_atom_site_fract_y
_atom_site_fract_z
Si Si1 0.000000 0.727178 0.250000
Si Si2 0.466774 0.531948 0.447537
Si Si3 0.642133 0.069778 0.548042
Si Si4 0.440774 0.993558 0.867417
Si Si5 0.985328 0.684437 0.830659
Si Si6 0.890923 0.296807 0.833922
Si Si7 0.420635 0.258579 0.918961
O O1 0.237470 0.781151 0.286506
O O2 0.060765 0.681051 0.210913
O O3 0.500000 0.500000 0.500000
O O4 0.599296 0.450043 0.437211
O O5 0.531507 0.641076 0.444942
O O6 0.203632 0.531721 0.405461
O O7 0.554498 0.177170 0.541862
O O8 0.500000 0.000000 0.500000
O O9 0.639658 0.036869 0.596922
O O10 0.309964 0.896907 0.843843
O O11 0.452227 0.072394 0.832133
O O12 0.018349 0.725328 0.883345
O O13 0.195231 0.720657 0.824436
O O14 0.141868 0.267445 0.880891
#
# Coordination Sequence:
#
# PCOD9277433 Si02
#       7
#     4   8   8   8   8   8   8
#     4  10  22  40  60  94 114 144 202 244 300 384
#     4  11  21  37  55  86 121 157 207 251 293 360
#     4  11  21  37  55  86 121 157 207 251 293 360
#     4  10  22  40  60  90 116 162 202 242 312 356
#     4  10  20  41  63  86 120 156 196 249 310 364
#     4  10  20  41  63  86 120 156 196 249 310 364
#     4   9  22  37  58  84 120 160 200 251 300 357
#
# _framework density 20.354548000000001
#
# number of rings (size 3 to 8) (size 9 to 14) (size 15 to 20)
#    0.000    1.846    1.538    2.308    0.000    1.231 
#    8.308    0.000    0.000    0.000    0.000    0.000 
#    0.000    0.000    0.000    0.000    0.000    0.000 
#
# Total GULP energy -144810.804960 kJ/mol
# GULP energy per Si atom -5569.646345 kJ/mol
# Density = 2.030822 g / cm^3
# Si number density = 20.354548 Si / 1000 Ang^3
#
#
#
# Elastic Constant Matrix: (Units=GPa)
#
#
# Indices 1 2 3 4 5 6 
#
# 1 69.2469 -20.1715 -2.4916 0.0000 -14.6111 0.0000
# 2 -20.1715 43.8001 15.0900 0.0000 -16.1016 0.0000
# 3 -2.4916 15.0900 48.3805 0.0000 -0.3263 0.0000
# 4 0.0000 0.0000 0.0000 3.5479 0.0000 -7.6290
# 5 -14.6111 -16.1016 -0.3263 0.0000 26.6765 0.0000
# 6 0.0000 0.0000 0.0000 -7.6290 0.0000 20.6187
#
#
#
# Elastic Compliance Matrix: (Units=1/GPa)
#
#
# Indices 1 2 3 4 5 6 
#
# 1 0.029243 0.027926 -0.006983 0.000000 0.032787 0.000000
# 2 0.027926 0.060571 -0.017106 0.000000 0.051646 0.000000
# 3 -0.006983 -0.017106 0.025552 0.000000 -0.013837 0.000000
# 4 0.000000 0.000000 0.000000 1.378938 0.000000 0.510211
# 5 0.032787 0.051646 -0.013837 0.000000 0.086448 0.000000
# 6 0.000000 0.000000 0.000000 0.510211 0.000000 0.237279
#
#
# Mechanical properties :
#
#
# Convention : Reuss Voigt Hill
#
# Bulk Modulus (GPa) = 8.12741 16.25350 12.19045
# Shear Modulus (GPa) = 2.70070 21.43535 12.06803
#
# Velocity S-wave (km/s) = 1.15313 3.24867 2.43758
# Velocity P-wave (km/s) = 2.40303 4.69833 3.73155
#
# Compressibility (1/GPa) = 0.12304046
#
# Stress axis : x y z
#
# Youngs Moduli (GPa) = 34.19645 16.50948 39.13607
#
# Poissons Ratio (x) = -0.46105 0.27329
# Poissons Ratio (y) = -0.95498 0.66945
# Poissons Ratio (z) = 0.23880 0.28241
#
# Static dielectric constant tensor:
#      x y z
#    x 1.739500 0.000000 0.002610 
#    y 0.000000 1.813260 0.000000 
#    z 0.002610 0.000000 1.762610 
# 
# From -- ./inp_files/305449.got.cif
#   From: 2010.05.17/outbox.cif.g08.bks.cpg/sg15_153_cif.got.tgz:305449.got - 2010.06.03 18:47:42.
