data_PCOD9277038
_publ_section_title
;
Structure prediction by ZEFSAII (Michael W. Deem and Ramdas Pophale) SiO2 
 PCOD9277038
Probable space group: C 2/C
;
_chemical_formula_sum "Si O2"
_cell_formula_units_Z 64
_cell_length_a 11.972931
_cell_length_b 27.532997
_cell_length_c 14.342900
_cell_angle_alpha 90.000000
_cell_angle_beta 40.827519
_cell_angle_gamma 90.000000
_cell_volume 3091.187150
_symmetry_space_group_name_H-M "C 2/C"
_symmetry_group_IT_number 15
_symmetry_cell_setting 'monoclinic'
loop_
_space_group_symop_operation_xyz
x,y,z
-x,y,1/2-z
-x,-y,-z
x,-y,1/2+z
1/2+x,1/2+y,z
1/2-x,1/2+y,1/2-z
1/2-x,1/2-y,-z
1/2+x,1/2-y,1/2+z
loop_
_atom_site_type_symbol
_atom_site_label
_atom_site_fract_x
_atom_site_fract_y
_atom_site_fract_z
Si Si1 0.191424 0.217361 0.450878
Si Si2 0.833837 0.731792 0.163656
Si Si3 0.587790 0.620172 0.052595
Si Si4 0.841270 0.676078 0.780271
Si Si5 0.765998 0.374151 0.638567
Si Si6 0.906263 0.954283 0.105692
Si Si7 0.865620 0.882673 0.413442
Si Si8 0.629514 0.091457 0.895702
O O1 0.250000 0.250000 0.500000
O O2 0.315140 0.220504 0.284769
O O3 0.177418 0.162272 0.494240
O O4 0.009475 0.240037 0.538555
O O5 0.678642 0.768127 0.236430
O O6 0.827290 0.681416 0.112105
O O7 0.383944 0.619120 0.191141
O O8 0.673166 0.619206 0.098989
O O9 0.669931 0.665112 0.947184
O O10 0.645229 0.575924 0.952839
O O11 0.844104 0.638728 0.690360
O O12 0.000000 0.667512 0.750000
O O13 0.926654 0.410074 0.538405
O O14 0.735268 0.952217 0.278731
O O15 0.041981 0.924256 0.083839
O O16 0.000000 0.000000 0.000000
O O17 0.710969 0.900230 0.446102
O O18 0.000000 0.864972 0.250000
#
# Coordination Sequence:
#
# PCOD9277038 Si02
#       8
#     8   8   8   8   8   8   8   8
#     4  12  23  38  59  90 130 180 223 271 324 388
#     4  12  24  34  55  91 132 174 235 273 316 386
#     4  10  23  40  62  86 129 171 212 273 338 390
#     4  11  21  37  60  89 129 182 231 278 325 386
#     4  11  22  39  58  93 131 177 213 270 334 380
#     4  10  22  44  72  96 121 162 212 267 336 407
#     4  10  20  40  67  93 131 167 216 272 327 388
#     4  10  21  41  68  94 126 168 222 269 330 401
#
# _framework density 20.70402
#
# number of rings (size 3 to 8) (size 9 to 14) (size 15 to 20)
#    0.000    1.250    1.250    7.125    1.750    0.500 
#    6.750    2.500    2.750    0.000    0.000    0.000 
#    0.000    0.000    0.000    0.000    0.000    0.000 
#
# Total GULP energy -178607.575799 kJ/mol
# GULP energy per Si atom -5581.486744 kJ/mol
# Density = 2.065690 g / cm^3
# Si number density = 20.704020 Si / 1000 Ang^3
#
#
#
# Elastic Constant Matrix: (Units=GPa)
#
#
# Indices 1 2 3 4 5 6 
#
# 1 91.7410 14.5662 26.0183 0.0000 0.5897 0.0000
# 2 14.5662 56.0989 25.9146 0.0000 2.8911 0.0000
# 3 26.0183 25.9146 128.0081 0.0000 -10.1921 0.0000
# 4 0.0000 0.0000 0.0000 19.1730 0.0000 8.6293
# 5 0.5897 2.8911 -10.1921 0.0000 34.1820 0.0000
# 6 0.0000 0.0000 0.0000 8.6293 0.0000 17.8699
#
#
#
# Elastic Compliance Matrix: (Units=1/GPa)
#
#
# Indices 1 2 3 4 5 6 
#
# 1 0.011812 -0.002099 -0.002026 0.000000 -0.000630 0.000000
# 2 -0.002099 0.020326 -0.003915 0.000000 -0.002850 0.000000
# 3 -0.002026 -0.003915 0.009266 0.000000 0.003129 0.000000
# 4 0.000000 0.000000 0.000000 0.066640 0.000000 -0.032180
# 5 -0.000630 -0.002850 0.003129 0.000000 0.030440 0.000000
# 6 0.000000 0.000000 0.000000 -0.032180 0.000000 0.071499
#
#
# Mechanical properties :
#
#
# Convention : Reuss Voigt Hill
#
# Bulk Modulus (GPa) = 39.48877 45.42732 42.45805
# Shear Modulus (GPa) = 21.32154 28.20159 24.76156
#
# Velocity S-wave (km/s) = 3.21257 3.69471 3.46204
# Velocity P-wave (km/s) = 5.73369 6.33957 6.04423
#
# Compressibility (1/GPa) = 0.02532366
#
# Stress axis : x y z
#
# Youngs Moduli (GPa) = 84.65856 49.19780 107.92597
#
# Poissons Ratio (x) = 0.10324 0.21868
# Poissons Ratio (y) = 0.17766 0.42257
# Poissons Ratio (z) = 0.17154 0.19263
#
# Static dielectric constant tensor:
#      x y z
#    x 1.667120 0.000000 -0.104540 
#    y 0.000000 1.754630 0.000000 
#    z -0.104540 0.000000 1.711430 
# 
# From -- ./inp_files/149151.got.cif
#   From: 2010.05.17/outbox.cif.g08.bks.cpg/sg15_75_cif.got.tgz:149151.got - 2010.06.03 18:47:42.
