data_PCOD9277899
_publ_section_title
;
Structure prediction by ZEFSAII (Michael W. Deem and Ramdas Pophale) SiO2 
 PCOD9277899
Probable space group: C 2/C
;
_chemical_formula_sum "Si O2"
_cell_formula_units_Z 48
_cell_length_a 14.355635
_cell_length_b 11.892574
_cell_length_c 22.032996
_cell_angle_alpha 90.000000
_cell_angle_beta 141.747158
_cell_angle_gamma 90.000000
_cell_volume 2328.926109
_symmetry_space_group_name_H-M "C 2/C"
_symmetry_group_IT_number 15
_symmetry_cell_setting 'monoclinic'
loop_
_space_group_symop_operation_xyz
x,y,z
-x,y,1/2-z
-x,-y,-z
x,-y,1/2+z
1/2+x,1/2+y,z
1/2-x,1/2+y,1/2-z
1/2-x,1/2-y,-z
1/2+x,1/2-y,1/2+z
loop_
_atom_site_type_symbol
_atom_site_label
_atom_site_fract_x
_atom_site_fract_y
_atom_site_fract_z
Si Si1 0.258248 0.514337 0.501600
Si Si2 0.555635 0.602013 0.709757
Si Si3 0.327323 0.922630 0.276558
Si Si4 0.385425 0.194096 0.530270
Si Si5 0.999229 0.643158 0.322693
Si Si6 0.128491 0.096137 0.557589
O O1 0.428774 0.538983 0.606204
O O2 0.181542 0.432233 0.512085
O O3 0.260640 0.452639 0.437537
O O4 0.159456 0.623655 0.437378
O O5 0.500000 0.593422 0.750000
O O6 0.722225 0.560226 0.781313
O O7 0.557762 0.732937 0.692922
O O8 0.459014 0.832170 0.355249
O O9 0.218176 0.889165 0.165605
O O10 0.399549 0.041341 0.295951
O O11 0.250000 0.250000 0.500000
O O12 0.419897 0.281945 0.493866
O O13 0.000000 0.633691 0.250000
O O14 0.000000 0.000000 0.500000
#
# Coordination Sequence:
#
# PCOD9277899 Si02
#       6
#     8   8   8   8   8   8
#     4  10  20  42  61  94 129 172 223 276 340 408
#     4  11  25  42  62  95 136 181 222 282 348 408
#     4  11  23  42  69  99 130 180 233 281 346 411
#     4   9  23  40  63 100 138 169 220 286 346 408
#     4  10  21  39  68  92 125 170 225 280 336 416
#     4  11  21  39  70 100 132 172 231 281 339 418
#
# _framework density 20.610358000000002
#
# number of rings (size 3 to 8) (size 9 to 14) (size 15 to 20)
#    0.000    1.667    3.333    0.500    2.333    0.000 
#   12.000    1.667    0.000    0.000    0.000    0.000 
#    0.000    0.000    0.000    0.000    0.000    0.000 
#
# Total GULP energy -133798.883326 kJ/mol
# GULP energy per Si atom -5574.953472 kJ/mol
# Density = 2.056345 g / cm^3
# Si number density = 20.610358 Si / 1000 Ang^3
#
#
#
# Elastic Constant Matrix: (Units=GPa)
#
#
# Indices 1 2 3 4 5 6 
#
# 1 92.7869 30.2139 34.9869 0.0000 8.8015 0.0000
# 2 30.2139 71.7399 31.7097 0.0000 -0.6396 0.0000
# 3 34.9869 31.7097 100.1638 0.0000 17.9076 0.0000
# 4 0.0000 0.0000 0.0000 22.6287 0.0000 5.9980
# 5 8.8015 -0.6396 17.9076 0.0000 26.6613 0.0000
# 6 0.0000 0.0000 0.0000 5.9980 0.0000 23.7751
#
#
#
# Elastic Compliance Matrix: (Units=1/GPa)
#
#
# Indices 1 2 3 4 5 6 
#
# 1 0.013561 -0.004480 -0.002840 0.000000 -0.002677 0.000000
# 2 -0.004480 0.018145 -0.005139 0.000000 0.005366 0.000000
# 3 -0.002840 -0.005139 0.014157 0.000000 -0.008695 0.000000
# 4 0.000000 0.000000 0.000000 0.047358 0.000000 -0.011948
# 5 -0.002677 0.005366 -0.008695 0.000000 0.044360 0.000000
# 6 0.000000 0.000000 0.000000 -0.011948 0.000000 0.045075
#
#
# Mechanical properties :
#
#
# Convention : Reuss Voigt Hill
#
# Bulk Modulus (GPa) = 47.74281 50.94573 49.34427
# Shear Modulus (GPa) = 23.30397 25.79837 24.55117
#
# Velocity S-wave (km/s) = 3.36622 3.54180 3.45513
# Velocity P-wave (km/s) = 6.19059 6.44189 6.31749
#
# Compressibility (1/GPa) = 0.02094556
#
# Stress axis : x y z
#
# Youngs Moduli (GPa) = 73.74134 55.11082 70.63654
#
# Poissons Ratio (x) = 0.24689 0.20061
# Poissons Ratio (y) = 0.33035 0.36300
# Poissons Ratio (z) = 0.20943 0.28321
#
# Static dielectric constant tensor:
#      x y z
#    x 1.801750 0.000000 0.000700 
#    y 0.000000 1.764580 0.000000 
#    z 0.000700 0.000000 1.758940 
# 
# From -- ./inp_files/152163.got.cif
#   From: 2010.05.17/outbox.cif.g08.bks.cpg/sg15_77_cif.got.tgz:152163.got - 2010.06.03 18:47:42.
