data_PCOD9277971
_publ_section_title
;
Structure prediction by ZEFSAII (Michael W. Deem and Ramdas Pophale) SiO2 
 PCOD9277971
Probable space group: C 2/C
;
_chemical_formula_sum "Si O2"
_cell_formula_units_Z 40
_cell_length_a 12.121872
_cell_length_b 8.794339
_cell_length_c 21.290784
_cell_angle_alpha 90.000000
_cell_angle_beta 137.714772
_cell_angle_gamma 90.000000
_cell_volume 1527.089899
_symmetry_space_group_name_H-M "C 2/C"
_symmetry_group_IT_number 15
_symmetry_cell_setting 'monoclinic'
loop_
_space_group_symop_operation_xyz
x,y,z
-x,y,1/2-z
-x,-y,-z
x,-y,1/2+z
1/2+x,1/2+y,z
1/2-x,1/2+y,1/2-z
1/2-x,1/2-y,-z
1/2+x,1/2-y,1/2+z
loop_
_atom_site_type_symbol
_atom_site_label
_atom_site_fract_x
_atom_site_fract_y
_atom_site_fract_z
Si Si1 0.182782 0.627962 0.760181
Si Si2 0.862009 0.952437 0.141329
Si Si3 0.067621 0.813873 0.922699
Si Si4 0.407992 0.190442 0.439689
Si Si5 0.964673 0.304743 0.825448
O O1 0.323063 0.674201 0.768622
O O2 0.121673 0.456416 0.735610
O O3 0.265924 0.689321 0.858356
O O4 0.033557 0.728413 0.673161
O O5 0.000000 0.002374 0.250000
O O6 0.913153 0.015398 0.093572
O O7 0.882909 0.770719 0.145324
O O8 0.308235 0.964412 0.913637
O O9 0.003452 0.768121 0.964269
O O10 0.250000 0.250000 0.500000
O O11 0.504491 0.163764 0.415584
#
# Coordination Sequence:
#
# PCOD9277971 Si02
#       5
#     8   8   8   8   8
#     4  10  20  42  63  96 131 172 228 269 339 404
#     4  11  19  41  64  90 130 172 218 278 329 394
#     4  10  21  38  67  91 134 182 214 282 345 388
#     4   9  22  39  66  93 132 173 220 279 333 398
#     4  10  22  40  69  96 128 182 222 275 343 398
#
# _framework density 26.193611000000001
#
# number of rings (size 3 to 8) (size 9 to 14) (size 15 to 20)
#    1.200    0.800    2.000    2.400    0.000    1.600 
#    7.200    4.000    0.000    0.000    0.000    0.000 
#    0.000    0.000    0.000    0.000    0.000    0.000 
#
# Total GULP energy -111760.909481 kJ/mol
# GULP energy per Si atom -5588.045474 kJ/mol
# Density = 2.613399 g / cm^3
# Si number density = 26.193611 Si / 1000 Ang^3
#
#
#
# Elastic Constant Matrix: (Units=GPa)
#
#
# Indices 1 2 3 4 5 6 
#
# 1 86.4265 32.4186 11.8310 0.0000 -9.0216 0.0000
# 2 32.4186 148.9792 30.5719 0.0000 -10.2888 0.0000
# 3 11.8310 30.5719 99.3759 0.0000 -18.4091 0.0000
# 4 0.0000 0.0000 0.0000 37.2463 0.0000 -2.1066
# 5 -9.0216 -10.2888 -18.4091 0.0000 39.6179 0.0000
# 6 0.0000 0.0000 0.0000 -2.1066 0.0000 45.5009
#
#
#
# Elastic Compliance Matrix: (Units=1/GPa)
#
#
# Indices 1 2 3 4 5 6 
#
# 1 0.012800 -0.002570 -0.000347 0.000000 0.002086 0.000000
# 2 -0.002570 0.007711 -0.001974 0.000000 0.000500 0.000000
# 3 -0.000347 -0.001974 0.011600 0.000000 0.004799 0.000000
# 4 0.000000 0.000000 0.000000 0.026919 0.000000 0.001246
# 5 0.002086 0.000500 0.004799 0.000000 0.028076 0.000000
# 6 0.000000 0.000000 0.000000 0.001246 0.000000 0.022035
#
#
# Mechanical properties :
#
#
# Convention : Reuss Voigt Hill
#
# Bulk Modulus (GPa) = 44.78221 53.82495 49.30358
# Shear Modulus (GPa) = 39.56780 41.80369 40.68574
#
# Velocity S-wave (km/s) = 3.89085 3.99927 3.94543
# Velocity P-wave (km/s) = 6.10890 6.47449 6.29435
#
# Compressibility (1/GPa) = 0.02233029
#
# Stress axis : x y z
#
# Youngs Moduli (GPa) = 78.12635 129.68221 86.20549
#
# Poissons Ratio (x) = 0.33329 0.02989
# Poissons Ratio (y) = 0.20079 0.17014
# Poissons Ratio (z) = 0.02709 0.25594
#
# Static dielectric constant tensor:
#      x y z
#    x 2.139770 0.000000 -0.019980 
#    y 0.000000 2.067150 0.000000 
#    z -0.019980 0.000000 2.086630 
# 
# From -- ./inp_files/243165.got.cif
#   From: 2010.05.17/outbox.cif.g08.bks.cpg/sg15_122_cif.got.tgz:243165.got - 2010.06.03 18:47:42.
