data_PCOD9277669
_publ_section_title
;
Structure prediction by ZEFSAII (Michael W. Deem and Ramdas Pophale) SiO2 
 PCOD9277669
Probable space group: C 2/C
;
_chemical_formula_sum "Si O2"
_cell_formula_units_Z 56
_cell_length_a 14.247378
_cell_length_b 28.982541
_cell_length_c 10.806609
_cell_angle_alpha 90.000000
_cell_angle_beta 39.204244
_cell_angle_gamma 90.000000
_cell_volume 2820.573998
_symmetry_space_group_name_H-M "C 2/C"
_symmetry_group_IT_number 15
_symmetry_cell_setting 'monoclinic'
loop_
_space_group_symop_operation_xyz
x,y,z
-x,y,1/2-z
-x,-y,-z
x,-y,1/2+z
1/2+x,1/2+y,z
1/2-x,1/2+y,1/2-z
1/2-x,1/2-y,-z
1/2+x,1/2-y,1/2+z
loop_
_atom_site_type_symbol
_atom_site_label
_atom_site_fract_x
_atom_site_fract_y
_atom_site_fract_z
Si Si1 0.341652 0.789677 0.472366
Si Si2 0.563919 0.778555 0.848802
Si Si3 0.906153 0.952128 0.973628
Si Si4 0.897676 0.056256 0.979339
Si Si5 0.839361 0.857421 0.978425
Si Si6 0.723382 0.309716 0.200818
Si Si7 0.335028 0.127446 0.385802
O O1 0.250000 0.750000 0.500000
O O2 0.359633 0.780904 0.596684
O O3 0.269295 0.838112 0.513808
O O4 0.500000 0.788571 0.250000
O O5 0.613248 0.727985 0.752695
O O6 0.628930 0.822645 0.711456
O O7 0.387510 0.786489 0.040138
O O8 0.799682 0.908840 0.061485
O O9 0.000000 0.954323 0.750000
O O10 0.840424 0.003330 0.052343
O O11 0.005499 0.938949 0.993081
O O12 0.000000 0.058656 0.750000
O O13 0.766690 0.093398 0.091544
O O14 0.000000 0.856098 0.750000
O O15 0.831540 0.825020 0.107412
O O16 0.744503 0.356322 0.099679
O O17 0.500000 0.108073 0.250000
#
# Coordination Sequence:
#
# PCOD9277669 Si02
#       7
#     8   8   8   8   8   8   8
#     4  12  22  38  56  85 117 163 201 251 307 360
#     4  11  23  38  59  84 123 159 205 247 299 357
#     4   9  21  38  63  95 121 153 204 259 304 367
#     4  10  20  41  67  90 122 159 202 256 312 362
#     4  11  23  36  60  89 122 153 202 249 302 368
#     4  11  23  40  57  86 122 158 203 250 291 364
#     4  10  24  41  62  89 123 163 205 250 306 365
#
# _framework density 19.854116000000001
#
# number of rings (size 3 to 8) (size 9 to 14) (size 15 to 20)
#    0.000    1.429    2.857    1.714    6.000    1.143 
#    0.000    0.714    0.000    9.429    0.000    0.000 
#    0.000    0.000    0.000    0.000    0.000    0.000 
#
# Total GULP energy -156197.141578 kJ/mol
# GULP energy per Si atom -5578.469342 kJ/mol
# Density = 1.980893 g / cm^3
# Si number density = 19.854116 Si / 1000 Ang^3
#
#
#
# Elastic Constant Matrix: (Units=GPa)
#
#
# Indices 1 2 3 4 5 6 
#
# 1 103.2186 32.6575 20.6477 0.0000 9.9048 0.0000
# 2 32.6575 110.5891 23.7847 0.0000 -15.8245 0.0000
# 3 20.6477 23.7847 74.6043 0.0000 2.6567 0.0000
# 4 0.0000 0.0000 0.0000 23.8346 0.0000 -2.2169
# 5 9.9048 -15.8245 2.6567 0.0000 30.7617 0.0000
# 6 0.0000 0.0000 0.0000 -2.2169 0.0000 40.7648
#
#
#
# Elastic Compliance Matrix: (Units=1/GPa)
#
#
# Indices 1 2 3 4 5 6 
#
# 1 0.011835 -0.003913 -0.001826 0.000000 -0.005666 0.000000
# 2 -0.003913 0.011938 -0.002996 0.000000 0.007660 0.000000
# 3 -0.001826 -0.002996 0.014945 0.000000 -0.002244 0.000000
# 4 0.000000 0.000000 0.000000 0.042169 0.000000 0.002293
# 5 -0.005666 0.007660 -0.002244 0.000000 0.038467 0.000000
# 6 0.000000 0.000000 0.000000 0.002293 0.000000 0.024656
#
#
# Mechanical properties :
#
#
# Convention : Reuss Voigt Hill
#
# Bulk Modulus (GPa) = 47.06358 49.17686 48.12022
# Shear Modulus (GPa) = 29.66257 33.16037 31.41147
#
# Velocity S-wave (km/s) = 3.86946 4.09124 3.98189
# Velocity P-wave (km/s) = 6.61209 6.86590 6.74019
#
# Compressibility (1/GPa) = 0.02124785
#
# Stress axis : x y z
#
# Youngs Moduli (GPa) = 84.49344 83.76292 66.91407
#
# Poissons Ratio (x) = 0.32776 0.12220
# Poissons Ratio (y) = 0.33062 0.20047
# Poissons Ratio (z) = 0.15431 0.25095
#
# Static dielectric constant tensor:
#      x y z
#    x 1.726090 0.000000 0.033860 
#    y 0.000000 1.611910 0.000000 
#    z 0.033860 0.000000 1.717240 
# 
# From -- ./inp_files/101745.got.cif
#   From: 2010.05.17/outbox.cif.g08.bks.cpg/sg15_51_cif.got.tgz:101745.got - 2010.06.03 18:47:42.
