data_PCOD9277936
_publ_section_title
;
Structure prediction by ZEFSAII (Michael W. Deem and Ramdas Pophale) SiO2 
 PCOD9277936
Probable space group: C 2/C
;
_chemical_formula_sum "Si O2"
_cell_formula_units_Z 56
_cell_length_a 15.948550
_cell_length_b 29.245431
_cell_length_c 12.385700
_cell_angle_alpha 90.000000
_cell_angle_beta 26.597256
_cell_angle_gamma 90.000000
_cell_volume 2586.441492
_symmetry_space_group_name_H-M "C 2/C"
_symmetry_group_IT_number 15
_symmetry_cell_setting 'monoclinic'
loop_
_space_group_symop_operation_xyz
x,y,z
-x,y,1/2-z
-x,-y,-z
x,-y,1/2+z
1/2+x,1/2+y,z
1/2-x,1/2+y,1/2-z
1/2-x,1/2-y,-z
1/2+x,1/2-y,1/2+z
loop_
_atom_site_type_symbol
_atom_site_label
_atom_site_fract_x
_atom_site_fract_y
_atom_site_fract_z
Si Si1 0.064906 0.341572 0.943175
Si Si2 0.813179 0.501362 0.286141
Si Si3 0.342006 0.575546 0.174286
Si Si4 0.774708 0.871536 0.308870
Si Si5 0.294977 0.585928 0.466322
Si Si6 0.500000 0.837707 0.250000
Si Si7 0.204979 0.302960 0.563755
Si Si8 0.500000 0.060059 0.250000
O O1 0.171996 0.390114 0.836831
O O2 0.185286 0.316885 0.711121
O O3 0.855292 0.348702 0.134956
O O4 0.063586 0.316307 0.062044
O O5 0.660862 0.531430 0.398502
O O6 0.756008 0.450546 0.384288
O O7 0.868230 0.528929 0.329125
O O8 0.000000 0.500000 0.000000
O O9 0.297976 0.560935 0.347043
O O10 0.535186 0.603759 0.946708
O O11 0.825643 0.835526 0.346219
O O12 0.633565 0.908336 0.523866
O O13 0.500000 0.604342 0.250000
O O14 0.158958 0.628044 0.609275
O O15 0.250000 0.250000 0.500000
O O16 0.000000 0.310401 0.750000
#
# Coordination Sequence:
#
# PCOD9277936 Si02
#       8
#     8   8   8   8   8   4   8   4
#     4  10  20  42  62  95 123 163 211 255 313 381
#     4  12  25  41  59  83 124 164 213 272 323 366
#     4  11  24  39  65  87 118 171 213 261 316 385
#     4  11  22  41  64  92 123 163 207 256 318 380
#     4  11  25  40  57  90 118 160 219 268 315 359
#     4  10  21  42  66  82 124 170 212 256 308 382
#     4  10  22  39  65 101 131 157 194 257 322 379
#     4  12  23  40  60  82 120 158 204 264 310 374
#
# _framework density 21.651368999999999
#
# number of rings (size 3 to 8) (size 9 to 14) (size 15 to 20)
#    0.000    1.143    3.571    3.857    6.000    1.714 
#    0.000    0.000    0.000    3.429    1.857    0.000 
#    0.000    0.000    0.000    0.000    0.000    0.000 
#
# Total GULP energy -156511.608546 kJ/mol
# GULP energy per Si atom -5589.700305 kJ/mol
# Density = 2.160209 g / cm^3
# Si number density = 21.651369 Si / 1000 Ang^3
#
#
#
# Elastic Constant Matrix: (Units=GPa)
#
#
# Indices 1 2 3 4 5 6 
#
# 1 114.8123 24.1486 35.3413 0.0011 26.0138 0.0020
# 2 24.1486 54.1428 26.1557 0.0016 9.1115 0.0008
# 3 35.3413 26.1557 90.8824 0.0008 8.2605 -0.0062
# 4 0.0011 0.0016 0.0008 25.5869 0.0011 -1.6355
# 5 26.0138 9.1115 8.2605 0.0011 44.7722 -0.0006
# 6 0.0020 0.0008 -0.0062 -1.6355 -0.0006 16.2519
#
#
#
# Elastic Compliance Matrix: (Units=1/GPa)
#
#
# Indices 1 2 3 4 5 6 
#
# 1 0.011515 -0.002650 -0.003210 0.000000 -0.005559 -0.000003
# 2 -0.002650 0.022547 -0.005270 -0.000001 -0.002077 -0.000003
# 3 -0.003210 -0.005270 0.013731 0.000000 0.000404 0.000006
# 4 0.000000 -0.000001 0.000000 0.039336 -0.000001 0.003958
# 5 -0.005559 -0.002077 0.000404 -0.000001 0.025913 0.000002
# 6 -0.000003 -0.000003 0.000006 0.003958 0.000002 0.061929
#
#
# Mechanical properties :
#
#
# Convention : Reuss Voigt Hill
#
# Bulk Modulus (GPa) = 39.16318 47.90320 43.53319
# Shear Modulus (GPa) = 24.30240 28.93500 26.61870
#
# Velocity S-wave (km/s) = 3.35392 3.65965 3.51012
# Velocity P-wave (km/s) = 5.75550 6.32695 6.04797
#
# Compressibility (1/GPa) = 0.02553419
#
# Stress axis : x y z
#
# Youngs Moduli (GPa) = 86.84516 44.35240 72.82592
#
# Poissons Ratio (x) = 0.11752 0.23376
# Poissons Ratio (y) = 0.23011 0.38378
# Poissons Ratio (z) = 0.27876 0.23373
#
# Static dielectric constant tensor:
#      x y z
#    x 1.804050 -0.000010 0.029070 
#    y -0.000010 1.807370 0.000010 
#    z 0.029070 0.000010 1.836290 
# 
# From -- ./inp_files/101775.got.cif
#   From: 2010.05.17/outbox.cif.g08.bks.cpg/sg15_51_cif.got.tgz:101775.got - 2010.06.03 18:47:42.
