data_PCOD9277624
_publ_section_title
;
Structure prediction by ZEFSAII (Michael W. Deem and Ramdas Pophale) SiO2 
 PCOD9277624
Probable space group: C 2/C
;
_chemical_formula_sum "Si O2"
_cell_formula_units_Z 24
_cell_length_a 27.140178
_cell_length_b 8.207150
_cell_length_c 19.127206
_cell_angle_alpha 90.000000
_cell_angle_beta 12.849154
_cell_angle_gamma 90.000000
_cell_volume 947.462610
_symmetry_space_group_name_H-M "C 2/C"
_symmetry_group_IT_number 15
_symmetry_cell_setting 'monoclinic'
loop_
_space_group_symop_operation_xyz
x,y,z
-x,y,1/2-z
-x,-y,-z
x,-y,1/2+z
1/2+x,1/2+y,z
1/2-x,1/2+y,1/2-z
1/2-x,1/2-y,-z
1/2+x,1/2-y,1/2+z
loop_
_atom_site_type_symbol
_atom_site_label
_atom_site_fract_x
_atom_site_fract_y
_atom_site_fract_z
Si Si1 0.500000 0.431546 0.250000
Si Si2 0.790388 0.828556 0.129418
Si Si3 0.947500 0.894494 0.169009
Si Si4 0.500000 0.935089 0.250000
O O1 0.296916 0.550670 0.553599
O O2 0.442298 0.344992 0.258095
O O3 0.562992 0.745966 0.465245
O O4 0.955017 0.683421 0.878460
O O5 0.894098 0.943660 0.045724
O O6 0.717272 0.958900 0.459861
#
# Coordination Sequence:
#
# PCOD9277624 Si02
#       4
#     4   8   8   4
#     4   7  20  38  67  83 136 158 215 249 334 364
#     4   9  20  37  67  88 128 169 213 247 331 380
#     4  10  20  41  66  93 122 175 208 263 315 386
#     4  11  20  38  65  93 132 162 211 267 326 362
#
# _framework density 25.330812999999999
#
# number of rings (size 3 to 8) (size 9 to 14) (size 15 to 20)
#    2.000    0.667    0.000    2.000    0.000    0.000 
#    0.000   11.667    0.000    2.000    0.000    0.000 
#    0.000    0.000    0.000    0.000    0.000    0.000 
#
# Total GULP energy -67057.054287 kJ/mol
# GULP energy per Si atom -5588.087857 kJ/mol
# Density = 2.527316 g / cm^3
# Si number density = 25.330813 Si / 1000 Ang^3
#
#
#
# Elastic Constant Matrix: (Units=GPa)
#
#
# Indices 1 2 3 4 5 6 
#
# 1 63.3851 22.6591 19.5281 0.0003 22.3340 -0.0003
# 2 22.6591 116.5563 61.0029 0.0001 7.5058 0.0001
# 3 19.5281 61.0029 82.3407 -0.0008 10.7484 -0.0005
# 4 0.0003 0.0001 -0.0008 0.4726 0.0001 -59.8399
# 5 22.3340 7.5058 10.7484 0.0001 41.5649 0.0000
# 6 -0.0003 0.0001 -0.0005 -59.8399 0.0000 -45.1931
#
#
#
# Elastic Compliance Matrix: (Units=1/GPa)
#
#
# Indices 1 2 3 4 5 6 
#
# 1 0.020827 -0.002457 -0.001776 0.000000 -0.010288 0.000000
# 2 -0.002457 0.014304 -0.010194 0.000000 0.001373 0.000000
# 3 -0.001776 -0.010194 0.020443 0.000000 -0.002491 0.000000
# 4 0.000000 0.000000 0.000000 0.012546 0.000000 -0.016612
# 5 -0.010288 0.001373 -0.002491 0.000000 0.029983 0.000000
# 6 0.000000 0.000000 0.000000 -0.016612 0.000000 -0.000131
#
#
# Mechanical properties :
#
#
# Convention : Reuss Voigt Hill
#
# Bulk Modulus (GPa) = 37.42431 52.07360 44.74895
# Shear Modulus (GPa) = 36.83704 9.97502 23.40603
#
# Velocity S-wave (km/s) = 3.81759 1.98657 3.04306
# Velocity P-wave (km/s) = 5.85134 5.08566 5.48189
#
# Compressibility (1/GPa) = 0.02672060
#
# Stress axis : x y z
#
# Youngs Moduli (GPa) = 48.01434 69.91100 48.91569
#
# Poissons Ratio (x) = 0.17175 0.08690
# Poissons Ratio (y) = 0.11795 0.49864
# Poissons Ratio (z) = 0.08529 0.71266
#
# Static dielectric constant tensor:
#      x y z
#    x 1.974900 0.000000 0.044730 
#    y 0.000000 2.064300 0.000000 
#    z 0.044730 0.000000 1.990680 
# 
# From -- ./inp_files/36255.got.cif
#   From: 2010.05.17/outbox.cif.g08.bks.cpg/sg15_19_cif.got.tgz:36255.got - 2010.06.03 18:47:42.
