data_PCOD9277234
_publ_section_title
;
Structure prediction by ZEFSAII (Michael W. Deem and Ramdas Pophale) SiO2 
 PCOD9277234
Probable space group: C 2/C
;
_chemical_formula_sum "Si O2"
_cell_formula_units_Z 48
_cell_length_a 20.065703
_cell_length_b 13.923815
_cell_length_c 26.287530
_cell_angle_alpha 90.000000
_cell_angle_beta 162.113207
_cell_angle_gamma 90.000000
_cell_volume 2255.770504
_symmetry_space_group_name_H-M "C 2/C"
_symmetry_group_IT_number 15
_symmetry_cell_setting 'monoclinic'
loop_
_space_group_symop_operation_xyz
x,y,z
-x,y,1/2-z
-x,-y,-z
x,-y,1/2+z
1/2+x,1/2+y,z
1/2-x,1/2+y,1/2-z
1/2-x,1/2-y,-z
1/2+x,1/2-y,1/2+z
loop_
_atom_site_type_symbol
_atom_site_label
_atom_site_fract_x
_atom_site_fract_y
_atom_site_fract_z
Si Si1 0.990774 0.699108 0.004876
Si Si2 0.256832 0.613181 0.481721
Si Si3 0.978026 0.715729 0.359064
Si Si4 0.000000 0.444268 0.250000
Si Si5 0.587452 0.208118 0.725936
Si Si6 0.000000 0.038502 0.750000
Si Si7 0.718567 0.871013 0.580645
O O1 0.011882 0.667415 0.078357
O O2 0.176166 0.780836 0.128761
O O3 0.059958 0.619455 0.013808
O O4 0.757492 0.740973 0.822171
O O5 0.344729 0.698156 0.510507
O O6 0.443357 0.598114 0.659264
O O7 0.052797 0.649069 0.366838
O O8 0.192702 0.515665 0.407283
O O9 0.931784 0.376685 0.247314
O O10 0.408107 0.192754 0.552729
O O11 0.578613 0.309615 0.749603
O O12 0.201239 0.969036 0.884530
#
# Coordination Sequence:
#
# PCOD9277234 Si02
#       7
#     8   8   8   4   8   4   8
#     4  10  20  40  70  88 120 174 204 256 304 384
#     4  11  26  40  65  92 124 174 205 270 296 361
#     4  11  22  46  64  87 126 168 226 245 308 364
#     4  12  23  41  62  98 132 154 212 253 319 370
#     4  10  22  40  66  97 126 165 197 255 321 374
#     4  12  23  41  62  98 132 154 212 253 319 370
#     4  10  22  40  66  97 126 165 197 255 321 374
#
# _framework density 21.278760999999999
#
# number of rings (size 3 to 8) (size 9 to 14) (size 15 to 20)
#    1.000    0.333    3.333    2.500    2.333    4.000 
#    0.000   10.000    0.000    0.000    0.000    0.000 
#    0.000    0.000    0.000    0.000    0.000    0.000 
#
# Total GULP energy -134024.474147 kJ/mol
# GULP energy per Si atom -5584.353089 kJ/mol
# Density = 2.123033 g / cm^3
# Si number density = 21.278761 Si / 1000 Ang^3
#
#
#
# Elastic Constant Matrix: (Units=GPa)
#
#
# Indices 1 2 3 4 5 6 
#
# 1 91.6388 11.2990 25.2228 0.2063 5.4614 0.2942
# 2 11.2990 45.6663 -9.7228 0.2047 4.8049 0.3529
# 3 25.2228 -9.7228 67.2752 -0.0310 0.4979 0.0519
# 4 0.2063 0.2047 -0.0310 188.8497 -0.0255 223.2577
# 5 5.4614 4.8049 0.4979 -0.0255 32.5648 -0.0361
# 6 0.2942 0.3529 0.0519 223.2577 -0.0361 345.4776
#
#
#
# Elastic Compliance Matrix: (Units=1/GPa)
#
#
# Indices 1 2 3 4 5 6 
#
# 1 0.013033 -0.004238 -0.005488 -0.000015 -0.001477 0.000004
# 2 -0.004238 0.024350 0.005130 0.000022 -0.002961 -0.000036
# 3 -0.005488 0.005130 0.017664 0.000030 -0.000107 -0.000023
# 4 -0.000015 0.000022 0.000030 0.022435 0.000000 -0.014498
# 5 -0.001477 -0.002961 -0.000107 0.000000 0.031394 0.000007
# 6 0.000004 -0.000036 -0.000023 -0.014498 0.000007 0.012264
#
#
# Mechanical properties :
#
#
# Convention : Reuss Voigt Hill
#
# Bulk Modulus (GPa) = 21.80731 28.68649 25.24690
# Shear Modulus (GPa) = 34.33650 125.23051 79.78351
#
# Velocity S-wave (km/s) = 4.02139 7.67985 6.12991
# Velocity P-wave (km/s) = 5.64205 9.59952 7.87348
#
# Compressibility (1/GPa) = 0.04585619
#
# Stress axis : x y z
#
# Youngs Moduli (GPa) = 76.72539 41.06703 56.61194
#
# Poissons Ratio (x) = 0.17404 0.31069
# Poissons Ratio (y) = 0.32515 -0.29042
# Poissons Ratio (z) = 0.42107 -0.21067
#
# Static dielectric constant tensor:
#      x y z
#    x 1.783850 -0.000010 0.007470 
#    y -0.000010 1.734680 -0.000010 
#    z 0.007470 -0.000010 1.775350 
# 
# From -- ./inp_files/301112.got.cif
#   From: 2010.05.17/outbox.cif.g08.bks.cpg/sg15_151_cif.got.tgz:301112.got - 2010.06.03 18:47:42.
