data_PCOD9277547
_publ_section_title
;
Structure prediction by ZEFSAII (Michael W. Deem and Ramdas Pophale) SiO2 
 PCOD9277547
Probable space group: C 2/C
;
_chemical_formula_sum "Si O2"
_cell_formula_units_Z 48
_cell_length_a 13.939204
_cell_length_b 17.238036
_cell_length_c 9.964983
_cell_angle_alpha 90.000000
_cell_angle_beta 72.939467
_cell_angle_gamma 90.000000
_cell_volume 2289.064821
_symmetry_space_group_name_H-M "C 2/C"
_symmetry_group_IT_number 15
_symmetry_cell_setting 'monoclinic'
loop_
_space_group_symop_operation_xyz
x,y,z
-x,y,1/2-z
-x,-y,-z
x,-y,1/2+z
1/2+x,1/2+y,z
1/2-x,1/2+y,1/2-z
1/2-x,1/2-y,-z
1/2+x,1/2-y,1/2+z
loop_
_atom_site_type_symbol
_atom_site_label
_atom_site_fract_x
_atom_site_fract_y
_atom_site_fract_z
Si Si1 0.352380 0.770838 0.533984
Si Si2 0.391400 0.226537 0.323439
Si Si3 0.947330 0.104890 0.908096
Si Si4 0.076179 0.121521 0.102486
Si Si5 0.277313 0.074777 0.419884
Si Si6 0.798436 0.436339 0.594184
O O1 0.250000 0.750000 0.500000
O O2 0.347822 0.749823 0.694694
O O3 0.426968 0.714094 0.426575
O O4 0.367784 0.862819 0.527565
O O5 0.500000 0.188170 0.250000
O O6 0.419024 0.303718 0.394620
O O7 0.319838 0.162373 0.418252
O O8 0.000000 0.078108 0.750000
O O9 0.840699 0.071792 0.996811
O O10 0.030878 0.089271 0.984668
O O11 0.186548 0.092203 0.095472
O O12 0.000000 0.102776 0.250000
O O13 0.295662 0.054059 0.256095
O O14 0.325514 0.013036 0.501408
#
# Coordination Sequence:
#
# PCOD9277547 Si02
#       6
#     8   8   8   8   8   8
#     4   9  19  38  62  85 120 155 198 252 298 351
#     4  10  20  41  65  90 119 158 206 256 300 358
#     4  11  22  38  65  93 119 158 203 253 308 364
#     4  11  20  39  62  92 121 153 201 256 310 356
#     4  11  24  41  58  89 124 166 201 245 305 366
#     4  10  24  40  58  85 126 163 202 246 300 365
#
# _framework density 20.969263999999999
#
# number of rings (size 3 to 8) (size 9 to 14) (size 15 to 20)
#    0.000    1.667    5.000    0.500    2.333    1.333 
#    3.000    4.167    0.000    0.000    0.000    0.000 
#    0.000    0.000    0.000    0.000    0.000    0.000 
#
# Total GULP energy -133872.904826 kJ/mol
# GULP energy per Si atom -5578.037701 kJ/mol
# Density = 2.092154 g / cm^3
# Si number density = 20.969264 Si / 1000 Ang^3
#
#
#
# Elastic Constant Matrix: (Units=GPa)
#
#
# Indices 1 2 3 4 5 6 
#
# 1 36.1705 -1.3039 8.9872 0.0000 4.0544 0.0000
# 2 -1.3039 111.8006 38.3122 0.0000 -5.6518 0.0000
# 3 8.9872 38.3122 115.4258 0.0000 12.8635 0.0000
# 4 0.0000 0.0000 0.0000 134.5983 0.0000 43.1288
# 5 4.0544 -5.6518 12.8635 0.0000 31.8067 0.0000
# 6 0.0000 0.0000 0.0000 43.1288 0.0000 30.0907
#
#
#
# Elastic Compliance Matrix: (Units=1/GPa)
#
#
# Indices 1 2 3 4 5 6 
#
# 1 0.028530 0.000979 -0.002262 0.000000 -0.002548 0.000000
# 2 0.000979 0.010467 -0.003921 0.000000 0.003321 0.000000
# 3 -0.002262 -0.003921 0.010667 0.000000 -0.004722 0.000000
# 4 0.000000 0.000000 0.000000 0.013740 0.000000 -0.019693
# 5 -0.002548 0.003321 -0.004722 0.000000 0.034265 0.000000
# 6 0.000000 0.000000 0.000000 -0.019693 0.000000 0.061458
#
#
# Mechanical properties :
#
#
# Convention : Reuss Voigt Hill
#
# Bulk Modulus (GPa) = 25.47330 39.48754 32.48042
# Shear Modulus (GPa) = 27.37918 53.79258 40.58588
#
# Velocity S-wave (km/s) = 3.61734 5.07038 4.40420
# Velocity P-wave (km/s) = 5.44253 7.29043 6.43318
#
# Compressibility (1/GPa) = 0.03925680
#
# Stress axis : x y z
#
# Youngs Moduli (GPa) = 35.05100 95.53542 93.74394
#
# Poissons Ratio (x) = -0.09355 0.21209
# Poissons Ratio (y) = -0.03432 0.36754
# Poissons Ratio (z) = 0.07930 0.37456
#
# Static dielectric constant tensor:
#      x y z
#    x 1.768500 0.000000 0.020940 
#    y 0.000000 1.872780 0.000000 
#    z 0.020940 0.000000 1.723380 
# 
# From -- ./inp_files/39592.got.cif
#   From: 2010.05.17/outbox.cif.g08.bks.cpg/sg15_20_cif.got.tgz:39592.got - 2010.06.03 18:47:42.
