data_PCOD9277139
_publ_section_title
;
Structure prediction by ZEFSAII (Michael W. Deem and Ramdas Pophale) SiO2 
 PCOD9277139
Probable space group: C 2/C
;
_chemical_formula_sum "Si O2"
_cell_formula_units_Z 56
_cell_length_a 18.424641
_cell_length_b 8.413596
_cell_length_c 25.117358
_cell_angle_alpha 90.000000
_cell_angle_beta 135.971497
_cell_angle_gamma 90.000000
_cell_volume 2706.135458
_symmetry_space_group_name_H-M "C 2/C"
_symmetry_group_IT_number 15
_symmetry_cell_setting 'monoclinic'
loop_
_space_group_symop_operation_xyz
x,y,z
-x,y,1/2-z
-x,-y,-z
x,-y,1/2+z
1/2+x,1/2+y,z
1/2-x,1/2+y,1/2-z
1/2-x,1/2-y,-z
1/2+x,1/2-y,1/2+z
loop_
_atom_site_type_symbol
_atom_site_label
_atom_site_fract_x
_atom_site_fract_y
_atom_site_fract_z
Si Si1 0.625274 0.269259 0.931031
Si Si2 0.738991 0.219814 0.385585
Si Si3 0.235971 0.727735 0.811687
Si Si4 0.834958 0.393211 0.764117
Si Si5 0.394583 0.542003 0.974514
Si Si6 0.956160 0.466145 0.669678
Si Si7 0.115862 0.971066 0.821761
O O1 0.575478 0.102880 0.887761
O O2 0.603514 0.384866 0.870919
O O3 0.750000 0.250000 0.000000
O O4 0.585462 0.349597 0.963746
O O5 0.710199 0.403134 0.376372
O O6 0.732414 0.185735 0.318769
O O7 0.840362 0.127454 0.459707
O O8 0.644608 0.130835 0.365758
O O9 0.181154 0.582170 0.751765
O O10 0.312539 0.642264 0.894806
O O11 0.153522 0.841053 0.798187
O O12 0.300530 0.828816 0.802687
O O13 0.954374 0.361585 0.810677
O O14 0.500000 0.500000 0.000000
O O15 0.000000 0.529381 0.750000
O O16 0.000000 0.042094 0.750000
#
# Coordination Sequence:
#
# PCOD9277139 Si02
#       7
#     8   8   8   8   8   8   8
#     4  12  22  43  66  91 130 177 215 264 335 392
#     4  10  22  41  63  96 130 163 220 280 320 389
#     4  11  23  41  62  95 130 168 215 270 324 396
#     4  10  21  38  65  90 129 163 211 273 334 373
#     4  11  26  45  63  91 138 179 217 268 332 402
#     4  10  20  40  68  95 125 170 222 274 325 390
#     4  12  24  40  71  99 125 167 227 275 329 398
#
# _framework density 20.693715000000001
#
# number of rings (size 3 to 8) (size 9 to 14) (size 15 to 20)
#    0.000    1.143    2.857    5.143    0.000    8.571 
#    2.571    1.429    0.000    0.000    0.000    0.000 
#    0.000    0.000    0.000    0.000    0.000    0.000 
#
# Total GULP energy -156436.412633 kJ/mol
# GULP energy per Si atom -5587.014737 kJ/mol
# Density = 2.064662 g / cm^3
# Si number density = 20.693715 Si / 1000 Ang^3
#
#
#
# Elastic Constant Matrix: (Units=GPa)
#
#
# Indices 1 2 3 4 5 6 
#
# 1 127.7437 19.1082 17.5588 0.0000 -10.3382 0.0000
# 2 19.1082 62.6438 -15.4024 0.0000 -8.3802 0.0000
# 3 17.5588 -15.4024 15.2979 0.0000 -5.1347 0.0000
# 4 0.0000 0.0000 0.0000 12.7327 0.0000 2.7763
# 5 -10.3382 -8.3802 -5.1347 0.0000 38.7989 0.0000
# 6 0.0000 0.0000 0.0000 2.7763 0.0000 23.5954
#
#
#
# Elastic Compliance Matrix: (Units=1/GPa)
#
#
# Indices 1 2 3 4 5 6 
#
# 1 0.012862 -0.010721 -0.026355 0.000000 -0.002376 0.000000
# 2 -0.010721 0.032642 0.048743 0.000000 0.010644 0.000000
# 3 -0.026355 0.048743 0.152651 0.000000 0.023708 0.000000
# 4 0.000000 0.000000 0.000000 0.080606 0.000000 -0.009484
# 5 -0.002376 0.010644 0.023708 0.000000 0.030577 0.000000
# 6 0.000000 0.000000 0.000000 -0.009484 0.000000 0.043497
#
#
# Mechanical properties :
#
#
# Convention : Reuss Voigt Hill
#
# Bulk Modulus (GPa) = 4.51488 27.57940 16.04714
# Shear Modulus (GPa) = 12.39675 27.32012 19.85843
#
# Velocity S-wave (km/s) = 2.45022 3.63742 3.10116
# Velocity P-wave (km/s) = 3.19238 5.56753 4.53810
#
# Compressibility (1/GPa) = 0.22148982
#
# Stress axis : x y z
#
# Youngs Moduli (GPa) = 77.74778 30.63538 6.55087
#
# Poissons Ratio (x) = 0.32845 0.17265
# Poissons Ratio (y) = 0.83354 -0.31931
# Poissons Ratio (z) = 2.04903 -1.49326
#
# Static dielectric constant tensor:
#      x y z
#    x 1.714980 0.000000 0.035500 
#    y 0.000000 1.769960 0.000000 
#    z 0.035500 0.000000 1.814510 
# 
# From -- ./inp_files/276643.got.cif
#   From: 2010.05.17/outbox.cif.g08.bks.cpg/sg15_139_cif.got.tgz:276643.got - 2010.06.03 18:47:42.
