data_PCOD9277453
_publ_section_title
;
Structure prediction by ZEFSAII (Michael W. Deem and Ramdas Pophale) SiO2 
 PCOD9277453
Probable space group: C 2/C
;
_chemical_formula_sum "Si O2"
_cell_formula_units_Z 64
_cell_length_a 8.142496
_cell_length_b 13.965647
_cell_length_c 25.111061
_cell_angle_alpha 90.000000
_cell_angle_beta 100.672672
_cell_angle_gamma 90.000000
_cell_volume 2806.113169
_symmetry_space_group_name_H-M "C 2/C"
_symmetry_group_IT_number 15
_symmetry_cell_setting 'monoclinic'
loop_
_space_group_symop_operation_xyz
x,y,z
-x,y,1/2-z
-x,-y,-z
x,-y,1/2+z
1/2+x,1/2+y,z
1/2-x,1/2+y,1/2-z
1/2-x,1/2-y,-z
1/2+x,1/2-y,1/2+z
loop_
_atom_site_type_symbol
_atom_site_label
_atom_site_fract_x
_atom_site_fract_y
_atom_site_fract_z
Si Si1 0.739741 0.300195 0.649631
Si Si2 0.198370 0.423854 0.750779
Si Si3 0.627550 0.832925 0.640384
Si Si4 0.932996 0.103154 0.452411
Si Si5 0.610793 0.264616 0.036626
Si Si6 0.309503 0.513862 0.602026
Si Si7 0.375011 0.086626 0.000763
Si Si8 0.657822 0.614021 0.791603
O O1 0.711682 0.383833 0.691469
O O2 0.618726 0.313681 0.592352
O O3 0.728956 0.200864 0.680949
O O4 0.932304 0.314195 0.641499
O O5 0.217797 0.348828 0.702652
O O6 0.258581 0.528959 0.737162
O O7 0.000000 0.427953 0.750000
O O8 0.676934 0.750910 0.600567
O O9 0.676016 0.933862 0.614473
O O10 0.758209 0.060580 0.461673
O O11 0.020798 0.140255 0.511378
O O12 0.060625 0.038856 0.428015
O O13 0.750000 0.250000 0.000000
O O14 0.471985 0.181851 0.021769
O O15 0.217855 0.593720 0.561356
O O16 0.397096 0.561346 0.657502
O O17 0.500000 0.000000 0.000000
O O18 0.500000 0.653751 0.750000
#
# Coordination Sequence:
#
# PCOD9277453 Si02
#       8
#     8   8   8   8   8   8   8   8
#     4  11  22  43  68  94 127 178 221 276 349 397
#     4   9  21  42  70  88 128 170 217 279 340 399
#     4  10  20  41  63  90 128 177 217 268 336 396
#     4  12  24  40  65  96 131 178 222 272 340 405
#     4  12  23  40  63  92 134 176 225 268 335 405
#     4  11  23  41  63  96 134 173 222 280 335 400
#     4  12  23  42  62  93 133 174 221 280 332 399
#     4  11  23  41  65  96 127 165 225 278 331 406
#
# _framework density 22.807348999999999
#
# number of rings (size 3 to 8) (size 9 to 14) (size 15 to 20)
#    0.000    1.000    3.750    3.375    1.750    0.000 
#    0.000    4.375    5.500    0.000    0.000    0.000 
#    0.000    0.000    0.000    0.000    0.000    0.000 
#
# Total GULP energy -178826.195304 kJ/mol
# GULP energy per Si atom -5588.318603 kJ/mol
# Density = 2.275544 g / cm^3
# Si number density = 22.807349 Si / 1000 Ang^3
#
#
#
# Elastic Constant Matrix: (Units=GPa)
#
#
# Indices 1 2 3 4 5 6 
#
# 1 48.7942 15.3850 11.9289 0.0000 -15.1535 0.0000
# 2 15.3850 83.8641 26.2478 0.0000 -11.2452 0.0000
# 3 11.9289 26.2478 109.6121 0.0000 -5.6664 0.0000
# 4 0.0000 0.0000 0.0000 46.0410 0.0000 1.3575
# 5 -15.1535 -11.2452 -5.6664 0.0000 34.8232 0.0000
# 6 0.0000 0.0000 0.0000 1.3575 0.0000 29.5250
#
#
#
# Elastic Compliance Matrix: (Units=1/GPa)
#
#
# Indices 1 2 3 4 5 6 
#
# 1 0.024728 -0.002768 -0.001531 0.000000 0.009618 0.000000
# 2 -0.002768 0.013688 -0.002834 0.000000 0.002755 0.000000
# 3 -0.001531 -0.002834 0.009971 0.000000 0.000041 0.000000
# 4 0.000000 0.000000 0.000000 0.021749 0.000000 -0.001000
# 5 0.009618 0.002755 0.000041 0.000000 0.033798 0.000000
# 6 0.000000 0.000000 0.000000 -0.001000 0.000000 0.033916
#
#
# Mechanical properties :
#
#
# Convention : Reuss Voigt Hill
#
# Bulk Modulus (GPa) = 29.30753 38.82151 34.06452
# Shear Modulus (GPa) = 30.58309 34.65842 32.62075
#
# Velocity S-wave (km/s) = 3.66585 3.90245 3.78600
# Velocity P-wave (km/s) = 5.54940 6.11261 5.83780
#
# Compressibility (1/GPa) = 0.03412092
#
# Stress axis : x y z
#
# Youngs Moduli (GPa) = 40.43984 73.05569 100.29580
#
# Poissons Ratio (x) = 0.20218 0.15357
# Poissons Ratio (y) = 0.11192 0.28426
# Poissons Ratio (z) = 0.06192 0.20705
#
# Static dielectric constant tensor:
#      x y z
#    x 1.858670 0.000000 0.016360 
#    y 0.000000 1.867980 0.000000 
#    z 0.016360 0.000000 1.895470 
# 
# From -- ./inp_files/264736.got.cif
#   From: 2010.05.17/outbox.cif.g08.bks.cpg/sg15_133_cif.got.tgz:264736.got - 2010.06.03 18:47:42.
