data_PCOD9277514
_publ_section_title
;
Structure prediction by ZEFSAII (Michael W. Deem and Ramdas Pophale) SiO2 
 PCOD9277514
Probable space group: C 2/C
;
_chemical_formula_sum "Si O2"
_cell_formula_units_Z 52
_cell_length_a 8.844691
_cell_length_b 14.668408
_cell_length_c 18.975571
_cell_angle_alpha 90.000000
_cell_angle_beta 94.042046
_cell_angle_gamma 90.000000
_cell_volume 2455.720219
_symmetry_space_group_name_H-M "C 2/C"
_symmetry_group_IT_number 15
_symmetry_cell_setting 'monoclinic'
loop_
_space_group_symop_operation_xyz
x,y,z
-x,y,1/2-z
-x,-y,-z
x,-y,1/2+z
1/2+x,1/2+y,z
1/2-x,1/2+y,1/2-z
1/2-x,1/2-y,-z
1/2+x,1/2-y,1/2+z
loop_
_atom_site_type_symbol
_atom_site_label
_atom_site_fract_x
_atom_site_fract_y
_atom_site_fract_z
Si Si1 0.500000 0.174878 0.250000
Si Si2 0.000000 0.644583 0.750000
Si Si3 0.395729 0.947277 0.550708
Si Si4 0.076850 0.208689 0.366785
Si Si5 0.872158 0.168947 0.494894
Si Si6 0.294972 0.007104 0.198607
Si Si7 0.500000 0.434899 0.750000
Si Si8 0.577182 0.764038 0.603403
O O1 0.365616 0.104679 0.224686
O O2 0.451606 0.235471 0.314179
O O3 0.012982 0.706984 0.819241
O O4 0.139665 0.575198 0.753563
O O5 0.234839 0.918890 0.511474
O O6 0.353592 0.001329 0.620587
O O7 0.492234 0.856744 0.574877
O O8 0.500000 0.000000 0.500000
O O9 0.243020 0.230667 0.402398
O O10 0.960796 0.181951 0.424388
O O11 0.087345 0.128553 0.309275
O O12 0.750000 0.250000 0.500000
O O13 0.994971 0.181925 0.560299
O O14 0.118228 0.010636 0.206800
#
# Coordination Sequence:
#
# PCOD9277514 Si02
#       8
#     4   4   8   8   8   8   4   8
#     4   9  18  37  63  90 121 174 214 257 336 399
#     4  10  26  38  68  93 131 166 222 276 330 380
#     4  10  22  41  66  96 132 175 218 264 339 400
#     4  11  22  42  64  97 127 175 218 276 329 396
#     4  10  22  39  63  97 130 171 219 269 327 399
#     4  10  20  41  64  93 129 170 217 278 330 394
#     4  11  20  39  71  89 128 170 230 265 336 403
#     4  10  21  38  66  94 132 169 222 271 325 398
#
# _framework density 21.175049000000001
#
# number of rings (size 3 to 8) (size 9 to 14) (size 15 to 20)
#    0.000    1.846    3.077    0.462    4.308    0.000 
#    0.000    6.154    0.000    0.000    0.000    0.000 
#    0.000    0.000    0.000    0.000    0.000    0.000 
#
# Total GULP energy -145217.664360 kJ/mol
# GULP energy per Si atom -5585.294783 kJ/mol
# Density = 2.112685 g / cm^3
# Si number density = 21.175049 Si / 1000 Ang^3
#
#
#
# Elastic Constant Matrix: (Units=GPa)
#
#
# Indices 1 2 3 4 5 6 
#
# 1 155.3441 36.6624 65.5776 0.0000 -16.6680 0.0000
# 2 36.6624 43.4446 30.4358 0.0000 -0.7121 0.0000
# 3 65.5776 30.4358 121.9237 0.0000 -18.8913 0.0000
# 4 0.0000 0.0000 0.0000 11.3504 0.0000 -0.7888
# 5 -16.6680 -0.7121 -18.8913 0.0000 38.2670 0.0000
# 6 0.0000 0.0000 0.0000 -0.7888 0.0000 -4.7556
#
#
#
# Elastic Compliance Matrix: (Units=1/GPa)
#
#
# Indices 1 2 3 4 5 6 
#
# 1 0.009400 -0.005585 -0.003296 0.000000 0.002364 0.000000
# 2 -0.005585 0.031573 -0.005591 0.000000 -0.004605 0.000000
# 3 -0.003296 -0.005591 0.012053 0.000000 0.004411 0.000000
# 4 0.000000 0.000000 0.000000 0.087099 0.000000 -0.014446
# 5 0.002364 -0.004605 0.004411 0.000000 0.029254 0.000000
# 6 0.000000 0.000000 0.000000 -0.014446 0.000000 -0.207884
#
#
# Mechanical properties :
#
#
# Convention : Reuss Voigt Hill
#
# Bulk Modulus (GPa) = 41.52343 65.11822 53.32083
# Shear Modulus (GPa) = -3259.30900 21.50814 -1618.90043
#
# Velocity S-wave (km/s) = -39.27548 3.19051 -27.68017
# Velocity P-wave (km/s) = 45.13423 6.66270 31.56507
#
# Compressibility (1/GPa) = 0.02408279
#
# Stress axis : x y z
#
# Youngs Moduli (GPa) = 106.37965 31.67311 82.96356
#
# Poissons Ratio (x) = 0.17690 0.27341
# Poissons Ratio (y) = 0.59416 0.46384
# Poissons Ratio (z) = 0.35058 0.17708
#
# Static dielectric constant tensor:
#      x y z
#    x 1.846400 0.000000 0.036300 
#    y 0.000000 1.767890 0.000000 
#    z 0.036300 0.000000 1.761240 
# 
# From -- ./inp_files/190484.got.cif
#   From: 2010.05.17/outbox.cif.g08.bks.cpg/sg15_96_cif.got.tgz:190484.got - 2010.06.03 18:47:42.
