data_PCOD9277845
_publ_section_title
;
Structure prediction by ZEFSAII (Michael W. Deem and Ramdas Pophale) SiO2 
 PCOD9277845
Probable space group: C 2/C
;
_chemical_formula_sum "Si O2"
_cell_formula_units_Z 60
_cell_length_a 13.030389
_cell_length_b 11.992376
_cell_length_c 17.981766
_cell_angle_alpha 90.000000
_cell_angle_beta 124.068233
_cell_angle_gamma 90.000000
_cell_volume 2327.661754
_symmetry_space_group_name_H-M "C 2/C"
_symmetry_group_IT_number 15
_symmetry_cell_setting 'monoclinic'
loop_
_space_group_symop_operation_xyz
x,y,z
-x,y,1/2-z
-x,-y,-z
x,-y,1/2+z
1/2+x,1/2+y,z
1/2-x,1/2+y,1/2-z
1/2-x,1/2-y,-z
1/2+x,1/2-y,1/2+z
loop_
_atom_site_type_symbol
_atom_site_label
_atom_site_fract_x
_atom_site_fract_y
_atom_site_fract_z
Si Si1 0.024092 0.369785 0.522255
Si Si2 0.327604 0.659607 0.756062
Si Si3 0.183164 0.995654 0.545343
Si Si4 0.915294 0.367149 0.642665
Si Si5 0.000000 0.800184 0.750000
Si Si6 0.739261 0.290523 0.113522
Si Si7 0.125184 0.132405 0.874439
Si Si8 0.607573 0.319578 0.634730
O O1 0.981310 0.358341 0.590411
O O2 0.954080 0.286205 0.435250
O O3 0.000000 0.500000 0.500000
O O4 0.116439 0.269729 0.327233
O O5 0.289053 0.634616 0.823837
O O6 0.477226 0.656965 0.815232
O O7 0.311219 0.586086 0.674942
O O8 0.245432 0.772258 0.711968
O O9 0.329589 0.974074 0.614978
O O10 0.151569 0.938560 0.455443
O O11 0.113696 0.924715 0.581305
O O12 0.173961 0.127459 0.529106
O O13 0.825997 0.258881 0.603690
O O14 0.000000 0.363890 0.750000
O O15 0.335423 0.824387 0.920208
O O16 0.049481 0.853429 0.691995
#
# Coordination Sequence:
#
# PCOD9277845 Si02
#       8
#     8   8   8   8   4   8   8   8
#     4  12  28  49  80 109 154 201 264 315 386 466
#     4  10  20  41  72 104 156 188 262 315 384 453
#     4  12  25  40  81 115 157 192 260 328 396 453
#     4  12  22  42  77 116 145 201 260 329 388 455
#     4  10  28  52  74 104 168 212 262 296 394 478
#     4  11  26  51  75 112 152 212 250 322 381 470
#     4  11  18  39  72 115 147 192 249 335 385 457
#     4  11  23  48  72 111 152 206 253 321 388 463
#
# _framework density 25.776938999999999
#
# number of rings (size 3 to 8) (size 9 to 14) (size 15 to 20)
#    0.000    0.800    5.333    1.200    4.667    3.733 
#    0.000    2.667    2.933    0.000    0.000    0.000 
#    0.000    0.000    0.000    0.000    0.000    0.000 
#
# Total GULP energy -167398.379585 kJ/mol
# GULP energy per Si atom -5579.945986 kJ/mol
# Density = 2.571827 g / cm^3
# Si number density = 25.776939 Si / 1000 Ang^3
#
#
#
# Elastic Constant Matrix: (Units=GPa)
#
#
# Indices 1 2 3 4 5 6 
#
# 1 106.4900 22.8802 32.0954 0.0000 5.6741 0.0000
# 2 22.8802 142.3432 42.1998 0.0000 13.4415 0.0000
# 3 32.0954 42.1998 134.8151 0.0000 -10.7715 0.0000
# 4 0.0000 0.0000 0.0000 19.0764 0.0000 6.1954
# 5 5.6741 13.4415 -10.7715 0.0000 48.2826 0.0000
# 6 0.0000 0.0000 0.0000 6.1954 0.0000 14.5844
#
#
#
# Elastic Compliance Matrix: (Units=1/GPa)
#
#
# Indices 1 2 3 4 5 6 
#
# 1 0.010350 -0.000833 -0.002323 0.000000 -0.001503 0.000000
# 2 -0.000833 0.008186 -0.002584 0.000000 -0.002757 0.000000
# 3 -0.002323 -0.002584 0.009020 0.000000 0.003005 0.000000
# 4 0.000000 0.000000 0.000000 0.060810 0.000000 -0.025832
# 5 -0.001503 -0.002757 0.003005 0.000000 0.022326 0.000000
# 6 0.000000 0.000000 0.000000 -0.025832 0.000000 0.079540
#
#
# Mechanical properties :
#
#
# Convention : Reuss Voigt Hill
#
# Bulk Modulus (GPa) = 62.21193 64.22210 63.21701
# Shear Modulus (GPa) = 24.14637 35.48687 29.81662
#
# Velocity S-wave (km/s) = 3.06395 3.71440 3.40474
# Velocity P-wave (km/s) = 6.05839 6.58516 6.32726
#
# Compressibility (1/GPa) = 0.01607409
#
# Stress axis : x y z
#
# Youngs Moduli (GPa) = 96.62004 122.16423 110.86859
#
# Poissons Ratio (x) = 0.10176 0.25758
# Poissons Ratio (y) = 0.08048 0.28652
# Poissons Ratio (z) = 0.22448 0.31571
#
# Static dielectric constant tensor:
#      x y z
#    x 2.092520 0.000000 0.015850 
#    y 0.000000 2.123120 0.000000 
#    z 0.015850 0.000000 2.173560 
# 
# From -- ./inp_files/145693.got.cif
#   From: 2010.05.17/outbox.cif.g08.bks.cpg/sg15_73_cif.got.tgz:145693.got - 2010.06.03 18:47:42.
