data_PCOD9277450
_publ_section_title
;
Structure prediction by ZEFSAII (Michael W. Deem and Ramdas Pophale) SiO2 
 PCOD9277450
Probable space group: C 2/C
;
_chemical_formula_sum "Si O2"
_cell_formula_units_Z 52
_cell_length_a 12.701904
_cell_length_b 24.764141
_cell_length_c 9.695307
_cell_angle_alpha 90.000000
_cell_angle_beta 60.956572
_cell_angle_gamma 90.000000
_cell_volume 2666.185048
_symmetry_space_group_name_H-M "C 2/C"
_symmetry_group_IT_number 15
_symmetry_cell_setting 'monoclinic'
loop_
_space_group_symop_operation_xyz
x,y,z
-x,y,1/2-z
-x,-y,-z
x,-y,1/2+z
1/2+x,1/2+y,z
1/2-x,1/2+y,1/2-z
1/2-x,1/2-y,-z
1/2+x,1/2-y,1/2+z
loop_
_atom_site_type_symbol
_atom_site_label
_atom_site_fract_x
_atom_site_fract_y
_atom_site_fract_z
Si Si1 0.933465 0.129024 0.935030
Si Si2 0.602724 0.704370 0.293811
Si Si3 0.801169 0.630265 0.046285
Si Si4 0.584467 0.564926 0.060752
Si Si5 0.000000 0.308906 0.250000
Si Si6 0.239691 0.035457 0.494354
Si Si7 0.373712 0.020190 0.141659
O O1 0.809706 0.096044 0.987151
O O2 0.000000 0.139978 0.750000
O O3 0.919051 0.181450 0.040394
O O4 0.014125 0.089345 0.977595
O O5 0.500000 0.683739 0.250000
O O6 0.583884 0.768243 0.287131
O O7 0.728505 0.678691 0.166134
O O8 0.913170 0.654883 0.895822
O O9 0.702488 0.601444 0.012235
O O10 0.845928 0.581680 0.114422
O O11 0.500000 0.566011 0.250000
O O12 0.632733 0.504440 0.015890
O O13 0.348518 0.020787 0.320659
O O14 0.277153 0.017813 0.623818
O O15 0.500000 0.000000 0.000000
#
# Coordination Sequence:
#
# PCOD9277450 Si02
#       7
#     8   8   8   8   4   8   8
#     4  12  20  34  57  92 125 160 194 250 326 362
#     4  10  20  41  63  90 118 150 207 274 304 350
#     4  11  20  40  66  92 119 158 205 263 308 351
#     4  11  19  36  60  89 124 159 207 254 293 364
#     4  10  24  36  72  96 106 156 224 266 302 358
#     4  11  22  36  56  88 125 168 205 250 293 368
#     4  11  24  38  59  88 133 169 206 241 302 381
#
# _framework density 19.503522
#
# number of rings (size 3 to 8) (size 9 to 14) (size 15 to 20)
#    0.462    0.615    4.615    3.692    4.308    0.000 
#    0.000    0.000    0.000    5.538    0.000    0.000 
#    0.000    0.000    0.000    0.000    0.000    0.000 
#
# Total GULP energy -145086.875653 kJ/mol
# GULP energy per Si atom -5580.264448 kJ/mol
# Density = 1.945913 g / cm^3
# Si number density = 19.503522 Si / 1000 Ang^3
#
#
#
# Elastic Constant Matrix: (Units=GPa)
#
#
# Indices 1 2 3 4 5 6 
#
# 1 33.9641 7.8598 22.4143 0.0000 -6.0846 0.0000
# 2 7.8598 57.1560 10.0535 0.0000 -0.9698 0.0000
# 3 22.4143 10.0535 129.5802 0.0000 -1.1237 0.0000
# 4 0.0000 0.0000 0.0000 13.4282 0.0000 -14.7266
# 5 -6.0846 -0.9698 -1.1237 0.0000 31.8691 0.0000
# 6 0.0000 0.0000 0.0000 -14.7266 0.0000 4.8957
#
#
#
# Elastic Compliance Matrix: (Units=1/GPa)
#
#
# Indices 1 2 3 4 5 6 
#
# 1 0.035251 -0.003727 -0.005753 0.000000 0.006414 0.000000
# 2 -0.003727 0.018140 -0.000764 0.000000 -0.000186 0.000000
# 3 -0.005753 -0.000764 0.008765 0.000000 -0.000813 0.000000
# 4 0.000000 0.000000 0.000000 -0.032393 0.000000 -0.097441
# 5 0.006414 -0.000186 -0.000813 0.000000 0.032569 0.000000
# 6 0.000000 0.000000 0.000000 -0.097441 0.000000 -0.088850
#
#
# Mechanical properties :
#
#
# Convention : Reuss Voigt Hill
#
# Bulk Modulus (GPa) = 23.99963 33.48395 28.74179
# Shear Modulus (GPa) = 636.35630 22.06345 329.20987
#
# Velocity S-wave (km/s) = 18.08275 3.36706 13.00621
# Velocity P-wave (km/s) = 21.17341 5.68521 15.50217
#
# Compressibility (1/GPa) = 0.04166732
#
# Stress axis : x y z
#
# Youngs Moduli (GPa) = 28.36812 55.12756 114.09564
#
# Poissons Ratio (x) = 0.20545 0.65637
# Poissons Ratio (y) = 0.10572 0.08721
# Poissons Ratio (z) = 0.16320 0.04214
#
# Static dielectric constant tensor:
#      x y z
#    x 1.703890 0.000000 -0.012940 
#    y 0.000000 1.680960 0.000000 
#    z -0.012940 0.000000 1.655150 
# 
# From -- ./inp_files/35106.got.cif
#   From: 2010.05.17/outbox.cif.g08.bks.cpg/sg15_18_cif.got.tgz:35106.got - 2010.06.03 18:47:42.
