data_PCOD9277034
_publ_section_title
;
Structure prediction by ZEFSAII (Michael W. Deem and Ramdas Pophale) SiO2 
 PCOD9277034
Probable space group: C 2/C
;
_chemical_formula_sum "Si O2"
_cell_formula_units_Z 64
_cell_length_a 30.375856
_cell_length_b 12.264021
_cell_length_c 14.644349
_cell_angle_alpha 90.000000
_cell_angle_beta 37.440774
_cell_angle_gamma 90.000000
_cell_volume 3316.598740
_symmetry_space_group_name_H-M "C 2/C"
_symmetry_group_IT_number 15
_symmetry_cell_setting 'monoclinic'
loop_
_space_group_symop_operation_xyz
x,y,z
-x,y,1/2-z
-x,-y,-z
x,-y,1/2+z
1/2+x,1/2+y,z
1/2-x,1/2+y,1/2-z
1/2-x,1/2-y,-z
1/2+x,1/2-y,1/2+z
loop_
_atom_site_type_symbol
_atom_site_label
_atom_site_fract_x
_atom_site_fract_y
_atom_site_fract_z
Si Si1 0.939582 0.091418 0.082499
Si Si2 0.943150 0.269164 0.603681
Si Si3 0.468625 0.885273 0.898346
Si Si4 0.211435 0.293000 0.933058
Si Si5 0.686374 0.671881 0.567223
Si Si6 0.066843 0.363410 0.077112
Si Si7 0.354198 0.297449 0.576570
Si Si8 0.798308 0.081260 0.440653
O O1 0.903853 0.106560 0.040363
O O2 0.873397 0.083267 0.261044
O O3 0.983978 0.200435 0.027560
O O4 0.000000 0.000000 0.000000
O O5 0.881785 0.196812 0.754041
O O6 0.921732 0.305813 0.538712
O O7 0.969457 0.365444 0.627919
O O8 0.500000 0.844329 0.750000
O O9 0.449377 0.010872 0.918881
O O10 0.397041 0.813170 0.031382
O O11 0.277154 0.298844 0.753468
O O12 0.237411 0.363841 0.977090
O O13 0.139508 0.346708 0.013520
O O14 0.197393 0.166728 0.983205
O O15 0.750000 0.750000 0.500000
O O16 0.659411 0.696038 0.508810
O O17 0.713383 0.546392 0.521528
O O18 0.000000 0.322710 0.250000
#
# Coordination Sequence:
#
# PCOD9277034 Si02
#       8
#     8   8   8   8   8   8   8   8
#     4  10  20  40  67  93 125 166 210 271 335 390
#     4  11  22  40  64  95 132 161 217 270 325 390
#     4  10  21  40  66  91 131 167 213 267 329 390
#     4  10  23  44  65  90 131 171 220 263 332 391
#     4  12  25  39  63  97 132 170 221 267 329 388
#     4  11  24  40  65  97 127 173 221 269 321 392
#     4  10  23  40  62  95 128 173 213 268 336 393
#     4  10  23  44  66  93 127 174 213 273 328 397
#
# _framework density 19.296879000000001
#
# number of rings (size 3 to 8) (size 9 to 14) (size 15 to 20)
#    0.000    1.500    2.500    1.875    1.750    4.000 
#    2.250    1.250    0.000    0.000    0.000    0.000 
#    0.000    0.000    0.000    0.000    0.000    0.000 
#
# Total GULP energy -178516.922311 kJ/mol
# GULP energy per Si atom -5578.653822 kJ/mol
# Density = 1.925296 g / cm^3
# Si number density = 19.296879 Si / 1000 Ang^3
#
#
#
# Elastic Constant Matrix: (Units=GPa)
#
#
# Indices 1 2 3 4 5 6 
#
# 1 95.2184 26.2020 16.6955 0.0000 -2.5172 0.0000
# 2 26.2020 90.5126 -1.7783 0.0000 -1.8565 0.0000
# 3 16.6955 -1.7783 20.9482 0.0000 -3.0211 0.0000
# 4 0.0000 0.0000 0.0000 18.0052 0.0000 -5.3113
# 5 -2.5172 -1.8565 -3.0211 0.0000 32.2959 0.0000
# 6 0.0000 0.0000 0.0000 -5.3113 0.0000 28.1773
#
#
#
# Elastic Compliance Matrix: (Units=1/GPa)
#
#
# Indices 1 2 3 4 5 6 
#
# 1 0.013613 -0.004166 -0.011236 0.000000 -0.000230 0.000000
# 2 -0.004166 0.012359 0.004486 0.000000 0.000805 0.000000
# 3 -0.011236 0.004486 0.057763 0.000000 0.004785 0.000000
# 4 0.000000 0.000000 0.000000 0.058810 0.000000 0.011085
# 5 -0.000230 0.000805 0.004785 0.000000 0.031440 0.000000
# 6 0.000000 0.000000 0.000000 0.011085 0.000000 0.037579
#
#
# Mechanical properties :
#
#
# Convention : Reuss Voigt Hill
#
# Bulk Modulus (GPa) = 16.15472 32.10198 24.12835
# Shear Modulus (GPa) = 19.68277 26.73300 23.20788
#
# Velocity S-wave (km/s) = 3.19720 3.72607 3.47172
# Velocity P-wave (km/s) = 4.69248 5.93156 5.34803
#
# Compressibility (1/GPa) = 0.06190141
#
# Stress axis : x y z
#
# Youngs Moduli (GPa) = 73.46126 80.91363 17.31221
#
# Poissons Ratio (x) = 0.33709 0.19452
# Poissons Ratio (y) = 0.30605 -0.07766
# Poissons Ratio (z) = 0.82540 -0.36295
#
# Static dielectric constant tensor:
#      x y z
#    x 1.703640 0.000000 0.036250 
#    y 0.000000 1.688930 0.000000 
#    z 0.036250 0.000000 1.675400 
# 
# From -- ./inp_files/177828.got.cif
#   From: 2010.05.17/outbox.cif.g08.bks.cpg/sg15_89_cif.got.tgz:177828.got - 2010.06.03 18:47:42.
