data_PCOD9277640
_publ_section_title
;
Structure prediction by ZEFSAII (Michael W. Deem and Ramdas Pophale) SiO2 
 PCOD9277640
Probable space group: C 2/C
;
_chemical_formula_sum "Si O2"
_cell_formula_units_Z 40
_cell_length_a 22.528685
_cell_length_b 10.251408
_cell_length_c 13.227352
_cell_angle_alpha 90.000000
_cell_angle_beta 150.668645
_cell_angle_gamma 90.000000
_cell_volume 1496.455857
_symmetry_space_group_name_H-M "C 2/C"
_symmetry_group_IT_number 15
_symmetry_cell_setting 'monoclinic'
loop_
_space_group_symop_operation_xyz
x,y,z
-x,y,1/2-z
-x,-y,-z
x,-y,1/2+z
1/2+x,1/2+y,z
1/2-x,1/2+y,1/2-z
1/2-x,1/2-y,-z
1/2+x,1/2-y,1/2+z
loop_
_atom_site_type_symbol
_atom_site_label
_atom_site_fract_x
_atom_site_fract_y
_atom_site_fract_z
Si Si1 0.147311 0.765450 0.093467
Si Si2 0.424654 0.651122 0.333777
Si Si3 0.106865 0.815016 0.484948
Si Si4 0.833543 0.398546 0.079663
Si Si5 0.691087 0.133242 0.348247
O O1 0.288431 0.792684 0.327279
O O2 0.137892 0.669226 0.984440
O O3 0.106512 0.690503 0.135035
O O4 0.041906 0.871299 0.938125
O O5 0.442215 0.641006 0.479660
O O6 0.308574 0.561598 0.137200
O O7 0.365717 0.789285 0.209754
O O8 0.196747 0.913918 0.557556
O O9 0.000000 0.779314 0.250000
O O10 0.883743 0.534130 0.194481
O O11 0.750000 0.250000 0.500000
#
# Coordination Sequence:
#
# PCOD9277640 Si02
#       5
#     8   8   8   8   8
#     4   9  21  40  68  98 127 178 223 268 345 392
#     4  10  20  41  66  95 135 174 224 278 331 401
#     4   9  20  39  63  96 129 172 221 269 337 393
#     4  10  22  41  66 100 137 173 227 276 341 402
#     4  10  22  41  64  95 135 175 220 274 334 403
#
# _framework density 26.729824000000001
#
# number of rings (size 3 to 8) (size 9 to 14) (size 15 to 20)
#    1.200    1.200    0.000    1.800    0.000    2.400 
#    0.000   19.000    0.000    0.000    0.000    0.000 
#    0.000    0.000    0.000    0.000    0.000    0.000 
#
# Total GULP energy -111428.566400 kJ/mol
# GULP energy per Si atom -5571.428320 kJ/mol
# Density = 2.666899 g / cm^3
# Si number density = 26.729824 Si / 1000 Ang^3
#
#
#
# Elastic Constant Matrix: (Units=GPa)
#
#
# Indices 1 2 3 4 5 6 
#
# 1 131.9886 27.8611 39.3516 0.0000 -23.9689 0.0000
# 2 27.8611 65.3720 7.4508 0.0000 -25.7334 0.0000
# 3 39.3516 7.4508 140.0922 0.0000 -12.9851 0.0000
# 4 0.0000 0.0000 0.0000 5.6056 0.0000 -2.5207
# 5 -23.9689 -25.7334 -12.9851 0.0000 74.8431 0.0000
# 6 0.0000 0.0000 0.0000 -2.5207 0.0000 29.1244
#
#
#
# Elastic Compliance Matrix: (Units=1/GPa)
#
#
# Indices 1 2 3 4 5 6 
#
# 1 0.009172 -0.003063 -0.002275 0.000000 0.001489 0.000000
# 2 -0.003063 0.018735 0.000376 0.000000 0.005526 0.000000
# 3 -0.002275 0.000376 0.007828 0.000000 0.000759 0.000000
# 4 0.000000 0.000000 0.000000 0.185616 0.000000 0.016065
# 5 0.001489 0.005526 0.000759 0.000000 0.015870 0.000000
# 6 0.000000 0.000000 0.000000 0.016065 0.000000 0.035726
#
#
# Mechanical properties :
#
#
# Convention : Reuss Voigt Hill
#
# Bulk Modulus (GPa) = 38.74543 54.08665 46.41604
# Shear Modulus (GPa) = 17.15414 39.43390 28.29402
#
# Velocity S-wave (km/s) = 2.53605 3.84510 3.25702
# Velocity P-wave (km/s) = 4.80646 6.32389 5.61665
#
# Compressibility (1/GPa) = 0.02580949
#
# Stress axis : x y z
#
# Youngs Moduli (GPa) = 109.02856 53.37592 127.75270
#
# Poissons Ratio (x) = 0.16351 0.29069
# Poissons Ratio (y) = 0.33400 -0.04807
# Poissons Ratio (z) = 0.24808 -0.02008
#
# Static dielectric constant tensor:
#      x y z
#    x 2.169910 0.000000 0.101010 
#    y 0.000000 2.176900 0.000000 
#    z 0.101010 0.000000 2.134460 
# 
# From -- ./inp_files/111888.got.cif
#   From: 2010.05.17/outbox.cif.g08.bks.cpg/sg15_56_cif.got.tgz:111888.got - 2010.06.03 18:47:42.
