data_PCOD9277637
_publ_section_title
;
Structure prediction by ZEFSAII (Michael W. Deem and Ramdas Pophale) SiO2 
 PCOD9277637
Probable space group: C 2/C
;
_chemical_formula_sum "Si O2"
_cell_formula_units_Z 60
_cell_length_a 12.021976
_cell_length_b 18.649398
_cell_length_c 16.655352
_cell_angle_alpha 90.000000
_cell_angle_beta 133.923487
_cell_angle_gamma 90.000000
_cell_volume 2689.601210
_symmetry_space_group_name_H-M "C 2/C"
_symmetry_group_IT_number 15
_symmetry_cell_setting 'monoclinic'
loop_
_space_group_symop_operation_xyz
x,y,z
-x,y,1/2-z
-x,-y,-z
x,-y,1/2+z
1/2+x,1/2+y,z
1/2-x,1/2+y,1/2-z
1/2-x,1/2-y,-z
1/2+x,1/2-y,1/2+z
loop_
_atom_site_type_symbol
_atom_site_label
_atom_site_fract_x
_atom_site_fract_y
_atom_site_fract_z
Si Si1 0.179389 0.197422 0.756198
Si Si2 0.020701 0.655331 0.516660
Si Si3 0.910441 0.603502 0.622542
Si Si4 0.930244 0.645209 0.299385
Si Si5 0.685397 0.290405 0.077772
Si Si6 0.403595 0.398662 0.910321
Si Si7 0.500000 0.424500 0.250000
Si Si8 0.639147 0.509304 0.961611
O O1 0.073257 0.267896 0.705725
O O2 0.238787 0.192555 0.695188
O O3 0.083027 0.127300 0.728650
O O4 0.321049 0.199155 0.889424
O O5 0.005533 0.605082 0.587177
O O6 0.014516 0.623108 0.424033
O O7 0.874316 0.709239 0.449090
O O8 0.823368 0.680523 0.591764
O O9 0.779575 0.543453 0.548755
O O10 0.000000 0.589331 0.750000
O O11 0.750512 0.624240 0.212105
O O12 0.000000 0.618590 0.250000
O O13 0.534042 0.337696 0.981319
O O14 0.483647 0.465927 0.907096
O O15 0.356221 0.423565 0.975929
O O16 0.376537 0.469509 0.138553
#
# Coordination Sequence:
#
# PCOD9277637 Si02
#       8
#     8   8   8   8   8   8   4   8
#     4  11  22  40  66  97 128 171 212 272 329 398
#     4  11  24  39  65 102 130 166 218 270 337 390
#     4  11  23  44  67  92 133 176 222 271 327 384
#     4  11  25  40  65 100 136 162 213 280 334 383
#     4  10  20  41  66  95 129 170 216 268 332 389
#     4  10  21  44  64  89 126 176 216 266 321 387
#     4  12  24  42  68  96 130 176 226 260 328 396
#     4  10  25  41  68  90 128 182 221 261 315 398
#
# _framework density 22.308140000000002
#
# number of rings (size 3 to 8) (size 9 to 14) (size 15 to 20)
#    0.000    1.333    4.667    0.400    3.733    1.067 
#    0.000    0.667    0.000    0.000    0.000    0.000 
#    0.000    0.000    0.000    0.000    0.000    0.000 
#
# Total GULP energy -167626.740472 kJ/mol
# GULP energy per Si atom -5587.558016 kJ/mol
# Density = 2.225737 g / cm^3
# Si number density = 22.308140 Si / 1000 Ang^3
#
#
#
# Elastic Constant Matrix: (Units=GPa)
#
#
# Indices 1 2 3 4 5 6 
#
# 1 58.0408 -2.4929 27.1148 0.0000 -24.5378 0.0000
# 2 -2.4929 21.8490 13.5371 0.0000 -2.6708 0.0000
# 3 27.1148 13.5371 152.7203 0.0000 -14.0519 0.0000
# 4 0.0000 0.0000 0.0000 20.7988 0.0000 6.8888
# 5 -24.5378 -2.6708 -14.0519 0.0000 39.2432 0.0000
# 6 0.0000 0.0000 0.0000 6.8888 0.0000 9.6988
#
#
#
# Elastic Compliance Matrix: (Units=1/GPa)
#
#
# Indices 1 2 3 4 5 6 
#
# 1 0.025752 0.007157 -0.003806 0.000000 0.015226 0.000000
# 2 0.007157 0.050543 -0.005194 0.000000 0.006055 0.000000
# 3 -0.003806 -0.005194 0.007686 0.000000 0.000019 0.000000
# 4 0.000000 0.000000 0.000000 0.062870 0.000000 -0.044654
# 5 0.015226 0.006055 0.000019 0.000000 0.035422 0.000000
# 6 0.000000 0.000000 0.000000 -0.044654 0.000000 0.134821
#
#
# Mechanical properties :
#
#
# Convention : Reuss Voigt Hill
#
# Bulk Modulus (GPa) = 12.45383 34.32536 23.38959
# Shear Modulus (GPa) = 14.38670 26.91158 20.64914
#
# Velocity S-wave (km/s) = 2.54226 3.47703 3.04572
# Velocity P-wave (km/s) = 3.76991 5.61605 4.78290
#
# Compressibility (1/GPa) = 0.08029661
#
# Stress axis : x y z
#
# Youngs Moduli (GPa) = 38.83241 19.78500 130.11181
#
# Poissons Ratio (x) = -0.14161 0.49515
# Poissons Ratio (y) = -0.27793 0.67577
# Poissons Ratio (z) = 0.14778 0.10276
#
# Static dielectric constant tensor:
#      x y z
#    x 1.824530 0.000000 -0.015090 
#    y 0.000000 1.822080 0.000000 
#    z -0.015090 0.000000 1.816780 
# 
# From -- ./inp_files/148118.got.cif
#   From: 2010.05.17/outbox.cif.g08.bks.cpg/sg15_75_cif.got.tgz:148118.got - 2010.06.03 18:47:42.
