data_PCOD9277326
_publ_section_title
;
Structure prediction by ZEFSAII (Michael W. Deem and Ramdas Pophale) SiO2 
 PCOD9277326
Probable space group: C 2/C
;
_chemical_formula_sum "Si O2"
_cell_formula_units_Z 64
_cell_length_a 9.481489
_cell_length_b 26.303564
_cell_length_c 18.156185
_cell_angle_alpha 90.000000
_cell_angle_beta 136.631699
_cell_angle_gamma 90.000000
_cell_volume 3109.378367
_symmetry_space_group_name_H-M "C 2/C"
_symmetry_group_IT_number 15
_symmetry_cell_setting 'monoclinic'
loop_
_space_group_symop_operation_xyz
x,y,z
-x,y,1/2-z
-x,-y,-z
x,-y,1/2+z
1/2+x,1/2+y,z
1/2-x,1/2+y,1/2-z
1/2-x,1/2-y,-z
1/2+x,1/2-y,1/2+z
loop_
_atom_site_type_symbol
_atom_site_label
_atom_site_fract_x
_atom_site_fract_y
_atom_site_fract_z
Si Si1 0.566983 0.392606 0.359444
Si Si2 0.153931 0.251525 0.739638
Si Si3 0.492169 0.580464 0.332484
Si Si4 0.941054 0.555648 0.310693
Si Si5 0.690578 0.996468 0.017616
Si Si6 0.108996 0.341050 0.925167
Si Si7 0.259456 0.159461 0.671748
Si Si8 0.944834 0.827104 0.926073
O O1 0.500000 0.386458 0.250000
O O2 0.670145 0.447730 0.409456
O O3 0.738554 0.350094 0.448195
O O4 0.375952 0.385787 0.343204
O O5 0.221663 0.204040 0.716984
O O6 0.355774 0.278168 0.850473
O O7 0.000000 0.240690 0.750000
O O8 0.031071 0.291537 0.639755
O O9 0.500000 0.594757 0.250000
O O10 0.296394 0.543655 0.269878
O O11 0.687625 0.548206 0.429578
O O12 0.468511 0.628579 0.375771
O O13 0.000000 0.565700 0.250000
O O14 0.093796 0.514452 0.401540
O O15 0.973327 0.608287 0.367506
O O16 0.500000 0.000000 0.000000
O O17 0.262620 0.341354 0.913756
O O18 0.500000 0.149359 0.750000
O O19 0.147167 0.176190 0.553195
#
# Coordination Sequence:
#
# PCOD9277326 Si02
#       8
#     8   8   8   8   8   8   8   8
#     4  10  23  42  66  92 131 179 217 266 336 399
#     4  10  20  40  73  97 122 172 227 274 329 395
#     4  12  23  41  68  96 131 170 221 272 323 395
#     4  11  20  41  67  96 131 170 218 273 327 388
#     4  11  25  42  64  98 130 170 223 278 323 387
#     4   9  18  39  68  97 125 162 224 277 315 388
#     4  11  26  45  60  96 142 171 214 279 335 397
#     4  10  22  42  68  95 128 171 220 271 323 395
#
# _framework density 20.582892999999999
#
# number of rings (size 3 to 8) (size 9 to 14) (size 15 to 20)
#    0.000    1.500    3.750    1.125    0.000    8.000 
#    0.000    0.000    0.000    0.000    0.000    0.000 
#    0.000    0.000    0.000    0.000    0.000    0.000 
#
# Total GULP energy -178765.828064 kJ/mol
# GULP energy per Si atom -5586.432127 kJ/mol
# Density = 2.053605 g / cm^3
# Si number density = 20.582893 Si / 1000 Ang^3
#
#
#
# Elastic Constant Matrix: (Units=GPa)
#
#
# Indices 1 2 3 4 5 6 
#
# 1 75.1401 31.1203 53.5911 0.0001 12.1445 0.0000
# 2 31.1203 61.2254 20.3868 0.0000 2.2849 -0.0001
# 3 53.5911 20.3868 125.4329 0.0006 -3.0079 0.0001
# 4 0.0001 0.0000 0.0006 10.3590 0.0002 15.2016
# 5 12.1445 2.2849 -3.0079 0.0002 41.8280 0.0000
# 6 0.0000 -0.0001 0.0001 15.2016 0.0000 19.9257
#
#
#
# Elastic Compliance Matrix: (Units=1/GPa)
#
#
# Indices 1 2 3 4 5 6 
#
# 1 0.025061 -0.009341 -0.009367 -0.000003 -0.007440 0.000003
# 2 -0.009341 0.020805 0.000649 0.000001 0.001622 -0.000001
# 3 -0.009367 0.000649 0.011954 0.000005 0.003544 -0.000004
# 4 -0.000003 0.000001 0.000005 -0.807450 0.000004 0.616012
# 5 -0.007440 0.001622 0.003544 0.000004 0.026234 -0.000003
# 6 0.000003 -0.000001 -0.000004 0.616012 -0.000003 -0.419775
#
#
# Mechanical properties :
#
#
# Convention : Reuss Voigt Hill
#
# Bulk Modulus (GPa) = 46.08430 52.44387 49.26408
# Shear Modulus (GPa) = -4.54620 24.86922 10.16151
#
# Velocity S-wave (km/s) = -1.48779 3.47976 2.22432
# Velocity P-wave (km/s) = 4.41439 6.45597 5.53021
#
# Compressibility (1/GPa) = 0.02169936
#
# Stress axis : x y z
#
# Youngs Moduli (GPa) = 39.90328 48.06605 83.65321
#
# Poissons Ratio (x) = 0.44900 0.78360
# Poissons Ratio (y) = 0.37275 -0.05425
# Poissons Ratio (z) = 0.37378 -0.03117
#
# Static dielectric constant tensor:
#      x y z
#    x 1.704370 0.000000 0.008810 
#    y 0.000000 1.803330 0.000000 
#    z 0.008810 0.000000 1.781720 
# 
# From -- ./inp_files/194283.got.cif
#   From: 2010.05.17/outbox.cif.g08.bks.cpg/sg15_98_cif.got.tgz:194283.got - 2010.06.03 18:47:42.
