data_PCOD9277601
_publ_section_title
;
Structure prediction by ZEFSAII (Michael W. Deem and Ramdas Pophale) SiO2 
 PCOD9277601
Probable space group: C 2/C
;
_chemical_formula_sum "Si O2"
_cell_formula_units_Z 56
_cell_length_a 15.064665
_cell_length_b 12.134017
_cell_length_c 15.901219
_cell_angle_alpha 90.000000
_cell_angle_beta 76.741912
_cell_angle_gamma 90.000000
_cell_volume 2829.190193
_symmetry_space_group_name_H-M "C 2/C"
_symmetry_group_IT_number 15
_symmetry_cell_setting 'monoclinic'
loop_
_space_group_symop_operation_xyz
x,y,z
-x,y,1/2-z
-x,-y,-z
x,-y,1/2+z
1/2+x,1/2+y,z
1/2-x,1/2+y,1/2-z
1/2-x,1/2-y,-z
1/2+x,1/2-y,1/2+z
loop_
_atom_site_type_symbol
_atom_site_label
_atom_site_fract_x
_atom_site_fract_y
_atom_site_fract_z
Si Si1 0.876891 0.783697 0.856117
Si Si2 0.857051 0.780902 0.490332
Si Si3 0.485182 0.927629 0.918368
Si Si4 0.909675 0.755377 0.665131
Si Si5 0.303109 0.503595 0.940394
Si Si6 0.664718 0.992842 0.315672
Si Si7 0.317986 0.961180 0.373469
O O1 0.872501 0.812293 0.757768
O O2 0.847330 0.884892 0.919240
O O3 0.820209 0.671459 0.878696
O O4 0.981616 0.760162 0.854768
O O5 0.750000 0.750000 0.500000
O O6 0.928263 0.683618 0.450611
O O7 0.872932 0.800884 0.585659
O O8 0.870077 0.892286 0.433870
O O9 0.585658 0.919185 0.855805
O O10 0.419880 0.996160 0.870741
O O11 0.500000 0.000000 0.000000
O O12 0.882740 0.627081 0.676508
O O13 0.236406 0.514009 0.875271
O O14 0.244663 0.504559 0.038349
O O15 0.706161 0.004512 0.213871
#
# Coordination Sequence:
#
# PCOD9277601 Si02
#       7
#     8   8   8   8   8   8   8
#     4  10  23  39  66  93 126 168 218 269 314 388
#     4  12  22  38  66  92 129 170 210 265 331 386
#     4  12  19  38  67  97 125 160 222 269 316 377
#     4  10  20  41  66  89 124 170 218 255 324 383
#     4  12  25  40  63  98 133 168 213 266 333 388
#     4  11  22  39  68  95 121 169 218 274 311 377
#     4  11  21  39  66  92 127 168 221 263 324 380
#
# _framework density 19.793651000000001
#
# number of rings (size 3 to 8) (size 9 to 14) (size 15 to 20)
#    0.000    0.857    7.143    0.857    2.000    0.571 
#    0.000    0.000    6.286    0.000    0.000    0.000 
#    0.000    0.000    0.000    0.000    0.000    0.000 
#
# Total GULP energy -156359.046854 kJ/mol
# GULP energy per Si atom -5584.251673 kJ/mol
# Density = 1.974860 g / cm^3
# Si number density = 19.793651 Si / 1000 Ang^3
#
#
#
# Elastic Constant Matrix: (Units=GPa)
#
#
# Indices 1 2 3 4 5 6 
#
# 1 47.9101 26.5357 39.4380 0.0000 18.3700 0.0000
# 2 26.5357 91.0359 33.3286 0.0000 4.2291 0.0000
# 3 39.4380 33.3286 129.4904 0.0000 19.3421 0.0000
# 4 0.0000 0.0000 0.0000 25.3482 0.0000 1.8482
# 5 18.3700 4.2291 19.3421 0.0000 23.7886 0.0000
# 6 0.0000 0.0000 0.0000 1.8482 0.0000 33.8451
#
#
#
# Elastic Compliance Matrix: (Units=1/GPa)
#
#
# Indices 1 2 3 4 5 6 
#
# 1 0.039984 -0.008165 -0.006466 0.000000 -0.024167 0.000000
# 2 -0.008165 0.013799 -0.001867 0.000000 0.005370 0.000000
# 3 -0.006466 -0.001867 0.010673 0.000000 -0.003353 0.000000
# 4 0.000000 0.000000 0.000000 0.039608 0.000000 -0.002163
# 5 -0.024167 0.005370 -0.003353 0.000000 0.062471 0.000000
# 6 0.000000 0.000000 0.000000 -0.002163 0.000000 0.029664
#
#
# Mechanical properties :
#
#
# Convention : Reuss Voigt Hill
#
# Bulk Modulus (GPa) = 31.78658 51.89344 41.84001
# Shear Modulus (GPa) = 20.86102 27.87200 24.36651
#
# Velocity S-wave (km/s) = 3.24994 3.75657 3.51241
# Velocity P-wave (km/s) = 5.49333 6.71490 6.13460
#
# Compressibility (1/GPa) = 0.03145981
#
# Stress axis : x y z
#
# Youngs Moduli (GPa) = 25.01027 72.47109 93.69153
#
# Poissons Ratio (x) = 0.59170 0.60583
# Poissons Ratio (y) = 0.20420 0.17492
# Poissons Ratio (z) = 0.16172 0.13530
#
# Static dielectric constant tensor:
#      x y z
#    x 1.698370 0.000000 -0.021830 
#    y 0.000000 1.733950 0.000000 
#    z -0.021830 0.000000 1.732000 
# 
# From -- ./inp_files/152583.got.cif
#   From: 2010.05.17/outbox.cif.g08.bks.cpg/sg15_77_cif.got.tgz:152583.got - 2010.06.03 18:47:42.
