data_PCOD9277064
_publ_section_title
;
Structure prediction by ZEFSAII (Michael W. Deem and Ramdas Pophale) SiO2 
 PCOD9277064
Probable space group: C 2/C
;
_chemical_formula_sum "Si O2"
_cell_formula_units_Z 56
_cell_length_a 13.680070
_cell_length_b 16.307755
_cell_length_c 21.138548
_cell_angle_alpha 90.000000
_cell_angle_beta 150.238818
_cell_angle_gamma 90.000000
_cell_volume 2340.869036
_symmetry_space_group_name_H-M "C 2/C"
_symmetry_group_IT_number 15
_symmetry_cell_setting 'monoclinic'
loop_
_space_group_symop_operation_xyz
x,y,z
-x,y,1/2-z
-x,-y,-z
x,-y,1/2+z
1/2+x,1/2+y,z
1/2-x,1/2+y,1/2-z
1/2-x,1/2-y,-z
1/2+x,1/2-y,1/2+z
loop_
_atom_site_type_symbol
_atom_site_label
_atom_site_fract_x
_atom_site_fract_y
_atom_site_fract_z
Si Si1 0.220535 0.632954 0.843080
Si Si2 0.713873 0.671834 0.766141
Si Si3 0.069376 0.408497 0.526767
Si Si4 0.711889 0.347432 0.482218
Si Si5 0.707617 0.286055 0.905781
Si Si6 0.236720 0.453540 0.870250
Si Si7 0.847469 0.362838 0.796456
O O1 0.222967 0.638687 0.768153
O O2 0.316553 0.715746 0.924404
O O3 0.309576 0.546566 0.915249
O O4 0.000000 0.632080 0.750000
O O5 0.500533 0.638291 0.667102
O O6 0.691524 0.769588 0.745450
O O7 0.873721 0.645212 0.906533
O O8 0.200458 0.377280 0.541836
O O9 0.202744 0.379974 0.660145
O O10 0.000000 0.500000 0.500000
O O11 0.750000 0.250000 0.500000
O O12 0.685503 0.386010 0.537260
O O13 0.917487 0.382890 0.573265
O O14 0.500000 0.291745 0.750000
O O15 0.750000 0.250000 0.000000
O O16 0.257244 0.421804 0.810948
O O17 0.000000 0.454703 0.750000
#
# Coordination Sequence:
#
# PCOD9277064 Si02
#       7
#     8   8   8   8   8   8   8
#     4  10  20  40  67  98 127 177 232 292 348 421
#     4  11  23  41  66  94 140 182 234 282 365 435
#     4  12  26  46  70 105 143 186 240 313 369 435
#     4   9  21  39  60  97 134 181 224 281 351 428
#     4  11  25  48  75 106 146 196 248 306 380 458
#     4   9  19  38  66  96 133 176 227 285 345 430
#     4  10  22  40  67  96 139 181 229 282 362 431
#
# _framework density 23.922739
#
# number of rings (size 3 to 8) (size 9 to 14) (size 15 to 20)
#    0.000    1.714    1.429    2.571    4.000    3.429 
#    5.143    0.000    0.000    0.000    0.000    0.000 
#    0.000    0.000    0.000    0.000    0.000    0.000 
#
# Total GULP energy -156161.333227 kJ/mol
# GULP energy per Si atom -5577.190472 kJ/mol
# Density = 2.386829 g / cm^3
# Si number density = 23.922739 Si / 1000 Ang^3
#
#
#
# Elastic Constant Matrix: (Units=GPa)
#
#
# Indices 1 2 3 4 5 6 
#
# 1 76.0215 31.4602 31.5292 -0.0006 -9.5900 -0.0002
# 2 31.4602 154.5684 47.6673 0.0001 -8.3303 -0.0001
# 3 31.5292 47.6673 120.8631 -0.0021 4.0801 -0.0013
# 4 -0.0006 0.0001 -0.0021 23.2728 -0.0007 2.3239
# 5 -9.5900 -8.3303 4.0801 -0.0007 40.5645 -0.0003
# 6 -0.0002 -0.0001 -0.0013 2.3239 -0.0003 33.9504
#
#
#
# Elastic Compliance Matrix: (Units=1/GPa)
#
#
# Indices 1 2 3 4 5 6 
#
# 1 0.015881 -0.001954 -0.003497 0.000000 0.003705 0.000000
# 2 -0.001954 0.007741 -0.002590 0.000000 0.001388 0.000000
# 3 -0.003497 -0.002590 0.010288 0.000001 -0.002393 0.000000
# 4 0.000000 0.000000 0.000001 0.043264 0.000001 -0.002961
# 5 0.003705 0.001388 -0.002393 0.000001 0.026054 0.000000
# 6 0.000000 0.000000 0.000000 -0.002961 0.000000 0.029657
#
#
# Mechanical properties :
#
#
# Convention : Reuss Voigt Hill
#
# Bulk Modulus (GPa) = 56.09353 63.64072 59.86712
# Shear Modulus (GPa) = 32.27672 35.61064 33.94368
#
# Velocity S-wave (km/s) = 3.67714 3.86238 3.77090
# Velocity P-wave (km/s) = 6.44416 6.82283 6.63620
#
# Compressibility (1/GPa) = 0.01782737
#
# Stress axis : x y z
#
# Youngs Moduli (GPa) = 62.96983 129.18353 97.19695
#
# Poissons Ratio (x) = 0.25244 0.33991
# Poissons Ratio (y) = 0.12305 0.25174
# Poissons Ratio (z) = 0.22021 0.33459
#
# Static dielectric constant tensor:
#      x y z
#    x 1.927580 0.000000 0.080210 
#    y 0.000000 1.924170 0.000000 
#    z 0.080210 0.000000 1.929420 
# 
# From -- ./inp_files/245176.got.cif
#   From: 2010.05.17/outbox.cif.g08.bks.cpg/sg15_123_cif.got.tgz:245176.got - 2010.06.03 18:47:42.
