data_PCOD9277005
_publ_section_title
;
Structure prediction by ZEFSAII (Michael W. Deem and Ramdas Pophale) SiO2 
 PCOD9277005
Probable space group: C 2/C
;
_chemical_formula_sum "Si O2"
_cell_formula_units_Z 48
_cell_length_a 15.385941
_cell_length_b 17.202308
_cell_length_c 29.577340
_cell_angle_alpha 90.000000
_cell_angle_beta 18.825868
_cell_angle_gamma 90.000000
_cell_volume 2526.152224
_symmetry_space_group_name_H-M "C 2/C"
_symmetry_group_IT_number 15
_symmetry_cell_setting 'monoclinic'
loop_
_space_group_symop_operation_xyz
x,y,z
-x,y,1/2-z
-x,-y,-z
x,-y,1/2+z
1/2+x,1/2+y,z
1/2-x,1/2+y,1/2-z
1/2-x,1/2-y,-z
1/2+x,1/2-y,1/2+z
loop_
_atom_site_type_symbol
_atom_site_label
_atom_site_fract_x
_atom_site_fract_y
_atom_site_fract_z
Si Si1 0.665534 0.914121 0.782104
Si Si2 0.703498 0.064064 0.526205
Si Si3 0.050734 0.732006 0.278637
Si Si4 0.987861 0.300821 0.563490
Si Si5 0.478255 0.186707 0.709068
Si Si6 0.412585 0.176575 0.995626
O O1 0.589876 0.852783 0.780302
O O2 0.633887 0.863348 0.842947
O O3 0.974818 0.941708 0.625164
O O4 0.456772 0.984568 0.887865
O O5 0.580390 0.125072 0.622770
O O6 0.649332 0.100775 0.503224
O O7 0.320559 0.781028 0.154270
O O8 0.000000 0.725283 0.250000
O O9 0.795067 0.779286 0.422927
O O10 0.819900 0.220777 0.650358
O O11 0.958715 0.332383 0.526587
O O12 0.500000 0.157189 0.750000
O O13 0.669663 0.262275 0.610571
#
# Coordination Sequence:
#
# PCOD9277005 Si02
#       6
#     8   8   8   8   8   8
#     4  12  26  41  58  90 129 163 198 244 304 363
#     4  12  26  40  60  89 128 164 196 246 305 363
#     4  10  22  41  66  92 118 154 206 257 297 349
#     4  10  22  39  68  93 116 155 207 255 294 354
#     4  10  20  40  67  89 110 156 209 251 298 351
#     4  10  20  42  67  89 117 158 206 251 298 350
#
# _framework density 19.001231000000001
#
# number of rings (size 3 to 8) (size 9 to 14) (size 15 to 20)
#    0.000    1.333    3.333    2.000    4.667    1.333 
#    0.000    1.667    0.000    0.000    0.000    0.000 
#    0.000    0.000    0.000    0.000    0.000    0.000 
#
# Total GULP energy -134101.099277 kJ/mol
# GULP energy per Si atom -5587.545803 kJ/mol
# Density = 1.895798 g / cm^3
# Si number density = 19.001231 Si / 1000 Ang^3
#
#
#
# Elastic Constant Matrix: (Units=GPa)
#
#
# Indices 1 2 3 4 5 6 
#
# 1 86.4158 63.5711 27.7223 -0.0256 7.2866 0.0956
# 2 63.5711 96.9988 23.9558 -0.0310 1.1352 0.0910
# 3 27.7223 23.9558 111.7142 0.0132 -2.0440 0.0031
# 4 -0.0256 -0.0310 0.0132 19.1124 -0.0587 -12.1062
# 5 7.2866 1.1352 -2.0440 -0.0587 26.1983 0.0313
# 6 0.0956 0.0910 0.0031 -12.1062 0.0313 -6.2643
#
#
#
# Elastic Compliance Matrix: (Units=1/GPa)
#
#
# Indices 1 2 3 4 5 6 
#
# 1 0.024031 -0.014968 -0.002868 0.000029 -0.006259 0.000061
# 2 -0.014968 0.020220 -0.000562 0.000034 0.003243 0.000017
# 3 -0.002868 -0.000562 0.009813 -0.000014 0.001588 -0.000012
# 4 0.000029 0.000034 -0.000014 0.023525 0.000096 -0.045463
# 5 -0.006259 0.003243 0.001588 0.000096 0.039895 -0.000035
# 6 0.000061 0.000017 -0.000012 -0.045463 -0.000035 -0.071773
#
#
# Mechanical properties :
#
#
# Convention : Reuss Voigt Hill
#
# Bulk Modulus (GPa) = 57.91393 58.40302 58.15848
# Shear Modulus (GPa) = 56.64981 19.80126 38.22554
#
# Velocity S-wave (km/s) = 5.46612 3.23167 4.49011
# Velocity P-wave (km/s) = 8.38947 6.68790 7.58654
#
# Compressibility (1/GPa) = 0.01726700
#
# Stress axis : x y z
#
# Youngs Moduli (GPa) = 41.61371 49.45649 101.90786
#
# Poissons Ratio (x) = 0.74024 0.29229
# Poissons Ratio (y) = 0.62286 0.05730
# Poissons Ratio (z) = 0.11935 0.02781
#
# Static dielectric constant tensor:
#      x y z
#    x 1.680550 0.000010 0.011550 
#    y 0.000010 1.606810 0.000000 
#    z 0.011550 0.000000 1.669550 
# 
# From -- ./inp_files/70558.got.cif
#   From: 2010.05.17/outbox.cif.g08.bks.cpg/sg15_36_cif.got.tgz:70558.got - 2010.06.03 18:47:42.
