data_PCOD9277204
_publ_section_title
;
Structure prediction by ZEFSAII (Michael W. Deem and Ramdas Pophale) SiO2 
 PCOD9277204
Probable space group: C 2/C
;
_chemical_formula_sum "Si O2"
_cell_formula_units_Z 64
_cell_length_a 13.496100
_cell_length_b 17.978275
_cell_length_c 13.238995
_cell_angle_alpha 90.000000
_cell_angle_beta 92.372309
_cell_angle_gamma 90.000000
_cell_volume 3209.511632
_symmetry_space_group_name_H-M "C 2/C"
_symmetry_group_IT_number 15
_symmetry_cell_setting 'monoclinic'
loop_
_space_group_symop_operation_xyz
x,y,z
-x,y,1/2-z
-x,-y,-z
x,-y,1/2+z
1/2+x,1/2+y,z
1/2-x,1/2+y,1/2-z
1/2-x,1/2-y,-z
1/2+x,1/2-y,1/2+z
loop_
_atom_site_type_symbol
_atom_site_label
_atom_site_fract_x
_atom_site_fract_y
_atom_site_fract_z
Si Si1 0.063045 0.969842 0.353456
Si Si2 0.444632 0.385434 0.515840
Si Si3 0.788746 0.527881 0.795758
Si Si4 0.250174 0.634422 0.877736
Si Si5 0.927292 0.285556 0.016816
Si Si6 0.113465 0.605105 0.296410
Si Si7 0.105653 0.758604 0.215562
Si Si8 0.932052 0.572869 0.981644
O O1 0.177801 0.963424 0.330838
O O2 0.000000 0.961768 0.250000
O O3 0.023668 0.910312 0.433776
O O4 0.046319 0.052361 0.398403
O O5 0.335100 0.392045 0.459518
O O6 0.455607 0.299148 0.548579
O O7 0.800813 0.569819 0.688822
O O8 0.816726 0.442988 0.772546
O O9 0.861736 0.558419 0.884016
O O10 0.171747 0.686336 0.931489
O O11 0.311172 0.680872 0.796997
O O12 0.005960 0.351557 0.034416
O O13 0.909594 0.277368 0.895956
O O14 0.136181 0.691992 0.289070
O O15 0.121267 0.582193 0.412832
O O16 0.000000 0.594961 0.250000
O O17 0.000000 0.787757 0.250000
O O18 0.000000 0.500000 0.000000
#
# Coordination Sequence:
#
# PCOD9277204 Si02
#       8
#     8   8   8   8   8   8   8   8
#     4  11  25  47  69  96 132 182 221 281 329 400
#     4  10  24  44  70  96 132 175 230 273 337 393
#     4  12  27  39  70  96 137 174 225 271 338 401
#     4  11  25  40  68 102 131 177 224 276 327 403
#     4  11  23  41  71  99 137 173 222 282 332 400
#     4  11  22  40  66  98 127 177 220 273 326 396
#     4  10  20  40  69  95 126 176 223 268 324 398
#     4  12  24  43  67  99 140 172 219 281 339 395
#
# _framework density 19.940728
#
# number of rings (size 3 to 8) (size 9 to 14) (size 15 to 20)
#    0.000    1.000    5.000    2.250   10.500    0.000 
#    2.250    2.500    0.000    0.000    0.000    0.000 
#    0.000    0.000    0.000    0.000    0.000    0.000 
#
# Total GULP energy -178824.456898 kJ/mol
# GULP energy per Si atom -5588.264278 kJ/mol
# Density = 1.989534 g / cm^3
# Si number density = 19.940728 Si / 1000 Ang^3
#
#
#
# Elastic Constant Matrix: (Units=GPa)
#
#
# Indices 1 2 3 4 5 6 
#
# 1 93.4667 38.6609 21.3229 0.0000 -14.0792 0.0000
# 2 38.6609 115.4217 28.7875 0.0000 -3.5788 0.0000
# 3 21.3229 28.7875 53.7803 0.0000 -13.8891 0.0000
# 4 0.0000 0.0000 0.0000 32.9954 0.0000 -4.5584
# 5 -14.0792 -3.5788 -13.8891 0.0000 38.4170 0.0000
# 6 0.0000 0.0000 0.0000 -4.5584 0.0000 25.9589
#
#
#
# Elastic Compliance Matrix: (Units=1/GPa)
#
#
# Indices 1 2 3 4 5 6 
#
# 1 0.013348 -0.003779 -0.002313 0.000000 0.003704 0.000000
# 2 -0.003779 0.011112 -0.005007 0.000000 -0.002160 0.000000
# 3 -0.002313 -0.005007 0.024103 0.000000 0.007400 0.000000
# 4 0.000000 0.000000 0.000000 0.031061 0.000000 0.005454
# 5 0.003704 -0.002160 0.007400 0.000000 0.029862 0.000000
# 6 0.000000 0.000000 0.000000 0.005454 0.000000 0.039480
#
#
# Mechanical properties :
#
#
# Convention : Reuss Voigt Hill
#
# Bulk Modulus (GPa) = 37.93151 48.91237 43.42194
# Shear Modulus (GPa) = 27.78537 31.06740 29.42639
#
# Velocity S-wave (km/s) = 3.73687 3.95142 3.84564
# Velocity P-wave (km/s) = 6.13860 6.73798 6.44526
#
# Compressibility (1/GPa) = 0.02636330
#
# Stress axis : x y z
#
# Youngs Moduli (GPa) = 74.91931 89.99558 41.48940
#
# Poissons Ratio (x) = 0.34011 0.09595
# Poissons Ratio (y) = 0.28314 0.20775
# Poissons Ratio (z) = 0.17327 0.45064
#
# Static dielectric constant tensor:
#      x y z
#    x 1.711230 0.000000 -0.009350 
#    y 0.000000 1.730430 0.000000 
#    z -0.009350 0.000000 1.698220 
# 
# From -- ./inp_files/98776.got.cif
#   From: 2010.05.17/outbox.cif.g08.bks.cpg/sg15_50_cif.got.tgz:98776.got - 2010.06.03 18:47:42.
