data_PCOD9277136
_publ_section_title
;
Structure prediction by ZEFSAII (Michael W. Deem and Ramdas Pophale) SiO2 
 PCOD9277136
Probable space group: C 2/C
;
_chemical_formula_sum "Si O2"
_cell_formula_units_Z 60
_cell_length_a 11.768809
_cell_length_b 9.227022
_cell_length_c 32.210032
_cell_angle_alpha 90.000000
_cell_angle_beta 53.071530
_cell_angle_gamma 90.000000
_cell_volume 2796.030349
_symmetry_space_group_name_H-M "C 2/C"
_symmetry_group_IT_number 15
_symmetry_cell_setting 'monoclinic'
loop_
_space_group_symop_operation_xyz
x,y,z
-x,y,1/2-z
-x,-y,-z
x,-y,1/2+z
1/2+x,1/2+y,z
1/2-x,1/2+y,1/2-z
1/2-x,1/2-y,-z
1/2+x,1/2-y,1/2+z
loop_
_atom_site_type_symbol
_atom_site_label
_atom_site_fract_x
_atom_site_fract_y
_atom_site_fract_z
Si Si1 0.207254 0.739781 0.716965
Si Si2 0.817028 0.937361 0.706226
Si Si3 0.174145 0.376601 0.134242
Si Si4 0.606745 0.392878 0.592165
Si Si5 0.932621 0.912988 0.552549
Si Si6 0.500000 0.814429 0.750000
Si Si7 0.234050 0.802656 0.050947
Si Si8 0.997206 0.343556 0.843895
O O1 0.130413 0.840850 0.766657
O O2 0.269594 0.599830 0.727048
O O3 0.149568 0.680255 0.686429
O O4 0.342603 0.837316 0.676556
O O5 0.664305 0.877560 0.721697
O O6 0.956405 0.938894 0.646863
O O7 0.169283 0.242741 0.103598
O O8 0.316788 0.475115 0.098243
O O9 0.051040 0.491919 0.151873
O O10 0.552669 0.361623 0.557800
O O11 0.714467 0.527140 0.563384
O O12 0.855174 0.772705 0.551469
O O13 0.000000 0.000000 0.500000
O O14 0.476775 0.765482 0.803249
O O15 0.092794 0.731891 0.100980
O O16 0.250000 0.750000 0.000000
#
# Coordination Sequence:
#
# PCOD9277136 Si02
#       8
#     8   8   8   8   8   4   8   8
#     4  11  23  43  66 101 139 185 229 288 349 414
#     4  11  23  41  70  98 140 184 234 284 348 420
#     4  11  25  44  70 100 143 179 232 288 347 418
#     4  12  25  45  69 105 137 177 243 291 348 420
#     4  11  23  46  75  96 139 190 227 291 360 410
#     4  10  20  40  68  94 130 186 228 272 346 424
#     4  11  22  43  71 102 138 186 233 290 352 418
#     4  10  21  41  69  93 137 186 225 282 358 413
#
# _framework density 21.458995999999999
#
# number of rings (size 3 to 8) (size 9 to 14) (size 15 to 20)
#    0.000    1.067    5.333    0.800    3.733    2.133 
#    4.800    0.667    0.000    0.000    0.000    0.000 
#    0.000    0.000    0.000    0.000    0.000    0.000 
#
# Total GULP energy -167170.366247 kJ/mol
# GULP energy per Si atom -5572.345542 kJ/mol
# Density = 2.141015 g / cm^3
# Si number density = 21.458996 Si / 1000 Ang^3
#
#
#
# Elastic Constant Matrix: (Units=GPa)
#
#
# Indices 1 2 3 4 5 6 
#
# 1 59.1581 50.7394 4.1193 0.0000 7.9128 0.0000
# 2 50.7394 100.9314 17.3657 0.0000 34.0756 0.0000
# 3 4.1193 17.3657 99.6350 0.0000 19.5349 0.0000
# 4 0.0000 0.0000 0.0000 35.9544 0.0000 1.2998
# 5 7.9128 34.0756 19.5349 0.0000 34.0258 0.0000
# 6 0.0000 0.0000 0.0000 1.2998 0.0000 -8.4470
#
#
#
# Elastic Compliance Matrix: (Units=1/GPa)
#
#
# Indices 1 2 3 4 5 6 
#
# 1 0.033481 -0.021470 -0.000373 0.000000 0.013930 0.000000
# 2 -0.021470 0.028749 0.000612 0.000000 -0.024149 0.000000
# 3 -0.000373 0.000612 0.011323 0.000000 -0.007027 0.000000
# 4 0.000000 0.000000 0.000000 0.027659 0.000000 0.004256
# 5 0.013930 -0.024149 -0.007027 0.000000 0.054369 0.000000
# 6 0.000000 0.000000 0.000000 0.004256 0.000000 -0.117730
#
#
# Mechanical properties :
#
#
# Convention : Reuss Voigt Hill
#
# Bulk Modulus (GPa) = 32.16464 44.90815 38.53640
# Shear Modulus (GPa) = 55.14061 24.80665 39.97363
#
# Velocity S-wave (km/s) = 5.07460 3.40369 4.32069
# Velocity P-wave (km/s) = 7.02544 6.03487 6.54891
#
# Compressibility (1/GPa) = 0.03109004
#
# Stress axis : x y z
#
# Youngs Moduli (GPa) = 29.86738 34.78412 88.31495
#
# Poissons Ratio (x) = 0.74682 0.03296
# Poissons Ratio (y) = 0.64125 -0.05402
# Poissons Ratio (z) = 0.01115 -0.02128
#
# Static dielectric constant tensor:
#      x y z
#    x 1.754910 0.000000 -0.103010 
#    y 0.000000 1.781190 0.000000 
#    z -0.103010 0.000000 1.781070 
# 
# From -- ./inp_files/310270.got.cif
#   From: 2010.05.17/outbox.cif.g08.bks.cpg/sg15_156_cif.got.tgz:310270.got - 2010.06.03 18:47:42.
