data_PCOD9277176
_publ_section_title
;
Structure prediction by ZEFSAII (Michael W. Deem and Ramdas Pophale) SiO2 
 PCOD9277176
Probable space group: C 2/C
;
_chemical_formula_sum "Si O2"
_cell_formula_units_Z 36
_cell_length_a 8.379279
_cell_length_b 22.264488
_cell_length_c 9.242581
_cell_angle_alpha 90.000000
_cell_angle_beta 118.287320
_cell_angle_gamma 90.000000
_cell_volume 1518.387279
_symmetry_space_group_name_H-M "C 2/C"
_symmetry_group_IT_number 15
_symmetry_cell_setting 'monoclinic'
loop_
_space_group_symop_operation_xyz
x,y,z
-x,y,1/2-z
-x,-y,-z
x,-y,1/2+z
1/2+x,1/2+y,z
1/2-x,1/2+y,1/2-z
1/2-x,1/2-y,-z
1/2+x,1/2-y,1/2+z
loop_
_atom_site_type_symbol
_atom_site_label
_atom_site_fract_x
_atom_site_fract_y
_atom_site_fract_z
Si Si1 0.175810 0.804781 0.061823
Si Si2 0.864472 0.592717 0.508654
Si Si3 0.157167 0.462231 0.944196
Si Si4 0.792480 0.854570 0.853875
Si Si5 0.500000 0.762224 0.750000
O O1 0.112510 0.778646 0.188213
O O2 0.250000 0.750000 0.000000
O O3 0.316197 0.859968 0.112922
O O4 0.986746 0.827024 0.915469
O O5 0.769511 0.528675 0.497081
O O6 0.794096 0.627268 0.336240
O O7 0.061078 0.567052 0.544214
O O8 0.302086 0.415041 0.950391
O O9 0.000000 0.465426 0.750000
O O10 0.654781 0.808314 0.873426
#
# Coordination Sequence:
#
# PCOD9277176 Si02
#       5
#     8   8   8   8   4
#     4  12  25  42  64  99 134 182 227 271 339 399
#     4  10  20  40  68  99 128 178 219 273 346 393
#     4   9  19  41  68  99 131 169 222 278 341 400
#     4  11  21  44  69  92 137 173 222 285 333 399
#     4  12  24  44  64 100 132 180 228 276 338 392
#
# _framework density 23.709363
#
# number of rings (size 3 to 8) (size 9 to 14) (size 15 to 20)
#    0.000    1.333    5.556    1.333    0.000    0.889 
#   16.000    0.000    0.000    0.000    0.000    0.000 
#    0.000    0.000    0.000    0.000    0.000    0.000 
#
# Total GULP energy -100552.446787 kJ/mol
# GULP energy per Si atom -5586.247044 kJ/mol
# Density = 2.365540 g / cm^3
# Si number density = 23.709363 Si / 1000 Ang^3
#
#
#
# Elastic Constant Matrix: (Units=GPa)
#
#
# Indices 1 2 3 4 5 6 
#
# 1 142.3138 95.7536 25.6118 0.0000 -18.0920 0.0000
# 2 95.7536 209.4091 35.0135 0.0000 -22.0058 0.0000
# 3 25.6118 35.0135 37.1500 0.0000 -11.0971 0.0000
# 4 0.0000 0.0000 0.0000 33.1061 0.0000 -20.0992
# 5 -18.0920 -22.0058 -11.0971 0.0000 43.5451 0.0000
# 6 0.0000 0.0000 0.0000 -20.0992 0.0000 36.8757
#
#
#
# Elastic Compliance Matrix: (Units=1/GPa)
#
#
# Indices 1 2 3 4 5 6 
#
# 1 0.010555 -0.004184 -0.002874 0.000000 0.001538 0.000000
# 2 -0.004184 0.007436 -0.003810 0.000000 0.001048 0.000000
# 3 -0.002874 -0.003810 0.034159 0.000000 0.005585 0.000000
# 4 0.000000 0.000000 0.000000 0.045145 0.000000 0.024606
# 5 0.001538 0.001048 0.005585 0.000000 0.025557 0.000000
# 6 0.000000 0.000000 0.000000 0.024606 0.000000 0.040530
#
#
# Mechanical properties :
#
#
# Convention : Reuss Voigt Hill
#
# Bulk Modulus (GPa) = 32.88068 77.95896 55.41982
# Shear Modulus (GPa) = 25.60757 38.20498 31.90628
#
# Velocity S-wave (km/s) = 3.28999 4.01856 3.67239
# Velocity P-wave (km/s) = 5.32263 7.38135 6.43485
#
# Compressibility (1/GPa) = 0.03041300
#
# Stress axis : x y z
#
# Youngs Moduli (GPa) = 94.74532 134.48472 29.27511
#
# Poissons Ratio (x) = 0.56269 0.08412
# Poissons Ratio (y) = 0.39642 0.11155
# Poissons Ratio (z) = 0.27226 0.51245
#
# Static dielectric constant tensor:
#      x y z
#    x 1.903670 0.000000 -0.028370 
#    y 0.000000 1.917250 0.000000 
#    z -0.028370 0.000000 2.046820 
# 
# From -- ./inp_files/76591.got.cif
#   From: 2010.05.17/outbox.cif.g08.bks.cpg/sg15_39_cif.got.tgz:76591.got - 2010.06.03 18:47:42.
