data_PCOD9277206
_publ_section_title
;
Structure prediction by ZEFSAII (Michael W. Deem and Ramdas Pophale) SiO2 
 PCOD9277206
Probable space group: C 2/C
;
_chemical_formula_sum "Si O2"
_cell_formula_units_Z 56
_cell_length_a 10.846842
_cell_length_b 19.604731
_cell_length_c 14.903986
_cell_angle_alpha 90.000000
_cell_angle_beta 125.920020
_cell_angle_gamma 90.000000
_cell_volume 2566.634879
_symmetry_space_group_name_H-M "C 2/C"
_symmetry_group_IT_number 15
_symmetry_cell_setting 'monoclinic'
loop_
_space_group_symop_operation_xyz
x,y,z
-x,y,1/2-z
-x,-y,-z
x,-y,1/2+z
1/2+x,1/2+y,z
1/2-x,1/2+y,1/2-z
1/2-x,1/2-y,-z
1/2+x,1/2-y,1/2+z
loop_
_atom_site_type_symbol
_atom_site_label
_atom_site_fract_x
_atom_site_fract_y
_atom_site_fract_z
Si Si1 0.662978 0.583108 0.592796
Si Si2 0.174748 0.935797 0.803334
Si Si3 0.176156 0.095019 0.807769
Si Si4 0.867783 0.301405 0.131079
Si Si5 0.855549 0.688832 0.427611
Si Si6 0.194242 0.070832 0.097558
Si Si7 0.661069 0.179025 0.470280
O O1 0.704687 0.598433 0.713896
O O2 0.734470 0.643336 0.566865
O O3 0.480544 0.582566 0.507429
O O4 0.724519 0.509030 0.589580
O O5 0.297455 0.888317 0.902683
O O6 0.198661 0.925958 0.707028
O O7 0.000000 0.916771 0.750000
O O8 0.191955 0.014797 0.837571
O O9 0.282702 0.140281 0.915556
O O10 0.000000 0.114204 0.750000
O O11 0.793043 0.235944 0.146529
O O12 0.000000 0.328760 0.250000
O O13 0.919925 0.288168 0.052008
O O14 0.983620 0.695802 0.407198
O O15 0.297924 0.126196 0.091914
O O16 0.750000 0.250000 0.500000
#
# Coordination Sequence:
#
# PCOD9277206 Si02
#       7
#     8   8   8   8   8   8   8
#     4  10  20  40  69  95 130 174 223 275 317 399
#     4  10  22  42  68  98 132 176 222 272 327 395
#     4  10  21  40  68  99 129 173 219 265 333 400
#     4  11  24  44  67  96 127 177 230 271 329 396
#     4  11  26  43  65  97 134 174 216 281 333 392
#     4  10  22  40  65 100 133 174 222 265 337 399
#     4  12  26  44  64  99 136 178 220 280 348 402
#
# _framework density 21.818452000000001
#
# number of rings (size 3 to 8) (size 9 to 14) (size 15 to 20)
#    0.000    1.429    1.429    3.000    4.000    5.714 
#    5.143    0.000    0.000    0.000    0.000    0.000 
#    0.000    0.000    0.000    0.000    0.000    0.000 
#
# Total GULP energy -156557.206635 kJ/mol
# GULP energy per Si atom -5591.328808 kJ/mol
# Density = 2.176879 g / cm^3
# Si number density = 21.818452 Si / 1000 Ang^3
#
#
#
# Elastic Constant Matrix: (Units=GPa)
#
#
# Indices 1 2 3 4 5 6 
#
# 1 88.7743 36.2691 -3.8446 0.0000 -14.4602 0.0000
# 2 36.2691 78.0318 11.6625 0.0000 -10.1361 0.0000
# 3 -3.8446 11.6625 60.2852 0.0000 -11.2890 0.0000
# 4 0.0000 0.0000 0.0000 11.0205 0.0000 -8.7665
# 5 -14.4602 -10.1361 -11.2890 0.0000 23.0202 0.0000
# 6 0.0000 0.0000 0.0000 -8.7665 0.0000 34.2621
#
#
#
# Elastic Compliance Matrix: (Units=1/GPa)
#
#
# Indices 1 2 3 4 5 6 
#
# 1 0.015602 -0.006700 0.003935 0.000000 0.008781 0.000000
# 2 -0.006700 0.016622 -0.003370 0.000000 0.001458 0.000000
# 3 0.003935 -0.003370 0.019463 0.000000 0.010533 0.000000
# 4 0.000000 0.000000 0.000000 0.113928 0.000000 0.029150
# 5 0.008781 0.001458 0.010533 0.000000 0.054763 0.000000
# 6 0.000000 0.000000 0.000000 0.029150 0.000000 0.036645
#
#
# Mechanical properties :
#
#
# Convention : Reuss Voigt Hill
#
# Bulk Modulus (GPa) = 25.36816 35.02948 30.19882
# Shear Modulus (GPa) = 17.70337 25.86086 21.78211
#
# Velocity S-wave (km/s) = 2.85159 3.44652 3.16307
# Velocity P-wave (km/s) = 4.74281 5.65047 5.21642
#
# Compressibility (1/GPa) = 0.03941950
#
# Stress axis : x y z
#
# Youngs Moduli (GPa) = 64.09305 60.16022 51.37938
#
# Poissons Ratio (x) = 0.40305 -0.20219
# Poissons Ratio (y) = 0.42939 0.17314
# Poissons Ratio (z) = -0.25223 0.20273
#
# Static dielectric constant tensor:
#      x y z
#    x 1.812860 0.000000 -0.012700 
#    y 0.000000 1.782260 0.000000 
#    z -0.012700 0.000000 1.817480 
# 
# From -- ./inp_files/146142.got.cif
#   From: 2010.05.17/outbox.cif.g08.bks.cpg/sg15_74_cif.got.tgz:146142.got - 2010.06.03 18:47:42.
