data_PCOD9277783
_publ_section_title
;
Structure prediction by ZEFSAII (Michael W. Deem and Ramdas Pophale) SiO2 
 PCOD9277783
Probable space group: C 2/C
;
_chemical_formula_sum "Si O2"
_cell_formula_units_Z 60
_cell_length_a 5.857980
_cell_length_b 28.644719
_cell_length_c 17.344516
_cell_angle_alpha 90.000000
_cell_angle_beta 97.427885
_cell_angle_gamma 90.000000
_cell_volume 2885.989965
_symmetry_space_group_name_H-M "C 2/C"
_symmetry_group_IT_number 15
_symmetry_cell_setting 'monoclinic'
loop_
_space_group_symop_operation_xyz
x,y,z
-x,y,1/2-z
-x,-y,-z
x,-y,1/2+z
1/2+x,1/2+y,z
1/2-x,1/2+y,1/2-z
1/2-x,1/2-y,-z
1/2+x,1/2-y,1/2+z
loop_
_atom_site_type_symbol
_atom_site_label
_atom_site_fract_x
_atom_site_fract_y
_atom_site_fract_z
Si Si1 0.840071 0.601943 0.674075
Si Si2 0.650733 0.881127 0.049768
Si Si3 0.235651 0.332770 0.713316
Si Si4 0.023910 0.050109 0.540772
Si Si5 0.949815 0.802174 0.980179
Si Si6 0.500000 0.326722 0.250000
Si Si7 0.734483 0.617249 0.430496
Si Si8 0.058942 0.747197 0.374163
O O1 0.716319 0.562959 0.614292
O O2 0.666212 0.638652 0.707896
O O3 0.000000 0.583029 0.750000
O O4 0.999663 0.628881 0.618697
O O5 0.799826 0.927402 0.070538
O O6 0.799490 0.838014 0.026053
O O7 0.485847 0.893110 0.971741
O O8 0.500000 0.322687 0.750000
O O9 0.272740 0.377320 0.659822
O O10 0.000000 0.345041 0.750000
O O11 0.136433 0.285689 0.669679
O O12 0.071471 0.082298 0.468118
O O13 0.000000 0.000000 0.500000
O O14 0.789977 0.782065 0.904883
O O15 0.158920 0.832003 0.957967
O O16 0.019919 0.763860 0.044954
O O17 0.602070 0.290328 0.317794
#
# Coordination Sequence:
#
# PCOD9277783 Si02
#       8
#     8   8   8   8   8   4   8   8
#     4  11  23  41  67  98 142 182 218 288 361 434
#     4  10  20  41  69  95 130 180 228 281 361 418
#     4  12  26  45  65  94 138 191 237 292 354 413
#     4  10  23  44  77 104 130 171 229 293 358 447
#     4  10  21  41  60  93 135 178 243 292 343 403
#     4  12  24  42  58 102 142 188 232 278 364 396
#     4  10  22  41  68  92 130 183 223 289 353 422
#     4  11  22  39  60  94 134 187 242 295 328 417
#
# _framework density 20.790092000000001
#
# number of rings (size 3 to 8) (size 9 to 14) (size 15 to 20)
#    0.000    1.333    2.000    4.800    1.867    3.200 
#    9.600    0.000    7.333    0.000    0.000    0.000 
#    0.000    0.000    0.000    0.000    0.000    0.000 
#
# Total GULP energy -167121.272348 kJ/mol
# GULP energy per Si atom -5570.709078 kJ/mol
# Density = 2.074277 g / cm^3
# Si number density = 20.790092 Si / 1000 Ang^3
#
#
#
# Elastic Constant Matrix: (Units=GPa)
#
#
# Indices 1 2 3 4 5 6 
#
# 1 79.5379 29.6525 63.2826 0.0000 -2.8001 0.0000
# 2 29.6525 91.7093 52.3384 0.0000 1.4682 0.0000
# 3 63.2826 52.3384 113.8753 0.0000 12.6442 0.0000
# 4 0.0000 0.0000 0.0000 23.9201 0.0000 3.7244
# 5 -2.8001 1.4682 12.6442 0.0000 42.3992 0.0000
# 6 0.0000 0.0000 0.0000 3.7244 0.0000 9.2362
#
#
#
# Elastic Compliance Matrix: (Units=1/GPa)
#
#
# Indices 1 2 3 4 5 6 
#
# 1 0.023803 0.000168 -0.013940 0.000000 0.005723 0.000000
# 2 0.000168 0.014884 -0.007113 0.000000 0.001617 0.000000
# 3 -0.013940 -0.007113 0.020553 0.000000 -0.006804 0.000000
# 4 0.000000 0.000000 0.000000 0.044607 0.000000 -0.017987
# 5 0.005723 0.001617 -0.006804 0.000000 0.025936 0.000000
# 6 0.000000 0.000000 0.000000 -0.017987 0.000000 0.115523
#
#
# Mechanical properties :
#
#
# Convention : Reuss Voigt Hill
#
# Bulk Modulus (GPa) = 57.24812 63.96326 60.60569
# Shear Modulus (GPa) = 17.07069 24.43436 20.75253
#
# Velocity S-wave (km/s) = 2.86859 3.43197 3.16285
# Velocity P-wave (km/s) = 6.21029 6.82184 6.52324
#
# Compressibility (1/GPa) = 0.01746782
#
# Stress axis : x y z
#
# Youngs Moduli (GPa) = 42.01174 67.18848 48.65389
#
# Poissons Ratio (x) = -0.01128 0.67825
# Poissons Ratio (y) = -0.00705 0.34610
# Poissons Ratio (z) = 0.58566 0.47794
#
# Static dielectric constant tensor:
#      x y z
#    x 1.817880 0.000000 0.007460 
#    y 0.000000 1.744550 0.000000 
#    z 0.007460 0.000000 1.818170 
# 
# From -- ./inp_files/186573.got.cif
#   From: 2010.05.17/outbox.cif.g08.bks.cpg/sg15_94_cif.got.tgz:186573.got - 2010.06.03 18:47:42.
