data_PCOD9277089
_publ_section_title
;
Structure prediction by ZEFSAII (Michael W. Deem and Ramdas Pophale) SiO2 
 PCOD9277089
Probable space group: C 2/C
;
_chemical_formula_sum "Si O2"
_cell_formula_units_Z 60
_cell_length_a 11.375401
_cell_length_b 10.949256
_cell_length_c 19.529042
_cell_angle_alpha 90.000000
_cell_angle_beta 85.297636
_cell_angle_gamma 90.000000
_cell_volume 2424.197314
_symmetry_space_group_name_H-M "C 2/C"
_symmetry_group_IT_number 15
_symmetry_cell_setting 'monoclinic'
loop_
_space_group_symop_operation_xyz
x,y,z
-x,y,1/2-z
-x,-y,-z
x,-y,1/2+z
1/2+x,1/2+y,z
1/2-x,1/2+y,1/2-z
1/2-x,1/2-y,-z
1/2+x,1/2-y,1/2+z
loop_
_atom_site_type_symbol
_atom_site_label
_atom_site_fract_x
_atom_site_fract_y
_atom_site_fract_z
Si Si1 0.082268 0.904783 0.804240
Si Si2 0.796983 0.769840 0.075461
Si Si3 0.714472 0.748816 0.407502
Si Si4 0.170786 0.496572 0.557455
Si Si5 0.000000 0.299947 0.750000
Si Si6 0.968124 0.133355 0.882990
Si Si7 0.087127 0.539009 0.918779
Si Si8 0.716778 0.928737 0.800517
O O1 0.162485 0.807779 0.839901
O O2 0.173872 0.973571 0.749312
O O3 0.000000 0.844398 0.750000
O O4 0.009272 0.995301 0.858741
O O5 0.731396 0.896996 0.096781
O O6 0.935059 0.809318 0.069910
O O7 0.767059 0.673068 0.138358
O O8 0.750000 0.750000 0.000000
O O9 0.754119 0.625306 0.443153
O O10 0.600762 0.821690 0.441825
O O11 0.831427 0.836115 0.406588
O O12 0.144291 0.531999 0.479544
O O13 0.038288 0.482182 0.590855
O O14 0.012501 0.213795 0.684914
O O15 0.883242 0.378369 0.744731
O O16 0.160538 0.536991 0.846426
#
# Coordination Sequence:
#
# PCOD9277089 Si02
#       8
#     8   8   8   8   4   8   8   8
#     4  12  26  45  69 109 148 184 247 302 364 443
#     4  11  23  44  76 111 146 198 252 301 371 438
#     4  12  26  50  73 108 145 193 245 299 371 438
#     4  11  24  49  73 104 148 189 241 307 361 434
#     4  10  20  40  68 102 140 190 236 286 366 424
#     4  11  23  44  75 103 149 198 233 306 370 432
#     4  11  26  44  73 105 145 190 242 303 363 431
#     4  11  24  43  72 107 145 189 244 299 363 442
#
# _framework density 24.750461000000001
#
# number of rings (size 3 to 8) (size 9 to 14) (size 15 to 20)
#    0.000    0.800    4.667    2.800    3.733    0.000 
#    1.200    0.667    0.000    0.000    0.000    0.000 
#    0.000    0.000    0.000    0.000    0.000    0.000 
#
# Total GULP energy -167368.031622 kJ/mol
# GULP energy per Si atom -5578.934387 kJ/mol
# Density = 2.469413 g / cm^3
# Si number density = 24.750461 Si / 1000 Ang^3
#
#
#
# Elastic Constant Matrix: (Units=GPa)
#
#
# Indices 1 2 3 4 5 6 
#
# 1 98.9733 37.5602 46.1853 0.0000 28.1665 0.0000
# 2 37.5602 98.2476 13.6394 0.0000 7.4980 0.0000
# 3 46.1853 13.6394 85.8714 0.0000 19.9118 0.0000
# 4 0.0000 0.0000 0.0000 22.6625 0.0000 1.9484
# 5 28.1665 7.4980 19.9118 0.0000 45.3780 0.0000
# 6 0.0000 0.0000 0.0000 1.9484 0.0000 41.9389
#
#
#
# Elastic Compliance Matrix: (Units=1/GPa)
#
#
# Indices 1 2 3 4 5 6 
#
# 1 0.017170 -0.005094 -0.006846 0.000000 -0.006812 0.000000
# 2 -0.005094 0.011969 0.000628 0.000000 0.000909 0.000000
# 3 -0.006846 0.000628 0.015882 0.000000 -0.002823 0.000000
# 4 0.000000 0.000000 0.000000 0.044303 0.000000 -0.002058
# 5 -0.006812 0.000909 -0.002823 0.000000 0.027354 0.000000
# 6 0.000000 0.000000 0.000000 -0.002058 0.000000 0.023940
#
#
# Mechanical properties :
#
#
# Convention : Reuss Voigt Hill
#
# Bulk Modulus (GPa) = 44.64791 53.09580 48.87185
# Shear Modulus (GPa) = 29.28964 34.37636 31.83300
#
# Velocity S-wave (km/s) = 3.44379 3.73086 3.59019
# Velocity P-wave (km/s) = 5.82162 6.32915 6.08068
#
# Compressibility (1/GPa) = 0.02239747
#
# Stress axis : x y z
#
# Youngs Moduli (GPa) = 58.24052 83.54732 62.96247
#
# Poissons Ratio (x) = 0.42558 0.43106
# Poissons Ratio (y) = 0.29667 -0.03953
# Poissons Ratio (z) = 0.39873 -0.05246
#
# Static dielectric constant tensor:
#      x y z
#    x 2.035630 0.000000 -0.006010 
#    y 0.000000 2.042980 0.000000 
#    z -0.006010 0.000000 2.018860 
# 
# From -- ./inp_files/237599.got.cif
#   From: 2010.05.17/outbox.cif.g08.bks.cpg/sg15_119_cif.got.tgz:237599.got - 2010.06.03 18:47:42.
