data_PCOD9277303
_publ_section_title
;
Structure prediction by ZEFSAII (Michael W. Deem and Ramdas Pophale) SiO2 
 PCOD9277303
Probable space group: C 2/C
;
_chemical_formula_sum "Si O2"
_cell_formula_units_Z 60
_cell_length_a 13.440301
_cell_length_b 17.768951
_cell_length_c 18.774531
_cell_angle_alpha 90.000000
_cell_angle_beta 33.032397
_cell_angle_gamma 90.000000
_cell_volume 2444.142649
_symmetry_space_group_name_H-M "C 2/C"
_symmetry_group_IT_number 15
_symmetry_cell_setting 'monoclinic'
loop_
_space_group_symop_operation_xyz
x,y,z
-x,y,1/2-z
-x,-y,-z
x,-y,1/2+z
1/2+x,1/2+y,z
1/2-x,1/2+y,1/2-z
1/2-x,1/2-y,-z
1/2+x,1/2-y,1/2+z
loop_
_atom_site_type_symbol
_atom_site_label
_atom_site_fract_x
_atom_site_fract_y
_atom_site_fract_z
Si Si1 0.952243 0.928385 0.479916
Si Si2 0.224141 0.540035 0.987881
Si Si3 0.033639 0.681440 0.037922
Si Si4 0.343124 0.119865 0.019682
Si Si5 0.178413 0.641539 0.723187
Si Si6 0.500000 0.981232 0.250000
Si Si7 0.522408 0.299974 0.659380
Si Si8 0.280392 0.689860 0.166977
O O1 0.901562 0.950518 0.430404
O O2 0.783734 0.885533 0.618219
O O3 0.064910 0.177624 0.363829
O O4 0.150147 0.256704 0.425571
O O5 0.234267 0.463923 0.936569
O O6 0.065669 0.524929 0.141838
O O7 0.165520 0.613104 0.980122
O O8 0.887087 0.866560 0.118290
O O9 0.912988 0.705233 0.179008
O O10 0.877726 0.652237 0.076771
O O11 0.548297 0.114749 0.864892
O O12 0.238926 0.178201 0.029003
O O13 0.156638 0.579538 0.674760
O O14 0.095563 0.723115 0.755762
O O15 0.500000 0.341654 0.750000
O O16 0.500000 0.500000 0.000000
#
# Coordination Sequence:
#
# PCOD9277303 Si02
#       8
#     8   8   8   8   8   4   8   8
#     4  12  26  49  76 114 158 212 276 327 395 486
#     4  11  25  49  75 113 156 217 259 323 399 483
#     4  12  27  51  78 114 158 207 269 334 402 483
#     4  11  25  45  76 113 157 195 257 334 406 471
#     4  11  23  38  75 112 151 197 257 328 397 466
#     4  10  20  40  72 110 146 208 262 314 398 468
#     4  12  23  43  74 116 151 193 253 332 408 470
#     4  12  28  46  78 114 159 207 265 333 403 478
#
# _framework density 24.548484999999999
#
# number of rings (size 3 to 8) (size 9 to 14) (size 15 to 20)
#    0.000    0.533    4.667    3.200    3.733    0.533 
#    0.000    2.000    0.000    0.000    0.000    0.000 
#    0.000    0.000    0.000    0.000    0.000    0.000 
#
# Total GULP energy -167532.309529 kJ/mol
# GULP energy per Si atom -5584.410318 kJ/mol
# Density = 2.449261 g / cm^3
# Si number density = 24.548485 Si / 1000 Ang^3
#
#
#
# Elastic Constant Matrix: (Units=GPa)
#
#
# Indices 1 2 3 4 5 6 
#
# 1 44.3051 45.6741 8.4471 -0.0055 -4.8853 -0.0022
# 2 45.6741 148.7155 51.5399 -0.0071 8.7711 -0.0014
# 3 8.4471 51.5399 104.1577 -0.0104 -0.1062 -0.0009
# 4 -0.0055 -0.0071 -0.0104 33.0473 0.0013 2.8488
# 5 -4.8853 8.7711 -0.1062 0.0013 37.1550 0.0031
# 6 -0.0022 -0.0014 -0.0009 2.8488 0.0031 38.7163
#
#
#
# Elastic Compliance Matrix: (Units=1/GPa)
#
#
# Indices 1 2 3 4 5 6 
#
# 1 0.035766 -0.012595 0.003340 0.000004 0.007686 0.000001
# 2 -0.012595 0.012692 -0.005264 -0.000001 -0.004667 0.000000
# 3 0.003340 -0.005264 0.011936 0.000003 0.001716 0.000000
# 4 0.000004 -0.000001 0.000003 0.030453 0.000000 -0.002241
# 5 0.007686 -0.004667 0.001716 0.000000 0.029032 -0.000002
# 6 0.000001 0.000000 0.000000 -0.002241 -0.000002 0.025994
#
#
# Mechanical properties :
#
#
# Convention : Reuss Voigt Hill
#
# Bulk Modulus (GPa) = 31.89195 56.50003 44.19599
# Shear Modulus (GPa) = 26.97413 34.55154 30.76283
#
# Velocity S-wave (km/s) = 3.31843 3.75571 3.54382
# Velocity P-wave (km/s) = 5.26329 6.47092 5.89809
#
# Compressibility (1/GPa) = 0.03135587
#
# Stress axis : x y z
#
# Youngs Moduli (GPa) = 27.95955 78.78951 83.77797
#
# Poissons Ratio (x) = 0.99238 -0.27980
# Poissons Ratio (y) = 0.35216 0.44098
# Poissons Ratio (z) = -0.09338 0.41472
#
# Static dielectric constant tensor:
#      x y z
#    x 2.009220 0.000000 -0.096610 
#    y 0.000000 1.970340 0.000010 
#    z -0.096610 0.000010 2.219470 
# 
# From -- ./inp_files/244898.got.cif
#   From: 2010.05.17/outbox.cif.g08.bks.cpg/sg15_123_cif.got.tgz:244898.got - 2010.06.03 18:47:42.
