data_PCOD9277769
_publ_section_title
;
Structure prediction by ZEFSAII (Michael W. Deem and Ramdas Pophale) SiO2 
 PCOD9277769
Probable space group: C 2/C
;
_chemical_formula_sum "Si O2"
_cell_formula_units_Z 56
_cell_length_a 13.980987
_cell_length_b 15.438905
_cell_length_c 12.536852
_cell_angle_alpha 90.000000
_cell_angle_beta 94.019929
_cell_angle_gamma 90.000000
_cell_volume 2699.435942
_symmetry_space_group_name_H-M "C 2/C"
_symmetry_group_IT_number 15
_symmetry_cell_setting 'monoclinic'
loop_
_space_group_symop_operation_xyz
x,y,z
-x,y,1/2-z
-x,-y,-z
x,-y,1/2+z
1/2+x,1/2+y,z
1/2-x,1/2+y,1/2-z
1/2-x,1/2-y,-z
1/2+x,1/2-y,1/2+z
loop_
_atom_site_type_symbol
_atom_site_label
_atom_site_fract_x
_atom_site_fract_y
_atom_site_fract_z
Si Si1 0.271156 0.262975 0.753402
Si Si2 0.391129 0.617282 0.099146
Si Si3 0.465085 0.759450 0.369826
Si Si4 0.817351 0.422518 0.634711
Si Si5 0.319180 0.411081 0.357793
Si Si6 0.500000 0.477211 0.250000
Si Si7 0.566721 0.924379 0.049148
Si Si8 0.500000 0.998605 0.250000
O O1 0.324400 0.320616 0.666583
O O2 0.351711 0.239960 0.847150
O O3 0.206374 0.332097 0.811098
O O4 0.228023 0.175701 0.697529
O O5 0.488172 0.671807 0.086210
O O6 0.431551 0.536503 0.169371
O O7 0.336554 0.598358 0.985873
O O8 0.500000 0.771726 0.250000
O O9 0.490416 0.834159 0.455030
O O10 0.745168 0.501045 0.659454
O O11 0.834676 0.419893 0.508035
O O12 0.923660 0.445210 0.682011
O O13 0.423606 0.424527 0.313559
O O14 0.566812 0.943667 0.175323
O O15 0.500000 0.000000 0.000000
#
# Coordination Sequence:
#
# PCOD9277769 Si02
#       8
#     8   8   8   8   8   4   8   4
#     4  11  24  44  68 102 141 185 237 296 353 423
#     4  11  23  45  72  99 138 195 242 281 355 441
#     4  10  20  41  69  88 137 185 228 282 354 416
#     4  11  25  43  66 104 142 181 235 296 358 417
#     4  12  27  42  75 106 141 186 243 298 354 423
#     4  12  24  50  72 104 148 192 232 299 359 428
#     4  10  22  36  64  96 127 176 229 279 349 415
#     4  10  22  42  64  90 140 182 218 287 359 418
#
# _framework density 20.745076000000001
#
# number of rings (size 3 to 8) (size 9 to 14) (size 15 to 20)
#    0.000    1.143    4.286    1.714    8.000    5.714 
#    0.000    0.000    0.000    0.000    0.000    0.000 
#    0.000    0.000    0.000    0.000    0.000    0.000 
#
# Total GULP energy -156019.292856 kJ/mol
# GULP energy per Si atom -5572.117602 kJ/mol
# Density = 2.069786 g / cm^3
# Si number density = 20.745076 Si / 1000 Ang^3
#
#
#
# Elastic Constant Matrix: (Units=GPa)
#
#
# Indices 1 2 3 4 5 6 
#
# 1 68.0548 25.0849 22.2920 0.0000 -11.4540 0.0000
# 2 25.0849 82.9345 30.3812 0.0000 -2.8068 0.0000
# 3 22.2920 30.3812 61.8133 0.0000 -7.6243 0.0000
# 4 0.0000 0.0000 0.0000 33.5945 0.0000 -7.5376
# 5 -11.4540 -2.8068 -7.6243 0.0000 35.7510 0.0000
# 6 0.0000 0.0000 0.0000 -7.5376 0.0000 37.2081
#
#
#
# Elastic Compliance Matrix: (Units=1/GPa)
#
#
# Indices 1 2 3 4 5 6 
#
# 1 0.018247 -0.003856 -0.004110 0.000000 0.004667 0.000000
# 2 -0.003856 0.015526 -0.006411 0.000000 -0.001384 0.000000
# 3 -0.004110 -0.006411 0.021143 0.000000 0.002689 0.000000
# 4 0.000000 0.000000 0.000000 0.031184 0.000000 0.006317
# 5 0.004667 -0.001384 0.002689 0.000000 0.029931 0.000000
# 6 0.000000 0.000000 0.000000 0.006317 0.000000 0.028156
#
#
# Mechanical properties :
#
#
# Convention : Reuss Voigt Hill
#
# Bulk Modulus (GPa) = 38.22307 40.92429 39.57368
# Shear Modulus (GPa) = 27.52401 30.31369 28.91885
#
# Velocity S-wave (km/s) = 3.64644 3.82677 3.73770
# Velocity P-wave (km/s) = 6.01613 6.26862 6.14368
#
# Compressibility (1/GPa) = 0.02616221
#
# Stress axis : x y z
#
# Youngs Moduli (GPa) = 54.80391 64.40974 47.29803
#
# Poissons Ratio (x) = 0.24834 0.19438
# Poissons Ratio (y) = 0.21130 0.30323
# Poissons Ratio (z) = 0.22523 0.41293
#
# Static dielectric constant tensor:
#      x y z
#    x 1.769050 0.000000 -0.033620 
#    y 0.000000 1.836580 0.000000 
#    z -0.033620 0.000000 1.820970 
# 
# From -- ./inp_files/97089.got.cif
#   From: 2010.05.17/outbox.cif.g08.bks.cpg/sg15_49_cif.got.tgz:97089.got - 2010.06.03 18:47:42.
