data_PCOD9277397
_publ_section_title
;
Structure prediction by ZEFSAII (Michael W. Deem and Ramdas Pophale) SiO2 
 PCOD9277397
Probable space group: C 2/C
;
_chemical_formula_sum "Si O2"
_cell_formula_units_Z 44
_cell_length_a 7.541060
_cell_length_b 18.716979
_cell_length_c 16.423688
_cell_angle_alpha 90.000000
_cell_angle_beta 51.006314
_cell_angle_gamma 90.000000
_cell_volume 1801.690470
_symmetry_space_group_name_H-M "C 2/C"
_symmetry_group_IT_number 15
_symmetry_cell_setting 'monoclinic'
loop_
_space_group_symop_operation_xyz
x,y,z
-x,y,1/2-z
-x,-y,-z
x,-y,1/2+z
1/2+x,1/2+y,z
1/2-x,1/2+y,1/2-z
1/2-x,1/2-y,-z
1/2+x,1/2-y,1/2+z
loop_
_atom_site_type_symbol
_atom_site_label
_atom_site_fract_x
_atom_site_fract_y
_atom_site_fract_z
Si Si1 0.663446 0.560426 0.491471
Si Si2 0.843374 0.594725 0.187087
Si Si3 0.090747 0.203588 0.954386
Si Si4 0.427309 0.845757 0.485330
Si Si5 0.272732 0.448799 0.339579
Si Si6 0.500000 0.709929 0.250000
O O1 0.500000 0.500000 0.500000
O O2 0.538298 0.635998 0.543790
O O3 0.730891 0.533583 0.562796
O O4 0.886161 0.581139 0.370583
O O5 0.733902 0.516689 0.217723
O O6 0.658420 0.656584 0.261668
O O7 0.871947 0.614322 0.083713
O O8 0.200216 0.174801 0.005378
O O9 0.304946 0.238116 0.843758
O O10 0.945439 0.273211 0.022958
O O11 0.563361 0.896828 0.386817
O O12 0.500000 0.407954 0.250000
#
# Coordination Sequence:
#
# PCOD9277397 Si02
#       6
#     8   8   8   8   8   4
#     4  11  23  41  68  92 125 165 215 260 311 373
#     4  10  20  41  62  86 125 170 203 247 316 378
#     4  10  21  39  62  90 126 159 207 257 309 367
#     4   9  20  38  62  84 121 170 202 237 315 381
#     4  11  22  37  64  92 125 163 209 254 311 369
#     4  10  22  36  62  90 128 160 204 260 310 366
#
# _framework density 24.421510000000001
#
# number of rings (size 3 to 8) (size 9 to 14) (size 15 to 20)
#    0.000    1.818    0.909    4.364    2.545    6.545 
#    0.000    0.000    0.000    0.000    0.000    0.000 
#    0.000    0.000    0.000    0.000    0.000    0.000 
#
# Total GULP energy -122556.636399 kJ/mol
# GULP energy per Si atom -5570.756200 kJ/mol
# Density = 2.436593 g / cm^3
# Si number density = 24.421510 Si / 1000 Ang^3
#
#
#
# Elastic Constant Matrix: (Units=GPa)
#
#
# Indices 1 2 3 4 5 6 
#
# 1 71.3469 37.0914 10.5523 0.0000 -19.8048 0.0000
# 2 37.0914 128.5968 31.8816 0.0000 -17.1022 0.0000
# 3 10.5523 31.8816 74.8779 0.0000 -40.2810 0.0000
# 4 0.0000 0.0000 0.0000 21.2563 0.0000 -1.9227
# 5 -19.8048 -17.1022 -40.2810 0.0000 34.8257 0.0000
# 6 0.0000 0.0000 0.0000 -1.9227 0.0000 25.2245
#
#
#
# Elastic Compliance Matrix: (Units=1/GPa)
#
#
# Indices 1 2 3 4 5 6 
#
# 1 0.022017 -0.006250 0.012290 0.000000 0.023666 0.000000
# 2 -0.006250 0.010468 -0.007208 0.000000 -0.006750 0.000000
# 3 0.012290 -0.007208 0.043803 0.000000 0.054114 0.000000
# 4 0.000000 0.000000 0.000000 0.047371 0.000000 0.003611
# 5 0.023666 -0.006750 0.054114 0.000000 0.101448 0.000000
# 6 0.000000 0.000000 0.000000 0.003611 0.000000 0.039919
#
#
# Mechanical properties :
#
#
# Convention : Reuss Voigt Hill
#
# Bulk Modulus (GPa) = 13.52225 48.20803 30.86514
# Shear Modulus (GPa) = 17.12254 29.28107 23.20181
#
# Velocity S-wave (km/s) = 2.65075 3.46640 3.08564
# Velocity P-wave (km/s) = 3.86234 5.98365 5.03596
#
# Compressibility (1/GPa) = 0.07395218
#
# Stress axis : x y z
#
# Youngs Moduli (GPa) = 45.41958 95.52831 22.82965
#
# Poissons Ratio (x) = 0.59704 -0.28057
# Poissons Ratio (y) = 0.28387 0.16455
# Poissons Ratio (z) = -0.55819 0.68854
#
# Static dielectric constant tensor:
#      x y z
#    x 2.095060 0.000000 -0.018920 
#    y 0.000000 2.044850 0.000000 
#    z -0.018920 0.000000 2.007980 
# 
# From -- ./inp_files/189686.got.cif
#   From: 2010.05.17/outbox.cif.g08.bks.cpg/sg15_95_cif.got.tgz:189686.got - 2010.06.03 18:47:42.
