data_PCOD9277112
_publ_section_title
;
Structure prediction by ZEFSAII (Michael W. Deem and Ramdas Pophale) SiO2 
 PCOD9277112
Probable space group: C 2/C
;
_chemical_formula_sum "Si O2"
_cell_formula_units_Z 36
_cell_length_a 12.769864
_cell_length_b 17.081031
_cell_length_c 8.296545
_cell_angle_alpha 90.000000
_cell_angle_beta 112.586900
_cell_angle_gamma 90.000000
_cell_volume 1670.858021
_symmetry_space_group_name_H-M "C 2/C"
_symmetry_group_IT_number 15
_symmetry_cell_setting 'monoclinic'
loop_
_space_group_symop_operation_xyz
x,y,z
-x,y,1/2-z
-x,-y,-z
x,-y,1/2+z
1/2+x,1/2+y,z
1/2-x,1/2+y,1/2-z
1/2-x,1/2-y,-z
1/2+x,1/2-y,1/2+z
loop_
_atom_site_type_symbol
_atom_site_label
_atom_site_fract_x
_atom_site_fract_y
_atom_site_fract_z
Si Si1 0.000000 0.674093 0.250000
Si Si2 0.716401 0.498429 0.601868
Si Si3 0.727689 0.246637 0.294582
Si Si4 0.335534 0.096307 0.903287
Si Si5 0.874876 0.885228 0.706549
O O1 0.094365 0.727490 0.216721
O O2 0.056588 0.622867 0.427468
O O3 0.827661 0.525507 0.770194
O O4 0.750723 0.434127 0.491496
O O5 0.627447 0.456972 0.667064
O O6 0.668641 0.572938 0.480302
O O7 0.750000 0.250000 0.500000
O O8 0.782496 0.329216 0.280587
O O9 0.792001 0.179746 0.232374
O O10 0.000000 0.853369 0.750000
#
# Coordination Sequence:
#
# PCOD9277112 Si02
#       5
#     4   8   8   8   8
#     4  10  20  40  68  90 130 178 220 262 330 388
#     4  10  22  41  63  99 136 167 219 276 327 392
#     4  10  21  42  65  92 125 175 222 265 325 389
#     4  10  22  42  65  94 130 173 221 268 329 388
#     4  11  22  41  67  98 135 174 219 273 330 391
#
# _framework density 21.545815999999999
#
# number of rings (size 3 to 8) (size 9 to 14) (size 15 to 20)
#    0.000    1.778    4.444    0.667    0.000    5.333 
#    8.000    0.000    0.000    0.000    0.000    0.000 
#    0.000    0.000    0.000    0.000    0.000    0.000 
#
# Total GULP energy -100250.876060 kJ/mol
# GULP energy per Si atom -5569.493114 kJ/mol
# Density = 2.149678 g / cm^3
# Si number density = 21.545816 Si / 1000 Ang^3
#
#
#
# Elastic Constant Matrix: (Units=GPa)
#
#
# Indices 1 2 3 4 5 6 
#
# 1 113.2102 38.4595 23.1170 0.0000 13.1085 0.0000
# 2 38.4595 84.8517 19.1841 0.0000 -4.6783 0.0000
# 3 23.1170 19.1841 50.6608 0.0000 -5.1338 0.0000
# 4 0.0000 0.0000 0.0000 47.4230 0.0000 9.9021
# 5 13.1085 -4.6783 -5.1338 0.0000 20.1527 0.0000
# 6 0.0000 0.0000 0.0000 9.9021 0.0000 17.5274
#
#
#
# Elastic Compliance Matrix: (Units=1/GPa)
#
#
# Indices 1 2 3 4 5 6 
#
# 1 0.012927 -0.005334 -0.004985 0.000000 -0.010917 0.000000
# 2 -0.005334 0.015153 -0.002665 0.000000 0.006309 0.000000
# 3 -0.004985 -0.002665 0.023906 0.000000 0.008714 0.000000
# 4 0.000000 0.000000 0.000000 0.023907 0.000000 -0.013506
# 5 -0.010917 0.006309 0.008714 0.000000 0.060407 0.000000
# 6 0.000000 0.000000 0.000000 -0.013506 0.000000 0.064684
#
#
# Mechanical properties :
#
#
# Convention : Reuss Voigt Hill
#
# Bulk Modulus (GPa) = 38.43466 45.58265 42.00865
# Shear Modulus (GPa) = 21.22014 28.21809 24.71912
#
# Velocity S-wave (km/s) = 3.14169 3.62287 3.39083
# Velocity P-wave (km/s) = 5.57114 6.22112 5.90508
#
# Compressibility (1/GPa) = 0.02601819
#
# Stress axis : x y z
#
# Youngs Moduli (GPa) = 77.35609 65.99205 41.83034
#
# Poissons Ratio (x) = 0.35201 0.20853
# Poissons Ratio (y) = 0.41263 0.11147
# Poissons Ratio (z) = 0.38563 0.17586
#
# Static dielectric constant tensor:
#      x y z
#    x 1.766980 0.000000 0.030020 
#    y 0.000000 1.896640 0.000000 
#    z 0.030020 0.000000 1.824130 
# 
# From -- ./inp_files/28819.got.cif
#   From: 2010.05.17/outbox.cif.g08.bks.cpg/sg15_15_cif.got.tgz:28819.got - 2010.06.03 18:47:42.
