data_PCOD9277603
_publ_section_title
;
Structure prediction by ZEFSAII (Michael W. Deem and Ramdas Pophale) SiO2 
 PCOD9277603
Probable space group: C 2/C
;
_chemical_formula_sum "Si O2"
_cell_formula_units_Z 48
_cell_length_a 9.447467
_cell_length_b 18.298310
_cell_length_c 13.870223
_cell_angle_alpha 90.000000
_cell_angle_beta 99.758720
_cell_angle_gamma 90.000000
_cell_volume 2363.087363
_symmetry_space_group_name_H-M "C 2/C"
_symmetry_group_IT_number 15
_symmetry_cell_setting 'monoclinic'
loop_
_space_group_symop_operation_xyz
x,y,z
-x,y,1/2-z
-x,-y,-z
x,-y,1/2+z
1/2+x,1/2+y,z
1/2-x,1/2+y,1/2-z
1/2-x,1/2-y,-z
1/2+x,1/2-y,1/2+z
loop_
_atom_site_type_symbol
_atom_site_label
_atom_site_fract_x
_atom_site_fract_y
_atom_site_fract_z
Si Si1 0.786599 0.067697 0.736964
Si Si2 0.000000 0.198243 0.750000
Si Si3 0.871157 0.406545 0.474021
Si Si4 0.534294 0.227602 0.053663
Si Si5 0.500000 0.437487 0.750000
Si Si6 0.163213 0.855592 0.939936
Si Si7 0.336559 0.962823 0.088198
O O1 0.871614 0.142722 0.761084
O O2 0.741792 0.071635 0.620795
O O3 0.662869 0.061106 0.801408
O O4 0.879608 0.995589 0.770065
O O5 0.015560 0.246029 0.847296
O O6 0.831709 0.451063 0.565561
O O7 0.907222 0.322595 0.496567
O O8 0.019999 0.435879 0.447066
O O9 0.685069 0.181320 0.076989
O O10 0.573916 0.294821 0.988275
O O11 0.571790 0.388684 0.841592
O O12 0.208297 0.920269 0.018763
#
# Coordination Sequence:
#
# PCOD9277603 Si02
#       7
#     8   4   8   8   4   8   8
#     4  11  23  39  64  94 130 165 213 265 324 380
#     4  11  24  40  62  94 131 170 204 266 329 386
#     4  10  22  40  65  95 123 168 219 261 318 379
#     4  10  23  42  64  92 131 169 210 267 322 389
#     4  11  24  38  66  96 121 172 216 258 323 394
#     4  10  21  43  63  90 128 171 212 258 327 388
#     4  10  20  41  66  89 126 167 213 268 312 381
#
# _framework density 20.31241
#
# number of rings (size 3 to 8) (size 9 to 14) (size 15 to 20)
#    0.000    1.667    3.333    0.500    0.000    5.333 
#    0.000    0.000    0.000    0.000    0.000    0.000 
#    0.000    0.000    0.000    0.000    0.000    0.000 
#
# Total GULP energy -133863.155401 kJ/mol
# GULP energy per Si atom -5577.631475 kJ/mol
# Density = 2.026618 g / cm^3
# Si number density = 20.312410 Si / 1000 Ang^3
#
#
#
# Elastic Constant Matrix: (Units=GPa)
#
#
# Indices 1 2 3 4 5 6 
#
# 1 36.2481 22.1278 14.0211 0.0000 -4.0841 0.0000
# 2 22.1278 77.4649 3.3903 0.0000 -6.1039 0.0000
# 3 14.0211 3.3903 44.9101 0.0000 -12.5055 0.0000
# 4 0.0000 0.0000 0.0000 205.3546 0.0000 -67.1973
# 5 -4.0841 -6.1039 -12.5055 0.0000 37.8372 0.0000
# 6 0.0000 0.0000 0.0000 -67.1973 0.0000 54.8159
#
#
#
# Elastic Compliance Matrix: (Units=1/GPa)
#
#
# Indices 1 2 3 4 5 6 
#
# 1 0.038348 -0.010557 -0.011561 0.000000 -0.001385 0.000000
# 2 -0.010557 0.015990 0.002742 0.000000 0.002346 0.000000
# 3 -0.011561 0.002742 0.028024 0.000000 0.008457 0.000000
# 4 0.000000 0.000000 0.000000 0.008131 0.000000 0.009968
# 5 -0.001385 0.002346 0.008457 0.000000 0.029453 0.000000
# 6 0.000000 0.000000 0.000000 0.009968 0.000000 0.030463
#
#
# Mechanical properties :
#
#
# Convention : Reuss Voigt Hill
#
# Bulk Modulus (GPa) = 22.93078 26.41130 24.67104
# Shear Modulus (GPa) = 24.54618 67.54046 46.04332
#
# Velocity S-wave (km/s) = 3.48002 5.77261 4.76621
# Velocity P-wave (km/s) = 5.24032 7.58033 6.51623
#
# Compressibility (1/GPa) = 0.04360951
#
# Stress axis : x y z
#
# Youngs Moduli (GPa) = 26.07678 62.54058 35.68383
#
# Poissons Ratio (x) = 0.66026 0.41254
# Poissons Ratio (y) = 0.27530 -0.09786
# Poissons Ratio (z) = 0.30148 -0.17150
#
# Static dielectric constant tensor:
#      x y z
#    x 1.773780 0.000000 -0.061010 
#    y 0.000000 1.730720 0.000000 
#    z -0.061010 0.000000 2.138340 
# 
# From -- ./inp_files/87504.got.cif
#   From: 2010.05.17/outbox.cif.g08.bks.cpg/sg15_44_cif.got.tgz:87504.got - 2010.06.03 18:47:42.
