data_PCOD9277786
_publ_section_title
;
Structure prediction by ZEFSAII (Michael W. Deem and Ramdas Pophale) SiO2 
 PCOD9277786
Probable space group: C 2/C
;
_chemical_formula_sum "Si O2"
_cell_formula_units_Z 44
_cell_length_a 12.823957
_cell_length_b 15.080338
_cell_length_c 12.105236
_cell_angle_alpha 90.000000
_cell_angle_beta 60.626854
_cell_angle_gamma 90.000000
_cell_volume 2040.073303
_symmetry_space_group_name_H-M "C 2/C"
_symmetry_group_IT_number 15
_symmetry_cell_setting 'monoclinic'
loop_
_space_group_symop_operation_xyz
x,y,z
-x,y,1/2-z
-x,-y,-z
x,-y,1/2+z
1/2+x,1/2+y,z
1/2-x,1/2+y,1/2-z
1/2-x,1/2-y,-z
1/2+x,1/2-y,1/2+z
loop_
_atom_site_type_symbol
_atom_site_label
_atom_site_fract_x
_atom_site_fract_y
_atom_site_fract_z
Si Si1 0.840090 0.347185 0.638840
Si Si2 0.072463 0.110294 0.322825
Si Si3 0.000000 0.597535 0.250000
Si Si4 0.697026 0.012215 0.517405
Si Si5 0.648460 0.341784 0.432596
Si Si6 0.625027 0.411475 0.221175
O O1 0.704967 0.350770 0.756100
O O2 0.936572 0.346378 0.686319
O O3 0.858338 0.437508 0.559636
O O4 0.845697 0.263309 0.554277
O O5 0.000000 0.140788 0.250000
O O6 0.988011 0.131140 0.469189
O O7 0.090222 0.005231 0.297362
O O8 0.101279 0.534507 0.144234
O O9 0.771898 0.090033 0.538859
O O10 0.789193 0.938938 0.422902
O O11 0.683559 0.354761 0.286745
O O12 0.500000 0.369983 0.250000
#
# Coordination Sequence:
#
# PCOD9277786 Si02
#       6
#     8   8   4   8   8   8
#     4  11  26  43  64 104 137 172 224 279 347 394
#     4  10  20  41  69  96 126 170 233 278 318 398
#     4  12  28  46  68  94 150 186 210 272 348 424
#     4  11  23  45  69  94 129 184 232 259 328 416
#     4  12  23  40  70 100 134 172 223 295 330 379
#     4  10  21  37  65  97 126 165 228 269 331 392
#
# _framework density 21.567851999999998
#
# number of rings (size 3 to 8) (size 9 to 14) (size 15 to 20)
#    0.000    1.091    5.455    3.818    3.818    2.909 
#    0.000    1.818    0.000    0.000    0.000    0.000 
#    0.000    0.000    0.000    0.000    0.000    0.000 
#
# Total GULP energy -122922.575676 kJ/mol
# GULP energy per Si atom -5587.389803 kJ/mol
# Density = 2.151876 g / cm^3
# Si number density = 21.567852 Si / 1000 Ang^3
#
#
#
# Elastic Constant Matrix: (Units=GPa)
#
#
# Indices 1 2 3 4 5 6 
#
# 1 33.1660 -4.9342 12.0260 0.0000 6.5963 0.0000
# 2 -4.9342 35.3518 25.4806 0.0000 -15.1575 0.0000
# 3 12.0260 25.4806 103.9611 0.0000 -20.9254 0.0000
# 4 0.0000 0.0000 0.0000 19.9325 0.0000 14.3964
# 5 6.5963 -15.1575 -20.9254 0.0000 37.5748 0.0000
# 6 0.0000 0.0000 0.0000 14.3964 0.0000 17.9147
#
#
#
# Elastic Compliance Matrix: (Units=1/GPa)
#
#
# Indices 1 2 3 4 5 6 
#
# 1 0.035320 0.007000 -0.007299 0.000000 -0.007442 0.000000
# 2 0.007000 0.039713 -0.008521 0.000000 0.010046 0.000000
# 3 -0.007299 -0.008521 0.013648 0.000000 0.005444 0.000000
# 4 0.000000 0.000000 0.000000 0.119568 0.000000 -0.096086
# 5 -0.007442 0.010046 0.005444 0.000000 0.035004 0.000000
# 6 0.000000 0.000000 0.000000 -0.096086 0.000000 0.133036
#
#
# Mechanical properties :
#
#
# Convention : Reuss Voigt Hill
#
# Bulk Modulus (GPa) = 14.07667 26.40265 20.23966
# Shear Modulus (GPa) = 11.97291 24.41149 18.19220
#
# Velocity S-wave (km/s) = 2.35867 3.36794 2.90744
# Velocity P-wave (km/s) = 3.73613 5.23376 4.54703
#
# Compressibility (1/GPa) = 0.07103951
#
# Stress axis : x y z
#
# Youngs Moduli (GPa) = 28.31296 25.18048 73.27219
#
# Poissons Ratio (x) = -0.17627 0.53483
# Poissons Ratio (y) = -0.19819 0.62438
# Poissons Ratio (z) = 0.20666 0.21457
#
# Static dielectric constant tensor:
#      x y z
#    x 1.821530 0.000000 0.051850 
#    y 0.000000 1.776180 0.000000 
#    z 0.051850 0.000000 1.785570 
# 
# From -- ./inp_files/87728.got.cif
#   From: 2010.05.17/outbox.cif.g08.bks.cpg/sg15_44_cif.got.tgz:87728.got - 2010.06.03 18:47:42.
