data_PCOD9277164
_publ_section_title
;
Structure prediction by ZEFSAII (Michael W. Deem and Ramdas Pophale) SiO2 
 PCOD9277164
Probable space group: C 2/C
;
_chemical_formula_sum "Si O2"
_cell_formula_units_Z 48
_cell_length_a 9.789940
_cell_length_b 27.854382
_cell_length_c 14.804818
_cell_angle_alpha 90.000000
_cell_angle_beta 35.785481
_cell_angle_gamma 90.000000
_cell_volume 2360.741540
_symmetry_space_group_name_H-M "C 2/C"
_symmetry_group_IT_number 15
_symmetry_cell_setting 'monoclinic'
loop_
_space_group_symop_operation_xyz
x,y,z
-x,y,1/2-z
-x,-y,-z
x,-y,1/2+z
1/2+x,1/2+y,z
1/2-x,1/2+y,1/2-z
1/2-x,1/2-y,-z
1/2+x,1/2-y,1/2+z
loop_
_atom_site_type_symbol
_atom_site_label
_atom_site_fract_x
_atom_site_fract_y
_atom_site_fract_z
Si Si1 0.003158 0.147105 0.474218
Si Si2 0.648852 0.610149 0.578571
Si Si3 0.761446 0.758080 0.100092
Si Si4 0.765790 0.506793 0.564064
Si Si5 0.412506 0.159435 0.115259
Si Si6 0.270674 0.401458 0.938640
O O1 0.006365 0.116049 0.562791
O O2 0.240728 0.143999 0.288411
O O3 0.947813 0.202038 0.526458
O O4 0.812057 0.129969 0.504263
O O5 0.500000 0.612190 0.750000
O O6 0.777468 0.558180 0.508899
O O7 0.829140 0.654590 0.484481
O O8 0.500000 0.776864 0.250000
O O9 0.815811 0.709227 0.125735
O O10 0.750000 0.750000 0.000000
O O11 0.500000 0.507485 0.750000
O O12 0.767311 0.456121 0.511479
O O13 0.000000 0.500000 0.500000
O O14 0.414740 0.122226 0.029396
O O15 0.500000 0.399687 0.750000
#
# Coordination Sequence:
#
# PCOD9277164 Si02
#       6
#     8   8   8   8   8   8
#     4  11  24  41  65  98 126 173 220 269 329 402
#     4  11  26  41  63  95 137 169 218 277 337 384
#     4  12  23  41  68  98 127 165 221 274 328 399
#     4  10  20  40  68  97 132 178 222 274 337 398
#     4  11  21  42  66  93 127 174 214 266 333 403
#     4   9  18  36  67  91 124 169 220 261 324 394
#
# _framework density 20.332594
#
# number of rings (size 3 to 8) (size 9 to 14) (size 15 to 20)
#    0.000    1.333    5.000    1.000    2.333    1.333 
#    0.000    0.000    0.000    0.000    0.000    0.000 
#    0.000    0.000    0.000    0.000    0.000    0.000 
#
# Total GULP energy -133654.111924 kJ/mol
# GULP energy per Si atom -5568.921330 kJ/mol
# Density = 2.028632 g / cm^3
# Si number density = 20.332594 Si / 1000 Ang^3
#
#
#
# Elastic Constant Matrix: (Units=GPa)
#
#
# Indices 1 2 3 4 5 6 
#
# 1 69.3781 20.3652 19.1310 0.0000 16.5294 0.0000
# 2 20.3652 94.8668 6.7812 0.0000 12.3820 0.0000
# 3 19.1310 6.7812 61.0786 0.0000 7.5934 0.0000
# 4 0.0000 0.0000 0.0000 19.5216 0.0000 -1.7435
# 5 16.5294 12.3820 7.5934 0.0000 34.5105 0.0000
# 6 0.0000 0.0000 0.0000 -1.7435 0.0000 17.4206
#
#
#
# Elastic Compliance Matrix: (Units=1/GPa)
#
#
# Indices 1 2 3 4 5 6 
#
# 1 0.018039 -0.002677 -0.004522 0.000000 -0.006685 0.000000
# 2 -0.002677 0.011490 -0.000087 0.000000 -0.002821 0.000000
# 3 -0.004522 -0.000087 0.018018 0.000000 -0.001768 0.000000
# 4 0.000000 0.000000 0.000000 0.051687 0.000000 0.005173
# 5 -0.006685 -0.002821 -0.001768 0.000000 0.033580 0.000000
# 6 0.000000 0.000000 0.000000 0.005173 0.000000 0.057921
#
#
# Mechanical properties :
#
#
# Convention : Reuss Voigt Hill
#
# Bulk Modulus (GPa) = 30.32427 35.31980 32.82204
# Shear Modulus (GPa) = 23.11624 26.22695 24.67160
#
# Velocity S-wave (km/s) = 3.37546 3.59541 3.48717
# Velocity P-wave (km/s) = 5.48982 5.88597 5.69135
#
# Compressibility (1/GPa) = 0.03297688
#
# Stress axis : x y z
#
# Youngs Moduli (GPa) = 55.43520 87.03104 55.49983
#
# Poissons Ratio (x) = 0.23296 0.25097
# Poissons Ratio (y) = 0.14839 0.00480
# Poissons Ratio (z) = 0.25068 0.00753
#
# Static dielectric constant tensor:
#      x y z
#    x 1.706750 0.000000 -0.037080 
#    y 0.000000 1.732360 0.000000 
#    z -0.037080 0.000000 1.717670 
# 
# From -- ./inp_files/138885.got.cif
#   From: 2010.05.17/outbox.cif.g08.bks.cpg/sg15_70_cif.got.tgz:138885.got - 2010.06.03 18:47:42.
