data_PCOD9277133
_publ_section_title
;
Structure prediction by ZEFSAII (Michael W. Deem and Ramdas Pophale) SiO2 
 PCOD9277133
Probable space group: C 2/C
;
_chemical_formula_sum "Si O2"
_cell_formula_units_Z 60
_cell_length_a 17.096228
_cell_length_b 14.235029
_cell_length_c 11.892110
_cell_angle_alpha 90.000000
_cell_angle_beta 61.044013
_cell_angle_gamma 90.000000
_cell_volume 2532.337527
_symmetry_space_group_name_H-M "C 2/C"
_symmetry_group_IT_number 15
_symmetry_cell_setting 'monoclinic'
loop_
_space_group_symop_operation_xyz
x,y,z
-x,y,1/2-z
-x,-y,-z
x,-y,1/2+z
1/2+x,1/2+y,z
1/2-x,1/2+y,1/2-z
1/2-x,1/2-y,-z
1/2+x,1/2-y,1/2+z
loop_
_atom_site_type_symbol
_atom_site_label
_atom_site_fract_x
_atom_site_fract_y
_atom_site_fract_z
Si Si1 0.000000 0.425084 0.750000
Si Si2 0.916390 0.728792 0.586288
Si Si3 0.338599 0.132389 0.217787
Si Si4 0.386702 0.306159 0.062043
Si Si5 0.402834 0.979539 0.016986
Si Si6 0.606917 0.340833 0.691945
Si Si7 0.301379 0.657666 0.005220
Si Si8 0.905433 0.950817 0.247169
O O1 0.936056 0.365461 0.712709
O O2 0.073150 0.484842 0.630821
O O3 0.884728 0.627452 0.565155
O O4 0.875046 0.756300 0.735242
O O5 0.885312 0.804673 0.516651
O O6 0.023178 0.743453 0.520592
O O7 0.324629 0.234693 0.174392
O O8 0.265250 0.108521 0.361551
O O9 0.340533 0.055336 0.118138
O O10 0.407788 0.395162 0.127402
O O11 0.353595 0.334657 0.960937
O O12 0.500000 0.000000 0.000000
O O13 0.500000 0.339714 0.750000
O O14 0.621715 0.440307 0.742617
O O15 0.250000 0.750000 0.000000
O O16 0.333270 0.597640 0.878591
O O17 0.000000 0.945460 0.250000
#
# Coordination Sequence:
#
# PCOD9277133 Si02
#       8
#     4   8   8   8   8   8   8   8
#     4  10  20  40  68  94 126 168 224 268 334 384
#     4  11  22  43  67  96 136 170 217 280 340 384
#     4  11  24  42  62 103 128 171 220 275 338 400
#     4  11  21  40  72  94 129 170 228 270 334 402
#     4  10  21  38  68  96 125 173 222 270 330 400
#     4   9  24  41  65 100 128 173 224 270 333 404
#     4  12  25  41  67  99 133 173 224 283 333 396
#     4  11  23  41  71  94 129 177 225 279 328 402
#
# _framework density 23.693524
#
# number of rings (size 3 to 8) (size 9 to 14) (size 15 to 20)
#    0.000    1.333    5.333    0.800    2.800    3.733 
#    8.400    0.667    0.000    0.000    0.000    0.000 
#    0.000    0.000    0.000    0.000    0.000    0.000 
#
# Total GULP energy -167689.380302 kJ/mol
# GULP energy per Si atom -5589.646010 kJ/mol
# Density = 2.363960 g / cm^3
# Si number density = 23.693524 Si / 1000 Ang^3
#
#
#
# Elastic Constant Matrix: (Units=GPa)
#
#
# Indices 1 2 3 4 5 6 
#
# 1 49.6991 6.6720 8.5373 0.0000 -8.6228 0.0000
# 2 6.6720 73.3417 46.5149 0.0000 2.1728 0.0000
# 3 8.5373 46.5149 148.3074 0.0000 14.0328 0.0000
# 4 0.0000 0.0000 0.0000 42.8944 0.0000 10.0357
# 5 -8.6228 2.1728 14.0328 0.0000 30.3296 0.0000
# 6 0.0000 0.0000 0.0000 10.0357 0.0000 -0.5861
#
#
#
# Elastic Compliance Matrix: (Units=1/GPa)
#
#
# Indices 1 2 3 4 5 6 
#
# 1 0.021759 -0.001214 -0.001532 0.000000 0.006982 0.000000
# 2 -0.001214 0.017138 -0.005392 0.000000 0.000922 0.000000
# 3 -0.001532 -0.005392 0.008917 0.000000 -0.004175 0.000000
# 4 0.000000 0.000000 0.000000 0.004657 0.000000 0.079740
# 5 0.006982 0.000922 -0.004175 0.000000 0.036822 0.000000
# 6 0.000000 0.000000 0.000000 0.079740 0.000000 -0.340826
#
#
# Mechanical properties :
#
#
# Convention : Reuss Voigt Hill
#
# Bulk Modulus (GPa) = 31.71015 43.86628 37.78822
# Shear Modulus (GPa) = -22.24766 28.50252 3.12743
#
# Velocity S-wave (km/s) = -3.06760 3.47214 1.15014
# Velocity P-wave (km/s) = 0.93041 5.88461 4.21273
#
# Compressibility (1/GPa) = 0.03153565
#
# Stress axis : x y z
#
# Youngs Moduli (GPa) = 45.95853 58.34985 112.14167
#
# Poissons Ratio (x) = 0.07086 0.17183
# Poissons Ratio (y) = 0.05581 0.60472
# Poissons Ratio (z) = 0.07042 0.31465
#
# Static dielectric constant tensor:
#      x y z
#    x 1.984350 0.000000 0.061500 
#    y 0.000000 1.894100 0.000000 
#    z 0.061500 0.000000 2.030890 
# 
# From -- ./inp_files/112702.got.cif
#   From: 2010.05.17/outbox.cif.g08.bks.cpg/sg15_57_cif.got.tgz:112702.got - 2010.06.03 18:47:42.
