data_PCOD9277091
_publ_section_title
;
Structure prediction by ZEFSAII (Michael W. Deem and Ramdas Pophale) SiO2 
 PCOD9277091
Probable space group: C 2/C
;
_chemical_formula_sum "Si O2"
_cell_formula_units_Z 32
_cell_length_a 31.141558
_cell_length_b 7.753082
_cell_length_c 10.230128
_cell_angle_alpha 90.000000
_cell_angle_beta 27.950712
_cell_angle_gamma 90.000000
_cell_volume 1157.715131
_symmetry_space_group_name_H-M "C 2/C"
_symmetry_group_IT_number 15
_symmetry_cell_setting 'monoclinic'
loop_
_space_group_symop_operation_xyz
x,y,z
-x,y,1/2-z
-x,-y,-z
x,-y,1/2+z
1/2+x,1/2+y,z
1/2-x,1/2+y,1/2-z
1/2-x,1/2-y,-z
1/2+x,1/2-y,1/2+z
loop_
_atom_site_type_symbol
_atom_site_label
_atom_site_fract_x
_atom_site_fract_y
_atom_site_fract_z
Si Si1 0.704570 0.125304 0.878628
Si Si2 0.344809 0.316940 0.807021
Si Si3 0.927767 0.863130 0.138626
Si Si4 0.113456 0.527037 0.374225
O O1 0.806699 0.161839 0.556844
O O2 0.653631 0.999531 0.910862
O O3 0.640496 0.295291 0.063535
O O4 0.695159 0.060809 0.050907
O O5 0.375586 0.505480 0.682683
O O6 0.418237 0.165598 0.583927
O O7 0.250000 0.250000 0.000000
O O8 0.950450 0.685828 0.000037
O O9 0.000000 0.000000 0.000000
#
# Coordination Sequence:
#
# PCOD9277091 Si02
#       4
#     8   8   8   8
#     4   9  20  41  69 102 144 186 240 293 368 437
#     4  10  20  40  68 103 143 188 243 293 360 442
#     4  10  23  42  70 103 148 188 246 303 369 436
#     4   9  21  40  68 100 144 186 237 296 366 434
#
# _framework density 27.640650999999998
#
# number of rings (size 3 to 8) (size 9 to 14) (size 15 to 20)
#    1.500    1.000    0.000    1.500    0.000    5.000 
#    9.000    5.000    5.500    0.000    0.000    0.000 
#    0.000    0.000    0.000    0.000    0.000    0.000 
#
# Total GULP energy -89073.740621 kJ/mol
# GULP energy per Si atom -5567.108789 kJ/mol
# Density = 2.757774 g / cm^3
# Si number density = 27.640651 Si / 1000 Ang^3
#
#
#
# Elastic Constant Matrix: (Units=GPa)
#
#
# Indices 1 2 3 4 5 6 
#
# 1 95.8995 70.3591 23.9160 0.0000 -18.1013 0.0000
# 2 70.3591 225.4302 32.1817 0.0000 -11.0053 0.0000
# 3 23.9160 32.1817 63.7149 0.0000 0.6505 0.0000
# 4 0.0000 0.0000 0.0000 29.2753 0.0000 -10.1843
# 5 -18.1013 -11.0053 0.6505 0.0000 31.0394 0.0000
# 6 0.0000 0.0000 0.0000 -10.1843 0.0000 50.5053
#
#
#
# Elastic Compliance Matrix: (Units=1/GPa)
#
#
# Indices 1 2 3 4 5 6 
#
# 1 0.015847 -0.003987 -0.004016 0.000000 0.007912 0.000000
# 2 -0.003987 0.005880 -0.001471 0.000000 -0.000209 0.000000
# 3 -0.004016 -0.001471 0.017979 0.000000 -0.003240 0.000000
# 4 0.000000 0.000000 0.000000 0.036735 0.000000 0.007408
# 5 0.007912 -0.000209 -0.003240 0.000000 0.036825 0.000000
# 6 0.000000 0.000000 0.000000 0.007408 0.000000 0.021294
#
#
# Mechanical properties :
#
#
# Convention : Reuss Voigt Hill
#
# Bulk Modulus (GPa) = 48.17271 70.88420 59.52846
# Shear Modulus (GPa) = 31.16679 39.40318 35.28498
#
# Velocity S-wave (km/s) = 3.36158 3.77974 3.57678
# Velocity P-wave (km/s) = 5.70377 6.68948 6.21620
#
# Compressibility (1/GPa) = 0.02075864
#
# Stress axis : x y z
#
# Youngs Moduli (GPa) = 63.10185 170.06626 55.62194
#
# Poissons Ratio (x) = 0.67799 0.22336
# Poissons Ratio (y) = 0.25156 0.08184
# Poissons Ratio (z) = 0.25340 0.25024
#
# Static dielectric constant tensor:
#      x y z
#    x 2.308790 0.000000 0.012870 
#    y 0.000000 2.363540 0.000000 
#    z 0.012870 0.000000 2.368490 
# 
# From -- ./inp_files/125802.got.cif
#   From: 2010.05.17/outbox.cif.g08.bks.cpg/sg15_63_cif.got.tgz:125802.got - 2010.06.03 18:47:42.
