data_PCOD9277704
_publ_section_title
;
Structure prediction by ZEFSAII (Michael W. Deem and Ramdas Pophale) SiO2 
 PCOD9277704
Probable space group: C 2/C
;
_chemical_formula_sum "Si O2"
_cell_formula_units_Z 64
_cell_length_a 12.319241
_cell_length_b 15.367592
_cell_length_c 26.115135
_cell_angle_alpha 90.000000
_cell_angle_beta 35.812515
_cell_angle_gamma 90.000000
_cell_volume 2892.930439
_symmetry_space_group_name_H-M "C 2/C"
_symmetry_group_IT_number 15
_symmetry_cell_setting 'monoclinic'
loop_
_space_group_symop_operation_xyz
x,y,z
-x,y,1/2-z
-x,-y,-z
x,-y,1/2+z
1/2+x,1/2+y,z
1/2-x,1/2+y,1/2-z
1/2-x,1/2-y,-z
1/2+x,1/2-y,1/2+z
loop_
_atom_site_type_symbol
_atom_site_label
_atom_site_fract_x
_atom_site_fract_y
_atom_site_fract_z
Si Si1 0.643337 0.626630 0.348028
Si Si2 0.862941 0.300452 0.096846
Si Si3 0.431440 0.933156 0.651226
Si Si4 0.795283 0.303671 0.351441
Si Si5 0.293635 0.518548 0.847017
Si Si6 0.257112 0.636445 0.440295
Si Si7 0.945616 0.736806 0.451546
Si Si8 0.821275 0.502358 0.856813
O O1 0.703755 0.724130 0.340913
O O2 0.772693 0.598511 0.251199
O O3 0.430177 0.628188 0.411904
O O4 0.678767 0.559220 0.380924
O O5 0.726989 0.379280 0.134166
O O6 0.909032 0.254463 0.025604
O O7 0.059316 0.340095 0.040631
O O8 0.490590 0.858304 0.589732
O O9 0.605030 0.962186 0.618737
O O10 0.338729 0.004428 0.650923
O O11 0.793326 0.218825 0.388637
O O12 0.630585 0.293938 0.372389
O O13 0.762250 0.398319 0.388408
O O14 0.000000 0.304411 0.250000
O O15 0.500000 0.495917 0.750000
O O16 0.242058 0.452425 0.912558
O O17 0.750000 0.750000 0.500000
O O18 0.000000 0.504441 0.750000
#
# Coordination Sequence:
#
# PCOD9277704 Si02
#       8
#     8   8   8   8   8   8   8   8
#     4  11  23  44  69  99 135 179 229 284 341 408
#     4  11  26  43  65 102 141 173 226 288 352 409
#     4  11  22  44  68  92 138 178 226 286 334 412
#     4  10  20  41  67  98 130 180 236 277 334 419
#     4  12  24  44  70 102 128 182 235 283 341 413
#     4  11  22  42  68  98 135 175 225 283 344 406
#     4  11  24  43  67  99 141 181 228 284 355 409
#     4   9  22  40  64  96 133 169 225 282 334 394
#
# _framework density 22.122896000000001
#
# number of rings (size 3 to 8) (size 9 to 14) (size 15 to 20)
#    0.000    1.250    3.750    2.625    1.750    3.500 
#    4.500    3.125    0.000    0.000    0.000    0.000 
#    0.000    0.000    0.000    0.000    0.000    0.000 
#
# Total GULP energy -178778.592200 kJ/mol
# GULP energy per Si atom -5586.831006 kJ/mol
# Density = 2.207254 g / cm^3
# Si number density = 22.122896 Si / 1000 Ang^3
#
#
#
# Elastic Constant Matrix: (Units=GPa)
#
#
# Indices 1 2 3 4 5 6 
#
# 1 115.9059 17.4941 4.0046 -0.0008 -28.8130 0.0001
# 2 17.4941 112.7143 8.4780 -0.0013 0.2438 0.0002
# 3 4.0046 8.4780 34.1020 -0.0035 -13.4494 0.0005
# 4 -0.0008 -0.0013 -0.0035 1.4152 0.0008 -1.3284
# 5 -28.8130 0.2438 -13.4494 0.0008 31.9526 -0.0003
# 6 0.0001 0.0002 0.0005 -1.3284 -0.0003 26.1495
#
#
#
# Elastic Compliance Matrix: (Units=1/GPa)
#
#
# Indices 1 2 3 4 5 6 
#
# 1 0.011917 -0.002182 0.004062 0.000008 0.012473 0.000000
# 2 -0.002182 0.009480 -0.003483 0.000001 -0.003506 0.000000
# 3 0.004062 -0.003483 0.037372 0.000085 0.019420 0.000004
# 4 0.000008 0.000001 0.000085 0.742018 0.000025 0.037695
# 5 0.012473 -0.003506 0.019420 0.000025 0.050745 0.000001
# 6 0.000000 0.000000 0.000004 0.037695 0.000001 0.040157
#
#
# Mechanical properties :
#
#
# Convention : Reuss Voigt Hill
#
# Bulk Modulus (GPa) = 17.99777 35.85285 26.92531
# Shear Modulus (GPa) = 5.47395 27.41981 16.44688
#
# Velocity S-wave (km/s) = 1.57471 3.52438 2.72955
# Velocity P-wave (km/s) = 3.38516 5.72739 4.70438
#
# Compressibility (1/GPa) = 0.05556245
#
# Stress axis : x y z
#
# Youngs Moduli (GPa) = 83.91160 105.48212 26.75810
#
# Poissons Ratio (x) = 0.23018 -0.10870
# Poissons Ratio (y) = 0.18311 0.09321
# Poissons Ratio (z) = -0.34086 0.36745
#
# Static dielectric constant tensor:
#      x y z
#    x 1.802930 0.000000 0.008920 
#    y 0.000000 1.834220 0.000000 
#    z 0.008920 0.000000 1.643520 
# 
# From -- ./inp_files/293045.got.cif
#   From: 2010.05.17/outbox.cif.g08.bks.cpg/sg15_147_cif.got.tgz:293045.got - 2010.06.03 18:47:42.
