data_PCOD9277557
_publ_section_title
;
Structure prediction by ZEFSAII (Michael W. Deem and Ramdas Pophale) SiO2 
 PCOD9277557
Probable space group: C 2/C
;
_chemical_formula_sum "Si O2"
_cell_formula_units_Z 32
_cell_length_a 17.223175
_cell_length_b 6.826349
_cell_length_c 19.290452
_cell_angle_alpha 90.000000
_cell_angle_beta 147.192451
_cell_angle_gamma 90.000000
_cell_volume 1228.848376
_symmetry_space_group_name_H-M "C 2/C"
_symmetry_group_IT_number 15
_symmetry_cell_setting 'monoclinic'
loop_
_space_group_symop_operation_xyz
x,y,z
-x,y,1/2-z
-x,-y,-z
x,-y,1/2+z
1/2+x,1/2+y,z
1/2-x,1/2+y,1/2-z
1/2-x,1/2-y,-z
1/2+x,1/2-y,1/2+z
loop_
_atom_site_type_symbol
_atom_site_label
_atom_site_fract_x
_atom_site_fract_y
_atom_site_fract_z
Si Si1 0.295840 0.528791 0.045500
Si Si2 0.958994 0.419270 0.573102
Si Si3 0.600291 0.562508 0.722615
Si Si4 0.422890 0.306847 0.909717
O O1 0.351302 0.493895 0.164981
O O2 0.426921 0.481454 0.093732
O O3 0.250000 0.750000 0.000000
O O4 0.143439 0.418485 0.935901
O O5 0.885819 0.315146 0.451226
O O6 0.096510 0.289324 0.697418
O O7 0.996417 0.637332 0.574935
O O8 0.669914 0.417349 0.718777
O O9 0.500000 0.500000 0.000000
#
# Coordination Sequence:
#
# PCOD9277557 Si02
#       4
#     8   8   8   8
#     4  11  22  42  65  94 129 173 218 271 328 390
#     4  10  20  41  65  91 130 168 211 276 323 383
#     4  10  22  42  62  96 127 167 221 265 326 398
#     4   9  19  40  65  92 130 165 213 269 322 392
#
# _framework density 26.040641999999998
#
# number of rings (size 3 to 8) (size 9 to 14) (size 15 to 20)
#    0.000    2.000    2.500    0.750    0.000    0.000 
#   27.000    0.000    0.000    0.000    0.000    0.000 
#    0.000    0.000    0.000    0.000    0.000    0.000 
#
# Total GULP energy -89241.250987 kJ/mol
# GULP energy per Si atom -5577.578187 kJ/mol
# Density = 2.598137 g / cm^3
# Si number density = 26.040642 Si / 1000 Ang^3
#
#
#
# Elastic Constant Matrix: (Units=GPa)
#
#
# Indices 1 2 3 4 5 6 
#
# 1 141.4080 49.6656 13.2667 0.0000 3.4225 0.0000
# 2 49.6656 183.7413 42.8024 0.0000 2.2258 0.0000
# 3 13.2667 42.8024 65.5795 0.0000 -22.2129 0.0000
# 4 0.0000 0.0000 0.0000 14.1008 0.0000 -7.4868
# 5 3.4225 2.2258 -22.2129 0.0000 45.6742 0.0000
# 6 0.0000 0.0000 0.0000 -7.4868 0.0000 64.0740
#
#
#
# Elastic Compliance Matrix: (Units=1/GPa)
#
#
# Indices 1 2 3 4 5 6 
#
# 1 0.007838 -0.001981 -0.000549 0.000000 -0.000758 0.000000
# 2 -0.001981 0.007236 -0.005257 0.000000 -0.002761 0.000000
# 3 -0.000549 -0.005257 0.022617 0.000000 0.011297 0.000000
# 4 0.000000 0.000000 0.000000 0.075609 0.000000 0.008835
# 5 -0.000758 -0.002761 0.011297 0.000000 0.027580 0.000000
# 6 0.000000 0.000000 0.000000 0.008835 0.000000 0.016639
#
#
# Mechanical properties :
#
#
# Convention : Reuss Voigt Hill
#
# Bulk Modulus (GPa) = 45.21624 66.91093 56.06359
# Shear Modulus (GPa) = 27.70610 43.76941 35.73775
#
# Velocity S-wave (km/s) = 3.26537 4.10422 3.70859
# Velocity P-wave (km/s) = 5.62301 6.94335 6.31777
#
# Compressibility (1/GPa) = 0.02211595
#
# Stress axis : x y z
#
# Youngs Moduli (GPa) = 127.59170 138.19547 44.21370
#
# Poissons Ratio (x) = 0.27383 0.02427
# Poissons Ratio (y) = 0.25282 0.23244
# Poissons Ratio (z) = 0.07004 0.72652
#
# Static dielectric constant tensor:
#      x y z
#    x 2.088510 0.000000 0.138560 
#    y 0.000000 2.069060 0.000000 
#    z 0.138560 0.000000 2.169000 
# 
# From -- ./inp_files/165148.got.cif
#   From: 2010.05.17/outbox.cif.g08.bks.cpg/sg15_83_cif.got.tgz:165148.got - 2010.06.03 18:47:42.
