data_PCOD9278799
_publ_section_title
;
Structure prediction by ZEFSAII (Michael W. Deem and Ramdas Pophale) SiO2 
 PCOD9278799
Probable space group: C 2/C
;
_chemical_formula_sum "Si O2"
_cell_formula_units_Z 44
_cell_length_a 23.196217
_cell_length_b 15.708544
_cell_length_c 14.815999
_cell_angle_alpha 90.000000
_cell_angle_beta 18.923904
_cell_angle_gamma 90.000000
_cell_volume 1750.842936
_symmetry_space_group_name_H-M "C 2/C"
_symmetry_group_IT_number 15
_symmetry_cell_setting 'monoclinic'
loop_
_space_group_symop_operation_xyz
x,y,z
-x,y,1/2-z
-x,-y,-z
x,-y,1/2+z
1/2+x,1/2+y,z
1/2-x,1/2+y,1/2-z
1/2-x,1/2-y,-z
1/2+x,1/2-y,1/2+z
loop_
_atom_site_type_symbol
_atom_site_label
_atom_site_fract_x
_atom_site_fract_y
_atom_site_fract_z
Si Si1 0.874459 0.024152 0.087884
Si Si2 0.451330 0.084017 0.018475
Si Si3 0.712074 0.678112 0.774049
Si Si4 0.562582 0.759891 0.827057
Si Si5 0.000000 0.819218 0.750000
Si Si6 0.294756 0.439044 0.912427
O O1 0.798320 0.925293 0.195277
O O2 0.752164 0.080618 0.207190
O O3 0.839788 0.058604 0.239804
O O4 0.079174 0.020984 0.751749
O O5 0.474581 0.159909 0.052794
O O6 0.586415 0.074802 0.734565
O O7 0.500000 0.000000 0.000000
O O8 0.592029 0.690911 0.863397
O O9 0.904650 0.722688 0.488751
O O10 0.622524 0.724312 0.994172
O O11 0.750000 0.750000 0.500000
O O12 0.127049 0.872888 0.629371
#
# Coordination Sequence:
#
# PCOD9278799 Si02
#       6
#     8   8   8   8   4   8
#     4  10  23  43  75 111 146 196 258 329 381 463
#     4  12  23  45  74 103 147 206 263 311 385 466
#     4  11  25  49  71 107 152 201 255 324 398 465
#     4  12  28  48  70 108 155 207 257 325 403 469
#     4  10  20  46  72  98 148 194 252 322 390 460
#     4  10  21  41  70 108 146 185 257 317 385 442
#
# _framework density 25.130752999999999
#
# number of rings (size 3 to 8) (size 9 to 14) (size 15 to 20)
#    0.000    1.091    3.636    2.182    2.545    6.545 
#    6.545    0.000    0.000    0.000    0.000    0.000 
#    0.000    0.000    0.000    0.000    0.000    0.000 
#
# Total GULP energy -122512.355462 kJ/mol
# GULP energy per Si atom -5568.743430 kJ/mol
# Density = 2.507355 g / cm^3
# Si number density = 25.130753 Si / 1000 Ang^3
#
#
#
# Elastic Constant Matrix: (Units=GPa)
#
#
# Indices 1 2 3 4 5 6 
#
# 1 84.3388 12.9069 20.6741 -0.0024 -3.0767 0.0014
# 2 12.9069 77.5231 35.8151 -0.0062 -1.7637 0.0039
# 3 20.6741 35.8151 147.4200 -0.0070 20.4389 0.0043
# 4 -0.0024 -0.0062 -0.0070 23.7721 0.0030 -0.8461
# 5 -3.0767 -1.7637 20.4389 0.0030 48.1810 -0.0011
# 6 0.0014 0.0039 0.0043 -0.8461 -0.0011 32.6493
#
#
#
# Elastic Compliance Matrix: (Units=1/GPa)
#
#
# Indices 1 2 3 4 5 6 
#
# 1 0.012510 -0.001292 -0.001641 0.000000 0.001448 0.000000
# 2 -0.001292 0.014878 -0.003716 0.000002 0.002038 -0.000001
# 3 -0.001641 -0.003716 0.008446 0.000002 -0.003824 -0.000001
# 4 0.000000 0.000002 0.000002 0.042105 -0.000003 0.001091
# 5 0.001448 0.002038 -0.003824 -0.000003 0.022544 0.000001
# 6 0.000000 -0.000001 -0.000001 0.001091 0.000001 0.030657
#
#
# Mechanical properties :
#
#
# Convention : Reuss Voigt Hill
#
# Bulk Modulus (GPa) = 44.37319 49.78602 47.07961
# Shear Modulus (GPa) = 32.90569 36.91285 34.90927
#
# Velocity S-wave (km/s) = 3.62246 3.83669 3.73111
# Velocity P-wave (km/s) = 5.93225 6.28337 6.11033
#
# Compressibility (1/GPa) = 0.02253613
#
# Stress axis : x y z
#
# Youngs Moduli (GPa) = 79.93770 67.21551 118.39294
#
# Poissons Ratio (x) = 0.08681 0.19432
# Poissons Ratio (y) = 0.10324 0.43994
# Poissons Ratio (z) = 0.13120 0.24977
#
# Static dielectric constant tensor:
#      x y z
#    x -7.293920 0.000120 -3.454910 
#    y 0.000120 2.080820 0.000050 
#    z -3.454910 0.000050 1.064010 
# 
# From -- ./inp_files/174189.got.cif
#   From: 2010.05.17/outbox.cif.g08.bks.cpg/sg15_88_cif.got.tgz:174189.got - 2010.06.03 18:47:42.
