data_PCOD9278359
_publ_section_title
;
Structure prediction by ZEFSAII (Michael W. Deem and Ramdas Pophale) SiO2 
 PCOD9278359
Probable space group: C 2/C
;
_chemical_formula_sum "Si O2"
_cell_formula_units_Z 60
_cell_length_a 9.266428
_cell_length_b 22.644169
_cell_length_c 21.890070
_cell_angle_alpha 90.000000
_cell_angle_beta 36.766597
_cell_angle_gamma 90.000000
_cell_volume 2749.293928
_symmetry_space_group_name_H-M "C 2/C"
_symmetry_group_IT_number 15
_symmetry_cell_setting 'monoclinic'
loop_
_space_group_symop_operation_xyz
x,y,z
-x,y,1/2-z
-x,-y,-z
x,-y,1/2+z
1/2+x,1/2+y,z
1/2-x,1/2+y,1/2-z
1/2-x,1/2-y,-z
1/2+x,1/2-y,1/2+z
loop_
_atom_site_type_symbol
_atom_site_label
_atom_site_fract_x
_atom_site_fract_y
_atom_site_fract_z
Si Si1 0.727721 0.775623 0.714506
Si Si2 0.914193 0.299771 0.475877
Si Si3 0.785516 0.897621 0.653978
Si Si4 0.970846 0.422993 0.397872
Si Si5 0.092805 0.889541 0.428645
Si Si6 0.500000 0.453978 0.250000
Si Si7 0.607488 0.505426 0.583898
Si Si8 0.537985 0.744824 0.910780
O O1 0.500000 0.789835 0.750000
O O2 0.861052 0.838637 0.665489
O O3 0.664895 0.762397 0.805033
O O4 0.838481 0.720631 0.640723
O O5 0.750000 0.250000 0.500000
O O6 0.883422 0.367212 0.467966
O O7 0.904456 0.286108 0.550792
O O8 0.500000 0.907664 0.750000
O O9 0.892657 0.888390 0.550197
O O10 0.910818 0.955422 0.637222
O O11 0.839982 0.412554 0.376782
O O12 0.848769 0.481370 0.468770
O O13 0.261154 0.423106 0.301834
O O14 0.114285 0.822328 0.399488
O O15 0.988317 0.934191 0.413987
O O16 0.381427 0.487612 0.347374
O O17 0.250000 0.750000 0.000000
#
# Coordination Sequence:
#
# PCOD9278359 Si02
#       8
#     8   8   8   8   8   4   8   8
#     4  11  23  42  68 106 140 180 238 285 354 431
#     4  12  24  46  70 100 151 181 228 301 355 427
#     4  10  20  42  72 102 137 184 239 295 344 434
#     4  11  26  49  72 103 144 191 241 297 367 428
#     4  11  24  48  72 102 146 187 244 295 358 442
#     4  12  30  46  68 104 146 184 234 310 348 436
#     4  11  27  46  74 102 143 188 242 295 370 425
#     4  12  24  43  74 107 140 193 232 295 368 427
#
# _framework density 21.823785000000001
#
# number of rings (size 3 to 8) (size 9 to 14) (size 15 to 20)
#    0.000    0.800    4.000    3.600    8.400    1.600 
#    0.000    0.000    0.000    0.000    0.000    0.000 
#    0.000    0.000    0.000    0.000    0.000    0.000 
#
# Total GULP energy -167568.777217 kJ/mol
# GULP energy per Si atom -5585.625907 kJ/mol
# Density = 2.177411 g / cm^3
# Si number density = 21.823785 Si / 1000 Ang^3
#
#
#
# Elastic Constant Matrix: (Units=GPa)
#
#
# Indices 1 2 3 4 5 6 
#
# 1 84.1356 11.3854 44.3824 -0.0012 12.1903 0.0007
# 2 11.3854 67.0473 22.5640 -0.0005 19.7538 0.0011
# 3 44.3824 22.5640 90.2095 -0.0005 11.7281 0.0010
# 4 -0.0012 -0.0005 -0.0005 33.9669 0.0007 14.9445
# 5 12.1903 19.7538 11.7281 0.0007 63.0219 -0.0007
# 6 0.0007 0.0011 0.0010 14.9445 -0.0007 30.0721
#
#
#
# Elastic Compliance Matrix: (Units=1/GPa)
#
#
# Indices 1 2 3 4 5 6 
#
# 1 0.016236 0.000421 -0.007858 0.000001 -0.001810 -0.000001
# 2 0.000421 0.017616 -0.003981 0.000001 -0.004862 -0.000001
# 3 -0.007858 -0.003981 0.015974 0.000000 -0.000205 0.000000
# 4 0.000001 0.000001 0.000000 0.037679 -0.000001 -0.018725
# 5 -0.001810 -0.004862 -0.000205 -0.000001 0.017780 0.000001
# 6 -0.000001 -0.000001 0.000000 -0.018725 0.000001 0.042559
#
#
# Mechanical properties :
#
#
# Convention : Reuss Voigt Hill
#
# Bulk Modulus (GPa) = 37.05221 44.22844 40.64032
# Shear Modulus (GPa) = 27.82796 36.28289 32.05543
#
# Velocity S-wave (km/s) = 3.57476 4.08185 3.83669
# Velocity P-wave (km/s) = 5.83552 6.52116 6.18784
#
# Compressibility (1/GPa) = 0.02698894
#
# Stress axis : x y z
#
# Youngs Moduli (GPa) = 61.59135 56.76769 62.60265
#
# Poissons Ratio (x) = -0.02388 0.49193
# Poissons Ratio (y) = -0.02591 0.24923
# Poissons Ratio (z) = 0.48398 0.22600
#
# Static dielectric constant tensor:
#      x y z
#    x 2.008010 0.000000 0.188840 
#    y 0.000000 1.810210 0.000010 
#    z 0.188840 0.000010 2.220020 
# 
# From -- ./inp_files/234551.got.cif
#   From: 2010.05.17/outbox.cif.g08.bks.cpg/sg15_118_cif.got.tgz:234551.got - 2010.06.03 18:47:42.
