data_PCOD9278012
_publ_section_title
;
Structure prediction by ZEFSAII (Michael W. Deem and Ramdas Pophale) SiO2 
 PCOD9278012
Probable space group: C 2/C
;
_chemical_formula_sum "Si O2"
_cell_formula_units_Z 60
_cell_length_a 21.196967
_cell_length_b 11.096530
_cell_length_c 13.607187
_cell_angle_alpha 90.000000
_cell_angle_beta 64.134408
_cell_angle_gamma 90.000000
_cell_volume 2879.949529
_symmetry_space_group_name_H-M "C 2/C"
_symmetry_group_IT_number 15
_symmetry_cell_setting 'monoclinic'
loop_
_space_group_symop_operation_xyz
x,y,z
-x,y,1/2-z
-x,-y,-z
x,-y,1/2+z
1/2+x,1/2+y,z
1/2-x,1/2+y,1/2-z
1/2-x,1/2-y,-z
1/2+x,1/2-y,1/2+z
loop_
_atom_site_type_symbol
_atom_site_label
_atom_site_fract_x
_atom_site_fract_y
_atom_site_fract_z
Si Si1 0.239421 0.416890 0.911006
Si Si2 0.384233 0.978513 0.129974
Si Si3 0.622337 0.484285 0.266186
Si Si4 0.298909 0.154899 0.859427
Si Si5 0.439741 0.593798 0.508515
Si Si6 0.501538 0.172768 0.062691
Si Si7 0.575326 0.695431 0.184904
Si Si8 0.000000 0.823747 0.250000
O O1 0.167060 0.458153 0.912951
O O2 0.301056 0.504879 0.831451
O O3 0.256704 0.278661 0.865120
O O4 0.240706 0.417769 0.028785
O O5 0.333690 0.917728 0.246250
O O6 0.441445 0.075130 0.130439
O O7 0.433838 0.883854 0.039865
O O8 0.624238 0.442972 0.377680
O O9 0.592725 0.619700 0.270899
O O10 0.564438 0.400360 0.251977
O O11 0.365987 0.207990 0.872758
O O12 0.500000 0.500000 0.500000
O O13 0.464829 0.726834 0.519885
O O14 0.425569 0.599315 0.403011
O O15 0.526438 0.241047 0.143217
O O16 0.500000 0.752308 0.250000
#
# Coordination Sequence:
#
# PCOD9278012 Si02
#       8
#     8   8   8   8   8   8   8   4
#     4  10  24  43  63  91 130 172 219 263 325 388
#     4  11  24  45  64  95 131 169 219 268 325 396
#     4  10  21  38  60  97 127 161 211 268 324 382
#     4  10  24  42  63  92 128 171 221 262 317 393
#     4  11  20  36  67  96 130 166 212 275 326 377
#     4  10  24  40  65  97 127 169 217 266 329 390
#     4  11  18  34  62  96 125 163 209 266 322 375
#     4  10  20  42  64  92 132 158 212 268 332 392
#
# _framework density 20.833698999999999
#
# number of rings (size 3 to 8) (size 9 to 14) (size 15 to 20)
#    0.000    1.600    2.000    2.400    3.733    6.400 
#    2.400    0.667    0.000    0.000    0.000    0.000 
#    0.000    0.000    0.000    0.000    0.000    0.000 
#
# Total GULP energy -167471.821030 kJ/mol
# GULP energy per Si atom -5582.394034 kJ/mol
# Density = 2.078628 g / cm^3
# Si number density = 20.833699 Si / 1000 Ang^3
#
#
#
# Elastic Constant Matrix: (Units=GPa)
#
#
# Indices 1 2 3 4 5 6 
#
# 1 50.5010 11.7460 19.3870 0.0000 -10.6833 0.0000
# 2 11.7460 71.9128 51.0190 0.0000 -7.9286 0.0000
# 3 19.3870 51.0190 129.4415 0.0000 -9.6474 0.0000
# 4 0.0000 0.0000 0.0000 37.5748 0.0000 -7.4600
# 5 -10.6833 -7.9286 -9.6474 0.0000 33.1563 0.0000
# 6 0.0000 0.0000 0.0000 -7.4600 0.0000 25.4654
#
#
#
# Elastic Compliance Matrix: (Units=1/GPa)
#
#
# Indices 1 2 3 4 5 6 
#
# 1 0.022322 -0.001275 -0.002379 0.000000 0.006195 0.000000
# 2 -0.001275 0.019574 -0.007366 0.000000 0.002127 0.000000
# 3 -0.002379 -0.007366 0.011036 0.000000 0.000683 0.000000
# 4 0.000000 0.000000 0.000000 0.028257 0.000000 0.008278
# 5 0.006195 0.002127 0.000683 0.000000 0.032864 0.000000
# 6 0.000000 0.000000 0.000000 0.008278 0.000000 0.041694
#
#
# Mechanical properties :
#
#
# Convention : Reuss Voigt Hill
#
# Bulk Modulus (GPa) = 32.37028 46.23991 39.30510
# Shear Modulus (GPa) = 26.58396 30.55287 28.56841
#
# Velocity S-wave (km/s) = 3.57600 3.83366 3.70707
# Velocity P-wave (km/s) = 5.71153 6.46830 6.10166
#
# Compressibility (1/GPa) = 0.03089253
#
# Stress axis : x y z
#
# Youngs Moduli (GPa) = 44.79881 51.08812 90.61402
#
# Poissons Ratio (x) = 0.06515 0.21556
# Poissons Ratio (y) = 0.05713 0.66742
# Poissons Ratio (z) = 0.10657 0.37629
#
# Static dielectric constant tensor:
#      x y z
#    x 1.780780 0.000000 -0.014000 
#    y 0.000000 1.753380 0.000000 
#    z -0.014000 0.000000 1.803550 
# 
# From -- ./inp_files/172948.got.cif
#   From: 2010.05.17/outbox.cif.g08.bks.cpg/sg15_87_cif.got.tgz:172948.got - 2010.06.03 18:47:42.
