data_PCOD9278384
_publ_section_title
;
Structure prediction by ZEFSAII (Michael W. Deem and Ramdas Pophale) SiO2 
 PCOD9278384
Probable space group: C 2/C
;
_chemical_formula_sum "Si O2"
_cell_formula_units_Z 64
_cell_length_a 27.465398
_cell_length_b 10.125838
_cell_length_c 20.448331
_cell_angle_alpha 90.000000
_cell_angle_beta 151.509792
_cell_angle_gamma 90.000000
_cell_volume 2712.694656
_symmetry_space_group_name_H-M "C 2/C"
_symmetry_group_IT_number 15
_symmetry_cell_setting 'monoclinic'
loop_
_space_group_symop_operation_xyz
x,y,z
-x,y,1/2-z
-x,-y,-z
x,-y,1/2+z
1/2+x,1/2+y,z
1/2-x,1/2+y,1/2-z
1/2-x,1/2-y,-z
1/2+x,1/2-y,1/2+z
loop_
_atom_site_type_symbol
_atom_site_label
_atom_site_fract_x
_atom_site_fract_y
_atom_site_fract_z
Si Si1 0.026715 0.624394 0.651930
Si Si2 0.722975 0.931164 0.051129
Si Si3 0.147131 0.065783 0.670631
Si Si4 0.347610 0.788484 0.075048
Si Si5 0.562646 0.570400 0.756486
Si Si6 0.455521 0.170614 0.089208
Si Si7 0.428311 0.720359 0.418111
Si Si8 0.404018 0.636797 0.021803
O O1 0.069814 0.677705 0.771848
O O2 0.086344 0.674516 0.657960
O O3 0.007648 0.470497 0.636816
O O4 0.926880 0.714167 0.525547
O O5 0.778460 0.893381 0.184145
O O6 0.814055 0.933277 0.104602
O O7 0.621579 0.841543 0.939744
O O8 0.676941 0.077837 0.992535
O O9 0.170253 0.078991 0.620622
O O10 0.042127 0.150986 0.554579
O O11 0.137675 0.909365 0.671274
O O12 0.368832 0.664297 0.053537
O O13 0.250000 0.750000 0.000000
O O14 0.500000 0.559003 0.750000
O O15 0.534215 0.714023 0.696395
O O16 0.505618 0.456594 0.644995
O O17 0.406683 0.213872 0.962263
#
# Coordination Sequence:
#
# PCOD9278384 Si02
#       8
#     8   8   8   8   8   8   8   8
#     4  11  24  43  73 101 153 185 242 312 370 434
#     4  12  26  45  70 108 149 189 244 309 364 438
#     4  10  20  42  73 101 137 191 251 296 353 440
#     4  12  25  44  73 110 142 190 256 304 367 439
#     4  12  26  48  74  99 148 197 240 294 374 454
#     4  12  26  46  70 109 148 191 240 305 379 435
#     4  10  20  45  73 101 142 199 241 298 373 434
#     4  11  22  45  74 103 136 195 245 296 366 434
#
# _framework density 23.592777000000002
#
# number of rings (size 3 to 8) (size 9 to 14) (size 15 to 20)
#    0.000    0.750    3.750    5.250    1.750    2.500 
#    2.250    0.000    0.000    0.000    0.000    0.000 
#    0.000    0.000    0.000    0.000    0.000    0.000 
#
# Total GULP energy -178497.980862 kJ/mol
# GULP energy per Si atom -5578.061902 kJ/mol
# Density = 2.353908 g / cm^3
# Si number density = 23.592777 Si / 1000 Ang^3
#
#
#
# Elastic Constant Matrix: (Units=GPa)
#
#
# Indices 1 2 3 4 5 6 
#
# 1 144.2358 38.8072 12.3869 0.0000 4.6598 0.0000
# 2 38.8072 128.0873 14.5316 0.0000 11.3742 0.0000
# 3 12.3869 14.5316 38.9462 0.0000 -5.7286 0.0000
# 4 0.0000 0.0000 0.0000 32.0020 0.0000 -3.8333
# 5 4.6598 11.3742 -5.7286 0.0000 30.5939 0.0000
# 6 0.0000 0.0000 0.0000 -3.8333 0.0000 26.1280
#
#
#
# Elastic Compliance Matrix: (Units=1/GPa)
#
#
# Indices 1 2 3 4 5 6 
#
# 1 0.007662 -0.002054 -0.001779 0.000000 -0.000736 0.000000
# 2 -0.002054 0.009132 -0.003298 0.000000 -0.003700 0.000000
# 3 -0.001779 -0.003298 0.028477 0.000000 0.006829 0.000000
# 4 0.000000 0.000000 0.000000 0.031807 0.000000 0.004666
# 5 -0.000736 -0.003700 0.006829 0.000000 0.035453 0.000000
# 6 0.000000 0.000000 0.000000 0.004666 0.000000 0.038958
#
#
# Mechanical properties :
#
#
# Convention : Reuss Voigt Hill
#
# Bulk Modulus (GPa) = 32.24846 49.19119 40.71983
# Shear Modulus (GPa) = 28.39475 34.11436 31.25455
#
# Velocity S-wave (km/s) = 3.47296 3.80671 3.64366
# Velocity P-wave (km/s) = 5.45715 6.34167 5.91596
#
# Compressibility (1/GPa) = 0.03100923
#
# Stress axis : x y z
#
# Youngs Moduli (GPa) = 130.50798 109.50112 35.11551
#
# Poissons Ratio (x) = 0.22495 0.06246
# Poissons Ratio (y) = 0.26810 0.11582
# Poissons Ratio (z) = 0.23215 0.36117
#
# Static dielectric constant tensor:
#      x y z
#    x 2.010440 0.000000 0.044850 
#    y 0.000000 1.856860 0.000000 
#    z 0.044850 0.000000 1.893690 
# 
# From -- ./inp_files/284447.got.cif
#   From: 2010.05.17/outbox.cif.g08.bks.cpg/sg15_143_cif.got.tgz:284447.got - 2010.06.03 18:47:42.
