data_PCOD9278251
_publ_section_title
;
Structure prediction by ZEFSAII (Michael W. Deem and Ramdas Pophale) SiO2 
 PCOD9278251
Probable space group: C 2/C
;
_chemical_formula_sum "Si O2"
_cell_formula_units_Z 60
_cell_length_a 8.853058
_cell_length_b 26.490361
_cell_length_c 24.165194
_cell_angle_alpha 90.000000
_cell_angle_beta 148.227297
_cell_angle_gamma 90.000000
_cell_volume 2984.089002
_symmetry_space_group_name_H-M "C 2/C"
_symmetry_group_IT_number 15
_symmetry_cell_setting 'monoclinic'
loop_
_space_group_symop_operation_xyz
x,y,z
-x,y,1/2-z
-x,-y,-z
x,-y,1/2+z
1/2+x,1/2+y,z
1/2-x,1/2+y,1/2-z
1/2-x,1/2-y,-z
1/2+x,1/2-y,1/2+z
loop_
_atom_site_type_symbol
_atom_site_label
_atom_site_fract_x
_atom_site_fract_y
_atom_site_fract_z
Si Si1 0.649412 0.010136 0.987811
Si Si2 0.569910 0.183198 0.837730
Si Si3 0.257478 0.497802 0.791166
Si Si4 0.266912 0.913588 0.296641
Si Si5 0.527644 0.082215 0.377963
Si Si6 0.500000 0.352869 0.750000
Si Si7 0.320550 0.712451 0.293250
Si Si8 0.683225 0.323222 0.583103
O O1 0.469770 0.050928 0.897595
O O2 0.677023 0.956488 0.965558
O O3 0.974551 0.027016 0.095469
O O4 0.500000 0.000000 0.000000
O O5 0.500000 0.185324 0.750000
O O6 0.445330 0.131036 0.823765
O O7 0.410606 0.229642 0.818148
O O8 0.906652 0.189104 0.959270
O O9 0.351696 0.546518 0.785457
O O10 0.135886 0.454481 0.714465
O O11 0.000000 0.514560 0.750000
O O12 0.000000 0.894438 0.250000
O O13 0.728334 0.120095 0.406691
O O14 0.284567 0.113504 0.334552
O O15 0.498452 0.318006 0.695635
O O16 0.374846 0.687098 0.370019
O O17 0.985979 0.706784 0.170956
#
# Coordination Sequence:
#
# PCOD9278251 Si02
#       8
#     8   8   8   8   8   4   8   8
#     4  11  23  42  68  96 137 184 227 280 342 406
#     4  12  27  46  70 100 144 183 225 287 348 414
#     4  11  25  41  66  95 137 177 223 283 331 404
#     4  11  26  44  65 100 134 178 230 273 344 415
#     4  10  24  39  65 101 131 171 231 278 338 396
#     4  10  20  42  68  96 130 172 226 292 336 412
#     4  10  23  48  70 101 133 175 237 285 349 409
#     4  10  25  44  72 100 137 175 235 283 345 414
#
# _framework density 20.106639000000001
#
# number of rings (size 3 to 8) (size 9 to 14) (size 15 to 20)
#    0.000    1.333    2.000    1.600   13.067    2.667 
#    0.000    0.000    0.000    0.000    0.000    0.000 
#    0.000    0.000    0.000    0.000    0.000    0.000 
#
# Total GULP energy -167517.217188 kJ/mol
# GULP energy per Si atom -5583.907240 kJ/mol
# Density = 2.006088 g / cm^3
# Si number density = 20.106639 Si / 1000 Ang^3
#
#
#
# Elastic Constant Matrix: (Units=GPa)
#
#
# Indices 1 2 3 4 5 6 
#
# 1 114.1931 47.8010 39.2637 0.0007 -10.4387 0.0001
# 2 47.8010 100.0273 33.5554 -0.0005 -15.9739 0.0003
# 3 39.2637 33.5554 132.2501 0.0028 -6.8006 0.0001
# 4 0.0007 -0.0005 0.0028 -12.6996 -0.0006 -10.8919
# 5 -10.4387 -15.9739 -6.8006 -0.0006 18.7072 0.0001
# 6 0.0001 0.0003 0.0001 -10.8919 0.0001 32.3699
#
#
#
# Elastic Compliance Matrix: (Units=1/GPa)
#
#
# Indices 1 2 3 4 5 6 
#
# 1 0.011561 -0.004498 -0.002198 0.000000 0.001811 0.000000
# 2 -0.004498 0.014180 -0.001802 -0.000001 0.008943 0.000000
# 3 -0.002198 -0.001802 0.008692 0.000001 0.000394 0.000000
# 4 0.000000 -0.000001 0.000001 -0.061108 -0.000002 -0.020562
# 5 0.001811 0.008943 0.000394 -0.000002 0.062245 -0.000001
# 6 0.000000 0.000000 0.000000 -0.020562 -0.000001 0.023974
#
#
# Mechanical properties :
#
#
# Convention : Reuss Voigt Hill
#
# Bulk Modulus (GPa) = 57.35541 65.30121 61.32831
# Shear Modulus (GPa) = 60.71375 22.73220 41.72297
#
# Velocity S-wave (km/s) = 5.50104 3.36606 4.56025
# Velocity P-wave (km/s) = 8.30278 6.90327 7.63516
#
# Compressibility (1/GPa) = 0.01743515
#
# Stress axis : x y z
#
# Youngs Moduli (GPa) = 86.49452 70.52340 115.05406
#
# Poissons Ratio (x) = 0.31724 0.25289
# Poissons Ratio (y) = 0.38909 0.20737
# Poissons Ratio (z) = 0.19011 0.12711
#
# Static dielectric constant tensor:
#      x y z
#    x 1.693860 0.000000 -0.005470 
#    y 0.000000 1.707180 0.000000 
#    z -0.005470 0.000000 1.711730 
# 
# From -- ./inp_files/266660.got.cif
#   From: 2010.05.17/outbox.cif.g08.bks.cpg/sg15_134_cif.got.tgz:266660.got - 2010.06.03 18:47:42.
