data_PCOD9278478
_publ_section_title
;
Structure prediction by ZEFSAII (Michael W. Deem and Ramdas Pophale) SiO2 
 PCOD9278478
Probable space group: C 2/C
;
_chemical_formula_sum "Si O2"
_cell_formula_units_Z 44
_cell_length_a 11.547320
_cell_length_b 11.269435
_cell_length_c 15.202576
_cell_angle_alpha 90.000000
_cell_angle_beta 65.796980
_cell_angle_gamma 90.000000
_cell_volume 1804.439281
_symmetry_space_group_name_H-M "C 2/C"
_symmetry_group_IT_number 15
_symmetry_cell_setting 'monoclinic'
loop_
_space_group_symop_operation_xyz
x,y,z
-x,y,1/2-z
-x,-y,-z
x,-y,1/2+z
1/2+x,1/2+y,z
1/2-x,1/2+y,1/2-z
1/2-x,1/2-y,-z
1/2+x,1/2-y,1/2+z
loop_
_atom_site_type_symbol
_atom_site_label
_atom_site_fract_x
_atom_site_fract_y
_atom_site_fract_z
Si Si1 0.118790 0.756495 0.987376
Si Si2 0.528570 0.054124 0.394461
Si Si3 0.573205 0.623804 0.060298
Si Si4 0.164108 0.626769 0.613282
Si Si5 0.500000 0.534654 0.750000
Si Si6 0.729727 0.112759 0.790416
O O1 0.158576 0.690043 0.885169
O O2 0.041158 0.868955 0.974999
O O3 0.250000 0.750000 0.000000
O O4 0.015259 0.687775 0.079403
O O5 0.500000 0.000000 0.500000
O O6 0.433823 0.981481 0.361817
O O7 0.670366 0.020122 0.322403
O O8 0.604021 0.758409 0.084851
O O9 0.535476 0.545555 0.155057
O O10 0.707686 0.588189 0.976254
O O11 0.197193 0.654808 0.703222
O O12 0.377303 0.610227 0.763755
#
# Coordination Sequence:
#
# PCOD9278478 Si02
#       6
#     8   8   8   8   4   8
#     4  11  25  44  69  98 135 171 225 277 329 391
#     4  10  20  43  67  91 127 175 214 264 329 391
#     4  11  24  43  69  98 131 173 221 274 326 399
#     4  11  23  43  72  94 131 175 223 272 332 395
#     4  12  28  42  66 100 134 172 222 270 334 392
#     4  11  25  44  65  96 135 176 222 271 332 401
#
# _framework density 24.384305000000001
#
# number of rings (size 3 to 8) (size 9 to 14) (size 15 to 20)
#    0.000    1.091    3.636    3.818    7.636    0.727 
#    0.000    0.000    0.000    0.000    0.000    0.000 
#    0.000    0.000    0.000    0.000    0.000    0.000 
#
# Total GULP energy -123200.983574 kJ/mol
# GULP energy per Si atom -5600.044708 kJ/mol
# Density = 2.432881 g / cm^3
# Si number density = 24.384305 Si / 1000 Ang^3
#
#
#
# Elastic Constant Matrix: (Units=GPa)
#
#
# Indices 1 2 3 4 5 6 
#
# 1 180.1869 18.2780 46.7270 0.0000 -0.7590 0.0000
# 2 18.2780 37.3494 11.4629 0.0000 -3.5708 0.0000
# 3 46.7270 11.4629 109.6991 0.0000 -11.0303 0.0000
# 4 0.0000 0.0000 0.0000 22.2604 0.0000 -1.2070
# 5 -0.7590 -3.5708 -11.0303 0.0000 41.4437 0.0000
# 6 0.0000 0.0000 0.0000 -1.2070 0.0000 22.6157
#
#
#
# Elastic Compliance Matrix: (Units=1/GPa)
#
#
# Indices 1 2 3 4 5 6 
#
# 1 0.006463 -0.002447 -0.002575 0.000000 -0.000778 0.000000
# 2 -0.002447 0.028699 -0.001760 0.000000 0.001960 0.000000
# 3 -0.002575 -0.001760 0.010662 0.000000 0.002639 0.000000
# 4 0.000000 0.000000 0.000000 0.045053 0.000000 0.002405
# 5 -0.000778 0.001960 0.002639 0.000000 0.024986 0.000000
# 6 0.000000 0.000000 0.000000 0.002405 0.000000 0.044345
#
#
# Mechanical properties :
#
#
# Convention : Reuss Voigt Hill
#
# Bulk Modulus (GPa) = 30.99787 53.35235 42.17511
# Shear Modulus (GPa) = 27.09663 33.98180 30.53922
#
# Velocity S-wave (km/s) = 3.33713 3.73714 3.54278
# Velocity P-wave (km/s) = 5.25247 6.36780 5.83684
#
# Compressibility (1/GPa) = 0.03226028
#
# Stress axis : x y z
#
# Youngs Moduli (GPa) = 154.73788 34.84452 93.79065
#
# Poissons Ratio (x) = 0.08525 0.24154
# Poissons Ratio (y) = 0.37858 0.16504
# Poissons Ratio (z) = 0.39850 0.06132
#
# Static dielectric constant tensor:
#      x y z
#    x 1.935900 0.000000 0.021390 
#    y 0.000000 1.998100 0.000000 
#    z 0.021390 0.000000 1.914110 
# 
# From -- ./inp_files/143387.got.cif
#   From: 2010.05.17/outbox.cif.g08.bks.cpg/sg15_72_cif.got.tgz:143387.got - 2010.06.03 18:47:42.
