data_PCOD9278785
_publ_section_title
;
Structure prediction by ZEFSAII (Michael W. Deem and Ramdas Pophale) SiO2 
 PCOD9278785
Probable space group: C 2/C
;
_chemical_formula_sum "Si O2"
_cell_formula_units_Z 60
_cell_length_a 23.542387
_cell_length_b 11.909530
_cell_length_c 10.544681
_cell_angle_alpha 90.000000
_cell_angle_beta 112.748421
_cell_angle_gamma 90.000000
_cell_volume 2726.522948
_symmetry_space_group_name_H-M "C 2/C"
_symmetry_group_IT_number 15
_symmetry_cell_setting 'monoclinic'
loop_
_space_group_symop_operation_xyz
x,y,z
-x,y,1/2-z
-x,-y,-z
x,-y,1/2+z
1/2+x,1/2+y,z
1/2-x,1/2+y,1/2-z
1/2-x,1/2-y,-z
1/2+x,1/2-y,1/2+z
loop_
_atom_site_type_symbol
_atom_site_label
_atom_site_fract_x
_atom_site_fract_y
_atom_site_fract_z
Si Si1 0.895286 0.550149 0.500802
Si Si2 0.692959 0.811948 0.387707
Si Si3 0.787450 0.537803 0.204954
Si Si4 0.337692 0.653645 0.350123
Si Si5 0.058149 0.745616 0.095760
Si Si6 0.500000 0.383307 0.250000
Si Si7 0.435136 0.523147 0.015534
Si Si8 0.634219 0.829487 0.903994
O O1 0.855492 0.625376 0.563657
O O2 0.847524 0.530964 0.344877
O O3 0.948112 0.630025 0.487102
O O4 0.908754 0.429530 0.575536
O O5 0.750000 0.750000 0.500000
O O6 0.654529 0.727596 0.267638
O O7 0.726247 0.909211 0.335072
O O8 0.731360 0.605415 0.214438
O O9 0.805920 0.602281 0.091851
O O10 0.382773 0.549180 0.403954
O O11 0.349076 0.736649 0.478710
O O12 0.003796 0.799576 0.133078
O O13 0.106583 0.725080 0.252358
O O14 0.077018 0.845047 0.015198
O O15 0.554582 0.469640 0.335610
O O16 0.500000 0.500000 0.000000
#
# Coordination Sequence:
#
# PCOD9278785 Si02
#       8
#     8   8   8   8   8   4   8   8
#     4  10  21  40  60  94 131 172 209 261 320 391
#     4  11  23  37  57  91 137 169 212 264 312 399
#     4  10  22  36  59  91 132 169 215 258 318 395
#     4  12  22  38  66  93 129 181 215 265 334 394
#     4  10  22  41  71  90 125 168 212 275 331 389
#     4  10  20  46  68  96 126 160 216 288 340 386
#     4  10  24  41  64  96 127 166 221 274 332 388
#     4  10  21  40  61  92 130 171 214 263 323 400
#
# _framework density 22.006049999999998
#
# number of rings (size 3 to 8) (size 9 to 14) (size 15 to 20)
#    0.000    1.600    4.000    0.400    1.867    3.200 
#    0.000    0.667    0.000    0.000    0.000    0.000 
#    0.000    0.000    0.000    0.000    0.000    0.000 
#
# Total GULP energy -167299.438018 kJ/mol
# GULP energy per Si atom -5576.647934 kJ/mol
# Density = 2.195596 g / cm^3
# Si number density = 22.006050 Si / 1000 Ang^3
#
#
#
# Elastic Constant Matrix: (Units=GPa)
#
#
# Indices 1 2 3 4 5 6 
#
# 1 20.8312 11.5471 -8.4388 0.0000 -8.6730 0.0000
# 2 11.5471 125.6079 22.1328 0.0000 -0.3893 0.0000
# 3 -8.4388 22.1328 49.7447 0.0000 -0.4611 0.0000
# 4 0.0000 0.0000 0.0000 41.5251 0.0000 -2.9163
# 5 -8.6730 -0.3893 -0.4611 0.0000 22.1663 0.0000
# 6 0.0000 0.0000 0.0000 -2.9163 0.0000 23.3722
#
#
#
# Elastic Compliance Matrix: (Units=1/GPa)
#
#
# Indices 1 2 3 4 5 6 
#
# 1 0.071733 -0.009437 0.016630 0.000000 0.028247 0.000000
# 2 -0.009437 0.009880 -0.006031 0.000000 -0.003644 0.000000
# 3 0.016630 -0.006031 0.025671 0.000000 0.006935 0.000000
# 4 0.000000 0.000000 0.000000 0.024295 0.000000 0.003031
# 5 0.028247 -0.003644 0.006935 0.000000 0.056246 0.000000
# 6 0.000000 0.000000 0.000000 0.003031 0.000000 0.043164
#
#
# Mechanical properties :
#
#
# Convention : Reuss Voigt Hill
#
# Bulk Modulus (GPa) = 9.12341 27.40736 18.26539
# Shear Modulus (GPa) = 18.85357 28.80889 23.83123
#
# Velocity S-wave (km/s) = 2.93020 3.62212 3.29438
# Velocity P-wave (km/s) = 3.95005 5.47490 4.77375
#
# Compressibility (1/GPa) = 0.10960813
#
# Stress axis : x y z
#
# Youngs Moduli (GPa) = 13.94056 101.21276 38.95413
#
# Poissons Ratio (x) = 0.95515 -0.64779
# Poissons Ratio (y) = 0.13156 0.23492
# Poissons Ratio (z) = -0.23183 0.61038
#
# Static dielectric constant tensor:
#      x y z
#    x 1.976330 0.000000 -0.022790 
#    y 0.000000 1.886210 0.000000 
#    z -0.022790 0.000000 1.828490 
# 
# From -- ./inp_files/126290.got.cif
#   From: 2010.05.17/outbox.cif.g08.bks.cpg/sg15_64_cif.got.tgz:126290.got - 2010.06.03 18:47:42.
