data_PCOD9278881
_publ_section_title
;
Structure prediction by ZEFSAII (Michael W. Deem and Ramdas Pophale) SiO2 
 PCOD9278881
Probable space group: C 2/C
;
_chemical_formula_sum "Si O2"
_cell_formula_units_Z 48
_cell_length_a 24.075258
_cell_length_b 10.239606
_cell_length_c 8.605235
_cell_angle_alpha 90.000000
_cell_angle_beta 71.111273
_cell_angle_gamma 90.000000
_cell_volume 2007.134604
_symmetry_space_group_name_H-M "C 2/C"
_symmetry_group_IT_number 15
_symmetry_cell_setting 'monoclinic'
loop_
_space_group_symop_operation_xyz
x,y,z
-x,y,1/2-z
-x,-y,-z
x,-y,1/2+z
1/2+x,1/2+y,z
1/2-x,1/2+y,1/2-z
1/2-x,1/2-y,-z
1/2+x,1/2-y,1/2+z
loop_
_atom_site_type_symbol
_atom_site_label
_atom_site_fract_x
_atom_site_fract_y
_atom_site_fract_z
Si Si1 0.714302 0.060950 0.457285
Si Si2 0.364794 0.915398 0.190554
Si Si3 0.224554 0.142097 0.399470
Si Si4 0.000000 0.199271 0.250000
Si Si5 0.411869 0.349951 0.573285
Si Si6 0.500000 0.336030 0.250000
Si Si7 0.044222 0.623036 0.447874
O O1 0.666272 0.119501 0.619338
O O2 0.738823 0.149211 0.295861
O O3 0.683935 0.939590 0.395484
O O4 0.762399 0.995341 0.525045
O O5 0.409739 0.807797 0.090039
O O6 0.396524 0.054833 0.164929
O O7 0.250000 0.250000 0.500000
O O8 0.157005 0.130077 0.400860
O O9 0.046130 0.120349 0.316787
O O10 0.959704 0.298529 0.387778
O O11 0.449543 0.402429 0.396164
O O12 0.531040 0.236913 0.339787
O O13 0.000000 0.500000 0.500000
#
# Coordination Sequence:
#
# PCOD9278881 Si02
#       7
#     8   8   8   4   8   4   8
#     4  10  24  40  64  93 131 170 222 255 336 375
#     4  11  19  33  56  93 129 177 198 256 315 414
#     4  11  24  48  66  97 130 173 216 276 321 389
#     4  10  21  34  52  93 126 182 216 259 322 391
#     4  11  22  38  60  88 134 162 215 264 320 387
#     4  10  21  32  52  91 124 176 206 261 328 389
#     4  11  19  28  50  83 138 171 203 242 319 397
#
# _framework density 23.91469
#
# number of rings (size 3 to 8) (size 9 to 14) (size 15 to 20)
#    0.000    1.333    5.000    2.500    2.333    0.667 
#    0.000    0.000    0.000    3.000    0.000    0.000 
#    0.000    0.000    0.000    0.000    0.000    0.000 
#
# Total GULP energy -133749.211357 kJ/mol
# GULP energy per Si atom -5572.883807 kJ/mol
# Density = 2.386026 g / cm^3
# Si number density = 23.914690 Si / 1000 Ang^3
#
#
#
# Elastic Constant Matrix: (Units=GPa)
#
#
# Indices 1 2 3 4 5 6 
#
# 1 162.1755 24.1994 48.7369 0.0000 -4.7099 0.0000
# 2 24.1994 43.1192 31.7866 0.0000 -0.6628 0.0000
# 3 48.7369 31.7866 150.2082 0.0000 -10.9544 0.0000
# 4 0.0000 0.0000 0.0000 30.2450 0.0000 -0.0218
# 5 -4.7099 -0.6628 -10.9544 0.0000 25.9832 0.0000
# 6 0.0000 0.0000 0.0000 -0.0218 0.0000 43.1047
#
#
#
# Elastic Compliance Matrix: (Units=1/GPa)
#
#
# Indices 1 2 3 4 5 6 
#
# 1 0.007095 -0.002730 -0.001688 0.000000 0.000505 0.000000
# 2 -0.002730 0.028611 -0.005315 0.000000 -0.002006 0.000000
# 3 -0.001688 -0.005315 0.008561 0.000000 0.003168 0.000000
# 4 0.000000 0.000000 0.000000 0.033063 0.000000 0.000017
# 5 0.000505 -0.002006 0.003168 0.000000 0.039862 0.000000
# 6 0.000000 0.000000 0.000000 0.000017 0.000000 0.023199
#
#
# Mechanical properties :
#
#
# Convention : Reuss Voigt Hill
#
# Bulk Modulus (GPa) = 40.32012 62.77205 51.54609
# Shear Modulus (GPa) = 29.73977 36.58525 33.16251
#
# Velocity S-wave (km/s) = 3.53027 3.91554 3.72788
# Velocity P-wave (km/s) = 5.78909 6.83719 6.33486
#
# Compressibility (1/GPa) = 0.02480151
#
# Stress axis : x y z
#
# Youngs Moduli (GPa) = 140.93682 34.95149 116.81229
#
# Poissons Ratio (x) = 0.09543 0.19713
# Poissons Ratio (y) = 0.38479 0.62086
# Poissons Ratio (z) = 0.23784 0.18577
#
# Static dielectric constant tensor:
#      x y z
#    x 2.004080 0.000000 -0.062260 
#    y 0.000000 1.903450 0.000000 
#    z -0.062260 0.000000 1.802470 
# 
# From -- ./inp_files/55269.got.cif
#   From: 2010.05.17/outbox.cif.g08.bks.cpg/sg15_28_cif.got.tgz:55269.got - 2010.06.03 18:47:42.
