data_PCOD9278438
_publ_section_title
;
Structure prediction by ZEFSAII (Michael W. Deem and Ramdas Pophale) SiO2 
 PCOD9278438
Probable space group: C 2/C
;
_chemical_formula_sum "Si O2"
_cell_formula_units_Z 48
_cell_length_a 18.623343
_cell_length_b 10.988624
_cell_length_c 13.612468
_cell_angle_alpha 90.000000
_cell_angle_beta 53.883267
_cell_angle_gamma 90.000000
_cell_volume 2250.356029
_symmetry_space_group_name_H-M "C 2/C"
_symmetry_group_IT_number 15
_symmetry_cell_setting 'monoclinic'
loop_
_space_group_symop_operation_xyz
x,y,z
-x,y,1/2-z
-x,-y,-z
x,-y,1/2+z
1/2+x,1/2+y,z
1/2-x,1/2+y,1/2-z
1/2-x,1/2-y,-z
1/2+x,1/2-y,1/2+z
loop_
_atom_site_type_symbol
_atom_site_label
_atom_site_fract_x
_atom_site_fract_y
_atom_site_fract_z
Si Si1 0.116348 0.809890 0.859886
Si Si2 0.069727 0.693099 0.486029
Si Si3 0.216794 0.758201 0.135874
Si Si4 0.347791 0.979750 0.731325
Si Si5 0.346410 0.432605 0.177271
Si Si6 0.654338 0.788658 0.125726
O O1 0.200071 0.761093 0.855625
O O2 0.137575 0.807825 0.726267
O O3 0.032423 0.725839 0.950069
O O4 0.094740 0.951270 0.896595
O O5 0.097976 0.568640 0.407858
O O6 0.126696 0.809080 0.400229
O O7 0.089406 0.695916 0.585843
O O8 0.154127 0.643253 0.204203
O O9 0.165507 0.882297 0.202826
O O10 0.250000 0.750000 0.000000
O O11 0.250132 0.015377 0.772103
O O12 0.362048 0.089132 0.796131
O O13 0.750000 0.750000 0.000000
#
# Coordination Sequence:
#
# PCOD9278438 Si02
#       6
#     8   8   8   8   8   8
#     4  11  24  40  65  99 134 170 226 291 340 391
#     4  11  24  42  65  99 140 173 228 290 346 387
#     4  10  22  39  65  93 125 176 230 268 339 406
#     4  10  22  40  65  93 131 178 223 276 320 413
#     4  10  20  43  64  93 130 178 225 276 333 414
#     4  12  22  41  68  97 133 183 230 267 337 421
#
# _framework density 21.329958000000001
#
# number of rings (size 3 to 8) (size 9 to 14) (size 15 to 20)
#    0.000    1.333    3.333    3.000    4.667    0.667 
#    0.000    6.667    0.000    0.000    0.000    0.000 
#    0.000    0.000    0.000    0.000    0.000    0.000 
#
# Total GULP energy -133656.090165 kJ/mol
# GULP energy per Si atom -5569.003757 kJ/mol
# Density = 2.128141 g / cm^3
# Si number density = 21.329958 Si / 1000 Ang^3
#
#
#
# Elastic Constant Matrix: (Units=GPa)
#
#
# Indices 1 2 3 4 5 6 
#
# 1 57.0648 26.2001 27.8210 0.0000 -0.6756 0.0000
# 2 26.2001 117.3078 20.3770 0.0000 -2.7052 0.0000
# 3 27.8210 20.3770 88.6099 0.0000 9.8739 0.0000
# 4 0.0000 0.0000 0.0000 46.6110 0.0000 -7.3208
# 5 -0.6756 -2.7052 9.8739 0.0000 37.1308 0.0000
# 6 0.0000 0.0000 0.0000 -7.3208 0.0000 16.3055
#
#
#
# Elastic Compliance Matrix: (Units=1/GPa)
#
#
# Indices 1 2 3 4 5 6 
#
# 1 0.022415 -0.003861 -0.006352 0.000000 0.001816 0.000000
# 2 -0.003861 0.009599 -0.001098 0.000000 0.000921 0.000000
# 3 -0.006352 -0.001098 0.013968 0.000000 -0.003910 0.000000
# 4 0.000000 0.000000 0.000000 0.023082 0.000000 0.010363
# 5 0.001816 0.000921 -0.003910 0.000000 0.028072 0.000000
# 6 0.000000 0.000000 0.000000 0.010363 0.000000 0.065982
#
#
# Mechanical properties :
#
#
# Convention : Reuss Voigt Hill
#
# Bulk Modulus (GPa) = 42.80816 45.75318 44.28067
# Shear Modulus (GPa) = 25.83635 32.58174 29.20904
#
# Velocity S-wave (km/s) = 3.48411 3.91258 3.70454
# Velocity P-wave (km/s) = 6.02482 6.47362 6.25325
#
# Compressibility (1/GPa) = 0.02336003
#
# Stress axis : x y z
#
# Youngs Moduli (GPa) = 44.61295 104.17918 71.59253
#
# Poissons Ratio (x) = 0.40224 0.45476
# Poissons Ratio (y) = 0.17225 0.07859
# Poissons Ratio (z) = 0.28339 0.11436
#
# Static dielectric constant tensor:
#      x y z
#    x 1.825820 0.000000 -0.010620 
#    y 0.000000 1.889870 0.000000 
#    z -0.010620 0.000000 1.843490 
# 
# From -- ./inp_files/111452.got.cif
#   From: 2010.05.17/outbox.cif.g08.bks.cpg/sg15_56_cif.got.tgz:111452.got - 2010.06.03 18:47:42.
