data_PCOD9278666
_publ_section_title
;
Structure prediction by ZEFSAII (Michael W. Deem and Ramdas Pophale) SiO2 
 PCOD9278666
Probable space group: C 2/C
;
_chemical_formula_sum "Si O2"
_cell_formula_units_Z 44
_cell_length_a 17.952930
_cell_length_b 5.096288
_cell_length_c 18.765423
_cell_angle_alpha 90.000000
_cell_angle_beta 101.255881
_cell_angle_gamma 90.000000
_cell_volume 1683.886165
_symmetry_space_group_name_H-M "C 2/C"
_symmetry_group_IT_number 15
_symmetry_cell_setting 'monoclinic'
loop_
_space_group_symop_operation_xyz
x,y,z
-x,y,1/2-z
-x,-y,-z
x,-y,1/2+z
1/2+x,1/2+y,z
1/2-x,1/2+y,1/2-z
1/2-x,1/2-y,-z
1/2+x,1/2-y,1/2+z
loop_
_atom_site_type_symbol
_atom_site_label
_atom_site_fract_x
_atom_site_fract_y
_atom_site_fract_z
Si Si1 0.905309 0.798265 0.127243
Si Si2 0.746854 0.869058 0.079005
Si Si3 0.441907 0.598459 0.360645
Si Si4 0.000000 0.491909 0.250000
Si Si5 0.589794 0.937021 0.016211
Si Si6 0.779671 0.013199 0.794627
O O1 0.830906 0.979075 0.111381
O O2 0.932195 0.663263 0.204346
O O3 0.893009 0.584378 0.063618
O O4 0.980928 0.943520 0.116417
O O5 0.669840 0.047066 0.065026
O O6 0.743072 0.633761 0.136385
O O7 0.750000 0.750000 0.000000
O O8 0.464840 0.825204 0.308574
O O9 0.414848 0.682283 0.433910
O O10 0.370153 0.453122 0.314201
O O11 0.500000 0.000000 0.000000
O O12 0.758258 0.788195 0.732524
#
# Coordination Sequence:
#
# PCOD9278666 Si02
#       6
#     8   8   8   4   8   8
#     4  11  23  42  69  92 136 171 231 281 346 406
#     4   9  22  44  68 100 138 183 235 291 346 418
#     4  11  25  40  67 101 131 182 227 284 348 411
#     4  12  24  38  66  98 138 172 228 284 348 410
#     4  10  20  44  68  93 131 179 226 284 342 415
#     4  11  26  46  72 102 146 186 234 288 354 419
#
# _framework density 26.130030000000001
#
# number of rings (size 3 to 8) (size 9 to 14) (size 15 to 20)
#    0.000    1.455    1.818    2.182    7.636    0.000 
#    0.000    1.818    0.000    0.000    0.000    0.000 
#    0.000    0.000    0.000    0.000    0.000    0.000 
#
# Total GULP energy -122754.600089 kJ/mol
# GULP energy per Si atom -5579.754550 kJ/mol
# Density = 2.607056 g / cm^3
# Si number density = 26.130030 Si / 1000 Ang^3
#
#
#
# Elastic Constant Matrix: (Units=GPa)
#
#
# Indices 1 2 3 4 5 6 
#
# 1 171.0940 12.2191 46.8738 0.0000 62.4141 0.0000
# 2 12.2191 35.1156 26.5028 0.0000 2.5747 0.0000
# 3 46.8738 26.5028 150.2020 0.0000 11.6143 0.0000
# 4 0.0000 0.0000 0.0000 22.8438 0.0000 -9.6709
# 5 62.4141 2.5747 11.6143 0.0000 80.5430 0.0000
# 6 0.0000 0.0000 0.0000 -9.6709 0.0000 40.4654
#
#
#
# Elastic Compliance Matrix: (Units=1/GPa)
#
#
# Indices 1 2 3 4 5 6 
#
# 1 0.008877 -0.001038 -0.002081 0.000000 -0.006545 0.000000
# 2 -0.001038 0.032978 -0.005537 0.000000 0.000549 0.000000
# 3 -0.002081 -0.005537 0.008238 0.000000 0.000602 0.000000
# 4 0.000000 0.000000 0.000000 0.048703 0.000000 0.011640
# 5 -0.006545 0.000549 0.000602 0.000000 0.017384 0.000000
# 6 0.000000 0.000000 0.000000 0.011640 0.000000 0.027494
#
#
# Mechanical properties :
#
#
# Convention : Reuss Voigt Hill
#
# Bulk Modulus (GPa) = 30.50741 58.62254 44.56498
# Shear Modulus (GPa) = 29.08463 46.82483 37.95473
#
# Velocity S-wave (km/s) = 3.33989 4.23779 3.81535
# Velocity P-wave (km/s) = 5.15498 6.81386 6.04163
#
# Compressibility (1/GPa) = 0.03277892
#
# Stress axis : x y z
#
# Youngs Moduli (GPa) = 112.65418 30.32369 121.39501
#
# Poissons Ratio (x) = 0.03149 0.25260
# Poissons Ratio (y) = 0.11699 0.67219
# Poissons Ratio (z) = 0.23441 0.16791
#
# Static dielectric constant tensor:
#      x y z
#    x 2.159040 0.000000 -0.037410 
#    y 0.000000 2.126280 0.000000 
#    z -0.037410 0.000000 2.066670 
# 
# From -- ./inp_files/246477.got.cif
#   From: 2010.05.17/outbox.cif.g08.bks.cpg/sg15_124_cif.got.tgz:246477.got - 2010.06.03 18:47:42.
