data_PCOD9278996
_publ_section_title
;
Structure prediction by ZEFSAII (Michael W. Deem and Ramdas Pophale) SiO2 
 PCOD9278996
Probable space group: C 2/C
;
_chemical_formula_sum "Si O2"
_cell_formula_units_Z 32
_cell_length_a 14.798100
_cell_length_b 20.697035
_cell_length_c 14.210325
_cell_angle_alpha 90.000000
_cell_angle_beta 20.684662
_cell_angle_gamma 90.000000
_cell_volume 1537.336066
_symmetry_space_group_name_H-M "C 2/C"
_symmetry_group_IT_number 15
_symmetry_cell_setting 'monoclinic'
loop_
_space_group_symop_operation_xyz
x,y,z
-x,y,1/2-z
-x,-y,-z
x,-y,1/2+z
1/2+x,1/2+y,z
1/2-x,1/2+y,1/2-z
1/2-x,1/2-y,-z
1/2+x,1/2-y,1/2+z
loop_
_atom_site_type_symbol
_atom_site_label
_atom_site_fract_x
_atom_site_fract_y
_atom_site_fract_z
Si Si1 0.508698 0.277278 0.134071
Si Si2 0.298021 0.907028 0.861243
Si Si3 0.442101 0.927353 0.523837
Si Si4 0.094106 0.054809 0.053920
O O1 0.500000 0.249591 0.250000
O O2 0.235107 0.259465 0.360797
O O3 0.583884 0.351696 0.071164
O O4 0.500000 0.905662 0.750000
O O5 0.448206 0.892255 0.617908
O O6 0.165371 0.977870 0.987986
O O7 0.151791 0.929176 0.769935
O O8 0.500000 0.000000 0.500000
O O9 0.653362 0.912637 0.238234
O O10 0.000000 0.072953 0.250000
#
# Coordination Sequence:
#
# PCOD9278996 Si02
#       4
#     8   8   8   8
#     4  10  21  34  48  70 101 137 176 210 238 285
#     4  11  21  34  53  75 105 144 172 198 251 304
#     4  10  21  34  49  74 102 130 172 211 242 298
#     4  11  21  35  52  73 101 135 171 209 252 296
#
# _framework density 20.815228000000001
#
# number of rings (size 3 to 8) (size 9 to 14) (size 15 to 20)
#    0.000    1.500    0.000    9.750    0.000    8.000 
#    0.000    0.000    0.000    0.000    0.000    0.000 
#    0.000   20.000    0.000    0.000    0.000    0.750 
#
# Total GULP energy -89240.113477 kJ/mol
# GULP energy per Si atom -5577.507092 kJ/mol
# Density = 2.076785 g / cm^3
# Si number density = 20.815228 Si / 1000 Ang^3
#
#
#
# Elastic Constant Matrix: (Units=GPa)
#
#
# Indices 1 2 3 4 5 6 
#
# 1 108.6633 21.5443 49.8724 0.0612 7.7317 -0.0276
# 2 21.5443 37.8174 33.4842 0.0357 -5.3521 0.1652
# 3 49.8724 33.4842 179.2426 0.0942 5.7003 0.0456
# 4 0.0612 0.0357 0.0942 32.1813 0.0016 3.5171
# 5 7.7317 -5.3521 5.7003 0.0016 45.7471 0.0170
# 6 -0.0276 0.1652 0.0456 3.5171 0.0170 -2.4525
#
#
#
# Elastic Compliance Matrix: (Units=1/GPa)
#
#
# Indices 1 2 3 4 5 6 
#
# 1 0.011316 -0.004830 -0.002176 0.000040 -0.002206 -0.000452
# 2 -0.004830 0.034670 -0.005309 -0.000232 0.005533 0.001996
# 3 -0.002176 -0.005309 0.007213 0.000010 -0.001152 -0.000193
# 4 0.000040 -0.000232 0.000010 0.026865 -0.000050 0.038511
# 5 -0.002206 0.005533 -0.001152 -0.000050 0.023023 0.000463
# 6 -0.000452 0.001996 -0.000193 0.038511 0.000463 -0.352385
#
#
# Mechanical properties :
#
#
# Convention : Reuss Voigt Hill
#
# Bulk Modulus (GPa) = 35.00392 59.50280 47.25336
# Shear Modulus (GPa) = -23.24021 29.81666 3.28823
#
# Velocity S-wave (km/s) = -3.34503 3.78887 1.25823
# Velocity P-wave (km/s) = 1.39069 6.91296 4.98613
#
# Compressibility (1/GPa) = 0.02856823
#
# Stress axis : x y z
#
# Youngs Moduli (GPa) = 88.37078 28.84342 138.64002
#
# Poissons Ratio (x) = 0.13932 0.30167
# Poissons Ratio (y) = 0.42686 0.73605
# Poissons Ratio (z) = 0.19229 0.15313
#
# Static dielectric constant tensor:
#      x y z
#    x 1.799630 0.000280 0.041850 
#    y 0.000280 1.681360 -0.000060 
#    z 0.041850 -0.000060 1.914900 
# 
# From -- ./inp_files/9969.got.cif
#   From: 2010.05.17/outbox.cif.g08.bks.cpg/sg15_5_cif.got.tgz:9969.got - 2010.06.03 18:47:42.
