data_PCOD9278763
_publ_section_title
;
Structure prediction by ZEFSAII (Michael W. Deem and Ramdas Pophale) SiO2 
 PCOD9278763
Probable space group: C 2/C
;
_chemical_formula_sum "Si O2"
_cell_formula_units_Z 52
_cell_length_a 8.354557
_cell_length_b 15.684060
_cell_length_c 19.644702
_cell_angle_alpha 90.000000
_cell_angle_beta 102.141521
_cell_angle_gamma 90.000000
_cell_volume 2516.531459
_symmetry_space_group_name_H-M "C 2/C"
_symmetry_group_IT_number 15
_symmetry_cell_setting 'monoclinic'
loop_
_space_group_symop_operation_xyz
x,y,z
-x,y,1/2-z
-x,-y,-z
x,-y,1/2+z
1/2+x,1/2+y,z
1/2-x,1/2+y,1/2-z
1/2-x,1/2-y,-z
1/2+x,1/2-y,1/2+z
loop_
_atom_site_type_symbol
_atom_site_label
_atom_site_fract_x
_atom_site_fract_y
_atom_site_fract_z
Si Si1 0.156165 0.296110 0.408242
Si Si2 0.570719 0.955054 0.330393
Si Si3 0.845089 0.120256 0.046520
Si Si4 0.500000 0.552693 0.250000
Si Si5 0.736045 0.537698 0.879977
Si Si6 0.188591 0.889447 0.639025
Si Si7 0.718620 0.222466 0.574411
O O1 0.140201 0.359052 0.343390
O O2 0.200725 0.196766 0.404242
O O3 0.282001 0.342366 0.470290
O O4 0.976564 0.290903 0.428384
O O5 0.500000 0.970343 0.250000
O O6 0.418404 0.961643 0.367152
O O7 0.701188 0.027585 0.358401
O O8 0.038145 0.105912 0.072304
O O9 0.767795 0.031047 0.060079
O O10 0.386584 0.495866 0.189901
O O11 0.389535 0.607186 0.292332
O O12 0.696643 0.632901 0.900812
O O13 0.272479 0.799895 0.628539
O O14 0.750000 0.250000 0.500000
#
# Coordination Sequence:
#
# PCOD9278763 Si02
#       7
#     8   8   8   4   8   8   8
#     4   9  21  41  63  92 126 162 214 251 330 381
#     4  11  22  40  62  93 122 165 211 257 320 384
#     4   9  20  42  62  91 120 166 208 262 317 378
#     4  10  20  46  58  86 124 168 214 252 316 386
#     4  10  22  41  62  88 126 165 208 261 316 377
#     4  10  22  41  64  91 126 166 210 263 318 384
#     4  10  23  41  61  96 128 164 211 267 323 376
#
# _framework density 20.663360999999998
#
# number of rings (size 3 to 8) (size 9 to 14) (size 15 to 20)
#    0.000    2.154    1.538    0.000    4.308    1.846 
#   37.385    0.000    0.000    0.000    0.000    0.000 
#    0.000    0.000    0.000    0.000    0.000    0.000 
#
# Total GULP energy -145088.706852 kJ/mol
# GULP energy per Si atom -5580.334879 kJ/mol
# Density = 2.061633 g / cm^3
# Si number density = 20.663361 Si / 1000 Ang^3
#
#
#
# Elastic Constant Matrix: (Units=GPa)
#
#
# Indices 1 2 3 4 5 6 
#
# 1 22.7355 23.5987 13.8557 0.0000 -3.6421 0.0000
# 2 23.5987 153.3672 34.0820 0.0000 -17.3910 0.0000
# 3 13.8557 34.0820 51.5417 0.0000 0.2224 0.0000
# 4 0.0000 0.0000 0.0000 25.6536 0.0000 4.6800
# 5 -3.6421 -17.3910 0.2224 0.0000 30.0510 0.0000
# 6 0.0000 0.0000 0.0000 4.6800 0.0000 33.0795
#
#
#
# Elastic Compliance Matrix: (Units=1/GPa)
#
#
# Indices 1 2 3 4 5 6 
#
# 1 0.057787 -0.005882 -0.011661 0.000000 0.003686 0.000000
# 2 -0.005882 0.008891 -0.004317 0.000000 0.004464 0.000000
# 3 -0.011661 -0.004317 0.025409 0.000000 -0.004100 0.000000
# 4 0.000000 0.000000 0.000000 0.040014 0.000000 -0.005661
# 5 0.003686 0.004464 -0.004100 0.000000 0.036337 0.000000
# 6 0.000000 0.000000 0.000000 -0.005661 0.000000 0.031031
#
#
# Mechanical properties :
#
#
# Convention : Reuss Voigt Hill
#
# Bulk Modulus (GPa) = 20.67564 41.19080 30.93322
# Shear Modulus (GPa) = 19.28187 28.16402 23.72294
#
# Velocity S-wave (km/s) = 3.05805 3.69588 3.39199
# Velocity P-wave (km/s) = 4.74306 6.17982 5.50848
#
# Compressibility (1/GPa) = 0.04836609
#
# Stress axis : x y z
#
# Youngs Moduli (GPa) = 17.30505 112.47277 39.35637
#
# Poissons Ratio (x) = 0.66161 0.45892
# Poissons Ratio (y) = 0.10180 0.16991
# Poissons Ratio (z) = 0.20179 0.48556
#
# Static dielectric constant tensor:
#      x y z
#    x 1.766770 0.000000 -0.001880 
#    y 0.000000 1.785150 0.000000 
#    z -0.001880 0.000000 1.732160 
# 
# From -- ./inp_files/231234.got.cif
#   From: 2010.05.17/outbox.cif.g08.bks.cpg/sg15_116_cif.got.tgz:231234.got - 2010.06.03 18:47:42.
