data_PCOD9278214
_publ_section_title
;
Structure prediction by ZEFSAII (Michael W. Deem and Ramdas Pophale) SiO2 
 PCOD9278214
Probable space group: C 2/C
;
_chemical_formula_sum "Si O2"
_cell_formula_units_Z 48
_cell_length_a 8.122745
_cell_length_b 20.279595
_cell_length_c 15.515147
_cell_angle_alpha 90.000000
_cell_angle_beta 90.266512
_cell_angle_gamma 90.000000
_cell_volume 2555.720128
_symmetry_space_group_name_H-M "C 2/C"
_symmetry_group_IT_number 15
_symmetry_cell_setting 'monoclinic'
loop_
_space_group_symop_operation_xyz
x,y,z
-x,y,1/2-z
-x,-y,-z
x,-y,1/2+z
1/2+x,1/2+y,z
1/2-x,1/2+y,1/2-z
1/2-x,1/2-y,-z
1/2+x,1/2-y,1/2+z
loop_
_atom_site_type_symbol
_atom_site_label
_atom_site_fract_x
_atom_site_fract_y
_atom_site_fract_z
Si Si1 0.084997 0.205921 0.495594
Si Si2 0.875639 0.432027 0.136022
Si Si3 0.471083 0.790200 0.342446
Si Si4 0.751294 0.468737 0.322902
Si Si5 0.403706 0.334807 0.162487
Si Si6 0.143423 0.051691 0.473073
O O1 0.250000 0.250000 0.500000
O O2 0.103083 0.129098 0.472851
O O3 0.982652 0.241768 0.421698
O O4 0.994921 0.202897 0.586773
O O5 0.779548 0.461082 0.219641
O O6 0.784776 0.451913 0.047964
O O7 0.901296 0.352278 0.146525
O O8 0.064663 0.455246 0.140441
O O9 0.500000 0.757657 0.250000
O O10 0.286470 0.816127 0.336592
O O11 0.614913 0.413762 0.347881
O O12 0.697053 0.532518 0.376030
O O13 0.500000 0.321218 0.250000
O O14 0.000000 0.000000 0.500000
#
# Coordination Sequence:
#
# PCOD9278214 Si02
#       6
#     8   8   8   8   8   8
#     4  12  24  41  63  94 131 167 212 268 325 384
#     4  10  20  42  68  89 122 171 210 256 318 390
#     4  11  21  41  67  92 122 168 216 261 321 387
#     4  10  21  39  67  92 120 165 217 255 314 383
#     4  11  21  39  67  94 120 168 220 257 314 399
#     4  12  24  39  63  98 129 163 211 268 319 379
#
# _framework density 18.781397999999999
#
# number of rings (size 3 to 8) (size 9 to 14) (size 15 to 20)
#    0.000    1.000    6.667    3.000    0.000    0.000 
#    3.000    0.000    7.333    0.000    0.000    0.000 
#    0.000    0.000    0.000    0.000    0.000    0.000 
#
# Total GULP energy -133771.031895 kJ/mol
# GULP energy per Si atom -5573.792996 kJ/mol
# Density = 1.873865 g / cm^3
# Si number density = 18.781398 Si / 1000 Ang^3
#
#
#
# Elastic Constant Matrix: (Units=GPa)
#
#
# Indices 1 2 3 4 5 6 
#
# 1 69.0819 31.0289 44.4322 0.0000 3.2378 0.0000
# 2 31.0289 87.1933 53.9038 0.0000 -1.3651 0.0000
# 3 44.4322 53.9038 148.0526 0.0000 -1.5903 0.0000
# 4 0.0000 0.0000 0.0000 1939.2692 0.0000 1087.2100
# 5 3.2378 -1.3651 -1.5903 0.0000 36.5601 0.0000
# 6 0.0000 0.0000 0.0000 1087.2100 0.0000 647.9078
#
#
#
# Elastic Compliance Matrix: (Units=1/GPa)
#
#
# Indices 1 2 3 4 5 6 
#
# 1 0.019205 -0.004245 -0.004240 0.000000 -0.002044 0.000000
# 2 -0.004245 0.015742 -0.004449 0.000000 0.000770 0.000000
# 3 -0.004240 -0.004449 0.009653 0.000000 0.000629 0.000000
# 4 0.000000 0.000000 0.000000 0.008704 0.000000 -0.014605
# 5 -0.002044 0.000770 0.000629 0.000000 0.027589 0.000000
# 6 0.000000 0.000000 0.000000 -0.014605 0.000000 0.026051
#
#
# Mechanical properties :
#
#
# Convention : Reuss Voigt Hill
#
# Bulk Modulus (GPa) = 53.38463 62.56196 57.97330
# Shear Modulus (GPa) = 35.95646 536.41162 286.18404
#
# Velocity S-wave (km/s) = 4.38021 16.91827 12.35747
# Velocity P-wave (km/s) = 7.35307 20.37204 15.31483
#
# Compressibility (1/GPa) = 0.01873198
#
# Stress axis : x y z
#
# Youngs Moduli (GPa) = 52.06907 63.52414 103.58974
#
# Poissons Ratio (x) = 0.26967 0.43922
# Poissons Ratio (y) = 0.22104 0.46089
# Poissons Ratio (z) = 0.22078 0.28263
#
# Static dielectric constant tensor:
#      x y z
#    x 1.668610 0.000000 -0.003570 
#    y 0.000000 1.682170 0.000000 
#    z -0.003570 0.000000 1.651730 
# 
# From -- ./inp_files/135497.got.cif
#   From: 2010.05.17/outbox.cif.g08.bks.cpg/sg15_68_cif.got.tgz:135497.got - 2010.06.03 18:47:42.
