data_PCOD9278905
_publ_section_title
;
Structure prediction by ZEFSAII (Michael W. Deem and Ramdas Pophale) SiO2 
 PCOD9278905
Probable space group: C 2/C
;
_chemical_formula_sum "Si O2"
_cell_formula_units_Z 56
_cell_length_a 18.771081
_cell_length_b 13.939860
_cell_length_c 20.468586
_cell_angle_alpha 90.000000
_cell_angle_beta 28.863047
_cell_angle_gamma 90.000000
_cell_volume 2585.405789
_symmetry_space_group_name_H-M "C 2/C"
_symmetry_group_IT_number 15
_symmetry_cell_setting 'monoclinic'
loop_
_space_group_symop_operation_xyz
x,y,z
-x,y,1/2-z
-x,-y,-z
x,-y,1/2+z
1/2+x,1/2+y,z
1/2-x,1/2+y,1/2-z
1/2-x,1/2-y,-z
1/2+x,1/2-y,1/2+z
loop_
_atom_site_type_symbol
_atom_site_label
_atom_site_fract_x
_atom_site_fract_y
_atom_site_fract_z
Si Si1 0.328474 0.432909 0.863045
Si Si2 0.391149 0.223094 0.781303
Si Si3 0.074172 0.812919 0.512943
Si Si4 0.452254 0.514901 0.642506
Si Si5 0.723872 0.590687 0.513621
Si Si6 0.528003 0.720270 0.910901
Si Si7 0.812473 0.255343 0.850806
O O1 0.500000 0.442754 0.750000
O O2 0.311806 0.320480 0.871933
O O3 0.327342 0.483159 0.793853
O O4 0.224953 0.493017 0.993557
O O5 0.500000 0.187399 0.750000
O O6 0.488423 0.258424 0.641078
O O7 0.246231 0.161025 0.885448
O O8 0.067173 0.748648 0.452921
O O9 0.992580 0.916293 0.574440
O O10 0.591232 0.555880 0.573073
O O11 0.414589 0.609729 0.633409
O O12 0.830785 0.654482 0.384250
O O13 0.671336 0.661941 0.615020
O O14 0.593163 0.758654 0.790548
O O15 0.354809 0.737209 0.040644
#
# Coordination Sequence:
#
# PCOD9278905 Si02
#       7
#     8   8   8   8   8   8   8
#     4   8  14  29  54  84 106 143 192 241 283 336
#     4  10  21  37  62  87 113 150 201 250 301 340
#     4  11  22  38  61  87 119 158 197 246 298 362
#     4   9  18  32  59  83 112 155 206 241 278 349
#     4   9  17  31  55  86 114 145 199 247 293 327
#     4  11  21  37  56  88 122 158 199 238 297 369
#     4  10  21  32  60  85 119 156 194 247 295 349
#
# _framework density 21.660042000000001
#
# number of rings (size 3 to 8) (size 9 to 14) (size 15 to 20)
#    0.000    2.286    1.429    2.571    2.000    1.714 
#    0.000    0.000   15.714    0.857    0.000    0.000 
#    0.000    0.000    0.000    0.000    0.000    0.000 
#
# Total GULP energy -155940.882049 kJ/mol
# GULP energy per Si atom -5569.317216 kJ/mol
# Density = 2.161074 g / cm^3
# Si number density = 21.660042 Si / 1000 Ang^3
#
#
#
# Elastic Constant Matrix: (Units=GPa)
#
#
# Indices 1 2 3 4 5 6 
#
# 1 71.9134 -0.7957 28.8780 0.0001 25.9623 0.0000
# 2 -0.7957 30.9349 8.5124 -0.0005 16.4108 0.0001
# 3 28.8780 8.5124 77.0736 -0.0007 5.3747 0.0003
# 4 0.0001 -0.0005 -0.0007 11.4024 0.0002 -4.3663
# 5 25.9623 16.4108 5.3747 0.0002 29.9395 -0.0001
# 6 0.0000 0.0001 0.0003 -4.3663 -0.0001 13.1913
#
#
#
# Elastic Compliance Matrix: (Units=1/GPa)
#
#
# Indices 1 2 3 4 5 6 
#
# 1 0.034977 0.027286 -0.013125 0.000001 -0.042931 0.000000
# 2 0.027286 0.067727 -0.013636 0.000004 -0.058337 0.000001
# 3 -0.013125 -0.013636 0.018313 0.000000 0.015568 0.000000
# 4 0.000001 0.000004 0.000000 0.100430 -0.000004 0.033242
# 5 -0.042931 -0.058337 0.015568 -0.000004 0.099810 -0.000001
# 6 0.000000 0.000001 0.000000 0.033242 -0.000001 0.086811
#
#
# Mechanical properties :
#
#
# Convention : Reuss Voigt Hill
#
# Bulk Modulus (GPa) = 8.19219 28.12349 18.15784
# Shear Modulus (GPa) = 11.16801 20.46176 15.81489
#
# Velocity S-wave (km/s) = 2.27316 3.07690 2.70504
# Velocity P-wave (km/s) = 3.26803 5.06313 4.26118
#
# Compressibility (1/GPa) = 0.12206754
#
# Stress axis : x y z
#
# Youngs Moduli (GPa) = 28.59020 14.76508 54.60704
#
# Poissons Ratio (x) = -0.40288 0.71672
# Poissons Ratio (y) = -0.78011 0.74460
# Poissons Ratio (z) = 0.37525 0.20133
#
# Static dielectric constant tensor:
#      x y z
#    x 1.900890 0.000000 0.028940 
#    y 0.000000 1.861310 0.000000 
#    z 0.028940 0.000000 1.783350 
# 
# From -- ./inp_files/249232.got.cif
#   From: 2010.05.17/outbox.cif.g08.bks.cpg/sg15_125_cif.got.tgz:249232.got - 2010.06.03 18:47:42.
