data_PCOD9278678
_publ_section_title
;
Structure prediction by ZEFSAII (Michael W. Deem and Ramdas Pophale) SiO2 
 PCOD9278678
Probable space group: C 2/C
;
_chemical_formula_sum "Si O2"
_cell_formula_units_Z 40
_cell_length_a 7.946833
_cell_length_b 22.002320
_cell_length_c 9.736519
_cell_angle_alpha 90.000000
_cell_angle_beta 103.031243
_cell_angle_gamma 90.000000
_cell_volume 1658.576356
_symmetry_space_group_name_H-M "C 2/C"
_symmetry_group_IT_number 15
_symmetry_cell_setting 'monoclinic'
loop_
_space_group_symop_operation_xyz
x,y,z
-x,y,1/2-z
-x,-y,-z
x,-y,1/2+z
1/2+x,1/2+y,z
1/2-x,1/2+y,1/2-z
1/2-x,1/2-y,-z
1/2+x,1/2-y,1/2+z
loop_
_atom_site_type_symbol
_atom_site_label
_atom_site_fract_x
_atom_site_fract_y
_atom_site_fract_z
Si Si1 0.103546 0.958541 0.909545
Si Si2 0.791423 0.381753 0.127698
Si Si3 0.335618 0.064572 0.901551
Si Si4 0.883776 0.331858 0.601544
Si Si5 0.376141 0.764491 0.326732
O O1 0.000000 0.952721 0.750000
O O2 0.284294 0.996025 0.922238
O O3 0.156641 0.893411 0.982714
O O4 0.000000 0.000000 0.000000
O O5 0.727068 0.421235 0.245158
O O6 0.811783 0.316897 0.207649
O O7 0.972784 0.412030 0.108531
O O8 0.291423 0.109457 0.018999
O O9 0.768310 0.279731 0.646259
O O10 0.956297 0.297063 0.477613
O O11 0.000000 0.353053 0.750000
O O12 0.500000 0.727579 0.250000
#
# Coordination Sequence:
#
# PCOD9278678 Si02
#       5
#     8   8   8   8   8
#     4  12  25  43  68 107 143 175 225 288 350 406
#     4  10  20  44  71  97 136 187 228 273 340 418
#     4  10  21  44  69  96 138 183 227 279 339 415
#     4  10  22  41  68 102 129 178 235 283 338 407
#     4  10  20  44  69  96 137 178 228 287 341 400
#
# _framework density 24.117069999999998
#
# number of rings (size 3 to 8) (size 9 to 14) (size 15 to 20)
#    0.000    1.600    6.000    0.600    0.000    2.400 
#   14.400    1.000    0.000    0.000    0.000    0.000 
#    0.000    0.000    0.000    0.000    0.000    0.000 
#
# Total GULP energy -111399.286705 kJ/mol
# GULP energy per Si atom -5569.964335 kJ/mol
# Density = 2.406218 g / cm^3
# Si number density = 24.117070 Si / 1000 Ang^3
#
#
#
# Elastic Constant Matrix: (Units=GPa)
#
#
# Indices 1 2 3 4 5 6 
#
# 1 47.6459 21.9147 70.7176 0.0000 -7.5896 0.0000
# 2 21.9147 76.3142 74.2729 0.0000 4.0184 0.0000
# 3 70.7176 74.2729 196.7146 0.0000 5.2183 0.0000
# 4 0.0000 0.0000 0.0000 24.6706 0.0000 -3.5024
# 5 -7.5896 4.0184 5.2183 0.0000 35.8691 0.0000
# 6 0.0000 0.0000 0.0000 -3.5024 0.0000 7.0578
#
#
#
# Elastic Compliance Matrix: (Units=1/GPa)
#
#
# Indices 1 2 3 4 5 6 
#
# 1 0.051701 0.004556 -0.020663 0.000000 0.013435 0.000000
# 2 0.004556 0.021168 -0.009630 0.000000 -0.000006 0.000000
# 3 -0.020663 -0.009630 0.016298 0.000000 -0.005664 0.000000
# 4 0.000000 0.000000 0.000000 0.043606 0.000000 0.021640
# 5 0.013435 -0.000006 -0.005664 0.000000 0.031547 0.000000
# 6 0.000000 0.000000 0.000000 0.021640 0.000000 0.152426
#
#
# Mechanical properties :
#
#
# Convention : Reuss Voigt Hill
#
# Bulk Modulus (GPa) = 26.52982 72.72055 49.62519
# Shear Modulus (GPa) = 13.13077 23.77079 18.45078
#
# Velocity S-wave (km/s) = 2.33590 3.14290 2.76896
# Velocity P-wave (km/s) = 4.27780 6.58703 5.55376
#
# Compressibility (1/GPa) = 0.03769343
#
# Stress axis : x y z
#
# Youngs Moduli (GPa) = 19.34193 47.24057 61.35761
#
# Poissons Ratio (x) = -0.21522 1.26782
# Poissons Ratio (y) = -0.08812 0.59088
# Poissons Ratio (z) = 0.39966 0.45493
#
# Static dielectric constant tensor:
#      x y z
#    x 2.058690 0.000000 0.015190 
#    y 0.000000 1.921540 0.000000 
#    z 0.015190 0.000000 1.967070 
# 
# From -- ./inp_files/23742.got.cif
#   From: 2010.05.17/outbox.cif.g08.bks.cpg/sg15_12_cif.got.tgz:23742.got - 2010.06.03 18:47:42.
