data_PCOD9278219
_publ_section_title
;
Structure prediction by ZEFSAII (Michael W. Deem and Ramdas Pophale) SiO2 
 PCOD9278219
Probable space group: C 2/C
;
_chemical_formula_sum "Si O2"
_cell_formula_units_Z 48
_cell_length_a 8.559367
_cell_length_b 24.317936
_cell_length_c 11.144961
_cell_angle_alpha 90.000000
_cell_angle_beta 79.601414
_cell_angle_gamma 90.000000
_cell_volume 2281.680351
_symmetry_space_group_name_H-M "C 2/C"
_symmetry_group_IT_number 15
_symmetry_cell_setting 'monoclinic'
loop_
_space_group_symop_operation_xyz
x,y,z
-x,y,1/2-z
-x,-y,-z
x,-y,1/2+z
1/2+x,1/2+y,z
1/2-x,1/2+y,1/2-z
1/2-x,1/2-y,-z
1/2+x,1/2-y,1/2+z
loop_
_atom_site_type_symbol
_atom_site_label
_atom_site_fract_x
_atom_site_fract_y
_atom_site_fract_z
Si Si1 0.162707 0.060588 0.163026
Si Si2 0.688677 0.836819 0.722114
Si Si3 0.318693 0.717486 0.725024
Si Si4 0.344024 0.952137 0.191575
Si Si5 0.749290 0.858839 0.441887
Si Si6 0.115529 0.888963 0.407843
O O1 0.228355 0.111367 0.230409
O O2 0.000000 0.042493 0.250000
O O3 0.282285 0.009707 0.150685
O O4 0.135009 0.082960 0.033379
O O5 0.500000 0.844282 0.750000
O O6 0.732948 0.780069 0.783155
O O7 0.732880 0.834770 0.575988
O O8 0.500000 0.720822 0.750000
O O9 0.225065 0.688161 0.846077
O O10 0.319049 0.673773 0.616543
O O11 0.500000 0.958245 0.250000
O O12 0.365006 0.909031 0.079214
O O13 0.211197 0.924815 0.297364
O O14 0.928238 0.883054 0.407239
#
# Coordination Sequence:
#
# PCOD9278219 Si02
#       6
#     8   8   8   8   8   8
#     4  12  25  41  64  93 130 171 215 258 313 383
#     4  11  23  38  62  97 128 168 210 264 316 368
#     4   8  18  39  65  92 123 167 210 256 315 373
#     4  11  26  42  65  95 127 167 212 272 323 367
#     4  10  20  42  68  90 126 172 213 256 314 389
#     4  10  22  43  67  92 127 169 213 256 316 387
#
# _framework density 21.037126000000001
#
# number of rings (size 3 to 8) (size 9 to 14) (size 15 to 20)
#    0.000    1.667    1.667    3.500    4.667    2.667 
#    0.000    3.333    0.000    0.000    0.000    0.000 
#    0.000    0.000    0.000    0.000    0.000    0.000 
#
# Total GULP energy -134097.376017 kJ/mol
# GULP energy per Si atom -5587.390667 kJ/mol
# Density = 2.098925 g / cm^3
# Si number density = 21.037126 Si / 1000 Ang^3
#
#
#
# Elastic Constant Matrix: (Units=GPa)
#
#
# Indices 1 2 3 4 5 6 
#
# 1 57.9328 13.9499 -0.6305 0.0000 0.9941 0.0000
# 2 13.9499 102.8978 -17.2977 0.0000 5.8412 0.0000
# 3 -0.6305 -17.2977 56.5698 0.0000 -5.5895 0.0000
# 4 0.0000 0.0000 0.0000 14.4023 0.0000 2.8225
# 5 0.9941 5.8412 -5.5895 0.0000 19.1529 0.0000
# 6 0.0000 0.0000 0.0000 2.8225 0.0000 23.8493
#
#
#
# Elastic Compliance Matrix: (Units=1/GPa)
#
#
# Indices 1 2 3 4 5 6 
#
# 1 0.017863 -0.002503 -0.000600 0.000000 -0.000339 0.000000
# 2 -0.002503 0.010693 0.003019 0.000000 -0.002250 0.000000
# 3 -0.000600 0.003019 0.019055 0.000000 0.004671 0.000000
# 4 0.000000 0.000000 0.000000 0.071082 0.000000 -0.008412
# 5 -0.000339 -0.002250 0.004671 0.000000 0.054278 0.000000
# 6 0.000000 0.000000 0.000000 -0.008412 0.000000 0.042925
#
#
# Mechanical properties :
#
#
# Convention : Reuss Voigt Hill
#
# Bulk Modulus (GPa) = 21.07725 23.27153 22.17439
# Shear Modulus (GPa) = 21.56286 26.23949 23.90118
#
# Velocity S-wave (km/s) = 3.20502 3.53554 3.37433
# Velocity P-wave (km/s) = 4.87207 5.26810 5.07395
#
# Compressibility (1/GPa) = 0.04744452
#
# Stress axis : x y z
#
# Youngs Moduli (GPa) = 55.98020 93.51849 52.47847
#
# Poissons Ratio (x) = 0.23411 0.03148
# Poissons Ratio (y) = 0.14014 -0.15846
# Poissons Ratio (z) = 0.03358 -0.28238
#
# Static dielectric constant tensor:
#      x y z
#    x 1.758860 0.000000 -0.020320 
#    y 0.000000 1.760530 0.000000 
#    z -0.020320 0.000000 1.759580 
# 
# From -- ./inp_files/79101.got.cif
#   From: 2010.05.17/outbox.cif.g08.bks.cpg/sg15_40_cif.got.tgz:79101.got - 2010.06.03 18:47:42.
