data_PCOD9278370
_publ_section_title
;
Structure prediction by ZEFSAII (Michael W. Deem and Ramdas Pophale) SiO2 
 PCOD9278370
Probable space group: C 2/C
;
_chemical_formula_sum "Si O2"
_cell_formula_units_Z 60
_cell_length_a 23.188151
_cell_length_b 14.292222
_cell_length_c 9.316522
_cell_angle_alpha 90.000000
_cell_angle_beta 81.200907
_cell_angle_gamma 90.000000
_cell_volume 3051.251977
_symmetry_space_group_name_H-M "C 2/C"
_symmetry_group_IT_number 15
_symmetry_cell_setting 'monoclinic'
loop_
_space_group_symop_operation_xyz
x,y,z
-x,y,1/2-z
-x,-y,-z
x,-y,1/2+z
1/2+x,1/2+y,z
1/2-x,1/2+y,1/2-z
1/2-x,1/2-y,-z
1/2+x,1/2-y,1/2+z
loop_
_atom_site_type_symbol
_atom_site_label
_atom_site_fract_x
_atom_site_fract_y
_atom_site_fract_z
Si Si1 0.612264 0.190710 0.875617
Si Si2 0.801924 0.799609 0.063606
Si Si3 0.509320 0.098606 0.075743
Si Si4 0.175419 0.006683 0.094379
Si Si5 0.746583 0.830538 0.382561
Si Si6 0.926028 0.725954 0.919030
Si Si7 0.000000 0.889545 0.750000
Si Si8 0.393714 0.416766 0.614082
O O1 0.679461 0.160495 0.859096
O O2 0.584437 0.172693 0.728581
O O3 0.609965 0.303864 0.893209
O O4 0.572650 0.139955 0.008654
O O5 0.786422 0.798042 0.235433
O O6 0.750000 0.750000 0.000000
O O7 0.863153 0.752187 0.004004
O O8 0.805138 0.905105 0.005767
O O9 0.500000 0.092017 0.250000
O O10 0.463399 0.168876 0.018477
O O11 0.500000 0.000000 0.000000
O O12 0.225523 0.928612 0.079940
O O13 0.155169 0.045271 0.256384
O O14 0.120287 0.960661 0.033782
O O15 0.750000 0.750000 0.500000
O O16 0.960148 0.820577 0.862217
O O17 0.955665 0.942002 0.661817
#
# Coordination Sequence:
#
# PCOD9278370 Si02
#       8
#     8   8   8   8   8   8   4   8
#     4  11  22  47  70  97 141 190 229 296 358 410
#     4  12  25  44  70 100 139 191 233 288 360 423
#     4  12  27  47  74 106 140 182 239 294 352 427
#     4  12  24  42  66 102 139 181 233 288 345 422
#     4  12  26  43  70 102 145 185 233 294 349 424
#     4  11  21  43  74  95 136 186 233 283 360 412
#     4  10  20  42  72  92 138 188 226 284 360 406
#     4  11  22  42  69  98 140 181 232 288 347 415
#
# _framework density 19.664059999999999
#
# number of rings (size 3 to 8) (size 9 to 14) (size 15 to 20)
#    0.000    0.533    9.333    0.800    1.867    1.600 
#    2.400    0.000    0.000    0.000    0.000    0.000 
#    0.000    0.000    0.000    0.000    0.000    0.000 
#
# Total GULP energy -167726.569578 kJ/mol
# GULP energy per Si atom -5590.885653 kJ/mol
# Density = 1.961930 g / cm^3
# Si number density = 19.664060 Si / 1000 Ang^3
#
#
#
# Elastic Constant Matrix: (Units=GPa)
#
#
# Indices 1 2 3 4 5 6 
#
# 1 99.4900 10.5818 11.2949 0.0000 -10.8437 0.0000
# 2 10.5818 63.3133 16.4060 0.0000 -5.1065 0.0000
# 3 11.2949 16.4060 120.0379 0.0000 -17.4748 0.0000
# 4 0.0000 0.0000 0.0000 26.9284 0.0000 -1.2201
# 5 -10.8437 -5.1065 -17.4748 0.0000 40.3739 0.0000
# 6 0.0000 0.0000 0.0000 -1.2201 0.0000 33.6750
#
#
#
# Elastic Compliance Matrix: (Units=1/GPa)
#
#
# Indices 1 2 3 4 5 6 
#
# 1 0.010522 -0.001448 -0.000435 0.000000 0.002455 0.000000
# 2 -0.001448 0.016626 -0.002013 0.000000 0.000843 0.000000
# 3 -0.000435 -0.002013 0.009171 0.000000 0.003598 0.000000
# 4 0.000000 0.000000 0.000000 0.037197 0.000000 0.001348
# 5 0.002455 0.000843 0.003598 0.000000 0.027092 0.000000
# 6 0.000000 0.000000 0.000000 0.001348 0.000000 0.029744
#
#
# Mechanical properties :
#
#
# Convention : Reuss Voigt Hill
#
# Bulk Modulus (GPa) = 35.05522 39.93407 37.49465
# Shear Modulus (GPa) = 33.86324 36.49936 35.18130
#
# Velocity S-wave (km/s) = 4.15431 4.31298 4.23438
# Velocity P-wave (km/s) = 6.39349 6.71972 6.55863
#
# Compressibility (1/GPa) = 0.02852642
#
# Stress axis : x y z
#
# Youngs Moduli (GPa) = 95.03736 60.14615 109.04453
#
# Poissons Ratio (x) = 0.08709 0.04742
# Poissons Ratio (y) = 0.13761 0.21956
# Poissons Ratio (z) = 0.04133 0.12110
#
# Static dielectric constant tensor:
#      x y z
#    x 1.692900 0.000000 0.018330 
#    y 0.000000 1.677830 0.000000 
#    z 0.018330 0.000000 1.729530 
# 
# From -- ./inp_files/61553.got.cif
#   From: 2010.05.17/outbox.cif.g08.bks.cpg/sg15_31_cif.got.tgz:61553.got - 2010.06.03 18:47:42.
