data_PCOD9278705
_publ_section_title
;
Structure prediction by ZEFSAII (Michael W. Deem and Ramdas Pophale) SiO2 
 PCOD9278705
Probable space group: C 2/C
;
_chemical_formula_sum "Si O2"
_cell_formula_units_Z 48
_cell_length_a 7.929143
_cell_length_b 25.252341
_cell_length_c 11.950849
_cell_angle_alpha 90.000000
_cell_angle_beta 99.643449
_cell_angle_gamma 90.000000
_cell_volume 2359.098054
_symmetry_space_group_name_H-M "C 2/C"
_symmetry_group_IT_number 15
_symmetry_cell_setting 'monoclinic'
loop_
_space_group_symop_operation_xyz
x,y,z
-x,y,1/2-z
-x,-y,-z
x,-y,1/2+z
1/2+x,1/2+y,z
1/2-x,1/2+y,1/2-z
1/2-x,1/2-y,-z
1/2+x,1/2-y,1/2+z
loop_
_atom_site_type_symbol
_atom_site_label
_atom_site_fract_x
_atom_site_fract_y
_atom_site_fract_z
Si Si1 0.681449 0.644432 0.401920
Si Si2 0.000000 0.113894 0.750000
Si Si3 0.824042 0.399544 0.689059
Si Si4 0.038138 0.300409 0.934168
Si Si5 0.000000 0.223296 0.250000
Si Si6 0.783111 0.210599 0.673683
Si Si7 0.965999 0.061791 0.509309
O O1 0.720287 0.614722 0.289156
O O2 0.531226 0.686351 0.361083
O O3 0.615515 0.600073 0.478201
O O4 0.849672 0.679141 0.445780
O O5 0.155181 0.156304 0.764185
O O6 0.959765 0.078492 0.637968
O O7 0.887262 0.345138 0.639740
O O8 0.703127 0.426338 0.583713
O O9 0.000000 0.427714 0.750000
O O10 0.066590 0.245305 0.870116
O O11 0.153444 0.299802 0.057084
O O12 0.828856 0.255832 0.251998
O O13 0.000000 0.000000 0.500000
#
# Coordination Sequence:
#
# PCOD9278705 Si02
#       7
#     8   4   8   8   4   8   8
#     4  11  22  40  68  99 128 175 240 274 325 413
#     4  12  28  45  64  96 148 175 222 296 354 414
#     4  10  20  44  72  97 129 177 229 280 333 411
#     4  10  21  40  66  99 145 183 217 273 339 419
#     4  12  22  35  68  98 138 183 224 262 332 430
#     4  11  23  39  61 101 145 184 217 268 354 417
#     4  12  27  48  71  98 129 183 236 302 354 397
#
# _framework density 20.346761000000001
#
# number of rings (size 3 to 8) (size 9 to 14) (size 15 to 20)
#    0.000    1.000    5.000    1.000    8.167    0.667 
#    0.000    5.000    0.000    0.000    0.000    0.000 
#    0.000    0.000    0.000    0.000    0.000    0.000 
#
# Total GULP energy -134029.306762 kJ/mol
# GULP energy per Si atom -5584.554448 kJ/mol
# Density = 2.030045 g / cm^3
# Si number density = 20.346761 Si / 1000 Ang^3
#
#
#
# Elastic Constant Matrix: (Units=GPa)
#
#
# Indices 1 2 3 4 5 6 
#
# 1 107.8865 48.2117 33.8249 0.0000 20.7618 0.0000
# 2 48.2117 126.5897 39.0431 0.0000 14.2760 0.0000
# 3 33.8249 39.0431 101.9180 0.0000 28.6767 0.0000
# 4 0.0000 0.0000 0.0000 1.2382 0.0000 4.9337
# 5 20.7618 14.2760 28.6767 0.0000 37.1170 0.0000
# 6 0.0000 0.0000 0.0000 4.9337 0.0000 7.2328
#
#
#
# Elastic Compliance Matrix: (Units=1/GPa)
#
#
# Indices 1 2 3 4 5 6 
#
# 1 0.012206 -0.003728 -0.001412 0.000000 -0.004302 0.000000
# 2 -0.003728 0.010126 -0.002725 0.000000 0.000296 0.000000
# 3 -0.001412 -0.002725 0.013809 0.000000 -0.008831 0.000000
# 4 0.000000 0.000000 0.000000 -0.470107 0.000000 0.320671
# 5 -0.004302 0.000296 -0.008831 0.000000 0.036057 0.000000
# 6 0.000000 0.000000 0.000000 0.320671 0.000000 -0.080478
#
#
# Mechanical properties :
#
#
# Convention : Reuss Voigt Hill
#
# Bulk Modulus (GPa) = 48.99390 64.28374 56.63882
# Shear Modulus (GPa) = -10.96846 23.47192 6.25173
#
# Velocity S-wave (km/s) = -2.32432 3.40015 1.75478
# Velocity P-wave (km/s) = 4.11442 6.86129 5.65711
#
# Compressibility (1/GPa) = 0.02041070
#
# Stress axis : x y z
#
# Youngs Moduli (GPa) = 81.92998 98.75150 72.41487
#
# Poissons Ratio (x) = 0.36812 0.10227
# Poissons Ratio (y) = 0.30541 0.19736
# Poissons Ratio (z) = 0.11570 0.26913
#
# Static dielectric constant tensor:
#      x y z
#    x 1.781730 0.000000 0.035760 
#    y 0.000000 1.698670 0.000000 
#    z 0.035760 0.000000 1.782820 
# 
# From -- ./inp_files/79414.got.cif
#   From: 2010.05.17/outbox.cif.g08.bks.cpg/sg15_40_cif.got.tgz:79414.got - 2010.06.03 18:47:42.
