data_PCOD9278355
_publ_section_title
;
Structure prediction by ZEFSAII (Michael W. Deem and Ramdas Pophale) SiO2 
 PCOD9278355
Probable space group: C 2/C
;
_chemical_formula_sum "Si O2"
_cell_formula_units_Z 40
_cell_length_a 16.540335
_cell_length_b 8.420288
_cell_length_c 15.064962
_cell_angle_alpha 90.000000
_cell_angle_beta 115.269673
_cell_angle_gamma 90.000000
_cell_volume 1897.387178
_symmetry_space_group_name_H-M "C 2/C"
_symmetry_group_IT_number 15
_symmetry_cell_setting 'monoclinic'
loop_
_space_group_symop_operation_xyz
x,y,z
-x,y,1/2-z
-x,-y,-z
x,-y,1/2+z
1/2+x,1/2+y,z
1/2-x,1/2+y,1/2-z
1/2-x,1/2-y,-z
1/2+x,1/2-y,1/2+z
loop_
_atom_site_type_symbol
_atom_site_label
_atom_site_fract_x
_atom_site_fract_y
_atom_site_fract_z
Si Si1 0.500000 0.653864 0.250000
Si Si2 0.412666 0.891214 0.086693
Si Si3 0.269701 0.432054 0.037264
Si Si4 0.909778 0.098565 0.972547
Si Si5 0.129941 0.902492 0.240600
Si Si6 0.500000 0.862621 0.750000
O O1 0.425417 0.765520 0.172123
O O2 0.554508 0.539515 0.211260
O O3 0.474184 0.033364 0.151720
O O4 0.435378 0.777440 0.014787
O O5 0.315585 0.961653 0.025825
O O6 0.292455 0.439681 0.152765
O O7 0.250000 0.250000 0.000000
O O8 0.351924 0.505632 0.019660
O O9 0.851977 0.111715 0.854974
O O10 0.000000 0.000000 0.000000
O O11 0.082159 0.747254 0.258959
#
# Coordination Sequence:
#
# PCOD9278355 Si02
#       6
#     4   8   8   8   8   4
#     4  10  20  42  72 100 136 188 226 288 356 422
#     4  11  23  43  73 101 140 184 232 286 359 411
#     4  12  26  48  67 102 148 182 224 302 357 407
#     4  12  25  44  74 105 134 187 242 287 344 423
#     4  11  22  44  72  98 141 187 234 282 350 422
#     4  10  22  44  70 104 138 190 226 288 360 422
#
# _framework density 21.081624000000001
#
# number of rings (size 3 to 8) (size 9 to 14) (size 15 to 20)
#    0.000    0.800    6.000    1.800    0.000    2.400 
#    0.000    0.000    0.000    0.000    0.000    0.000 
#    0.000    0.000    0.000    0.000    0.000    0.000 
#
# Total GULP energy -111603.942759 kJ/mol
# GULP energy per Si atom -5580.197138 kJ/mol
# Density = 2.103364 g / cm^3
# Si number density = 21.081624 Si / 1000 Ang^3
#
#
#
# Elastic Constant Matrix: (Units=GPa)
#
#
# Indices 1 2 3 4 5 6 
#
# 1 42.6048 34.5439 31.4136 0.0000 24.0624 0.0000
# 2 34.5439 126.9443 48.9938 0.0000 16.3964 0.0000
# 3 31.4136 48.9938 181.8182 0.0000 8.6660 0.0000
# 4 0.0000 0.0000 0.0000 42.7747 0.0000 7.2688
# 5 24.0624 16.3964 8.6660 0.0000 34.7238 0.0000
# 6 0.0000 0.0000 0.0000 7.2688 0.0000 27.0175
#
#
#
# Elastic Compliance Matrix: (Units=1/GPa)
#
#
# Indices 1 2 3 4 5 6 
#
# 1 0.050727 -0.007907 -0.005198 0.000000 -0.030121 0.000000
# 2 -0.007907 0.010494 -0.001504 0.000000 0.000900 0.000000
# 3 -0.005198 -0.001504 0.006677 0.000000 0.002646 0.000000
# 4 0.000000 0.000000 0.000000 0.024498 0.000000 -0.006591
# 5 -0.030121 0.000900 0.002646 0.000000 0.048586 0.000000
# 6 0.000000 0.000000 0.000000 -0.006591 0.000000 0.038786
#
#
# Mechanical properties :
#
#
# Convention : Reuss Voigt Hill
#
# Bulk Modulus (GPa) = 25.85383 64.58556 45.21969
# Shear Modulus (GPa) = 22.53459 36.66425 29.59942
#
# Velocity S-wave (km/s) = 3.27298 4.17484 3.75112
# Velocity P-wave (km/s) = 5.15495 7.34449 6.34488
#
# Compressibility (1/GPa) = 0.03867899
#
# Stress axis : x y z
#
# Youngs Moduli (GPa) = 19.71331 95.29674 149.75991
#
# Poissons Ratio (x) = 0.75352 0.77845
# Poissons Ratio (y) = 0.15588 0.22530
# Poissons Ratio (z) = 0.10247 0.14336
#
# Static dielectric constant tensor:
#      x y z
#    x 1.719060 0.000000 -0.002140 
#    y 0.000000 1.771250 0.000000 
#    z -0.002140 0.000000 1.834380 
# 
# From -- ./inp_files/150636.got.cif
#   From: 2010.05.17/outbox.cif.g08.bks.cpg/sg15_76_cif.got.tgz:150636.got - 2010.06.03 18:47:42.
