data_PCOD9278937
_publ_section_title
;
Structure prediction by ZEFSAII (Michael W. Deem and Ramdas Pophale) SiO2 
 PCOD9278937
Probable space group: C 2/C
;
_chemical_formula_sum "Si O2"
_cell_formula_units_Z 44
_cell_length_a 21.823344
_cell_length_b 17.688629
_cell_length_c 5.792016
_cell_angle_alpha 90.000000
_cell_angle_beta 60.255254
_cell_angle_gamma 90.000000
_cell_volume 1941.275494
_symmetry_space_group_name_H-M "C 2/C"
_symmetry_group_IT_number 15
_symmetry_cell_setting 'monoclinic'
loop_
_space_group_symop_operation_xyz
x,y,z
-x,y,1/2-z
-x,-y,-z
x,-y,1/2+z
1/2+x,1/2+y,z
1/2-x,1/2+y,1/2-z
1/2-x,1/2-y,-z
1/2+x,1/2-y,1/2+z
loop_
_atom_site_type_symbol
_atom_site_label
_atom_site_fract_x
_atom_site_fract_y
_atom_site_fract_z
Si Si1 0.628962 0.156286 0.556824
Si Si2 0.763189 0.465953 0.702632
Si Si3 0.396933 0.480331 0.036879
Si Si4 0.000000 0.544061 0.750000
Si Si5 0.699329 0.221504 0.797369
Si Si6 0.342828 0.685564 0.733440
O O1 0.701880 0.115833 0.352669
O O2 0.567450 0.099211 0.615724
O O3 0.638457 0.168940 0.812192
O O4 0.625510 0.239494 0.449913
O O5 0.785975 0.503456 0.904847
O O6 0.678526 0.475127 0.847674
O O7 0.429265 0.507210 0.221502
O O8 0.380355 0.391298 0.097444
O O9 0.000000 0.500000 0.500000
O O10 0.750000 0.250000 0.500000
O O11 0.759297 0.178984 0.830153
O O12 0.660298 0.289944 0.995470
#
# Coordination Sequence:
#
# PCOD9278937 Si02
#       6
#     8   8   8   4   8   8
#     4  11  24  40  64  88 126 177 228 279 326 391
#     4  10  21  33  53  78 117 162 201 246 315 377
#     4  10  22  34  52  84 127 161 197 248 321 397
#     4  12  30  50  70  98 136 184 244 288 330 390
#     4   9  20  33  58  88 125 159 219 265 331 394
#     4  10  22  35  60  91 128 171 221 271 335 415
#
# _framework density 22.665510999999999
#
# number of rings (size 3 to 8) (size 9 to 14) (size 15 to 20)
#    0.000    1.818    0.000    3.273   25.455    0.000 
#    0.000    0.000    0.000    0.000    0.000    1.273 
#    0.000    0.000    0.000    0.000    0.000    0.000 
#
# Total GULP energy -122602.801093 kJ/mol
# GULP energy per Si atom -5572.854595 kJ/mol
# Density = 2.261392 g / cm^3
# Si number density = 22.665511 Si / 1000 Ang^3
#
#
#
# Elastic Constant Matrix: (Units=GPa)
#
#
# Indices 1 2 3 4 5 6 
#
# 1 73.3543 51.8226 60.3652 0.0000 22.0397 0.0000
# 2 51.8226 134.2044 84.2260 0.0000 11.8918 0.0000
# 3 60.3652 84.2260 143.9414 0.0000 33.6645 0.0000
# 4 0.0000 0.0000 0.0000 47.1206 0.0000 12.5159
# 5 22.0397 11.8918 33.6645 0.0000 35.0325 0.0000
# 6 0.0000 0.0000 0.0000 12.5159 0.0000 38.8581
#
#
#
# Elastic Compliance Matrix: (Units=1/GPa)
#
#
# Indices 1 2 3 4 5 6 
#
# 1 0.024118 -0.005478 -0.004896 0.000000 -0.008609 0.000000
# 2 -0.005478 0.013339 -0.006779 0.000000 0.005432 0.000000
# 3 -0.004896 -0.006779 0.015103 0.000000 -0.009132 0.000000
# 4 0.000000 0.000000 0.000000 0.023208 0.000000 -0.007475
# 5 -0.008609 0.005432 -0.009132 0.000000 0.040892 0.000000
# 6 0.000000 0.000000 0.000000 -0.007475 0.000000 0.028142
#
#
# Mechanical properties :
#
#
# Convention : Reuss Voigt Hill
#
# Bulk Modulus (GPa) = 54.77734 82.70309 68.74021
# Shear Modulus (GPa) = 26.99910 34.54132 30.77021
#
# Velocity S-wave (km/s) = 3.45512 3.90803 3.68853
# Velocity P-wave (km/s) = 6.33540 7.54528 6.96666
#
# Compressibility (1/GPa) = 0.01825572
#
# Stress axis : x y z
#
# Youngs Moduli (GPa) = 41.46342 74.96564 66.21369
#
# Poissons Ratio (x) = 0.41063 0.32416
# Poissons Ratio (y) = 0.22712 0.44884
# Poissons Ratio (z) = 0.20299 0.50817
#
# Static dielectric constant tensor:
#      x y z
#    x 1.931840 0.000000 0.081130 
#    y 0.000000 1.871630 0.000000 
#    z 0.081130 0.000000 1.978760 
# 
# From -- ./inp_files/12916.got.cif
#   From: 2010.05.17/outbox.cif.g08.bks.cpg/sg15_7_cif.got.tgz:12916.got - 2010.06.03 18:47:42.
