data_PCOD9278969
_publ_section_title
;
Structure prediction by ZEFSAII (Michael W. Deem and Ramdas Pophale) SiO2 
 PCOD9278969
Probable space group: C 2/C
;
_chemical_formula_sum "Si O2"
_cell_formula_units_Z 52
_cell_length_a 31.736802
_cell_length_b 13.249068
_cell_length_c 15.814141
_cell_angle_alpha 90.000000
_cell_angle_beta 18.428064
_cell_angle_gamma 90.000000
_cell_volume 2102.023217
_symmetry_space_group_name_H-M "C 2/C"
_symmetry_group_IT_number 15
_symmetry_cell_setting 'monoclinic'
loop_
_space_group_symop_operation_xyz
x,y,z
-x,y,1/2-z
-x,-y,-z
x,-y,1/2+z
1/2+x,1/2+y,z
1/2-x,1/2+y,1/2-z
1/2-x,1/2-y,-z
1/2+x,1/2-y,1/2+z
loop_
_atom_site_type_symbol
_atom_site_label
_atom_site_fract_x
_atom_site_fract_y
_atom_site_fract_z
Si Si1 0.890979 0.152990 0.777332
Si Si2 0.122309 0.974743 0.907494
Si Si3 0.399540 0.820630 0.624261
Si Si4 0.314756 0.715453 0.094526
Si Si5 0.754799 0.804970 0.115709
Si Si6 0.311312 0.903298 0.421136
Si Si7 0.500000 0.353849 0.750000
O O1 0.927797 0.221205 0.627219
O O2 0.991030 0.061959 0.605673
O O3 0.732144 0.130297 0.080140
O O4 0.898394 0.220879 0.849387
O O5 0.155001 0.889352 0.915415
O O6 0.241879 0.985260 0.612798
O O7 0.092315 0.072982 0.017696
O O8 0.336268 0.792781 0.654019
O O9 0.530211 0.889128 0.372057
O O10 0.327428 0.800517 0.140971
O O11 0.739869 0.698229 0.096163
O O12 0.905147 0.802782 0.862331
O O13 0.723162 0.894262 0.112076
#
# Coordination Sequence:
#
# PCOD9278969 Si02
#       7
#     8   8   8   8   8   8   4
#     4   9  17  31  54  89 113 159 198 250 287 364
#     4  11  21  36  60  84 124 155 201 239 318 351
#     4   9  17  30  56  87 116 145 208 244 289 341
#     4   9  17  33  56  88 111 162 197 253 285 363
#     4  10  21  33  58  84 125 144 203 251 301 332
#     4  10  21  38  55  91 118 164 189 252 298 369
#     4  12  22  38  58  96 118 156 198 266 286 366
#
# _framework density 24.738071000000001
#
# number of rings (size 3 to 8) (size 9 to 14) (size 15 to 20)
#    0.923    1.231    1.538    3.692    0.000    2.462 
#    0.000    0.000    0.000    3.692   40.000    0.000 
#    0.000    0.000    0.000    0.000    0.000    0.000 
#
# Total GULP energy -145210.294471 kJ/mol
# GULP energy per Si atom -5585.011326 kJ/mol
# Density = 2.468177 g / cm^3
# Si number density = 24.738071 Si / 1000 Ang^3
#
#
#
# Elastic Constant Matrix: (Units=GPa)
#
#
# Indices 1 2 3 4 5 6 
#
# 1 146.1738 17.9987 33.7304 0.0000 9.8007 0.0000
# 2 17.9987 30.9386 -6.8080 0.0000 6.2359 0.0000
# 3 33.7304 -6.8080 132.0032 0.0000 -11.2204 0.0000
# 4 0.0000 0.0000 0.0000 19.5816 0.0000 11.4676
# 5 9.8007 6.2359 -11.2204 0.0000 51.3751 0.0000
# 6 0.0000 0.0000 0.0000 11.4676 0.0000 16.9351
#
#
#
# Elastic Compliance Matrix: (Units=1/GPa)
#
#
# Indices 1 2 3 4 5 6 
#
# 1 0.008119 -0.004965 -0.002457 0.000000 -0.001483 0.000000
# 2 -0.004965 0.036422 0.002906 0.000000 -0.002839 0.000000
# 3 -0.002457 0.002906 0.008521 0.000000 0.001977 0.000000
# 4 0.000000 0.000000 0.000000 0.084629 0.000000 -0.057306
# 5 -0.001483 -0.002839 0.001977 0.000000 0.020524 0.000000
# 6 0.000000 0.000000 0.000000 -0.057306 0.000000 0.097854
#
#
# Mechanical properties :
#
#
# Convention : Reuss Voigt Hill
#
# Bulk Modulus (GPa) = 22.71148 44.32865 33.52007
# Shear Modulus (GPa) = 17.87140 35.19132 26.53136
#
# Velocity S-wave (km/s) = 2.69071 3.77577 3.27844
# Velocity P-wave (km/s) = 4.34211 6.08003 5.28302
#
# Compressibility (1/GPa) = 0.04403059
#
# Stress axis : x y z
#
# Youngs Moduli (GPa) = 123.17069 27.45585 117.35396
#
# Poissons Ratio (x) = 0.13632 0.28830
# Poissons Ratio (y) = 0.61153 -0.34101
# Poissons Ratio (z) = 0.30259 -0.07978
#
# Static dielectric constant tensor:
#      x y z
#    x 1.982110 0.000000 0.014010 
#    y 0.000000 1.980740 0.000000 
#    z 0.014010 0.000000 2.055520 
# 
# From -- ./inp_files/182825.got.cif
#   From: 2010.05.17/outbox.cif.g08.bks.cpg/sg15_92_cif.got.tgz:182825.got - 2010.06.03 18:47:42.
