data_PCOD9278202
_publ_section_title
;
Structure prediction by ZEFSAII (Michael W. Deem and Ramdas Pophale) SiO2 
 PCOD9278202
Probable space group: C 2/C
;
_chemical_formula_sum "Si O2"
_cell_formula_units_Z 44
_cell_length_a 5.064059
_cell_length_b 24.479264
_cell_length_c 14.095328
_cell_angle_alpha 90.000000
_cell_angle_beta 82.491928
_cell_angle_gamma 90.000000
_cell_volume 1732.338694
_symmetry_space_group_name_H-M "C 2/C"
_symmetry_group_IT_number 15
_symmetry_cell_setting 'monoclinic'
loop_
_space_group_symop_operation_xyz
x,y,z
-x,y,1/2-z
-x,-y,-z
x,-y,1/2+z
1/2+x,1/2+y,z
1/2-x,1/2+y,1/2-z
1/2-x,1/2-y,-z
1/2+x,1/2-y,1/2+z
loop_
_atom_site_type_symbol
_atom_site_label
_atom_site_fract_x
_atom_site_fract_y
_atom_site_fract_z
Si Si1 0.725058 0.674483 0.318488
Si Si2 0.500000 0.363149 0.250000
Si Si3 0.076082 0.063124 0.419495
Si Si4 0.596810 0.789398 0.356479
Si Si5 0.416275 0.999113 0.143705
Si Si6 0.823457 0.394630 0.403704
O O1 0.500000 0.669078 0.250000
O O2 0.715838 0.617340 0.371777
O O3 0.649530 0.727656 0.384548
O O4 0.000000 0.684514 0.250000
O O5 0.367365 0.322870 0.332589
O O6 0.703498 0.396734 0.303347
O O7 0.857597 0.030839 0.365095
O O8 0.895995 0.084194 0.513990
O O9 0.327375 0.023989 0.423669
O O10 0.500000 0.786191 0.250000
O O11 0.408746 0.831996 0.419455
O O12 0.500000 0.006133 0.250000
O O13 0.425537 0.935617 0.112676
#
# Coordination Sequence:
#
# PCOD9278202 Si02
#       6
#     8   4   8   8   8   8
#     4  11  22  44  71  98 140 184 229 279 341 418
#     4  10  20  42  68 100 132 188 232 276 346 406
#     4  12  27  44  69 105 141 180 228 289 348 410
#     4   9  20  39  67  99 131 184 232 280 340 405
#     4  12  26  47  70  98 136 186 233 280 346 420
#     4  11  26  42  70 103 139 178 234 295 344 402
#
# _framework density 25.399189
#
# number of rings (size 3 to 8) (size 9 to 14) (size 15 to 20)
#    0.000    1.091    0.909    6.000    7.636    0.727 
#    0.000    0.909    0.000    0.000    0.000    0.000 
#    0.000    0.000    0.000    0.000    0.000    0.000 
#
# Total GULP energy -123162.256875 kJ/mol
# GULP energy per Si atom -5598.284403 kJ/mol
# Density = 2.534138 g / cm^3
# Si number density = 25.399189 Si / 1000 Ang^3
#
#
#
# Elastic Constant Matrix: (Units=GPa)
#
#
# Indices 1 2 3 4 5 6 
#
# 1 115.0598 28.4929 -5.6997 0.0000 -8.5314 0.0000
# 2 28.4929 189.3297 16.3154 0.0000 -8.0305 0.0000
# 3 -5.6997 16.3154 30.3359 0.0000 -12.4796 0.0000
# 4 0.0000 0.0000 0.0000 2.3298 0.0000 -19.1845
# 5 -8.5314 -8.0305 -12.4796 0.0000 35.0780 0.0000
# 6 0.0000 0.0000 0.0000 -19.1845 0.0000 33.0802
#
#
#
# Elastic Compliance Matrix: (Units=1/GPa)
#
#
# Indices 1 2 3 4 5 6 
#
# 1 0.009552 -0.001645 0.004077 0.000000 0.003397 0.000000
# 2 -0.001645 0.005823 -0.003581 0.000000 -0.000341 0.000000
# 3 0.004077 -0.003581 0.041852 0.000000 0.015061 0.000000
# 4 0.000000 0.000000 0.000000 -0.113686 0.000000 -0.065931
# 5 0.003397 -0.000341 0.015061 0.000000 0.034614 0.000000
# 6 0.000000 0.000000 0.000000 -0.065931 0.000000 -0.008007
#
#
# Mechanical properties :
#
#
# Convention : Reuss Voigt Hill
#
# Bulk Modulus (GPa) = 18.20514 45.88250 32.04382
# Shear Modulus (GPa) = -540.99475 33.80537 -253.59469
#
# Velocity S-wave (km/s) = -14.61024 3.65219 -10.00302
# Velocity P-wave (km/s) = 16.65621 5.99070 10.98956
#
# Compressibility (1/GPa) = 0.05492955
#
# Stress axis : x y z
#
# Youngs Moduli (GPa) = 104.68707 171.71874 23.89355
#
# Poissons Ratio (x) = 0.28244 -0.09741
# Poissons Ratio (y) = 0.17219 0.08557
# Poissons Ratio (z) = -0.42679 0.61498
#
# Static dielectric constant tensor:
#      x y z
#    x 1.995450 0.000000 0.006110 
#    y 0.000000 2.053440 0.000000 
#    z 0.006110 0.000000 2.038480 
# 
# From -- ./inp_files/129723.got.cif
#   From: 2010.05.17/outbox.cif.g08.bks.cpg/sg15_65_cif.got.tgz:129723.got - 2010.06.03 18:47:42.
