data_PCOD9278488
_publ_section_title
;
Structure prediction by ZEFSAII (Michael W. Deem and Ramdas Pophale) SiO2 
 PCOD9278488
Probable space group: C 2/C
;
_chemical_formula_sum "Si O2"
_cell_formula_units_Z 64
_cell_length_a 8.662218
_cell_length_b 21.506141
_cell_length_c 23.504027
_cell_angle_alpha 90.000000
_cell_angle_beta 131.181535
_cell_angle_gamma 90.000000
_cell_volume 3295.442632
_symmetry_space_group_name_H-M "C 2/C"
_symmetry_group_IT_number 15
_symmetry_cell_setting 'monoclinic'
loop_
_space_group_symop_operation_xyz
x,y,z
-x,y,1/2-z
-x,-y,-z
x,-y,1/2+z
1/2+x,1/2+y,z
1/2-x,1/2+y,1/2-z
1/2-x,1/2-y,-z
1/2+x,1/2-y,1/2+z
loop_
_atom_site_type_symbol
_atom_site_label
_atom_site_fract_x
_atom_site_fract_y
_atom_site_fract_z
Si Si1 0.388158 0.565203 0.467761
Si Si2 0.781962 0.815888 0.728778
Si Si3 0.042727 0.052512 0.695107
Si Si4 0.990945 0.680909 0.048688
Si Si5 0.366758 0.939911 0.480485
Si Si6 0.761349 0.431548 0.695953
Si Si7 0.494475 0.686677 0.541841
Si Si8 0.728040 0.175756 0.780001
O O1 0.500000 0.500000 0.500000
O O2 0.213340 0.559593 0.473758
O O3 0.310221 0.577930 0.385920
O O4 0.533656 0.623420 0.518146
O O5 0.615411 0.825281 0.637837
O O6 0.766276 0.869853 0.772003
O O7 0.764798 0.744353 0.747571
O O8 0.000000 0.819992 0.750000
O O9 0.188916 0.113720 0.730159
O O10 0.000000 0.037723 0.750000
O O11 0.832686 0.064835 0.608560
O O12 0.145791 0.991783 0.692491
O O13 0.049231 0.745344 0.032005
O O14 0.007693 0.621405 0.012601
O O15 0.749808 0.685925 0.005996
O O16 0.500000 0.000000 0.500000
O O17 0.000000 0.446390 0.750000
O O18 0.616152 0.682571 0.629798
O O19 0.500000 0.166745 0.750000
#
# Coordination Sequence:
#
# PCOD9278488 Si02
#       8
#     8   8   8   8   8   8   8   8
#     4  11  21  40  65  92 125 170 210 266 323 390
#     4  10  23  40  69  96 132 170 211 273 333 391
#     4  12  26  43  63  93 132 172 219 273 327 392
#     4   9  18  36  66  88 120 167 208 256 320 383
#     4  11  24  42  64  93 123 170 214 264 331 384
#     4  12  25  41  64  97 129 170 220 271 329 392
#     4   9  17  36  63  91 121 159 211 256 315 382
#     4  10  20  43  67  95 129 173 214 266 331 390
#
# _framework density 19.420759
#
# number of rings (size 3 to 8) (size 9 to 14) (size 15 to 20)
#    0.000    1.500    3.750    2.250    5.250    0.500 
#    2.250    0.000    0.000    3.000    0.000    0.000 
#    0.000    0.000    0.000    0.000    0.000    0.000 
#
# Total GULP energy -178401.026688 kJ/mol
# GULP energy per Si atom -5575.032084 kJ/mol
# Density = 1.937656 g / cm^3
# Si number density = 19.420759 Si / 1000 Ang^3
#
#
#
# Elastic Constant Matrix: (Units=GPa)
#
#
# Indices 1 2 3 4 5 6 
#
# 1 50.8377 27.0775 31.9154 0.0000 -8.8835 0.0000
# 2 27.0775 173.5088 36.1480 0.0000 -21.6967 0.0000
# 3 31.9154 36.1480 97.2708 0.0000 -7.1126 0.0000
# 4 0.0000 0.0000 0.0000 34.6176 0.0000 -2.3070
# 5 -8.8835 -21.6967 -7.1126 0.0000 24.7896 0.0000
# 6 0.0000 0.0000 0.0000 -2.3070 0.0000 26.7942
#
#
#
# Elastic Compliance Matrix: (Units=1/GPa)
#
#
# Indices 1 2 3 4 5 6 
#
# 1 0.026386 -0.001832 -0.007561 0.000000 0.005683 0.000000
# 2 -0.001832 0.007018 -0.001640 0.000000 0.005015 0.000000
# 3 -0.007561 -0.001640 0.013348 0.000000 -0.000315 0.000000
# 4 0.000000 0.000000 0.000000 0.029054 0.000000 0.002502
# 5 0.005683 0.005015 -0.000315 0.000000 0.046675 0.000000
# 6 0.000000 0.000000 0.000000 0.002502 0.000000 0.037537
#
#
# Mechanical properties :
#
#
# Convention : Reuss Voigt Hill
#
# Bulk Modulus (GPa) = 40.50973 56.87766 48.69369
# Shear Modulus (GPa) = 26.27247 32.33870 29.30559
#
# Velocity S-wave (km/s) = 3.68204 4.08507 3.88878
# Velocity P-wave (km/s) = 6.24346 7.18338 6.72985
#
# Compressibility (1/GPa) = 0.02468543
#
# Stress axis : x y z
#
# Youngs Moduli (GPa) = 37.89886 142.48709 74.91772
#
# Poissons Ratio (x) = 0.26102 0.56647
# Poissons Ratio (y) = 0.06943 0.12289
# Poissons Ratio (z) = 0.28656 0.23372
#
# Static dielectric constant tensor:
#      x y z
#    x 1.678710 0.000000 0.011100 
#    y 0.000000 1.859940 0.000000 
#    z 0.011100 0.000000 1.622990 
# 
# From -- ./inp_files/266149.got.cif
#   From: 2010.05.17/outbox.cif.g08.bks.cpg/sg15_134_cif.got.tgz:266149.got - 2010.06.03 18:47:42.
