data_PCOD9278992
_publ_section_title
;
Structure prediction by ZEFSAII (Michael W. Deem and Ramdas Pophale) SiO2 
 PCOD9278992
Probable space group: C 2/C
;
_chemical_formula_sum "Si O2"
_cell_formula_units_Z 56
_cell_length_a 18.194866
_cell_length_b 11.526012
_cell_length_c 18.994208
_cell_angle_alpha 90.000000
_cell_angle_beta 46.139817
_cell_angle_gamma 90.000000
_cell_volume 2872.130342
_symmetry_space_group_name_H-M "C 2/C"
_symmetry_group_IT_number 15
_symmetry_cell_setting 'monoclinic'
loop_
_space_group_symop_operation_xyz
x,y,z
-x,y,1/2-z
-x,-y,-z
x,-y,1/2+z
1/2+x,1/2+y,z
1/2-x,1/2+y,1/2-z
1/2-x,1/2-y,-z
1/2+x,1/2-y,1/2+z
loop_
_atom_site_type_symbol
_atom_site_label
_atom_site_fract_x
_atom_site_fract_y
_atom_site_fract_z
Si Si1 0.506320 0.784338 0.388788
Si Si2 0.047770 0.378133 0.498785
Si Si3 0.810159 0.552121 0.784400
Si Si4 0.437477 0.180819 0.216761
Si Si5 0.783808 0.102576 0.795908
Si Si6 0.080150 0.096303 0.246247
Si Si7 0.664681 0.189857 0.600449
O O1 0.495528 0.788245 0.479139
O O2 0.602678 0.863033 0.304528
O O3 0.525759 0.653615 0.349667
O O4 0.418397 0.846541 0.401796
O O5 0.170513 0.374929 0.403958
O O6 0.000000 0.500000 0.500000
O O7 0.014321 0.344597 0.599910
O O8 0.856920 0.425004 0.761876
O O9 0.725506 0.572416 0.781318
O O10 0.790474 0.596636 0.876113
O O11 0.500000 0.179097 0.250000
O O12 0.367056 0.296138 0.254361
O O13 0.825838 0.984266 0.800943
O O14 0.113264 0.209532 0.180815
O O15 0.000000 0.030838 0.250000
O O16 0.750000 0.250000 0.500000
#
# Coordination Sequence:
#
# PCOD9278992 Si02
#       7
#     8   8   8   8   8   8   8
#     4   9  19  38  61  90 120 159 212 269 320 375
#     4  11  24  41  69  96 126 176 221 270 328 397
#     4  10  22  37  63  92 125 166 217 269 318 383
#     4  12  26  45  67  98 139 174 221 277 333 397
#     4  11  25  41  69  94 135 178 215 265 339 401
#     4   9  20  40  62  90 130 169 209 270 339 388
#     4  10  21  33  64  94 122 158 214 273 327 387
#
# _framework density 19.497723000000001
#
# number of rings (size 3 to 8) (size 9 to 14) (size 15 to 20)
#    0.000    1.714    2.857    2.571   10.000    0.571 
#    0.000    3.571    0.000    0.000    0.000    0.000 
#    0.000    0.000    0.000    0.000    0.000    0.000 
#
# Total GULP energy -155888.216931 kJ/mol
# GULP energy per Si atom -5567.436319 kJ/mol
# Density = 1.945335 g / cm^3
# Si number density = 19.497723 Si / 1000 Ang^3
#
#
#
# Elastic Constant Matrix: (Units=GPa)
#
#
# Indices 1 2 3 4 5 6 
#
# 1 136.1874 40.7597 43.5295 0.0000 25.7411 0.0000
# 2 40.7597 59.7887 19.3359 0.0000 6.5024 0.0000
# 3 43.5295 19.3359 98.8792 0.0000 23.9080 0.0000
# 4 0.0000 0.0000 0.0000 -43.5046 0.0000 10.3673
# 5 25.7411 6.5024 23.9080 0.0000 30.1736 0.0000
# 6 0.0000 0.0000 0.0000 10.3673 0.0000 31.4282
#
#
#
# Elastic Compliance Matrix: (Units=1/GPa)
#
#
# Indices 1 2 3 4 5 6 
#
# 1 0.011085 -0.006172 -0.002113 0.000000 -0.006452 0.000000
# 2 -0.006172 0.021335 -0.001999 0.000000 0.002252 0.000000
# 3 -0.002113 -0.001999 0.013476 0.000000 -0.008445 0.000000
# 4 0.000000 0.000000 0.000000 -0.021311 0.000000 0.007030
# 5 -0.006452 0.002252 -0.008445 0.000000 0.044852 0.000000
# 6 0.000000 0.000000 0.000000 0.007030 0.000000 0.029500
#
#
# Mechanical properties :
#
#
# Convention : Reuss Voigt Hill
#
# Bulk Modulus (GPa) = 39.48256 55.78948 47.63602
# Shear Modulus (GPa) = 39.07848 16.36812 27.72330
#
# Velocity S-wave (km/s) = 4.48175 2.90054 3.77486
# Velocity P-wave (km/s) = 6.86114 6.31608 6.59425
#
# Compressibility (1/GPa) = 0.02532764
#
# Stress axis : x y z
#
# Youngs Moduli (GPa) = 90.21264 46.87163 74.20437
#
# Poissons Ratio (x) = 0.28929 0.15678
# Poissons Ratio (y) = 0.55678 0.14837
# Poissons Ratio (z) = 0.19061 0.09372
#
# Static dielectric constant tensor:
#      x y z
#    x 0.621720 0.000000 0.358500 
#    y 0.000000 1.698330 0.000000 
#    z 0.358500 0.000000 1.613360 
# 
# From -- ./inp_files/210574.got.cif
#   From: 2010.05.17/outbox.cif.g08.bks.cpg/sg15_106_cif.got.tgz:210574.got - 2010.06.03 18:47:42.
