data_PCOD9278502
_publ_section_title
;
Structure prediction by ZEFSAII (Michael W. Deem and Ramdas Pophale) SiO2 
 PCOD9278502
Probable space group: C 2/C
;
_chemical_formula_sum "Si O2"
_cell_formula_units_Z 48
_cell_length_a 22.895570
_cell_length_b 11.825552
_cell_length_c 29.604801
_cell_angle_alpha 90.000000
_cell_angle_beta 163.068398
_cell_angle_gamma 90.000000
_cell_volume 2334.376874
_symmetry_space_group_name_H-M "C 2/C"
_symmetry_group_IT_number 15
_symmetry_cell_setting 'monoclinic'
loop_
_space_group_symop_operation_xyz
x,y,z
-x,y,1/2-z
-x,-y,-z
x,-y,1/2+z
1/2+x,1/2+y,z
1/2-x,1/2+y,1/2-z
1/2-x,1/2-y,-z
1/2+x,1/2-y,1/2+z
loop_
_atom_site_type_symbol
_atom_site_label
_atom_site_fract_x
_atom_site_fract_y
_atom_site_fract_z
Si Si1 0.500000 0.988699 0.250000
Si Si2 0.066478 0.445491 0.449451
Si Si3 0.500000 0.389811 0.750000
Si Si4 0.906551 0.683896 0.341750
Si Si5 0.513515 0.199873 0.993004
Si Si6 0.783588 0.707249 0.074736
Si Si7 0.919715 0.299971 0.262840
O O1 0.318643 0.072578 0.103405
O O2 0.449302 0.908808 0.253802
O O3 0.300702 0.462177 0.611215
O O4 0.939078 0.557768 0.345838
O O5 0.027176 0.411910 0.472185
O O6 0.011630 0.335702 0.378776
O O7 0.488724 0.305888 0.697652
O O8 0.702555 0.741672 0.173449
O O9 0.924561 0.680131 0.409395
O O10 0.098171 0.755318 0.467429
O O11 0.687469 0.276641 0.099907
O O12 0.000000 0.754136 0.250000
O O13 0.750000 0.750000 0.000000
#
# Coordination Sequence:
#
# PCOD9278502 Si02
#       7
#     4   8   4   8   8   8   8
#     4   9  22  39  66  94 122 171 222 257 324 378
#     4  11  23  42  68  95 132 173 223 261 335 379
#     4   9  22  39  68 100 130 167 218 281 314 380
#     4  12  25  42  69  93 137 171 216 268 330 393
#     4  11  25  45  64  98 133 173 217 271 321 392
#     4  10  22  41  62  93 131 160 212 269 317 381
#     4  10  20  43  68  94 129 172 219 269 315 391
#
# _framework density 20.562232000000002
#
# number of rings (size 3 to 8) (size 9 to 14) (size 15 to 20)
#    0.500    1.000    1.667    3.000    3.500    2.000 
#    3.000    0.000    0.000    0.000    0.000    0.000 
#    0.000    0.000    0.000    0.000    0.000    0.000 
#
# Total GULP energy -133984.765161 kJ/mol
# GULP energy per Si atom -5582.698548 kJ/mol
# Density = 2.051543 g / cm^3
# Si number density = 20.562232 Si / 1000 Ang^3
#
#
#
# Elastic Constant Matrix: (Units=GPa)
#
#
# Indices 1 2 3 4 5 6 
#
# 1 99.5234 5.7922 14.2866 0.0202 -1.5087 -0.0005
# 2 5.7922 30.5839 -5.8731 0.0076 10.6967 0.0234
# 3 14.2866 -5.8731 91.2454 0.0229 12.9758 0.0440
# 4 0.0202 0.0076 0.0229 18.3061 0.0189 2.9115
# 5 -1.5087 10.6967 12.9758 0.0189 44.8487 0.0032
# 6 -0.0005 0.0234 0.0440 2.9115 0.0032 18.3662
#
#
#
# Elastic Compliance Matrix: (Units=1/GPa)
#
#
# Indices 1 2 3 4 5 6 
#
# 1 0.010545 -0.002980 -0.002080 -0.000011 0.001667 0.000011
# 2 -0.002980 0.037724 0.004368 0.000002 -0.010361 -0.000057
# 3 -0.002080 0.004368 0.012228 -0.000005 -0.004650 -0.000033
# 4 -0.000011 0.000002 -0.000005 0.056040 -0.000023 -0.008884
# 5 0.001667 -0.010361 -0.004650 -0.000023 0.026170 0.000023
# 6 0.000011 -0.000057 -0.000033 -0.008884 0.000023 0.055856
#
#
# Mechanical properties :
#
#
# Convention : Reuss Voigt Hill
#
# Bulk Modulus (GPa) = 16.91650 27.75156 22.33403
# Shear Modulus (GPa) = 22.76349 30.11398 26.43874
#
# Velocity S-wave (km/s) = 3.33085 3.83107 3.58968
# Velocity P-wave (km/s) = 4.79975 5.75284 5.29777
#
# Compressibility (1/GPa) = 0.05911388
#
# Stress axis : x y z
#
# Youngs Moduli (GPa) = 94.83025 26.50829 81.78285
#
# Poissons Ratio (x) = 0.07899 0.17011
# Poissons Ratio (y) = 0.28256 -0.35724
# Poissons Ratio (z) = 0.19724 -0.11579
#
# Static dielectric constant tensor:
#      x y z
#    x 1.763110 -0.000020 -0.052920 
#    y -0.000020 1.743510 -0.000010 
#    z -0.052920 -0.000010 1.761260 
# 
# From -- ./inp_files/300990.got.cif
#   From: 2010.05.17/outbox.cif.g08.bks.cpg/sg15_151_cif.got.tgz:300990.got - 2010.06.03 18:47:42.
