data_PCOD9278824
_publ_section_title
;
Structure prediction by ZEFSAII (Michael W. Deem and Ramdas Pophale) SiO2 
 PCOD9278824
Probable space group: C 2/C
;
_chemical_formula_sum "Si O2"
_cell_formula_units_Z 56
_cell_length_a 26.195741
_cell_length_b 5.484813
_cell_length_c 17.819821
_cell_angle_alpha 90.000000
_cell_angle_beta 125.855441
_cell_angle_gamma 90.000000
_cell_volume 2075.140402
_symmetry_space_group_name_H-M "C 2/C"
_symmetry_group_IT_number 15
_symmetry_cell_setting 'monoclinic'
loop_
_space_group_symop_operation_xyz
x,y,z
-x,y,1/2-z
-x,-y,-z
x,-y,1/2+z
1/2+x,1/2+y,z
1/2-x,1/2+y,1/2-z
1/2-x,1/2-y,-z
1/2+x,1/2-y,1/2+z
loop_
_atom_site_type_symbol
_atom_site_label
_atom_site_fract_x
_atom_site_fract_y
_atom_site_fract_z
Si Si1 0.958515 0.299999 0.365018
Si Si2 0.500000 0.460113 0.750000
Si Si3 0.240232 0.208593 0.658445
Si Si4 0.846009 0.407147 0.695567
Si Si5 0.344251 0.902433 0.025040
Si Si6 0.086060 0.881792 0.436806
Si Si7 0.850852 0.977694 0.305761
Si Si8 0.000000 0.000000 0.500000
O O1 0.901543 0.478679 0.296435
O O2 0.015075 0.283314 0.471414
O O3 0.921527 0.074572 0.380971
O O4 0.980765 0.211645 0.302535
O O5 0.445949 0.635470 0.672612
O O6 0.274629 0.964485 0.661146
O O7 0.223821 0.361895 0.570390
O O8 0.177198 0.193057 0.654079
O O9 0.295774 0.324973 0.755210
O O10 0.848441 0.527451 0.616305
O O11 0.853921 0.126545 0.724339
O O12 0.376924 0.639110 0.038418
O O13 0.371971 0.146671 0.011328
O O14 0.029469 0.875748 0.446647
#
# Coordination Sequence:
#
# PCOD9278824 Si02
#       8
#     8   4   8   8   8   8   8   4
#     4  10  22  43  69  98 139 178 242 288 364 419
#     4  10  20  48  68  98 138 188 232 292 356 424
#     4  11  25  42  70  99 143 182 238 287 367 423
#     4  11  24  43  68 100 139 188 231 293 357 435
#     4  12  27  45  72 106 144 186 238 299 353 437
#     4  11  26  46  71 106 142 187 240 296 359 422
#     4  11  23  42  67 100 133 187 229 294 354 437
#     4  10  24  46  70 104 140 188 242 306 358 424
#
# _framework density 26.986124
#
# number of rings (size 3 to 8) (size 9 to 14) (size 15 to 20)
#    0.000    1.143    2.857    2.143    6.000    1.714 
#   10.286    0.000    0.000    0.000    0.000    0.000 
#    0.000    0.000    0.000    0.000    0.000    0.000 
#
# Total GULP energy -155979.208972 kJ/mol
# GULP energy per Si atom -5570.686035 kJ/mol
# Density = 2.692470 g / cm^3
# Si number density = 26.986124 Si / 1000 Ang^3
#
#
#
# Elastic Constant Matrix: (Units=GPa)
#
#
# Indices 1 2 3 4 5 6 
#
# 1 111.8738 23.0114 18.2618 0.0000 -7.5057 0.0001
# 2 23.0114 59.1904 -7.4738 -0.0037 5.6594 -0.0023
# 3 18.2618 -7.4738 85.3504 0.0027 -3.5553 0.0010
# 4 0.0000 -0.0037 0.0027 15.6811 -0.0006 5.7229
# 5 -7.5057 5.6594 -3.5553 -0.0006 49.5887 -0.0001
# 6 0.0001 -0.0023 0.0010 5.7229 -0.0001 35.3545
#
#
#
# Elastic Compliance Matrix: (Units=1/GPa)
#
#
# Indices 1 2 3 4 5 6 
#
# 1 0.010420 -0.004556 -0.002549 -0.000001 0.001914 0.000000
# 2 -0.004556 0.019246 0.002547 0.000004 -0.002703 0.000001
# 3 -0.002549 0.002547 0.012494 -0.000002 0.000219 0.000000
# 4 -0.000001 0.000004 -0.000002 0.067775 0.000000 -0.010971
# 5 0.001914 -0.002703 0.000219 0.000000 0.020780 0.000000
# 6 0.000000 0.000001 0.000000 -0.010971 0.000000 0.030061
#
#
# Mechanical properties :
#
#
# Convention : Reuss Voigt Hill
#
# Bulk Modulus (GPa) = 30.26103 36.00146 33.13125
# Shear Modulus (GPa) = 27.63877 34.96588 31.30233
#
# Velocity S-wave (km/s) = 3.20376 3.60349 3.40949
# Velocity P-wave (km/s) = 4.99233 5.53924 5.27288
#
# Compressibility (1/GPa) = 0.03304580
#
# Stress axis : x y z
#
# Youngs Moduli (GPa) = 95.96711 51.95896 80.03876
#
# Poissons Ratio (x) = 0.23672 0.20400
# Poissons Ratio (y) = 0.43722 -0.20390
# Poissons Ratio (z) = 0.24459 -0.13236
#
# Static dielectric constant tensor:
#      x y z
#    x 2.221690 0.000000 0.057090 
#    y 0.000000 2.450890 -0.000010 
#    z 0.057090 -0.000010 2.264210 
# 
# From -- ./inp_files/221336.got.cif
#   From: 2010.05.17/outbox.cif.g08.bks.cpg/sg15_111_cif.got.tgz:221336.got - 2010.06.03 18:47:42.
