data_PCOD9278362
_publ_section_title
;
Structure prediction by ZEFSAII (Michael W. Deem and Ramdas Pophale) SiO2 
 PCOD9278362
Probable space group: C 2/C
;
_chemical_formula_sum "Si O2"
_cell_formula_units_Z 48
_cell_length_a 7.745368
_cell_length_b 17.548792
_cell_length_c 24.140873
_cell_angle_alpha 90.000000
_cell_angle_beta 140.953672
_cell_angle_gamma 90.000000
_cell_volume 2067.032699
_symmetry_space_group_name_H-M "C 2/C"
_symmetry_group_IT_number 15
_symmetry_cell_setting 'monoclinic'
loop_
_space_group_symop_operation_xyz
x,y,z
-x,y,1/2-z
-x,-y,-z
x,-y,1/2+z
1/2+x,1/2+y,z
1/2-x,1/2+y,1/2-z
1/2-x,1/2-y,-z
1/2+x,1/2-y,1/2+z
loop_
_atom_site_type_symbol
_atom_site_label
_atom_site_fract_x
_atom_site_fract_y
_atom_site_fract_z
Si Si1 0.426089 0.461075 0.374896
Si Si2 0.801433 0.715378 0.852607
Si Si3 0.682115 0.095612 0.155784
Si Si4 0.837969 0.673318 0.989788
Si Si5 0.751549 0.882752 0.854571
Si Si6 0.610792 0.936119 0.186309
O O1 0.640747 0.399587 0.448644
O O2 0.470831 0.549745 0.400714
O O3 0.355393 0.445447 0.292582
O O4 0.154989 0.448701 0.343293
O O5 0.500000 0.719892 0.750000
O O6 0.820302 0.691415 0.920844
O O7 0.926461 0.646717 0.848892
O O8 0.891932 0.802926 0.875281
O O9 0.380558 0.858720 0.915408
O O10 0.432876 0.122735 0.135186
O O11 0.646027 0.003962 0.150733
O O12 0.000000 0.111428 0.250000
O O13 0.750000 0.750000 0.000000
O O14 0.500000 0.900269 0.750000
#
# Coordination Sequence:
#
# PCOD9278362 Si02
#       6
#     8   8   8   8   8   8
#     4  10  21  44  73  98 140 183 241 286 351 420
#     4  11  22  42  73 103 148 183 234 299 354 411
#     4  11  24  45  72  99 145 190 235 288 361 419
#     4  12  26  47  68 109 145 183 243 300 350 422
#     4  10  20  42  72 104 137 193 232 285 350 432
#     4  10  21  43  73 107 134 188 236 286 356 427
#
# _framework density 23.221693999999999
#
# number of rings (size 3 to 8) (size 9 to 14) (size 15 to 20)
#    0.000    1.333    6.667    0.500    0.000    3.333 
#    9.000    2.500    0.000    0.000    0.000    0.000 
#    0.000    0.000    0.000    0.000    0.000    0.000 
#
# Total GULP energy -133969.169492 kJ/mol
# GULP energy per Si atom -5582.048729 kJ/mol
# Density = 2.316884 g / cm^3
# Si number density = 23.221694 Si / 1000 Ang^3
#
#
#
# Elastic Constant Matrix: (Units=GPa)
#
#
# Indices 1 2 3 4 5 6 
#
# 1 58.8500 63.8752 34.7666 -0.0003 -15.0289 0.0006
# 2 63.8752 227.9088 70.3865 -0.0001 -3.9799 0.0004
# 3 34.7666 70.3865 109.1632 -0.0001 -6.1792 0.0019
# 4 -0.0003 -0.0001 -0.0001 53.3227 -0.0002 -16.2775
# 5 -15.0289 -3.9799 -6.1792 -0.0002 31.6345 0.0010
# 6 0.0006 0.0004 0.0019 -16.2775 0.0010 47.6199
#
#
#
# Elastic Compliance Matrix: (Units=1/GPa)
#
#
# Indices 1 2 3 4 5 6 
#
# 1 0.030389 -0.006903 -0.004509 0.000000 0.012688 0.000000
# 2 -0.006903 0.007047 -0.002508 0.000000 -0.002883 0.000000
# 3 -0.004509 -0.002508 0.012210 0.000000 -0.000073 0.000000
# 4 0.000000 0.000000 0.000000 0.020939 0.000000 0.007157
# 5 0.012688 -0.002883 -0.000073 0.000000 0.037262 -0.000001
# 6 0.000000 0.000000 0.000000 0.007157 -0.000001 0.023446
#
#
# Mechanical properties :
#
#
# Convention : Reuss Voigt Hill
#
# Bulk Modulus (GPa) = 45.86213 81.55318 63.70765
# Shear Modulus (GPa) = 30.04798 41.64169 35.84483
#
# Velocity S-wave (km/s) = 3.60107 4.23924 3.93312
# Velocity P-wave (km/s) = 6.08957 7.69137 6.93686
#
# Compressibility (1/GPa) = 0.02180448
#
# Stress axis : x y z
#
# Youngs Moduli (GPa) = 32.90710 141.91163 81.90052
#
# Poissons Ratio (x) = 0.97957 0.36931
# Poissons Ratio (y) = 0.22715 0.20543
# Poissons Ratio (z) = 0.14839 0.35596
#
# Static dielectric constant tensor:
#      x y z
#    x 1.913390 0.000000 -0.014550 
#    y 0.000000 1.983410 0.000000 
#    z -0.014550 0.000000 1.968990 
# 
# From -- ./inp_files/231861.got.cif
#   From: 2010.05.17/outbox.cif.g08.bks.cpg/sg15_116_cif.got.tgz:231861.got - 2010.06.03 18:47:42.
