data_PCOD9278940
_publ_section_title
;
Structure prediction by ZEFSAII (Michael W. Deem and Ramdas Pophale) SiO2 
 PCOD9278940
Probable space group: C 2/C
;
_chemical_formula_sum "Si O2"
_cell_formula_units_Z 48
_cell_length_a 7.698072
_cell_length_b 34.792497
_cell_length_c 8.103364
_cell_angle_alpha 90.000000
_cell_angle_beta 87.289482
_cell_angle_gamma 90.000000
_cell_volume 2167.937506
_symmetry_space_group_name_H-M "C 2/C"
_symmetry_group_IT_number 15
_symmetry_cell_setting 'monoclinic'
loop_
_space_group_symop_operation_xyz
x,y,z
-x,y,1/2-z
-x,-y,-z
x,-y,1/2+z
1/2+x,1/2+y,z
1/2-x,1/2+y,1/2-z
1/2-x,1/2-y,-z
1/2+x,1/2-y,1/2+z
loop_
_atom_site_type_symbol
_atom_site_label
_atom_site_fract_x
_atom_site_fract_y
_atom_site_fract_z
Si Si1 0.294045 0.758024 0.748574
Si Si2 0.618747 0.323710 0.581285
Si Si3 0.224729 0.102317 0.564454
Si Si4 0.018329 0.456125 0.050671
Si Si5 0.325091 0.402173 0.037137
Si Si6 0.221955 0.188106 0.566252
O O1 0.500000 0.755088 0.750000
O O2 0.218282 0.783859 0.605306
O O3 0.221099 0.715252 0.785490
O O4 0.250925 0.784948 0.907452
O O5 0.500000 0.330491 0.750000
O O6 0.730077 0.361609 0.541910
O O7 0.485187 0.319991 0.435539
O O8 0.361585 0.071052 0.496785
O O9 0.199374 0.099950 0.763874
O O10 0.296196 0.145696 0.538252
O O11 0.032843 0.095179 0.496728
O O12 0.201047 0.436907 0.989300
O O13 0.000000 0.454824 0.250000
O O14 0.000000 0.500000 0.000000
#
# Coordination Sequence:
#
# PCOD9278940 Si02
#       6
#     8   8   8   8   8   8
#     4  10  21  33  53  81 115 149 195 246 291 334
#     4   9  19  37  54  80 117 149 200 242 286 349
#     4   9  19  38  64  82 115 157 198 234 287 359
#     4  10  22  42  61  94 121 148 194 247 299 369
#     4   9  19  37  62  84 115 157 191 235 293 351
#     4   9  20  38  51  79 115 152 195 243 285 342
#
# _framework density 22.140858999999999
#
# number of rings (size 3 to 8) (size 9 to 14) (size 15 to 20)
#    0.000    2.667    0.000    0.000    7.000    1.333 
#    9.000    5.833    0.000    0.000    0.000    0.000 
#    0.000    0.000    0.000    0.000    0.000    0.000 
#
# Total GULP energy -133890.219432 kJ/mol
# GULP energy per Si atom -5578.759143 kJ/mol
# Density = 2.209047 g / cm^3
# Si number density = 22.140859 Si / 1000 Ang^3
#
#
#
# Elastic Constant Matrix: (Units=GPa)
#
#
# Indices 1 2 3 4 5 6 
#
# 1 85.6812 83.6184 8.3225 0.0000 1.0681 0.0000
# 2 83.6184 232.7757 19.0736 0.0000 2.4079 0.0000
# 3 8.3225 19.0736 36.8377 0.0000 4.1794 0.0000
# 4 0.0000 0.0000 0.0000 43.7374 0.0000 5.0060
# 5 1.0681 2.4079 4.1794 0.0000 15.7168 0.0000
# 6 0.0000 0.0000 0.0000 5.0060 0.0000 38.5366
#
#
#
# Elastic Compliance Matrix: (Units=1/GPa)
#
#
# Indices 1 2 3 4 5 6 
#
# 1 0.017991 -0.006401 -0.000745 0.000000 -0.000044 0.000000
# 2 -0.006401 0.006764 -0.002050 0.000000 -0.000056 0.000000
# 3 -0.000745 -0.002050 0.029216 0.000000 -0.007404 0.000000
# 4 0.000000 0.000000 0.000000 0.023209 0.000000 -0.003015
# 5 -0.000044 -0.000056 -0.007404 0.000000 0.065607 0.000000
# 6 0.000000 0.000000 0.000000 -0.003015 0.000000 0.026341
#
#
# Mechanical properties :
#
#
# Convention : Reuss Voigt Hill
#
# Bulk Modulus (GPa) = 28.10676 64.14709 46.12693
# Shear Modulus (GPa) = 25.07778 35.88350 30.48064
#
# Velocity S-wave (km/s) = 3.36913 4.03015 3.71437
# Velocity P-wave (km/s) = 5.27796 7.11978 6.26690
#
# Compressibility (1/GPa) = 0.03557863
#
# Stress axis : x y z
#
# Youngs Moduli (GPa) = 55.58212 147.84050 34.22812
#
# Poissons Ratio (x) = 0.94639 0.02551
# Poissons Ratio (y) = 0.35580 0.07016
# Poissons Ratio (z) = 0.04142 0.30302
#
# Static dielectric constant tensor:
#      x y z
#    x 1.847720 0.000000 0.020890 
#    y 0.000000 1.850850 0.000000 
#    z 0.020890 0.000000 1.896320 
# 
# From -- ./inp_files/26114.got.cif
#   From: 2010.05.17/outbox.cif.g08.bks.cpg/sg15_14_cif.got.tgz:26114.got - 2010.06.03 18:47:42.
