data_PCOD9278723
_publ_section_title
;
Structure prediction by ZEFSAII (Michael W. Deem and Ramdas Pophale) SiO2 
 PCOD9278723
Probable space group: C 2/C
;
_chemical_formula_sum "Si O2"
_cell_formula_units_Z 40
_cell_length_a 7.784945
_cell_length_b 12.011686
_cell_length_c 17.984274
_cell_angle_alpha 90.000000
_cell_angle_beta 78.702589
_cell_angle_gamma 90.000000
_cell_volume 1649.129391
_symmetry_space_group_name_H-M "C 2/C"
_symmetry_group_IT_number 15
_symmetry_cell_setting 'monoclinic'
loop_
_space_group_symop_operation_xyz
x,y,z
-x,y,1/2-z
-x,-y,-z
x,-y,1/2+z
1/2+x,1/2+y,z
1/2-x,1/2+y,1/2-z
1/2-x,1/2-y,-z
1/2+x,1/2-y,1/2+z
loop_
_atom_site_type_symbol
_atom_site_label
_atom_site_fract_x
_atom_site_fract_y
_atom_site_fract_z
Si Si1 0.564483 0.758051 0.064661
Si Si2 0.041818 0.164294 0.829803
Si Si3 0.483888 0.870852 0.566754
Si Si4 0.879584 0.982720 0.935796
Si Si5 0.615765 0.960319 0.168831
O O1 0.538915 0.635274 0.098500
O O2 0.558975 0.849257 0.129046
O O3 0.750000 0.750000 0.000000
O O4 0.440783 0.802634 0.009299
O O5 0.087797 0.274400 0.872118
O O6 0.196648 0.074496 0.817258
O O7 0.000000 0.196150 0.750000
O O8 0.896325 0.091808 0.884366
O O9 0.328151 0.950925 0.548341
O O10 0.610009 0.943033 0.607964
O O11 0.000000 0.000000 0.000000
O O12 0.500000 0.987846 0.250000
#
# Coordination Sequence:
#
# PCOD9278723 Si02
#       5
#     8   8   8   8   8
#     4  10  20  44  75  96 137 183 228 286 343 412
#     4  12  25  45  70  99 143 185 231 292 352 413
#     4  11  23  47  72 102 139 184 234 288 348 421
#     4  11  21  43  74 102 135 180 231 285 345 414
#     4  12  25  46  69 103 143 181 233 292 351 415
#
# _framework density 24.255223999999998
#
# number of rings (size 3 to 8) (size 9 to 14) (size 15 to 20)
#    0.000    0.800    6.000    3.600    0.000    0.800 
#   10.800    2.000    0.000    0.000    0.000    0.000 
#    0.000    0.000    0.000    0.000    0.000    0.000 
#
# Total GULP energy -111630.415954 kJ/mol
# GULP energy per Si atom -5581.520798 kJ/mol
# Density = 2.420002 g / cm^3
# Si number density = 24.255224 Si / 1000 Ang^3
#
#
#
# Elastic Constant Matrix: (Units=GPa)
#
#
# Indices 1 2 3 4 5 6 
#
# 1 89.5400 5.3735 17.0519 0.0000 6.4836 0.0000
# 2 5.3735 90.1490 13.3132 0.0000 3.3807 0.0000
# 3 17.0519 13.3132 128.9519 0.0000 25.3256 0.0000
# 4 0.0000 0.0000 0.0000 37.7236 0.0000 14.8625
# 5 6.4836 3.3807 25.3256 0.0000 29.7201 0.0000
# 6 0.0000 0.0000 0.0000 14.8625 0.0000 31.8562
#
#
#
# Elastic Compliance Matrix: (Units=1/GPa)
#
#
# Indices 1 2 3 4 5 6 
#
# 1 0.011528 -0.000457 -0.001193 0.000000 -0.001446 0.000000
# 2 -0.000457 0.011286 -0.001048 0.000000 -0.000292 0.000000
# 3 -0.001193 -0.001048 0.009543 0.000000 -0.007753 0.000000
# 4 0.000000 0.000000 0.000000 0.032479 0.000000 -0.015153
# 5 -0.001446 -0.000292 -0.007753 0.000000 0.040602 0.000000
# 6 0.000000 0.000000 0.000000 -0.015153 0.000000 0.038461
#
#
# Mechanical properties :
#
#
# Convention : Reuss Voigt Hill
#
# Bulk Modulus (GPa) = 37.08955 42.23534 39.66244
# Shear Modulus (GPa) = 31.58957 38.05347 34.82152
#
# Velocity S-wave (km/s) = 3.61277 3.96520 3.79308
# Velocity P-wave (km/s) = 5.72078 6.19794 5.96414
#
# Compressibility (1/GPa) = 0.02696178
#
# Stress axis : x y z
#
# Youngs Moduli (GPa) = 86.74881 88.60851 104.78475
#
# Poissons Ratio (x) = 0.04047 0.12503
# Poissons Ratio (y) = 0.03962 0.10976
# Poissons Ratio (z) = 0.10351 0.09282
#
# Static dielectric constant tensor:
#      x y z
#    x 2.311000 0.000000 -0.073980 
#    y 0.000000 1.946780 0.000000 
#    z -0.073980 0.000000 1.912340 
# 
# From -- ./inp_files/187910.got.cif
#   From: 2010.05.17/outbox.cif.g08.bks.cpg/sg15_94_cif.got.tgz:187910.got - 2010.06.03 18:47:42.
