data_PCOD9278232
_publ_section_title
;
Structure prediction by ZEFSAII (Michael W. Deem and Ramdas Pophale) SiO2 
 PCOD9278232
Probable space group: C 2/C
;
_chemical_formula_sum "Si O2"
_cell_formula_units_Z 64
_cell_length_a 15.524826
_cell_length_b 11.136110
_cell_length_c 29.854171
_cell_angle_alpha 90.000000
_cell_angle_beta 144.505364
_cell_angle_gamma 90.000000
_cell_volume 2996.831324
_symmetry_space_group_name_H-M "C 2/C"
_symmetry_group_IT_number 15
_symmetry_cell_setting 'monoclinic'
loop_
_space_group_symop_operation_xyz
x,y,z
-x,y,1/2-z
-x,-y,-z
x,-y,1/2+z
1/2+x,1/2+y,z
1/2-x,1/2+y,1/2-z
1/2-x,1/2-y,-z
1/2+x,1/2-y,1/2+z
loop_
_atom_site_type_symbol
_atom_site_label
_atom_site_fract_x
_atom_site_fract_y
_atom_site_fract_z
Si Si1 0.573254 0.697246 0.393917
Si Si2 0.722249 0.875203 0.929855
Si Si3 0.135356 0.565795 0.962942
Si Si4 0.188843 0.975360 0.721141
Si Si5 0.323466 0.011031 0.181861
Si Si6 0.334878 0.741449 0.162507
Si Si7 0.025928 0.809297 0.393632
Si Si8 0.612846 0.083201 0.116418
O O1 0.691949 0.593292 0.455167
O O2 0.566854 0.801824 0.427747
O O3 0.416472 0.639788 0.316361
O O4 0.644161 0.760264 0.381017
O O5 0.746163 0.913040 0.888647
O O6 0.628955 0.753230 0.899283
O O7 0.634191 0.983234 0.917752
O O8 0.869866 0.856778 0.021894
O O9 0.037981 0.489774 0.956886
O O10 0.275479 0.953798 0.711375
O O11 0.293351 0.993270 0.807979
O O12 0.081148 0.088520 0.669569
O O13 0.500000 0.022107 0.250000
O O14 0.286248 0.869429 0.161673
O O15 0.500000 0.711312 0.250000
O O16 0.220406 0.634535 0.123898
O O17 0.932688 0.701706 0.375464
#
# Coordination Sequence:
#
# PCOD9278232 Si02
#       8
#     8   8   8   8   8   8   8   8
#     4  11  23  42  65  95 130 169 215 261 319 391
#     4  10  20  42  68  92 134 169 216 267 323 385
#     4  10  22  41  65  94 130 171 210 261 326 383
#     4  12  24  40  68  96 131 167 219 266 330 383
#     4  11  23  41  66 100 127 167 220 271 313 379
#     4  11  22  40  65  95 127 169 220 263 315 384
#     4  10  22  40  65  97 127 174 211 266 332 382
#     4  11  24  41  67  93 129 173 217 271 325 385
#
# _framework density 21.355889999999999
#
# number of rings (size 3 to 8) (size 9 to 14) (size 15 to 20)
#    0.000    1.250    5.000    1.500    3.500    1.000 
#    4.500    1.250    2.750    0.000    0.000    0.000 
#    0.000    0.000    0.000    0.000    0.000    0.000 
#
# Total GULP energy -178670.127056 kJ/mol
# GULP energy per Si atom -5583.441470 kJ/mol
# Density = 2.130728 g / cm^3
# Si number density = 21.355890 Si / 1000 Ang^3
#
#
#
# Elastic Constant Matrix: (Units=GPa)
#
#
# Indices 1 2 3 4 5 6 
#
# 1 68.4718 21.5404 2.0004 0.0000 1.0587 0.0000
# 2 21.5404 57.5933 31.0087 0.0000 10.3608 0.0000
# 3 2.0004 31.0087 47.0125 0.0000 8.4474 0.0000
# 4 0.0000 0.0000 0.0000 24.6954 0.0000 -4.2598
# 5 1.0587 10.3608 8.4474 0.0000 20.5154 0.0000
# 6 0.0000 0.0000 0.0000 -4.2598 0.0000 4.4388
#
#
#
# Elastic Compliance Matrix: (Units=1/GPa)
#
#
# Indices 1 2 3 4 5 6 
#
# 1 0.017489 -0.009756 0.005364 0.000000 0.001816 0.000000
# 2 -0.009756 0.033272 -0.020088 0.000000 -0.008028 0.000000
# 3 0.005364 -0.020088 0.035117 0.000000 -0.004592 0.000000
# 4 0.000000 0.000000 0.000000 0.048526 0.000000 0.046570
# 5 0.001816 -0.008028 -0.004592 0.000000 0.054595 0.000000
# 6 0.000000 0.000000 0.000000 0.046570 0.000000 0.269979
#
#
# Mechanical properties :
#
#
# Convention : Reuss Voigt Hill
#
# Bulk Modulus (GPa) = 27.08604 31.35296 29.21950
# Shear Modulus (GPa) = 9.61089 17.83180 13.72134
#
# Velocity S-wave (km/s) = 2.12370 2.89274 2.53753
# Velocity P-wave (km/s) = 4.32715 5.08629 4.72200
#
# Compressibility (1/GPa) = 0.03691938
#
# Stress axis : x y z
#
# Youngs Moduli (GPa) = 57.17929 30.05571 28.47598
#
# Poissons Ratio (x) = 0.29322 -0.15276
# Poissons Ratio (y) = 0.55783 0.57202
# Poissons Ratio (z) = -0.30673 0.60375
#
# Static dielectric constant tensor:
#      x y z
#    x 1.781250 0.000000 0.014170 
#    y 0.000000 1.776050 0.000000 
#    z 0.014170 0.000000 1.804800 
# 
# From -- ./inp_files/313603.got.cif
#   From: 2010.05.17/outbox.cif.g08.bks.cpg/sg15_157_cif.got.tgz:313603.got - 2010.06.03 18:47:42.
