data_PCOD9278991
_publ_section_title
;
Structure prediction by ZEFSAII (Michael W. Deem and Ramdas Pophale) SiO2 
 PCOD9278991
Probable space group: C 2/C
;
_chemical_formula_sum "Si O2"
_cell_formula_units_Z 48
_cell_length_a 16.644690
_cell_length_b 14.095997
_cell_length_c 9.669006
_cell_angle_alpha 90.000000
_cell_angle_beta 114.642376
_cell_angle_gamma 90.000000
_cell_volume 2061.972228
_symmetry_space_group_name_H-M "C 2/C"
_symmetry_group_IT_number 15
_symmetry_cell_setting 'monoclinic'
loop_
_space_group_symop_operation_xyz
x,y,z
-x,y,1/2-z
-x,-y,-z
x,-y,1/2+z
1/2+x,1/2+y,z
1/2-x,1/2+y,1/2-z
1/2-x,1/2-y,-z
1/2+x,1/2-y,1/2+z
loop_
_atom_site_type_symbol
_atom_site_label
_atom_site_fract_x
_atom_site_fract_y
_atom_site_fract_z
Si Si1 0.070705 0.839202 0.178635
Si Si2 0.938603 0.257419 0.422631
Si Si3 0.080734 0.043961 0.200839
Si Si4 0.282124 0.941515 0.843823
Si Si5 0.157587 0.392352 0.318959
Si Si6 0.750399 0.738121 0.798074
O O1 0.167844 0.816059 0.300426
O O2 0.000000 0.844816 0.250000
O O3 0.072784 0.944084 0.111766
O O4 0.033238 0.752260 0.060868
O O5 0.923653 0.147995 0.368203
O O6 0.928041 0.334940 0.296073
O O7 0.846109 0.277908 0.437829
O O8 0.182097 0.037362 0.326742
O O9 0.000000 0.042963 0.250000
O O10 0.272497 0.846441 0.745825
O O11 0.319363 0.022863 0.770421
O O12 0.339853 0.924851 0.022186
O O13 0.232819 0.312595 0.339546
#
# Coordination Sequence:
#
# PCOD9278991 Si02
#       6
#     8   8   8   8   8   8
#     4  11  22  38  61  99 138 170 217 279 341 390
#     4   9  22  38  59  91 132 177 226 258 330 401
#     4  10  21  33  62  97 133 171 211 281 334 400
#     4  11  22  42  66  96 134 178 224 267 334 397
#     4  10  23  42  65  94 132 176 223 268 323 398
#     4   9  22  41  63  92 133 178 220 270 325 404
#
# _framework density 23.278683000000001
#
# number of rings (size 3 to 8) (size 9 to 14) (size 15 to 20)
#    1.000    1.000    1.667    1.000    2.333    7.333 
#    0.000    0.833    0.000    1.000    0.000    0.000 
#    0.000    0.000    0.000    0.000    0.000    0.000 
#
# Total GULP energy -133605.286950 kJ/mol
# GULP energy per Si atom -5566.886956 kJ/mol
# Density = 2.322570 g / cm^3
# Si number density = 23.278683 Si / 1000 Ang^3
#
#
#
# Elastic Constant Matrix: (Units=GPa)
#
#
# Indices 1 2 3 4 5 6 
#
# 1 77.3114 7.3734 -24.4588 0.0000 8.5919 0.0000
# 2 7.3734 110.2109 -7.8758 0.0000 -2.0823 0.0000
# 3 -24.4588 -7.8758 27.1837 0.0000 -5.9043 0.0000
# 4 0.0000 0.0000 0.0000 32.4855 0.0000 16.4385
# 5 8.5919 -2.0823 -5.9043 0.0000 19.2683 0.0000
# 6 0.0000 0.0000 0.0000 16.4385 0.0000 -8.9938
#
#
#
# Elastic Compliance Matrix: (Units=1/GPa)
#
#
# Indices 1 2 3 4 5 6 
#
# 1 0.018282 -0.000167 0.015670 0.000000 -0.003369 0.000000
# 2 -0.000167 0.009336 0.002989 0.000000 0.001999 0.000000
# 3 0.015670 0.002989 0.053891 0.000000 0.009849 0.000000
# 4 0.000000 0.000000 0.000000 0.015992 0.000000 0.029230
# 5 -0.003369 0.001999 0.009849 0.000000 0.056635 0.000000
# 6 0.000000 0.000000 0.000000 0.029230 0.000000 -0.057763
#
#
# Mechanical properties :
#
#
# Convention : Reuss Voigt Hill
#
# Bulk Modulus (GPa) = 8.43936 18.30927 13.37431
# Shear Modulus (GPa) = 50.56236 24.52981 37.54608
#
# Velocity S-wave (km/s) = 4.66558 3.24967 4.02044
# Velocity P-wave (km/s) = 5.71460 4.68645 5.22587
#
# Compressibility (1/GPa) = 0.11849246
#
# Stress axis : x y z
#
# Youngs Moduli (GPa) = 54.69738 107.11171 18.55601
#
# Poissons Ratio (x) = 0.01789 -0.29077
# Poissons Ratio (y) = 0.00913 -0.05546
# Poissons Ratio (z) = -0.85709 -0.32014
#
# Static dielectric constant tensor:
#      x y z
#    x 1.913280 0.000000 0.012200 
#    y 0.000000 1.880610 0.000000 
#    z 0.012200 0.000000 1.988820 
# 
# From -- ./inp_files/96539.got.cif
#   From: 2010.05.17/outbox.cif.g08.bks.cpg/sg15_49_cif.got.tgz:96539.got - 2010.06.03 18:47:42.
