data_PCOD9278736
_publ_section_title
;
Structure prediction by ZEFSAII (Michael W. Deem and Ramdas Pophale) SiO2 
 PCOD9278736
Probable space group: C 2/C
;
_chemical_formula_sum "Si O2"
_cell_formula_units_Z 44
_cell_length_a 7.431080
_cell_length_b 12.245743
_cell_length_c 25.720599
_cell_angle_alpha 90.000000
_cell_angle_beta 124.172380
_cell_angle_gamma 90.000000
_cell_volume 1936.458442
_symmetry_space_group_name_H-M "C 2/C"
_symmetry_group_IT_number 15
_symmetry_cell_setting 'monoclinic'
loop_
_space_group_symop_operation_xyz
x,y,z
-x,y,1/2-z
-x,-y,-z
x,-y,1/2+z
1/2+x,1/2+y,z
1/2-x,1/2+y,1/2-z
1/2-x,1/2-y,-z
1/2+x,1/2-y,1/2+z
loop_
_atom_site_type_symbol
_atom_site_label
_atom_site_fract_x
_atom_site_fract_y
_atom_site_fract_z
Si Si1 0.893415 0.720637 0.105405
Si Si2 0.856230 0.295085 0.348329
Si Si3 0.296390 0.592122 0.516235
Si Si4 0.000000 0.953783 0.250000
Si Si5 0.703364 0.142607 0.242618
Si Si6 0.257804 0.634448 0.973024
O O1 0.700241 0.705638 0.116235
O O2 0.835582 0.841642 0.075056
O O3 0.105173 0.690790 0.173016
O O4 0.876651 0.648772 0.050720
O O5 0.648544 0.374379 0.308798
O O6 0.863291 0.229733 0.295708
O O7 0.064655 0.361938 0.399528
O O8 0.521615 0.611866 0.522061
O O9 0.237265 0.465722 0.509654
O O10 0.166278 0.031961 0.246410
O O11 0.500000 0.128453 0.250000
O O12 0.250000 0.750000 0.000000
#
# Coordination Sequence:
#
# PCOD9278736 Si02
#       6
#     8   8   8   4   8   8
#     4  10  20  45  65  95 138 170 228 285 333 413
#     4  11  23  45  66 101 137 168 238 282 329 426
#     4  10  23  40  67  96 131 182 222 275 346 409
#     4  12  24  46  72  98 138 192 216 286 364 390
#     4  10  24  46  69 101 137 177 231 289 339 419
#     4  11  23  42  64  97 136 177 226 279 340 408
#
# _framework density 22.721890999999999
#
# number of rings (size 3 to 8) (size 9 to 14) (size 15 to 20)
#    0.000    1.455    4.545    1.091    2.545    2.182 
#    8.182    0.000    0.000    0.000    0.000    0.000 
#    0.000    0.000    0.000    0.000    0.000    0.000 
#
# Total GULP energy -122855.182757 kJ/mol
# GULP energy per Si atom -5584.326489 kJ/mol
# Density = 2.267017 g / cm^3
# Si number density = 22.721891 Si / 1000 Ang^3
#
#
#
# Elastic Constant Matrix: (Units=GPa)
#
#
# Indices 1 2 3 4 5 6 
#
# 1 39.9360 13.7200 31.9593 0.0000 1.6068 0.0000
# 2 13.7200 135.0569 52.2238 0.0000 -0.4058 0.0000
# 3 31.9593 52.2238 142.8514 0.0000 0.7459 0.0000
# 4 0.0000 0.0000 0.0000 18.6917 0.0000 5.3120
# 5 1.6068 -0.4058 0.7459 0.0000 27.7402 0.0000
# 6 0.0000 0.0000 0.0000 5.3120 0.0000 36.8360
#
#
#
# Elastic Compliance Matrix: (Units=1/GPa)
#
#
# Indices 1 2 3 4 5 6 
#
# 1 0.030605 -0.000547 -0.006639 0.000000 -0.001602 0.000000
# 2 -0.000547 0.008634 -0.003035 0.000000 0.000240 0.000000
# 3 -0.006639 -0.003035 0.009595 0.000000 0.000082 0.000000
# 4 0.000000 0.000000 0.000000 0.055786 0.000000 -0.008045
# 5 -0.001602 0.000240 0.000082 0.000000 0.036143 0.000000
# 6 0.000000 0.000000 0.000000 -0.008045 0.000000 0.028307
#
#
# Mechanical properties :
#
#
# Convention : Reuss Voigt Hill
#
# Bulk Modulus (GPa) = 35.22102 57.07228 46.14665
# Shear Modulus (GPa) = 25.12856 31.31633 28.22244
#
# Velocity S-wave (km/s) = 3.32914 3.71650 3.52814
# Velocity P-wave (km/s) = 5.50565 6.60218 6.07869
#
# Compressibility (1/GPa) = 0.02839213
#
# Stress axis : x y z
#
# Youngs Moduli (GPa) = 32.67415 115.81710 104.22279
#
# Poissons Ratio (x) = 0.06333 0.69192
# Poissons Ratio (y) = 0.01787 0.31636
# Poissons Ratio (z) = 0.21692 0.35156
#
# Static dielectric constant tensor:
#      x y z
#    x 1.909240 0.000000 -0.034320 
#    y 0.000000 1.875430 0.000000 
#    z -0.034320 0.000000 1.903790 
# 
# From -- ./inp_files/230186.got.cif
#   From: 2010.05.17/outbox.cif.g08.bks.cpg/sg15_116_cif.got.tgz:230186.got - 2010.06.03 18:47:42.
