data_PCOD9278432
_publ_section_title
;
Structure prediction by ZEFSAII (Michael W. Deem and Ramdas Pophale) SiO2 
 PCOD9278432
Probable space group: C 2/C
;
_chemical_formula_sum "Si O2"
_cell_formula_units_Z 56
_cell_length_a 14.628365
_cell_length_b 21.012555
_cell_length_c 9.785201
_cell_angle_alpha 90.000000
_cell_angle_beta 112.882217
_cell_angle_gamma 90.000000
_cell_volume 2771.075542
_symmetry_space_group_name_H-M "C 2/C"
_symmetry_group_IT_number 15
_symmetry_cell_setting 'monoclinic'
loop_
_space_group_symop_operation_xyz
x,y,z
-x,y,1/2-z
-x,-y,-z
x,-y,1/2+z
1/2+x,1/2+y,z
1/2-x,1/2+y,1/2-z
1/2-x,1/2-y,-z
1/2+x,1/2-y,1/2+z
loop_
_atom_site_type_symbol
_atom_site_label
_atom_site_fract_x
_atom_site_fract_y
_atom_site_fract_z
Si Si1 0.719486 0.461773 0.750276
Si Si2 0.415617 0.282101 0.795121
Si Si3 0.534295 0.848409 0.405256
Si Si4 0.453598 0.949644 0.870438
Si Si5 0.099773 0.122081 0.975030
Si Si6 0.867904 0.897036 0.307708
Si Si7 0.270351 0.349296 0.527079
O O1 0.836727 0.461978 0.794727
O O2 0.665851 0.430199 0.589462
O O3 0.677830 0.532778 0.739758
O O4 0.704907 0.414146 0.871512
O O5 0.500000 0.315831 0.750000
O O6 0.535298 0.213985 0.643025
O O7 0.320113 0.292411 0.643804
O O8 0.397335 0.316975 0.925841
O O9 0.500000 0.887310 0.250000
O O10 0.523321 0.883031 0.541936
O O11 0.652233 0.839659 0.456608
O O12 0.500000 0.952367 0.750000
O O13 0.500000 0.000000 0.000000
O O14 0.137179 0.135598 0.844091
O O15 0.985557 0.098973 0.905851
O O16 0.814475 0.860348 0.401318
#
# Coordination Sequence:
#
# PCOD9278432 Si02
#       7
#     8   8   8   8   8   8   8
#     4  10  23  38  64  92 133 169 212 257 326 387
#     4  10  20  43  64  86 128 169 214 264 318 379
#     4  10  24  43  68  96 124 171 223 260 324 386
#     4  11  26  44  67  96 134 168 214 266 317 382
#     4  10  22  38  60  96 129 168 209 268 323 380
#     4  11  21  36  63  97 131 164 212 263 326 385
#     4  10  22  40  65  95 126 172 215 268 317 386
#
# _framework density 20.208760999999999
#
# number of rings (size 3 to 8) (size 9 to 14) (size 15 to 20)
#    0.000    1.714    1.429    1.714    8.000    3.429 
#    2.571    0.000    0.000    6.000    0.000    0.000 
#    0.000    0.000    0.000    0.000    0.000    0.000 
#
# Total GULP energy -156298.670814 kJ/mol
# GULP energy per Si atom -5582.095386 kJ/mol
# Density = 2.016276 g / cm^3
# Si number density = 20.208761 Si / 1000 Ang^3
#
#
#
# Elastic Constant Matrix: (Units=GPa)
#
#
# Indices 1 2 3 4 5 6 
#
# 1 101.1973 47.0688 91.1603 0.0000 -12.2116 0.0000
# 2 47.0688 95.9989 65.9503 0.0000 -7.6604 0.0000
# 3 91.1603 65.9503 184.6865 0.0000 -18.0568 0.0000
# 4 0.0000 0.0000 0.0000 29.7938 0.0000 1.7063
# 5 -12.2116 -7.6604 -18.0568 0.0000 48.3878 0.0000
# 6 0.0000 0.0000 0.0000 1.7063 0.0000 -4.7910
#
#
#
# Elastic Compliance Matrix: (Units=1/GPa)
#
#
# Indices 1 2 3 4 5 6 
#
# 1 0.018835 -0.003753 -0.007836 0.000000 0.001235 0.000000
# 2 -0.003753 0.014557 -0.003335 0.000000 0.000113 0.000000
# 3 -0.007836 -0.003335 0.010615 0.000000 0.001456 0.000000
# 4 0.000000 0.000000 0.000000 0.032893 0.000000 0.011714
# 5 0.001235 0.000113 0.001456 0.000000 0.021539 0.000000
# 6 0.000000 0.000000 0.000000 0.011714 0.000000 -0.204551
#
#
# Mechanical properties :
#
#
# Convention : Reuss Voigt Hill
#
# Bulk Modulus (GPa) = 70.62118 87.80460 79.21289
# Shear Modulus (GPa) = -69.88715 26.52501 -21.68107
#
# Velocity S-wave (km/s) = -5.88708 3.62684 -3.27900
# Velocity P-wave (km/s) = 3.34493 7.81548 4.99466
#
# Compressibility (1/GPa) = 0.01416006
#
# Stress axis : x y z
#
# Youngs Moduli (GPa) = 53.09220 68.69644 94.20242
#
# Poissons Ratio (x) = 0.25783 0.73816
# Poissons Ratio (y) = 0.19927 0.31412
# Poissons Ratio (z) = 0.41603 0.22907
#
# Static dielectric constant tensor:
#      x y z
#    x 1.697100 0.000000 0.004990 
#    y 0.000000 1.771640 0.000000 
#    z 0.004990 0.000000 1.723780 
# 
# From -- ./inp_files/42258.got.cif
#   From: 2010.05.17/outbox.cif.g08.bks.cpg/sg15_22_cif.got.tgz:42258.got - 2010.06.03 18:47:42.
