data_PCOD9278633
_publ_section_title
;
Structure prediction by ZEFSAII (Michael W. Deem and Ramdas Pophale) SiO2 
 PCOD9278633
Probable space group: C 2/C
;
_chemical_formula_sum "Si O2"
_cell_formula_units_Z 36
_cell_length_a 13.460785
_cell_length_b 7.383462
_cell_length_c 23.672142
_cell_angle_alpha 90.000000
_cell_angle_beta 141.474876
_cell_angle_gamma 90.000000
_cell_volume 1465.402270
_symmetry_space_group_name_H-M "C 2/C"
_symmetry_group_IT_number 15
_symmetry_cell_setting 'monoclinic'
loop_
_space_group_symop_operation_xyz
x,y,z
-x,y,1/2-z
-x,-y,-z
x,-y,1/2+z
1/2+x,1/2+y,z
1/2-x,1/2+y,1/2-z
1/2-x,1/2-y,-z
1/2+x,1/2-y,1/2+z
loop_
_atom_site_type_symbol
_atom_site_label
_atom_site_fract_x
_atom_site_fract_y
_atom_site_fract_z
Si Si1 0.368314 0.822304 0.886328
Si Si2 0.849893 0.558975 0.770687
Si Si3 0.775931 0.221504 0.445507
Si Si4 0.311824 0.199014 0.589026
Si Si5 0.000000 0.723507 0.250000
O O1 0.310860 0.651545 0.822139
O O2 0.257830 0.817313 0.891767
O O3 0.352062 0.988670 0.835732
O O4 0.547661 0.791560 0.987637
O O5 0.996661 0.697764 0.827829
O O6 0.901256 0.396889 0.751672
O O7 0.750000 0.250000 0.500000
O O8 0.635658 0.315096 0.347594
O O9 0.749520 0.006014 0.425130
O O10 0.250000 0.250000 0.500000
#
# Coordination Sequence:
#
# PCOD9278633 Si02
#       5
#     8   8   8   8   4
#     4  12  24  45  73 101 143 194 236 295 375 421
#     4  11  24  45  70 103 141 189 241 294 360 433
#     4  11  22  45  70 101 136 190 239 289 357 427
#     4  11  25  45  67  99 150 183 236 306 354 428
#     4  10  20  44  66  92 146 178 228 306 340 412
#
# _framework density 24.566635000000002
#
# number of rings (size 3 to 8) (size 9 to 14) (size 15 to 20)
#    0.000    0.889    8.889    0.667    3.111    0.889 
#    4.000    0.000    0.000    0.000    0.000    0.000 
#    0.000    0.000    0.000    0.000    0.000    0.000 
#
# Total GULP energy -100815.563313 kJ/mol
# GULP energy per Si atom -5600.864628 kJ/mol
# Density = 2.451072 g / cm^3
# Si number density = 24.566635 Si / 1000 Ang^3
#
#
#
# Elastic Constant Matrix: (Units=GPa)
#
#
# Indices 1 2 3 4 5 6 
#
# 1 141.5957 41.0758 61.5328 0.0000 -33.0352 0.0000
# 2 41.0758 68.2660 37.8459 0.0000 7.6203 0.0000
# 3 61.5328 37.8459 218.9000 0.0000 -4.7701 0.0000
# 4 0.0000 0.0000 0.0000 32.1795 0.0000 -9.5686
# 5 -33.0352 7.6203 -4.7701 0.0000 42.0140 0.0000
# 6 0.0000 0.0000 0.0000 -9.5686 0.0000 22.4795
#
#
#
# Elastic Compliance Matrix: (Units=1/GPa)
#
#
# Indices 1 2 3 4 5 6 
#
# 1 0.012864 -0.007892 -0.002005 0.000000 0.011318 0.000000
# 2 -0.007892 0.021503 -0.001724 0.000000 -0.010301 0.000000
# 3 -0.002005 -0.001724 0.005416 0.000000 -0.000649 0.000000
# 4 0.000000 0.000000 0.000000 0.035579 0.000000 0.015144
# 5 0.011318 -0.010301 -0.000649 0.000000 0.034496 0.000000
# 6 0.000000 0.000000 0.000000 0.015144 0.000000 0.050931
#
#
# Mechanical properties :
#
#
# Convention : Reuss Voigt Hill
#
# Bulk Modulus (GPa) = 60.45599 78.85231 69.65415
# Shear Modulus (GPa) = 26.37921 38.55507 32.46714
#
# Velocity S-wave (km/s) = 3.28042 3.96587 3.63932
# Velocity P-wave (km/s) = 6.24584 7.28957 6.78780
#
# Compressibility (1/GPa) = 0.01654096
#
# Stress axis : x y z
#
# Youngs Moduli (GPa) = 77.73807 46.50574 184.64731
#
# Poissons Ratio (x) = 0.36703 0.37019
# Poissons Ratio (y) = 0.61351 0.31827
# Poissons Ratio (z) = 0.15586 0.08016
#
# Static dielectric constant tensor:
#      x y z
#    x 1.922480 0.000000 0.041200 
#    y 0.000000 2.053910 0.000000 
#    z 0.041200 0.000000 2.002070 
# 
# From -- ./inp_files/272440.got.cif
#   From: 2010.05.17/outbox.cif.g08.bks.cpg/sg15_137_cif.got.tgz:272440.got - 2010.06.03 18:47:42.
