data_PCOD9278418
_publ_section_title
;
Structure prediction by ZEFSAII (Michael W. Deem and Ramdas Pophale) SiO2 
 PCOD9278418
Probable space group: C 2/C
;
_chemical_formula_sum "Si O2"
_cell_formula_units_Z 52
_cell_length_a 20.795570
_cell_length_b 9.498990
_cell_length_c 24.315159
_cell_angle_alpha 90.000000
_cell_angle_beta 148.004063
_cell_angle_gamma 90.000000
_cell_volume 2544.988308
_symmetry_space_group_name_H-M "C 2/C"
_symmetry_group_IT_number 15
_symmetry_cell_setting 'monoclinic'
loop_
_space_group_symop_operation_xyz
x,y,z
-x,y,1/2-z
-x,-y,-z
x,-y,1/2+z
1/2+x,1/2+y,z
1/2-x,1/2+y,1/2-z
1/2-x,1/2-y,-z
1/2+x,1/2-y,1/2+z
loop_
_atom_site_type_symbol
_atom_site_label
_atom_site_fract_x
_atom_site_fract_y
_atom_site_fract_z
Si Si1 0.660246 0.754326 0.060659
Si Si2 0.113430 0.665040 0.119158
Si Si3 0.813367 0.362558 0.298590
Si Si4 0.500000 0.040566 0.250000
Si Si5 0.080159 0.315184 0.470387
Si Si6 0.171805 0.428147 0.965286
Si Si7 0.735078 0.534269 0.572443
O O1 0.517447 0.789434 0.954097
O O2 0.712867 0.826989 0.043868
O O3 0.703440 0.817568 0.149811
O O4 0.688096 0.589268 0.077683
O O5 0.166362 0.529847 0.188904
O O6 0.200679 0.798645 0.185237
O O7 0.099013 0.621841 0.045123
O O8 0.935987 0.291031 0.364337
O O9 0.438764 0.124148 0.154724
O O10 0.617848 0.952968 0.314659
O O11 0.121259 0.429964 0.456431
O O12 0.159824 0.175650 0.523159
O O13 0.275014 0.473569 0.997174
#
# Coordination Sequence:
#
# PCOD9278418 Si02
#       7
#     8   8   8   4   8   8   8
#     4  11  22  42  63  90 132 162 208 258 313 373
#     4  11  25  40  65  92 123 169 206 261 318 369
#     4  11  25  40  65  92 123 169 206 261 318 369
#     4   8  24  36  64  90 118 168 212 242 314 360
#     4  11  22  42  63  90 132 162 208 258 313 373
#     4  10  20  43  62  87 126 167 206 253 314 364
#     4  10  24  37  64  97 118 171 206 259 304 366
#
# _framework density 20.432314000000002
#
# number of rings (size 3 to 8) (size 9 to 14) (size 15 to 20)
#    0.923    0.615    3.077    1.846    8.615    1.231 
#    0.000    0.000    0.000    3.692    0.000    0.000 
#    0.000    0.000    0.000    0.000    0.000    0.000 
#
# Total GULP energy -145035.012733 kJ/mol
# GULP energy per Si atom -5578.269720 kJ/mol
# Density = 2.038581 g / cm^3
# Si number density = 20.432314 Si / 1000 Ang^3
#
#
#
# Elastic Constant Matrix: (Units=GPa)
#
#
# Indices 1 2 3 4 5 6 
#
# 1 74.2300 29.0554 8.9349 -0.0001 0.3755 0.0000
# 2 29.0554 85.7700 13.9659 -0.0001 9.9400 0.0000
# 3 8.9349 13.9659 36.0059 -0.0002 -0.9014 -0.0001
# 4 -0.0001 -0.0001 -0.0002 86.7047 -0.0001 30.5930
# 5 0.3755 9.9400 -0.9014 -0.0001 25.1594 0.0000
# 6 0.0000 0.0000 -0.0001 30.5930 0.0000 40.4665
#
#
#
# Elastic Compliance Matrix: (Units=1/GPa)
#
#
# Indices 1 2 3 4 5 6 
#
# 1 0.015733 -0.005237 -0.001829 0.000000 0.001769 0.000000
# 2 -0.005237 0.014877 -0.004620 0.000000 -0.005965 0.000000
# 3 -0.001829 -0.004620 0.030092 0.000000 0.002931 0.000000
# 4 0.000000 0.000000 0.000000 0.015729 0.000000 -0.011891
# 5 0.001769 -0.005965 0.002931 0.000000 0.042182 0.000000
# 6 0.000000 0.000000 0.000000 -0.011891 0.000000 0.033702
#
#
# Mechanical properties :
#
#
# Convention : Reuss Voigt Hill
#
# Bulk Modulus (GPa) = 26.78761 33.32426 30.05593
# Shear Modulus (GPa) = 26.57753 40.06944 33.32348
#
# Velocity S-wave (km/s) = 3.61052 4.43321 4.04285
# Velocity P-wave (km/s) = 5.52449 6.52300 6.04440
#
# Compressibility (1/GPa) = 0.03733069
#
# Stress axis : x y z
#
# Youngs Moduli (GPa) = 63.56223 67.21930 33.23102
#
# Poissons Ratio (x) = 0.35201 0.06076
# Poissons Ratio (y) = 0.33286 0.15353
# Poissons Ratio (z) = 0.11623 0.31056
#
# Static dielectric constant tensor:
#      x y z
#    x 1.768330 0.000000 -0.029820 
#    y 0.000000 1.713570 0.000000 
#    z -0.029820 0.000000 1.727380 
# 
# From -- ./inp_files/302008.got.cif
#   From: 2010.05.17/outbox.cif.g08.bks.cpg/sg15_152_cif.got.tgz:302008.got - 2010.06.03 18:47:42.
