data_PCOD9278388
_publ_section_title
;
Structure prediction by ZEFSAII (Michael W. Deem and Ramdas Pophale) SiO2 
 PCOD9278388
Probable space group: C 2/C
;
_chemical_formula_sum "Si O2"
_cell_formula_units_Z 48
_cell_length_a 13.826033
_cell_length_b 28.351139
_cell_length_c 8.790257
_cell_angle_alpha 90.000000
_cell_angle_beta 134.736200
_cell_angle_gamma 90.000000
_cell_volume 2447.626048
_symmetry_space_group_name_H-M "C 2/C"
_symmetry_group_IT_number 15
_symmetry_cell_setting 'monoclinic'
loop_
_space_group_symop_operation_xyz
x,y,z
-x,y,1/2-z
-x,-y,-z
x,-y,1/2+z
1/2+x,1/2+y,z
1/2-x,1/2+y,1/2-z
1/2-x,1/2-y,-z
1/2+x,1/2-y,1/2+z
loop_
_atom_site_type_symbol
_atom_site_label
_atom_site_fract_x
_atom_site_fract_y
_atom_site_fract_z
Si Si1 0.849549 0.130223 0.039903
Si Si2 0.225052 0.785182 0.254865
Si Si3 0.000000 0.489099 0.750000
Si Si4 0.132537 0.437244 0.174224
Si Si5 0.222336 0.179794 0.232925
Si Si6 0.507938 0.849210 0.925898
Si Si7 0.500000 0.303109 0.250000
O O1 0.781393 0.147783 0.121648
O O2 0.000000 0.115645 0.250000
O O3 0.850109 0.177700 0.938426
O O4 0.775475 0.087830 0.869027
O O5 0.270678 0.736095 0.229740
O O6 0.367851 0.812112 0.445104
O O7 0.119275 0.777940 0.279614
O O8 0.093352 0.523002 0.750505
O O9 0.901282 0.460189 0.526918
O O10 0.037484 0.390811 0.076742
O O11 0.363420 0.171547 0.304574
O O12 0.094598 0.170457 0.978783
O O13 0.500000 0.870428 0.750000
#
# Coordination Sequence:
#
# PCOD9278388 Si02
#       7
#     8   8   4   8   8   8   4
#     4  11  24  44  62  91 134 174 217 268 332 386
#     4  11  24  39  60  86 130 177 230 268 313 369
#     4  10  20  42  73  98 126 154 208 266 341 408
#     4  10  22  41  68 100 124 162 204 275 328 399
#     4  12  24  38  61  87 129 182 229 269 318 373
#     4  11  22  37  60  94 130 162 219 271 312 376
#     4  12  22  36  57  88 118 172 228 276 329 356
#
# _framework density 19.610838999999999
#
# number of rings (size 3 to 8) (size 9 to 14) (size 15 to 20)
#    0.000    1.000    4.167    3.000    2.333    2.000 
#    0.000    0.833    0.000    0.000    0.000    0.000 
#    0.000    0.000    0.000    0.000    0.000    0.000 
#
# Total GULP energy -133736.843275 kJ/mol
# GULP energy per Si atom -5572.368470 kJ/mol
# Density = 1.956620 g / cm^3
# Si number density = 19.610839 Si / 1000 Ang^3
#
#
#
# Elastic Constant Matrix: (Units=GPa)
#
#
# Indices 1 2 3 4 5 6 
#
# 1 93.5720 33.3570 42.2807 0.0000 -1.2090 0.0000
# 2 33.3570 102.7810 62.3412 0.0000 1.5910 0.0000
# 3 42.2807 62.3412 138.0154 0.0000 11.0198 0.0000
# 4 0.0000 0.0000 0.0000 -53.8905 0.0000 -69.3751
# 5 -1.2090 1.5910 11.0198 0.0000 34.0677 0.0000
# 6 0.0000 0.0000 0.0000 -69.3751 0.0000 -76.9577
#
#
#
# Elastic Compliance Matrix: (Units=1/GPa)
#
#
# Indices 1 2 3 4 5 6 
#
# 1 0.012916 -0.002398 -0.002996 0.000000 0.001540 0.000000
# 2 -0.002398 0.013909 -0.005635 0.000000 0.001088 0.000000
# 3 -0.002996 -0.005635 0.010980 0.000000 -0.003395 0.000000
# 4 0.000000 0.000000 0.000000 0.115619 0.000000 -0.104227
# 5 0.001540 0.001088 -0.003395 0.000000 0.030455 0.000000
# 6 0.000000 0.000000 0.000000 -0.104227 0.000000 0.080964
#
#
# Mechanical properties :
#
#
# Convention : Reuss Voigt Hill
#
# Bulk Modulus (GPa) = 63.50978 67.81405 65.66192
# Shear Modulus (GPa) = 17.11456 -6.26347 5.42555
#
# Velocity S-wave (km/s) = 2.95737 -1.78908 1.66512
# Velocity P-wave (km/s) = 6.64204 5.51246 6.10344
#
# Compressibility (1/GPa) = 0.01574561
#
# Stress axis : x y z
#
# Youngs Moduli (GPa) = 77.42536 71.89821 91.07694
#
# Poissons Ratio (x) = 0.17242 0.27290
# Poissons Ratio (y) = 0.18567 0.51319
# Poissons Ratio (z) = 0.23200 0.40512
#
# Static dielectric constant tensor:
#      x y z
#    x 1.626680 0.000000 0.020610 
#    y 0.000000 1.696130 0.000000 
#    z 0.020610 0.000000 1.710330 
# 
# From -- ./inp_files/43880.got.cif
#   From: 2010.05.17/outbox.cif.g08.bks.cpg/sg15_22_cif.got.tgz:43880.got - 2010.06.03 18:47:42.
