data_PCOD9278410
_publ_section_title
;
Structure prediction by ZEFSAII (Michael W. Deem and Ramdas Pophale) SiO2 
 PCOD9278410
Probable space group: C 2/C
;
_chemical_formula_sum "Si O2"
_cell_formula_units_Z 40
_cell_length_a 11.536215
_cell_length_b 8.423910
_cell_length_c 22.508214
_cell_angle_alpha 90.000000
_cell_angle_beta 114.688718
_cell_angle_gamma 90.000000
_cell_volume 1987.404454
_symmetry_space_group_name_H-M "C 2/C"
_symmetry_group_IT_number 15
_symmetry_cell_setting 'monoclinic'
loop_
_space_group_symop_operation_xyz
x,y,z
-x,y,1/2-z
-x,-y,-z
x,-y,1/2+z
1/2+x,1/2+y,z
1/2-x,1/2+y,1/2-z
1/2-x,1/2-y,-z
1/2+x,1/2-y,1/2+z
loop_
_atom_site_type_symbol
_atom_site_label
_atom_site_fract_x
_atom_site_fract_y
_atom_site_fract_z
Si Si1 0.836345 0.835022 0.251202
Si Si2 0.538916 0.876658 0.932132
Si Si3 0.427551 0.573920 0.640108
Si Si4 0.428751 0.980389 0.295585
Si Si5 0.208563 0.616218 0.038651
O O1 0.873719 0.862480 0.191059
O O2 0.688413 0.863555 0.224703
O O3 0.873065 0.658120 0.277032
O O4 0.922979 0.949351 0.311727
O O5 0.579736 0.713214 0.910044
O O6 0.409160 0.842098 0.942042
O O7 0.508661 0.003682 0.873095
O O8 0.648648 0.959439 0.994354
O O9 0.337343 0.431368 0.601000
O O10 0.500000 0.943908 0.250000
O O11 0.250000 0.750000 0.000000
#
# Coordination Sequence:
#
# PCOD9278410 Si02
#       5
#     8   8   8   8   8
#     4  10  21  39  64  91 123 159 196 258 306 362
#     4  10  22  41  62  87 125 162 202 248 304 366
#     4  10  20  43  61  87 129 158 198 252 311 356
#     4  11  21  41  64  91 121 159 203 252 311 359
#     4  11  24  40  63  90 124 164 208 250 295 363
#
# _framework density 20.126753999999998
#
# number of rings (size 3 to 8) (size 9 to 14) (size 15 to 20)
#    0.000    1.600    6.000    0.600    0.000    5.600 
#    3.600    0.000    0.000    0.000    0.000    0.000 
#    0.000    0.000    0.000    0.000    0.000    0.000 
#
# Total GULP energy -111588.319143 kJ/mol
# GULP energy per Si atom -5579.415957 kJ/mol
# Density = 2.008094 g / cm^3
# Si number density = 20.126754 Si / 1000 Ang^3
#
#
#
# Elastic Constant Matrix: (Units=GPa)
#
#
# Indices 1 2 3 4 5 6 
#
# 1 76.8762 14.8724 7.8623 0.0000 -12.7991 0.0000
# 2 14.8724 35.3300 12.4192 0.0000 -5.5521 0.0000
# 3 7.8623 12.4192 55.4375 0.0000 -14.6286 0.0000
# 4 0.0000 0.0000 0.0000 22.8521 0.0000 3.9408
# 5 -12.7991 -5.5521 -14.6286 0.0000 21.2751 0.0000
# 6 0.0000 0.0000 0.0000 3.9408 0.0000 25.4998
#
#
#
# Elastic Compliance Matrix: (Units=1/GPa)
#
#
# Indices 1 2 3 4 5 6 
#
# 1 0.015407 -0.005594 0.001379 0.000000 0.008757 0.000000
# 2 -0.005594 0.033038 -0.006378 0.000000 0.000871 0.000000
# 3 0.001379 -0.006378 0.023274 0.000000 0.015168 0.000000
# 4 0.000000 0.000000 0.000000 0.044958 0.000000 -0.006948
# 5 0.008757 0.000871 0.015168 0.000000 0.062929 0.000000
# 6 0.000000 0.000000 0.000000 -0.006948 0.000000 0.040290
#
#
# Mechanical properties :
#
#
# Convention : Reuss Voigt Hill
#
# Bulk Modulus (GPa) = 19.78913 26.43904 23.11408
# Shear Modulus (GPa) = 19.38534 22.75805 21.07169
#
# Velocity S-wave (km/s) = 3.10685 3.36629 3.23917
# Velocity P-wave (km/s) = 4.76693 5.31733 5.04964
#
# Compressibility (1/GPa) = 0.05053280
#
# Stress axis : x y z
#
# Youngs Moduli (GPa) = 64.90494 30.26784 42.96620
#
# Poissons Ratio (x) = 0.16933 -0.05925
# Poissons Ratio (y) = 0.36310 0.27404
# Poissons Ratio (z) = -0.08950 0.19305
#
# Static dielectric constant tensor:
#      x y z
#    x 1.734630 0.000000 0.006960 
#    y 0.000000 1.696810 0.000000 
#    z 0.006960 0.000000 1.745630 
# 
# From -- ./inp_files/195079.got.cif
#   From: 2010.05.17/outbox.cif.g08.bks.cpg/sg15_98_cif.got.tgz:195079.got - 2010.06.03 18:47:42.
