data_PCOD9278302
_publ_section_title
;
Structure prediction by ZEFSAII (Michael W. Deem and Ramdas Pophale) SiO2 
 PCOD9278302
Probable space group: C 2/C
;
_chemical_formula_sum "Si O2"
_cell_formula_units_Z 32
_cell_length_a 12.550146
_cell_length_b 18.923204
_cell_length_c 12.995772
_cell_angle_alpha 90.000000
_cell_angle_beta 154.888041
_cell_angle_gamma 90.000000
_cell_volume 1309.812303
_symmetry_space_group_name_H-M "C 2/C"
_symmetry_group_IT_number 15
_symmetry_cell_setting 'monoclinic'
loop_
_space_group_symop_operation_xyz
x,y,z
-x,y,1/2-z
-x,-y,-z
x,-y,1/2+z
1/2+x,1/2+y,z
1/2-x,1/2+y,1/2-z
1/2-x,1/2-y,-z
1/2+x,1/2-y,1/2+z
loop_
_atom_site_type_symbol
_atom_site_label
_atom_site_fract_x
_atom_site_fract_y
_atom_site_fract_z
Si Si1 0.500000 0.589659 0.750000
Si Si2 0.198015 0.018657 0.583111
Si Si3 0.500000 0.366090 0.750000
Si Si4 0.770324 0.209386 0.680005
Si Si5 0.996635 0.355027 0.127648
O O1 0.326221 0.545905 0.517843
O O2 0.319471 0.639020 0.658286
O O3 0.453642 0.059181 0.845042
O O4 0.114670 0.082181 0.435873
O O5 0.000000 0.000000 0.500000
O O6 0.291299 0.331017 0.639587
O O7 0.537997 0.251278 0.425375
O O8 0.680630 0.184237 0.713447
O O9 0.000000 0.334651 0.250000
#
# Coordination Sequence:
#
# PCOD9278302 Si02
#       5
#     4   8   4   8   8
#     4  11  24  50  76 112 156 194 255 318 386 465
#     4  10  20  42  70 106 143 188 238 323 386 440
#     4   9  22  40  62 108 142 180 245 316 390 445
#     4  12  29  51  76 108 154 212 259 307 371 463
#     4  10  23  45  71 108 146 191 261 315 387 445
#
# _framework density 24.430980000000002
#
# number of rings (size 3 to 8) (size 9 to 14) (size 15 to 20)
#    0.000    1.500    2.500    0.750    7.000    2.000 
#   31.500    0.000    0.000    0.000    0.000    0.000 
#    0.000    0.000    0.000    0.000    0.000    0.000 
#
# Total GULP energy -89094.608623 kJ/mol
# GULP energy per Si atom -5568.413039 kJ/mol
# Density = 2.437537 g / cm^3
# Si number density = 24.430980 Si / 1000 Ang^3
#
#
#
# Elastic Constant Matrix: (Units=GPa)
#
#
# Indices 1 2 3 4 5 6 
#
# 1 120.1980 43.8122 22.1347 0.0002 12.9915 0.0013
# 2 43.8122 108.8638 43.4662 -0.0002 1.1584 0.0009
# 3 22.1347 43.4662 95.1576 0.0022 18.0704 -0.0013
# 4 0.0002 -0.0002 0.0022 29.0817 0.0005 -58.5154
# 5 12.9915 1.1584 18.0704 0.0005 28.3601 0.0007
# 6 0.0013 0.0009 -0.0013 -58.5154 0.0007 163.0869
#
#
#
# Elastic Compliance Matrix: (Units=1/GPa)
#
#
# Indices 1 2 3 4 5 6 
#
# 1 0.010322 -0.004296 0.000484 0.000000 -0.004861 0.000000
# 2 -0.004296 0.013283 -0.006074 0.000001 0.005295 0.000000
# 3 0.000484 -0.006074 0.014978 -0.000002 -0.009517 -0.000001
# 4 0.000000 0.000001 -0.000002 0.123664 -0.000002 0.044370
# 5 -0.004861 0.005295 -0.009517 -0.000002 0.043336 -0.000001
# 6 0.000000 0.000000 -0.000001 0.044370 -0.000001 0.022052
#
#
# Mechanical properties :
#
#
# Convention : Reuss Voigt Hill
#
# Bulk Modulus (GPa) = 53.15564 60.33837 56.74700
# Shear Modulus (GPa) = 19.71024 58.42617 39.06820
#
# Velocity S-wave (km/s) = 2.84346 4.89558 4.00324
# Velocity P-wave (km/s) = 5.70833 7.53039 6.68176
#
# Compressibility (1/GPa) = 0.01881268
#
# Stress axis : x y z
#
# Youngs Moduli (GPa) = 96.88425 75.28204 66.76439
#
# Poissons Ratio (x) = 0.32338 -0.03234
# Poissons Ratio (y) = 0.41618 0.40553
# Poissons Ratio (z) = -0.04693 0.45726
#
# Static dielectric constant tensor:
#      x y z
#    x 1.756600 0.000000 0.710930 
#    y 0.000000 1.979330 0.000000 
#    z 0.710930 0.000000 0.018910 
# 
# From -- ./inp_files/146215.got.cif
#   From: 2010.05.17/outbox.cif.g08.bks.cpg/sg15_74_cif.got.tgz:146215.got - 2010.06.03 18:47:42.
