data_PCOD9278369
_publ_section_title
;
Structure prediction by ZEFSAII (Michael W. Deem and Ramdas Pophale) SiO2 
 PCOD9278369
Probable space group: C 2/C
;
_chemical_formula_sum "Si O2"
_cell_formula_units_Z 36
_cell_length_a 14.883869
_cell_length_b 25.533452
_cell_length_c 9.159847
_cell_angle_alpha 90.000000
_cell_angle_beta 26.383976
_cell_angle_gamma 90.000000
_cell_volume 1546.937072
_symmetry_space_group_name_H-M "C 2/C"
_symmetry_group_IT_number 15
_symmetry_cell_setting 'monoclinic'
loop_
_space_group_symop_operation_xyz
x,y,z
-x,y,1/2-z
-x,-y,-z
x,-y,1/2+z
1/2+x,1/2+y,z
1/2-x,1/2+y,1/2-z
1/2-x,1/2-y,-z
1/2+x,1/2-y,1/2+z
loop_
_atom_site_type_symbol
_atom_site_label
_atom_site_fract_x
_atom_site_fract_y
_atom_site_fract_z
Si Si1 0.228588 0.358511 0.948093
Si Si2 0.031594 0.773970 0.038173
Si Si3 0.500000 0.502519 0.750000
Si Si4 0.623638 0.427559 0.316771
Si Si5 0.795315 0.330468 0.183963
O O1 0.268419 0.302306 0.814187
O O2 0.403880 0.397982 0.637924
O O3 0.261757 0.349721 0.071747
O O4 0.000000 0.376243 0.250000
O O5 0.000000 0.792612 0.250000
O O6 0.865401 0.794162 0.166786
O O7 0.026585 0.710974 0.050735
O O8 0.618429 0.466383 0.462591
O O9 0.360189 0.539286 0.853550
O O10 0.788679 0.382753 0.098176
#
# Coordination Sequence:
#
# PCOD9278369 Si02
#       5
#     8   8   4   8   8
#     4  11  23  41  63  94 134 174 210 257 314 388
#     4  11  23  39  63  91 133 170 216 254 312 369
#     4  10  20  42  72  92 116 166 210 280 300 390
#     4  10  21  40  70  91 125 159 224 248 336 360
#     4  11  22  40  61  97 127 176 206 258 309 395
#
# _framework density 23.271792000000001
#
# number of rings (size 3 to 8) (size 9 to 14) (size 15 to 20)
#    0.000    1.333    2.222    4.667    6.222    1.778 
#    0.000    1.111    0.000    0.000    0.000    0.000 
#    0.000    0.000    0.000    0.000    0.000    0.000 
#
# Total GULP energy -100576.886390 kJ/mol
# GULP energy per Si atom -5587.604799 kJ/mol
# Density = 2.321882 g / cm^3
# Si number density = 23.271792 Si / 1000 Ang^3
#
#
#
# Elastic Constant Matrix: (Units=GPa)
#
#
# Indices 1 2 3 4 5 6 
#
# 1 146.2120 64.6541 30.7767 0.0001 -1.0330 0.0003
# 2 64.6541 158.7075 21.3205 -0.0001 3.0077 -0.0004
# 3 30.7767 21.3205 72.2239 0.0006 -22.5426 0.0011
# 4 0.0001 -0.0001 0.0006 -9.1566 -0.0002 3.9871
# 5 -1.0330 3.0077 -22.5426 -0.0002 21.2094 -0.0006
# 6 0.0003 -0.0004 0.0011 3.9871 -0.0006 56.6599
#
#
#
# Elastic Compliance Matrix: (Units=1/GPa)
#
#
# Indices 1 2 3 4 5 6 
#
# 1 0.009013 -0.003073 -0.003981 0.000000 -0.003356 0.000000
# 2 -0.003073 0.007905 -0.002126 0.000000 -0.003530 0.000000
# 3 -0.003981 -0.002126 0.024247 0.000001 0.025879 0.000000
# 4 0.000000 0.000000 0.000001 -0.105964 0.000000 0.007457
# 5 -0.003356 -0.003530 0.025879 0.000000 0.074992 0.000000
# 6 0.000000 0.000000 0.000000 0.007457 0.000000 0.017124
#
#
# Mechanical properties :
#
#
# Convention : Reuss Voigt Hill
#
# Bulk Modulus (GPa) = 43.85009 67.84956 55.84983
# Shear Modulus (GPa) = 93.84470 31.10201 62.47335
#
# Velocity S-wave (km/s) = 6.35713 3.65974 5.18685
# Velocity P-wave (km/s) = 8.53039 6.86126 7.74094
#
# Compressibility (1/GPa) = 0.02280497
#
# Stress axis : x y z
#
# Youngs Moduli (GPa) = 110.95640 126.49685 41.24176
#
# Poissons Ratio (x) = 0.38874 0.16418
# Poissons Ratio (y) = 0.34098 0.08768
# Poissons Ratio (z) = 0.44171 0.26894
#
# Static dielectric constant tensor:
#      x y z
#    x 1.876050 0.000000 -0.044110 
#    y 0.000000 1.926840 0.000000 
#    z -0.044110 0.000000 1.936730 
# 
# From -- ./inp_files/43756.got.cif
#   From: 2010.05.17/outbox.cif.g08.bks.cpg/sg15_22_cif.got.tgz:43756.got - 2010.06.03 18:47:42.
