data_PCOD9278365
_publ_section_title
;
Structure prediction by ZEFSAII (Michael W. Deem and Ramdas Pophale) SiO2 
 PCOD9278365
Probable space group: C 2/C
;
_chemical_formula_sum "Si O2"
_cell_formula_units_Z 44
_cell_length_a 30.736428
_cell_length_b 8.732103
_cell_length_c 24.822518
_cell_angle_alpha 90.000000
_cell_angle_beta 162.142438
_cell_angle_gamma 90.000000
_cell_volume 2042.976925
_symmetry_space_group_name_H-M "C 2/C"
_symmetry_group_IT_number 15
_symmetry_cell_setting 'monoclinic'
loop_
_space_group_symop_operation_xyz
x,y,z
-x,y,1/2-z
-x,-y,-z
x,-y,1/2+z
1/2+x,1/2+y,z
1/2-x,1/2+y,1/2-z
1/2-x,1/2-y,-z
1/2+x,1/2-y,1/2+z
loop_
_atom_site_type_symbol
_atom_site_label
_atom_site_fract_x
_atom_site_fract_y
_atom_site_fract_z
Si Si1 0.188430 0.644143 0.353442
Si Si2 0.850641 0.391416 0.100972
Si Si3 0.149744 0.582095 0.183270
Si Si4 0.907753 0.017854 0.752959
Si Si5 0.000000 0.903894 0.250000
Si Si6 0.089977 0.909446 0.062131
O O1 0.136745 0.511923 0.334018
O O2 0.191677 0.587727 0.295684
O O3 0.092085 0.797529 0.238756
O O4 0.350137 0.681898 0.563883
O O5 0.000000 0.352092 0.250000
O O6 0.750000 0.250000 0.000000
O O7 0.755802 0.473268 0.943520
O O8 0.131844 0.749480 0.137136
O O9 0.269357 0.495873 0.290624
O O10 0.000000 0.500000 0.000000
O O11 0.976256 0.997008 0.775123
O O12 0.989044 0.914166 0.891049
O O13 0.000000 0.000000 0.000000
#
# Coordination Sequence:
#
# PCOD9278365 Si02
#       6
#     8   8   8   8   4   8
#     4  11  25  45  76 106 150 196 255 307 383 465
#     4  11  28  46  73 112 151 197 247 313 383 448
#     4  12  28  49  77 109 150 205 258 323 388 464
#     4  11  25  44  76 105 150 195 253 311 379 464
#     4  10  20  42  72 108 146 190 242 316 378 450
#     4  12  26  50  74 110 150 201 261 319 391 464
#
# _framework density 21.537198
#
# number of rings (size 3 to 8) (size 9 to 14) (size 15 to 20)
#    0.000    0.727    3.636    3.273   12.727    1.455 
#    0.000    0.000    0.000    0.000    0.000    0.000 
#    0.000    0.000    0.000    0.000    0.000    0.000 
#
# Total GULP energy -122979.516230 kJ/mol
# GULP energy per Si atom -5589.978010 kJ/mol
# Density = 2.148818 g / cm^3
# Si number density = 21.537198 Si / 1000 Ang^3
#
#
#
# Elastic Constant Matrix: (Units=GPa)
#
#
# Indices 1 2 3 4 5 6 
#
# 1 146.8760 53.8840 76.7529 0.0001 12.8247 0.0000
# 2 53.8840 126.1632 47.2989 0.0002 13.1595 0.0001
# 3 76.7529 47.2989 122.2254 0.0003 5.8825 0.0002
# 4 0.0001 0.0002 0.0003 10.3801 0.0002 -1.5703
# 5 12.8247 13.1595 5.8825 0.0002 51.4968 0.0001
# 6 0.0000 0.0001 0.0002 -1.5703 0.0001 30.7462
#
#
#
# Elastic Compliance Matrix: (Units=1/GPa)
#
#
# Indices 1 2 3 4 5 6 
#
# 1 0.010827 -0.002282 -0.005846 0.000000 -0.001445 0.000000
# 2 -0.002282 0.009955 -0.002338 0.000000 -0.001709 0.000000
# 3 -0.005846 -0.002338 0.012729 0.000000 0.000599 0.000000
# 4 0.000000 0.000000 0.000000 0.097088 0.000000 0.004959
# 5 -0.001445 -0.001709 0.000599 0.000000 0.020147 0.000000
# 6 0.000000 0.000000 0.000000 0.004959 0.000000 0.032778
#
#
# Mechanical properties :
#
#
# Convention : Reuss Voigt Hill
#
# Bulk Modulus (GPa) = 79.49215 83.45959 81.47587
# Shear Modulus (GPa) = 23.96387 33.01320 28.48854
#
# Velocity S-wave (km/s) = 3.33929 3.91940 3.64092
# Velocity P-wave (km/s) = 7.20120 7.70181 7.45570
#
# Compressibility (1/GPa) = 0.01257986
#
# Stress axis : x y z
#
# Youngs Moduli (GPa) = 92.36320 100.44940 78.56296
#
# Poissons Ratio (x) = 0.22918 0.45931
# Poissons Ratio (y) = 0.21073 0.18364
# Poissons Ratio (z) = 0.53999 0.23481
#
# Static dielectric constant tensor:
#      x y z
#    x 1.795440 0.000000 -0.039260 
#    y 0.000000 1.824380 0.000000 
#    z -0.039260 0.000000 1.837820 
# 
# From -- ./inp_files/284489.got.cif
#   From: 2010.05.17/outbox.cif.g08.bks.cpg/sg15_143_cif.got.tgz:284489.got - 2010.06.03 18:47:42.
