data_PCOD9278088
_publ_section_title
;
Structure prediction by ZEFSAII (Michael W. Deem and Ramdas Pophale) SiO2 
 PCOD9278088
Probable space group: C 2/C
;
_chemical_formula_sum "Si O2"
_cell_formula_units_Z 56
_cell_length_a 9.133789
_cell_length_b 23.628899
_cell_length_c 16.182587
_cell_angle_alpha 90.000000
_cell_angle_beta 117.896411
_cell_angle_gamma 90.000000
_cell_volume 3086.696444
_symmetry_space_group_name_H-M "C 2/C"
_symmetry_group_IT_number 15
_symmetry_cell_setting 'monoclinic'
loop_
_space_group_symop_operation_xyz
x,y,z
-x,y,1/2-z
-x,-y,-z
x,-y,1/2+z
1/2+x,1/2+y,z
1/2-x,1/2+y,1/2-z
1/2-x,1/2-y,-z
1/2+x,1/2-y,1/2+z
loop_
_atom_site_type_symbol
_atom_site_label
_atom_site_fract_x
_atom_site_fract_y
_atom_site_fract_z
Si Si1 0.807019 0.050991 0.174085
Si Si2 0.193370 0.380817 0.798652
Si Si3 0.035899 0.788876 0.663374
Si Si4 0.458825 0.154741 0.835447
Si Si5 0.699360 0.370788 0.986838
Si Si6 0.418912 0.562427 0.495421
Si Si7 0.180062 0.075710 0.839995
O O1 0.717028 0.086919 0.219052
O O2 0.794330 0.081891 0.083247
O O3 0.000000 0.050093 0.250000
O O4 0.748495 0.986620 0.160483
O O5 0.306626 0.324910 0.824946
O O6 0.000000 0.367712 0.750000
O O7 0.275245 0.420691 0.891477
O O8 0.064063 0.722331 0.663162
O O9 0.000000 0.801918 0.750000
O O10 0.879963 0.813932 0.572225
O O11 0.500000 0.141627 0.750000
O O12 0.304119 0.121686 0.834455
O O13 0.621926 0.138678 0.929258
O O14 0.569980 0.394426 0.019474
O O15 0.500000 0.500000 0.500000
O O16 0.350059 0.572603 0.569185
O O17 0.000000 0.081860 0.750000
#
# Coordination Sequence:
#
# PCOD9278088 Si02
#       7
#     8   8   8   8   8   8   8
#     4  11  19  40  65  88 117 165 201 255 302 367
#     4  11  23  37  63  97 120 151 212 265 307 353
#     4  10  20  42  66  85 120 163 211 254 306 365
#     4  11  26  41  60  91 125 167 206 252 305 379
#     4  11  20  39  67  89 117 157 220 248 303 364
#     4  11  21  39  62  91 126 163 196 253 316 364
#     4  11  24  40  61  89 130 167 201 246 321 378
#
# _framework density 18.142374
#
# number of rings (size 3 to 8) (size 9 to 14) (size 15 to 20)
#    0.000    1.143    5.714    2.143    2.000    2.857 
#    0.000    2.857    0.000    0.000    0.000    0.000 
#    0.000    0.000    0.000    0.000    0.000    0.000 
#
# Total GULP energy -156290.501495 kJ/mol
# GULP energy per Si atom -5581.803625 kJ/mol
# Density = 1.810108 g / cm^3
# Si number density = 18.142374 Si / 1000 Ang^3
#
#
#
# Elastic Constant Matrix: (Units=GPa)
#
#
# Indices 1 2 3 4 5 6 
#
# 1 102.5756 57.6973 58.8610 0.0000 9.0718 0.0000
# 2 57.6973 113.9863 52.9883 0.0000 -3.8783 0.0000
# 3 58.8610 52.9883 96.9167 0.0000 8.3694 0.0000
# 4 0.0000 0.0000 0.0000 11.2152 0.0000 -3.2662
# 5 9.0718 -3.8783 8.3694 0.0000 29.7181 0.0000
# 6 0.0000 0.0000 0.0000 -3.2662 0.0000 29.4146
#
#
#
# Elastic Compliance Matrix: (Units=1/GPa)
#
#
# Indices 1 2 3 4 5 6 
#
# 1 0.017344 -0.005605 -0.007122 0.000000 -0.004020 0.000000
# 2 -0.005605 0.013925 -0.004626 0.000000 0.004831 0.000000
# 3 -0.007122 -0.004626 0.017462 0.000000 -0.003347 0.000000
# 4 0.000000 0.000000 0.000000 0.092145 0.000000 0.010232
# 5 -0.004020 0.004831 -0.003347 0.000000 0.036450 0.000000
# 6 0.000000 0.000000 0.000000 0.010232 0.000000 0.035133
#
#
# Mechanical properties :
#
#
# Convention : Reuss Voigt Hill
#
# Bulk Modulus (GPa) = 71.30510 72.50797 71.90654
# Shear Modulus (GPa) = 19.85380 23.66504 21.75942
#
# Velocity S-wave (km/s) = 3.31166 3.61558 3.46695
# Velocity P-wave (km/s) = 7.34923 7.58173 7.46639
#
# Compressibility (1/GPa) = 0.01402424
#
# Stress axis : x y z
#
# Youngs Moduli (GPa) = 57.65650 71.81176 57.26695
#
# Poissons Ratio (x) = 0.40252 0.40785
# Poissons Ratio (y) = 0.32318 0.26494
# Poissons Ratio (z) = 0.41062 0.33224
#
# Static dielectric constant tensor:
#      x y z
#    x 1.649170 0.000000 -0.017280 
#    y 0.000000 1.627060 0.000000 
#    z -0.017280 0.000000 1.623060 
# 
# From -- ./inp_files/137983.got.cif
#   From: 2010.05.17/outbox.cif.g08.bks.cpg/sg15_69_cif.got.tgz:137983.got - 2010.06.03 18:47:42.
