data_PCOD9278008
_publ_section_title
;
Structure prediction by ZEFSAII (Michael W. Deem and Ramdas Pophale) SiO2 
 PCOD9278008
Probable space group: C 2/C
;
_chemical_formula_sum "Si O2"
_cell_formula_units_Z 56
_cell_length_a 26.469747
_cell_length_b 9.620230
_cell_length_c 28.184222
_cell_angle_alpha 90.000000
_cell_angle_beta 159.710987
_cell_angle_gamma 90.000000
_cell_volume 2488.656896
_symmetry_space_group_name_H-M "C 2/C"
_symmetry_group_IT_number 15
_symmetry_cell_setting 'monoclinic'
loop_
_space_group_symop_operation_xyz
x,y,z
-x,y,1/2-z
-x,-y,-z
x,-y,1/2+z
1/2+x,1/2+y,z
1/2-x,1/2+y,1/2-z
1/2-x,1/2-y,-z
1/2+x,1/2-y,1/2+z
loop_
_atom_site_type_symbol
_atom_site_label
_atom_site_fract_x
_atom_site_fract_y
_atom_site_fract_z
Si Si1 0.084416 0.680728 0.774655
Si Si2 0.707667 0.571479 0.146106
Si Si3 0.035084 0.158875 0.080339
Si Si4 0.480407 0.059331 0.584725
Si Si5 0.663706 0.460418 0.789931
Si Si6 0.717857 0.104971 0.390866
Si Si7 0.473736 0.316503 0.174175
O O1 0.992359 0.617587 0.649229
O O2 0.144582 0.825619 0.807331
O O3 0.206665 0.560670 0.889300
O O4 0.000000 0.696756 0.750000
O O5 0.640895 0.665004 0.128371
O O6 0.876190 0.529656 0.300197
O O7 0.703525 0.631853 0.089689
O O8 0.606859 0.433173 0.056980
O O9 0.985047 0.307215 0.054721
O O10 0.121955 0.086746 0.200223
O O11 0.327769 0.987231 0.440881
O O12 0.555976 0.580107 0.711319
O O13 0.556142 0.169159 0.245938
O O14 0.809180 0.179417 0.511786
O O15 0.500000 0.372504 0.250000
#
# Coordination Sequence:
#
# PCOD9278008 Si02
#       7
#     8   8   8   8   8   8   8
#     4  10  23  41  69  95 133 176 216 269 330 386
#     4  10  22  42  67  87 131 173 212 267 330 388
#     4  10  20  42  64  92 126 172 209 272 329 380
#     4  10  22  38  63  97 128 162 218 270 324 384
#     4  11  24  41  67 100 132 165 223 275 322 392
#     4  11  25  46  65  96 134 174 221 272 324 395
#     4  12  27  44  67  96 134 175 221 273 328 386
#
# _framework density 22.502098
#
# number of rings (size 3 to 8) (size 9 to 14) (size 15 to 20)
#    0.000    1.429    1.429    3.857    8.000    2.286 
#    2.571    0.000    0.000    0.000    0.000    0.000 
#    0.000    0.000    0.000    0.000    0.000    0.000 
#
# Total GULP energy -156651.406906 kJ/mol
# GULP energy per Si atom -5594.693104 kJ/mol
# Density = 2.245088 g / cm^3
# Si number density = 22.502098 Si / 1000 Ang^3
#
#
#
# Elastic Constant Matrix: (Units=GPa)
#
#
# Indices 1 2 3 4 5 6 
#
# 1 143.8639 11.2712 4.9996 0.0009 7.9573 -0.0010
# 2 11.2712 64.8646 15.9287 0.0053 0.1651 0.0014
# 3 4.9996 15.9287 74.3203 0.0155 6.3277 0.0001
# 4 0.0009 0.0053 0.0155 7.0114 0.0008 12.2469
# 5 7.9573 0.1651 6.3277 0.0008 13.3761 -0.0009
# 6 -0.0010 0.0014 0.0001 12.2469 -0.0009 8.9597
#
#
#
# Elastic Compliance Matrix: (Units=1/GPa)
#
#
# Indices 1 2 3 4 5 6 
#
# 1 0.007290 -0.001295 0.000162 0.000001 -0.004397 0.000000
# 2 -0.001295 0.016533 -0.003652 0.000000 0.002294 -0.000003
# 3 0.000162 -0.003652 0.014829 0.000021 -0.007066 -0.000029
# 4 0.000001 0.000000 0.000021 -0.102789 0.000006 0.140501
# 5 -0.004397 0.002294 -0.007066 0.000006 0.080691 -0.000001
# 6 0.000000 -0.000003 -0.000029 0.140501 -0.000001 -0.080437
#
#
# Mechanical properties :
#
#
# Convention : Reuss Voigt Hill
#
# Bulk Modulus (GPa) = 34.38673 38.60529 36.49601
# Shear Modulus (GPa) = -112.05707 22.59272 -44.73218
#
# Velocity S-wave (km/s) = -7.06446 3.17208 -4.46344
# Velocity P-wave (km/s) = 7.15733 5.53260 3.21074
#
# Compressibility (1/GPa) = 0.02908099
#
# Stress axis : x y z
#
# Youngs Moduli (GPa) = 137.17235 60.48631 67.43714
#
# Poissons Ratio (x) = 0.07834 -0.01090
# Poissons Ratio (y) = 0.17767 0.24625
# Poissons Ratio (z) = -0.02216 0.22087
#
# Static dielectric constant tensor:
#      x y z
#    x 1.819890 0.000000 0.005930 
#    y 0.000000 1.816500 0.000000 
#    z 0.005930 0.000000 1.846530 
# 
# From -- ./inp_files/319539.got.cif
#   From: 2010.05.17/outbox.cif.g08.bks.cpg/sg15_160_cif.got.tgz:319539.got - 2010.06.03 18:47:42.
