data_PCOD9278031
_publ_section_title
;
Structure prediction by ZEFSAII (Michael W. Deem and Ramdas Pophale) SiO2 
 PCOD9278031
Probable space group: C 2/C
;
_chemical_formula_sum "Si O2"
_cell_formula_units_Z 36
_cell_length_a 6.978521
_cell_length_b 24.291251
_cell_length_c 9.797782
_cell_angle_alpha 90.000000
_cell_angle_beta 116.613229
_cell_angle_gamma 90.000000
_cell_volume 1484.920675
_symmetry_space_group_name_H-M "C 2/C"
_symmetry_group_IT_number 15
_symmetry_cell_setting 'monoclinic'
loop_
_space_group_symop_operation_xyz
x,y,z
-x,y,1/2-z
-x,-y,-z
x,-y,1/2+z
1/2+x,1/2+y,z
1/2-x,1/2+y,1/2-z
1/2-x,1/2-y,-z
1/2+x,1/2-y,1/2+z
loop_
_atom_site_type_symbol
_atom_site_label
_atom_site_fract_x
_atom_site_fract_y
_atom_site_fract_z
Si Si1 0.500000 0.634266 0.250000
Si Si2 0.490003 0.227586 0.092990
Si Si3 0.749653 0.822830 0.440704
Si Si4 0.247667 0.453004 0.801787
Si Si5 0.097384 0.925260 0.145619
O O1 0.544520 0.671569 0.392952
O O2 0.693640 0.591510 0.293992
O O3 0.500000 0.202872 0.250000
O O4 0.557440 0.190734 0.983224
O O5 0.250000 0.250000 0.000000
O O6 0.674205 0.275297 0.138140
O O7 0.740448 0.881851 0.367278
O O8 0.301498 0.516024 0.783441
O O9 0.000000 0.448886 0.750000
O O10 0.404772 0.437401 0.977445
O O11 0.000000 0.899297 0.250000
#
# Coordination Sequence:
#
# PCOD9278031 Si02
#       5
#     4   8   8   8   8
#     4  10  20  42  64  96 134 174 222 268 322 402
#     4  11  24  45  68  95 128 168 217 275 335 397
#     4  10  23  41  67  96 129 170 217 274 327 389
#     4  10  22  40  64  93 132 181 223 266 325 387
#     4  10  21  43  63  96 138 172 224 275 321 396
#
# _framework density 24.243722000000002
#
# number of rings (size 3 to 8) (size 9 to 14) (size 15 to 20)
#    0.000    1.778    1.111    2.000    0.000    8.000 
#    8.000    0.000    0.000    0.000    0.000    0.000 
#    0.000    0.000    0.000    0.000    0.000    0.000 
#
# Total GULP energy -100621.450622 kJ/mol
# GULP energy per Si atom -5590.080590 kJ/mol
# Density = 2.418854 g / cm^3
# Si number density = 24.243722 Si / 1000 Ang^3
#
#
#
# Elastic Constant Matrix: (Units=GPa)
#
#
# Indices 1 2 3 4 5 6 
#
# 1 198.5646 58.9952 39.2649 0.0000 -10.0661 0.0000
# 2 58.9952 94.3153 25.0645 0.0000 -9.9558 0.0000
# 3 39.2649 25.0645 52.2714 0.0000 -15.1878 0.0000
# 4 0.0000 0.0000 0.0000 13.0294 0.0000 -17.7357
# 5 -10.0661 -9.9558 -15.1878 0.0000 40.8578 0.0000
# 6 0.0000 0.0000 0.0000 -17.7357 0.0000 44.2274
#
#
#
# Elastic Compliance Matrix: (Units=1/GPa)
#
#
# Indices 1 2 3 4 5 6 
#
# 1 0.006699 -0.003286 -0.003599 0.000000 -0.000488 0.000000
# 2 -0.003286 0.013792 -0.003816 0.000000 0.001133 0.000000
# 3 -0.003599 -0.003816 0.025937 0.000000 0.007825 0.000000
# 4 0.000000 0.000000 0.000000 0.168998 0.000000 0.067770
# 5 -0.000488 0.001133 0.007825 0.000000 0.027540 0.000000
# 6 0.000000 0.000000 0.000000 0.067770 0.000000 0.049787
#
#
# Mechanical properties :
#
#
# Convention : Reuss Voigt Hill
#
# Bulk Modulus (GPa) = 39.95528 65.75562 52.85545
# Shear Modulus (GPa) = 15.50406 34.41137 24.95772
#
# Velocity S-wave (km/s) = 2.53159 3.77157 3.21199
# Velocity P-wave (km/s) = 5.00617 6.79323 5.96698
#
# Compressibility (1/GPa) = 0.02502798
#
# Stress axis : x y z
#
# Youngs Moduli (GPa) = 149.27212 72.50800 38.55427
#
# Poissons Ratio (x) = 0.23823 0.13874
# Poissons Ratio (y) = 0.49045 0.14712
# Poissons Ratio (z) = 0.53716 0.27669
#
# Static dielectric constant tensor:
#      x y z
#    x 1.979500 0.000000 -0.048220 
#    y 0.000000 1.920930 0.000000 
#    z -0.048220 0.000000 1.950550 
# 
# From -- ./inp_files/73423.got.cif
#   From: 2010.05.17/outbox.cif.g08.bks.cpg/sg15_37_cif.got.tgz:73423.got - 2010.06.03 18:47:42.
