data_PCOD9278966
_publ_section_title
;
Structure prediction by ZEFSAII (Michael W. Deem and Ramdas Pophale) SiO2 
 PCOD9278966
Probable space group: C 2/C
;
_chemical_formula_sum "Si O2"
_cell_formula_units_Z 40
_cell_length_a 22.891661
_cell_length_b 7.589936
_cell_length_c 9.179597
_cell_angle_alpha 90.000000
_cell_angle_beta 71.973397
_cell_angle_gamma 90.000000
_cell_volume 1516.630514
_symmetry_space_group_name_H-M "C 2/C"
_symmetry_group_IT_number 15
_symmetry_cell_setting 'monoclinic'
loop_
_space_group_symop_operation_xyz
x,y,z
-x,y,1/2-z
-x,-y,-z
x,-y,1/2+z
1/2+x,1/2+y,z
1/2-x,1/2+y,1/2-z
1/2-x,1/2-y,-z
1/2+x,1/2-y,1/2+z
loop_
_atom_site_type_symbol
_atom_site_label
_atom_site_fract_x
_atom_site_fract_y
_atom_site_fract_z
Si Si1 0.495369 0.804936 0.425649
Si Si2 0.248826 0.911840 0.390174
Si Si3 0.566869 0.267076 0.120304
Si Si4 0.326037 0.043272 0.567802
Si Si5 0.128841 0.164793 0.857801
O O1 0.500000 0.823876 0.250000
O O2 0.548263 0.691545 0.467668
O O3 0.433334 0.698175 0.504901
O O4 0.500000 0.000000 0.500000
O O5 0.250000 0.750000 0.500000
O O6 0.294934 0.857796 0.225712
O O7 0.182115 0.958859 0.378458
O O8 0.278043 0.054764 0.473496
O O9 0.500000 0.244203 0.250000
O O10 0.607086 0.370407 0.209175
O O11 0.610516 0.099921 0.056160
O O12 0.338926 0.855263 0.636242
#
# Coordination Sequence:
#
# PCOD9278966 Si02
#       5
#     8   8   8   8   8
#     4  11  21  30  54  86 119 152 181 243 321 361
#     4  10  24  38  58  84 125 168 208 242 296 368
#     4  10  21  33  57  88 121 157 183 249 312 362
#     4  11  20  38  56  82 127 164 197 246 297 360
#     4  10  21  37  54  86 123 154 203 241 297 378
#
# _framework density 26.374257
#
# number of rings (size 3 to 8) (size 9 to 14) (size 15 to 20)
#    0.000    1.600    4.000    1.800    5.600    0.800 
#    0.000    0.000    0.000    0.000    0.000   18.200 
#    0.000    0.000    0.000    0.000    0.000    0.000 
#
# Total GULP energy -111567.429595 kJ/mol
# GULP energy per Si atom -5578.371480 kJ/mol
# Density = 2.631423 g / cm^3
# Si number density = 26.374257 Si / 1000 Ang^3
#
#
#
# Elastic Constant Matrix: (Units=GPa)
#
#
# Indices 1 2 3 4 5 6 
#
# 1 226.3424 30.6763 72.0618 0.0000 51.6782 0.0000
# 2 30.6763 68.3558 33.4625 0.0000 2.8997 0.0000
# 3 72.0618 33.4625 181.4663 0.0000 49.4208 0.0000
# 4 0.0000 0.0000 0.0000 19.9754 0.0000 1.5454
# 5 51.6782 2.8997 49.4208 0.0000 49.5990 0.0000
# 6 0.0000 0.0000 0.0000 1.5454 0.0000 21.7444
#
#
#
# Elastic Compliance Matrix: (Units=1/GPa)
#
#
# Indices 1 2 3 4 5 6 
#
# 1 0.006222 -0.002331 -0.000429 0.000000 -0.005919 0.000000
# 2 -0.002331 0.017236 -0.003623 0.000000 0.005031 0.000000
# 3 -0.000429 -0.003623 0.008467 0.000000 -0.007778 0.000000
# 4 0.000000 0.000000 0.000000 0.050338 0.000000 -0.003578
# 5 -0.005919 0.005031 -0.007778 0.000000 0.033785 0.000000
# 6 0.000000 0.000000 0.000000 -0.003578 0.000000 0.046243
#
#
# Mechanical properties :
#
#
# Convention : Reuss Voigt Hill
#
# Bulk Modulus (GPa) = 52.19366 83.17397 67.68382
# Shear Modulus (GPa) = 27.55678 40.92802 34.24240
#
# Velocity S-wave (km/s) = 3.23590 3.94358 3.60714
# Velocity P-wave (km/s) = 5.81326 7.23466 6.56256
#
# Compressibility (1/GPa) = 0.01915941
#
# Stress axis : x y z
#
# Youngs Moduli (GPa) = 160.71841 58.01977 118.10089
#
# Poissons Ratio (x) = 0.13526 0.05065
# Poissons Ratio (y) = 0.37467 0.42783
# Poissons Ratio (z) = 0.06893 0.21018
#
# Static dielectric constant tensor:
#      x y z
#    x 2.146520 0.000000 -0.027770 
#    y 0.000000 2.261040 0.000000 
#    z -0.027770 0.000000 2.054600 
# 
# From -- ./inp_files/54061.got.cif
#   From: 2010.05.17/outbox.cif.g08.bks.cpg/sg15_28_cif.got.tgz:54061.got - 2010.06.03 18:47:42.
