data_PCOD9278016
_publ_section_title
;
Structure prediction by ZEFSAII (Michael W. Deem and Ramdas Pophale) SiO2 
 PCOD9278016
Probable space group: C 2/C
;
_chemical_formula_sum "Si O2"
_cell_formula_units_Z 60
_cell_length_a 16.220355
_cell_length_b 10.924333
_cell_length_c 15.203129
_cell_angle_alpha 90.000000
_cell_angle_beta 127.073289
_cell_angle_gamma 90.000000
_cell_volume 2149.402301
_symmetry_space_group_name_H-M "C 2/C"
_symmetry_group_IT_number 15
_symmetry_cell_setting 'monoclinic'
loop_
_space_group_symop_operation_xyz
x,y,z
-x,y,1/2-z
-x,-y,-z
x,-y,1/2+z
1/2+x,1/2+y,z
1/2-x,1/2+y,1/2-z
1/2-x,1/2-y,-z
1/2+x,1/2-y,1/2+z
loop_
_atom_site_type_symbol
_atom_site_label
_atom_site_fract_x
_atom_site_fract_y
_atom_site_fract_z
Si Si1 0.988353 0.833351 0.938242
Si Si2 0.178264 0.561048 0.487203
Si Si3 0.878889 0.300923 0.837877
Si Si4 0.000000 0.781816 0.250000
Si Si5 0.705463 0.189608 0.830695
Si Si6 0.853015 0.830515 0.993997
Si Si7 0.353157 0.613972 0.087854
Si Si8 0.956953 0.448776 0.361035
O O1 0.060525 0.803211 0.068652
O O2 0.893384 0.890676 0.930322
O O3 0.039691 0.911179 0.893851
O O4 0.970213 0.693986 0.894425
O O5 0.152930 0.684026 0.524945
O O6 0.242167 0.617472 0.447023
O O7 0.268844 0.473068 0.581254
O O8 0.069765 0.493748 0.401449
O O9 0.924401 0.289690 0.768820
O O10 0.763333 0.260889 0.788690
O O11 0.915413 0.436639 0.893776
O O12 0.078101 0.843805 0.371428
O O13 0.628107 0.281359 0.829910
O O14 0.643510 0.069914 0.764487
O O15 0.786845 0.160988 0.960808
#
# Coordination Sequence:
#
# PCOD9278016 Si02
#       8
#     8   8   8   4   8   8   8   8
#     4  10  22  43  67 102 138 186 236 297 359 433
#     4  11  23  41  71 105 140 194 232 296 368 426
#     4  10  22  41  64 100 142 181 234 299 365 420
#     4  10  20  42  64  92 140 190 230 302 342 430
#     4  10  24  42  65 109 139 178 247 306 349 436
#     4  10  24  42  69 105 148 184 250 292 356 443
#     4  10  23  43  69  97 148 187 234 302 364 414
#     4  12  23  41  75 102 135 192 243 296 366 443
#
# _framework density 27.914736999999999
#
# number of rings (size 3 to 8) (size 9 to 14) (size 15 to 20)
#    0.000    1.600    2.667    2.800    3.733    5.867 
#    0.000    1.333    0.000    0.000    0.000    0.000 
#    0.000    0.000    0.000    0.000    0.000    0.000 
#
# Total GULP energy -167410.447788 kJ/mol
# GULP energy per Si atom -5580.348260 kJ/mol
# Density = 2.785120 g / cm^3
# Si number density = 27.914737 Si / 1000 Ang^3
#
#
#
# Elastic Constant Matrix: (Units=GPa)
#
#
# Indices 1 2 3 4 5 6 
#
# 1 197.0189 41.8761 42.7067 0.0000 -27.7048 0.0000
# 2 41.8761 126.8265 20.0260 0.0000 -9.4769 0.0000
# 3 42.7067 20.0260 82.3610 0.0000 7.0408 0.0000
# 4 0.0000 0.0000 0.0000 30.6116 0.0000 0.2852
# 5 -27.7048 -9.4769 7.0408 0.0000 43.4515 0.0000
# 6 0.0000 0.0000 0.0000 0.2852 0.0000 41.6046
#
#
#
# Elastic Compliance Matrix: (Units=1/GPa)
#
#
# Indices 1 2 3 4 5 6 
#
# 1 0.006786 -0.001329 -0.003590 0.000000 0.004619 0.000000
# 2 -0.001329 0.008661 -0.001527 0.000000 0.001289 0.000000
# 3 -0.003590 -0.001527 0.014804 0.000000 -0.005021 0.000000
# 4 0.000000 0.000000 0.000000 0.032669 0.000000 -0.000224
# 5 0.004619 0.001289 -0.005021 0.000000 0.027054 0.000000
# 6 0.000000 0.000000 0.000000 -0.000224 0.000000 0.024037
#
#
# Mechanical properties :
#
#
# Convention : Reuss Voigt Hill
#
# Bulk Modulus (GPa) = 57.60921 68.38044 62.99482
# Shear Modulus (GPa) = 37.68185 43.24006 40.46095
#
# Velocity S-wave (km/s) = 3.67807 3.94001 3.81129
# Velocity P-wave (km/s) = 6.22254 6.72663 6.47949
#
# Compressibility (1/GPa) = 0.01735834
#
# Stress axis : x y z
#
# Youngs Moduli (GPa) = 147.36693 115.46089 67.54922
#
# Poissons Ratio (x) = 0.15339 0.24253
# Poissons Ratio (y) = 0.19578 0.10316
# Poissons Ratio (z) = 0.52911 0.17634
#
# Static dielectric constant tensor:
#      x y z
#    x 2.304910 0.000000 0.038610 
#    y 0.000000 2.237890 0.000000 
#    z 0.038610 0.000000 2.227840 
# 
# From -- ./inp_files/204078.got.cif
#   From: 2010.05.17/outbox.cif.g08.bks.cpg/sg15_103_cif.got.tgz:204078.got - 2010.06.03 18:47:42.
