data_PCOD9278687
_publ_section_title
;
Structure prediction by ZEFSAII (Michael W. Deem and Ramdas Pophale) SiO2 
 PCOD9278687
Probable space group: C 2/C
;
_chemical_formula_sum "Si O2"
_cell_formula_units_Z 60
_cell_length_a 16.082542
_cell_length_b 11.794777
_cell_length_c 21.579986
_cell_angle_alpha 90.000000
_cell_angle_beta 145.444763
_cell_angle_gamma 90.000000
_cell_volume 2321.839429
_symmetry_space_group_name_H-M "C 2/C"
_symmetry_group_IT_number 15
_symmetry_cell_setting 'monoclinic'
loop_
_space_group_symop_operation_xyz
x,y,z
-x,y,1/2-z
-x,-y,-z
x,-y,1/2+z
1/2+x,1/2+y,z
1/2-x,1/2+y,1/2-z
1/2-x,1/2-y,-z
1/2+x,1/2-y,1/2+z
loop_
_atom_site_type_symbol
_atom_site_label
_atom_site_fract_x
_atom_site_fract_y
_atom_site_fract_z
Si Si1 0.394523 0.560858 0.557842
Si Si2 0.260457 0.953127 0.172782
Si Si3 0.699542 0.848046 0.169882
Si Si4 0.477532 0.369991 0.942337
Si Si5 0.452460 0.787522 0.874447
Si Si6 0.000000 0.016286 0.250000
Si Si7 0.919556 0.489984 0.105588
Si Si8 0.189181 0.421527 0.593727
O O1 0.658163 0.434667 0.606817
O O2 0.495356 0.457183 0.596689
O O3 0.430102 0.561641 0.652994
O O4 0.229184 0.514123 0.447763
O O5 0.271706 0.920421 0.251649
O O6 0.434434 0.951397 0.268078
O O7 0.141877 0.866514 0.071658
O O8 0.574097 0.755550 0.100813
O O9 0.562474 0.679714 0.948437
O O10 0.671654 0.944310 0.102188
O O11 0.160154 0.233328 0.744095
O O12 0.536320 0.887756 0.893121
O O13 0.371745 0.847715 0.884718
O O14 0.864273 0.091350 0.191707
O O15 0.877884 0.418079 0.017686
#
# Coordination Sequence:
#
# PCOD9278687 Si02
#       8
#     8   8   8   8   8   4   8   8
#     4  11  24  46  73 112 158 199 260 326 401 457
#     4  11  24  43  68 108 147 196 261 317 396 461
#     4  12  22  40  74 104 146 197 263 314 380 473
#     4  11  25  44  72 108 150 203 254 327 383 481
#     4  12  22  43  70 112 150 200 259 319 385 477
#     4  10  20  44  70 116 154 204 258 326 386 462
#     4  11  25  44  72 107 151 196 263 334 389 466
#     4  11  24  41  75 111 153 203 261 327 391 466
#
# _framework density 25.84158
#
# number of rings (size 3 to 8) (size 9 to 14) (size 15 to 20)
#    0.000    0.800    5.333    1.600    1.867    0.533 
#    0.000    2.000    0.000    4.800    0.000    0.933 
#    0.000    0.000    0.000    0.000    0.000    0.000 
#
# Total GULP energy -167359.033671 kJ/mol
# GULP energy per Si atom -5578.634456 kJ/mol
# Density = 2.578276 g / cm^3
# Si number density = 25.841580 Si / 1000 Ang^3
#
#
#
# Elastic Constant Matrix: (Units=GPa)
#
#
# Indices 1 2 3 4 5 6 
#
# 1 123.6159 29.8547 35.8178 -0.0001 35.9997 0.0000
# 2 29.8547 79.2573 22.4812 -0.0002 17.0070 -0.0001
# 3 35.8178 22.4812 188.5238 -0.0001 28.6192 -0.0001
# 4 -0.0001 -0.0002 -0.0001 53.5975 -0.0001 5.2029
# 5 35.9997 17.0070 28.6192 -0.0001 44.9521 0.0000
# 6 0.0000 -0.0001 -0.0001 5.2029 0.0000 28.5926
#
#
#
# Elastic Compliance Matrix: (Units=1/GPa)
#
#
# Indices 1 2 3 4 5 6 
#
# 1 0.011045 -0.002354 -0.000675 0.000000 -0.007525 0.000000
# 2 -0.002354 0.014386 -0.000806 0.000000 -0.003044 0.000000
# 3 -0.000675 -0.000806 0.005978 0.000000 -0.002960 0.000000
# 4 0.000000 0.000000 0.000000 0.018993 0.000000 -0.003456
# 5 -0.007525 -0.003044 -0.002960 0.000000 0.031308 0.000000
# 6 0.000000 0.000000 0.000000 -0.003456 0.000000 0.035603
#
#
# Mechanical properties :
#
#
# Convention : Reuss Voigt Hill
#
# Bulk Modulus (GPa) = 42.12720 63.07828 52.60274
# Shear Modulus (GPa) = 37.62290 45.64468 41.63379
#
# Velocity S-wave (km/s) = 3.81977 4.20733 4.01823
# Velocity P-wave (km/s) = 5.98262 6.93287 6.47520
#
# Compressibility (1/GPa) = 0.02373763
#
# Stress axis : x y z
#
# Youngs Moduli (GPa) = 90.53655 69.51304 167.27456
#
# Poissons Ratio (x) = 0.16365 0.11298
# Poissons Ratio (y) = 0.21315 0.13484
# Poissons Ratio (z) = 0.06115 0.05603
#
# Static dielectric constant tensor:
#      x y z
#    x 2.165450 0.000000 0.045180 
#    y 0.000000 2.078820 0.000000 
#    z 0.045180 0.000000 2.258750 
# 
# From -- ./inp_files/245459.got.cif
#   From: 2010.05.17/outbox.cif.g08.bks.cpg/sg15_123_cif.got.tgz:245459.got - 2010.06.03 18:47:42.
