data_PCOD9278583
_publ_section_title
;
Structure prediction by ZEFSAII (Michael W. Deem and Ramdas Pophale) SiO2 
 PCOD9278583
Probable space group: C 2/C
;
_chemical_formula_sum "Si O2"
_cell_formula_units_Z 36
_cell_length_a 9.060935
_cell_length_b 16.475091
_cell_length_c 13.543488
_cell_angle_alpha 90.000000
_cell_angle_beta 131.078749
_cell_angle_gamma 90.000000
_cell_volume 1524.023357
_symmetry_space_group_name_H-M "C 2/C"
_symmetry_group_IT_number 15
_symmetry_cell_setting 'monoclinic'
loop_
_space_group_symop_operation_xyz
x,y,z
-x,y,1/2-z
-x,-y,-z
x,-y,1/2+z
1/2+x,1/2+y,z
1/2-x,1/2+y,1/2-z
1/2-x,1/2-y,-z
1/2+x,1/2-y,1/2+z
loop_
_atom_site_type_symbol
_atom_site_label
_atom_site_fract_x
_atom_site_fract_y
_atom_site_fract_z
Si Si1 0.653682 0.430541 0.103055
Si Si2 0.713683 0.637898 0.840810
Si Si3 0.532137 0.271602 0.943366
Si Si4 0.686975 0.011135 0.013383
Si Si5 0.000000 0.870306 0.750000
O O1 0.711737 0.420827 0.242637
O O2 0.500000 0.500000 0.000000
O O3 0.569306 0.342399 0.037660
O O4 0.828734 0.453181 0.103314
O O5 0.500000 0.679634 0.750000
O O6 0.723812 0.579060 0.939910
O O7 0.898664 0.697238 0.918539
O O8 0.421995 0.312963 0.802264
O O9 0.750000 0.250000 0.000000
O O10 0.834646 0.073411 0.131063
O O11 0.500000 0.000000 0.000000
#
# Coordination Sequence:
#
# PCOD9278583 Si02
#       5
#     8   8   8   8   4
#     4  11  23  46  71  99 141 182 234 285 352 424
#     4  12  23  43  69 101 143 183 236 300 353 416
#     4  11  24  41  67  99 137 183 230 283 357 421
#     4  11  23  42  71  99 134 185 237 285 346 426
#     4  10  20  44  62  94 136 176 232 276 340 438
#
# _framework density 23.621683999999998
#
# number of rings (size 3 to 8) (size 9 to 14) (size 15 to 20)
#    0.000    0.889    3.333    5.333    0.000    3.556 
#    4.000    0.000    0.000    0.000    0.000    0.000 
#    0.000    0.000    0.000    0.000    0.000    0.000 
#
# Total GULP energy -100597.442640 kJ/mol
# GULP energy per Si atom -5588.746813 kJ/mol
# Density = 2.356792 g / cm^3
# Si number density = 23.621684 Si / 1000 Ang^3
#
#
#
# Elastic Constant Matrix: (Units=GPa)
#
#
# Indices 1 2 3 4 5 6 
#
# 1 133.8987 47.0934 43.7989 0.0000 10.2063 0.0000
# 2 47.0934 144.7411 42.6226 0.0000 5.4597 0.0000
# 3 43.7989 42.6226 91.0617 0.0000 -5.4315 0.0000
# 4 0.0000 0.0000 0.0000 27.2426 0.0000 3.8185
# 5 10.2063 5.4597 -5.4315 0.0000 49.9816 0.0000
# 6 0.0000 0.0000 0.0000 3.8185 0.0000 60.3993
#
#
#
# Elastic Compliance Matrix: (Units=1/GPa)
#
#
# Indices 1 2 3 4 5 6 
#
# 1 0.009555 -0.001898 -0.003837 0.000000 -0.002161 0.000000
# 2 -0.001898 0.008474 -0.003106 0.000000 -0.000876 0.000000
# 3 -0.003837 -0.003106 0.014441 0.000000 0.002692 0.000000
# 4 0.000000 0.000000 0.000000 0.037035 0.000000 -0.002341
# 5 -0.002161 -0.000876 0.002692 0.000000 0.020837 0.000000
# 6 0.000000 0.000000 0.000000 -0.002341 0.000000 0.016705
#
#
# Mechanical properties :
#
#
# Convention : Reuss Voigt Hill
#
# Bulk Modulus (GPa) = 67.61183 70.74792 69.17988
# Shear Modulus (GPa) = 38.56308 43.27047 40.91678
#
# Velocity S-wave (km/s) = 4.04484 4.28461 4.16645
# Velocity P-wave (km/s) = 7.10628 7.38191 7.24541
#
# Compressibility (1/GPa) = 0.01479031
#
# Stress axis : x y z
#
# Youngs Moduli (GPa) = 104.65212 118.00894 69.24636
#
# Poissons Ratio (x) = 0.22394 0.26567
# Poissons Ratio (y) = 0.19860 0.21507
# Poissons Ratio (z) = 0.40151 0.36651
#
# Static dielectric constant tensor:
#      x y z
#    x 2.099600 0.000000 0.109420 
#    y 0.000000 1.909750 0.000000 
#    z 0.109420 0.000000 2.010070 
# 
# From -- ./inp_files/134670.got.cif
#   From: 2010.05.17/outbox.cif.g08.bks.cpg/sg15_68_cif.got.tgz:134670.got - 2010.06.03 18:47:42.
