data_PCOD9278822
_publ_section_title
;
Structure prediction by ZEFSAII (Michael W. Deem and Ramdas Pophale) SiO2 
 PCOD9278822
Probable space group: C 2/C
;
_chemical_formula_sum "Si O2"
_cell_formula_units_Z 28
_cell_length_a 20.297087
_cell_length_b 7.593021
_cell_length_c 15.772282
_cell_angle_alpha 90.000000
_cell_angle_beta 24.720268
_cell_angle_gamma 90.000000
_cell_volume 1016.517494
_symmetry_space_group_name_H-M "C 2/C"
_symmetry_group_IT_number 15
_symmetry_cell_setting 'monoclinic'
loop_
_space_group_symop_operation_xyz
x,y,z
-x,y,1/2-z
-x,-y,-z
x,-y,1/2+z
1/2+x,1/2+y,z
1/2-x,1/2+y,1/2-z
1/2-x,1/2-y,-z
1/2+x,1/2-y,1/2+z
loop_
_atom_site_type_symbol
_atom_site_label
_atom_site_fract_x
_atom_site_fract_y
_atom_site_fract_z
Si Si1 0.000000 0.782838 0.750000
Si Si2 0.674270 0.964530 0.171289
Si Si3 0.746702 0.071338 0.257518
Si Si4 0.396549 0.667923 0.689869
O O1 0.152083 0.905096 0.558693
O O2 0.050209 0.653142 0.767163
O O3 0.666790 0.940762 0.281758
O O4 0.642582 0.174814 0.200021
O O5 0.641890 0.240086 0.356090
O O6 0.778325 0.998211 0.315092
O O7 0.923811 0.110208 0.015472
#
# Coordination Sequence:
#
# PCOD9278822 Si02
#       4
#     4   8   8   8
#     4  10  20  48  66  88 144 174 224 266 322 378
#     4   9  22  41  67  97 125 185 215 270 324 398
#     4   9  20  41  62  98 132 166 212 278 323 395
#     4   9  20  41  64  97 132 168 214 270 336 385
#
# _framework density 27.545026
#
# number of rings (size 3 to 8) (size 9 to 14) (size 15 to 20)
#    1.714    1.143    0.000    0.000    0.000    5.714 
#   15.429    4.286    0.000    0.000    0.000    0.000 
#    0.000    0.286    0.000    0.000    0.000    0.000 
#
# Total GULP energy -78128.973712 kJ/mol
# GULP energy per Si atom -5580.640979 kJ/mol
# Density = 2.748233 g / cm^3
# Si number density = 27.545026 Si / 1000 Ang^3
#
#
#
# Elastic Constant Matrix: (Units=GPa)
#
#
# Indices 1 2 3 4 5 6 
#
# 1 82.9036 43.6374 33.6363 -0.0002 -28.1533 0.0001
# 2 43.6374 123.7739 69.6710 -0.0013 -11.2414 0.0003
# 3 33.6363 69.6710 206.5370 -0.0006 -26.3288 0.0002
# 4 -0.0002 -0.0013 -0.0006 59.6231 0.0000 -10.0299
# 5 -28.1533 -11.2414 -26.3288 0.0000 36.0062 0.0001
# 6 0.0001 0.0003 0.0002 -10.0299 0.0001 40.8928
#
#
#
# Elastic Compliance Matrix: (Units=1/GPa)
#
#
# Indices 1 2 3 4 5 6 
#
# 1 0.019744 -0.006029 0.000602 0.000000 0.013996 0.000000
# 2 -0.006029 0.011831 -0.003462 0.000000 -0.003552 0.000000
# 3 0.000602 -0.003462 0.006433 0.000000 0.004094 0.000000
# 4 0.000000 0.000000 0.000000 0.017494 0.000000 0.004291
# 5 0.013996 -0.003552 0.004094 0.000000 0.040602 0.000000
# 6 0.000000 0.000000 0.000000 0.004291 0.000000 0.025507
#
#
# Mechanical properties :
#
#
# Convention : Reuss Voigt Hill
#
# Bulk Modulus (GPa) = 49.42710 78.56710 63.99710
# Shear Modulus (GPa) = 34.21593 45.05575 39.63584
#
# Velocity S-wave (km/s) = 3.52828 4.04878 3.79746
# Velocity P-wave (km/s) = 5.88060 7.10225 6.52010
#
# Compressibility (1/GPa) = 0.02023182
#
# Stress axis : x y z
#
# Youngs Moduli (GPa) = 50.64799 84.52527 155.43999
#
# Poissons Ratio (x) = 0.50959 -0.09364
# Poissons Ratio (y) = 0.30535 0.53810
# Poissons Ratio (z) = -0.03051 0.29261
#
# Static dielectric constant tensor:
#      x y z
#    x 2.096950 0.000000 0.052800 
#    y 0.000000 2.340140 0.000000 
#    z 0.052800 0.000000 2.064140 
# 
# From -- ./inp_files/45418.got.cif
#   From: 2010.05.17/outbox.cif.g08.bks.cpg/sg15_23_cif.got.tgz:45418.got - 2010.06.03 18:47:42.
