data_PCOD9278923
_publ_section_title
;
Structure prediction by ZEFSAII (Michael W. Deem and Ramdas Pophale) SiO2 
 PCOD9278923
Probable space group: C 2/C
;
_chemical_formula_sum "Si O2"
_cell_formula_units_Z 60
_cell_length_a 27.754628
_cell_length_b 5.337799
_cell_length_c 22.320412
_cell_angle_alpha 90.000000
_cell_angle_beta 76.363586
_cell_angle_gamma 90.000000
_cell_volume 3213.525907
_symmetry_space_group_name_H-M "C 2/C"
_symmetry_group_IT_number 15
_symmetry_cell_setting 'monoclinic'
loop_
_space_group_symop_operation_xyz
x,y,z
-x,y,1/2-z
-x,-y,-z
x,-y,1/2+z
1/2+x,1/2+y,z
1/2-x,1/2+y,1/2-z
1/2-x,1/2-y,-z
1/2+x,1/2-y,1/2+z
loop_
_atom_site_type_symbol
_atom_site_label
_atom_site_fract_x
_atom_site_fract_y
_atom_site_fract_z
Si Si1 0.448312 0.142237 0.946268
Si Si2 0.941015 0.403615 0.583059
Si Si3 0.253902 0.064515 0.711158
Si Si4 0.862218 0.634325 0.691880
Si Si5 0.500000 0.808314 0.250000
Si Si6 0.353662 0.368234 0.275350
Si Si7 0.493014 0.523086 0.637200
Si Si8 0.428846 0.872940 0.836381
O O1 0.465088 0.418373 0.920407
O O2 0.502741 0.010656 0.933709
O O3 0.417120 0.013767 0.902030
O O4 0.425627 0.127961 0.018665
O O5 0.905793 0.579513 0.632226
O O6 0.947495 0.136321 0.614197
O O7 0.247131 0.276895 0.765366
O O8 0.308959 0.128983 0.672805
O O9 0.203803 0.102313 0.688040
O O10 0.858774 0.388908 0.735786
O O11 0.864868 0.889638 0.730294
O O12 0.513909 0.672355 0.307947
O O13 0.552608 0.934598 0.218794
O O14 0.390394 0.322914 0.320337
O O15 0.518548 0.743908 0.666359
#
# Coordination Sequence:
#
# PCOD9278923 Si02
#       8
#     8   8   8   8   4   8   8   8
#     4   9  21  38  49  70 113 146 195 228 265 317
#     4  10  21  35  53  76 101 152 194 228 270 320
#     4   8  16  36  51  78 112 137 170 229 284 343
#     4  10  22  33  59  84 107 141 186 231 283 338
#     4  10  22  32  46  74 122 138 194 234 280 330
#     4  10  22  34  56  84 113 140 178 225 299 339
#     4  10  21  33  50  71 110 152 183 236 272 323
#     4  10  22  32  50  77 105 153 176 227 277 339
#
# _framework density 18.671078000000001
#
# number of rings (size 3 to 8) (size 9 to 14) (size 15 to 20)
#    0.000    2.400    0.000    0.800   13.067    0.000 
#    0.000    0.000    0.000    0.800    0.000    0.933 
#    0.000    0.000    0.000    0.000    0.000    0.000 
#
# Total GULP energy -167013.111851 kJ/mol
# GULP energy per Si atom -5567.103728 kJ/mol
# Density = 1.862858 g / cm^3
# Si number density = 18.671078 Si / 1000 Ang^3
#
#
#
# Elastic Constant Matrix: (Units=GPa)
#
#
# Indices 1 2 3 4 5 6 
#
# 1 70.5986 22.2927 56.6566 0.0000 1.7013 0.0000
# 2 22.2927 83.8780 29.1403 0.0000 -0.8469 0.0000
# 3 56.6566 29.1403 84.9052 0.0000 9.0051 0.0000
# 4 0.0000 0.0000 0.0000 4.7525 0.0000 3.9112
# 5 1.7013 -0.8469 9.0051 0.0000 9.7412 0.0000
# 6 0.0000 0.0000 0.0000 3.9112 0.0000 22.7551
#
#
#
# Elastic Compliance Matrix: (Units=1/GPa)
#
#
# Indices 1 2 3 4 5 6 
#
# 1 0.032607 -0.000415 -0.023292 0.000000 0.015801 0.000000
# 2 -0.000415 0.013873 -0.005122 0.000000 0.006014 0.000000
# 3 -0.023292 -0.005122 0.031813 0.000000 -0.025787 0.000000
# 4 0.000000 0.000000 0.000000 0.245087 0.000000 -0.042127
# 5 0.015801 0.006014 -0.025787 0.000000 0.124258 0.000000
# 6 0.000000 0.000000 0.000000 -0.042127 0.000000 0.051187
#
#
# Mechanical properties :
#
#
# Convention : Reuss Voigt Hill
#
# Bulk Modulus (GPa) = 48.46123 50.61789 49.53956
# Shear Modulus (GPa) = 8.87530 16.20258 12.53894
#
# Velocity S-wave (km/s) = 2.18262 2.94902 2.59428
# Velocity P-wave (km/s) = 5.68888 6.22614 5.96356
#
# Compressibility (1/GPa) = 0.02063505
#
# Stress axis : x y z
#
# Youngs Moduli (GPa) = 30.66830 72.08471 31.43327
#
# Poissons Ratio (x) = 0.02989 0.73214
# Poissons Ratio (y) = 0.01272 0.16101
# Poissons Ratio (z) = 0.71432 0.36924
#
# Static dielectric constant tensor:
#      x y z
#    x 1.718460 0.000000 0.004200 
#    y 0.000000 1.808360 0.000000 
#    z 0.004200 0.000000 1.646510 
# 
# From -- ./inp_files/256544.got.cif
#   From: 2010.05.17/outbox.cif.g08.bks.cpg/sg15_129_cif.got.tgz:256544.got - 2010.06.03 18:47:42.
