data_PCOD9278726
_publ_section_title
;
Structure prediction by ZEFSAII (Michael W. Deem and Ramdas Pophale) SiO2 
 PCOD9278726
Probable space group: C 2/C
;
_chemical_formula_sum "Si O2"
_cell_formula_units_Z 36
_cell_length_a 21.918897
_cell_length_b 8.756007
_cell_length_c 16.824980
_cell_angle_alpha 90.000000
_cell_angle_beta 153.666846
_cell_angle_gamma 90.000000
_cell_volume 1432.388969
_symmetry_space_group_name_H-M "C 2/C"
_symmetry_group_IT_number 15
_symmetry_cell_setting 'monoclinic'
loop_
_space_group_symop_operation_xyz
x,y,z
-x,y,1/2-z
-x,-y,-z
x,-y,1/2+z
1/2+x,1/2+y,z
1/2-x,1/2+y,1/2-z
1/2-x,1/2-y,-z
1/2+x,1/2-y,1/2+z
loop_
_atom_site_type_symbol
_atom_site_label
_atom_site_fract_x
_atom_site_fract_y
_atom_site_fract_z
Si Si1 0.361508 0.614144 0.190303
Si Si2 0.500000 0.366956 0.250000
Si Si3 0.590046 0.060322 0.778709
Si Si4 0.735954 0.159682 0.345399
Si Si5 0.163135 0.977163 0.183592
O O1 0.456262 0.474373 0.272930
O O2 0.448169 0.770503 0.297175
O O3 0.285084 0.584578 0.183813
O O4 0.246157 0.599449 0.987487
O O5 0.641527 0.295280 0.449553
O O6 0.500000 0.024931 0.750000
O O7 0.606871 0.915357 0.741372
O O8 0.700044 0.307380 0.252625
O O9 0.780040 0.030296 0.333910
O O10 0.000000 0.000000 0.000000
#
# Coordination Sequence:
#
# PCOD9278726 Si02
#       5
#     8   4   8   8   8
#     4  10  21  41  71 102 147 194 238 304 373 432
#     4  10  20  44  76 106 148 190 252 304 366 448
#     4  10  22  42  72 111 146 194 248 302 367 455
#     4  11  26  47  76 111 147 202 247 310 382 441
#     4  12  26  48  74 107 155 193 247 315 376 451
#
# _framework density 25.132836000000001
#
# number of rings (size 3 to 8) (size 9 to 14) (size 15 to 20)
#    0.000    1.333    3.333    1.333    0.000    7.111 
#    4.000    3.333    0.000    0.000    0.000    0.000 
#    0.000    0.000    0.000    0.000    0.000    0.000 
#
# Total GULP energy -100620.899239 kJ/mol
# GULP energy per Si atom -5590.049958 kJ/mol
# Density = 2.507563 g / cm^3
# Si number density = 25.132836 Si / 1000 Ang^3
#
#
#
# Elastic Constant Matrix: (Units=GPa)
#
#
# Indices 1 2 3 4 5 6 
#
# 1 138.4946 45.4033 -4.1971 0.0000 5.5540 0.0000
# 2 45.4033 140.6118 37.8386 0.0000 -1.1625 0.0000
# 3 -4.1971 37.8386 52.3553 0.0000 -8.7572 0.0000
# 4 0.0000 0.0000 0.0000 18.1225 0.0000 -4.4681
# 5 5.5540 -1.1625 -8.7572 0.0000 36.7458 0.0000
# 6 0.0000 0.0000 0.0000 -4.4681 0.0000 43.9408
#
#
#
# Elastic Compliance Matrix: (Units=1/GPa)
#
#
# Indices 1 2 3 4 5 6 
#
# 1 0.008529 -0.003618 0.003191 0.000000 -0.000643 0.000000
# 2 -0.003618 0.010423 -0.007995 0.000000 -0.001029 0.000000
# 3 0.003191 -0.007995 0.026050 0.000000 0.005473 0.000000
# 4 0.000000 0.000000 0.000000 0.056599 0.000000 0.005755
# 5 -0.000643 -0.001029 0.005473 0.000000 0.028583 0.000000
# 6 0.000000 0.000000 0.000000 0.005755 0.000000 0.023343
#
#
# Mechanical properties :
#
#
# Convention : Reuss Voigt Hill
#
# Bulk Modulus (GPa) = 35.51436 54.39457 44.95446
# Shear Modulus (GPa) = 27.81532 36.58962 32.20247
#
# Velocity S-wave (km/s) = 3.33037 3.81970 3.58340
# Velocity P-wave (km/s) = 5.38050 6.41430 5.92001
#
# Compressibility (1/GPa) = 0.02815763
#
# Stress axis : x y z
#
# Youngs Moduli (GPa) = 117.24544 95.94151 38.38806
#
# Poissons Ratio (x) = 0.34712 -0.12250
# Poissons Ratio (y) = 0.42420 0.30692
# Poissons Ratio (z) = -0.37413 0.76706
#
# Static dielectric constant tensor:
#      x y z
#    x 1.980050 0.000000 -0.054390 
#    y 0.000000 2.137320 0.000000 
#    z -0.054390 0.000000 2.127400 
# 
# From -- ./inp_files/116143.got.cif
#   From: 2010.05.17/outbox.cif.g08.bks.cpg/sg15_59_cif.got.tgz:116143.got - 2010.06.03 18:47:42.
