data_PCOD9278077
_publ_section_title
;
Structure prediction by ZEFSAII (Michael W. Deem and Ramdas Pophale) SiO2 
 PCOD9278077
Probable space group: C 2/C
;
_chemical_formula_sum "Si O2"
_cell_formula_units_Z 36
_cell_length_a 22.347070
_cell_length_b 6.518568
_cell_length_c 19.990126
_cell_angle_alpha 90.000000
_cell_angle_beta 147.602091
_cell_angle_gamma 90.000000
_cell_volume 1560.226942
_symmetry_space_group_name_H-M "C 2/C"
_symmetry_group_IT_number 15
_symmetry_cell_setting 'monoclinic'
loop_
_space_group_symop_operation_xyz
x,y,z
-x,y,1/2-z
-x,-y,-z
x,-y,1/2+z
1/2+x,1/2+y,z
1/2-x,1/2+y,1/2-z
1/2-x,1/2-y,-z
1/2+x,1/2-y,1/2+z
loop_
_atom_site_type_symbol
_atom_site_label
_atom_site_fract_x
_atom_site_fract_y
_atom_site_fract_z
Si Si1 0.827925 0.833667 0.512890
Si Si2 0.000000 0.595957 0.750000
Si Si3 0.612763 0.081980 0.639720
Si Si4 0.176427 0.657207 0.333897
Si Si5 0.708108 0.444091 0.795962
O O1 0.750000 0.750000 0.500000
O O2 0.948181 0.748085 0.645729
O O3 0.785835 0.720888 0.406558
O O4 0.798143 0.071672 0.471764
O O5 0.908141 0.446666 0.694502
O O6 0.613903 0.315057 0.668425
O O7 0.500000 0.000000 0.500000
O O8 0.641959 0.937985 0.729972
O O9 0.713754 0.064407 0.682182
O O10 0.169454 0.898406 0.316481
#
# Coordination Sequence:
#
# PCOD9278077 Si02
#       5
#     8   4   8   8   8
#     4   9  21  40  64  92 137 173 224 282 335 405
#     4  10  20  42  66 100 136 182 234 276 354 422
#     4  11  23  42  67  99 138 179 229 275 345 412
#     4  10  22  42  66  98 135 178 225 286 339 402
#     4  11  22  43  67 100 138 177 228 291 337 409
#
# _framework density 23.073568000000002
#
# number of rings (size 3 to 8) (size 9 to 14) (size 15 to 20)
#    0.000    1.778    2.222    1.333    0.000    4.444 
#    0.000   28.889    0.000    0.000    0.000    0.000 
#    0.000    0.000    0.000    0.000    0.000    0.000 
#
# Total GULP energy -100587.669960 kJ/mol
# GULP energy per Si atom -5588.203887 kJ/mol
# Density = 2.302105 g / cm^3
# Si number density = 23.073568 Si / 1000 Ang^3
#
#
#
# Elastic Constant Matrix: (Units=GPa)
#
#
# Indices 1 2 3 4 5 6 
#
# 1 62.8692 16.2961 6.6869 0.0000 -3.3573 0.0000
# 2 16.2961 136.7430 72.3035 0.0000 14.3169 0.0000
# 3 6.6869 72.3035 118.0029 0.0000 -1.4851 0.0000
# 4 0.0000 0.0000 0.0000 36.6257 0.0000 -13.3374
# 5 -3.3573 14.3169 -1.4851 0.0000 26.6815 0.0000
# 6 0.0000 0.0000 0.0000 -13.3374 0.0000 34.5740
#
#
#
# Elastic Compliance Matrix: (Units=1/GPa)
#
#
# Indices 1 2 3 4 5 6 
#
# 1 0.016743 -0.002813 0.000821 0.000000 0.003662 0.000000
# 2 -0.002813 0.012414 -0.007540 0.000000 -0.007435 0.000000
# 3 0.000821 -0.007540 0.013109 0.000000 0.004879 0.000000
# 4 0.000000 0.000000 0.000000 0.031766 0.000000 0.012254
# 5 0.003662 -0.007435 0.004879 0.000000 0.042201 0.000000
# 6 0.000000 0.000000 0.000000 0.012254 0.000000 0.033651
#
#
# Mechanical properties :
#
#
# Convention : Reuss Voigt Hill
#
# Bulk Modulus (GPa) = 43.10022 56.46536 49.78279
# Shear Modulus (GPa) = 28.29949 34.39814 31.34882
#
# Velocity S-wave (km/s) = 3.50593 3.86528 3.68998
# Velocity P-wave (km/s) = 5.92526 6.66675 6.30691
#
# Compressibility (1/GPa) = 0.02320174
#
# Stress axis : x y z
#
# Youngs Moduli (GPa) = 59.72515 80.55725 76.28116
#
# Poissons Ratio (x) = 0.22658 -0.06260
# Poissons Ratio (y) = 0.16799 0.57518
# Poissons Ratio (z) = -0.04902 0.60742
#
# Static dielectric constant tensor:
#      x y z
#    x 1.881330 0.000000 0.035550 
#    y 0.000000 1.915680 0.000000 
#    z 0.035550 0.000000 1.888430 
# 
# From -- ./inp_files/120937.got.cif
#   From: 2010.05.17/outbox.cif.g08.bks.cpg/sg15_61_cif.got.tgz:120937.got - 2010.06.03 18:47:42.
