data_PCOD9278038
_publ_section_title
;
Structure prediction by ZEFSAII (Michael W. Deem and Ramdas Pophale) SiO2 
 PCOD9278038
Probable space group: C 2/C
;
_chemical_formula_sum "Si O2"
_cell_formula_units_Z 60
_cell_length_a 26.822686
_cell_length_b 11.006414
_cell_length_c 9.228974
_cell_angle_alpha 90.000000
_cell_angle_beta 68.871384
_cell_angle_gamma 90.000000
_cell_volume 2541.427869
_symmetry_space_group_name_H-M "C 2/C"
_symmetry_group_IT_number 15
_symmetry_cell_setting 'monoclinic'
loop_
_space_group_symop_operation_xyz
x,y,z
-x,y,1/2-z
-x,-y,-z
x,-y,1/2+z
1/2+x,1/2+y,z
1/2-x,1/2+y,1/2-z
1/2-x,1/2-y,-z
1/2+x,1/2-y,1/2+z
loop_
_atom_site_type_symbol
_atom_site_label
_atom_site_fract_x
_atom_site_fract_y
_atom_site_fract_z
Si Si1 0.177796 0.652484 0.728388
Si Si2 0.792199 0.833862 0.146309
Si Si3 0.670885 0.493171 0.662070
Si Si4 0.582643 0.683894 0.359721
Si Si5 0.361914 0.008627 0.453481
Si Si6 0.608191 0.171859 0.353201
Si Si7 0.500000 0.568498 0.250000
Si Si8 0.080879 0.852691 0.167894
O O1 0.233218 0.721946 0.693344
O O2 0.122400 0.719314 0.748971
O O3 0.183951 0.564558 0.585388
O O4 0.164914 0.585748 0.891558
O O5 0.836976 0.739708 0.154424
O O6 0.789936 0.943913 0.265551
O O7 0.809892 0.897953 0.977828
O O8 0.621405 0.434675 0.805898
O O9 0.642208 0.604839 0.609050
O O10 0.527805 0.652355 0.339375
O O11 0.572416 0.725285 0.533625
O O12 0.401961 0.918527 0.501204
O O13 0.385309 0.089452 0.297880
O O14 0.571193 0.281734 0.328721
O O15 0.546807 0.472785 0.165677
#
# Coordination Sequence:
#
# PCOD9278038 Si02
#       8
#     8   8   8   8   8   8   4   8
#     4  11  23  38  64  89 133 173 230 263 326 377
#     4  11  22  37  59  97 132 182 218 275 317 396
#     4  10  21  37  62  93 140 170 219 264 333 387
#     4  11  21  40  64  96 128 171 206 276 325 406
#     4  10  22  41  58  87 120 183 217 267 303 388
#     4  10  22  40  64  88 131 172 229 260 330 373
#     4  10  24  40  72  98 130 154 214 264 362 396
#     4  10  20  42  64  99 126 171 204 280 329 407
#
# _framework density 23.608775000000001
#
# number of rings (size 3 to 8) (size 9 to 14) (size 15 to 20)
#    0.000    1.600    2.667    2.000    0.000    4.800 
#    2.400    0.000    0.000    4.800    0.000    0.000 
#    0.000    0.000    0.000    0.000    0.000    0.000 
#
# Total GULP energy -167174.690288 kJ/mol
# GULP energy per Si atom -5572.489676 kJ/mol
# Density = 2.355504 g / cm^3
# Si number density = 23.608775 Si / 1000 Ang^3
#
#
#
# Elastic Constant Matrix: (Units=GPa)
#
#
# Indices 1 2 3 4 5 6 
#
# 1 101.2403 33.3058 47.0900 0.0000 19.4480 0.0000
# 2 33.3058 68.7769 40.1023 0.0000 18.5752 0.0000
# 3 47.0900 40.1023 120.0268 0.0000 36.0540 0.0000
# 4 0.0000 0.0000 0.0000 45.8010 0.0000 15.4977
# 5 19.4480 18.5752 36.0540 0.0000 28.7130 0.0000
# 6 0.0000 0.0000 0.0000 15.4977 0.0000 32.4624
#
#
#
# Elastic Compliance Matrix: (Units=1/GPa)
#
#
# Indices 1 2 3 4 5 6 
#
# 1 0.013058 -0.003853 -0.003095 0.000000 -0.002466 0.000000
# 2 -0.003853 0.020007 -0.003322 0.000000 -0.006162 0.000000
# 3 -0.003095 -0.003322 0.015061 0.000000 -0.014666 0.000000
# 4 0.000000 0.000000 0.000000 0.026040 0.000000 -0.012432
# 5 -0.002466 -0.006162 -0.014666 0.000000 0.058900 0.000000
# 6 0.000000 0.000000 0.000000 -0.012432 0.000000 0.036740
#
#
# Mechanical properties :
#
#
# Convention : Reuss Voigt Hill
#
# Bulk Modulus (GPa) = 36.25000 59.00446 47.62723
# Shear Modulus (GPa) = 25.05740 32.69835 28.87787
#
# Velocity S-wave (km/s) = 3.26139 3.72561 3.50120
# Velocity P-wave (km/s) = 5.43783 6.59952 6.04664
#
# Compressibility (1/GPa) = 0.02758621
#
# Stress axis : x y z
#
# Youngs Moduli (GPa) = 76.57936 49.98318 66.39552
#
# Poissons Ratio (x) = 0.19258 0.20551
# Poissons Ratio (y) = 0.29506 0.22056
# Poissons Ratio (z) = 0.23703 0.16604
#
# Static dielectric constant tensor:
#      x y z
#    x 1.876860 0.000000 0.027220 
#    y 0.000000 2.051270 0.000000 
#    z 0.027220 0.000000 1.910680 
# 
# From -- ./inp_files/69357.got.cif
#   From: 2010.05.17/outbox.cif.g08.bks.cpg/sg15_35_cif.got.tgz:69357.got - 2010.06.03 18:47:42.
