data_PCOD9278571
_publ_section_title
;
Structure prediction by ZEFSAII (Michael W. Deem and Ramdas Pophale) SiO2 
 PCOD9278571
Probable space group: C 2/C
;
_chemical_formula_sum "Si O2"
_cell_formula_units_Z 40
_cell_length_a 16.143251
_cell_length_b 10.760849
_cell_length_c 14.033405
_cell_angle_alpha 90.000000
_cell_angle_beta 133.882449
_cell_angle_gamma 90.000000
_cell_volume 1757.087425
_symmetry_space_group_name_H-M "C 2/C"
_symmetry_group_IT_number 15
_symmetry_cell_setting 'monoclinic'
loop_
_space_group_symop_operation_xyz
x,y,z
-x,y,1/2-z
-x,-y,-z
x,-y,1/2+z
1/2+x,1/2+y,z
1/2-x,1/2+y,1/2-z
1/2-x,1/2-y,-z
1/2+x,1/2-y,1/2+z
loop_
_atom_site_type_symbol
_atom_site_label
_atom_site_fract_x
_atom_site_fract_y
_atom_site_fract_z
Si Si1 0.659017 0.381180 0.390038
Si Si2 0.876915 0.151288 0.172767
Si Si3 0.337903 0.754757 0.946432
Si Si4 0.084164 0.478954 0.907634
Si Si5 0.477169 0.266138 0.378197
O O1 0.614721 0.506404 0.302251
O O2 0.792259 0.411450 0.513621
O O3 0.585096 0.345875 0.424545
O O4 0.620439 0.278665 0.281723
O O5 0.795443 0.216062 0.184246
O O6 0.000000 0.208224 0.250000
O O7 0.824504 0.162448 0.024812
O O8 0.418061 0.699074 0.929907
O O9 0.386280 0.888953 0.020185
O O10 0.000000 0.496690 0.750000
O O11 0.018302 0.376426 0.918291
#
# Coordination Sequence:
#
# PCOD9278571 Si02
#       5
#     8   8   8   8   8
#     4  10  22  41  67  93 130 173 220 269 335 388
#     4  10  20  44  61  88 132 174 216 273 331 395
#     4  10  24  38  65  97 129 171 226 271 331 390
#     4  11  22  41  67  95 135 174 215 270 334 397
#     4  11  21  40  65  96 129 171 219 279 318 397
#
# _framework density 22.764945999999998
#
# number of rings (size 3 to 8) (size 9 to 14) (size 15 to 20)
#    0.000    1.600    4.000    1.800    0.000    2.400 
#    0.000   10.000    0.000    0.000    0.000    0.000 
#    0.000    0.000    0.000    0.000    0.000    0.000 
#
# Total GULP energy -111413.935436 kJ/mol
# GULP energy per Si atom -5570.696772 kJ/mol
# Density = 2.271313 g / cm^3
# Si number density = 22.764946 Si / 1000 Ang^3
#
#
#
# Elastic Constant Matrix: (Units=GPa)
#
#
# Indices 1 2 3 4 5 6 
#
# 1 127.4764 4.1629 33.1595 0.0000 0.9906 0.0000
# 2 4.1629 63.4475 4.7885 0.0000 3.9971 0.0000
# 3 33.1595 4.7885 67.5288 0.0000 33.7115 0.0000
# 4 0.0000 0.0000 0.0000 -11.0349 0.0000 -9.0751
# 5 0.9906 3.9971 33.7115 0.0000 28.9998 0.0000
# 6 0.0000 0.0000 0.0000 -9.0751 0.0000 20.7808
#
#
#
# Elastic Compliance Matrix: (Units=1/GPa)
#
#
# Indices 1 2 3 4 5 6 
#
# 1 0.010982 -0.000675 -0.012400 0.000000 0.014133 0.000000
# 2 -0.000675 0.015941 0.000682 0.000000 -0.002967 0.000000
# 3 -0.012400 0.000682 0.049287 0.000000 -0.056966 0.000000
# 4 0.000000 0.000000 0.000000 -0.066675 0.000000 -0.029117
# 5 0.014133 -0.002967 -0.056966 0.000000 0.100630 0.000000
# 6 0.000000 0.000000 0.000000 -0.029117 0.000000 0.035405
#
#
# Mechanical properties :
#
#
# Convention : Reuss Voigt Hill
#
# Bulk Modulus (GPa) = 19.44591 38.07496 28.76044
# Shear Modulus (GPa) = 26.66697 22.17194 24.41945
#
# Velocity S-wave (km/s) = 3.42629 3.12420 3.27873
# Velocity P-wave (km/s) = 4.92069 5.45672 5.19562
#
# Compressibility (1/GPa) = 0.05142469
#
# Stress axis : x y z
#
# Youngs Moduli (GPa) = 91.05459 62.73217 20.28921
#
# Poissons Ratio (x) = 0.04235 0.25159
# Poissons Ratio (y) = 0.06147 -0.01385
# Poissons Ratio (z) = 1.12911 -0.04281
#
# Static dielectric constant tensor:
#      x y z
#    x 1.870010 0.000000 0.122600 
#    y 0.000000 1.877720 0.000000 
#    z 0.122600 0.000000 2.025490 
# 
# From -- ./inp_files/151689.got.cif
#   From: 2010.05.17/outbox.cif.g08.bks.cpg/sg15_76_cif.got.tgz:151689.got - 2010.06.03 18:47:42.
