data_PCOD9278045
_publ_section_title
;
Structure prediction by ZEFSAII (Michael W. Deem and Ramdas Pophale) SiO2 
 PCOD9278045
Probable space group: C 2/C
;
_chemical_formula_sum "Si O2"
_cell_formula_units_Z 44
_cell_length_a 8.048899
_cell_length_b 20.399576
_cell_length_c 14.078444
_cell_angle_alpha 90.000000
_cell_angle_beta 120.431008
_cell_angle_gamma 90.000000
_cell_volume 1993.151369
_symmetry_space_group_name_H-M "C 2/C"
_symmetry_group_IT_number 15
_symmetry_cell_setting 'monoclinic'
loop_
_space_group_symop_operation_xyz
x,y,z
-x,y,1/2-z
-x,-y,-z
x,-y,1/2+z
1/2+x,1/2+y,z
1/2-x,1/2+y,1/2-z
1/2-x,1/2-y,-z
1/2+x,1/2-y,1/2+z
loop_
_atom_site_type_symbol
_atom_site_label
_atom_site_fract_x
_atom_site_fract_y
_atom_site_fract_z
Si Si1 0.500000 0.369631 0.250000
Si Si2 0.159435 0.591606 0.029375
Si Si3 0.985280 0.817219 0.861781
Si Si4 0.960367 0.012108 0.599510
Si Si5 0.811613 0.580388 0.247732
Si Si6 0.913906 0.327617 0.330648
O O1 0.537548 0.417161 0.351718
O O2 0.684555 0.327972 0.272887
O O3 0.334707 0.640483 0.050607
O O4 0.250621 0.519969 0.050647
O O5 0.121089 0.602083 0.128740
O O6 0.987851 0.610650 0.911904
O O7 0.790541 0.856580 0.830098
O O8 0.986003 0.742091 0.892236
O O9 0.000000 0.818413 0.750000
O O10 0.134950 0.971394 0.700623
O O11 0.000000 0.000000 0.500000
O O12 0.000000 0.554607 0.250000
O O13 0.000000 0.333542 0.250000
#
# Coordination Sequence:
#
# PCOD9278045 Si02
#       6
#     4   8   8   8   8   8
#     4  12  26  42  60  98 134 160 216 266 316 382
#     4  10  20  42  65  88 120 171 211 258 314 373
#     4   8  18  39  65  90 126 159 208 261 313 380
#     4  11  23  42  62  86 127 164 213 265 309 379
#     4  10  21  38  65  94 120 163 214 260 314 374
#     4  11  24  41  64  94 131 171 206 260 330 372
#
# _framework density 22.075592
#
# number of rings (size 3 to 8) (size 9 to 14) (size 15 to 20)
#    0.000    1.818    1.818    2.727    3.818    2.909 
#    0.000    0.909    0.000    0.000    0.000    0.000 
#    0.000    0.000    0.000    0.000    0.000    0.000 
#
# Total GULP energy -122870.693183 kJ/mol
# GULP energy per Si atom -5585.031508 kJ/mol
# Density = 2.202535 g / cm^3
# Si number density = 22.075592 Si / 1000 Ang^3
#
#
#
# Elastic Constant Matrix: (Units=GPa)
#
#
# Indices 1 2 3 4 5 6 
#
# 1 102.1408 -3.2327 9.6969 0.0000 9.3687 0.0000
# 2 -3.2327 41.6729 -15.6682 0.0000 0.5861 0.0000
# 3 9.6969 -15.6682 39.8448 0.0000 -5.8322 0.0000
# 4 0.0000 0.0000 0.0000 12.3710 0.0000 -3.3535
# 5 9.3687 0.5861 -5.8322 0.0000 28.3030 0.0000
# 6 0.0000 0.0000 0.0000 -3.3535 0.0000 10.6234
#
#
#
# Elastic Compliance Matrix: (Units=1/GPa)
#
#
# Indices 1 2 3 4 5 6 
#
# 1 0.010472 -0.000370 -0.003300 0.000000 -0.004139 0.000000
# 2 -0.000370 0.028257 0.011480 0.000000 0.001903 0.000000
# 3 -0.003300 0.011480 0.031490 0.000000 0.007343 0.000000
# 4 0.000000 0.000000 0.000000 0.088399 0.000000 0.027905
# 5 -0.004139 0.001903 0.007343 0.000000 0.038176 0.000000
# 6 0.000000 0.000000 0.000000 0.027905 0.000000 0.102941
#
#
# Mechanical properties :
#
#
# Convention : Reuss Voigt Hill
#
# Bulk Modulus (GPa) = 11.64964 18.36114 15.00539
# Shear Modulus (GPa) = 15.98845 23.11698 19.55271
#
# Velocity S-wave (km/s) = 2.69413 3.23952 2.97933
# Velocity P-wave (km/s) = 3.86864 4.72526 4.31824
#
# Compressibility (1/GPa) = 0.08583958
#
# Stress axis : x y z
#
# Youngs Moduli (GPa) = 95.49677 35.38903 31.75637
#
# Poissons Ratio (x) = 0.01310 0.10479
# Poissons Ratio (y) = 0.03535 -0.36457
# Poissons Ratio (z) = 0.31511 -0.40628
#
# Static dielectric constant tensor:
#      x y z
#    x 2.239730 0.000000 0.118000 
#    y 0.000000 1.817590 0.000000 
#    z 0.118000 0.000000 1.855570 
# 
# From -- ./inp_files/137585.got.cif
#   From: 2010.05.17/outbox.cif.g08.bks.cpg/sg15_69_cif.got.tgz:137585.got - 2010.06.03 18:47:42.
