data_PCOD9278742
_publ_section_title
;
Structure prediction by ZEFSAII (Michael W. Deem and Ramdas Pophale) SiO2 
 PCOD9278742
Probable space group: C 2/C
;
_chemical_formula_sum "Si O2"
_cell_formula_units_Z 40
_cell_length_a 17.268878
_cell_length_b 7.883777
_cell_length_c 15.672172
_cell_angle_alpha 90.000000
_cell_angle_beta 134.901702
_cell_angle_gamma 90.000000
_cell_volume 1511.320082
_symmetry_space_group_name_H-M "C 2/C"
_symmetry_group_IT_number 15
_symmetry_cell_setting 'monoclinic'
loop_
_space_group_symop_operation_xyz
x,y,z
-x,y,1/2-z
-x,-y,-z
x,-y,1/2+z
1/2+x,1/2+y,z
1/2-x,1/2+y,1/2-z
1/2-x,1/2-y,-z
1/2+x,1/2-y,1/2+z
loop_
_atom_site_type_symbol
_atom_site_label
_atom_site_fract_x
_atom_site_fract_y
_atom_site_fract_z
Si Si1 0.511849 0.204771 0.657316
Si Si2 0.442623 0.852429 0.860237
Si Si3 0.891424 0.957188 0.999861
Si Si4 0.372000 0.644953 0.661160
Si Si5 0.215937 0.902001 0.763882
O O1 0.500000 0.194653 0.750000
O O2 0.489835 0.024607 0.596093
O O3 0.694820 0.537140 0.822042
O O4 0.637823 0.247464 0.731106
O O5 0.393481 0.819809 0.726719
O O6 0.340763 0.863808 0.843490
O O7 0.826416 0.883685 0.031400
O O8 0.000000 0.918571 0.250000
O O9 0.983962 0.810830 0.061459
O O10 0.829767 0.963491 0.863011
O O11 0.559543 0.361421 0.934183
#
# Coordination Sequence:
#
# PCOD9278742 Si02
#       5
#     8   8   8   8   8
#     4  12  22  43  69  92 138 183 219 280 336 396
#     4  11  25  42  68 103 135 173 234 283 319 407
#     4  11  24  47  71  93 142 188 214 274 359 393
#     4  10  20  45  67  92 142 179 215 281 343 392
#     4  12  23  44  72  99 136 179 228 279 337 400
#
# _framework density 26.466926999999998
#
# number of rings (size 3 to 8) (size 9 to 14) (size 15 to 20)
#    0.000    0.800    6.000    3.600    0.000    1.600 
#    0.000    3.000    0.000    1.200    0.000    0.000 
#    0.000    0.000    0.000    0.000    0.000    0.000 
#
# Total GULP energy -112100.826101 kJ/mol
# GULP energy per Si atom -5605.041305 kJ/mol
# Density = 2.640669 g / cm^3
# Si number density = 26.466927 Si / 1000 Ang^3
#
#
#
# Elastic Constant Matrix: (Units=GPa)
#
#
# Indices 1 2 3 4 5 6 
#
# 1 197.6823 59.1313 89.9176 0.0000 -46.2945 0.0000
# 2 59.1313 147.9618 44.5341 0.0000 1.5128 0.0000
# 3 89.9176 44.5341 151.5251 0.0000 -29.1092 0.0000
# 4 0.0000 0.0000 0.0000 13.6949 0.0000 -9.5044
# 5 -46.2945 1.5128 -29.1092 0.0000 39.7396 0.0000
# 6 0.0000 0.0000 0.0000 -9.5044 0.0000 46.7377
#
#
#
# Elastic Compliance Matrix: (Units=1/GPa)
#
#
# Indices 1 2 3 4 5 6 
#
# 1 0.009367 -0.002930 -0.003002 0.000000 0.008825 0.000000
# 2 -0.002930 0.008498 -0.001718 0.000000 -0.004996 0.000000
# 3 -0.003002 -0.001718 0.009574 0.000000 0.003581 0.000000
# 4 0.000000 0.000000 0.000000 0.085019 0.000000 0.017289
# 5 0.008825 -0.004996 0.003581 0.000000 0.038258 0.000000
# 6 0.000000 0.000000 0.000000 0.017289 0.000000 0.024912
#
#
# Mechanical properties :
#
#
# Convention : Reuss Voigt Hill
#
# Bulk Modulus (GPa) = 82.38863 98.25947 90.32405
# Shear Modulus (GPa) = 25.64431 40.27352 32.95892
#
# Velocity S-wave (km/s) = 3.11612 3.90507 3.53269
# Velocity P-wave (km/s) = 6.64405 7.58543 7.13029
#
# Compressibility (1/GPa) = 0.01213760
#
# Stress axis : x y z
#
# Youngs Moduli (GPa) = 106.75358 117.67714 104.44787
#
# Poissons Ratio (x) = 0.34481 0.31358
# Poissons Ratio (y) = 0.31281 0.17949
# Poissons Ratio (z) = 0.32050 0.20223
#
# Static dielectric constant tensor:
#      x y z
#    x 2.070520 0.000000 0.018090 
#    y 0.000000 2.108990 0.000000 
#    z 0.018090 0.000000 2.187310 
# 
# From -- ./inp_files/160564.got.cif
#   From: 2010.05.17/outbox.cif.g08.bks.cpg/sg15_81_cif.got.tgz:160564.got - 2010.06.03 18:47:42.
