data_PCOD9278458
_publ_section_title
;
Structure prediction by ZEFSAII (Michael W. Deem and Ramdas Pophale) SiO2 
 PCOD9278458
Probable space group: C 2/C
;
_chemical_formula_sum "Si O2"
_cell_formula_units_Z 52
_cell_length_a 8.226038
_cell_length_b 20.501999
_cell_length_c 17.703680
_cell_angle_alpha 90.000000
_cell_angle_beta 51.275193
_cell_angle_gamma 90.000000
_cell_volume 2329.345673
_symmetry_space_group_name_H-M "C 2/C"
_symmetry_group_IT_number 15
_symmetry_cell_setting 'monoclinic'
loop_
_space_group_symop_operation_xyz
x,y,z
-x,y,1/2-z
-x,-y,-z
x,-y,1/2+z
1/2+x,1/2+y,z
1/2-x,1/2+y,1/2-z
1/2-x,1/2-y,-z
1/2+x,1/2-y,1/2+z
loop_
_atom_site_type_symbol
_atom_site_label
_atom_site_fract_x
_atom_site_fract_y
_atom_site_fract_z
Si Si1 0.878995 0.581891 0.007163
Si Si2 0.202850 0.489890 0.594639
Si Si3 0.353994 0.116345 0.187198
Si Si4 0.461062 0.617811 0.088599
Si Si5 0.266833 0.640878 0.816010
Si Si6 0.817933 0.728300 0.397378
Si Si7 0.500000 0.102398 0.750000
O O1 0.829994 0.595068 0.107959
O O2 0.705982 0.628124 0.018780
O O3 0.825550 0.512223 0.984463
O O4 0.108588 0.601884 0.915888
O O5 0.402851 0.448627 0.561644
O O6 0.151359 0.553864 0.658813
O O7 0.020233 0.437709 0.665028
O O8 0.148395 0.113262 0.297577
O O9 0.465101 0.187319 0.163261
O O10 0.350135 0.675990 0.079293
O O11 0.500000 0.610804 0.750000
O O12 0.301225 0.711130 0.845258
O O13 0.148132 0.639630 0.768574
O O14 0.750000 0.750000 0.500000
#
# Coordination Sequence:
#
# PCOD9278458 Si02
#       7
#     8   8   8   8   8   8   4
#     4  11  24  41  66 107 132 180 239 284 361 429
#     4  10  20  43  65  99 140 179 229 290 356 422
#     4  11  21  44  68  98 140 188 229 289 357 426
#     4  11  23  42  69  99 143 186 229 298 358 420
#     4  11  25  48  70 101 139 188 235 298 360 417
#     4  11  23  45  71  98 138 188 242 289 357 422
#     4  10  22  46  72 102 142 180 238 290 364 422
#
# _framework density 22.323865000000001
#
# number of rings (size 3 to 8) (size 9 to 14) (size 15 to 20)
#    0.000    1.231    3.077    3.692    0.000    3.077 
#   13.846    0.000    0.000    0.000    0.000    0.000 
#    0.000    0.000    0.000    0.000    0.000    0.000 
#
# Total GULP energy -145152.555124 kJ/mol
# GULP energy per Si atom -5582.790582 kJ/mol
# Density = 2.227306 g / cm^3
# Si number density = 22.323865 Si / 1000 Ang^3
#
#
#
# Elastic Constant Matrix: (Units=GPa)
#
#
# Indices 1 2 3 4 5 6 
#
# 1 122.3504 43.8677 66.1802 0.0000 8.0528 0.0000
# 2 43.8677 88.9604 54.7062 0.0000 15.6780 0.0000
# 3 66.1802 54.7062 108.4708 0.0000 16.5680 0.0000
# 4 0.0000 0.0000 0.0000 33.0262 0.0000 6.2957
# 5 8.0528 15.6780 16.5680 0.0000 54.3246 0.0000
# 6 0.0000 0.0000 0.0000 6.2957 0.0000 24.7153
#
#
#
# Elastic Compliance Matrix: (Units=1/GPa)
#
#
# Indices 1 2 3 4 5 6 
#
# 1 0.012506 -0.002235 -0.006627 0.000000 0.000812 0.000000
# 2 -0.002235 0.016973 -0.006817 0.000000 -0.002488 0.000000
# 3 -0.006627 -0.006817 0.017044 0.000000 -0.002248 0.000000
# 4 0.000000 0.000000 0.000000 0.031824 0.000000 -0.008107
# 5 0.000812 -0.002488 -0.002248 0.000000 0.019691 0.000000
# 6 0.000000 0.000000 0.000000 -0.008107 0.000000 0.042526
#
#
# Mechanical properties :
#
#
# Convention : Reuss Voigt Hill
#
# Bulk Modulus (GPa) = 65.93794 72.14333 69.04063
# Shear Modulus (GPa) = 28.25233 32.74837 30.50035
#
# Velocity S-wave (km/s) = 3.56134 3.83426 3.70031
# Velocity P-wave (km/s) = 6.81997 7.21033 7.01786
#
# Compressibility (1/GPa) = 0.01516578
#
# Stress axis : x y z
#
# Youngs Moduli (GPa) = 79.96447 58.91546 58.67237
#
# Poissons Ratio (x) = 0.13165 0.38882
# Poissons Ratio (y) = 0.17869 0.39997
# Poissons Ratio (z) = 0.52992 0.40163
#
# Static dielectric constant tensor:
#      x y z
#    x 1.915950 0.000000 0.013010 
#    y 0.000000 1.823590 0.000000 
#    z 0.013010 0.000000 1.861700 
# 
# From -- ./inp_files/192483.got.cif
#   From: 2010.05.17/outbox.cif.g08.bks.cpg/sg15_97_cif.got.tgz:192483.got - 2010.06.03 18:47:42.
