data_PCOD9278182
_publ_section_title
;
Structure prediction by ZEFSAII (Michael W. Deem and Ramdas Pophale) SiO2 
 PCOD9278182
Probable space group: C 2/C
;
_chemical_formula_sum "Si O2"
_cell_formula_units_Z 40
_cell_length_a 7.810247
_cell_length_b 25.388652
_cell_length_c 8.741687
_cell_angle_alpha 90.000000
_cell_angle_beta 94.659481
_cell_angle_gamma 90.000000
_cell_volume 1727.674725
_symmetry_space_group_name_H-M "C 2/C"
_symmetry_group_IT_number 15
_symmetry_cell_setting 'monoclinic'
loop_
_space_group_symop_operation_xyz
x,y,z
-x,y,1/2-z
-x,-y,-z
x,-y,1/2+z
1/2+x,1/2+y,z
1/2-x,1/2+y,1/2-z
1/2-x,1/2-y,-z
1/2+x,1/2-y,1/2+z
loop_
_atom_site_type_symbol
_atom_site_label
_atom_site_fract_x
_atom_site_fract_y
_atom_site_fract_z
Si Si1 0.129672 0.524353 0.889799
Si Si2 0.040364 0.163757 0.932238
Si Si3 0.550322 0.764258 0.435501
Si Si4 0.688724 0.867908 0.551458
Si Si5 0.174376 0.081628 0.160564
O O1 0.261860 0.477989 0.858689
O O2 0.000000 0.540434 0.750000
O O3 0.202031 0.577630 0.961010
O O4 0.000000 0.500000 0.000000
O O5 0.000000 0.159221 0.750000
O O6 0.154554 0.115587 0.003834
O O7 0.073721 0.224869 0.978070
O O8 0.872893 0.156381 0.025454
O O9 0.500000 0.760187 0.250000
O O10 0.750000 0.750000 0.500000
O O11 0.547356 0.825900 0.485954
O O12 0.691129 0.885489 0.727036
O O13 0.000000 0.079128 0.250000
#
# Coordination Sequence:
#
# PCOD9278182 Si02
#       5
#     8   8   8   8   8
#     4  12  25  43  64  98 136 176 224 278 346 412
#     4  10  22  39  66  99 127 168 231 283 335 410
#     4  10  20  42  67  92 130 177 225 282 348 409
#     4  10  22  42  66  90 132 182 218 276 349 407
#     4  10  23  45  68  95 137 181 227 281 341 418
#
# _framework density 23.152505999999999
#
# number of rings (size 3 to 8) (size 9 to 14) (size 15 to 20)
#    0.000    1.600    2.000    3.600    2.800    4.000 
#    3.600    5.000    0.000    0.000    0.000    0.000 
#    0.000    0.000    0.000    0.000    0.000    0.000 
#
# Total GULP energy -111433.888498 kJ/mol
# GULP energy per Si atom -5571.694425 kJ/mol
# Density = 2.309981 g / cm^3
# Si number density = 23.152506 Si / 1000 Ang^3
#
#
#
# Elastic Constant Matrix: (Units=GPa)
#
#
# Indices 1 2 3 4 5 6 
#
# 1 65.0827 25.6651 0.7386 0.0000 6.8750 0.0000
# 2 25.6651 167.1338 52.5782 0.0000 21.0148 0.0000
# 3 0.7386 52.5782 149.9143 0.0000 40.2302 0.0000
# 4 0.0000 0.0000 0.0000 34.5594 0.0000 -5.3631
# 5 6.8750 21.0148 40.2302 0.0000 27.9720 0.0000
# 6 0.0000 0.0000 0.0000 -5.3631 0.0000 -9.8273
#
#
#
# Elastic Compliance Matrix: (Units=1/GPa)
#
#
# Indices 1 2 3 4 5 6 
#
# 1 0.016965 -0.002642 0.002328 0.000000 -0.005533 0.000000
# 2 -0.002642 0.007265 -0.002027 0.000000 -0.001894 0.000000
# 3 0.002328 -0.002027 0.011587 0.000000 -0.015714 0.000000
# 4 0.000000 0.000000 0.000000 0.026676 0.000000 -0.014558
# 5 -0.005533 -0.001894 -0.015714 0.000000 0.061133 0.000000
# 6 0.000000 0.000000 0.000000 -0.014558 0.000000 -0.093812
#
#
# Mechanical properties :
#
#
# Convention : Reuss Voigt Hill
#
# Bulk Modulus (GPa) = 32.11858 60.01052 46.06455
# Shear Modulus (GPa) = 111.42625 30.75073 71.08849
#
# Velocity S-wave (km/s) = 6.94489 3.64838 5.54717
# Velocity P-wave (km/s) = 8.84373 6.61237 7.80817
#
# Compressibility (1/GPa) = 0.03113463
#
# Stress axis : x y z
#
# Youngs Moduli (GPa) = 58.94546 137.65468 86.30591
#
# Poissons Ratio (x) = 0.36364 -0.20089
# Poissons Ratio (y) = 0.15572 0.17491
# Poissons Ratio (z) = -0.13720 0.27898
#
# Static dielectric constant tensor:
#      x y z
#    x 1.918360 0.000000 0.031850 
#    y 0.000000 2.080830 0.000000 
#    z 0.031850 0.000000 1.849330 
# 
# From -- ./inp_files/23723.got.cif
#   From: 2010.05.17/outbox.cif.g08.bks.cpg/sg15_12_cif.got.tgz:23723.got - 2010.06.03 18:47:42.
