data_PCOD9278179
_publ_section_title
;
Structure prediction by ZEFSAII (Michael W. Deem and Ramdas Pophale) SiO2 
 PCOD9278179
Probable space group: C 2/C
;
_chemical_formula_sum "Si O2"
_cell_formula_units_Z 36
_cell_length_a 8.450049
_cell_length_b 14.306615
_cell_length_c 16.774130
_cell_angle_alpha 90.000000
_cell_angle_beta 51.608075
_cell_angle_gamma 90.000000
_cell_volume 1589.391362
_symmetry_space_group_name_H-M "C 2/C"
_symmetry_group_IT_number 15
_symmetry_cell_setting 'monoclinic'
loop_
_space_group_symop_operation_xyz
x,y,z
-x,y,1/2-z
-x,-y,-z
x,-y,1/2+z
1/2+x,1/2+y,z
1/2-x,1/2+y,1/2-z
1/2-x,1/2-y,-z
1/2+x,1/2-y,1/2+z
loop_
_atom_site_type_symbol
_atom_site_label
_atom_site_fract_x
_atom_site_fract_y
_atom_site_fract_z
Si Si1 0.156961 0.578837 0.475059
Si Si2 0.272787 0.134003 0.301565
Si Si3 0.000000 0.106200 0.250000
Si Si4 0.454735 0.729477 0.983560
Si Si5 0.815366 0.055359 0.598277
O O1 0.365658 0.557854 0.361667
O O2 0.179222 0.578409 0.563681
O O3 0.000000 0.500000 0.500000
O O4 0.072663 0.678163 0.472224
O O5 0.500000 0.166041 0.250000
O O6 0.123922 0.180223 0.411516
O O7 0.173661 0.156201 0.247674
O O8 0.274101 0.020907 0.313404
O O9 0.250000 0.750000 0.000000
O O10 0.596209 0.652351 0.896558
O O11 0.000000 0.000000 0.500000
#
# Coordination Sequence:
#
# PCOD9278179 Si02
#       5
#     8   8   4   8   8
#     4  12  24  44  71  99 136 189 229 286 354 411
#     4  11  24  46  69 105 139 184 234 293 344 421
#     4  12  24  42  74  96 144 172 242 284 352 406
#     4  11  23  42  70  95 137 181 231 285 348 412
#     4  10  20  42  67  91 136 176 223 276 343 409
#
# _framework density 22.650179000000001
#
# number of rings (size 3 to 8) (size 9 to 14) (size 15 to 20)
#    0.000    0.889    4.444    6.000    0.000    0.000 
#    4.000    4.444    0.000    0.000    0.000    0.000 
#    0.000    0.000    0.000    0.000    0.000    0.000 
#
# Total GULP energy -100473.075790 kJ/mol
# GULP energy per Si atom -5581.837544 kJ/mol
# Density = 2.259863 g / cm^3
# Si number density = 22.650179 Si / 1000 Ang^3
#
#
#
# Elastic Constant Matrix: (Units=GPa)
#
#
# Indices 1 2 3 4 5 6 
#
# 1 164.3817 33.8612 16.6769 0.0001 10.5183 -0.0002
# 2 33.8612 139.3795 19.9383 0.0000 -9.9096 -0.0001
# 3 16.6769 19.9383 69.3514 -0.0001 -4.8975 0.0000
# 4 0.0001 0.0000 -0.0001 24.9682 0.0000 -13.7019
# 5 10.5183 -9.9096 -4.8975 0.0000 43.5314 0.0000
# 6 -0.0002 -0.0001 0.0000 -13.7019 0.0000 26.4885
#
#
#
# Elastic Compliance Matrix: (Units=1/GPa)
#
#
# Indices 1 2 3 4 5 6 
#
# 1 0.006678 -0.001587 -0.001299 0.000000 -0.002121 0.000000
# 2 -0.001587 0.007955 -0.001764 0.000000 0.001996 0.000000
# 3 -0.001299 -0.001764 0.015355 0.000000 0.001640 0.000000
# 4 0.000000 0.000000 0.000000 0.055927 0.000000 0.028930
# 5 -0.002121 0.001996 0.001640 0.000000 0.024123 0.000000
# 6 0.000000 0.000000 0.000000 0.028930 0.000000 0.052717
#
#
# Mechanical properties :
#
#
# Convention : Reuss Voigt Hill
#
# Bulk Modulus (GPa) = 48.34289 57.11838 52.73063
# Shear Modulus (GPa) = 27.94060 39.17337 33.55698
#
# Velocity S-wave (km/s) = 3.51603 4.16323 3.85324
# Velocity P-wave (km/s) = 6.15410 6.95574 6.56716
#
# Compressibility (1/GPa) = 0.02068557
#
# Stress axis : x y z
#
# Youngs Moduli (GPa) = 149.74753 125.71407 65.12630
#
# Poissons Ratio (x) = 0.19954 0.08462
# Poissons Ratio (y) = 0.23769 0.11490
# Poissons Ratio (z) = 0.19456 0.22179
#
# Static dielectric constant tensor:
#      x y z
#    x 1.894600 0.000000 0.003270 
#    y 0.000000 1.842860 0.000000 
#    z 0.003270 0.000000 1.895050 
# 
# From -- ./inp_files/132692.got.cif
#   From: 2010.05.17/outbox.cif.g08.bks.cpg/sg15_67_cif.got.tgz:132692.got - 2010.06.03 18:47:42.
