data_PCOD9278841
_publ_section_title
;
Structure prediction by ZEFSAII (Michael W. Deem and Ramdas Pophale) SiO2 
 PCOD9278841
Probable space group: C 2/C
;
_chemical_formula_sum "Si O2"
_cell_formula_units_Z 52
_cell_length_a 19.108503
_cell_length_b 23.836092
_cell_length_c 8.977944
_cell_angle_alpha 90.000000
_cell_angle_beta 41.400741
_cell_angle_gamma 90.000000
_cell_volume 2704.277755
_symmetry_space_group_name_H-M "C 2/C"
_symmetry_group_IT_number 15
_symmetry_cell_setting 'monoclinic'
loop_
_space_group_symop_operation_xyz
x,y,z
-x,y,1/2-z
-x,-y,-z
x,-y,1/2+z
1/2+x,1/2+y,z
1/2-x,1/2+y,1/2-z
1/2-x,1/2-y,-z
1/2+x,1/2-y,1/2+z
loop_
_atom_site_type_symbol
_atom_site_label
_atom_site_fract_x
_atom_site_fract_y
_atom_site_fract_z
Si Si1 0.558633 0.430429 0.861161
Si Si2 0.173267 0.008826 0.449867
Si Si3 0.619544 0.776185 0.093536
Si Si4 0.659618 0.321960 0.748424
Si Si5 0.170693 0.210284 0.714559
Si Si6 0.500000 0.691262 0.750000
Si Si7 0.194506 0.919937 0.188641
O O1 0.592762 0.474634 0.682977
O O2 0.614195 0.453831 0.921233
O O3 0.609853 0.371558 0.730558
O O4 0.434585 0.423089 0.088966
O O5 0.228067 0.050550 0.480206
O O6 0.234230 0.960317 0.259219
O O7 0.500000 0.795493 0.250000
O O8 0.629927 0.738412 0.225961
O O9 0.713333 0.822081 0.946192
O O10 0.650702 0.734274 0.909872
O O11 0.601485 0.333346 0.999103
O O12 0.250000 0.250000 0.500000
O O13 0.062869 0.215130 0.791133
O O14 0.213538 0.146532 0.657977
#
# Coordination Sequence:
#
# PCOD9278841 Si02
#       7
#     8   8   8   8   8   4   8
#     4  11  18  32  48  76 109 146 179 224 279 337
#     4  10  21  30  49  78 110 149 182 222 281 348
#     4  11  22  39  53  82 111 152 193 236 279 341
#     4  11  23  34  59  79 114 152 190 229 288 337
#     4  12  24  36  57  82 117 158 193 229 287 344
#     4  12  20  38  54  84 112 152 188 234 280 342
#     4  11  19  32  50  73 114 145 185 225 278 344
#
# _framework density 19.228793
#
# number of rings (size 3 to 8) (size 9 to 14) (size 15 to 20)
#    0.000    0.923    4.615    5.538    0.000    0.000 
#    0.000    0.000    0.000    0.000    0.000    1.077 
#    9.231    0.154    0.000    0.000    0.000    0.000 
#
# Total GULP energy -144841.275218 kJ/mol
# GULP energy per Si atom -5570.818278 kJ/mol
# Density = 1.918503 g / cm^3
# Si number density = 19.228793 Si / 1000 Ang^3
#
#
#
# Elastic Constant Matrix: (Units=GPa)
#
#
# Indices 1 2 3 4 5 6 
#
# 1 44.7192 1.2262 18.5773 0.0000 2.7074 0.0000
# 2 1.2262 87.5361 31.0675 0.0000 -0.7224 0.0000
# 3 18.5773 31.0675 83.6163 0.0000 5.4008 0.0000
# 4 0.0000 0.0000 0.0000 19.4369 0.0000 -0.1778
# 5 2.7074 -0.7224 5.4008 0.0000 41.5645 0.0000
# 6 0.0000 0.0000 0.0000 -0.1778 0.0000 17.4828
#
#
#
# Elastic Compliance Matrix: (Units=1/GPa)
#
#
# Indices 1 2 3 4 5 6 
#
# 1 0.024921 0.001833 -0.006167 0.000000 -0.000790 0.000000
# 2 0.001833 0.013325 -0.005411 0.000000 0.000815 0.000000
# 3 -0.006167 -0.005411 0.015450 0.000000 -0.001700 0.000000
# 4 0.000000 0.000000 0.000000 0.051453 0.000000 0.000523
# 5 -0.000790 0.000815 -0.001700 0.000000 0.024345 0.000000
# 6 0.000000 0.000000 0.000000 0.000523 0.000000 0.057204
#
#
# Mechanical properties :
#
#
# Convention : Reuss Voigt Hill
#
# Bulk Modulus (GPa) = 29.23397 35.29040 32.26219
# Shear Modulus (GPa) = 22.97889 26.69689 24.83789
#
# Velocity S-wave (km/s) = 3.46066 3.73014 3.59793
# Velocity P-wave (km/s) = 5.58610 6.07821 5.83734
#
# Compressibility (1/GPa) = 0.03420678
#
# Stress axis : x y z
#
# Youngs Moduli (GPa) = 40.12654 75.04521 64.72610
#
# Poissons Ratio (x) = -0.13756 0.39916
# Poissons Ratio (y) = -0.07355 0.35023
# Poissons Ratio (z) = 0.24745 0.40606
#
# Static dielectric constant tensor:
#      x y z
#    x 1.835140 0.000000 0.052730 
#    y 0.000000 1.736790 0.000000 
#    z 0.052730 0.000000 1.704140 
# 
# From -- ./inp_files/41772.got.cif
#   From: 2010.05.17/outbox.cif.g08.bks.cpg/sg15_21_cif.got.tgz:41772.got - 2010.06.03 18:47:42.
