data_PCOD9278597
_publ_section_title
;
Structure prediction by ZEFSAII (Michael W. Deem and Ramdas Pophale) SiO2 
 PCOD9278597
Probable space group: C 2/C
;
_chemical_formula_sum "Si O2"
_cell_formula_units_Z 60
_cell_length_a 25.552907
_cell_length_b 18.988442
_cell_length_c 10.575173
_cell_angle_alpha 90.000000
_cell_angle_beta 146.556412
_cell_angle_gamma 90.000000
_cell_volume 2827.873034
_symmetry_space_group_name_H-M "C 2/C"
_symmetry_group_IT_number 15
_symmetry_cell_setting 'monoclinic'
loop_
_space_group_symop_operation_xyz
x,y,z
-x,y,1/2-z
-x,-y,-z
x,-y,1/2+z
1/2+x,1/2+y,z
1/2-x,1/2+y,1/2-z
1/2-x,1/2-y,-z
1/2+x,1/2-y,1/2+z
loop_
_atom_site_type_symbol
_atom_site_label
_atom_site_fract_x
_atom_site_fract_y
_atom_site_fract_z
Si Si1 0.703104 0.759564 0.711132
Si Si2 0.930459 0.576573 0.723881
Si Si3 0.888210 0.947413 0.165361
Si Si4 0.466633 0.909351 0.819926
Si Si5 0.500000 0.717159 0.250000
Si Si6 0.241128 0.364794 0.018999
Si Si7 0.432327 0.602993 0.315068
Si Si8 0.715656 0.627817 0.275368
O O1 0.591436 0.763758 0.464405
O O2 0.735391 0.810791 0.889911
O O3 0.764176 0.790859 0.720137
O O4 0.717497 0.679109 0.780767
O O5 0.950649 0.493220 0.776665
O O6 0.819865 0.592163 0.477496
O O7 0.000000 0.598189 0.750000
O O8 0.960870 0.607783 0.920860
O O9 0.983643 0.913568 0.415161
O O10 0.909425 0.030206 0.195432
O O11 0.805885 0.929567 0.103251
O O12 0.851138 0.911388 0.962555
O O13 0.500000 0.883110 0.750000
O O14 0.364830 0.882611 0.657620
O O15 0.469320 0.665544 0.301967
O O16 0.337249 0.622062 0.198997
#
# Coordination Sequence:
#
# PCOD9278597 Si02
#       8
#     8   8   8   8   4   8   8   8
#     4  10  24  41  64  88 126 180 223 255 321 396
#     4  10  21  39  64  97 130 166 209 266 337 390
#     4  10  22  42  69  97 131 168 215 278 344 387
#     4  10  22  38  62  97 129 161 213 273 326 388
#     4  12  26  44  64  94 138 178 208 278 328 400
#     4  10  20  44  64  91 126 177 217 263 328 395
#     4  11  25  41  67 100 129 168 220 278 333 392
#     4  11  24  41  67  96 128 175 220 270 317 399
#
# _framework density 21.217361
#
# number of rings (size 3 to 8) (size 9 to 14) (size 15 to 20)
#    0.000    1.600    1.333    2.800    6.533    4.800 
#    2.400    0.000    0.000    0.000    0.000    0.000 
#    0.000    0.000    0.000    0.000    0.000    0.000 
#
# Total GULP energy -167588.559304 kJ/mol
# GULP energy per Si atom -5586.285310 kJ/mol
# Density = 2.116907 g / cm^3
# Si number density = 21.217361 Si / 1000 Ang^3
#
#
#
# Elastic Constant Matrix: (Units=GPa)
#
#
# Indices 1 2 3 4 5 6 
#
# 1 85.7794 -1.1591 -9.3116 0.0000 9.0755 0.0000
# 2 -1.1591 35.7473 -2.8379 0.0000 -0.6475 0.0000
# 3 -9.3116 -2.8379 74.6299 0.0000 3.5147 0.0000
# 4 0.0000 0.0000 0.0000 25.8722 0.0000 19.5758
# 5 9.0755 -0.6475 3.5147 0.0000 29.5957 0.0000
# 6 0.0000 0.0000 0.0000 19.5758 0.0000 4.3942
#
#
#
# Elastic Compliance Matrix: (Units=1/GPa)
#
#
# Indices 1 2 3 4 5 6 
#
# 1 0.012271 0.000464 0.001735 0.000000 -0.003959 0.000000
# 2 0.000464 0.028083 0.001110 0.000000 0.000340 0.000000
# 3 0.001735 0.001110 0.013759 0.000000 -0.002142 0.000000
# 4 0.000000 0.000000 0.000000 -0.016304 0.000000 0.072631
# 5 -0.003959 0.000340 -0.002142 0.000000 0.035265 0.000000
# 6 0.000000 0.000000 0.000000 0.072631 0.000000 -0.095993
#
#
# Mechanical properties :
#
#
# Convention : Reuss Voigt Hill
#
# Bulk Modulus (GPa) = 16.46592 18.83773 17.65183
# Shear Modulus (GPa) = -538.10118 25.93675 -256.08221
#
# Velocity S-wave (km/s) = -15.94253 3.50012 -10.99803
# Velocity P-wave (km/s) = 18.19638 5.02316 12.36681
#
# Compressibility (1/GPa) = 0.06073150
#
# Stress axis : x y z
#
# Youngs Moduli (GPa) = 81.49106 35.60813 72.67963
#
# Poissons Ratio (x) = -0.01652 -0.12611
# Poissons Ratio (y) = -0.03781 -0.08066
# Poissons Ratio (z) = -0.14140 -0.03952
#
# Static dielectric constant tensor:
#      x y z
#    x 1.837010 0.000000 -0.143740 
#    y 0.000000 1.779730 0.000000 
#    z -0.143740 0.000000 1.918740 
# 
# From -- ./inp_files/124018.got.cif
#   From: 2010.05.17/outbox.cif.g08.bks.cpg/sg15_63_cif.got.tgz:124018.got - 2010.06.03 18:47:42.
