data_PCOD9278082
_publ_section_title
;
Structure prediction by ZEFSAII (Michael W. Deem and Ramdas Pophale) SiO2 
 PCOD9278082
Probable space group: C 2/C
;
_chemical_formula_sum "Si O2"
_cell_formula_units_Z 56
_cell_length_a 28.754654
_cell_length_b 7.192743
_cell_length_c 11.680715
_cell_angle_alpha 90.000000
_cell_angle_beta 110.249686
_cell_angle_gamma 90.000000
_cell_volume 2266.545349
_symmetry_space_group_name_H-M "C 2/C"
_symmetry_group_IT_number 15
_symmetry_cell_setting 'monoclinic'
loop_
_space_group_symop_operation_xyz
x,y,z
-x,y,1/2-z
-x,-y,-z
x,-y,1/2+z
1/2+x,1/2+y,z
1/2-x,1/2+y,1/2-z
1/2-x,1/2-y,-z
1/2+x,1/2-y,1/2+z
loop_
_atom_site_type_symbol
_atom_site_label
_atom_site_fract_x
_atom_site_fract_y
_atom_site_fract_z
Si Si1 0.500000 0.500000 0.000000
Si Si2 0.823326 0.411806 0.603769
Si Si3 0.084011 0.625894 0.162217
Si Si4 0.060889 0.741686 0.901509
Si Si5 0.199233 0.210517 0.319727
Si Si6 0.241438 0.347003 0.135387
Si Si7 0.500000 0.096533 0.250000
Si Si8 0.908429 0.184259 0.321768
O O1 0.514706 0.359189 0.907623
O O2 0.441689 0.436499 0.933735
O O3 0.871746 0.341597 0.710932
O O4 0.820484 0.634775 0.609261
O O5 0.813324 0.350747 0.466347
O O6 0.775897 0.320175 0.624296
O O7 0.080553 0.402827 0.146695
O O8 0.031729 0.698873 0.176154
O O9 0.092778 0.701181 0.042561
O O10 0.039484 0.539339 0.844346
O O11 0.082292 0.838749 0.807289
O O12 0.233802 0.324849 0.262485
O O13 0.149655 0.141846 0.214205
O O14 0.230430 0.032513 0.381591
#
# Coordination Sequence:
#
# PCOD9278082 Si02
#       8
#     4   8   8   8   8   8   4   8
#     4  12  22  44  64  96 146 180 218 290 328 422
#     4  10  24  44  67 101 138 179 238 290 349 431
#     4  10  22  43  71  96 135 182 225 287 349 415
#     4  11  22  45  65  96 139 176 230 281 338 418
#     4  11  23  45  72 100 138 188 226 297 364 412
#     4  11  23  46  68 100 138 177 240 292 352 426
#     4  10  20  42  66 104 132 174 228 282 340 424
#     4  10  25  45  66 104 136 180 236 279 357 416
#
# _framework density 24.707204999999998
#
# number of rings (size 3 to 8) (size 9 to 14) (size 15 to 20)
#    0.000    1.429    4.286    0.857    2.000    6.857 
#   10.286    0.000    0.000    0.000    0.000    0.000 
#    0.000    0.000    0.000    0.000    0.000    0.000 
#
# Total GULP energy -156034.846189 kJ/mol
# GULP energy per Si atom -5572.673078 kJ/mol
# Density = 2.465097 g / cm^3
# Si number density = 24.707205 Si / 1000 Ang^3
#
#
#
# Elastic Constant Matrix: (Units=GPa)
#
#
# Indices 1 2 3 4 5 6 
#
# 1 63.5481 3.5799 33.9678 0.0000 20.0838 0.0000
# 2 3.5799 49.2749 35.1587 0.0000 4.1225 0.0000
# 3 33.9678 35.1587 82.7336 0.0000 19.8534 0.0000
# 4 0.0000 0.0000 0.0000 17.1087 0.0000 6.1669
# 5 20.0838 4.1225 19.8534 0.0000 50.2422 0.0000
# 6 0.0000 0.0000 0.0000 6.1669 0.0000 33.1858
#
#
#
# Elastic Compliance Matrix: (Units=1/GPa)
#
#
# Indices 1 2 3 4 5 6 
#
# 1 0.022891 0.006561 -0.010895 0.000000 -0.005384 0.000000
# 2 0.006561 0.031358 -0.016320 0.000000 0.001253 0.000000
# 3 -0.010895 -0.016320 0.024447 0.000000 -0.003966 0.000000
# 4 0.000000 0.000000 0.000000 0.062646 0.000000 -0.011642
# 5 -0.005384 0.001253 -0.003966 0.000000 0.023520 0.000000
# 6 0.000000 0.000000 0.000000 -0.011642 0.000000 0.032297
#
#
# Mechanical properties :
#
#
# Convention : Reuss Voigt Hill
#
# Bulk Modulus (GPa) = 26.74637 37.88550 32.31593
# Shear Modulus (GPa) = 19.92581 28.29733 24.11157
#
# Velocity S-wave (km/s) = 2.84294 3.38791 3.12732
# Velocity P-wave (km/s) = 4.65029 5.53814 5.11352
#
# Compressibility (1/GPa) = 0.03738826
#
# Stress axis : x y z
#
# Youngs Moduli (GPa) = 43.68436 31.89006 40.90419
#
# Poissons Ratio (x) = -0.20923 0.44564
# Poissons Ratio (y) = -0.28661 0.66757
# Poissons Ratio (z) = 0.47593 0.52046
#
# Static dielectric constant tensor:
#      x y z
#    x 1.963030 0.000000 0.039110 
#    y 0.000000 1.945620 0.000000 
#    z 0.039110 0.000000 1.857460 
# 
# From -- ./inp_files/125645.got.cif
#   From: 2010.05.17/outbox.cif.g08.bks.cpg/sg15_63_cif.got.tgz:125645.got - 2010.06.03 18:47:42.
