data_PCOD9278827
_publ_section_title
;
Structure prediction by ZEFSAII (Michael W. Deem and Ramdas Pophale) SiO2 
 PCOD9278827
Probable space group: C 2/C
;
_chemical_formula_sum "Si O2"
_cell_formula_units_Z 48
_cell_length_a 8.463912
_cell_length_b 28.067473
_cell_length_c 9.361485
_cell_angle_alpha 90.000000
_cell_angle_beta 118.693521
_cell_angle_gamma 90.000000
_cell_volume 1950.823822
_symmetry_space_group_name_H-M "C 2/C"
_symmetry_group_IT_number 15
_symmetry_cell_setting 'monoclinic'
loop_
_space_group_symop_operation_xyz
x,y,z
-x,y,1/2-z
-x,-y,-z
x,-y,1/2+z
1/2+x,1/2+y,z
1/2-x,1/2+y,1/2-z
1/2-x,1/2-y,-z
1/2+x,1/2-y,1/2+z
loop_
_atom_site_type_symbol
_atom_site_label
_atom_site_fract_x
_atom_site_fract_y
_atom_site_fract_z
Si Si1 0.201084 0.403231 0.087482
Si Si2 0.500000 0.676704 0.750000
Si Si3 0.330459 0.499073 0.529034
Si Si4 0.000000 0.316633 0.250000
Si Si5 0.352121 0.147570 0.388279
Si Si6 0.000000 0.544766 0.750000
Si Si7 0.311590 0.254490 0.360105
Si Si8 0.000000 0.909754 0.750000
O O1 0.330855 0.358392 0.159465
O O2 0.316694 0.448124 0.085186
O O3 0.122530 0.423405 0.201493
O O4 0.023222 0.385535 0.925468
O O5 0.531644 0.710410 0.625742
O O6 0.500000 0.500000 0.500000
O O7 0.132512 0.490341 0.387561
O O8 0.367840 0.449305 0.623877
O O9 0.114912 0.344561 0.422695
O O10 0.134880 0.281626 0.222751
O O11 0.351303 0.201097 0.328372
O O12 0.158243 0.125228 0.262971
O O13 0.250000 0.250000 0.500000
#
# Coordination Sequence:
#
# PCOD9278827 Si02
#       8
#     8   4   8   4   8   4   8   4
#     4  12  26  48  80 112 148 209 256 316 395 469
#     4  12  25  46  77 111 159 209 265 322 404 474
#     4  12  28  47  74 112 156 197 258 316 386 467
#     4  10  20  48  76 103 145 206 248 315 395 454
#     4  11  24  44  76 107 151 195 262 311 392 463
#     4  12  25  48  82 106 160 204 252 322 391 472
#     4  10  24  44  73 111 151 201 262 325 382 469
#     4  12  26  46  71 114 144 195 253 321 380 466
#
# _framework density 24.604989
#
# number of rings (size 3 to 8) (size 9 to 14) (size 15 to 20)
#    0.000    0.667    3.333    4.000    4.667    3.333 
#    3.000    0.000    0.000    0.000    0.000    0.000 
#    0.000    0.000    0.000    0.000    0.000    0.000 
#
# Total GULP energy -133816.908387 kJ/mol
# GULP energy per Si atom -5575.704516 kJ/mol
# Density = 2.454899 g / cm^3
# Si number density = 24.604989 Si / 1000 Ang^3
#
#
#
# Elastic Constant Matrix: (Units=GPa)
#
#
# Indices 1 2 3 4 5 6 
#
# 1 145.4375 93.0751 23.7931 0.0000 5.7925 0.0000
# 2 93.0751 210.9618 29.6752 0.0000 -3.7677 0.0000
# 3 23.7931 29.6752 66.8874 0.0000 22.2426 0.0000
# 4 0.0000 0.0000 0.0000 46.4071 0.0000 7.4107
# 5 5.7925 -3.7677 22.2426 0.0000 41.5468 0.0000
# 6 0.0000 0.0000 0.0000 7.4107 0.0000 70.0404
#
#
#
# Elastic Compliance Matrix: (Units=1/GPa)
#
#
# Indices 1 2 3 4 5 6 
#
# 1 0.009788 -0.004156 -0.001288 0.000000 -0.001052 0.000000
# 2 -0.004156 0.006963 -0.002450 0.000000 0.002522 0.000000
# 3 -0.001288 -0.002450 0.020086 0.000000 -0.010796 0.000000
# 4 0.000000 0.000000 0.000000 0.021919 0.000000 -0.002319
# 5 -0.001052 0.002522 -0.010796 0.000000 0.030224 0.000000
# 6 0.000000 0.000000 0.000000 -0.002319 0.000000 0.014523
#
#
# Mechanical properties :
#
#
# Convention : Reuss Voigt Hill
#
# Bulk Modulus (GPa) = 47.50795 79.59705 63.55250
# Shear Modulus (GPa) = 39.58589 50.04842 44.81715
#
# Velocity S-wave (km/s) = 4.01541 4.51497 4.27249
# Velocity P-wave (km/s) = 6.39126 7.72011 7.08690
#
# Compressibility (1/GPa) = 0.02104911
#
# Stress axis : x y z
#
# Youngs Moduli (GPa) = 102.16394 143.60608 49.78696
#
# Poissons Ratio (x) = 0.59684 0.06413
# Poissons Ratio (y) = 0.42460 0.12197
# Poissons Ratio (z) = 0.13160 0.35181
#
# Static dielectric constant tensor:
#      x y z
#    x 1.774470 0.000000 -0.065320 
#    y 0.000000 1.743770 0.000000 
#    z -0.065320 0.000000 2.097820 
# 
# From -- ./inp_files/80993.got.cif
#   From: 2010.05.17/outbox.cif.g08.bks.cpg/sg15_41_cif.got.tgz:80993.got - 2010.06.03 18:47:42.
