data_PCOD9278041
_publ_section_title
;
Structure prediction by ZEFSAII (Michael W. Deem and Ramdas Pophale) SiO2 
 PCOD9278041
Probable space group: C 2/C
;
_chemical_formula_sum "Si O2"
_cell_formula_units_Z 48
_cell_length_a 10.747523
_cell_length_b 20.420341
_cell_length_c 12.615493
_cell_angle_alpha 90.000000
_cell_angle_beta 48.550906
_cell_angle_gamma 90.000000
_cell_volume 2075.261447
_symmetry_space_group_name_H-M "C 2/C"
_symmetry_group_IT_number 15
_symmetry_cell_setting 'monoclinic'
loop_
_space_group_symop_operation_xyz
x,y,z
-x,y,1/2-z
-x,-y,-z
x,-y,1/2+z
1/2+x,1/2+y,z
1/2-x,1/2+y,1/2-z
1/2-x,1/2-y,-z
1/2+x,1/2-y,1/2+z
loop_
_atom_site_type_symbol
_atom_site_label
_atom_site_fract_x
_atom_site_fract_y
_atom_site_fract_z
Si Si1 0.198232 0.813059 0.454545
Si Si2 0.000000 0.971262 0.250000
Si Si3 0.354029 0.953368 0.542737
Si Si4 0.500000 0.670848 0.250000
Si Si5 0.500000 0.739364 0.750000
Si Si6 0.573688 0.641716 0.549280
Si Si7 0.000000 0.394579 0.250000
Si Si8 0.715146 0.837090 0.761069
O O1 0.250000 0.750000 0.500000
O O2 0.058280 0.815741 0.444075
O O3 0.352014 0.844695 0.308245
O O4 0.117581 0.859788 0.592916
O O5 0.994006 0.923347 0.356233
O O6 0.171822 0.012492 0.154448
O O7 0.419247 0.935741 0.388908
O O8 0.357189 0.889501 0.616970
O O9 0.500000 0.000000 0.500000
O O10 0.638132 0.699265 0.253836
O O11 0.623360 0.690284 0.617224
O O12 0.591644 0.785904 0.780359
O O13 0.709801 0.626354 0.384127
#
# Coordination Sequence:
#
# PCOD9278041 Si02
#       8
#     8   4   8   4   4   8   4   8
#     4  11  22  42  71 107 148 195 249 317 391 471
#     4  11  27  52  77 107 156 205 267 330 392 467
#     4  12  29  48  76 110 150 209 269 327 390 467
#     4  10  20  42  65 102 135 194 240 294 374 462
#     4  11  24  45  73 116 154 191 242 330 394 483
#     4  10  25  45  76 109 148 202 254 306 408 477
#     4  12  27  45  71 109 153 192 273 326 386 464
#     4  11  24  45  75 105 153 194 253 313 393 460
#
# _framework density 23.129615999999999
#
# number of rings (size 3 to 8) (size 9 to 14) (size 15 to 20)
#    0.000    1.000    1.667    3.500    7.000    2.000 
#    0.000    0.000    0.000    0.000    0.000    0.000 
#    0.000    0.000    0.000    0.000    0.000    0.000 
#
# Total GULP energy -133607.238565 kJ/mol
# GULP energy per Si atom -5566.968274 kJ/mol
# Density = 2.307697 g / cm^3
# Si number density = 23.129616 Si / 1000 Ang^3
#
#
#
# Elastic Constant Matrix: (Units=GPa)
#
#
# Indices 1 2 3 4 5 6 
#
# 1 96.9546 56.4219 33.8681 0.0000 1.3663 0.0000
# 2 56.4219 116.4038 60.1961 0.0000 10.5239 0.0000
# 3 33.8681 60.1961 187.7779 0.0000 6.9148 0.0000
# 4 0.0000 0.0000 0.0000 74.4450 0.0000 23.0485
# 5 1.3663 10.5239 6.9148 0.0000 38.7449 0.0000
# 6 0.0000 0.0000 0.0000 23.0485 0.0000 33.8433
#
#
#
# Elastic Compliance Matrix: (Units=1/GPa)
#
#
# Indices 1 2 3 4 5 6 
#
# 1 0.014474 -0.006916 -0.000447 0.000000 0.001448 0.000000
# 2 -0.006916 0.013796 -0.003066 0.000000 -0.002956 0.000000
# 3 -0.000447 -0.003066 0.006400 0.000000 -0.000294 0.000000
# 4 0.000000 0.000000 0.000000 0.017022 0.000000 -0.011592
# 5 0.001448 -0.002956 -0.000294 0.000000 0.026614 0.000000
# 6 0.000000 0.000000 0.000000 -0.011592 0.000000 0.037443
#
#
# Mechanical properties :
#
#
# Convention : Reuss Voigt Hill
#
# Bulk Modulus (GPa) = 72.40028 78.01207 75.20617
# Shear Modulus (GPa) = 35.40812 46.11665 40.76238
#
# Velocity S-wave (km/s) = 3.91686 4.47008 4.20258
# Velocity P-wave (km/s) = 7.19900 7.77455 7.49231
#
# Compressibility (1/GPa) = 0.01381210
#
# Stress axis : x y z
#
# Youngs Moduli (GPa) = 69.08796 72.48597 156.25340
#
# Poissons Ratio (x) = 0.50128 0.06985
# Poissons Ratio (y) = 0.47778 0.47913
# Poissons Ratio (z) = 0.03088 0.22227
#
# Static dielectric constant tensor:
#      x y z
#    x 2.306370 0.000000 -0.112420 
#    y 0.000000 1.966790 0.000000 
#    z -0.112420 0.000000 2.014540 
# 
# From -- ./inp_files/89465.got.cif
#   From: 2010.05.17/outbox.cif.g08.bks.cpg/sg15_45_cif.got.tgz:89465.got - 2010.06.03 18:47:42.
