data_PCOD9278680
_publ_section_title
;
Structure prediction by ZEFSAII (Michael W. Deem and Ramdas Pophale) SiO2 
 PCOD9278680
Probable space group: C 2/C
;
_chemical_formula_sum "Si O2"
_cell_formula_units_Z 44
_cell_length_a 12.985175
_cell_length_b 7.968729
_cell_length_c 19.441288
_cell_angle_alpha 90.000000
_cell_angle_beta 105.732536
_cell_angle_gamma 90.000000
_cell_volume 1936.331676
_symmetry_space_group_name_H-M "C 2/C"
_symmetry_group_IT_number 15
_symmetry_cell_setting 'monoclinic'
loop_
_space_group_symop_operation_xyz
x,y,z
-x,y,1/2-z
-x,-y,-z
x,-y,1/2+z
1/2+x,1/2+y,z
1/2-x,1/2+y,1/2-z
1/2-x,1/2-y,-z
1/2+x,1/2-y,1/2+z
loop_
_atom_site_type_symbol
_atom_site_label
_atom_site_fract_x
_atom_site_fract_y
_atom_site_fract_z
Si Si1 0.500000 0.788331 0.750000
Si Si2 0.331206 0.231260 0.843381
Si Si3 0.480038 0.799396 0.491930
Si Si4 0.198140 0.884888 0.206208
Si Si5 0.346157 0.826009 0.599854
Si Si6 0.204531 0.154445 0.556885
O O1 0.405370 0.685580 0.772176
O O2 0.434897 0.872919 0.674358
O O3 0.436184 0.219535 0.907175
O O4 0.304111 0.122449 0.772289
O O5 0.321505 0.422842 0.816771
O O6 0.233890 0.194600 0.878909
O O7 0.399536 0.763273 0.540028
O O8 0.578344 0.674757 0.522332
O O9 0.500000 0.000000 0.500000
O O10 0.217303 0.784887 0.138433
O O11 0.268796 0.980716 0.568410
O O12 0.250000 0.250000 0.500000
#
# Coordination Sequence:
#
# PCOD9278680 Si02
#       6
#     4   8   8   8   8   8
#     4  10  20  44  70 100 134 192 224 292 368 416
#     4  10  25  44  68 101 134 182 230 288 349 428
#     4  12  24  42  70  99 140 184 229 292 359 412
#     4  10  23  44  67  96 139 177 237 286 353 431
#     4  10  22  42  71  98 136 182 230 284 351 427
#     4  11  23  42  65 102 135 178 234 293 341 422
#
# _framework density 22.723378
#
# number of rings (size 3 to 8) (size 9 to 14) (size 15 to 20)
#    0.000    1.455    3.636    0.545    2.545    4.364 
#    9.818    0.000    0.000    0.000    0.000    0.000 
#    0.000    0.000    0.000    0.000    0.000    0.000 
#
# Total GULP energy -122753.158300 kJ/mol
# GULP energy per Si atom -5579.689014 kJ/mol
# Density = 2.267166 g / cm^3
# Si number density = 22.723378 Si / 1000 Ang^3
#
#
#
# Elastic Constant Matrix: (Units=GPa)
#
#
# Indices 1 2 3 4 5 6 
#
# 1 98.0693 14.6029 45.0687 0.0000 -6.8959 0.0000
# 2 14.6029 60.0332 48.5308 0.0000 11.3768 0.0000
# 3 45.0687 48.5308 203.7616 0.0000 24.8894 0.0000
# 4 0.0000 0.0000 0.0000 37.8246 0.0000 8.4407
# 5 -6.8959 11.3768 24.8894 0.0000 64.0605 0.0000
# 6 0.0000 0.0000 0.0000 8.4407 0.0000 29.9522
#
#
#
# Elastic Compliance Matrix: (Units=1/GPa)
#
#
# Indices 1 2 3 4 5 6 
#
# 1 0.011756 -0.001219 -0.002615 0.000000 0.002498 0.000000
# 2 -0.001219 0.020965 -0.004465 0.000000 -0.002120 0.000000
# 3 -0.002615 -0.004465 0.006810 0.000000 -0.002135 0.000000
# 4 0.000000 0.000000 0.000000 0.028212 0.000000 -0.007950
# 5 0.002498 -0.002120 -0.002135 0.000000 0.017085 0.000000
# 6 0.000000 0.000000 0.000000 -0.007950 0.000000 0.035627
#
#
# Mechanical properties :
#
#
# Convention : Reuss Voigt Hill
#
# Bulk Modulus (GPa) = 43.60433 64.25208 53.92820
# Shear Modulus (GPa) = 34.55501 43.27824 38.91663
#
# Velocity S-wave (km/s) = 3.90382 4.36887 4.14288
# Velocity P-wave (km/s) = 6.28893 7.33393 6.83144
#
# Compressibility (1/GPa) = 0.02293350
#
# Stress axis : x y z
#
# Youngs Moduli (GPa) = 85.06459 47.69857 146.83826
#
# Poissons Ratio (x) = 0.05814 0.38398
# Poissons Ratio (y) = 0.10369 0.65560
# Poissons Ratio (z) = 0.22244 0.21296
#
# Static dielectric constant tensor:
#      x y z
#    x 1.974720 0.000000 0.121340 
#    y 0.000000 1.878340 0.000000 
#    z 0.121340 0.000000 2.082010 
# 
# From -- ./inp_files/202777.got.cif
#   From: 2010.05.17/outbox.cif.g08.bks.cpg/sg15_102_cif.got.tgz:202777.got - 2010.06.03 18:47:42.
