data_PCOD9278843
_publ_section_title
;
Structure prediction by ZEFSAII (Michael W. Deem and Ramdas Pophale) SiO2 
 PCOD9278843
Probable space group: C 2/C
;
_chemical_formula_sum "Si O2"
_cell_formula_units_Z 56
_cell_length_a 22.650812
_cell_length_b 18.552991
_cell_length_c 14.149039
_cell_angle_alpha 90.000000
_cell_angle_beta 156.655579
_cell_angle_gamma 90.000000
_cell_volume 2356.145422
_symmetry_space_group_name_H-M "C 2/C"
_symmetry_group_IT_number 15
_symmetry_cell_setting 'monoclinic'
loop_
_space_group_symop_operation_xyz
x,y,z
-x,y,1/2-z
-x,-y,-z
x,-y,1/2+z
1/2+x,1/2+y,z
1/2-x,1/2+y,1/2-z
1/2-x,1/2-y,-z
1/2+x,1/2-y,1/2+z
loop_
_atom_site_type_symbol
_atom_site_label
_atom_site_fract_x
_atom_site_fract_y
_atom_site_fract_z
Si Si1 0.640764 0.213001 0.914078
Si Si2 0.415224 0.991683 0.029163
Si Si3 0.393906 0.615900 0.681064
Si Si4 0.148497 0.949746 0.915873
Si Si5 0.655877 0.404579 0.710940
Si Si6 0.560237 0.847687 0.737629
Si Si7 0.051162 0.377204 0.109324
O O1 0.500000 0.256131 0.750000
O O2 0.558202 0.159933 0.720963
O O3 0.750000 0.250000 0.000000
O O4 0.739542 0.166958 0.133308
O O5 0.500000 0.966235 0.250000
O O6 0.445806 0.943827 0.981992
O O7 0.485745 0.071302 0.123404
O O8 0.243314 0.974550 0.798263
O O9 0.500000 0.643502 0.750000
O O10 0.339829 0.536148 0.570830
O O11 0.239306 0.653172 0.487719
O O12 0.506505 0.608450 0.933981
O O13 0.135612 0.922219 0.790426
O O14 0.000000 0.931329 0.750000
O O15 0.286984 0.911384 0.168838
O O16 0.500000 0.818863 0.750000
O O17 0.496780 0.822214 0.543104
#
# Coordination Sequence:
#
# PCOD9278843 Si02
#       7
#     8   8   8   8   8   8   8
#     4  11  24  45  72  95 113 152 210 272 327 362
#     4  11  17  34  58  86 117 168 205 233 292 367
#     4  11  23  35  53  89 126 168 205 237 292 369
#     4  10  21  30  50  88 125 164 201 248 293 347
#     4  11  21  38  62  84 124 162 205 257 305 363
#     4  11  24  35  56  90 132 174 205 238 292 375
#     4  11  20  38  61  84 125 165 202 248 305 367
#
# _framework density 23.767631999999999
#
# number of rings (size 3 to 8) (size 9 to 14) (size 15 to 20)
#    0.000    1.143    5.714    2.571    6.000    2.286 
#    0.000    0.000    0.000    1.714    0.000    0.000 
#    0.000    0.000    0.000    0.000    0.000    0.000 
#
# Total GULP energy -156220.398247 kJ/mol
# GULP energy per Si atom -5579.299937 kJ/mol
# Density = 2.371354 g / cm^3
# Si number density = 23.767632 Si / 1000 Ang^3
#
#
#
# Elastic Constant Matrix: (Units=GPa)
#
#
# Indices 1 2 3 4 5 6 
#
# 1 96.9280 -8.5479 52.1674 0.0000 20.7073 0.0000
# 2 -8.5479 34.1670 0.9271 0.0000 5.7500 0.0000
# 3 52.1674 0.9271 169.0771 0.0000 7.1983 0.0000
# 4 0.0000 0.0000 0.0000 0.3172 0.0000 2.7505
# 5 20.7073 5.7500 7.1983 0.0000 56.5769 0.0000
# 6 0.0000 0.0000 0.0000 2.7505 0.0000 -0.7130
#
#
#
# Elastic Compliance Matrix: (Units=1/GPa)
#
#
# Indices 1 2 3 4 5 6 
#
# 1 0.014017 0.004470 -0.004134 0.000000 -0.005059 0.000000
# 2 0.004470 0.031203 -0.001353 0.000000 -0.004635 0.000000
# 3 -0.004134 -0.001353 0.007166 0.000000 0.000739 0.000000
# 4 0.000000 0.000000 0.000000 0.091516 0.000000 0.353020
# 5 -0.005059 -0.004635 0.000739 0.000000 0.019904 0.000000
# 6 0.000000 0.000000 0.000000 0.353020 0.000000 -0.040714
#
#
# Mechanical properties :
#
#
# Convention : Reuss Voigt Hill
#
# Bulk Modulus (GPa) = 19.86007 43.25172 31.55590
# Shear Modulus (GPa) = 35.23379 28.27791 31.75585
#
# Velocity S-wave (km/s) = 3.85441 3.45304 3.65923
# Velocity P-wave (km/s) = 5.30874 5.84254 5.58202
#
# Compressibility (1/GPa) = 0.05035228
#
# Stress axis : x y z
#
# Youngs Moduli (GPa) = 71.34334 32.04808 139.54969
#
# Poissons Ratio (x) = -0.14326 0.57688
# Poissons Ratio (y) = -0.31892 0.18881
# Poissons Ratio (z) = 0.29493 0.04336
#
# Static dielectric constant tensor:
#      x y z
#    x 2.084220 0.000000 0.048780 
#    y 0.000000 2.062050 0.000000 
#    z 0.048780 0.000000 1.966460 
# 
# From -- ./inp_files/174785.got.cif
#   From: 2010.05.17/outbox.cif.g08.bks.cpg/sg15_88_cif.got.tgz:174785.got - 2010.06.03 18:47:42.
