data_PCOD9278311
_publ_section_title
;
Structure prediction by ZEFSAII (Michael W. Deem and Ramdas Pophale) SiO2 
 PCOD9278311
Probable space group: C 2/C
;
_chemical_formula_sum "Si O2"
_cell_formula_units_Z 60
_cell_length_a 8.107473
_cell_length_b 16.411790
_cell_length_c 25.754098
_cell_angle_alpha 90.000000
_cell_angle_beta 117.986308
_cell_angle_gamma 90.000000
_cell_volume 3026.062544
_symmetry_space_group_name_H-M "C 2/C"
_symmetry_group_IT_number 15
_symmetry_cell_setting 'monoclinic'
loop_
_space_group_symop_operation_xyz
x,y,z
-x,y,1/2-z
-x,-y,-z
x,-y,1/2+z
1/2+x,1/2+y,z
1/2-x,1/2+y,1/2-z
1/2-x,1/2-y,-z
1/2+x,1/2-y,1/2+z
loop_
_atom_site_type_symbol
_atom_site_label
_atom_site_fract_x
_atom_site_fract_y
_atom_site_fract_z
Si Si1 0.305587 0.322640 0.749068
Si Si2 0.500000 0.701160 0.750000
Si Si3 0.808418 0.649782 0.871798
Si Si4 0.065843 0.908539 0.998984
Si Si5 0.613770 0.142941 0.120602
Si Si6 0.391187 0.703970 0.558199
Si Si7 0.957183 0.514400 0.554112
Si Si8 0.998846 0.825069 0.618498
O O1 0.500000 0.292629 0.750000
O O2 0.205723 0.376458 0.690079
O O3 0.371509 0.357008 0.814759
O O4 0.149763 0.255964 0.740719
O O5 0.631301 0.651795 0.808031
O O6 0.732565 0.656814 0.918939
O O7 0.905869 0.563111 0.887349
O O8 0.938901 0.729613 0.879067
O O9 0.284735 0.923557 0.026547
O O10 0.015902 0.853064 0.040532
O O11 0.982513 0.869220 0.934194
O O12 0.000000 0.000000 0.000000
O O13 0.510584 0.229395 0.106616
O O14 0.787196 0.157414 0.106491
O O15 0.464589 0.076349 0.079171
O O16 0.250000 0.750000 0.500000
O O17 0.000000 0.500000 0.500000
#
# Coordination Sequence:
#
# PCOD9278311 Si02
#       8
#     8   4   8   8   8   8   8   8
#     4   9  20  39  66  98 120 165 225 270 314 391
#     4  10  20  42  70  90 130 164 218 270 332 380
#     4  11  23  42  64  96 121 171 211 266 321 391
#     4  12  25  40  61  96 134 170 208 274 327 385
#     4  11  22  42  64  92 125 171 212 270 313 389
#     4  12  23  37  64  92 125 166 215 254 320 389
#     4  12  25  40  61  92 136 166 213 263 324 386
#     4  10  22  40  67  89 124 165 220 258 324 383
#
# _framework density 19.827746999999999
#
# number of rings (size 3 to 8) (size 9 to 14) (size 15 to 20)
#    0.000    1.067    4.000    3.200    0.000    1.067 
#    3.600    0.000    0.000    1.600    0.000    0.000 
#    0.000    0.000    0.000    0.000    0.000    0.000 
#
# Total GULP energy -167203.046901 kJ/mol
# GULP energy per Si atom -5573.434897 kJ/mol
# Density = 1.978262 g / cm^3
# Si number density = 19.827747 Si / 1000 Ang^3
#
#
#
# Elastic Constant Matrix: (Units=GPa)
#
#
# Indices 1 2 3 4 5 6 
#
# 1 50.9911 6.6476 14.5275 0.0000 -2.3885 0.0000
# 2 6.6476 71.3248 17.8203 0.0000 1.4815 0.0000
# 3 14.5275 17.8203 92.9413 0.0000 0.7833 0.0000
# 4 0.0000 0.0000 0.0000 32.3614 0.0000 3.9345
# 5 -2.3885 1.4815 0.7833 0.0000 30.1506 0.0000
# 6 0.0000 0.0000 0.0000 3.9345 0.0000 31.0455
#
#
#
# Elastic Compliance Matrix: (Units=1/GPa)
#
#
# Indices 1 2 3 4 5 6 
#
# 1 0.020713 -0.001213 -0.003020 0.000000 0.001779 0.000000
# 2 -0.001213 0.014810 -0.002644 0.000000 -0.000755 0.000000
# 3 -0.003020 -0.002644 0.011742 0.000000 -0.000414 0.000000
# 4 0.000000 0.000000 0.000000 0.031385 0.000000 -0.003978
# 5 0.001779 -0.000755 -0.000414 0.000000 0.033356 0.000000
# 6 0.000000 0.000000 0.000000 -0.003978 0.000000 0.032715
#
#
# Mechanical properties :
#
#
# Convention : Reuss Voigt Hill
#
# Bulk Modulus (GPa) = 29.84049 32.58311 31.21180
# Shear Modulus (GPa) = 29.47360 30.46230 29.96795
#
# Velocity S-wave (km/s) = 3.85968 3.92388 3.89191
# Velocity P-wave (km/s) = 5.91146 6.08259 5.99763
#
# Compressibility (1/GPa) = 0.03351152
#
# Stress axis : x y z
#
# Youngs Moduli (GPa) = 48.27848 67.52376 85.16505
#
# Poissons Ratio (x) = 0.08190 0.25720
# Poissons Ratio (y) = 0.05856 0.22514
# Poissons Ratio (z) = 0.14580 0.17851
#
# Static dielectric constant tensor:
#      x y z
#    x 1.585080 0.000000 -0.034950 
#    y 0.000000 1.704320 0.000000 
#    z -0.034950 0.000000 1.709130 
# 
# From -- ./inp_files/289435.got.cif
#   From: 2010.05.17/outbox.cif.g08.bks.cpg/sg15_145_cif.got.tgz:289435.got - 2010.06.03 18:47:42.
