data_PCOD9278352
_publ_section_title
;
Structure prediction by ZEFSAII (Michael W. Deem and Ramdas Pophale) SiO2 
 PCOD9278352
Probable space group: C 2/C
;
_chemical_formula_sum "Si O2"
_cell_formula_units_Z 52
_cell_length_a 14.574431
_cell_length_b 10.896242
_cell_length_c 21.255545
_cell_angle_alpha 90.000000
_cell_angle_beta 51.738449
_cell_angle_gamma 90.000000
_cell_volume 2650.431089
_symmetry_space_group_name_H-M "C 2/C"
_symmetry_group_IT_number 15
_symmetry_cell_setting 'monoclinic'
loop_
_space_group_symop_operation_xyz
x,y,z
-x,y,1/2-z
-x,-y,-z
x,-y,1/2+z
1/2+x,1/2+y,z
1/2-x,1/2+y,1/2-z
1/2-x,1/2-y,-z
1/2+x,1/2-y,1/2+z
loop_
_atom_site_type_symbol
_atom_site_label
_atom_site_fract_x
_atom_site_fract_y
_atom_site_fract_z
Si Si1 0.186851 0.121792 0.041231
Si Si2 0.331359 0.058248 0.400659
Si Si3 0.000000 0.389079 0.250000
Si Si4 0.250504 0.957034 0.653917
Si Si5 0.075420 0.821571 0.814294
Si Si6 0.002728 0.389772 0.550432
Si Si7 0.186827 0.261485 0.393200
O O1 0.231994 0.081613 0.090083
O O2 0.049320 0.136875 0.106654
O O3 0.250000 0.250000 0.000000
O O4 0.226043 0.022272 0.973706
O O5 0.419148 0.081710 0.421794
O O6 0.280199 0.181867 0.392188
O O7 0.400258 0.975236 0.321333
O O8 0.050772 0.300637 0.283156
O O9 0.139755 0.917021 0.741552
O O10 0.366957 0.884532 0.627338
O O11 0.269371 0.102509 0.643361
O O12 0.154921 0.799978 0.841049
O O13 0.069392 0.281257 0.485256
O O14 0.000000 0.500000 0.500000
#
# Coordination Sequence:
#
# PCOD9278352 Si02
#       7
#     8   8   4   8   8   8   8
#     4  12  22  44  74  96 133 182 231 283 340 412
#     4  12  25  43  72 103 138 178 235 284 347 409
#     4  12  24  44  70  98 134 184 236 282 340 412
#     4  11  23  45  70 100 136 186 227 283 346 411
#     4  12  25  45  69 102 138 178 234 285 341 414
#     4  10  20  42  71  96 131 183 221 275 345 411
#     4  11  26  43  69 102 142 178 228 290 348 413
#
# _framework density 19.619448999999999
#
# number of rings (size 3 to 8) (size 9 to 14) (size 15 to 20)
#    0.000    0.615    6.154    3.231    4.308    0.615 
#    5.538    0.000    0.000    0.000    0.000    0.000 
#    0.000    0.000    0.000    0.000    0.000    0.000 
#
# Total GULP energy -145293.272905 kJ/mol
# GULP energy per Si atom -5588.202804 kJ/mol
# Density = 1.957479 g / cm^3
# Si number density = 19.619449 Si / 1000 Ang^3
#
#
#
# Elastic Constant Matrix: (Units=GPa)
#
#
# Indices 1 2 3 4 5 6 
#
# 1 100.3916 33.8935 35.5155 0.0000 2.7261 0.0000
# 2 33.8935 78.9102 52.9859 0.0000 -11.8819 0.0000
# 3 35.5155 52.9859 144.6778 0.0000 -20.7063 0.0000
# 4 0.0000 0.0000 0.0000 21.4915 0.0000 -15.6406
# 5 2.7261 -11.8819 -20.7063 0.0000 29.0645 0.0000
# 6 0.0000 0.0000 0.0000 -15.6406 0.0000 28.0632
#
#
#
# Elastic Compliance Matrix: (Units=1/GPa)
#
#
# Indices 1 2 3 4 5 6 
#
# 1 0.012349 -0.004657 -0.001965 0.000000 -0.004462 0.000000
# 2 -0.004657 0.018764 -0.005087 0.000000 0.004483 0.000000
# 3 -0.001965 -0.005087 0.010006 0.000000 0.005233 0.000000
# 4 0.000000 0.000000 0.000000 0.078281 0.000000 0.043629
# 5 -0.004462 0.004483 0.005233 0.000000 0.040386 0.000000
# 6 0.000000 0.000000 0.000000 0.043629 0.000000 0.059950
#
#
# Mechanical properties :
#
#
# Convention : Reuss Voigt Hill
#
# Bulk Modulus (GPa) = 56.49012 63.19660 59.84336
# Shear Modulus (GPa) = 20.07592 29.16282 24.61937
#
# Velocity S-wave (km/s) = 3.20232 3.85960 3.54622
# Velocity P-wave (km/s) = 6.52140 7.22102 6.88011
#
# Compressibility (1/GPa) = 0.01770221
#
# Stress axis : x y z
#
# Youngs Moduli (GPa) = 80.97557 53.29405 99.93789
#
# Poissons Ratio (x) = 0.24819 0.19633
# Poissons Ratio (y) = 0.37710 0.50839
# Poissons Ratio (z) = 0.15908 0.27111
#
# Static dielectric constant tensor:
#      x y z
#    x 1.689560 0.000000 -0.027340 
#    y 0.000000 1.732740 0.000000 
#    z -0.027340 0.000000 1.694100 
# 
# From -- ./inp_files/243629.got.cif
#   From: 2010.05.17/outbox.cif.g08.bks.cpg/sg15_122_cif.got.tgz:243629.got - 2010.06.03 18:47:42.
