data_PCOD9278694
_publ_section_title
;
Structure prediction by ZEFSAII (Michael W. Deem and Ramdas Pophale) SiO2 
 PCOD9278694
Probable space group: C 2/C
;
_chemical_formula_sum "Si O2"
_cell_formula_units_Z 64
_cell_length_a 16.191758
_cell_length_b 11.397808
_cell_length_c 27.856603
_cell_angle_alpha 90.000000
_cell_angle_beta 146.124304
_cell_angle_gamma 90.000000
_cell_volume 2865.530207
_symmetry_space_group_name_H-M "C 2/C"
_symmetry_group_IT_number 15
_symmetry_cell_setting 'monoclinic'
loop_
_space_group_symop_operation_xyz
x,y,z
-x,y,1/2-z
-x,-y,-z
x,-y,1/2+z
1/2+x,1/2+y,z
1/2-x,1/2+y,1/2-z
1/2-x,1/2-y,-z
1/2+x,1/2-y,1/2+z
loop_
_atom_site_type_symbol
_atom_site_label
_atom_site_fract_x
_atom_site_fract_y
_atom_site_fract_z
Si Si1 0.473426 0.847286 0.180002
Si Si2 0.329266 0.940711 0.765622
Si Si3 0.306609 0.897157 0.475275
Si Si4 0.871888 0.680157 0.387550
Si Si5 0.936638 0.716127 0.171882
Si Si6 0.942942 0.955440 0.419548
Si Si7 0.233664 0.472675 0.943515
Si Si8 0.373127 0.392664 0.654938
O O1 0.500000 0.863343 0.250000
O O2 0.460213 0.707862 0.166972
O O3 0.582976 0.934929 0.203603
O O4 0.311872 0.895748 0.087942
O O5 0.318895 0.897990 0.815989
O O6 0.419639 0.833579 0.785268
O O7 0.174623 0.961760 0.663568
O O8 0.458398 0.864219 0.521157
O O9 0.182468 0.797822 0.410983
O O10 0.349592 0.918658 0.550955
O O11 0.221472 0.013659 0.419110
O O12 0.885088 0.821353 0.388920
O O13 0.751363 0.663943 0.370745
O O14 0.836115 0.600364 0.134311
O O15 0.000000 0.773881 0.250000
O O16 0.096599 0.954400 0.465367
O O17 0.000000 0.000000 0.500000
O O18 0.500000 0.446849 0.750000
#
# Coordination Sequence:
#
# PCOD9278694 Si02
#       8
#     8   8   8   8   8   8   8   8
#     4  10  20  44  70  96 136 192 238 289 359 439
#     4  11  24  43  72 107 140 183 242 312 361 424
#     4  12  24  44  69 103 141 186 237 303 372 436
#     4  12  25  48  69 106 149 186 242 311 368 437
#     4  11  21  41  69 100 135 184 229 292 364 429
#     4  12  24  43  72 109 145 191 245 299 366 452
#     4  11  21  39  69 100 134 175 237 295 356 420
#     4  11  26  45  70  95 142 199 240 290 375 454
#
# _framework density 22.334434999999999
#
# number of rings (size 3 to 8) (size 9 to 14) (size 15 to 20)
#    0.000    0.750    3.750    7.125    1.750    0.500 
#    2.250    1.250    0.000    0.000    0.000    0.000 
#    0.000    0.000    0.000    0.000    0.000    0.000 
#
# Total GULP energy -178455.042521 kJ/mol
# GULP energy per Si atom -5576.720079 kJ/mol
# Density = 2.228360 g / cm^3
# Si number density = 22.334435 Si / 1000 Ang^3
#
#
#
# Elastic Constant Matrix: (Units=GPa)
#
#
# Indices 1 2 3 4 5 6 
#
# 1 48.1457 12.7253 6.7321 0.0000 14.0796 0.0000
# 2 12.7253 100.6891 36.9612 0.0000 -8.4859 0.0000
# 3 6.7321 36.9612 113.2744 0.0000 3.8491 0.0000
# 4 0.0000 0.0000 0.0000 61.4141 0.0000 10.4836
# 5 14.0796 -8.4859 3.8491 0.0000 31.0909 0.0000
# 6 0.0000 0.0000 0.0000 10.4836 0.0000 26.4499
#
#
#
# Elastic Compliance Matrix: (Units=1/GPa)
#
#
# Indices 1 2 3 4 5 6 
#
# 1 0.025668 -0.004466 0.000370 0.000000 -0.012888 0.000000
# 2 -0.004466 0.012464 -0.004003 0.000000 0.005920 0.000000
# 3 0.000370 -0.004003 0.010198 0.000000 -0.002522 0.000000
# 4 0.000000 0.000000 0.000000 0.017465 0.000000 -0.006922
# 5 -0.012888 0.005920 -0.002522 0.000000 0.039928 0.000000
# 6 0.000000 0.000000 0.000000 -0.006922 0.000000 0.040551
#
#
# Mechanical properties :
#
#
# Convention : Reuss Voigt Hill
#
# Bulk Modulus (GPa) = 31.12142 41.66070 36.39106
# Shear Modulus (GPa) = 28.87122 37.50370 33.18746
#
# Velocity S-wave (km/s) = 3.59928 4.10223 3.85896
# Velocity P-wave (km/s) = 5.58906 6.41338 6.01536
#
# Compressibility (1/GPa) = 0.03213220
#
# Stress axis : x y z
#
# Youngs Moduli (GPa) = 38.95896 80.22951 98.05875
#
# Poissons Ratio (x) = 0.35830 -0.03625
# Poissons Ratio (y) = 0.17399 0.39251
# Poissons Ratio (z) = -0.01440 0.32114
#
# Static dielectric constant tensor:
#      x y z
#    x 1.926850 0.000000 -0.014000 
#    y 0.000000 1.906310 0.000000 
#    z -0.014000 0.000000 1.824690 
# 
# From -- ./inp_files/316242.got.cif
#   From: 2010.05.17/outbox.cif.g08.bks.cpg/sg15_159_cif.got.tgz:316242.got - 2010.06.03 18:47:42.
