data_PCOD9278114
_publ_section_title
;
Structure prediction by ZEFSAII (Michael W. Deem and Ramdas Pophale) SiO2 
 PCOD9278114
Probable space group: C 2/C
;
_chemical_formula_sum "Si O2"
_cell_formula_units_Z 40
_cell_length_a 14.417026
_cell_length_b 12.979073
_cell_length_c 10.471698
_cell_angle_alpha 90.000000
_cell_angle_beta 84.460040
_cell_angle_gamma 90.000000
_cell_volume 1950.307863
_symmetry_space_group_name_H-M "C 2/C"
_symmetry_group_IT_number 15
_symmetry_cell_setting 'monoclinic'
loop_
_space_group_symop_operation_xyz
x,y,z
-x,y,1/2-z
-x,-y,-z
x,-y,1/2+z
1/2+x,1/2+y,z
1/2-x,1/2+y,1/2-z
1/2-x,1/2-y,-z
1/2+x,1/2-y,1/2+z
loop_
_atom_site_type_symbol
_atom_site_label
_atom_site_fract_x
_atom_site_fract_y
_atom_site_fract_z
Si Si1 0.594419 0.467193 0.315950
Si Si2 0.559468 0.042824 0.374082
Si Si3 0.660759 0.680904 0.418719
Si Si4 0.271692 0.115187 0.641496
Si Si5 0.021274 0.769767 0.398698
O O1 0.500000 0.482145 0.250000
O O2 0.623292 0.577380 0.362545
O O3 0.677609 0.421829 0.219901
O O4 0.573190 0.377059 0.421979
O O5 0.500000 0.038344 0.250000
O O6 0.576404 0.163136 0.405335
O O7 0.500000 0.000000 0.500000
O O8 0.650490 0.971653 0.351780
O O9 0.693884 0.771423 0.319655
O O10 0.744463 0.640989 0.498490
O O11 0.576034 0.729914 0.512654
O O12 0.000000 0.774952 0.250000
#
# Coordination Sequence:
#
# PCOD9278114 Si02
#       5
#     8   8   8   8   8
#     4  11  24  41  65  97 130 171 220 276 335 401
#     4  11  25  44  69  98 136 177 228 281 334 400
#     4  11  23  43  67  91 134 172 223 270 338 406
#     4  11  25  41  66  97 126 181 222 269 340 403
#     4  10  20  42  66  91 128 176 217 263 336 400
#
# _framework density 20.509582999999999
#
# number of rings (size 3 to 8) (size 9 to 14) (size 15 to 20)
#    0.000    1.200    6.000    0.600    5.600    0.800 
#    0.000    1.000    0.000    0.000    0.000    0.000 
#    0.000    0.000    0.000    0.000    0.000    0.000 
#
# Total GULP energy -111610.290034 kJ/mol
# GULP energy per Si atom -5580.514502 kJ/mol
# Density = 2.046290 g / cm^3
# Si number density = 20.509583 Si / 1000 Ang^3
#
#
#
# Elastic Constant Matrix: (Units=GPa)
#
#
# Indices 1 2 3 4 5 6 
#
# 1 123.0958 80.2781 24.2494 0.0000 -19.8725 0.0000
# 2 80.2781 204.8599 22.6133 0.0000 2.3683 0.0000
# 3 24.2494 22.6133 50.5404 0.0000 -15.0353 0.0000
# 4 0.0000 0.0000 0.0000 2.6641 0.0000 29.5932
# 5 -19.8725 2.3683 -15.0353 0.0000 24.0866 0.0000
# 6 0.0000 0.0000 0.0000 29.5932 0.0000 -2.4806
#
#
#
# Elastic Compliance Matrix: (Units=1/GPa)
#
#
# Indices 1 2 3 4 5 6 
#
# 1 0.013600 -0.005375 -0.000768 0.000000 0.011269 0.000000
# 2 -0.005375 0.007373 -0.002769 0.000000 -0.006888 0.000000
# 3 -0.000768 -0.002769 0.026140 0.000000 0.015956 0.000000
# 4 0.000000 0.000000 0.000000 0.002811 0.000000 0.033538
# 5 0.011269 -0.006888 0.015956 0.000000 0.061452 0.000000
# 6 0.000000 0.000000 0.000000 0.033538 0.000000 -0.003019
#
#
# Mechanical properties :
#
#
# Convention : Reuss Voigt Hill
#
# Bulk Modulus (GPa) = 34.14189 70.30863 52.22526
# Shear Modulus (GPa) = 36.78013 21.61104 29.19559
#
# Velocity S-wave (km/s) = 4.23935 3.24960 3.77704
# Velocity P-wave (km/s) = 6.37540 6.95954 6.67386
#
# Compressibility (1/GPa) = 0.02928953
#
# Stress axis : x y z
#
# Youngs Moduli (GPa) = 73.53201 135.63229 38.25520
#
# Poissons Ratio (x) = 0.72899 0.02937
# Poissons Ratio (y) = 0.39522 0.10593
# Poissons Ratio (z) = 0.05645 0.37558
#
# Static dielectric constant tensor:
#      x y z
#    x 1.779510 0.000000 0.000740 
#    y 0.000000 1.819560 0.000000 
#    z 0.000740 0.000000 1.744090 
# 
# From -- ./inp_files/94511.got.cif
#   From: 2010.05.17/outbox.cif.g08.bks.cpg/sg15_48_cif.got.tgz:94511.got - 2010.06.03 18:47:42.
