data_PCOD9278287
_publ_section_title
;
Structure prediction by ZEFSAII (Michael W. Deem and Ramdas Pophale) SiO2 
 PCOD9278287
Probable space group: C 2/C
;
_chemical_formula_sum "Si O2"
_cell_formula_units_Z 40
_cell_length_a 20.688389
_cell_length_b 10.293159
_cell_length_c 10.055716
_cell_angle_alpha 90.000000
_cell_angle_beta 44.804606
_cell_angle_gamma 90.000000
_cell_volume 1508.993028
_symmetry_space_group_name_H-M "C 2/C"
_symmetry_group_IT_number 15
_symmetry_cell_setting 'monoclinic'
loop_
_space_group_symop_operation_xyz
x,y,z
-x,y,1/2-z
-x,-y,-z
x,-y,1/2+z
1/2+x,1/2+y,z
1/2-x,1/2+y,1/2-z
1/2-x,1/2-y,-z
1/2+x,1/2-y,1/2+z
loop_
_atom_site_type_symbol
_atom_site_label
_atom_site_fract_x
_atom_site_fract_y
_atom_site_fract_z
Si Si1 0.266423 0.521573 0.469829
Si Si2 0.540366 0.391434 0.340590
Si Si3 0.261323 0.767844 0.295666
Si Si4 0.098686 0.593667 0.055310
Si Si5 0.941294 0.678946 0.973557
O O1 0.350322 0.423697 0.332460
O O2 0.289357 0.655139 0.356970
O O3 0.250340 0.582958 0.637703
O O4 0.169871 0.468799 0.557185
O O5 0.500000 0.406591 0.250000
O O6 0.500000 0.500000 0.500000
O O7 0.523543 0.259934 0.452101
O O8 0.161583 0.730292 0.394099
O O9 0.344395 0.782731 0.074706
O O10 0.072704 0.475289 0.994546
O O11 0.000000 0.631409 0.250000
O O12 0.000000 0.699885 0.750000
#
# Coordination Sequence:
#
# PCOD9278287 Si02
#       5
#     8   8   8   8   8
#     4  10  22  40  68 103 142 193 243 295 369 439
#     4  12  24  41  71 108 148 190 249 308 368 437
#     4  10  20  42  69  98 150 189 238 301 365 444
#     4  10  22  42  74 105 143 194 241 303 370 443
#     4  10  21  43  73 111 146 192 248 299 375 446
#
# _framework density 26.507742
#
# number of rings (size 3 to 8) (size 9 to 14) (size 15 to 20)
#    0.000    1.600    2.000    3.000    0.000    2.400 
#    0.000    5.000    0.000    1.200    0.000    0.000 
#    0.000    0.000    0.000    0.000    0.000    0.000 
#
# Total GULP energy -111967.257061 kJ/mol
# GULP energy per Si atom -5598.362853 kJ/mol
# Density = 2.644741 g / cm^3
# Si number density = 26.507742 Si / 1000 Ang^3
#
#
#
# Elastic Constant Matrix: (Units=GPa)
#
#
# Indices 1 2 3 4 5 6 
#
# 1 147.5845 33.5115 71.6042 0.0000 -9.1236 0.0000
# 2 33.5115 94.3497 72.8041 0.0000 18.6006 0.0000
# 3 71.6042 72.8041 191.9615 0.0000 -30.1783 0.0000
# 4 0.0000 0.0000 0.0000 46.5670 0.0000 0.0545
# 5 -9.1236 18.6006 -30.1783 0.0000 53.5602 0.0000
# 6 0.0000 0.0000 0.0000 0.0545 0.0000 40.9617
#
#
#
# Elastic Compliance Matrix: (Units=1/GPa)
#
#
# Indices 1 2 3 4 5 6 
#
# 1 0.008316 -0.000869 -0.002745 0.000000 0.000171 0.000000
# 2 -0.000869 0.020819 -0.009580 0.000000 -0.012776 0.000000
# 3 -0.002745 -0.009580 0.011319 0.000000 0.009237 0.000000
# 4 0.000000 0.000000 0.000000 0.021474 0.000000 -0.000029
# 5 0.000171 -0.012776 0.009237 0.000000 0.028341 0.000000
# 6 0.000000 0.000000 0.000000 -0.000029 0.000000 0.024413
#
#
# Mechanical properties :
#
#
# Convention : Reuss Voigt Hill
#
# Bulk Modulus (GPa) = 71.10147 87.74836 79.42492
# Shear Modulus (GPa) = 34.30322 45.28284 39.79303
#
# Velocity S-wave (km/s) = 3.60124 4.13763 3.87872
# Velocity P-wave (km/s) = 6.64628 7.48341 7.07723
#
# Compressibility (1/GPa) = 0.01406441
#
# Stress axis : x y z
#
# Youngs Moduli (GPa) = 120.25508 48.03393 88.34731
#
# Poissons Ratio (x) = 0.04174 0.24254
# Poissons Ratio (y) = 0.10450 0.84638
# Poissons Ratio (z) = 0.33014 0.46017
#
# Static dielectric constant tensor:
#      x y z
#    x 2.121720 0.000000 0.132850 
#    y 0.000000 2.088410 0.000000 
#    z 0.132850 0.000000 2.313060 
# 
# From -- ./inp_files/122783.got.cif
#   From: 2010.05.17/outbox.cif.g08.bks.cpg/sg15_62_cif.got.tgz:122783.got - 2010.06.03 18:47:42.
