data_PCOD9278351
_publ_section_title
;
Structure prediction by ZEFSAII (Michael W. Deem and Ramdas Pophale) SiO2 
 PCOD9278351
Probable space group: C 2/C
;
_chemical_formula_sum "Si O2"
_cell_formula_units_Z 56
_cell_length_a 9.902066
_cell_length_b 30.080591
_cell_length_c 10.737062
_cell_angle_alpha 90.000000
_cell_angle_beta 116.083039
_cell_angle_gamma 90.000000
_cell_volume 2872.435420
_symmetry_space_group_name_H-M "C 2/C"
_symmetry_group_IT_number 15
_symmetry_cell_setting 'monoclinic'
loop_
_space_group_symop_operation_xyz
x,y,z
-x,y,1/2-z
-x,-y,-z
x,-y,1/2+z
1/2+x,1/2+y,z
1/2-x,1/2+y,1/2-z
1/2-x,1/2-y,-z
1/2+x,1/2-y,1/2+z
loop_
_atom_site_type_symbol
_atom_site_label
_atom_site_fract_x
_atom_site_fract_y
_atom_site_fract_z
Si Si1 0.624288 0.124144 0.066847
Si Si2 0.967843 0.461314 0.385820
Si Si3 0.159522 0.159198 0.544647
Si Si4 0.338169 0.592642 0.729947
Si Si5 0.329472 0.671407 0.317553
Si Si6 0.318895 0.827724 0.480359
Si Si7 0.338543 0.768540 0.249665
O O1 0.749427 0.128437 0.225073
O O2 0.570840 0.078561 0.982462
O O3 0.698570 0.150569 0.984284
O O4 0.479883 0.149234 0.061139
O O5 0.000000 0.470284 0.250000
O O6 0.000000 0.500000 0.500000
O O7 0.795790 0.443247 0.323159
O O8 0.147262 0.117082 0.631495
O O9 0.202058 0.204191 0.633137
O O10 0.004851 0.163394 0.409213
O O11 0.500000 0.575702 0.750000
O O12 0.285970 0.633793 0.621821
O O13 0.253499 0.683297 0.418050
O O14 0.310219 0.716182 0.230137
O O15 0.340117 0.787700 0.391267
O O16 0.500000 0.777918 0.250000
#
# Coordination Sequence:
#
# PCOD9278351 Si02
#       7
#     8   8   8   8   8   8   8
#     4  11  23  43  68  90 128 176 219 265 339 402
#     4  11  25  47  78 106 134 172 218 274 341 426
#     4  11  22  41  65  90 128 179 230 265 334 386
#     4  10  20  42  71  96 128 174 217 267 331 398
#     4  12  25  38  59  97 133 172 229 291 325 389
#     4  10  22  39  61  88 128 178 224 277 335 386
#     4  11  23  38  61  86 128 184 236 281 329 386
#
# _framework density 19.495652
#
# number of rings (size 3 to 8) (size 9 to 14) (size 15 to 20)
#    0.000    1.143    4.286    2.143    2.000    3.429 
#    2.571    2.143    0.000    0.000    0.000    0.000 
#    0.000    0.000    0.000    0.000    0.000    0.000 
#
# Total GULP energy -156261.621766 kJ/mol
# GULP energy per Si atom -5580.772206 kJ/mol
# Density = 1.945128 g / cm^3
# Si number density = 19.495652 Si / 1000 Ang^3
#
#
#
# Elastic Constant Matrix: (Units=GPa)
#
#
# Indices 1 2 3 4 5 6 
#
# 1 101.4389 43.9650 33.6796 0.0000 -0.1614 0.0000
# 2 43.9650 94.0959 52.3545 0.0000 8.6909 0.0000
# 3 33.6796 52.3545 81.1369 0.0000 9.9754 0.0000
# 4 0.0000 0.0000 0.0000 17.7344 0.0000 -0.8466
# 5 -0.1614 8.6909 9.9754 0.0000 36.2646 0.0000
# 6 0.0000 0.0000 0.0000 -0.8466 0.0000 15.4809
#
#
#
# Elastic Compliance Matrix: (Units=1/GPa)
#
#
# Indices 1 2 3 4 5 6 
#
# 1 0.012737 -0.004765 -0.002442 0.000000 0.001871 0.000000
# 2 -0.004765 0.018403 -0.009679 0.000000 -0.001769 0.000000
# 3 -0.002442 -0.009679 0.019976 0.000000 -0.003186 0.000000
# 4 0.000000 0.000000 0.000000 0.056535 0.000000 0.003092
# 5 0.001871 -0.001769 -0.003186 0.000000 0.028884 0.000000
# 6 0.000000 0.000000 0.000000 0.003092 0.000000 0.064765
#
#
# Mechanical properties :
#
#
# Convention : Reuss Voigt Hill
#
# Bulk Modulus (GPa) = 57.66118 59.62997 58.64558
# Shear Modulus (GPa) = 20.75948 23.67416 22.21682
#
# Velocity S-wave (km/s) = 3.26671 3.48850 3.37943
# Velocity P-wave (km/s) = 6.62338 6.84682 6.73602
#
# Compressibility (1/GPa) = 0.01734269
#
# Stress axis : x y z
#
# Youngs Moduli (GPa) = 78.50933 54.33995 50.06038
#
# Poissons Ratio (x) = 0.25894 0.12227
# Poissons Ratio (y) = 0.37411 0.48454
# Poissons Ratio (z) = 0.19175 0.52596
#
# Static dielectric constant tensor:
#      x y z
#    x 1.674560 0.000000 -0.018940 
#    y 0.000000 1.654000 0.000000 
#    z -0.018940 0.000000 1.743740 
# 
# From -- ./inp_files/82280.got.cif
#   From: 2010.05.17/outbox.cif.g08.bks.cpg/sg15_42_cif.got.tgz:82280.got - 2010.06.03 18:47:42.
