data_PCOD9278659
_publ_section_title
;
Structure prediction by ZEFSAII (Michael W. Deem and Ramdas Pophale) SiO2 
 PCOD9278659
Probable space group: C 2/C
;
_chemical_formula_sum "Si O2"
_cell_formula_units_Z 52
_cell_length_a 11.601072
_cell_length_b 25.729738
_cell_length_c 9.744076
_cell_angle_alpha 90.000000
_cell_angle_beta 53.088609
_cell_angle_gamma 90.000000
_cell_volume 2325.562801
_symmetry_space_group_name_H-M "C 2/C"
_symmetry_group_IT_number 15
_symmetry_cell_setting 'monoclinic'
loop_
_space_group_symop_operation_xyz
x,y,z
-x,y,1/2-z
-x,-y,-z
x,-y,1/2+z
1/2+x,1/2+y,z
1/2-x,1/2+y,1/2-z
1/2-x,1/2-y,-z
1/2+x,1/2-y,1/2+z
loop_
_atom_site_type_symbol
_atom_site_label
_atom_site_fract_x
_atom_site_fract_y
_atom_site_fract_z
Si Si1 0.000000 0.857622 0.750000
Si Si2 0.500000 0.029723 0.750000
Si Si3 0.158990 0.721944 0.184851
Si Si4 0.298836 0.939810 0.949438
Si Si5 0.224286 0.377630 0.796141
Si Si6 0.638055 0.677682 0.876824
Si Si7 0.918894 0.380993 0.113928
Si Si8 0.000000 0.099800 0.750000
O O1 0.867153 0.888771 0.779324
O O2 0.070595 0.825640 0.575303
O O3 0.584257 0.066851 0.794035
O O4 0.384129 0.993052 0.907839
O O5 0.243893 0.673187 0.186250
O O6 0.130216 0.765403 0.319593
O O7 0.000000 0.704786 0.250000
O O8 0.250000 0.750000 0.000000
O O9 0.312629 0.924066 0.780670
O O10 0.370432 0.896163 0.995128
O O11 0.131680 0.935876 0.106911
O O12 0.085619 0.365209 0.988184
O O13 0.804773 0.659601 0.753528
O O14 0.555792 0.637267 0.833082
#
# Coordination Sequence:
#
# PCOD9278659 Si02
#       8
#     4   4   8   8   8   8   8   4
#     4  12  26  42  66  98 148 194 225 291 362 420
#     4  12  24  44  70 104 132 187 235 308 370 422
#     4  12  23  41  74 109 139 186 248 293 353 430
#     4  11  22  41  72 100 135 182 238 299 357 426
#     4  12  24  44  68 104 143 189 239 296 356 426
#     4  11  23  44  70 104 144 187 231 292 359 429
#     4  11  24  44  70 101 143 181 240 295 360 427
#     4  10  20  44  68 102 138 177 226 293 356 430
#
# _framework density 22.36018
#
# number of rings (size 3 to 8) (size 9 to 14) (size 15 to 20)
#    0.000    0.615    3.846    6.000    0.000    0.615 
#    0.000    7.692    0.000    0.000    0.000    0.000 
#    0.000    0.000    0.000    0.000    0.000    0.000 
#
# Total GULP energy -145536.559701 kJ/mol
# GULP energy per Si atom -5597.559988 kJ/mol
# Density = 2.230929 g / cm^3
# Si number density = 22.360180 Si / 1000 Ang^3
#
#
#
# Elastic Constant Matrix: (Units=GPa)
#
#
# Indices 1 2 3 4 5 6 
#
# 1 114.3489 6.9789 31.2963 0.0000 -15.5676 0.0000
# 2 6.9789 50.5097 0.0410 0.0000 0.1294 0.0000
# 3 31.2963 0.0410 114.1155 0.0000 -10.9903 0.0000
# 4 0.0000 0.0000 0.0000 21.5295 0.0000 -4.7056
# 5 -15.5676 0.1294 -10.9903 0.0000 51.4314 0.0000
# 6 0.0000 0.0000 0.0000 -4.7056 0.0000 17.2510
#
#
#
# Elastic Compliance Matrix: (Units=1/GPa)
#
#
# Indices 1 2 3 4 5 6 
#
# 1 0.009836 -0.001363 -0.002461 0.000000 0.002455 0.000000
# 2 -0.001363 0.019987 0.000329 0.000000 -0.000393 0.000000
# 3 -0.002461 0.000329 0.009563 0.000000 0.001298 0.000000
# 4 0.000000 0.000000 0.000000 0.049393 0.000000 0.013473
# 5 0.002455 -0.000393 0.001298 0.000000 0.020465 0.000000
# 6 0.000000 0.000000 0.000000 0.013473 0.000000 0.061643
#
#
# Mechanical properties :
#
#
# Convention : Reuss Voigt Hill
#
# Bulk Modulus (GPa) = 30.86806 39.51182 35.18994
# Shear Modulus (GPa) = 26.50057 34.08622 30.29340
#
# Velocity S-wave (km/s) = 3.44636 3.90861 3.68474
# Velocity P-wave (km/s) = 5.44715 6.17079 5.82023
#
# Compressibility (1/GPa) = 0.03239595
#
# Stress axis : x y z
#
# Youngs Moduli (GPa) = 101.66701 50.03182 104.57237
#
# Poissons Ratio (x) = 0.06821 0.25731
# Poissons Ratio (y) = 0.13861 -0.03439
# Poissons Ratio (z) = 0.25016 -0.01646
#
# Static dielectric constant tensor:
#      x y z
#    x 1.839840 0.000000 0.006070 
#    y 0.000000 1.763320 0.000000 
#    z 0.006070 0.000000 1.850280 
# 
# From -- ./inp_files/34139.got.cif
#   From: 2010.05.17/outbox.cif.g08.bks.cpg/sg15_18_cif.got.tgz:34139.got - 2010.06.03 18:47:42.
