data_PCOD9278085
_publ_section_title
;
Structure prediction by ZEFSAII (Michael W. Deem and Ramdas Pophale) SiO2 
 PCOD9278085
Probable space group: C 2/C
;
_chemical_formula_sum "Si O2"
_cell_formula_units_Z 48
_cell_length_a 11.189365
_cell_length_b 9.298384
_cell_length_c 19.558367
_cell_angle_alpha 90.000000
_cell_angle_beta 113.829915
_cell_angle_gamma 90.000000
_cell_volume 1861.432875
_symmetry_space_group_name_H-M "C 2/C"
_symmetry_group_IT_number 15
_symmetry_cell_setting 'monoclinic'
loop_
_space_group_symop_operation_xyz
x,y,z
-x,y,1/2-z
-x,-y,-z
x,-y,1/2+z
1/2+x,1/2+y,z
1/2-x,1/2+y,1/2-z
1/2-x,1/2-y,-z
1/2+x,1/2-y,1/2+z
loop_
_atom_site_type_symbol
_atom_site_label
_atom_site_fract_x
_atom_site_fract_y
_atom_site_fract_z
Si Si1 0.812843 0.915313 0.073809
Si Si2 0.426301 0.411237 0.304784
Si Si3 0.909470 0.474121 0.390085
Si Si4 0.312137 0.001184 0.096413
Si Si5 0.211201 0.375425 0.768530
Si Si6 0.220539 0.709452 0.070751
O O1 0.689098 0.867322 0.092405
O O2 0.823622 0.080630 0.105944
O O3 0.957702 0.859162 0.117556
O O4 0.765105 0.923827 0.984133
O O5 0.500000 0.429962 0.250000
O O6 0.323642 0.282542 0.265746
O O7 0.358097 0.562886 0.307443
O O8 0.849451 0.523413 0.304267
O O9 0.906307 0.618259 0.437319
O O10 0.056207 0.437183 0.406088
O O11 0.346242 0.098309 0.169173
O O12 0.233392 0.863871 0.107737
O O13 0.250000 0.750000 0.000000
#
# Coordination Sequence:
#
# PCOD9278085 Si02
#       6
#     8   8   8   8   8   8
#     4   9  22  43  73 105 152 193 237 322 372 441
#     4  12  25  52  71 107 149 193 257 305 381 444
#     4  10  20  42  66 109 148 192 233 303 370 446
#     4  11  21  41  73 115 147 193 255 302 383 453
#     4  12  27  43  78 103 150 204 248 313 369 462
#     4   8  18  36  67 108 139 192 244 301 369 439
#
# _framework density 25.786584000000001
#
# number of rings (size 3 to 8) (size 9 to 14) (size 15 to 20)
#    1.000    0.667    1.667    3.000    0.000    2.000 
#    0.000    5.833    0.000    0.000    0.000    0.000 
#    0.000    0.000    0.000    0.000    0.000    0.000 
#
# Total GULP energy -133865.342208 kJ/mol
# GULP energy per Si atom -5577.722592 kJ/mol
# Density = 2.572789 g / cm^3
# Si number density = 25.786584 Si / 1000 Ang^3
#
#
#
# Elastic Constant Matrix: (Units=GPa)
#
#
# Indices 1 2 3 4 5 6 
#
# 1 137.8434 38.9049 40.4277 0.0000 -4.2165 0.0000
# 2 38.9049 82.5748 5.4929 0.0000 -8.3750 0.0000
# 3 40.4277 5.4929 155.4534 0.0000 -13.7924 0.0000
# 4 0.0000 0.0000 0.0000 30.9521 0.0000 -5.5042
# 5 -4.2165 -8.3750 -13.7924 0.0000 26.7805 0.0000
# 6 0.0000 0.0000 0.0000 -5.5042 0.0000 39.5762
#
#
#
# Elastic Compliance Matrix: (Units=1/GPa)
#
#
# Indices 1 2 3 4 5 6 
#
# 1 0.009097 -0.004242 -0.002312 0.000000 -0.001085 0.000000
# 2 -0.004242 0.014487 0.000979 0.000000 0.004367 0.000000
# 3 -0.002312 0.000979 0.007329 0.000000 0.003717 0.000000
# 4 0.000000 0.000000 0.000000 0.033127 0.000000 0.004607
# 5 -0.001085 0.004367 0.003717 0.000000 0.040449 0.000000
# 6 0.000000 0.000000 0.000000 0.004607 0.000000 0.025908
#
#
# Mechanical properties :
#
#
# Convention : Reuss Voigt Hill
#
# Bulk Modulus (GPa) = 50.60299 60.61360 55.60830
# Shear Modulus (GPa) = 33.75268 38.86485 36.30876
#
# Velocity S-wave (km/s) = 3.62183 3.88644 3.75647
# Velocity P-wave (km/s) = 6.09562 6.61031 6.35817
#
# Compressibility (1/GPa) = 0.01976168
#
# Stress axis : x y z
#
# Youngs Moduli (GPa) = 109.92814 69.02881 136.43914
#
# Poissons Ratio (x) = 0.29283 0.31547
# Poissons Ratio (y) = 0.46634 -0.13354
# Poissons Ratio (z) = 0.25417 -0.06756
#
# Static dielectric constant tensor:
#      x y z
#    x 2.042530 0.000000 -0.000420 
#    y 0.000000 2.237010 0.000000 
#    z -0.000420 0.000000 2.063740 
# 
# From -- ./inp_files/196600.got.cif
#   From: 2010.05.17/outbox.cif.g08.bks.cpg/sg15_99_cif.got.tgz:196600.got - 2010.06.03 18:47:42.
