data_PCOD9278591
_publ_section_title
;
Structure prediction by ZEFSAII (Michael W. Deem and Ramdas Pophale) SiO2 
 PCOD9278591
Probable space group: C 2/C
;
_chemical_formula_sum "Si O2"
_cell_formula_units_Z 28
_cell_length_a 4.988170
_cell_length_b 16.009667
_cell_length_c 14.916788
_cell_angle_alpha 90.000000
_cell_angle_beta 116.421563
_cell_angle_gamma 90.000000
_cell_volume 1066.807268
_symmetry_space_group_name_H-M "C 2/C"
_symmetry_group_IT_number 15
_symmetry_cell_setting 'monoclinic'
loop_
_space_group_symop_operation_xyz
x,y,z
-x,y,1/2-z
-x,-y,-z
x,-y,1/2+z
1/2+x,1/2+y,z
1/2-x,1/2+y,1/2-z
1/2-x,1/2-y,-z
1/2+x,1/2-y,1/2+z
loop_
_atom_site_type_symbol
_atom_site_label
_atom_site_fract_x
_atom_site_fract_y
_atom_site_fract_z
Si Si1 0.593256 0.074293 0.579590
Si Si2 0.023142 0.772983 0.361477
Si Si3 0.500000 0.472362 0.750000
Si Si4 0.075464 0.835305 0.909796
O O1 0.876552 0.133187 0.599639
O O2 0.312536 0.134186 0.519236
O O3 0.500000 0.000000 0.500000
O O4 0.707240 0.028880 0.686608
O O5 0.300650 0.709921 0.415669
O O6 0.000000 0.774347 0.250000
O O7 0.744572 0.728335 0.367215
O O8 0.468135 0.412678 0.832055
#
# Coordination Sequence:
#
# PCOD9278591 Si02
#       4
#     8   8   4   8
#     4  10  23  42  71  98 140 170 222 274 338 384
#     4  12  22  45  70  97 132 178 223 269 327 398
#     4  10  20  44  64 102 134 178 218 278 328 388
#     4  11  24  44  70  96 134 177 225 269 325 399
#
# _framework density 26.246538999999999
#
# number of rings (size 3 to 8) (size 9 to 14) (size 15 to 20)
#    0.000    1.143    4.286    1.714    0.000    0.000 
#    0.000   31.429    0.000    0.000    0.000    0.000 
#    0.000    0.000    0.000    0.000    0.000    0.000 
#
# Total GULP energy -78317.892520 kJ/mol
# GULP energy per Si atom -5594.135180 kJ/mol
# Density = 2.618680 g / cm^3
# Si number density = 26.246539 Si / 1000 Ang^3
#
#
#
# Elastic Constant Matrix: (Units=GPa)
#
#
# Indices 1 2 3 4 5 6 
#
# 1 101.3845 31.1924 38.8054 0.0000 -23.3613 0.0000
# 2 31.1924 132.5843 82.0566 0.0000 -7.8549 0.0000
# 3 38.8054 82.0566 188.6710 0.0000 22.4373 0.0000
# 4 0.0000 0.0000 0.0000 76.0695 0.0000 11.0739
# 5 -23.3613 -7.8549 22.4373 0.0000 28.3134 0.0000
# 6 0.0000 0.0000 0.0000 11.0739 0.0000 4.5276
#
#
#
# Elastic Compliance Matrix: (Units=1/GPa)
#
#
# Indices 1 2 3 4 5 6 
#
# 1 0.015974 0.000923 -0.005835 0.000000 0.018060 0.000000
# 2 0.000923 0.011846 -0.006429 0.000000 0.009143 0.000000
# 3 -0.005835 -0.006429 0.011130 0.000000 -0.015418 0.000000
# 4 0.000000 0.000000 0.000000 0.020415 0.000000 -0.049931
# 5 0.018060 0.009143 -0.015418 0.000000 0.064975 0.000000
# 6 0.000000 0.000000 0.000000 -0.049931 0.000000 0.342990
#
#
# Mechanical properties :
#
#
# Convention : Reuss Voigt Hill
#
# Bulk Modulus (GPa) = 61.46932 80.74983 71.10958
# Shear Modulus (GPa) = 10.09216 39.82114 24.95665
#
# Velocity S-wave (km/s) = 1.96303 3.89935 3.08694
# Velocity P-wave (km/s) = 5.34872 7.14884 6.31327
#
# Compressibility (1/GPa) = 0.01626828
#
# Stress axis : x y z
#
# Youngs Moduli (GPa) = 62.60103 84.41772 89.84774
#
# Poissons Ratio (x) = -0.07791 0.52423
# Poissons Ratio (y) = -0.05777 0.57764
# Poissons Ratio (z) = 0.36526 0.54273
#
# Static dielectric constant tensor:
#      x y z
#    x 2.018420 0.000000 0.003100 
#    y 0.000000 2.099950 0.000000 
#    z 0.003100 0.000000 2.178360 
# 
# From -- ./inp_files/183652.got.cif
#   From: 2010.05.17/outbox.cif.g08.bks.cpg/sg15_92_cif.got.tgz:183652.got - 2010.06.03 18:47:42.
