data_PCOD9278661
_publ_section_title
;
Structure prediction by ZEFSAII (Michael W. Deem and Ramdas Pophale) SiO2 
 PCOD9278661
Probable space group: C 2/C
;
_chemical_formula_sum "Si O2"
_cell_formula_units_Z 44
_cell_length_a 8.257473
_cell_length_b 11.692347
_cell_length_c 22.589170
_cell_angle_alpha 90.000000
_cell_angle_beta 73.241113
_cell_angle_gamma 90.000000
_cell_volume 2088.334201
_symmetry_space_group_name_H-M "C 2/C"
_symmetry_group_IT_number 15
_symmetry_cell_setting 'monoclinic'
loop_
_space_group_symop_operation_xyz
x,y,z
-x,y,1/2-z
-x,-y,-z
x,-y,1/2+z
1/2+x,1/2+y,z
1/2-x,1/2+y,1/2-z
1/2-x,1/2-y,-z
1/2+x,1/2-y,1/2+z
loop_
_atom_site_type_symbol
_atom_site_label
_atom_site_fract_x
_atom_site_fract_y
_atom_site_fract_z
Si Si1 0.000000 0.782501 0.750000
Si Si2 0.724376 0.523888 0.281886
Si Si3 0.499016 0.925889 0.328649
Si Si4 0.096051 0.404776 0.452391
Si Si5 0.985394 0.969213 0.407759
Si Si6 0.923181 0.182888 0.494639
O O1 0.147763 0.861534 0.761431
O O2 0.939560 0.694993 0.807315
O O3 0.818702 0.454594 0.219977
O O4 0.569885 0.468496 0.334494
O O5 0.871048 0.523189 0.317370
O O6 0.516557 0.913649 0.395727
O O7 0.293559 0.428026 0.427000
O O8 0.000000 0.500000 0.500000
O O9 0.061454 0.281776 0.483973
O O10 0.085108 0.891567 0.444748
O O11 0.975399 0.096632 0.436529
O O12 0.750000 0.250000 0.500000
#
# Coordination Sequence:
#
# PCOD9278661 Si02
#       6
#     4   8   8   8   8   8
#     4  10  20  44  68  90 128 178 210 276 346 390
#     4  10  21  43  69  93 129 170 223 279 337 399
#     4  10  25  44  64 100 136 170 229 278 333 413
#     4  12  24  44  67  98 140 182 225 280 337 406
#     4  11  24  41  68  99 133 177 228 277 341 406
#     4  11  23  43  65  96 138 182 222 279 337 405
#
# _framework density 21.069424999999999
#
# number of rings (size 3 to 8) (size 9 to 14) (size 15 to 20)
#    0.000    1.455    1.818    3.818    2.545    1.455 
#    9.818   14.545    0.000    0.000    0.000    0.000 
#    0.000    0.000    0.000    0.000    0.000    0.000 
#
# Total GULP energy -122878.401531 kJ/mol
# GULP energy per Si atom -5585.381888 kJ/mol
# Density = 2.102147 g / cm^3
# Si number density = 21.069425 Si / 1000 Ang^3
#
#
#
# Elastic Constant Matrix: (Units=GPa)
#
#
# Indices 1 2 3 4 5 6 
#
# 1 110.9354 56.0752 31.8703 0.0000 -14.8289 0.0000
# 2 56.0752 128.4294 38.0379 0.0000 0.7609 0.0000
# 3 31.8703 38.0379 105.4091 0.0000 -4.0902 0.0000
# 4 0.0000 0.0000 0.0000 21.6026 0.0000 14.8739
# 5 -14.8289 0.7609 -4.0902 0.0000 43.3666 0.0000
# 6 0.0000 0.0000 0.0000 14.8739 0.0000 43.3377
#
#
#
# Elastic Compliance Matrix: (Units=1/GPa)
#
#
# Indices 1 2 3 4 5 6 
#
# 1 0.012637 -0.004993 -0.001855 0.000000 0.004234 0.000000
# 2 -0.004993 0.010700 -0.002434 0.000000 -0.002125 0.000000
# 3 -0.001855 -0.002434 0.010943 0.000000 0.000441 0.000000
# 4 0.000000 0.000000 0.000000 0.060614 0.000000 -0.020803
# 5 0.004234 -0.002125 0.000441 0.000000 0.024586 0.000000
# 6 0.000000 0.000000 0.000000 -0.020803 0.000000 0.030214
#
#
# Mechanical properties :
#
#
# Convention : Reuss Voigt Hill
#
# Bulk Modulus (GPa) = 63.62837 66.30451 64.96644
# Shear Modulus (GPa) = 28.81887 36.24741 32.53314
#
# Velocity S-wave (km/s) = 3.70240 4.15225 3.93376
# Velocity P-wave (km/s) = 6.96720 7.38418 7.17872
#
# Compressibility (1/GPa) = 0.01571626
#
# Stress axis : x y z
#
# Youngs Moduli (GPa) = 79.13236 93.45720 91.38282
#
# Poissons Ratio (x) = 0.46667 0.16948
# Poissons Ratio (y) = 0.39514 0.22242
# Poissons Ratio (z) = 0.14676 0.22747
#
# Static dielectric constant tensor:
#      x y z
#    x 1.802610 0.000000 -0.001600 
#    y 0.000000 1.744530 0.000000 
#    z -0.001600 0.000000 1.753450 
# 
# From -- ./inp_files/263048.got.cif
#   From: 2010.05.17/outbox.cif.g08.bks.cpg/sg15_132_cif.got.tgz:263048.got - 2010.06.03 18:47:42.
