data_PCOD9278044
_publ_section_title
;
Structure prediction by ZEFSAII (Michael W. Deem and Ramdas Pophale) SiO2 
 PCOD9278044
Probable space group: C 2/C
;
_chemical_formula_sum "Si O2"
_cell_formula_units_Z 52
_cell_length_a 20.401291
_cell_length_b 8.727331
_cell_length_c 13.700518
_cell_angle_alpha 90.000000
_cell_angle_beta 72.828566
_cell_angle_gamma 90.000000
_cell_volume 2330.628182
_symmetry_space_group_name_H-M "C 2/C"
_symmetry_group_IT_number 15
_symmetry_cell_setting 'monoclinic'
loop_
_space_group_symop_operation_xyz
x,y,z
-x,y,1/2-z
-x,-y,-z
x,-y,1/2+z
1/2+x,1/2+y,z
1/2-x,1/2+y,1/2-z
1/2-x,1/2-y,-z
1/2+x,1/2-y,1/2+z
loop_
_atom_site_type_symbol
_atom_site_label
_atom_site_fract_x
_atom_site_fract_y
_atom_site_fract_z
Si Si1 0.279506 0.064031 0.099404
Si Si2 0.000000 0.002742 0.250000
Si Si3 0.279737 0.265264 0.270719
Si Si4 0.937291 0.085183 0.080918
Si Si5 0.428258 0.070992 0.501439
Si Si6 0.392452 0.740046 0.854702
Si Si7 0.801249 0.056066 0.042883
O O1 0.248799 0.927759 0.181249
O O2 0.360316 0.026539 0.054596
O O3 0.241109 0.051572 0.012255
O O4 0.266473 0.218344 0.165779
O O5 0.948238 0.892309 0.329900
O O6 0.954840 0.086852 0.188178
O O7 0.359888 0.250661 0.262719
O O8 0.244951 0.140306 0.357422
O O9 0.927295 0.261363 0.052834
O O10 0.867876 0.000822 0.074363
O O11 0.000000 0.000000 0.000000
O O12 0.423660 0.108849 0.387877
O O13 0.500000 0.000000 0.500000
O O14 0.331911 0.683631 0.953828
#
# Coordination Sequence:
#
# PCOD9278044 Si02
#       7
#     8   4   8   8   8   8   8
#     4  11  23  43  67  98 129 174 221 273 330 395
#     4  12  24  40  68 104 126 174 234 274 316 396
#     4  11  22  40  68  92 126 170 223 269 330 395
#     4  11  23  42  66  96 128 174 228 271 323 389
#     4  11  23  45  65  93 140 178 211 274 343 396
#     4  10  21  41  67  88 128 179 217 263 337 396
#     4  10  20  42  65  87 127 171 212 267 325 380
#
# _framework density 22.311582000000001
#
# number of rings (size 3 to 8) (size 9 to 14) (size 15 to 20)
#    0.000    1.231    7.692    0.923    6.462    0.000 
#    2.769    0.769    0.000    0.000    0.000    0.000 
#    0.000    0.000    0.000    0.000    0.000    0.000 
#
# Total GULP energy -145176.934430 kJ/mol
# GULP energy per Si atom -5583.728247 kJ/mol
# Density = 2.226080 g / cm^3
# Si number density = 22.311582 Si / 1000 Ang^3
#
#
#
# Elastic Constant Matrix: (Units=GPa)
#
#
# Indices 1 2 3 4 5 6 
#
# 1 153.2989 26.3109 40.3369 0.0000 35.8750 0.0000
# 2 26.3109 33.3873 35.1509 0.0000 6.3996 0.0000
# 3 40.3369 35.1509 100.6456 0.0000 34.0838 0.0000
# 4 0.0000 0.0000 0.0000 32.8061 0.0000 7.8022
# 5 35.8750 6.3996 34.0838 0.0000 30.6443 0.0000
# 6 0.0000 0.0000 0.0000 7.8022 0.0000 36.6728
#
#
#
# Elastic Compliance Matrix: (Units=1/GPa)
#
#
# Indices 1 2 3 4 5 6 
#
# 1 0.010692 -0.010199 0.004483 0.000000 -0.015373 0.000000
# 2 -0.010199 0.060946 -0.027162 0.000000 0.029423 0.000000
# 3 0.004483 -0.027162 0.028046 0.000000 -0.030769 0.000000
# 4 0.000000 0.000000 0.000000 0.032107 0.000000 -0.006831
# 5 -0.015373 0.029423 -0.030769 0.000000 0.078708 0.000000
# 6 0.000000 0.000000 0.000000 -0.006831 0.000000 0.028721
#
#
# Mechanical properties :
#
#
# Convention : Reuss Voigt Hill
#
# Bulk Modulus (GPa) = 29.47472 54.54770 42.01121
# Shear Modulus (GPa) = 15.80855 32.39352 24.10104
#
# Velocity S-wave (km/s) = 2.66472 3.81447 3.29021
# Velocity P-wave (km/s) = 4.76517 6.62582 5.77098
#
# Compressibility (1/GPa) = 0.03392738
#
# Stress axis : x y z
#
# Youngs Moduli (GPa) = 93.53159 16.40795 35.65594
#
# Poissons Ratio (x) = 0.16734 -0.15984
# Poissons Ratio (y) = 0.95390 0.96850
# Poissons Ratio (z) = -0.41930 0.44568
#
# Static dielectric constant tensor:
#      x y z
#    x 2.006860 0.000000 -0.075610 
#    y 0.000000 1.846930 0.000000 
#    z -0.075610 0.000000 1.950600 
# 
# From -- ./inp_files/166304.got.cif
#   From: 2010.05.17/outbox.cif.g08.bks.cpg/sg15_84_cif.got.tgz:166304.got - 2010.06.03 18:47:42.
