data_PCOD9278595
_publ_section_title
;
Structure prediction by ZEFSAII (Michael W. Deem and Ramdas Pophale) SiO2 
 PCOD9278595
Probable space group: C 2/C
;
_chemical_formula_sum "Si O2"
_cell_formula_units_Z 44
_cell_length_a 9.945440
_cell_length_b 13.907421
_cell_length_c 25.513479
_cell_angle_alpha 90.000000
_cell_angle_beta 145.963419
_cell_angle_gamma 90.000000
_cell_volume 1975.207553
_symmetry_space_group_name_H-M "C 2/C"
_symmetry_group_IT_number 15
_symmetry_cell_setting 'monoclinic'
loop_
_space_group_symop_operation_xyz
x,y,z
-x,y,1/2-z
-x,-y,-z
x,-y,1/2+z
1/2+x,1/2+y,z
1/2-x,1/2+y,1/2-z
1/2-x,1/2-y,-z
1/2+x,1/2-y,1/2+z
loop_
_atom_site_type_symbol
_atom_site_label
_atom_site_fract_x
_atom_site_fract_y
_atom_site_fract_z
Si Si1 0.500000 0.134173 0.750000
Si Si2 0.998581 0.243738 0.950283
Si Si3 0.227549 0.401369 0.669815
Si Si4 0.419980 0.907653 0.335891
Si Si5 0.793703 0.309123 0.726343
Si Si6 0.100002 0.159035 0.472565
O O1 0.751395 0.191480 0.847212
O O2 0.569802 0.071861 0.722419
O O3 0.917732 0.355292 0.924954
O O4 0.033222 0.195701 0.018035
O O5 0.250000 0.250000 0.000000
O O6 0.500000 0.372796 0.750000
O O7 0.216413 0.514276 0.674637
O O8 0.140797 0.350668 0.695877
O O9 0.309986 0.800097 0.302763
O O10 0.694218 0.913678 0.444326
O O11 0.578794 0.370568 0.630822
O O12 0.000000 0.308042 0.750000
O O13 0.250000 0.250000 0.500000
#
# Coordination Sequence:
#
# PCOD9278595 Si02
#       6
#     4   8   8   8   8   8
#     4  10  20  44  64  88 138 174 210 276 322 384
#     4  11  21  41  69  95 124 175 216 261 330 390
#     4  12  23  42  67  96 129 172 219 269 323 388
#     4  10  22  40  65  91 130 168 221 263 327 380
#     4  11  22  41  64  94 129 170 211 268 328 387
#     4   9  20  40  61  87 128 167 207 264 321 381
#
# _framework density 22.276140999999999
#
# number of rings (size 3 to 8) (size 9 to 14) (size 15 to 20)
#    0.000    1.455    2.727    3.818    1.273    0.000 
#    3.273    7.273    0.000    0.000    0.000    0.000 
#    0.000    0.000    0.000    0.000    0.000    0.000 
#
# Total GULP energy -122658.471074 kJ/mol
# GULP energy per Si atom -5575.385049 kJ/mol
# Density = 2.222544 g / cm^3
# Si number density = 22.276141 Si / 1000 Ang^3
#
#
#
# Elastic Constant Matrix: (Units=GPa)
#
#
# Indices 1 2 3 4 5 6 
#
# 1 75.0726 -13.8085 1.7412 0.0000 26.4584 0.0000
# 2 -13.8085 40.6033 -0.1803 0.0000 0.5318 0.0000
# 3 1.7412 -0.1803 68.9741 -0.0001 2.9071 0.0001
# 4 0.0000 0.0000 -0.0001 11.7566 0.0000 2.0764
# 5 26.4584 0.5318 2.9071 0.0000 36.6680 0.0000
# 6 0.0000 0.0000 0.0001 2.0764 0.0000 13.5667
#
#
#
# Elastic Compliance Matrix: (Units=1/GPa)
#
#
# Indices 1 2 3 4 5 6 
#
# 1 0.019601 0.006853 0.000124 0.000000 -0.014253 0.000000
# 2 0.006853 0.027030 0.000123 0.000000 -0.005347 0.000000
# 3 0.000124 0.000123 0.014548 0.000000 -0.001245 0.000000
# 4 0.000000 0.000000 0.000000 0.087422 0.000000 -0.013380
# 5 -0.014253 -0.005347 -0.001245 0.000000 0.037732 0.000000
# 6 0.000000 0.000000 0.000000 -0.013380 0.000000 0.075758
#
#
# Mechanical properties :
#
#
# Convention : Reuss Voigt Hill
#
# Bulk Modulus (GPa) = 13.26621 17.79495 15.53058
# Shear Modulus (GPa) = 18.31387 25.52477 21.91932
#
# Velocity S-wave (km/s) = 2.87039 3.38869 3.14025
# Velocity P-wave (km/s) = 4.11750 4.82873 4.48723
#
# Compressibility (1/GPa) = 0.07537946
#
# Stress axis : x y z
#
# Youngs Moduli (GPa) = 51.01682 36.99617 68.73869
#
# Poissons Ratio (x) = -0.25355 -0.00851
# Poissons Ratio (y) = -0.34964 -0.00846
# Poissons Ratio (z) = -0.00632 -0.00455
#
# Static dielectric constant tensor:
#      x y z
#    x 1.779820 0.000000 -0.006630 
#    y 0.000000 1.868150 0.000000 
#    z -0.006630 0.000000 1.857000 
# 
# From -- ./inp_files/189343.got.cif
#   From: 2010.05.17/outbox.cif.g08.bks.cpg/sg15_95_cif.got.tgz:189343.got - 2010.06.03 18:47:42.
