data_PCOD9278284
_publ_section_title
;
Structure prediction by ZEFSAII (Michael W. Deem and Ramdas Pophale) SiO2 
 PCOD9278284
Probable space group: C 2/C
;
_chemical_formula_sum "Si O2"
_cell_formula_units_Z 48
_cell_length_a 8.185970
_cell_length_b 11.632919
_cell_length_c 20.755940
_cell_angle_alpha 90.000000
_cell_angle_beta 93.050530
_cell_angle_gamma 90.000000
_cell_volume 1973.719462
_symmetry_space_group_name_H-M "C 2/C"
_symmetry_group_IT_number 15
_symmetry_cell_setting 'monoclinic'
loop_
_space_group_symop_operation_xyz
x,y,z
-x,y,1/2-z
-x,-y,-z
x,-y,1/2+z
1/2+x,1/2+y,z
1/2-x,1/2+y,1/2-z
1/2-x,1/2-y,-z
1/2+x,1/2-y,1/2+z
loop_
_atom_site_type_symbol
_atom_site_label
_atom_site_fract_x
_atom_site_fract_y
_atom_site_fract_z
Si Si1 0.387894 0.727894 0.057572
Si Si2 0.639487 0.850131 0.866007
Si Si3 0.239047 0.094826 0.631507
Si Si4 0.319383 0.356151 0.229561
Si Si5 0.710646 0.031488 0.118797
Si Si6 0.399110 0.354451 0.048003
O O1 0.386695 0.852392 0.091357
O O2 0.329506 0.640105 0.111050
O O3 0.529596 0.666311 0.020818
O O4 0.250000 0.750000 0.000000
O O5 0.658047 0.766733 0.804785
O O6 0.462952 0.907672 0.875017
O O7 0.667097 0.764968 0.925985
O O8 0.755033 0.958696 0.862961
O O9 0.263216 0.147677 0.702776
O O10 0.061513 0.123467 0.596590
O O11 0.500000 0.400754 0.250000
O O12 0.239660 0.446018 0.178852
O O13 0.764508 0.952743 0.057990
#
# Coordination Sequence:
#
# PCOD9278284 Si02
#       6
#     8   8   8   8   8   8
#     4  10  20  42  69  97 133 180 218 268 336 394
#     4  11  24  42  68  96 134 170 220 276 327 392
#     4  11  23  40  69  96 128 182 217 270 337 387
#     4  11  23  43  65  94 132 177 221 273 333 390
#     4  11  21  41  72  96 130 179 218 275 337 386
#     4  10  22  45  66  95 135 173 217 273 331 389
#
# _framework density 24.319565000000001
#
# number of rings (size 3 to 8) (size 9 to 14) (size 15 to 20)
#    0.000    1.333    6.667    0.500    4.667    0.667 
#    6.000    0.833    3.667    0.000    0.000    0.000 
#    0.000    0.000    0.000    0.000    0.000    0.000 
#
# Total GULP energy -134155.180599 kJ/mol
# GULP energy per Si atom -5589.799192 kJ/mol
# Density = 2.426421 g / cm^3
# Si number density = 24.319565 Si / 1000 Ang^3
#
#
#
# Elastic Constant Matrix: (Units=GPa)
#
#
# Indices 1 2 3 4 5 6 
#
# 1 66.1245 40.8559 27.3767 0.0000 7.2093 0.0000
# 2 40.8559 162.5907 43.2430 0.0000 -4.3453 0.0000
# 3 27.3767 43.2430 111.3108 0.0000 -22.0906 0.0000
# 4 0.0000 0.0000 0.0000 24.0346 0.0000 -14.6647
# 5 7.2093 -4.3453 -22.0906 0.0000 16.8647 0.0000
# 6 0.0000 0.0000 0.0000 -14.6647 0.0000 45.1343
#
#
#
# Elastic Compliance Matrix: (Units=1/GPa)
#
#
# Indices 1 2 3 4 5 6 
#
# 1 0.023851 -0.004284 -0.008708 0.000000 -0.022705 0.000000
# 2 -0.004284 0.007697 -0.001594 0.000000 0.001727 0.000000
# 3 -0.008708 -0.001594 0.016758 0.000000 0.025263 0.000000
# 4 0.000000 0.000000 0.000000 0.051894 0.000000 0.016861
# 5 -0.022705 0.001727 0.025263 0.000000 0.102538 0.000000
# 6 0.000000 0.000000 0.000000 0.016861 0.000000 0.027634
#
#
# Mechanical properties :
#
#
# Convention : Reuss Voigt Hill
#
# Bulk Modulus (GPa) = 52.26145 62.55300 57.40723
# Shear Modulus (GPa) = 18.80251 32.44343 25.62297
#
# Velocity S-wave (km/s) = 2.78356 3.65642 3.24943
# Velocity P-wave (km/s) = 5.64509 6.60326 6.14289
#
# Compressibility (1/GPa) = 0.01913456
#
# Stress axis : x y z
#
# Youngs Moduli (GPa) = 41.92765 129.92134 59.67170
#
# Poissons Ratio (x) = 0.55659 0.51961
# Poissons Ratio (y) = 0.17962 0.09511
# Poissons Ratio (z) = 0.36510 0.20707
#
# Static dielectric constant tensor:
#      x y z
#    x 1.983830 0.000000 -0.017820 
#    y 0.000000 1.919580 0.000000 
#    z -0.017820 0.000000 1.986900 
# 
# From -- ./inp_files/263077.got.cif
#   From: 2010.05.17/outbox.cif.g08.bks.cpg/sg15_132_cif.got.tgz:263077.got - 2010.06.03 18:47:42.
