data_PCOD9278555
_publ_section_title
;
Structure prediction by ZEFSAII (Michael W. Deem and Ramdas Pophale) SiO2 
 PCOD9278555
Probable space group: C 2/C
;
_chemical_formula_sum "Si O2"
_cell_formula_units_Z 48
_cell_length_a 14.326593
_cell_length_b 13.902305
_cell_length_c 9.997251
_cell_angle_alpha 90.000000
_cell_angle_beta 86.816449
_cell_angle_gamma 90.000000
_cell_volume 1988.106240
_symmetry_space_group_name_H-M "C 2/C"
_symmetry_group_IT_number 15
_symmetry_cell_setting 'monoclinic'
loop_
_space_group_symop_operation_xyz
x,y,z
-x,y,1/2-z
-x,-y,-z
x,-y,1/2+z
1/2+x,1/2+y,z
1/2-x,1/2+y,1/2-z
1/2-x,1/2-y,-z
1/2+x,1/2-y,1/2+z
loop_
_atom_site_type_symbol
_atom_site_label
_atom_site_fract_x
_atom_site_fract_y
_atom_site_fract_z
Si Si1 0.023449 0.297767 0.090416
Si Si2 0.550042 0.395431 0.006195
Si Si3 0.775175 0.620833 0.990865
Si Si4 0.340687 0.104174 0.505766
Si Si5 0.720025 0.386706 0.781863
Si Si6 0.693500 0.389009 0.226783
O O1 0.013837 0.194698 0.021152
O O2 0.000000 0.290449 0.250000
O O3 0.126143 0.335731 0.057397
O O4 0.946461 0.370852 0.032604
O O5 0.630910 0.380016 0.886616
O O6 0.500000 0.500000 0.000000
O O7 0.600224 0.384711 0.146118
O O8 0.805525 0.506827 0.000334
O O9 0.768798 0.844250 0.866157
O O10 0.702048 0.642175 0.878397
O O11 0.309450 0.142487 0.363490
O O12 0.277033 0.151489 0.627237
O O13 0.716965 0.498973 0.745718
#
# Coordination Sequence:
#
# PCOD9278555 Si02
#       6
#     8   8   8   8   8   8
#     4  12  25  43  71 112 145 190 243 300 362 434
#     4  11  27  48  70  96 144 197 248 296 354 430
#     4  10  20  43  74 110 143 181 236 306 367 436
#     4   9  19  41  72 104 146 186 230 294 373 441
#     4   9  21  42  75 102 139 188 240 289 370 426
#     4   9  19  42  71 100 139 194 236 288 370 428
#
# _framework density 24.143578000000002
#
# number of rings (size 3 to 8) (size 9 to 14) (size 15 to 20)
#    0.000    2.000    1.667    1.500    2.333    3.333 
#    0.000    8.333    0.000    0.000    0.000    0.000 
#    0.000    0.000    0.000    0.000    0.000    0.000 
#
# Total GULP energy -134109.819087 kJ/mol
# GULP energy per Si atom -5587.909129 kJ/mol
# Density = 2.408863 g / cm^3
# Si number density = 24.143578 Si / 1000 Ang^3
#
#
#
# Elastic Constant Matrix: (Units=GPa)
#
#
# Indices 1 2 3 4 5 6 
#
# 1 126.9586 20.0465 110.5196 0.0000 9.3639 0.0000
# 2 20.0465 96.1889 49.0615 0.0000 9.1099 0.0000
# 3 110.5196 49.0615 241.8165 0.0000 27.1489 0.0000
# 4 0.0000 0.0000 0.0000 13.2953 0.0000 16.5483
# 5 9.3639 9.1099 27.1489 0.0000 32.6909 0.0000
# 6 0.0000 0.0000 0.0000 16.5483 0.0000 14.3684
#
#
#
# Elastic Compliance Matrix: (Units=1/GPa)
#
#
# Indices 1 2 3 4 5 6 
#
# 1 0.013143 0.000307 -0.006216 0.000000 0.001312 0.000000
# 2 0.000307 0.011663 -0.002351 0.000000 -0.001385 0.000000
# 3 -0.006216 -0.002351 0.007918 0.000000 -0.004140 0.000000
# 4 0.000000 0.000000 0.000000 -0.173502 0.000000 0.199825
# 5 0.001312 -0.001385 -0.004140 0.000000 0.034038 0.000000
# 6 0.000000 0.000000 0.000000 0.199825 0.000000 -0.160544
#
#
# Mechanical properties :
#
#
# Convention : Reuss Voigt Hill
#
# Bulk Modulus (GPa) = 61.71580 91.57990 76.64785
# Shear Modulus (GPa) = -20.37798 31.09334 5.35768
#
# Velocity S-wave (km/s) = -2.90838 3.59256 1.49128
# Velocity P-wave (km/s) = 3.78672 7.43117 5.89753
#
# Compressibility (1/GPa) = 0.01620331
#
# Stress axis : x y z
#
# Youngs Moduli (GPa) = 76.08727 85.74443 126.28857
#
# Poissons Ratio (x) = -0.02636 0.78507
# Poissons Ratio (y) = -0.02339 0.29692
# Poissons Ratio (z) = 0.47299 0.20160
#
# Static dielectric constant tensor:
#      x y z
#    x 1.917440 0.000000 -0.011190 
#    y 0.000000 2.105450 0.000000 
#    z -0.011190 0.000000 1.973280 
# 
# From -- ./inp_files/103846.got.cif
#   From: 2010.05.17/outbox.cif.g08.bks.cpg/sg15_52_cif.got.tgz:103846.got - 2010.06.03 18:47:42.
