data_PCOD9278795
_publ_section_title
;
Structure prediction by ZEFSAII (Michael W. Deem and Ramdas Pophale) SiO2 
 PCOD9278795
Probable space group: C 2/C
;
_chemical_formula_sum "Si O2"
_cell_formula_units_Z 44
_cell_length_a 8.842188
_cell_length_b 28.662491
_cell_length_c 8.603031
_cell_angle_alpha 90.000000
_cell_angle_beta 68.304931
_cell_angle_gamma 90.000000
_cell_volume 2025.898676
_symmetry_space_group_name_H-M "C 2/C"
_symmetry_group_IT_number 15
_symmetry_cell_setting 'monoclinic'
loop_
_space_group_symop_operation_xyz
x,y,z
-x,y,1/2-z
-x,-y,-z
x,-y,1/2+z
1/2+x,1/2+y,z
1/2-x,1/2+y,1/2-z
1/2-x,1/2-y,-z
1/2+x,1/2-y,1/2+z
loop_
_atom_site_type_symbol
_atom_site_label
_atom_site_fract_x
_atom_site_fract_y
_atom_site_fract_z
Si Si1 0.941142 0.303158 0.941275
Si Si2 0.000000 0.496381 0.750000
Si Si3 0.232600 0.465213 0.902251
Si Si4 0.500000 0.852400 0.250000
Si Si5 0.446421 0.305339 0.440448
Si Si6 0.000000 0.043747 0.750000
Si Si7 0.143554 0.111647 0.956592
O O1 0.994546 0.248825 0.938133
O O2 0.000000 0.321103 0.750000
O O3 0.747270 0.306235 0.992185
O O4 0.993951 0.326289 0.083996
O O5 0.135062 0.465266 0.780439
O O6 0.095935 0.526860 0.587056
O O7 0.353033 0.509394 0.854112
O O8 0.326343 0.418051 0.900513
O O9 0.675989 0.877314 0.178308
O O10 0.500000 0.321629 0.250000
O O11 0.539569 0.341307 0.515594
O O12 0.944995 0.076261 0.628719
#
# Coordination Sequence:
#
# PCOD9278795 Si02
#       7
#     8   4   8   4   8   4   8
#     4  10  23  46  75 104 140 188 234 283 370 424
#     4  10  23  44  70  92 133 185 230 284 348 417
#     4  11  24  45  68  99 133 188 230 287 353 412
#     4  12  25  46  71 106 142 190 227 302 360 431
#     4  10  20  46  72 101 142 184 227 297 350 426
#     4  12  24  44  71  96 137 189 231 288 348 422
#     4  12  24  43  71 101 141 185 238 285 363 413
#
# _framework density 21.718755999999999
#
# number of rings (size 3 to 8) (size 9 to 14) (size 15 to 20)
#    0.000    1.091    4.545    1.091    2.545    0.727 
#    4.909    0.000    0.000    0.000    0.000    0.000 
#    0.000    0.000    0.000    0.000    0.000    0.000 
#
# Total GULP energy -122858.780262 kJ/mol
# GULP energy per Si atom -5584.490012 kJ/mol
# Density = 2.166932 g / cm^3
# Si number density = 21.718756 Si / 1000 Ang^3
#
#
#
# Elastic Constant Matrix: (Units=GPa)
#
#
# Indices 1 2 3 4 5 6 
#
# 1 110.9974 53.6372 17.3254 0.0000 19.1681 0.0000
# 2 53.6372 97.2822 14.2406 0.0000 16.4507 0.0000
# 3 17.3254 14.2406 76.6752 0.0000 7.2711 0.0000
# 4 0.0000 0.0000 0.0000 19.8855 0.0000 6.4096
# 5 19.1681 16.4507 7.2711 0.0000 42.7783 0.0000
# 6 0.0000 0.0000 0.0000 6.4096 0.0000 -8.5705
#
#
#
# Elastic Compliance Matrix: (Units=1/GPa)
#
#
# Indices 1 2 3 4 5 6 
#
# 1 0.012828 -0.006345 -0.001429 0.000000 -0.003065 0.000000
# 2 -0.006345 0.014347 -0.000993 0.000000 -0.002505 0.000000
# 3 -0.001429 -0.000993 0.013673 0.000000 -0.001302 0.000000
# 4 0.000000 0.000000 0.000000 0.040520 0.000000 0.030304
# 5 -0.003065 -0.002505 -0.001302 0.000000 0.025934 0.000000
# 6 0.000000 0.000000 0.000000 0.030304 0.000000 -0.094016
#
#
# Mechanical properties :
#
#
# Convention : Reuss Voigt Hill
#
# Bulk Modulus (GPa) = 42.89673 50.59570 46.74621
# Shear Modulus (GPa) = 129.56015 24.13543 76.84779
#
# Velocity S-wave (km/s) = 7.73195 3.33719 5.95483
# Velocity P-wave (km/s) = 9.97520 6.18025 8.29760
#
# Compressibility (1/GPa) = 0.02331180
#
# Stress axis : x y z
#
# Youngs Moduli (GPa) = 77.95587 69.70162 73.13721
#
# Poissons Ratio (x) = 0.44227 0.10455
# Poissons Ratio (y) = 0.49464 0.07265
# Poissons Ratio (z) = 0.11143 0.06923
#
# Static dielectric constant tensor:
#      x y z
#    x 1.697560 0.000000 -0.010390 
#    y 0.000000 1.807550 0.000000 
#    z -0.010390 0.000000 1.799110 
# 
# From -- ./inp_files/25489.got.cif
#   From: 2010.05.17/outbox.cif.g08.bks.cpg/sg15_13_cif.got.tgz:25489.got - 2010.06.03 18:47:42.
