data_PCOD9278708
_publ_section_title
;
Structure prediction by ZEFSAII (Michael W. Deem and Ramdas Pophale) SiO2 
 PCOD9278708
Probable space group: C 2/C
;
_chemical_formula_sum "Si O2"
_cell_formula_units_Z 52
_cell_length_a 24.567886
_cell_length_b 4.968277
_cell_length_c 20.046372
_cell_angle_alpha 90.000000
_cell_angle_beta 127.371813
_cell_angle_gamma 90.000000
_cell_volume 1944.553385
_symmetry_space_group_name_H-M "C 2/C"
_symmetry_group_IT_number 15
_symmetry_cell_setting 'monoclinic'
loop_
_space_group_symop_operation_xyz
x,y,z
-x,y,1/2-z
-x,-y,-z
x,-y,1/2+z
1/2+x,1/2+y,z
1/2-x,1/2+y,1/2-z
1/2-x,1/2-y,-z
1/2+x,1/2-y,1/2+z
loop_
_atom_site_type_symbol
_atom_site_label
_atom_site_fract_x
_atom_site_fract_y
_atom_site_fract_z
Si Si1 0.984960 0.675640 0.924338
Si Si2 0.950558 0.175280 0.582996
Si Si3 0.809777 0.964318 0.031398
Si Si4 0.239234 0.162372 0.633489
Si Si5 0.655286 0.445320 0.692606
Si Si6 0.137660 0.255913 0.802077
Si Si7 0.500000 0.757425 0.750000
O O1 0.020674 0.476905 0.898085
O O2 0.903527 0.722736 0.859098
O O3 0.024415 0.959834 0.951891
O O4 0.000000 0.500000 0.000000
O O5 0.869673 0.175199 0.532351
O O6 0.983622 0.067090 0.675659
O O7 0.788349 0.204298 0.963619
O O8 0.750000 0.750000 0.000000
O O9 0.841943 0.983233 0.130129
O O10 0.181332 0.048165 0.640746
O O11 0.297444 0.942305 0.661876
O O12 0.278477 0.370032 0.712128
O O13 0.618846 0.656098 0.714478
O O14 0.072183 0.397202 0.787036
#
# Coordination Sequence:
#
# PCOD9278708 Si02
#       7
#     8   8   8   8   8   8   4
#     4  12  27  46  73 105 149 195 250 306 380 448
#     4  11  24  47  71 107 144 194 244 312 372 446
#     4   9  22  46  70 101 146 188 253 306 383 447
#     4  11  23  42  65 102 138 188 237 309 367 450
#     4  12  24  40  71 100 143 188 247 299 378 442
#     4  10  21  44  64 100 136 184 242 298 370 436
#     4  10  20  44  72  98 142 182 250 298 366 438
#
# _framework density 26.741356
#
# number of rings (size 3 to 8) (size 9 to 14) (size 15 to 20)
#    0.000    1.231    3.077    2.308    0.000    2.462 
#   22.154    0.000    0.000    0.000    0.000    0.000 
#    0.000    0.000    0.000    0.000    0.000    0.000 
#
# Total GULP energy -145149.258142 kJ/mol
# GULP energy per Si atom -5582.663775 kJ/mol
# Density = 2.668049 g / cm^3
# Si number density = 26.741356 Si / 1000 Ang^3
#
#
#
# Elastic Constant Matrix: (Units=GPa)
#
#
# Indices 1 2 3 4 5 6 
#
# 1 200.0511 43.0743 38.9986 0.0029 0.5598 0.0031
# 2 43.0743 89.9198 7.4557 0.0112 3.8156 0.0019
# 3 38.9986 7.4557 83.2214 0.0068 -20.7651 0.0026
# 4 0.0029 0.0112 0.0068 30.1029 0.0002 6.1731
# 5 0.5598 3.8156 -20.7651 0.0002 59.5084 0.0001
# 6 0.0031 0.0019 0.0026 6.1731 0.0001 23.4566
#
#
#
# Elastic Compliance Matrix: (Units=1/GPa)
#
#
# Indices 1 2 3 4 5 6 
#
# 1 0.006131 -0.002663 -0.002855 0.000001 -0.000883 -0.000001
# 2 -0.002663 0.012436 -0.000065 -0.000004 -0.000795 0.000001
# 3 -0.002855 -0.000065 0.014642 -0.000003 0.005140 0.000000
# 4 0.000001 -0.000004 -0.000003 0.035114 -0.000001 -0.009241
# 5 -0.000883 -0.000795 0.005140 -0.000001 0.018657 0.000000
# 6 -0.000001 0.000001 0.000000 -0.009241 0.000000 0.045064
#
#
# Mechanical properties :
#
#
# Convention : Reuss Voigt Hill
#
# Bulk Modulus (GPa) = 45.36274 61.36105 53.36189
# Shear Modulus (GPa) = 33.20992 41.52451 37.36721
#
# Velocity S-wave (km/s) = 3.52787 3.94486 3.74218
# Velocity P-wave (km/s) = 5.79611 6.61401 6.21852
#
# Compressibility (1/GPa) = 0.02204453
#
# Stress axis : x y z
#
# Youngs Moduli (GPa) = 163.10345 80.41391 68.29496
#
# Poissons Ratio (x) = 0.21412 0.19498
# Poissons Ratio (y) = 0.43431 0.00441
# Poissons Ratio (z) = 0.46564 0.00520
#
# Static dielectric constant tensor:
#      x y z
#    x 2.654220 0.000050 -0.390460 
#    y 0.000050 2.186360 -0.000030 
#    z -0.390460 -0.000030 2.477230 
# 
# From -- ./inp_files/256811.got.cif
#   From: 2010.05.17/outbox.cif.g08.bks.cpg/sg15_129_cif.got.tgz:256811.got - 2010.06.03 18:47:42.
