data_PCOD9278952
_publ_section_title
;
Structure prediction by ZEFSAII (Michael W. Deem and Ramdas Pophale) SiO2 
 PCOD9278952
Probable space group: C 2/C
;
_chemical_formula_sum "Si O2"
_cell_formula_units_Z 52
_cell_length_a 26.426085
_cell_length_b 17.621508
_cell_length_c 8.666313
_cell_angle_alpha 90.000000
_cell_angle_beta 151.880273
_cell_angle_gamma 90.000000
_cell_volume 1902.050559
_symmetry_space_group_name_H-M "C 2/C"
_symmetry_group_IT_number 15
_symmetry_cell_setting 'monoclinic'
loop_
_space_group_symop_operation_xyz
x,y,z
-x,y,1/2-z
-x,-y,-z
x,-y,1/2+z
1/2+x,1/2+y,z
1/2-x,1/2+y,1/2-z
1/2-x,1/2-y,-z
1/2+x,1/2-y,1/2+z
loop_
_atom_site_type_symbol
_atom_site_label
_atom_site_fract_x
_atom_site_fract_y
_atom_site_fract_z
Si Si1 0.500000 0.606751 0.250000
Si Si2 0.332285 0.034748 0.873535
Si Si3 0.357208 0.862539 0.950332
Si Si4 0.366562 0.664919 0.484813
Si Si5 0.623781 0.712400 0.347320
Si Si6 0.831349 0.009177 0.321082
Si Si7 0.630777 0.183261 0.374569
O O1 0.548590 0.657027 0.244650
O O2 0.595548 0.552458 0.565599
O O3 0.386592 0.951728 0.034529
O O4 0.225803 0.032740 0.692629
O O5 0.274319 0.039863 0.552947
O O6 0.398298 0.107299 0.107444
O O7 0.235023 0.854390 0.678801
O O8 0.372553 0.834697 0.816146
O O9 0.407949 0.800124 0.200019
O O10 0.356936 0.692291 0.280259
O O11 0.404399 0.579010 0.568024
O O12 0.421158 0.737772 0.708365
O O13 0.743489 0.699973 0.743660
#
# Coordination Sequence:
#
# PCOD9278952 Si02
#       7
#     4   8   8   8   8   8   8
#     4  12  24  40  60  80 130 172 198 228 284 368
#     4  11  20  35  57  88 116 147 193 251 306 345
#     4  10  21  34  58  83 116 148 193 257 301 346
#     4  10  21  33  55  82 116 150 196 248 291 350
#     4  11  21  36  54  83 112 161 199 232 292 354
#     4  11  22  36  52  85 119 158 199 231 290 358
#     4  11  19  36  58  84 118 149 192 252 309 345
#
# _framework density 27.338916000000001
#
# number of rings (size 3 to 8) (size 9 to 14) (size 15 to 20)
#    0.000    1.231    4.615    3.692    2.154    3.692 
#    0.000    0.000    0.000    0.000    0.000    5.385 
#    0.000    0.000    0.000    0.000    0.000    0.000 
#
# Total GULP energy -145411.820516 kJ/mol
# GULP energy per Si atom -5592.762328 kJ/mol
# Density = 2.727669 g / cm^3
# Si number density = 27.338916 Si / 1000 Ang^3
#
#
#
# Elastic Constant Matrix: (Units=GPa)
#
#
# Indices 1 2 3 4 5 6 
#
# 1 87.0640 14.5597 17.1024 0.0000 -5.8653 0.0000
# 2 14.5597 235.5674 34.5472 0.0000 -11.3412 0.0000
# 3 17.1024 34.5472 59.9539 0.0000 -18.9013 0.0000
# 4 0.0000 0.0000 0.0000 32.6257 0.0000 -19.7149
# 5 -5.8653 -11.3412 -18.9013 0.0000 37.2804 0.0000
# 6 0.0000 0.0000 0.0000 -19.7149 0.0000 26.2877
#
#
#
# Elastic Compliance Matrix: (Units=1/GPa)
#
#
# Indices 1 2 3 4 5 6 
#
# 1 0.012184 -0.000265 -0.003266 0.000000 0.000180 0.000000
# 2 -0.000265 0.004643 -0.002580 0.000000 0.000063 0.000000
# 3 -0.003266 -0.002580 0.022244 0.000000 0.009979 0.000000
# 4 0.000000 0.000000 0.000000 0.056053 0.000000 0.042038
# 5 0.000180 0.000063 0.009979 0.000000 0.031931 0.000000
# 6 0.000000 0.000000 0.000000 0.042038 0.000000 0.069568
#
#
# Mechanical properties :
#
#
# Convention : Reuss Voigt Hill
#
# Bulk Modulus (GPa) = 37.24632 57.22266 47.23449
# Shear Modulus (GPa) = 22.95747 40.33049 31.64398
#
# Velocity S-wave (km/s) = 2.90096 3.84501 3.40585
# Velocity P-wave (km/s) = 4.98741 6.37874 5.72550
#
# Compressibility (1/GPa) = 0.02684829
#
# Stress axis : x y z
#
# Youngs Moduli (GPa) = 82.07584 215.38530 44.95661
#
# Poissons Ratio (x) = 0.05717 0.14682
# Poissons Ratio (y) = 0.02179 0.11598
# Poissons Ratio (z) = 0.26804 0.55567
#
# Static dielectric constant tensor:
#      x y z
#    x 2.064290 0.000000 0.124180 
#    y 0.000000 2.162100 0.000000 
#    z 0.124180 0.000000 2.386560 
# 
# From -- ./inp_files/70419.got.cif
#   From: 2010.05.17/outbox.cif.g08.bks.cpg/sg15_36_cif.got.tgz:70419.got - 2010.06.03 18:47:42.
