data_PCOD9278261
_publ_section_title
;
Structure prediction by ZEFSAII (Michael W. Deem and Ramdas Pophale) SiO2 
 PCOD9278261
Probable space group: C 2/C
;
_chemical_formula_sum "Si O2"
_cell_formula_units_Z 44
_cell_length_a 11.008393
_cell_length_b 20.179368
_cell_length_c 11.391391
_cell_angle_alpha 90.000000
_cell_angle_beta 55.615196
_cell_angle_gamma 90.000000
_cell_volume 2088.337957
_symmetry_space_group_name_H-M "C 2/C"
_symmetry_group_IT_number 15
_symmetry_cell_setting 'monoclinic'
loop_
_space_group_symop_operation_xyz
x,y,z
-x,y,1/2-z
-x,-y,-z
x,-y,1/2+z
1/2+x,1/2+y,z
1/2-x,1/2+y,1/2-z
1/2-x,1/2-y,-z
1/2+x,1/2-y,1/2+z
loop_
_atom_site_type_symbol
_atom_site_label
_atom_site_fract_x
_atom_site_fract_y
_atom_site_fract_z
Si Si1 0.189610 0.113699 0.356964
Si Si2 0.000000 0.064294 0.250000
Si Si3 0.830222 0.714489 0.118397
Si Si4 0.090689 0.782949 0.079381
Si Si5 0.663002 0.518641 0.960444
Si Si6 0.827118 0.344989 0.363288
O O1 0.302817 0.165904 0.241925
O O2 0.113045 0.144639 0.512512
O O3 0.071124 0.106280 0.315953
O O4 0.253951 0.042984 0.360092
O O5 0.869872 0.022577 0.382285
O O6 0.728302 0.780045 0.176115
O O7 0.994354 0.741971 0.038537
O O8 0.802944 0.675229 0.012821
O O9 0.000000 0.784322 0.250000
O O10 0.250000 0.750000 0.000000
O O11 0.733850 0.588788 0.887159
O O12 0.500000 0.500000 0.000000
O O13 0.000000 0.356397 0.250000
#
# Coordination Sequence:
#
# PCOD9278261 Si02
#       6
#     8   4   8   8   8   8
#     4  11  23  42  71 100 138 183 236 291 355 420
#     4  10  20  42  68  98 132 178 234 292 342 414
#     4  11  23  44  73 104 142 185 235 305 360 421
#     4  12  26  46  67 104 147 194 239 289 361 441
#     4  10  22  41  66  98 140 181 228 282 363 424
#     4  11  24  43  74 110 139 179 245 306 360 425
#
# _framework density 21.069386000000002
#
# number of rings (size 3 to 8) (size 9 to 14) (size 15 to 20)
#    0.000    1.091    3.636    3.273    5.091    0.000 
#    3.273    0.909    0.000    0.000    0.000    0.000 
#    0.000    0.000    0.000    0.000    0.000    0.000 
#
# Total GULP energy -122791.780695 kJ/mol
# GULP energy per Si atom -5581.444577 kJ/mol
# Density = 2.102143 g / cm^3
# Si number density = 21.069386 Si / 1000 Ang^3
#
#
#
# Elastic Constant Matrix: (Units=GPa)
#
#
# Indices 1 2 3 4 5 6 
#
# 1 72.1603 35.6528 8.5961 0.0000 -13.7672 0.0000
# 2 35.6528 167.5254 51.0032 0.0000 -7.4488 0.0000
# 3 8.5961 51.0032 96.1317 0.0000 -3.0084 0.0000
# 4 0.0000 0.0000 0.0000 30.7142 0.0000 7.6437
# 5 -13.7672 -7.4488 -3.0084 0.0000 34.0676 0.0000
# 6 0.0000 0.0000 0.0000 7.6437 0.0000 36.1069
#
#
#
# Elastic Compliance Matrix: (Units=1/GPa)
#
#
# Indices 1 2 3 4 5 6 
#
# 1 0.016640 -0.003433 0.000522 0.000000 0.006020 0.000000
# 2 -0.003433 0.007879 -0.003873 0.000000 -0.000007 0.000000
# 3 0.000522 -0.003873 0.012425 0.000000 0.000461 0.000000
# 4 0.000000 0.000000 0.000000 0.034369 0.000000 -0.007276
# 5 0.006020 -0.000007 0.000461 0.000000 0.031826 0.000000
# 6 0.000000 0.000000 0.000000 -0.007276 0.000000 0.029236
#
#
# Mechanical properties :
#
#
# Convention : Reuss Voigt Hill
#
# Bulk Modulus (GPa) = 42.77952 58.48019 50.62986
# Shear Modulus (GPa) = 32.52346 36.21542 34.36944
#
# Velocity S-wave (km/s) = 3.93318 4.15042 4.04326
# Velocity P-wave (km/s) = 6.40115 7.12630 6.77344
#
# Compressibility (1/GPa) = 0.02337567
#
# Stress axis : x y z
#
# Youngs Moduli (GPa) = 60.09470 126.92437 80.48148
#
# Poissons Ratio (x) = 0.43567 -0.04197
# Poissons Ratio (y) = 0.20628 0.31173
# Poissons Ratio (z) = -0.03134 0.49162
#
# Static dielectric constant tensor:
#      x y z
#    x 1.782180 0.000000 -0.017160 
#    y 0.000000 1.819410 0.000000 
#    z -0.017160 0.000000 1.829310 
# 
# From -- ./inp_files/78124.got.cif
#   From: 2010.05.17/outbox.cif.g08.bks.cpg/sg15_40_cif.got.tgz:78124.got - 2010.06.03 18:47:42.
