data_PCOD9278090
_publ_section_title
;
Structure prediction by ZEFSAII (Michael W. Deem and Ramdas Pophale) SiO2 
 PCOD9278090
Probable space group: C 2/C
;
_chemical_formula_sum "Si O2"
_cell_formula_units_Z 44
_cell_length_a 11.593584
_cell_length_b 16.076803
_cell_length_c 11.292121
_cell_angle_alpha 90.000000
_cell_angle_beta 77.366840
_cell_angle_gamma 90.000000
_cell_volume 2053.758832
_symmetry_space_group_name_H-M "C 2/C"
_symmetry_group_IT_number 15
_symmetry_cell_setting 'monoclinic'
loop_
_space_group_symop_operation_xyz
x,y,z
-x,y,1/2-z
-x,-y,-z
x,-y,1/2+z
1/2+x,1/2+y,z
1/2-x,1/2+y,1/2-z
1/2-x,1/2-y,-z
1/2+x,1/2-y,1/2+z
loop_
_atom_site_type_symbol
_atom_site_label
_atom_site_fract_x
_atom_site_fract_y
_atom_site_fract_z
Si Si1 0.000000 0.424642 0.750000
Si Si2 0.113461 0.127110 0.165573
Si Si3 0.434078 0.368831 0.088699
Si Si4 0.634764 0.818293 0.915123
Si Si5 0.124889 0.516322 0.535185
Si Si6 0.162750 0.945918 0.168128
O O1 0.937340 0.366605 0.668880
O O2 0.897458 0.481028 0.830044
O O3 0.226967 0.185630 0.148533
O O4 0.000000 0.167577 0.250000
O O5 0.134092 0.038509 0.224020
O O6 0.090858 0.096483 0.035942
O O7 0.425706 0.270545 0.062507
O O8 0.557878 0.403671 0.113029
O O9 0.338590 0.390483 0.212296
O O10 0.640530 0.884322 0.022070
O O11 0.223155 0.464547 0.439410
O O12 0.000000 0.500000 0.500000
#
# Coordination Sequence:
#
# PCOD9278090 Si02
#       6
#     4   8   8   8   8   8
#     4  10  20  42  66  86 134 174 232 274 318 428
#     4  11  23  39  62  97 129 179 220 270 343 405
#     4  11  22  42  63  98 138 166 226 292 324 395
#     4  10  23  41  62  95 135 171 221 288 341 378
#     4   9  21  40  62  93 124 174 218 263 341 394
#     4  10  22  39  72  93 125 179 231 268 331 390
#
# _framework density 21.424133000000001
#
# number of rings (size 3 to 8) (size 9 to 14) (size 15 to 20)
#    0.000    1.818    1.818    2.182    2.545    7.273 
#    8.182    4.545    0.000    0.000    0.000    0.000 
#    0.000    0.000    0.000    0.000    0.000    0.000 
#
# Total GULP energy -122623.716526 kJ/mol
# GULP energy per Si atom -5573.805297 kJ/mol
# Density = 2.137537 g / cm^3
# Si number density = 21.424133 Si / 1000 Ang^3
#
#
#
# Elastic Constant Matrix: (Units=GPa)
#
#
# Indices 1 2 3 4 5 6 
#
# 1 108.1842 23.8858 22.5496 0.0000 -21.0425 0.0000
# 2 23.8858 106.9160 22.5379 0.0000 -10.1480 0.0000
# 3 22.5496 22.5379 83.4748 0.0000 -11.7011 0.0000
# 4 0.0000 0.0000 0.0000 16.2785 0.0000 3.5935
# 5 -21.0425 -10.1480 -11.7011 0.0000 48.0111 0.0000
# 6 0.0000 0.0000 0.0000 3.5935 0.0000 33.9327
#
#
#
# Elastic Compliance Matrix: (Units=1/GPa)
#
#
# Indices 1 2 3 4 5 6 
#
# 1 0.010763 -0.001629 -0.001920 0.000000 0.003905 0.000000
# 2 -0.001629 0.010269 -0.002204 0.000000 0.000919 0.000000
# 3 -0.001920 -0.002204 0.013367 0.000000 0.001950 0.000000
# 4 0.000000 0.000000 0.000000 0.062901 0.000000 -0.006661
# 5 0.003905 0.000919 0.001950 0.000000 0.023210 0.000000
# 6 0.000000 0.000000 0.000000 -0.006661 0.000000 0.030176
#
#
# Mechanical properties :
#
#
# Convention : Reuss Voigt Hill
#
# Bulk Modulus (GPa) = 43.68208 48.50241 46.09224
# Shear Modulus (GPa) = 29.44260 34.95123 32.19692
#
# Velocity S-wave (km/s) = 3.71114 4.04344 3.88085
# Velocity P-wave (km/s) = 6.22871 6.66989 6.45307
#
# Compressibility (1/GPa) = 0.02289268
#
# Stress axis : x y z
#
# Youngs Moduli (GPa) = 92.91121 97.38166 74.81258
#
# Poissons Ratio (x) = 0.15864 0.14366
# Poissons Ratio (y) = 0.15136 0.16486
# Poissons Ratio (z) = 0.17841 0.21459
#
# Static dielectric constant tensor:
#      x y z
#    x 1.837730 0.000000 0.010490 
#    y 0.000000 1.790770 0.000000 
#    z 0.010490 0.000000 1.848000 
# 
# From -- ./inp_files/87167.got.cif
#   From: 2010.05.17/outbox.cif.g08.bks.cpg/sg15_44_cif.got.tgz:87167.got - 2010.06.03 18:47:42.
