data_PCOD9278847
_publ_section_title
;
Structure prediction by ZEFSAII (Michael W. Deem and Ramdas Pophale) SiO2 
 PCOD9278847
Probable space group: C 2/C
;
_chemical_formula_sum "Si O2"
_cell_formula_units_Z 48
_cell_length_a 21.900960
_cell_length_b 17.760602
_cell_length_c 5.798780
_cell_angle_alpha 90.000000
_cell_angle_beta 117.323546
_cell_angle_gamma 90.000000
_cell_volume 2003.918401
_symmetry_space_group_name_H-M "C 2/C"
_symmetry_group_IT_number 15
_symmetry_cell_setting 'monoclinic'
loop_
_space_group_symop_operation_xyz
x,y,z
-x,y,1/2-z
-x,-y,-z
x,-y,1/2+z
1/2+x,1/2+y,z
1/2-x,1/2+y,1/2-z
1/2-x,1/2-y,-z
1/2+x,1/2-y,1/2+z
loop_
_atom_site_type_symbol
_atom_site_label
_atom_site_fract_x
_atom_site_fract_y
_atom_site_fract_z
Si Si1 0.803440 0.778540 0.785181
Si Si2 0.669140 0.176982 0.274007
Si Si3 0.422319 0.472540 0.389537
Si Si4 0.754407 0.036952 0.818682
Si Si5 0.397530 0.984264 0.932845
Si Si6 0.635227 0.335326 0.996904
O O1 0.750000 0.750000 0.500000
O O2 0.750534 0.826822 0.848406
O O3 0.865839 0.824491 0.780825
O O4 0.832098 0.706663 0.967695
O O5 0.630566 0.101457 0.140136
O O6 0.638726 0.250984 0.096080
O O7 0.500000 0.500000 0.500000
O O8 0.393994 0.510339 0.581405
O O9 0.417748 0.385167 0.452952
O O10 0.795234 0.114714 0.864691
O O11 0.769892 0.994551 0.602904
O O12 0.671302 0.036639 0.676052
O O13 0.430961 0.004809 0.743525
#
# Coordination Sequence:
#
# PCOD9278847 Si02
#       6
#     8   8   8   8   8   8
#     4   9  20  31  48  70 107 139 192 244 293 323
#     4  10  22  33  50  74 109 147 199 253 292 337
#     4  10  23  42  62  86 118 154 194 246 312 366
#     4  10  21  31  46  68  97 134 185 232 273 326
#     4  10  22  34  48  65 101 146 186 228 283 326
#     4  11  22  33  56  78 105 147 201 247 290 355
#
# _framework density 23.953071000000001
#
# number of rings (size 3 to 8) (size 9 to 14) (size 15 to 20)
#    0.000    2.000    0.000    3.000   23.333    0.000 
#    0.000    0.000    0.000    0.000    0.000    0.000 
#    0.000    0.000    0.000   18.000    0.000    1.667 
#
# Total GULP energy -133729.697639 kJ/mol
# GULP energy per Si atom -5572.070735 kJ/mol
# Density = 2.389855 g / cm^3
# Si number density = 23.953071 Si / 1000 Ang^3
#
#
#
# Elastic Constant Matrix: (Units=GPa)
#
#
# Indices 1 2 3 4 5 6 
#
# 1 80.6310 25.1259 35.3719 0.0000 -35.5891 0.0000
# 2 25.1259 154.2159 46.5113 0.0000 -19.1346 0.0000
# 3 35.3719 46.5113 194.4592 0.0000 -39.2797 0.0000
# 4 0.0000 0.0000 0.0000 48.6956 0.0000 -19.1777
# 5 -35.5891 -19.1346 -39.2797 0.0000 37.5776 0.0000
# 6 0.0000 0.0000 0.0000 -19.1777 0.0000 27.6670
#
#
#
# Elastic Compliance Matrix: (Units=1/GPa)
#
#
# Indices 1 2 3 4 5 6 
#
# 1 0.021496 -0.001125 0.000451 0.000000 0.020257 0.000000
# 2 -0.001125 0.007207 -0.001259 0.000000 0.001289 0.000000
# 3 0.000451 -0.001259 0.006742 0.000000 0.006833 0.000000
# 4 0.000000 0.000000 0.000000 0.028247 0.000000 0.019580
# 5 0.020257 0.001289 0.006833 0.000000 0.053595 0.000000
# 6 0.000000 0.000000 0.000000 0.019580 0.000000 0.049716
#
#
# Mechanical properties :
#
#
# Convention : Reuss Voigt Hill
#
# Bulk Modulus (GPa) = 31.66659 71.48049 51.57354
# Shear Modulus (GPa) = 27.56411 44.27451 35.91931
#
# Velocity S-wave (km/s) = 3.39596 4.30395 3.87663
# Velocity P-wave (km/s) = 5.35030 7.38954 6.45101
#
# Compressibility (1/GPa) = 0.03157902
#
# Stress axis : x y z
#
# Youngs Moduli (GPa) = 46.52031 138.74878 148.32758
#
# Poissons Ratio (x) = 0.15607 -0.06685
# Poissons Ratio (y) = 0.05233 0.18674
# Poissons Ratio (z) = -0.02097 0.17468
#
# Static dielectric constant tensor:
#      x y z
#    x 2.012360 0.000000 -0.043480 
#    y 0.000000 1.977780 0.000000 
#    z -0.043480 0.000000 2.151590 
# 
# From -- ./inp_files/15344.got.cif
#   From: 2010.05.17/outbox.cif.g08.bks.cpg/sg15_8_cif.got.tgz:15344.got - 2010.06.03 18:47:42.
