data_PCOD9278835
_publ_section_title
;
Structure prediction by ZEFSAII (Michael W. Deem and Ramdas Pophale) SiO2 
 PCOD9278835
Probable space group: C 2/C
;
_chemical_formula_sum "Si O2"
_cell_formula_units_Z 64
_cell_length_a 23.340236
_cell_length_b 19.271851
_cell_length_c 8.255884
_cell_angle_alpha 90.000000
_cell_angle_beta 93.446527
_cell_angle_gamma 90.000000
_cell_volume 3706.858872
_symmetry_space_group_name_H-M "C 2/C"
_symmetry_group_IT_number 15
_symmetry_cell_setting 'monoclinic'
loop_
_space_group_symop_operation_xyz
x,y,z
-x,y,1/2-z
-x,-y,-z
x,-y,1/2+z
1/2+x,1/2+y,z
1/2-x,1/2+y,1/2-z
1/2-x,1/2-y,-z
1/2+x,1/2-y,1/2+z
loop_
_atom_site_type_symbol
_atom_site_label
_atom_site_fract_x
_atom_site_fract_y
_atom_site_fract_z
Si Si1 0.224178 0.932756 0.113733
Si Si2 0.672993 0.137861 0.233324
Si Si3 0.887176 0.652457 0.922963
Si Si4 0.141735 0.563408 0.904279
Si Si5 0.166211 0.789039 0.606893
Si Si6 0.301325 0.575628 0.244904
Si Si7 0.959876 0.548936 0.094933
Si Si8 0.279282 0.719652 0.739610
O O1 0.290610 0.955250 0.093610
O O2 0.224291 0.856856 0.190821
O O3 0.196134 0.996275 0.202496
O O4 0.190142 0.922924 0.943316
O O5 0.649692 0.140253 0.415128
O O6 0.735635 0.102747 0.258361
O O7 0.683305 0.217759 0.178268
O O8 0.637694 0.099252 0.083345
O O9 0.867969 0.612746 0.755081
O O10 0.885727 0.734837 0.898038
O O11 0.945101 0.615589 0.985835
O O12 0.097617 0.498393 0.882493
O O13 0.159215 0.867686 0.661380
O O14 0.215360 0.751223 0.722237
O O15 0.194623 0.789778 0.434617
O O16 0.000000 0.569717 0.250000
O O17 0.000000 0.500000 0.000000
#
# Coordination Sequence:
#
# PCOD9278835 Si02
#       8
#     8   8   8   8   8   8   8   8
#     4  11  21  30  48  73 102 137 178 215 247 295
#     4   9  21  33  48  74  98 130 176 212 252 298
#     4  11  21  36  55  67  96 133 168 220 259 311
#     4  11  23  33  54  71  98 136 180 214 257 314
#     4   9  18  32  48  68  93 132 171 210 258 298
#     4  10  21  29  45  68 101 132 170 214 247 292
#     4  12  24  39  52  74 101 130 177 227 273 303
#     4   9  17  30  48  68  99 129 167 218 244 293
#
# _framework density 17.265291999999999
#
# number of rings (size 3 to 8) (size 9 to 14) (size 15 to 20)
#    0.000    1.750    2.500    3.000    7.000    1.500 
#    0.000    0.000    0.000    0.000    0.000    0.000 
#    0.000    0.000    0.000   19.125    6.750    5.125 
#
# Total GULP energy -178165.163946 kJ/mol
# GULP energy per Si atom -5567.661373 kJ/mol
# Density = 1.722599 g / cm^3
# Si number density = 17.265292 Si / 1000 Ang^3
#
#
#
# Elastic Constant Matrix: (Units=GPa)
#
#
# Indices 1 2 3 4 5 6 
#
# 1 27.3378 12.0550 2.7322 0.0000 6.2036 0.0000
# 2 12.0550 97.8390 11.8787 0.0000 -1.7211 0.0000
# 3 2.7322 11.8787 59.8284 0.0000 8.7538 0.0000
# 4 0.0000 0.0000 0.0000 18.9971 0.0000 10.5603
# 5 6.2036 -1.7211 8.7538 0.0000 18.7495 0.0000
# 6 0.0000 0.0000 0.0000 10.5603 0.0000 24.4751
#
#
#
# Elastic Compliance Matrix: (Units=1/GPa)
#
#
# Indices 1 2 3 4 5 6 
#
# 1 0.042385 -0.005661 0.001413 0.000000 -0.015203 0.000000
# 2 -0.005661 0.011305 -0.002589 0.000000 0.004120 0.000000
# 3 0.001413 -0.002589 0.018533 0.000000 -0.009358 0.000000
# 4 0.000000 0.000000 0.000000 0.069249 0.000000 -0.029879
# 5 -0.015203 0.004120 -0.009358 0.000000 0.063112 0.000000
# 6 0.000000 0.000000 0.000000 -0.029879 0.000000 0.053750
#
#
# Mechanical properties :
#
#
# Convention : Reuss Voigt Hill
#
# Bulk Modulus (GPa) = 17.07991 26.48191 21.78091
# Shear Modulus (GPa) = 17.15120 23.00028 20.07574
#
# Velocity S-wave (km/s) = 3.15523 3.65385 3.41366
# Velocity P-wave (km/s) = 4.81540 5.75954 5.30850
#
# Compressibility (1/GPa) = 0.05854830
#
# Stress axis : x y z
#
# Youngs Moduli (GPa) = 23.59353 88.45482 53.95732
#
# Poissons Ratio (x) = 0.50077 -0.07623
# Poissons Ratio (y) = 0.13357 0.13969
# Poissons Ratio (z) = -0.03333 0.22899
#
# Static dielectric constant tensor:
#      x y z
#    x 1.603410 0.000000 0.012390 
#    y 0.000000 1.681810 0.000000 
#    z 0.012390 0.000000 1.678940 
# 
# From -- ./inp_files/62490.got.cif
#   From: 2010.05.17/outbox.cif.g08.bks.cpg/sg15_32_cif.got.tgz:62490.got - 2010.06.03 18:47:42.
