data_PCOD9278896
_publ_section_title
;
Structure prediction by ZEFSAII (Michael W. Deem and Ramdas Pophale) SiO2 
 PCOD9278896
Probable space group: C 2/C
;
_chemical_formula_sum "Si O2"
_cell_formula_units_Z 40
_cell_length_a 18.798321
_cell_length_b 21.098158
_cell_length_c 5.198983
_cell_angle_alpha 90.000000
_cell_angle_beta 80.813576
_cell_angle_gamma 90.000000
_cell_volume 2035.521812
_symmetry_space_group_name_H-M "C 2/C"
_symmetry_group_IT_number 15
_symmetry_cell_setting 'monoclinic'
loop_
_space_group_symop_operation_xyz
x,y,z
-x,y,1/2-z
-x,-y,-z
x,-y,1/2+z
1/2+x,1/2+y,z
1/2-x,1/2+y,1/2-z
1/2-x,1/2-y,-z
1/2+x,1/2-y,1/2+z
loop_
_atom_site_type_symbol
_atom_site_label
_atom_site_fract_x
_atom_site_fract_y
_atom_site_fract_z
Si Si1 0.716555 0.331009 0.785185
Si Si2 0.250062 0.978830 0.771397
Si Si3 0.000000 0.785253 0.250000
Si Si4 0.091390 0.968419 0.401997
Si Si5 0.000000 0.133799 0.250000
Si Si6 0.844734 0.234921 0.678454
O O1 0.726604 0.406204 0.765666
O O2 0.794042 0.296497 0.713682
O O3 0.669104 0.300834 0.582938
O O4 0.684165 0.310978 0.078464
O O5 0.291320 0.005342 0.505217
O O6 0.177455 0.022940 0.836098
O O7 0.928088 0.751081 0.189906
O O8 0.976075 0.825778 0.515687
O O9 0.061645 0.909499 0.579106
O O10 0.068690 0.024765 0.616175
#
# Coordination Sequence:
#
# PCOD9278896 Si02
#       6
#     8   8   4   8   4   8
#     4  10  21  41  61  78 110 149 195 238 278 329
#     4  10  21  32  55  81 106 141 186 233 274 326
#     4  12  26  35  58  82 112 149 196 228 282 322
#     4  10  21  33  45  68 104 152 188 209 262 310
#     4  12  24  35  48  74 118 155 180 222 260 342
#     4  10  23  39  59  81 106 152 197 238 278 322
#
# _framework density 19.650979
#
# number of rings (size 3 to 8) (size 9 to 14) (size 15 to 20)
#    0.000    1.600    0.000    4.200   16.800    0.000 
#    0.000    0.000    0.000    0.000    0.000    1.400 
#    0.000    0.000    0.000    0.000    0.000    0.000 
#
# Total GULP energy -111584.495180 kJ/mol
# GULP energy per Si atom -5579.224759 kJ/mol
# Density = 1.960625 g / cm^3
# Si number density = 19.650979 Si / 1000 Ang^3
#
#
#
# Elastic Constant Matrix: (Units=GPa)
#
#
# Indices 1 2 3 4 5 6 
#
# 1 104.3143 32.6182 17.4801 0.0000 5.6878 0.0000
# 2 32.6182 69.6280 15.2396 0.0000 2.8347 0.0000
# 3 17.4801 15.2396 143.8054 0.0000 30.9235 0.0000
# 4 0.0000 0.0000 0.0000 13.5048 0.0000 7.3959
# 5 5.6878 2.8347 30.9235 0.0000 25.2801 0.0000
# 6 0.0000 0.0000 0.0000 7.3959 0.0000 15.6865
#
#
#
# Elastic Compliance Matrix: (Units=1/GPa)
#
#
# Indices 1 2 3 4 5 6 
#
# 1 0.011360 -0.005147 -0.000556 0.000000 -0.001298 0.000000
# 2 -0.005147 0.017037 -0.001381 0.000000 0.000937 0.000000
# 3 -0.000556 -0.001381 0.009645 0.000000 -0.011518 0.000000
# 4 0.000000 0.000000 0.000000 0.099823 0.000000 -0.047065
# 5 -0.001298 0.000937 -0.011518 0.000000 0.053832 0.000000
# 6 0.000000 0.000000 0.000000 -0.047065 0.000000 0.085939
#
#
# Mechanical properties :
#
#
# Convention : Reuss Voigt Hill
#
# Bulk Modulus (GPa) = 41.88941 49.82483 45.85712
# Shear Modulus (GPa) = 16.67983 27.72161 22.20072
#
# Velocity S-wave (km/s) = 2.91658 3.76000 3.36482
# Velocity P-wave (km/s) = 5.71882 6.65282 6.20343
#
# Compressibility (1/GPa) = 0.02387238
#
# Stress axis : x y z
#
# Youngs Moduli (GPa) = 88.02936 58.69424 103.68560
#
# Poissons Ratio (x) = 0.30210 0.05767
# Poissons Ratio (y) = 0.45309 0.14324
# Poissons Ratio (z) = 0.04896 0.08108
#
# Static dielectric constant tensor:
#      x y z
#    x 1.757100 0.000000 0.057110 
#    y 0.000000 1.703580 0.000000 
#    z 0.057110 0.000000 1.817480 
# 
# From -- ./inp_files/13056.got.cif
#   From: 2010.05.17/outbox.cif.g08.bks.cpg/sg15_7_cif.got.tgz:13056.got - 2010.06.03 18:47:42.
