data_PCOD9278308
_publ_section_title
;
Structure prediction by ZEFSAII (Michael W. Deem and Ramdas Pophale) SiO2 
 PCOD9278308
Probable space group: C 2/C
;
_chemical_formula_sum "Si O2"
_cell_formula_units_Z 48
_cell_length_a 10.162396
_cell_length_b 11.456550
_cell_length_c 20.011612
_cell_angle_alpha 90.000000
_cell_angle_beta 60.180634
_cell_angle_gamma 90.000000
_cell_volume 2021.390861
_symmetry_space_group_name_H-M "C 2/C"
_symmetry_group_IT_number 15
_symmetry_cell_setting 'monoclinic'
loop_
_space_group_symop_operation_xyz
x,y,z
-x,y,1/2-z
-x,-y,-z
x,-y,1/2+z
1/2+x,1/2+y,z
1/2-x,1/2+y,1/2-z
1/2-x,1/2-y,-z
1/2+x,1/2-y,1/2+z
loop_
_atom_site_type_symbol
_atom_site_label
_atom_site_fract_x
_atom_site_fract_y
_atom_site_fract_z
Si Si1 0.669019 0.031361 0.544435
Si Si2 0.691854 0.349455 0.614996
Si Si3 0.888537 0.134044 0.574081
Si Si4 0.144691 0.300277 0.468946
Si Si5 0.665013 0.938999 0.338111
Si Si6 0.061986 0.978410 0.306964
O O1 0.742114 0.123950 0.474964
O O2 0.809015 0.021039 0.560692
O O3 0.515421 0.066244 0.620549
O O4 0.615045 0.925603 0.511088
O O5 0.748136 0.222926 0.622419
O O6 0.778876 0.442407 0.639847
O O7 0.516910 0.394251 0.663734
O O8 0.979040 0.094625 0.617198
O O9 0.003363 0.212797 0.501926
O O10 0.250000 0.250000 0.500000
O O11 0.203634 0.333546 0.380296
O O12 0.759397 0.952365 0.246412
O O13 0.000000 0.937775 0.250000
#
# Coordination Sequence:
#
# PCOD9278308 Si02
#       6
#     8   8   8   8   8   8
#     4  11  22  41  66  98 131 161 231 279 318 398
#     4  10  20  42  70  89 128 179 211 272 336 388
#     4  12  23  42  71  98 129 177 231 267 334 405
#     4  11  22  40  70  96 130 178 223 276 332 388
#     4  10  20  44  62  92 140 169 213 283 330 388
#     4  10  24  44  63  94 140 170 217 281 333 395
#
# _framework density 23.746023999999998
#
# number of rings (size 3 to 8) (size 9 to 14) (size 15 to 20)
#    0.000    1.333    3.333    4.500    0.000    3.333 
#    9.000    3.333    0.000    0.000    0.000    0.000 
#    0.000    0.000    0.000    0.000    0.000    0.000 
#
# Total GULP energy -133690.641213 kJ/mol
# GULP energy per Si atom -5570.443384 kJ/mol
# Density = 2.369198 g / cm^3
# Si number density = 23.746024 Si / 1000 Ang^3
#
#
#
# Elastic Constant Matrix: (Units=GPa)
#
#
# Indices 1 2 3 4 5 6 
#
# 1 85.2729 22.0850 13.3134 0.0000 -18.2478 0.0000
# 2 22.0850 75.0229 29.6822 0.0000 -2.0363 0.0000
# 3 13.3134 29.6822 85.5864 0.0000 -30.2342 0.0000
# 4 0.0000 0.0000 0.0000 20.4071 0.0000 -3.9767
# 5 -18.2478 -2.0363 -30.2342 0.0000 29.9687 0.0000
# 6 0.0000 0.0000 0.0000 -3.9767 0.0000 34.1790
#
#
#
# Elastic Compliance Matrix: (Units=1/GPa)
#
#
# Indices 1 2 3 4 5 6 
#
# 1 0.015452 -0.005925 0.004401 0.000000 0.013446 0.000000
# 2 -0.005925 0.018658 -0.009906 0.000000 -0.012334 0.000000
# 3 0.004401 -0.009906 0.023530 0.000000 0.025745 0.000000
# 4 0.000000 0.000000 0.000000 0.050139 0.000000 0.005834
# 5 0.013446 -0.012334 0.025745 0.000000 0.066690 0.000000
# 6 0.000000 0.000000 0.000000 0.005834 0.000000 0.029936
#
#
# Mechanical properties :
#
#
# Convention : Reuss Voigt Hill
#
# Bulk Modulus (GPa) = 28.75256 41.78261 35.26758
# Shear Modulus (GPa) = 20.93290 28.96440 24.94865
#
# Velocity S-wave (km/s) = 2.97228 3.49629 3.24488
# Velocity P-wave (km/s) = 4.89019 5.82517 5.37803
#
# Compressibility (1/GPa) = 0.03477952
#
# Stress axis : x y z
#
# Youngs Moduli (GPa) = 64.71730 53.59644 42.49970
#
# Poissons Ratio (x) = 0.31756 -0.18705
# Poissons Ratio (y) = 0.38345 0.42101
# Poissons Ratio (z) = -0.28484 0.53093
#
# Static dielectric constant tensor:
#      x y z
#    x 2.019370 0.000000 -0.037600 
#    y 0.000000 2.375940 0.000000 
#    z -0.037600 0.000000 2.009010 
# 
# From -- ./inp_files/237435.got.cif
#   From: 2010.05.17/outbox.cif.g08.bks.cpg/sg15_119_cif.got.tgz:237435.got - 2010.06.03 18:47:42.
