data_PCOD9278573
_publ_section_title
;
Structure prediction by ZEFSAII (Michael W. Deem and Ramdas Pophale) SiO2 
 PCOD9278573
Probable space group: C 2/C
;
_chemical_formula_sum "Si O2"
_cell_formula_units_Z 44
_cell_length_a 8.295967
_cell_length_b 26.420595
_cell_length_c 10.422761
_cell_angle_alpha 90.000000
_cell_angle_beta 86.788588
_cell_angle_gamma 90.000000
_cell_volume 2280.918922
_symmetry_space_group_name_H-M "C 2/C"
_symmetry_group_IT_number 15
_symmetry_cell_setting 'monoclinic'
loop_
_space_group_symop_operation_xyz
x,y,z
-x,y,1/2-z
-x,-y,-z
x,-y,1/2+z
1/2+x,1/2+y,z
1/2-x,1/2+y,1/2-z
1/2-x,1/2-y,-z
1/2+x,1/2-y,1/2+z
loop_
_atom_site_type_symbol
_atom_site_label
_atom_site_fract_x
_atom_site_fract_y
_atom_site_fract_z
Si Si1 0.331880 0.607658 0.019269
Si Si2 0.436664 0.534737 0.617994
Si Si3 0.108461 0.513702 0.116985
Si Si4 0.667810 0.755819 0.138532
Si Si5 0.692318 0.792417 0.400605
Si Si6 0.500000 0.659950 0.250000
O O1 0.209406 0.563972 0.073222
O O2 0.425133 0.627617 0.139949
O O3 0.468240 0.586278 0.916037
O O4 0.238414 0.653554 0.955666
O O5 0.500000 0.514110 0.750000
O O6 0.500000 0.500000 0.500000
O O7 0.243761 0.530251 0.629836
O O8 0.000000 0.519739 0.250000
O O9 0.000000 0.500000 0.000000
O O10 0.758138 0.783082 0.252771
O O11 0.498072 0.783453 0.114503
O O12 0.631687 0.699127 0.189800
O O13 0.750000 0.750000 0.000000
O O14 0.750000 0.750000 0.500000
#
# Coordination Sequence:
#
# PCOD9278573 Si02
#       6
#     8   8   8   8   8   4
#     4  11  23  41  71  92 130 178 224 265 331 401
#     4  10  23  43  69  91 125 172 217 268 332 399
#     4  11  25  44  65  97 131 165 218 285 339 388
#     4  10  22  40  64  90 137 173 210 271 326 373
#     4  10  20  44  61  93 135 165 217 266 307 395
#     4  10  22  40  64  98 124 170 224 262 318 392
#
# _framework density 19.290469999999999
#
# number of rings (size 3 to 8) (size 9 to 14) (size 15 to 20)
#    0.000    1.818    3.636    2.182    7.636    3.636 
#    9.818    0.000    0.000    0.000    0.000    0.000 
#    0.000    0.000    0.000    0.000    0.000    0.000 
#
# Total GULP energy -122672.937303 kJ/mol
# GULP energy per Si atom -5576.042605 kJ/mol
# Density = 1.924656 g / cm^3
# Si number density = 19.290470 Si / 1000 Ang^3
#
#
#
# Elastic Constant Matrix: (Units=GPa)
#
#
# Indices 1 2 3 4 5 6 
#
# 1 95.4905 41.8385 57.2390 0.0000 7.1453 0.0000
# 2 41.8385 96.7887 40.6909 0.0000 2.2645 0.0000
# 3 57.2390 40.6909 181.6755 0.0000 4.6489 0.0000
# 4 0.0000 0.0000 0.0000 35.4495 0.0000 12.8688
# 5 7.1453 2.2645 4.6489 0.0000 48.1481 0.0000
# 6 0.0000 0.0000 0.0000 12.8688 0.0000 18.1996
#
#
#
# Elastic Compliance Matrix: (Units=1/GPa)
#
#
# Indices 1 2 3 4 5 6 
#
# 1 0.014865 -0.004897 -0.003545 0.000000 -0.001633 0.000000
# 2 -0.004897 0.013023 -0.001380 0.000000 0.000248 0.000000
# 3 -0.003545 -0.001380 0.006932 0.000000 -0.000078 0.000000
# 4 0.000000 0.000000 0.000000 0.037951 0.000000 -0.026835
# 5 -0.001633 0.000248 -0.000078 0.000000 0.021008 0.000000
# 6 0.000000 0.000000 0.000000 -0.026835 0.000000 0.073921
#
#
# Mechanical properties :
#
#
# Convention : Reuss Voigt Hill
#
# Bulk Modulus (GPa) = 65.89349 72.61016 69.25183
# Shear Modulus (GPa) = 25.98721 35.97186 30.97953
#
# Velocity S-wave (km/s) = 3.67434 4.32296 4.01178
# Velocity P-wave (km/s) = 7.22729 7.91451 7.57869
#
# Compressibility (1/GPa) = 0.01517601
#
# Stress axis : x y z
#
# Youngs Moduli (GPa) = 67.27261 76.78632 144.25259
#
# Poissons Ratio (x) = 0.37603 0.51133
# Poissons Ratio (y) = 0.32944 0.19911
# Poissons Ratio (z) = 0.23846 0.10599
#
# Static dielectric constant tensor:
#      x y z
#    x 1.699420 0.000000 -0.045200 
#    y 0.000000 1.706580 0.000000 
#    z -0.045200 0.000000 1.692750 
# 
# From -- ./inp_files/25630.got.cif
#   From: 2010.05.17/outbox.cif.g08.bks.cpg/sg15_13_cif.got.tgz:25630.got - 2010.06.03 18:47:42.
