data_PCOD9278285
_publ_section_title
;
Structure prediction by ZEFSAII (Michael W. Deem and Ramdas Pophale) SiO2 
 PCOD9278285
Probable space group: C 2/C
;
_chemical_formula_sum "Si O2"
_cell_formula_units_Z 28
_cell_length_a 9.930352
_cell_length_b 11.078626
_cell_length_c 8.897620
_cell_angle_alpha 90.000000
_cell_angle_beta 94.985488
_cell_angle_gamma 90.000000
_cell_volume 975.165289
_symmetry_space_group_name_H-M "C 2/C"
_symmetry_group_IT_number 15
_symmetry_cell_setting 'monoclinic'
loop_
_space_group_symop_operation_xyz
x,y,z
-x,y,1/2-z
-x,-y,-z
x,-y,1/2+z
1/2+x,1/2+y,z
1/2-x,1/2+y,1/2-z
1/2-x,1/2-y,-z
1/2+x,1/2-y,1/2+z
loop_
_atom_site_type_symbol
_atom_site_label
_atom_site_fract_x
_atom_site_fract_y
_atom_site_fract_z
Si Si1 0.726208 0.078949 0.788048
Si Si2 0.602108 0.899611 0.574549
Si Si3 0.000000 0.988365 0.750000
Si Si4 0.894732 0.228158 0.436399
O O1 0.657279 0.950442 0.735758
O O2 0.869223 0.071974 0.718933
O O3 0.723818 0.099033 0.965554
O O4 0.634213 0.184581 0.710765
O O5 0.515773 0.779877 0.550849
O O6 0.500000 0.000000 0.500000
O O7 0.054655 0.899290 0.623883
O O8 0.750000 0.250000 0.500000
#
# Coordination Sequence:
#
# PCOD9278285 Si02
#       4
#     8   8   4   8
#     4  11  24  43  70 100 139 184 228 290 341 413
#     4  10  20  42  69  97 137 179 227 281 351 401
#     4  12  24  44  70 100 144 178 236 286 344 410
#     4  11  23  43  67 101 141 182 232 287 342 417
#
# _framework density 28.713077999999999
#
# number of rings (size 3 to 8) (size 9 to 14) (size 15 to 20)
#    0.000    1.143    2.857    6.000    0.000    5.714 
#    5.143    0.000    0.000    0.000    0.000    0.000 
#    0.000    0.000    0.000    0.000    0.000    0.000 
#
# Total GULP energy -78491.258817 kJ/mol
# GULP energy per Si atom -5606.518487 kJ/mol
# Density = 2.864773 g / cm^3
# Si number density = 28.713078 Si / 1000 Ang^3
#
#
#
# Elastic Constant Matrix: (Units=GPa)
#
#
# Indices 1 2 3 4 5 6 
#
# 1 195.1337 60.3655 41.5386 0.0000 -52.8853 0.0000
# 2 60.3655 113.9260 37.4193 0.0000 1.1343 0.0000
# 3 41.5386 37.4193 144.6493 0.0000 -41.0996 0.0000
# 4 0.0000 0.0000 0.0000 41.9671 0.0000 -2.5397
# 5 -52.8853 1.1343 -41.0996 0.0000 58.3408 0.0000
# 6 0.0000 0.0000 0.0000 -2.5397 0.0000 59.0971
#
#
#
# Elastic Compliance Matrix: (Units=1/GPa)
#
#
# Indices 1 2 3 4 5 6 
#
# 1 0.008967 -0.005311 0.001422 0.000000 0.009234 0.000000
# 2 -0.005311 0.013019 -0.004104 0.000000 -0.007958 0.000000
# 3 0.001422 -0.004104 0.009946 0.000000 0.008376 0.000000
# 4 0.000000 0.000000 0.000000 0.023890 0.000000 0.001027
# 5 0.009234 -0.007958 0.008376 0.000000 0.031567 0.000000
# 6 0.000000 0.000000 0.000000 0.001027 0.000000 0.016965
#
#
# Mechanical properties :
#
#
# Convention : Reuss Voigt Hill
#
# Bulk Modulus (GPa) = 62.70346 81.37285 72.03815
# Shear Modulus (GPa) = 39.79123 52.84004 46.31564
#
# Velocity S-wave (km/s) = 3.72670 4.29450 4.02064
# Velocity P-wave (km/s) = 6.35634 7.27955 6.83355
#
# Compressibility (1/GPa) = 0.01594808
#
# Stress axis : x y z
#
# Youngs Moduli (GPa) = 111.51461 76.81218 100.53869
#
# Poissons Ratio (x) = 0.40792 -0.14301
# Poissons Ratio (y) = 0.59222 0.41261
# Poissons Ratio (z) = -0.15862 0.31524
#
# Static dielectric constant tensor:
#      x y z
#    x 2.190900 0.000000 0.007810 
#    y 0.000000 2.238350 0.000000 
#    z 0.007810 0.000000 2.289000 
# 
# From -- ./inp_files/75272.got.cif
#   From: 2010.05.17/outbox.cif.g08.bks.cpg/sg15_38_cif.got.tgz:75272.got - 2010.06.03 18:47:42.
