data_PCOD9278227
_publ_section_title
;
Structure prediction by ZEFSAII (Michael W. Deem and Ramdas Pophale) SiO2 
 PCOD9278227
Probable space group: C 2/C
;
_chemical_formula_sum "Si O2"
_cell_formula_units_Z 64
_cell_length_a 21.497502
_cell_length_b 10.871097
_cell_length_c 29.373635
_cell_angle_alpha 90.000000
_cell_angle_beta 156.574136
_cell_angle_gamma 90.000000
_cell_volume 2729.129084
_symmetry_space_group_name_H-M "C 2/C"
_symmetry_group_IT_number 15
_symmetry_cell_setting 'monoclinic'
loop_
_space_group_symop_operation_xyz
x,y,z
-x,y,1/2-z
-x,-y,-z
x,-y,1/2+z
1/2+x,1/2+y,z
1/2-x,1/2+y,1/2-z
1/2-x,1/2-y,-z
1/2+x,1/2-y,1/2+z
loop_
_atom_site_type_symbol
_atom_site_label
_atom_site_fract_x
_atom_site_fract_y
_atom_site_fract_z
Si Si1 0.460406 0.856967 0.670906
Si Si2 0.904886 0.139397 0.062463
Si Si3 0.083126 0.599228 0.897438
Si Si4 0.325928 0.848749 0.363096
Si Si5 0.587625 0.628121 0.920636
Si Si6 0.470052 0.632396 0.999824
Si Si7 0.403413 0.729664 0.866657
Si Si8 0.074013 0.521412 0.485512
O O1 0.500000 0.838864 0.750000
O O2 0.495482 0.734226 0.665287
O O3 0.273086 0.870714 0.537397
O O4 0.521627 0.990908 0.695220
O O5 0.979956 0.266378 0.130552
O O6 0.973207 0.010448 0.126885
O O7 0.724961 0.132909 0.958531
O O8 0.916587 0.135209 0.015819
O O9 0.138987 0.534295 0.982346
O O10 0.368213 0.706643 0.396501
O O11 0.208989 0.844953 0.242484
O O12 0.306315 0.914842 0.398687
O O13 0.484102 0.912639 0.450614
O O14 0.565697 0.669106 0.958208
O O15 0.361689 0.701485 0.890272
O O16 0.500000 0.500000 0.000000
O O17 0.440862 0.873994 0.886213
#
# Coordination Sequence:
#
# PCOD9278227 Si02
#       8
#     8   8   8   8   8   8   8   8
#     4  10  22  41  67  95 129 175 220 274 326 393
#     4  10  21  40  67  91 132 177 211 273 337 388
#     4  10  20  42  68  92 127 175 219 272 334 394
#     4  10  24  41  65  95 133 171 225 276 338 399
#     4  10  21  41  62  95 133 168 221 269 327 394
#     4  11  22  40  63  94 133 169 218 274 327 394
#     4  11  23  39  65 100 126 179 218 278 331 396
#     4  10  21  43  66  94 129 175 226 279 335 395
#
# _framework density 23.450704999999999
#
# number of rings (size 3 to 8) (size 9 to 14) (size 15 to 20)
#    0.000    1.750    3.750    0.000    1.750    2.000 
#    4.500    0.625    5.500    0.000    0.000    0.000 
#    0.000    0.000    0.000    0.000    0.000    0.000 
#
# Total GULP energy -178376.853991 kJ/mol
# GULP energy per Si atom -5574.276687 kJ/mol
# Density = 2.339733 g / cm^3
# Si number density = 23.450705 Si / 1000 Ang^3
#
#
#
# Elastic Constant Matrix: (Units=GPa)
#
#
# Indices 1 2 3 4 5 6 
#
# 1 115.5361 50.9081 20.7600 -0.0006 -34.1247 0.0000
# 2 50.9081 199.1398 25.3026 -0.0027 -21.2388 -0.0005
# 3 20.7600 25.3026 55.9466 -0.0094 -19.6479 -0.0017
# 4 -0.0006 -0.0027 -0.0094 17.7750 -0.0010 -11.2329
# 5 -34.1247 -21.2388 -19.6479 -0.0010 27.5575 0.0002
# 6 0.0000 -0.0005 -0.0017 -11.2329 0.0002 42.9633
#
#
#
# Elastic Compliance Matrix: (Units=1/GPa)
#
#
# Indices 1 2 3 4 5 6 
#
# 1 0.014414 -0.002036 0.001720 0.000002 0.017506 0.000001
# 2 -0.002036 0.005834 -0.001587 0.000000 0.000843 0.000000
# 3 0.001720 -0.001587 0.024376 0.000017 0.018287 0.000005
# 4 0.000002 0.000000 0.000017 0.067394 0.000018 0.017620
# 5 0.017506 0.000843 0.018287 0.000018 0.071654 0.000005
# 6 0.000001 0.000000 0.000005 0.017620 0.000005 0.027883
#
#
# Mechanical properties :
#
#
# Convention : Reuss Voigt Hill
#
# Bulk Modulus (GPa) = 24.49879 62.72931 43.61405
# Shear Modulus (GPa) = 21.83735 35.90260 28.86998
#
# Velocity S-wave (km/s) = 3.05487 3.91702 3.51250
# Velocity P-wave (km/s) = 4.78671 6.87495 5.92358
#
# Compressibility (1/GPa) = 0.04081835
#
# Stress axis : x y z
#
# Youngs Moduli (GPa) = 69.37646 171.41804 41.02468
#
# Poissons Ratio (x) = 0.34906 -0.07058
# Poissons Ratio (y) = 0.14127 0.06509
# Poissons Ratio (z) = -0.11936 0.27197
#
# Static dielectric constant tensor:
#      x y z
#    x 1.931890 0.000000 0.025070 
#    y 0.000000 2.003730 0.000000 
#    z 0.025070 0.000000 1.968300 
# 
# From -- ./inp_files/300860.got.cif
#   From: 2010.05.17/outbox.cif.g08.bks.cpg/sg15_151_cif.got.tgz:300860.got - 2010.06.03 18:47:42.
