data_PCOD9278968
_publ_section_title
;
Structure prediction by ZEFSAII (Michael W. Deem and Ramdas Pophale) SiO2 
 PCOD9278968
Probable space group: C 2/C
;
_chemical_formula_sum "Si O2"
_cell_formula_units_Z 52
_cell_length_a 20.015156
_cell_length_b 23.396906
_cell_length_c 9.586450
_cell_angle_alpha 90.000000
_cell_angle_beta 145.422497
_cell_angle_gamma 90.000000
_cell_volume 2547.749790
_symmetry_space_group_name_H-M "C 2/C"
_symmetry_group_IT_number 15
_symmetry_cell_setting 'monoclinic'
loop_
_space_group_symop_operation_xyz
x,y,z
-x,y,1/2-z
-x,-y,-z
x,-y,1/2+z
1/2+x,1/2+y,z
1/2-x,1/2+y,1/2-z
1/2-x,1/2-y,-z
1/2+x,1/2-y,1/2+z
loop_
_atom_site_type_symbol
_atom_site_label
_atom_site_fract_x
_atom_site_fract_y
_atom_site_fract_z
Si Si1 0.640704 0.790106 0.491448
Si Si2 0.500000 0.839069 0.750000
Si Si3 0.126818 0.928013 0.000623
Si Si4 0.706128 0.520262 0.926981
Si Si5 0.786220 0.321793 0.194201
Si Si6 0.559812 0.963489 0.220317
Si Si7 0.877185 0.381309 0.809738
O O1 0.500000 0.784372 0.250000
O O2 0.697766 0.727498 0.592039
O O3 0.690578 0.816625 0.431931
O O4 0.668446 0.828998 0.675119
O O5 0.407902 0.809825 0.486363
O O6 0.415255 0.870645 0.715513
O O7 0.000000 0.900475 0.750000
O O8 0.132280 0.983291 0.908755
O O9 0.143450 0.949981 0.187887
O O10 0.230523 0.883182 0.139960
O O11 0.803111 0.474434 0.037680
O O12 0.780408 0.568723 0.136700
O O13 0.500000 0.990375 0.250000
O O14 0.498404 0.902655 0.091988
O O15 0.500000 0.000000 0.000000
#
# Coordination Sequence:
#
# PCOD9278968 Si02
#       7
#     8   4   8   8   8   8   8
#     4  11  24  46  71 100 133 176 224 270 335 404
#     4  12  22  42  68 102 136 166 218 280 336 388
#     4  12  26  46  65  91 135 183 228 272 328 400
#     4  11  24  40  64  99 133 178 221 269 336 399
#     4  11  26  46  70  98 134 176 222 280 337 390
#     4  10  21  33  57  95 133 167 203 263 326 391
#     4  11  23  39  67 102 138 170 215 277 336 395
#
# _framework density 20.410167000000001
#
# number of rings (size 3 to 8) (size 9 to 14) (size 15 to 20)
#    0.000    0.923    3.077    4.154    8.615    0.615 
#    0.000    0.000    0.000    0.000    0.000    0.000 
#    0.000    0.000    0.000    0.000    0.000    0.000 
#
# Total GULP energy -145005.127722 kJ/mol
# GULP energy per Si atom -5577.120297 kJ/mol
# Density = 2.036371 g / cm^3
# Si number density = 20.410167 Si / 1000 Ang^3
#
#
#
# Elastic Constant Matrix: (Units=GPa)
#
#
# Indices 1 2 3 4 5 6 
#
# 1 87.9808 33.7558 17.7118 0.0000 -18.5549 0.0000
# 2 33.7558 95.6983 21.8387 0.0000 -9.9205 0.0000
# 3 17.7118 21.8387 85.6568 0.0000 -6.2861 0.0000
# 4 0.0000 0.0000 0.0000 28.5205 0.0000 10.3011
# 5 -18.5549 -9.9205 -6.2861 0.0000 41.8663 0.0000
# 6 0.0000 0.0000 0.0000 10.3011 0.0000 38.6898
#
#
#
# Elastic Compliance Matrix: (Units=1/GPa)
#
#
# Indices 1 2 3 4 5 6 
#
# 1 0.014364 -0.004185 -0.001526 0.000000 0.005145 0.000000
# 2 -0.004185 0.012524 -0.002271 0.000000 0.000772 0.000000
# 3 -0.001526 -0.002271 0.012619 0.000000 0.000680 0.000000
# 4 0.000000 0.000000 0.000000 0.038793 0.000000 -0.010329
# 5 0.005145 0.000772 0.000680 0.000000 0.026451 0.000000
# 6 0.000000 0.000000 0.000000 -0.010329 0.000000 0.028597
#
#
# Mechanical properties :
#
#
# Convention : Reuss Voigt Hill
#
# Bulk Modulus (GPa) = 42.47445 46.21650 44.34548
# Shear Modulus (GPa) = 31.81496 34.88397 33.34947
#
# Velocity S-wave (km/s) = 3.95242 4.13867 4.04662
# Velocity P-wave (km/s) = 6.45635 6.74767 6.60362
#
# Compressibility (1/GPa) = 0.02354356
#
# Stress axis : x y z
#
# Youngs Moduli (GPa) = 69.61799 79.84658 79.24633
#
# Poissons Ratio (x) = 0.33417 0.12089
# Poissons Ratio (y) = 0.29136 0.17997
# Poissons Ratio (z) = 0.10620 0.18133
#
# Static dielectric constant tensor:
#      x y z
#    x 1.775940 0.000000 0.004110 
#    y 0.000000 1.785740 0.000000 
#    z 0.004110 0.000000 1.732550 
# 
# From -- ./inp_files/58679.got.cif
#   From: 2010.05.17/outbox.cif.g08.bks.cpg/sg15_30_cif.got.tgz:58679.got - 2010.06.03 18:47:42.
