data_PCOD9278409
_publ_section_title
;
Structure prediction by ZEFSAII (Michael W. Deem and Ramdas Pophale) SiO2 
 PCOD9278409
Probable space group: C 2/C
;
_chemical_formula_sum "Si O2"
_cell_formula_units_Z 52
_cell_length_a 16.516377
_cell_length_b 21.124695
_cell_length_c 8.512324
_cell_angle_alpha 90.000000
_cell_angle_beta 52.585936
_cell_angle_gamma 90.000000
_cell_volume 2358.951890
_symmetry_space_group_name_H-M "C 2/C"
_symmetry_group_IT_number 15
_symmetry_cell_setting 'monoclinic'
loop_
_space_group_symop_operation_xyz
x,y,z
-x,y,1/2-z
-x,-y,-z
x,-y,1/2+z
1/2+x,1/2+y,z
1/2-x,1/2+y,1/2-z
1/2-x,1/2-y,-z
1/2+x,1/2-y,1/2+z
loop_
_atom_site_type_symbol
_atom_site_label
_atom_site_fract_x
_atom_site_fract_y
_atom_site_fract_z
Si Si1 0.746754 0.235330 0.256420
Si Si2 0.811860 0.336070 0.942592
Si Si3 0.119228 0.824829 0.636204
Si Si4 0.101143 0.912326 0.196486
Si Si5 0.881755 0.439916 0.084974
Si Si6 0.000000 0.545543 0.750000
Si Si7 0.150392 0.042783 0.967109
O O1 0.808398 0.273973 0.053176
O O2 0.828195 0.200592 0.268999
O O3 0.682286 0.287397 0.427502
O O4 0.672479 0.185984 0.254427
O O5 0.699665 0.368158 0.074254
O O6 0.880997 0.385665 0.953625
O O7 0.137595 0.899947 0.603816
O O8 0.000000 0.812160 0.750000
O O9 0.085529 0.935614 0.392935
O O10 0.000000 0.880214 0.250000
O O11 0.121793 0.975541 0.071114
O O12 0.766735 0.456925 0.270065
O O13 0.936986 0.420889 0.184036
O O14 0.927950 0.500298 0.940649
#
# Coordination Sequence:
#
# PCOD9278409 Si02
#       7
#     8   8   8   8   8   4   8
#     4  10  23  46  65  92 129 178 221 278 322 385
#     4  10  22  43  67  90 132 169 220 269 331 380
#     4  11  24  45  69  97 131 176 224 274 332 393
#     4  11  23  37  65 102 132 167 211 261 326 406
#     4  10  20  43  60  98 124 178 211 272 327 386
#     4  10  22  40  70  88 140 166 224 270 322 396
#     4  11  23  41  65  97 138 167 209 267 343 392
#
# _framework density 22.043686999999998
#
# number of rings (size 3 to 8) (size 9 to 14) (size 15 to 20)
#    0.000    1.538    3.077    2.769    4.308    0.000 
#    9.692    1.538    0.000    0.000    0.000    0.000 
#    0.000    0.000    0.000    0.000    0.000    0.000 
#
# Total GULP energy -145282.191716 kJ/mol
# GULP energy per Si atom -5587.776604 kJ/mol
# Density = 2.199351 g / cm^3
# Si number density = 22.043687 Si / 1000 Ang^3
#
#
#
# Elastic Constant Matrix: (Units=GPa)
#
#
# Indices 1 2 3 4 5 6 
#
# 1 120.4884 15.2142 24.8722 0.0000 14.4891 0.0000
# 2 15.2142 48.2704 4.9549 0.0000 10.0431 0.0000
# 3 24.8722 4.9549 35.9585 0.0000 -2.2880 0.0000
# 4 0.0000 0.0000 0.0000 7.5897 0.0000 25.0704
# 5 14.4891 10.0431 -2.2880 0.0000 34.1917 0.0000
# 6 0.0000 0.0000 0.0000 25.0704 0.0000 0.0213
#
#
#
# Elastic Compliance Matrix: (Units=1/GPa)
#
#
# Indices 1 2 3 4 5 6 
#
# 1 0.010568 -0.001640 -0.007369 0.000000 -0.004490 0.000000
# 2 -0.001640 0.022759 -0.002393 0.000000 -0.006150 0.000000
# 3 -0.007369 -0.002393 0.033623 0.000000 0.006076 0.000000
# 4 0.000000 0.000000 0.000000 -0.000034 0.000000 0.039898
# 5 -0.004490 -0.006150 0.006076 0.000000 0.033362 0.000000
# 6 0.000000 0.000000 0.000000 0.039898 0.000000 -0.012079
#
#
# Mechanical properties :
#
#
# Convention : Reuss Voigt Hill
#
# Bulk Modulus (GPa) = 22.65250 32.75554 27.70402
# Shear Modulus (GPa) = 39.77107 19.00562 29.38835
#
# Velocity S-wave (km/s) = 4.25219 2.93948 3.65524
# Velocity P-wave (km/s) = 5.86572 5.13929 5.51448
#
# Compressibility (1/GPa) = 0.04414524
#
# Stress axis : x y z
#
# Youngs Moduli (GPa) = 94.62722 43.93907 29.74120
#
# Poissons Ratio (x) = 0.07207 0.21917
# Poissons Ratio (y) = 0.15522 0.07116
# Poissons Ratio (z) = 0.69733 0.10514
#
# Static dielectric constant tensor:
#      x y z
#    x 1.869300 0.000000 0.023080 
#    y 0.000000 1.805300 0.000000 
#    z 0.023080 0.000000 1.821960 
# 
# From -- ./inp_files/50566.got.cif
#   From: 2010.05.17/outbox.cif.g08.bks.cpg/sg15_26_cif.got.tgz:50566.got - 2010.06.03 18:47:42.
