data_PCOD9278462
_publ_section_title
;
Structure prediction by ZEFSAII (Michael W. Deem and Ramdas Pophale) SiO2 
 PCOD9278462
Probable space group: C 2/C
;
_chemical_formula_sum "Si O2"
_cell_formula_units_Z 60
_cell_length_a 21.193076
_cell_length_b 10.388037
_cell_length_c 16.748891
_cell_angle_alpha 90.000000
_cell_angle_beta 42.405371
_cell_angle_gamma 90.000000
_cell_volume 2486.639440
_symmetry_space_group_name_H-M "C 2/C"
_symmetry_group_IT_number 15
_symmetry_cell_setting 'monoclinic'
loop_
_space_group_symop_operation_xyz
x,y,z
-x,y,1/2-z
-x,-y,-z
x,-y,1/2+z
1/2+x,1/2+y,z
1/2-x,1/2+y,1/2-z
1/2-x,1/2-y,-z
1/2+x,1/2-y,1/2+z
loop_
_atom_site_type_symbol
_atom_site_label
_atom_site_fract_x
_atom_site_fract_y
_atom_site_fract_z
Si Si1 0.444524 0.431855 0.479493
Si Si2 0.000000 0.341461 0.750000
Si Si3 0.176337 0.334421 0.381521
Si Si4 0.185234 0.726059 0.134781
Si Si5 0.774103 0.963256 0.046156
Si Si6 0.531336 0.983562 0.064661
Si Si7 0.629427 0.795779 0.250016
Si Si8 0.417171 0.466244 0.770887
O O1 0.500000 0.500000 0.500000
O O2 0.396094 0.288723 0.534759
O O3 0.359405 0.524160 0.529586
O O4 0.524324 0.432511 0.336700
O O5 0.911916 0.255624 0.816366
O O6 0.993068 0.423735 0.837594
O O7 0.275804 0.303040 0.327146
O O8 0.138463 0.468875 0.453256
O O9 0.179482 0.340791 0.284115
O O10 0.202384 0.576605 0.137282
O O11 0.250000 0.750000 0.000000
O O12 0.702268 0.843786 0.114324
O O13 0.828840 0.989804 0.911910
O O14 0.475456 0.856597 0.145495
O O15 0.500000 0.000000 0.000000
O O16 0.617430 0.644565 0.255975
O O17 0.500000 0.409848 0.750000
#
# Coordination Sequence:
#
# PCOD9278462 Si02
#       8
#     8   4   8   8   8   8   8   8
#     4  10  20  43  66  92 126 177 224 273 336 402
#     4  12  22  44  70  98 138 184 224 302 352 404
#     4  10  22  43  67  99 137 175 233 287 339 424
#     4  11  23  43  66  98 137 177 232 286 349 418
#     4  10  23  41  61  98 134 168 226 279 341 418
#     4  10  23  41  67  99 135 180 223 277 356 421
#     4  11  21  42  66  96 143 175 222 287 348 419
#     4  10  22  40  67  97 130 179 225 273 336 419
#
# _framework density 24.128952000000002
#
# number of rings (size 3 to 8) (size 9 to 14) (size 15 to 20)
#    0.000    1.600    4.000    0.400    0.933    1.067 
#    7.200    1.333    0.000    0.000    0.000    0.000 
#    0.000    0.000    0.000    0.000    0.000    0.000 
#
# Total GULP energy -167052.794023 kJ/mol
# GULP energy per Si atom -5568.426467 kJ/mol
# Density = 2.407403 g / cm^3
# Si number density = 24.128952 Si / 1000 Ang^3
#
#
#
# Elastic Constant Matrix: (Units=GPa)
#
#
# Indices 1 2 3 4 5 6 
#
# 1 106.8324 17.0101 47.9326 0.0000 -21.7485 0.0000
# 2 17.0101 53.2651 30.6060 0.0000 -10.6783 0.0000
# 3 47.9326 30.6060 108.9177 0.0000 -5.8262 0.0000
# 4 0.0000 0.0000 0.0000 34.4138 0.0000 2.1135
# 5 -21.7485 -10.6783 -5.8262 0.0000 43.5857 0.0000
# 6 0.0000 0.0000 0.0000 2.1135 0.0000 29.1980
#
#
#
# Elastic Compliance Matrix: (Units=1/GPa)
#
#
# Indices 1 2 3 4 5 6 
#
# 1 0.012949 0.000141 -0.005430 0.000000 0.005770 0.000000
# 2 0.000141 0.023379 -0.006367 0.000000 0.004947 0.000000
# 3 -0.005430 -0.006367 0.013226 0.000000 -0.002501 0.000000
# 4 0.000000 0.000000 0.000000 0.029188 0.000000 -0.002113
# 5 0.005770 0.004947 -0.002501 0.000000 0.026700 0.000000
# 6 0.000000 0.000000 0.000000 -0.002113 0.000000 0.034402
#
#
# Mechanical properties :
#
#
# Convention : Reuss Voigt Hill
#
# Bulk Modulus (GPa) = 38.10494 51.12363 44.61429
# Shear Modulus (GPa) = 29.08631 33.00395 31.04513
#
# Velocity S-wave (km/s) = 3.47573 3.70241 3.59086
# Velocity P-wave (km/s) = 5.65103 6.28576 5.97683
#
# Compressibility (1/GPa) = 0.02624332
#
# Stress axis : x y z
#
# Youngs Moduli (GPa) = 77.22804 42.77306 75.60818
#
# Poissons Ratio (x) = -0.00605 0.41052
# Poissons Ratio (y) = -0.01092 0.48141
# Poissons Ratio (z) = 0.41931 0.27234
#
# Static dielectric constant tensor:
#      x y z
#    x 1.927540 0.000000 0.003860 
#    y 0.000000 2.030020 0.000000 
#    z 0.003860 0.000000 1.919220 
# 
# From -- ./inp_files/215172.got.cif
#   From: 2010.05.17/outbox.cif.g08.bks.cpg/sg15_108_cif.got.tgz:215172.got - 2010.06.03 18:47:42.
