data_PCOD9278775
_publ_section_title
;
Structure prediction by ZEFSAII (Michael W. Deem and Ramdas Pophale) SiO2 
 PCOD9278775
Probable space group: C 2/C
;
_chemical_formula_sum "Si O2"
_cell_formula_units_Z 36
_cell_length_a 4.963993
_cell_length_b 21.716899
_cell_length_c 13.496232
_cell_angle_alpha 90.000000
_cell_angle_beta 84.784803
_cell_angle_gamma 90.000000
_cell_volume 1448.905087
_symmetry_space_group_name_H-M "C 2/C"
_symmetry_group_IT_number 15
_symmetry_cell_setting 'monoclinic'
loop_
_space_group_symop_operation_xyz
x,y,z
-x,y,1/2-z
-x,-y,-z
x,-y,1/2+z
1/2+x,1/2+y,z
1/2-x,1/2+y,1/2-z
1/2-x,1/2-y,-z
1/2+x,1/2-y,1/2+z
loop_
_atom_site_type_symbol
_atom_site_label
_atom_site_fract_x
_atom_site_fract_y
_atom_site_fract_z
Si Si1 0.000000 0.397307 0.250000
Si Si2 0.505031 0.402032 0.935668
Si Si3 0.303813 0.782319 0.337273
Si Si4 0.994770 0.317841 0.552171
Si Si5 0.684189 0.016907 0.586888
O O1 0.768048 0.348439 0.286338
O O2 0.984422 0.443908 0.160916
O O3 0.231128 0.368908 0.909346
O O4 0.666866 0.456669 0.873776
O O5 0.714935 0.347895 0.948756
O O6 0.414307 0.437379 0.038292
O O7 0.500000 0.749782 0.250000
O O8 0.053615 0.740197 0.374938
O O9 0.438140 0.797941 0.440058
O O10 0.500000 0.000000 0.500000
#
# Coordination Sequence:
#
# PCOD9278775 Si02
#       5
#     4   8   8   8   8
#     4  10  20  46  66 108 134 184 238 286 346 434
#     4  11  22  42  71  97 138 180 224 284 350 417
#     4   9  21  42  69  97 138 182 232 291 341 419
#     4  11  22  44  69  99 135 184 231 286 352 406
#     4  11  22  43  72 101 139 185 229 288 354 413
#
# _framework density 24.846349
#
# number of rings (size 3 to 8) (size 9 to 14) (size 15 to 20)
#    0.667    0.889    4.444    0.000    0.000    3.556 
#    4.000   20.000    0.000    0.000    0.000    0.000 
#    0.000    0.000    0.000    0.000    0.000    0.000 
#
# Total GULP energy -100496.664358 kJ/mol
# GULP energy per Si atom -5583.148020 kJ/mol
# Density = 2.478980 g / cm^3
# Si number density = 24.846349 Si / 1000 Ang^3
#
#
#
# Elastic Constant Matrix: (Units=GPa)
#
#
# Indices 1 2 3 4 5 6 
#
# 1 96.3299 29.2975 29.4210 0.0000 -9.0866 0.0000
# 2 29.2975 136.9952 68.7393 0.0000 -17.1661 0.0000
# 3 29.4210 68.7393 113.7805 0.0000 -15.7560 0.0000
# 4 0.0000 0.0000 0.0000 66.1468 0.0000 -34.8644
# 5 -9.0866 -17.1661 -15.7560 0.0000 9.3330 0.0000
# 6 0.0000 0.0000 0.0000 -34.8644 0.0000 34.8946
#
#
#
# Elastic Compliance Matrix: (Units=1/GPa)
#
#
# Indices 1 2 3 4 5 6 
#
# 1 0.011796 -0.000833 -0.001525 0.000000 0.007378 0.000000
# 2 -0.000833 0.011515 -0.005117 0.000000 0.011730 0.000000
# 3 -0.001525 -0.005117 0.014050 0.000000 0.012823 0.000000
# 4 0.000000 0.000000 0.000000 0.031936 0.000000 0.031908
# 5 0.007378 0.011730 0.012823 0.000000 0.157553 0.000000
# 6 0.000000 0.000000 0.000000 0.031908 0.000000 0.060538
#
#
# Mechanical properties :
#
#
# Convention : Reuss Voigt Hill
#
# Bulk Modulus (GPa) = 44.62089 66.89123 55.75606
# Shear Modulus (GPa) = 16.13895 36.71807 26.42851
#
# Velocity S-wave (km/s) = 2.55139 3.84839 3.26495
# Velocity P-wave (km/s) = 5.16500 6.83573 6.05824
#
# Compressibility (1/GPa) = 0.02241103
#
# Stress axis : x y z
#
# Youngs Moduli (GPa) = 84.77376 86.84344 71.17267
#
# Poissons Ratio (x) = 0.07233 0.10857
# Poissons Ratio (y) = 0.07060 0.36419
# Poissons Ratio (z) = 0.12931 0.44437
#
# Static dielectric constant tensor:
#      x y z
#    x 1.991790 0.000000 -0.030520 
#    y 0.000000 2.041810 0.000000 
#    z -0.030520 0.000000 2.000450 
# 
# From -- ./inp_files/129016.got.cif
#   From: 2010.05.17/outbox.cif.g08.bks.cpg/sg15_65_cif.got.tgz:129016.got - 2010.06.03 18:47:42.
