data_PCOD9278552
_publ_section_title
;
Structure prediction by ZEFSAII (Michael W. Deem and Ramdas Pophale) SiO2 
 PCOD9278552
Probable space group: C 2/C
;
_chemical_formula_sum "Si O2"
_cell_formula_units_Z 56
_cell_length_a 16.889579
_cell_length_b 17.175796
_cell_length_c 8.758840
_cell_angle_alpha 90.000000
_cell_angle_beta 100.499787
_cell_angle_gamma 90.000000
_cell_volume 2498.323726
_symmetry_space_group_name_H-M "C 2/C"
_symmetry_group_IT_number 15
_symmetry_cell_setting 'monoclinic'
loop_
_space_group_symop_operation_xyz
x,y,z
-x,y,1/2-z
-x,-y,-z
x,-y,1/2+z
1/2+x,1/2+y,z
1/2-x,1/2+y,1/2-z
1/2-x,1/2-y,-z
1/2+x,1/2-y,1/2+z
loop_
_atom_site_type_symbol
_atom_site_label
_atom_site_fract_x
_atom_site_fract_y
_atom_site_fract_z
Si Si1 0.146661 0.836563 0.524195
Si Si2 0.073772 0.433534 0.368779
Si Si3 0.171732 0.322848 0.214769
Si Si4 0.304021 0.073050 0.073982
Si Si5 0.513972 0.583671 0.572820
Si Si6 0.572653 0.842981 0.661655
Si Si7 0.655313 0.687042 0.660225
O O1 0.164507 0.760259 0.629657
O O2 0.210201 0.907179 0.575485
O O3 0.154019 0.815264 0.346555
O O4 0.055390 0.861667 0.519156
O O5 0.098475 0.356077 0.285224
O O6 0.152828 0.488748 0.408913
O O7 0.046676 0.404567 0.524881
O O8 0.000000 0.471415 0.250000
O O9 0.251544 0.318441 0.346463
O O10 0.182700 0.387698 0.086231
O O11 0.355413 0.121000 0.214589
O O12 0.500000 0.582370 0.750000
O O13 0.500000 0.500000 0.500000
O O14 0.602912 0.616284 0.578861
O O15 0.500000 0.823006 0.750000
O O16 0.608675 0.765118 0.600667
#
# Coordination Sequence:
#
# PCOD9278552 Si02
#       7
#     8   8   8   8   8   8   8
#     4  10  20  43  73  98 127 184 233 274 331 413
#     4  12  29  42  61 109 146 173 218 290 345 399
#     4  11  22  45  70  99 136 172 233 284 333 411
#     4  11  22  43  69  93 134 184 225 271 339 410
#     4  10  23  42  65  99 131 174 228 279 340 396
#     4  12  23  42  71  94 135 184 226 267 343 414
#     4  10  21  41  71  97 126 183 229 274 330 413
#
# _framework density 22.415028
#
# number of rings (size 3 to 8) (size 9 to 14) (size 15 to 20)
#    0.000    1.143    2.857    4.286    4.000    2.286 
#    5.143    0.000    0.000    0.000    0.000    0.000 
#    0.000    0.000    0.000    0.000    0.000    0.000 
#
# Total GULP energy -156581.964753 kJ/mol
# GULP energy per Si atom -5592.213027 kJ/mol
# Density = 2.236401 g / cm^3
# Si number density = 22.415028 Si / 1000 Ang^3
#
#
#
# Elastic Constant Matrix: (Units=GPa)
#
#
# Indices 1 2 3 4 5 6 
#
# 1 94.7427 31.2857 34.6122 0.0000 24.7262 0.0000
# 2 31.2857 93.5644 27.5466 0.0000 15.9453 0.0000
# 3 34.6122 27.5466 60.4940 0.0000 22.3573 0.0000
# 4 0.0000 0.0000 0.0000 33.4680 0.0000 1.9078
# 5 24.7262 15.9453 22.3573 0.0000 32.2531 0.0000
# 6 0.0000 0.0000 0.0000 1.9078 0.0000 32.9855
#
#
#
# Elastic Compliance Matrix: (Units=1/GPa)
#
#
# Indices 1 2 3 4 5 6 
#
# 1 0.014927 -0.002373 -0.004927 0.000000 -0.006856 0.000000
# 2 -0.002373 0.012934 -0.003820 0.000000 -0.001928 0.000000
# 3 -0.004927 -0.003820 0.025537 0.000000 -0.012037 0.000000
# 4 0.000000 0.000000 0.000000 0.029978 0.000000 -0.001734
# 5 -0.006856 -0.001928 -0.012037 0.000000 0.045557 0.000000
# 6 0.000000 0.000000 0.000000 -0.001734 0.000000 0.030417
#
#
# Mechanical properties :
#
#
# Convention : Reuss Voigt Hill
#
# Bulk Modulus (GPa) = 32.09162 48.41002 40.25082
# Shear Modulus (GPa) = 26.04486 30.09841 28.07163
#
# Velocity S-wave (km/s) = 3.41242 3.66837 3.54271
# Velocity P-wave (km/s) = 5.46573 6.29179 5.89325
#
# Compressibility (1/GPa) = 0.03116079
#
# Stress axis : x y z
#
# Youngs Moduli (GPa) = 66.99050 77.31395 39.15826
#
# Poissons Ratio (x) = 0.18343 0.19293
# Poissons Ratio (y) = 0.15894 0.14958
# Poissons Ratio (z) = 0.33005 0.29533
#
# Static dielectric constant tensor:
#      x y z
#    x 1.840630 0.000000 -0.000700 
#    y 0.000000 1.844670 0.000000 
#    z -0.000700 0.000000 1.836510 
# 
# From -- ./inp_files/49178.got.cif
#   From: 2010.05.17/outbox.cif.g08.bks.cpg/sg15_25_cif.got.tgz:49178.got - 2010.06.03 18:47:42.
