data_PCOD9278324
_publ_section_title
;
Structure prediction by ZEFSAII (Michael W. Deem and Ramdas Pophale) SiO2 
 PCOD9278324
Probable space group: C 2/C
;
_chemical_formula_sum "Si O2"
_cell_formula_units_Z 60
_cell_length_a 28.369055
_cell_length_b 13.996789
_cell_length_c 14.788038
_cell_angle_alpha 90.000000
_cell_angle_beta 156.826225
_cell_angle_gamma 90.000000
_cell_volume 2310.744575
_symmetry_space_group_name_H-M "C 2/C"
_symmetry_group_IT_number 15
_symmetry_cell_setting 'monoclinic'
loop_
_space_group_symop_operation_xyz
x,y,z
-x,y,1/2-z
-x,-y,-z
x,-y,1/2+z
1/2+x,1/2+y,z
1/2-x,1/2+y,1/2-z
1/2-x,1/2-y,-z
1/2+x,1/2-y,1/2+z
loop_
_atom_site_type_symbol
_atom_site_label
_atom_site_fract_x
_atom_site_fract_y
_atom_site_fract_z
Si Si1 0.788073 0.645379 0.002030
Si Si2 0.341477 0.420696 0.537913
Si Si3 0.076891 0.040075 0.553000
Si Si4 0.156092 0.326975 0.092961
Si Si5 0.750000 0.250000 0.000000
Si Si6 0.983718 0.494978 0.323559
Si Si7 0.728015 0.647552 0.284959
Si Si8 0.681135 0.111514 0.250432
O O1 0.803100 0.674794 0.132592
O O2 0.856109 0.540323 0.120090
O O3 0.654281 0.624159 0.733907
O O4 0.850970 0.693824 0.026151
O O5 0.519691 0.434659 0.693656
O O6 0.286762 0.369643 0.351561
O O7 0.296451 0.347430 0.534857
O O8 0.274234 0.523067 0.424986
O O9 0.164135 0.953839 0.676851
O O10 0.000000 0.000000 0.500000
O O11 0.130304 0.233401 0.106110
O O12 0.069780 0.412032 0.969148
O O13 0.799445 0.316607 0.998131
O O14 0.045224 0.426426 0.504064
O O15 0.000000 0.454868 0.250000
O O16 0.793129 0.654291 0.303080
#
# Coordination Sequence:
#
# PCOD9278324 Si02
#       8
#     8   8   8   8   4   8   8   8
#     4  11  22  41  65  93 142 178 230 286 351 430
#     4  10  21  40  68 106 133 180 240 293 364 427
#     4  12  22  42  70 105 133 179 242 300 360 427
#     4   9  22  42  65  94 138 186 228 290 366 422
#     4  10  20  42  70  94 148 186 234 286 372 436
#     4   9  19  40  66  92 124 180 231 287 352 423
#     4  11  23  40  68 101 137 184 234 293 355 429
#     4  11  22  39  67 104 130 180 242 296 346 422
#
# _framework density 25.965655999999999
#
# number of rings (size 3 to 8) (size 9 to 14) (size 15 to 20)
#    0.000    1.600    2.667    2.800    0.000    2.667 
#    7.200    2.667   20.533    0.000    0.000    0.000 
#    0.000    0.000    0.000    0.000    0.000    0.000 
#
# Total GULP energy -167196.667693 kJ/mol
# GULP energy per Si atom -5573.222256 kJ/mol
# Density = 2.590656 g / cm^3
# Si number density = 25.965656 Si / 1000 Ang^3
#
#
#
# Elastic Constant Matrix: (Units=GPa)
#
#
# Indices 1 2 3 4 5 6 
#
# 1 98.8498 -3.9803 15.6436 0.0000 -10.7299 0.0000
# 2 -3.9803 94.8219 25.6715 0.0000 -10.2077 0.0000
# 3 15.6436 25.6715 143.4508 0.0000 -20.9545 0.0000
# 4 0.0000 0.0000 0.0000 21.3688 0.0000 -12.7781
# 5 -10.7299 -10.2077 -20.9545 0.0000 21.2077 0.0000
# 6 0.0000 0.0000 0.0000 -12.7781 0.0000 31.9442
#
#
#
# Elastic Compliance Matrix: (Units=1/GPa)
#
#
# Indices 1 2 3 4 5 6 
#
# 1 0.010855 0.001208 -0.000599 0.000000 0.005481 0.000000
# 2 0.001208 0.011507 -0.001511 0.000000 0.004657 0.000000
# 3 -0.000599 -0.001511 0.008363 0.000000 0.007233 0.000000
# 4 0.000000 0.000000 0.000000 0.061510 0.000000 0.024605
# 5 0.005481 0.004657 0.007233 0.000000 0.059314 0.000000
# 6 0.000000 0.000000 0.000000 0.024605 0.000000 0.041147
#
#
# Mechanical properties :
#
#
# Convention : Reuss Voigt Hill
#
# Bulk Modulus (GPa) = 34.57670 45.75468 40.16569
# Shear Modulus (GPa) = 24.49284 34.88998 29.69141
#
# Velocity S-wave (km/s) = 3.07462 3.66962 3.38522
# Velocity P-wave (km/s) = 5.09407 5.96778 5.54815
#
# Compressibility (1/GPa) = 0.02892121
#
# Stress axis : x y z
#
# Youngs Moduli (GPa) = 92.12503 86.90264 119.56992
#
# Poissons Ratio (x) = -0.10497 0.07165
# Poissons Ratio (y) = -0.11128 0.18064
# Poissons Ratio (z) = 0.05520 0.13129
#
# Static dielectric constant tensor:
#      x y z
#    x 2.103490 0.000000 0.015220 
#    y 0.000000 2.072450 0.000000 
#    z 0.015220 0.000000 2.130300 
# 
# From -- ./inp_files/178551.got.cif
#   From: 2010.05.17/outbox.cif.g08.bks.cpg/sg15_90_cif.got.tgz:178551.got - 2010.06.03 18:47:42.
