data_PCOD9278161
_publ_section_title
;
Structure prediction by ZEFSAII (Michael W. Deem and Ramdas Pophale) SiO2 
 PCOD9278161
Probable space group: C 2/C
;
_chemical_formula_sum "Si O2"
_cell_formula_units_Z 40
_cell_length_a 16.573705
_cell_length_b 15.697284
_cell_length_c 6.012156
_cell_angle_alpha 90.000000
_cell_angle_beta 80.380443
_cell_angle_gamma 90.000000
_cell_volume 1542.142236
_symmetry_space_group_name_H-M "C 2/C"
_symmetry_group_IT_number 15
_symmetry_cell_setting 'monoclinic'
loop_
_space_group_symop_operation_xyz
x,y,z
-x,y,1/2-z
-x,-y,-z
x,-y,1/2+z
1/2+x,1/2+y,z
1/2-x,1/2+y,1/2-z
1/2-x,1/2-y,-z
1/2+x,1/2-y,1/2+z
loop_
_atom_site_type_symbol
_atom_site_label
_atom_site_fract_x
_atom_site_fract_y
_atom_site_fract_z
Si Si1 0.758013 0.369223 0.226785
Si Si2 0.082354 0.817071 0.825721
Si Si3 0.859270 0.724714 0.299850
Si Si4 0.083256 0.369678 0.112815
Si Si5 0.374738 0.512718 0.270927
O O1 0.701749 0.286214 0.311475
O O2 0.828768 0.404846 0.357341
O O3 0.699108 0.446888 0.200352
O O4 0.804753 0.332150 0.989381
O O5 0.088640 0.724522 0.718477
O O6 0.148297 0.887466 0.730446
O O7 0.000000 0.852976 0.750000
O O8 0.088196 0.793471 0.082002
O O9 0.915036 0.657692 0.143159
O O10 0.000000 0.409615 0.250000
O O11 0.412934 0.498780 0.501679
#
# Coordination Sequence:
#
# PCOD9278161 Si02
#       5
#     8   8   8   8   8
#     4  10  22  38  69  96 134 185 234 294 340 422
#     4  10  23  40  63  99 141 187 224 286 346 429
#     4  10  20  42  66  99 131 183 238 291 346 416
#     4  10  22  40  69 103 136 177 235 293 360 412
#     4  12  26  44  65 100 141 189 237 282 351 422
#
# _framework density 25.937943000000001
#
# number of rings (size 3 to 8) (size 9 to 14) (size 15 to 20)
#    0.000    1.600    2.000    1.800    2.800    8.000 
#    0.000    0.000    0.000    1.200    0.000    0.000 
#    0.000    0.000    0.000    0.000    0.000    0.000 
#
# Total GULP energy -111479.608397 kJ/mol
# GULP energy per Si atom -5573.980420 kJ/mol
# Density = 2.587891 g / cm^3
# Si number density = 25.937943 Si / 1000 Ang^3
#
#
#
# Elastic Constant Matrix: (Units=GPa)
#
#
# Indices 1 2 3 4 5 6 
#
# 1 153.8360 30.8867 59.8148 0.0000 17.3173 0.0000
# 2 30.8867 53.9336 5.0559 0.0000 6.3779 0.0000
# 3 59.8148 5.0559 144.6754 0.0000 20.9408 0.0000
# 4 0.0000 0.0000 0.0000 26.9424 0.0000 -4.2981
# 5 17.3173 6.3779 20.9408 0.0000 17.9491 0.0000
# 6 0.0000 0.0000 0.0000 -4.2981 0.0000 6.7043
#
#
#
# Elastic Compliance Matrix: (Units=1/GPa)
#
#
# Indices 1 2 3 4 5 6 
#
# 1 0.008972 -0.004435 -0.003043 0.000000 -0.003529 0.000000
# 2 -0.004435 0.021565 0.001889 0.000000 -0.005587 0.000000
# 3 -0.003043 0.001889 0.009356 0.000000 -0.008651 0.000000
# 4 0.000000 0.000000 0.000000 0.041345 0.000000 0.026506
# 5 -0.003529 -0.005587 -0.008651 0.000000 0.071196 0.000000
# 6 0.000000 0.000000 0.000000 0.026506 0.000000 0.166151
#
#
# Mechanical properties :
#
#
# Convention : Reuss Voigt Hill
#
# Bulk Modulus (GPa) = 34.82709 60.43997 47.63353
# Shear Modulus (GPa) = 14.73469 27.43165 21.08317
#
# Velocity S-wave (km/s) = 2.38602 3.25559 2.85411
# Velocity P-wave (km/s) = 4.58770 6.12243 5.40977
#
# Compressibility (1/GPa) = 0.02871328
#
# Stress axis : x y z
#
# Youngs Moduli (GPa) = 111.46380 46.37162 106.87829
#
# Poissons Ratio (x) = 0.20567 0.32527
# Poissons Ratio (y) = 0.49436 -0.20187
# Poissons Ratio (z) = 0.33923 -0.08759
#
# Static dielectric constant tensor:
#      x y z
#    x 2.171940 0.000000 0.067430 
#    y 0.000000 1.982030 0.000000 
#    z 0.067430 0.000000 2.254280 
# 
# From -- ./inp_files/9795.got.cif
#   From: 2010.05.17/outbox.cif.g08.bks.cpg/sg15_5_cif.got.tgz:9795.got - 2010.06.03 18:47:42.
