data_PCOD9278895
_publ_section_title
;
Structure prediction by ZEFSAII (Michael W. Deem and Ramdas Pophale) SiO2 
 PCOD9278895
Probable space group: C 2/C
;
_chemical_formula_sum "Si O2"
_cell_formula_units_Z 64
_cell_length_a 12.549904
_cell_length_b 25.410254
_cell_length_c 14.551590
_cell_angle_alpha 90.000000
_cell_angle_beta 146.852716
_cell_angle_gamma 90.000000
_cell_volume 2537.364706
_symmetry_space_group_name_H-M "C 2/C"
_symmetry_group_IT_number 15
_symmetry_cell_setting 'monoclinic'
loop_
_space_group_symop_operation_xyz
x,y,z
-x,y,1/2-z
-x,-y,-z
x,-y,1/2+z
1/2+x,1/2+y,z
1/2-x,1/2+y,1/2-z
1/2-x,1/2-y,-z
1/2+x,1/2-y,1/2+z
loop_
_atom_site_type_symbol
_atom_site_label
_atom_site_fract_x
_atom_site_fract_y
_atom_site_fract_z
Si Si1 0.277110 0.479363 0.136363
Si Si2 0.807891 0.607813 0.670173
Si Si3 0.165268 0.431422 0.682704
Si Si4 0.767057 0.493198 0.600119
Si Si5 0.893745 0.790758 0.961518
Si Si6 0.903369 0.203051 0.083716
Si Si7 0.811751 0.130743 0.724970
Si Si8 0.009369 0.676672 0.116616
O O1 0.277201 0.535050 0.187846
O O2 0.674475 0.490082 0.433819
O O3 0.375689 0.428466 0.252467
O O4 0.050408 0.457900 0.972957
O O5 0.717474 0.549507 0.608856
O O6 0.695077 0.652154 0.532628
O O7 0.837190 0.627291 0.795359
O O8 0.000000 0.600997 0.750000
O O9 0.263376 0.446333 0.850527
O O10 0.138430 0.369016 0.658253
O O11 0.000000 0.491714 0.750000
O O12 0.668957 0.808648 0.810302
O O13 0.944566 0.783695 0.888716
O O14 0.953902 0.733859 0.040543
O O15 0.025521 0.831596 0.114202
O O16 0.000000 0.189665 0.250000
O O17 0.750000 0.250000 0.000000
O O18 0.704323 0.149847 0.554024
#
# Coordination Sequence:
#
# PCOD9278895 Si02
#       8
#     8   8   8   8   8   8   8   8
#     4   9  17  32  57  88 120 155 189 244 304 352
#     4  10  21  32  55  80 117 152 191 240 287 350
#     4   9  18  32  55  88 118 149 203 242 294 362
#     4   9  17  31  56  88 115 151 196 236 296 364
#     4  11  23  38  57  84 113 157 203 240 300 356
#     4  11  24  35  49  74 117 153 194 242 289 347
#     4  10  21  38  58  86 120 151 198 247 292 355
#     4  11  22  36  61  84 114 153 200 247 295 355
#
# _framework density 25.223019000000001
#
# number of rings (size 3 to 8) (size 9 to 14) (size 15 to 20)
#    0.000    2.000    2.500    1.125   10.500    0.000 
#    0.000    0.625    2.750    0.750    3.250    0.000 
#    0.000    0.000    0.000    0.000    0.000    0.000 
#
# Total GULP energy -178540.396067 kJ/mol
# GULP energy per Si atom -5579.387377 kJ/mol
# Density = 2.516561 g / cm^3
# Si number density = 25.223019 Si / 1000 Ang^3
#
#
#
# Elastic Constant Matrix: (Units=GPa)
#
#
# Indices 1 2 3 4 5 6 
#
# 1 69.6733 20.9833 32.5197 0.0000 -3.1462 0.0000
# 2 20.9833 152.7846 51.0893 0.0000 -13.7293 0.0000
# 3 32.5197 51.0893 98.4588 0.0000 -16.8026 -0.0001
# 4 0.0000 0.0000 0.0000 31.3445 0.0000 -14.5827
# 5 -3.1462 -13.7293 -16.8026 0.0000 44.0655 -0.0001
# 6 0.0000 0.0000 -0.0001 -14.5827 -0.0001 5.0789
#
#
#
# Elastic Compliance Matrix: (Units=1/GPa)
#
#
# Indices 1 2 3 4 5 6 
#
# 1 0.017054 -0.000597 -0.005505 0.000000 -0.001068 0.000000
# 2 -0.000597 0.007979 -0.003771 0.000000 0.001005 0.000000
# 3 -0.005505 -0.003771 0.014615 0.000000 0.004005 -0.000001
# 4 0.000000 0.000000 0.000000 -0.095005 0.000000 -0.272782
# 5 -0.001068 0.001005 0.004005 0.000000 0.024458 -0.000001
# 6 0.000000 0.000000 -0.000001 -0.272782 -0.000001 -0.586327
#
#
# Mechanical properties :
#
#
# Convention : Reuss Voigt Hill
#
# Bulk Modulus (GPa) = 50.24973 58.90012 54.57493
# Shear Modulus (GPa) = -8.46242 30.51940 11.02849
#
# Velocity S-wave (km/s) = -1.83366 3.48225 2.09329
# Velocity P-wave (km/s) = 3.93476 6.29051 5.24656
#
# Compressibility (1/GPa) = 0.01990060
#
# Stress axis : x y z
#
# Youngs Moduli (GPa) = 58.63805 125.33589 68.42284
#
# Poissons Ratio (x) = 0.07486 0.37666
# Poissons Ratio (y) = 0.03503 0.25803
# Poissons Ratio (z) = 0.32280 0.47266
#
# Static dielectric constant tensor:
#      x y z
#    x -1.487930 0.000010 -2.085170 
#    y 0.000010 1.952400 0.000000 
#    z -2.085170 0.000000 0.830280 
# 
# From -- ./inp_files/250291.got.cif
#   From: 2010.05.17/outbox.cif.g08.bks.cpg/sg15_126_cif.got.tgz:250291.got - 2010.06.03 18:47:42.
