data_PCOD9278320
_publ_section_title
;
Structure prediction by ZEFSAII (Michael W. Deem and Ramdas Pophale) SiO2 
 PCOD9278320
Probable space group: C 2/C
;
_chemical_formula_sum "Si O2"
_cell_formula_units_Z 48
_cell_length_a 11.783563
_cell_length_b 9.162117
_cell_length_c 16.443059
_cell_angle_alpha 90.000000
_cell_angle_beta 75.232612
_cell_angle_gamma 90.000000
_cell_volume 1716.593489
_symmetry_space_group_name_H-M "C 2/C"
_symmetry_group_IT_number 15
_symmetry_cell_setting 'monoclinic'
loop_
_space_group_symop_operation_xyz
x,y,z
-x,y,1/2-z
-x,-y,-z
x,-y,1/2+z
1/2+x,1/2+y,z
1/2-x,1/2+y,1/2-z
1/2-x,1/2-y,-z
1/2+x,1/2-y,1/2+z
loop_
_atom_site_type_symbol
_atom_site_label
_atom_site_fract_x
_atom_site_fract_y
_atom_site_fract_z
Si Si1 0.428621 0.874839 0.346257
Si Si2 0.699432 0.225861 0.367644
Si Si3 0.734522 0.665082 0.322980
Si Si4 0.077121 0.749969 0.090166
Si Si5 0.492380 0.535372 0.346451
Si Si6 0.869964 0.431127 0.076368
O O1 0.500000 0.911205 0.250000
O O2 0.287162 0.860196 0.368605
O O3 0.446409 0.700085 0.354899
O O4 0.500143 0.949956 0.406874
O O5 0.741532 0.152107 0.276259
O O6 0.563161 0.260519 0.376503
O O7 0.685088 0.088699 0.431295
O O8 0.854518 0.659691 0.352653
O O9 0.621139 0.565776 0.360485
O O10 0.696329 0.833982 0.344128
O O11 0.095745 0.924262 0.093489
O O12 0.121566 0.682666 0.998605
O O13 0.500000 0.487479 0.250000
#
# Coordination Sequence:
#
# PCOD9278320 Si02
#       6
#     8   8   8   8   8   8
#     4  10  21  44  70  95 130 186 238 282 340 409
#     4  12  24  43  70  97 139 183 239 281 342 429
#     4  11  24  44  71 100 132 189 234 284 344 414
#     4  12  27  41  65 111 144 172 224 296 366 409
#     4  10  20  42  70  93 133 182 239 277 332 417
#     4  11  26  45  68 100 145 176 228 295 348 419
#
# _framework density 27.962357000000001
#
# number of rings (size 3 to 8) (size 9 to 14) (size 15 to 20)
#    0.000    1.000    5.000    3.500    2.333    7.333 
#    0.000    0.000    0.000    0.000    0.000    0.000 
#    0.000    0.000    0.000    0.000    0.000    0.000 
#
# Total GULP energy -134300.133981 kJ/mol
# GULP energy per Si atom -5595.838916 kJ/mol
# Density = 2.789871 g / cm^3
# Si number density = 27.962357 Si / 1000 Ang^3
#
#
#
# Elastic Constant Matrix: (Units=GPa)
#
#
# Indices 1 2 3 4 5 6 
#
# 1 207.7454 32.3660 -0.4693 0.0000 14.5785 0.0000
# 2 32.3660 81.7109 0.3776 0.0000 -2.0514 0.0000
# 3 -0.4693 0.3776 53.2731 0.0000 1.1506 0.0000
# 4 0.0000 0.0000 0.0000 23.3801 0.0000 -1.5313
# 5 14.5785 -2.0514 1.1506 0.0000 30.8749 0.0000
# 6 0.0000 0.0000 0.0000 -1.5313 0.0000 61.2804
#
#
#
# Elastic Compliance Matrix: (Units=1/GPa)
#
#
# Indices 1 2 3 4 5 6 
#
# 1 0.005342 -0.002183 0.000120 0.000000 -0.002672 0.000000
# 2 -0.002183 0.013152 -0.000154 0.000000 0.001911 0.000000
# 3 0.000120 -0.000154 0.018790 0.000000 -0.000767 0.000000
# 4 0.000000 0.000000 0.000000 0.042842 0.000000 0.001071
# 5 -0.002672 0.001911 -0.000767 0.000000 0.033806 0.000000
# 6 0.000000 0.000000 0.000000 0.001071 0.000000 0.016345
#
#
# Mechanical properties :
#
#
# Convention : Reuss Voigt Hill
#
# Bulk Modulus (GPa) = 30.44196 45.25312 37.84754
# Shear Modulus (GPa) = 34.32664 43.80407 39.06535
#
# Velocity S-wave (km/s) = 3.50752 3.96224 3.74179
# Velocity P-wave (km/s) = 5.22628 6.09518 5.67738
#
# Compressibility (1/GPa) = 0.03284939
#
# Stress axis : x y z
#
# Youngs Moduli (GPa) = 187.21283 76.03516 53.22007
#
# Poissons Ratio (x) = 0.16602 -0.00640
# Poissons Ratio (y) = 0.40876 0.00818
# Poissons Ratio (z) = -0.02251 0.01169
#
# Static dielectric constant tensor:
#      x y z
#    x 2.495780 0.000000 0.016790 
#    y 0.000000 2.341790 0.000000 
#    z 0.016790 0.000000 2.084410 
# 
# From -- ./inp_files/196038.got.cif
#   From: 2010.05.17/outbox.cif.g08.bks.cpg/sg15_99_cif.got.tgz:196038.got - 2010.06.03 18:47:42.
