data_PCOD9278299
_publ_section_title
;
Structure prediction by ZEFSAII (Michael W. Deem and Ramdas Pophale) SiO2 
 PCOD9278299
Probable space group: C 2/C
;
_chemical_formula_sum "Si O2"
_cell_formula_units_Z 36
_cell_length_a 17.148212
_cell_length_b 8.467390
_cell_length_c 19.477546
_cell_angle_alpha 90.000000
_cell_angle_beta 152.236104
_cell_angle_gamma 90.000000
_cell_volume 1317.435318
_symmetry_space_group_name_H-M "C 2/C"
_symmetry_group_IT_number 15
_symmetry_cell_setting 'monoclinic'
loop_
_space_group_symop_operation_xyz
x,y,z
-x,y,1/2-z
-x,-y,-z
x,-y,1/2+z
1/2+x,1/2+y,z
1/2-x,1/2+y,1/2-z
1/2-x,1/2-y,-z
1/2+x,1/2-y,1/2+z
loop_
_atom_site_type_symbol
_atom_site_label
_atom_site_fract_x
_atom_site_fract_y
_atom_site_fract_z
Si Si1 0.117259 0.408397 0.947815
Si Si2 0.142112 0.862382 0.118950
Si Si3 0.500000 0.000000 0.500000
Si Si4 0.720088 0.390306 0.029477
Si Si5 0.407081 0.593522 0.775041
O O1 0.299863 0.392032 0.124464
O O2 0.158751 0.477040 0.906259
O O3 0.032853 0.514462 0.940818
O O4 0.023758 0.244023 0.871728
O O5 0.248741 0.867832 0.132539
O O6 0.217343 0.903280 0.254339
O O7 0.064610 0.688189 0.061140
O O8 0.000000 0.000000 0.000000
O O9 0.750000 0.250000 0.000000
O O10 0.526452 0.443519 0.871471
#
# Coordination Sequence:
#
# PCOD9278299 Si02
#       5
#     8   8   4   8   8
#     4  11  23  47  74 106 146 195 246 307 379 443
#     4   9  20  42  68 104 141 191 242 300 370 440
#     4  10  20  42  70 104 144 192 240 302 366 446
#     4  11  21  42  69 103 143 187 242 306 362 436
#     4  10  24  46  75 102 148 192 247 304 374 457
#
# _framework density 27.325818000000002
#
# number of rings (size 3 to 8) (size 9 to 14) (size 15 to 20)
#    0.000    1.778    2.222    1.333    0.000    0.000 
#   40.000    4.444    0.000    0.000    0.000    0.000 
#    0.000    0.000    0.000    0.000    0.000    0.000 
#
# Total GULP energy -100523.400207 kJ/mol
# GULP energy per Si atom -5584.633345 kJ/mol
# Density = 2.726362 g / cm^3
# Si number density = 27.325818 Si / 1000 Ang^3
#
#
#
# Elastic Constant Matrix: (Units=GPa)
#
#
# Indices 1 2 3 4 5 6 
#
# 1 275.6447 61.9163 30.1405 0.0001 -13.3281 0.0000
# 2 61.9163 146.2514 17.0814 0.0000 0.0252 0.0000
# 3 30.1405 17.0814 114.7438 -0.0001 -20.3066 0.0000
# 4 0.0001 0.0000 -0.0001 18.2880 0.0001 3.4296
# 5 -13.3281 0.0252 -20.3066 0.0001 39.7756 0.0000
# 6 0.0000 0.0000 0.0000 3.4296 0.0000 66.9365
#
#
#
# Elastic Compliance Matrix: (Units=1/GPa)
#
#
# Indices 1 2 3 4 5 6 
#
# 1 0.004125 -0.001671 -0.000649 0.000000 0.001052 0.000000
# 2 -0.001671 0.007648 -0.000879 0.000000 -0.001013 0.000000
# 3 -0.000649 -0.000879 0.009870 0.000000 0.004822 0.000000
# 4 0.000000 0.000000 0.000000 0.055211 0.000000 -0.002829
# 5 0.001052 -0.001013 0.004822 0.000000 0.027956 0.000000
# 6 0.000000 0.000000 0.000000 -0.002829 0.000000 0.015084
#
#
# Mechanical properties :
#
#
# Convention : Reuss Voigt Hill
#
# Bulk Modulus (GPa) = 65.59249 83.87961 74.73605
# Shear Modulus (GPa) = 38.05975 53.50012 45.77993
#
# Velocity S-wave (km/s) = 3.73609 4.42957 4.09753
# Velocity P-wave (km/s) = 6.53201 7.54481 7.05660
#
# Compressibility (1/GPa) = 0.01524565
#
# Stress axis : x y z
#
# Youngs Moduli (GPa) = 242.42761 130.75845 101.32074
#
# Poissons Ratio (x) = 0.21846 0.06572
# Poissons Ratio (y) = 0.40503 0.08906
# Poissons Ratio (z) = 0.15724 0.11493
#
# Static dielectric constant tensor:
#      x y z
#    x 2.123740 0.000000 -0.011620 
#    y 0.000000 2.100180 0.000000 
#    z -0.011620 0.000000 1.943950 
# 
# From -- ./inp_files/247917.got.cif
#   From: 2010.05.17/outbox.cif.g08.bks.cpg/sg15_124_cif.got.tgz:247917.got - 2010.06.03 18:47:42.
