data_PCOD9278804
_publ_section_title
;
Structure prediction by ZEFSAII (Michael W. Deem and Ramdas Pophale) SiO2 
 PCOD9278804
Probable space group: C 2/C
;
_chemical_formula_sum "Si O2"
_cell_formula_units_Z 48
_cell_length_a 18.979076
_cell_length_b 27.634102
_cell_length_c 9.738216
_cell_angle_alpha 90.000000
_cell_angle_beta 152.074577
_cell_angle_gamma 90.000000
_cell_volume 2391.907052
_symmetry_space_group_name_H-M "C 2/C"
_symmetry_group_IT_number 15
_symmetry_cell_setting 'monoclinic'
loop_
_space_group_symop_operation_xyz
x,y,z
-x,y,1/2-z
-x,-y,-z
x,-y,1/2+z
1/2+x,1/2+y,z
1/2-x,1/2+y,1/2-z
1/2-x,1/2-y,-z
1/2+x,1/2-y,1/2+z
loop_
_atom_site_type_symbol
_atom_site_label
_atom_site_fract_x
_atom_site_fract_y
_atom_site_fract_z
Si Si1 0.258857 0.100632 0.374971
Si Si2 0.000000 0.856299 0.250000
Si Si3 0.355498 0.970786 0.810546
Si Si4 0.344712 0.893377 0.557688
Si Si5 0.791395 0.300017 0.642154
Si Si6 0.325735 0.565183 0.970642
Si Si7 0.500000 0.181331 0.750000
O O1 0.352514 0.065760 0.434315
O O2 0.226222 0.079540 0.467155
O O3 0.365098 0.147520 0.574790
O O4 0.097491 0.112265 0.025908
O O5 0.132902 0.823304 0.417643
O O6 0.307078 0.935169 0.603205
O O7 0.247424 0.012935 0.676396
O O8 0.500000 0.000000 0.000000
O O9 0.500000 0.905808 0.750000
O O10 0.355296 0.842010 0.651945
O O11 0.227120 0.895814 0.232261
O O12 0.750000 0.250000 0.500000
O O13 0.912631 0.292592 0.974185
O O14 0.500000 0.560078 0.250000
#
# Coordination Sequence:
#
# PCOD9278804 Si02
#       7
#     8   4   8   8   8   8   4
#     4  11  23  44  69  92 143 186 235 278 352 426
#     4  10  22  46  68  92 132 186 226 288 360 412
#     4  12  24  43  68  99 140 190 240 277 348 428
#     4  12  24  46  68  98 141 179 232 290 343 418
#     4  11  25  46  73 102 136 176 237 299 359 424
#     4  12  27  38  63 104 139 182 235 291 346 402
#     4  10  20  46  74  98 122 186 228 274 360 424
#
# _framework density 20.06767
#
# number of rings (size 3 to 8) (size 9 to 14) (size 15 to 20)
#    0.000    0.667    5.000    4.000    2.333    1.333 
#    4.500    1.667    0.000    0.000    0.000    0.000 
#    0.000    0.000    0.000    0.000    0.000    0.000 
#
# Total GULP energy -133955.035737 kJ/mol
# GULP energy per Si atom -5581.459822 kJ/mol
# Density = 2.002199 g / cm^3
# Si number density = 20.067670 Si / 1000 Ang^3
#
#
#
# Elastic Constant Matrix: (Units=GPa)
#
#
# Indices 1 2 3 4 5 6 
#
# 1 98.7925 13.8997 33.5831 0.0000 -19.0334 0.0000
# 2 13.8997 76.2569 40.0881 0.0000 -31.3723 0.0000
# 3 33.5831 40.0881 149.1258 0.0000 -11.5421 0.0000
# 4 0.0000 0.0000 0.0000 39.1872 0.0000 -16.6702
# 5 -19.0334 -31.3723 -11.5421 0.0000 38.2106 0.0000
# 6 0.0000 0.0000 0.0000 -16.6702 0.0000 32.3388
#
#
#
# Elastic Compliance Matrix: (Units=1/GPa)
#
#
# Indices 1 2 3 4 5 6 
#
# 1 0.012094 0.002080 -0.002748 0.000000 0.006901 0.000000
# 2 0.002080 0.023051 -0.005243 0.000000 0.018378 0.000000
# 3 -0.002748 -0.005243 0.008493 0.000000 -0.003108 0.000000
# 4 0.000000 0.000000 0.000000 0.032686 0.000000 0.016849
# 5 0.006901 0.018378 -0.003108 0.000000 0.043759 0.000000
# 6 0.000000 0.000000 0.000000 0.016849 0.000000 0.039608
#
#
# Mechanical properties :
#
#
# Convention : Reuss Voigt Hill
#
# Bulk Modulus (GPa) = 31.43081 55.47965 43.45523
# Shear Modulus (GPa) = 27.45448 37.72094 32.58771
#
# Velocity S-wave (km/s) = 3.70279 4.34024 4.03412
# Velocity P-wave (km/s) = 5.82900 7.26796 6.58789
#
# Compressibility (1/GPa) = 0.03181591
#
# Stress axis : x y z
#
# Youngs Moduli (GPa) = 82.68901 43.38116 117.73755
#
# Poissons Ratio (x) = -0.09022 0.32359
# Poissons Ratio (y) = -0.17197 0.61725
# Poissons Ratio (z) = 0.22726 0.22743
#
# Static dielectric constant tensor:
#      x y z
#    x 1.730470 0.000000 -0.045650 
#    y 0.000000 1.691860 0.000000 
#    z -0.045650 0.000000 1.828300 
# 
# From -- ./inp_files/52771.got.cif
#   From: 2010.05.17/outbox.cif.g08.bks.cpg/sg15_27_cif.got.tgz:52771.got - 2010.06.03 18:47:42.
