data_PCOD9278335
_publ_section_title
;
Structure prediction by ZEFSAII (Michael W. Deem and Ramdas Pophale) SiO2 
 PCOD9278335
Probable space group: C 2/C
;
_chemical_formula_sum "Si O2"
_cell_formula_units_Z 36
_cell_length_a 24.762845
_cell_length_b 11.954723
_cell_length_c 12.061258
_cell_angle_alpha 90.000000
_cell_angle_beta 28.529086
_cell_angle_gamma 90.000000
_cell_volume 1705.302277
_symmetry_space_group_name_H-M "C 2/C"
_symmetry_group_IT_number 15
_symmetry_cell_setting 'monoclinic'
loop_
_space_group_symop_operation_xyz
x,y,z
-x,y,1/2-z
-x,-y,-z
x,-y,1/2+z
1/2+x,1/2+y,z
1/2-x,1/2+y,1/2-z
1/2-x,1/2-y,-z
1/2+x,1/2-y,1/2+z
loop_
_atom_site_type_symbol
_atom_site_label
_atom_site_fract_x
_atom_site_fract_y
_atom_site_fract_z
Si Si1 0.532446 0.899320 0.860758
Si Si2 0.591588 0.468248 0.987638
Si Si3 0.159029 0.516471 0.933030
Si Si4 0.000000 0.312294 0.250000
Si Si5 0.513943 0.318721 0.939127
O O1 0.636033 0.942504 0.599824
O O2 0.415885 0.894661 0.999782
O O3 0.553226 0.780788 0.878918
O O4 0.500000 0.000000 0.000000
O O5 0.500000 0.445364 0.250000
O O6 0.556858 0.578015 0.980635
O O7 0.711522 0.496965 0.825694
O O8 0.594663 0.370670 0.888677
O O9 0.095554 0.397582 0.034761
O O10 0.946418 0.240359 0.246845
#
# Coordination Sequence:
#
# PCOD9278335 Si02
#       5
#     8   8   8   4   8
#     4  10  20  42  70  98 120 162 225 275 322 374
#     4  11  27  45  59  96 141 176 211 262 330 392
#     4  10  23  41  68  99 127 165 220 274 323 384
#     4  10  20  46  66  96 126 172 224 270 320 380
#     4  11  23  45  65  94 136 171 217 267 326 391
#
# _framework density 21.110626
#
# number of rings (size 3 to 8) (size 9 to 14) (size 15 to 20)
#    0.000    1.778    5.556    0.000    3.111    7.111 
#    0.000    0.000    0.000    0.000    0.000    0.000 
#    0.000    0.000    0.000    0.000    0.000    0.000 
#
# Total GULP energy -100234.516353 kJ/mol
# GULP energy per Si atom -5568.584242 kJ/mol
# Density = 2.106258 g / cm^3
# Si number density = 21.110626 Si / 1000 Ang^3
#
#
#
# Elastic Constant Matrix: (Units=GPa)
#
#
# Indices 1 2 3 4 5 6 
#
# 1 67.6328 20.7772 31.4558 0.0000 12.6264 0.0000
# 2 20.7772 94.6547 -14.2689 0.0000 16.7413 0.0000
# 3 31.4558 -14.2689 72.3122 0.0000 -6.8026 0.0000
# 4 0.0000 0.0000 0.0000 74.4353 0.0000 165.8909
# 5 12.6264 16.7413 -6.8026 0.0000 32.2002 0.0000
# 6 0.0000 0.0000 0.0000 165.8909 0.0000 408.8547
#
#
#
# Elastic Compliance Matrix: (Units=1/GPa)
#
#
# Indices 1 2 3 4 5 6 
#
# 1 0.023924 -0.005498 -0.012351 0.000000 -0.009132 0.000000
# 2 -0.005498 0.013122 0.004634 0.000000 -0.003688 0.000000
# 3 -0.012351 0.004634 0.020757 0.000000 0.006819 0.000000
# 4 0.000000 0.000000 0.000000 0.140333 0.000000 -0.056939
# 5 -0.009132 -0.003688 0.006819 0.000000 0.037994 0.000000
# 6 0.000000 0.000000 0.000000 -0.056939 0.000000 0.025549
#
#
# Mechanical properties :
#
#
# Convention : Reuss Voigt Hill
#
# Bulk Modulus (GPa) = 31.87353 34.50310 33.18832
# Shear Modulus (GPa) = 16.74663 116.20709 66.47686
#
# Velocity S-wave (km/s) = 2.81958 7.42740 5.61766
# Velocity P-wave (km/s) = 5.07259 9.48338 7.60479
#
# Compressibility (1/GPa) = 0.03137400
#
# Stress axis : x y z
#
# Youngs Moduli (GPa) = 41.79912 76.20560 48.17548
#
# Poissons Ratio (x) = 0.41899 0.59501
# Poissons Ratio (y) = 0.22982 -0.22325
# Poissons Ratio (z) = 0.51626 -0.35315
#
# Static dielectric constant tensor:
#      x y z
#    x 1.899370 0.000000 0.048980 
#    y 0.000000 1.762030 0.000000 
#    z 0.048980 0.000000 1.736980 
# 
# From -- ./inp_files/117852.got.cif
#   From: 2010.05.17/outbox.cif.g08.bks.cpg/sg15_59_cif.got.tgz:117852.got - 2010.06.03 18:47:42.
