data_PCOD9278273
_publ_section_title
;
Structure prediction by ZEFSAII (Michael W. Deem and Ramdas Pophale) SiO2 
 PCOD9278273
Probable space group: C 2/C
;
_chemical_formula_sum "Si O2"
_cell_formula_units_Z 44
_cell_length_a 24.513667
_cell_length_b 18.405779
_cell_length_c 15.935466
_cell_angle_alpha 90.000000
_cell_angle_beta 162.438240
_cell_angle_gamma 90.000000
_cell_volume 2169.456771
_symmetry_space_group_name_H-M "C 2/C"
_symmetry_group_IT_number 15
_symmetry_cell_setting 'monoclinic'
loop_
_space_group_symop_operation_xyz
x,y,z
-x,y,1/2-z
-x,-y,-z
x,-y,1/2+z
1/2+x,1/2+y,z
1/2-x,1/2+y,1/2-z
1/2-x,1/2-y,-z
1/2+x,1/2-y,1/2+z
loop_
_atom_site_type_symbol
_atom_site_label
_atom_site_fract_x
_atom_site_fract_y
_atom_site_fract_z
Si Si1 0.298790 0.137893 0.780245
Si Si2 0.771581 0.634033 0.543047
Si Si3 0.327418 0.191938 0.179233
Si Si4 0.006185 0.023795 0.413704
Si Si5 0.500000 0.587218 0.750000
Si Si6 0.960618 0.253883 0.052236
O O1 0.285831 0.119464 0.663242
O O2 0.168418 0.082133 0.637162
O O3 0.213404 0.218559 0.661504
O O4 0.505470 0.144641 0.111730
O O5 0.688622 0.561904 0.384478
O O6 0.618561 0.694806 0.298826
O O7 0.961468 0.670702 0.797676
O O8 0.411281 0.233363 0.382923
O O9 0.250000 0.250000 0.000000
O O10 0.170835 0.138869 0.982173
O O11 0.000000 0.000000 0.500000
O O12 0.028591 0.962944 0.374394
#
# Coordination Sequence:
#
# PCOD9278273 Si02
#       6
#     8   8   8   8   4   8
#     4  10  20  42  69  90 133 169 216 276 333 386
#     4   9  18  38  67  92 125 165 215 273 320 378
#     4  11  25  41  67  96 133 173 220 275 342 401
#     4  11  23  43  67  95 132 179 223 272 333 403
#     4  12  26  46  66  92 138 180 228 276 336 410
#     4   9  18  36  63  96 120 164 212 267 326 382
#
# _framework density 20.281573999999999
#
# number of rings (size 3 to 8) (size 9 to 14) (size 15 to 20)
#    0.000    1.818    1.818    2.727    5.091    0.727 
#    6.545    0.000    0.000    0.000    0.000    0.000 
#    0.000    0.000    0.000    0.000    0.000    0.000 
#
# Total GULP energy -122703.086521 kJ/mol
# GULP energy per Si atom -5577.413024 kJ/mol
# Density = 2.023541 g / cm^3
# Si number density = 20.281574 Si / 1000 Ang^3
#
#
#
# Elastic Constant Matrix: (Units=GPa)
#
#
# Indices 1 2 3 4 5 6 
#
# 1 106.7814 63.7296 57.9284 0.0000 -9.7986 0.0000
# 2 63.7296 92.7541 56.4038 0.0000 1.0488 0.0000
# 3 57.9284 56.4038 127.7063 0.0000 5.9806 0.0000
# 4 0.0000 0.0000 0.0000 2.2448 0.0000 -6.4224
# 5 -9.7986 1.0488 5.9806 0.0000 39.5226 0.0000
# 6 0.0000 0.0000 0.0000 -6.4224 0.0000 45.0474
#
#
#
# Elastic Compliance Matrix: (Units=1/GPa)
#
#
# Indices 1 2 3 4 5 6 
#
# 1 0.017980 -0.009984 -0.003996 0.000000 0.005327 0.000000
# 2 -0.009984 0.020298 -0.004326 0.000000 -0.002359 0.000000
# 3 -0.003996 -0.004326 0.011677 0.000000 -0.002643 0.000000
# 4 0.000000 0.000000 0.000000 0.752359 0.000000 0.107263
# 5 0.005327 -0.002359 -0.002643 0.000000 0.027085 0.000000
# 6 0.000000 0.000000 0.000000 0.107263 0.000000 0.037491
#
#
# Mechanical properties :
#
#
# Convention : Reuss Voigt Hill
#
# Bulk Modulus (GPa) = 74.93764 75.92949 75.43356
# Shear Modulus (GPa) = 5.50690 27.30828 16.40759
#
# Velocity S-wave (km/s) = 1.64958 3.67339 2.84736
# Velocity P-wave (km/s) = 6.37628 7.45055 6.93425
#
# Compressibility (1/GPa) = 0.01334443
#
# Stress axis : x y z
#
# Youngs Moduli (GPa) = 55.61630 49.26495 85.63683
#
# Poissons Ratio (x) = 0.49188 0.34218
# Poissons Ratio (y) = 0.55530 0.37044
# Poissons Ratio (z) = 0.22223 0.21310
#
# Static dielectric constant tensor:
#      x y z
#    x 1.771290 0.000000 -0.013850 
#    y 0.000000 1.761210 0.000000 
#    z -0.013850 0.000000 1.754350 
# 
# From -- ./inp_files/174273.got.cif
#   From: 2010.05.17/outbox.cif.g08.bks.cpg/sg15_88_cif.got.tgz:174273.got - 2010.06.03 18:47:42.
