data_PCOD9278823
_publ_section_title
;
Structure prediction by ZEFSAII (Michael W. Deem and Ramdas Pophale) SiO2 
 PCOD9278823
Probable space group: C 2/C
;
_chemical_formula_sum "Si O2"
_cell_formula_units_Z 60
_cell_length_a 24.427027
_cell_length_b 8.589966
_cell_length_c 13.412384
_cell_angle_alpha 90.000000
_cell_angle_beta 105.026796
_cell_angle_gamma 90.000000
_cell_volume 2718.049366
_symmetry_space_group_name_H-M "C 2/C"
_symmetry_group_IT_number 15
_symmetry_cell_setting 'monoclinic'
loop_
_space_group_symop_operation_xyz
x,y,z
-x,y,1/2-z
-x,-y,-z
x,-y,1/2+z
1/2+x,1/2+y,z
1/2-x,1/2+y,1/2-z
1/2-x,1/2-y,-z
1/2+x,1/2-y,1/2+z
loop_
_atom_site_type_symbol
_atom_site_label
_atom_site_fract_x
_atom_site_fract_y
_atom_site_fract_z
Si Si1 0.222761 0.170355 0.258443
Si Si2 0.353025 0.161702 0.276208
Si Si3 0.131446 0.968186 0.322543
Si Si4 0.921909 0.740094 0.615396
Si Si5 0.812938 0.579751 0.610516
Si Si6 0.040308 0.370714 0.566615
Si Si7 0.788177 0.889229 0.976289
Si Si8 0.500000 0.025207 0.250000
O O1 0.290625 0.173540 0.293152
O O2 0.200897 0.330540 0.293722
O O3 0.204658 0.143118 0.136632
O O4 0.189470 0.042079 0.305755
O O5 0.380267 0.328425 0.259441
O O6 0.396226 0.078218 0.371164
O O7 0.342960 0.075221 0.166195
O O8 0.153029 0.905664 0.439195
O O9 0.085373 0.102482 0.323094
O O10 0.857107 0.681457 0.570109
O O11 0.950877 0.751741 0.519919
O O12 0.952285 0.600220 0.691102
O O13 0.753329 0.538705 0.533002
O O14 0.013151 0.361058 0.663789
O O15 0.000000 0.500000 0.500000
O O16 0.750000 0.750000 0.000000
#
# Coordination Sequence:
#
# PCOD9278823 Si02
#       8
#     8   8   8   8   8   8   8   4
#     4  10  23  37  60  92 140 181 218 263 320 389
#     4  11  20  39  62  91 133 175 214 262 331 381
#     4  11  24  40  61 100 138 174 210 272 335 396
#     4  10  23  40  68  97 123 168 220 276 333 385
#     4  10  21  37  59  93 127 183 212 264 316 388
#     4  10  23  40  72  96 123 162 228 278 320 386
#     4  11  22  36  57  90 139 177 223 255 311 398
#     4  10  20  48  66  94 126 166 224 286 318 382
#
# _framework density 22.074656000000001
#
# number of rings (size 3 to 8) (size 9 to 14) (size 15 to 20)
#    0.000    1.600    4.000    1.600    5.600    1.067 
#    0.000    0.667    0.000    2.400    0.000    0.000 
#    0.000    0.000    0.000    0.000    0.000    0.000 
#
# Total GULP energy -167176.807748 kJ/mol
# GULP energy per Si atom -5572.560258 kJ/mol
# Density = 2.202441 g / cm^3
# Si number density = 22.074656 Si / 1000 Ang^3
#
#
#
# Elastic Constant Matrix: (Units=GPa)
#
#
# Indices 1 2 3 4 5 6 
#
# 1 76.5755 30.6878 38.9949 0.0000 -13.2957 0.0000
# 2 30.6878 61.8511 2.7072 0.0000 -6.4136 0.0000
# 3 38.9949 2.7072 100.9367 0.0000 -15.0040 0.0000
# 4 0.0000 0.0000 0.0000 6.7041 0.0000 -0.4488
# 5 -13.2957 -6.4136 -15.0040 0.0000 42.9794 0.0000
# 6 0.0000 0.0000 0.0000 -0.4488 0.0000 33.4694
#
#
#
# Elastic Compliance Matrix: (Units=1/GPa)
#
#
# Indices 1 2 3 4 5 6 
#
# 1 0.021387 -0.010022 -0.007628 0.000000 0.002457 0.000000
# 2 -0.010022 0.021119 0.003494 0.000000 0.001271 0.000000
# 3 -0.007628 0.003494 0.013171 0.000000 0.002760 0.000000
# 4 0.000000 0.000000 0.000000 0.149296 0.000000 0.002002
# 5 0.002457 0.001271 0.002760 0.000000 0.025180 0.000000
# 6 0.000000 0.000000 0.000000 0.002002 0.000000 0.029905
#
#
# Mechanical properties :
#
#
# Convention : Reuss Voigt Hill
#
# Bulk Modulus (GPa) = 36.54385 42.68255 39.61320
# Shear Modulus (GPa) = 16.80719 27.76214 22.28467
#
# Velocity S-wave (km/s) = 2.76230 3.55018 3.18073
# Velocity P-wave (km/s) = 5.17343 6.01519 5.61012
#
# Compressibility (1/GPa) = 0.02736439
#
# Stress axis : x y z
#
# Youngs Moduli (GPa) = 46.75793 47.34985 75.92615
#
# Poissons Ratio (x) = 0.47456 0.57918
# Poissons Ratio (y) = 0.46863 -0.26532
# Poissons Ratio (z) = 0.35668 -0.16546
#
# Static dielectric constant tensor:
#      x y z
#    x 1.842090 0.000000 -0.030810 
#    y 0.000000 1.899650 0.000000 
#    z -0.030810 0.000000 1.894690 
# 
# From -- ./inp_files/171919.got.cif
#   From: 2010.05.17/outbox.cif.g08.bks.cpg/sg15_86_cif.got.tgz:171919.got - 2010.06.03 18:47:42.
