data_PCOD9278206
_publ_section_title
;
Structure prediction by ZEFSAII (Michael W. Deem and Ramdas Pophale) SiO2 
 PCOD9278206
Probable space group: C 2/C
;
_chemical_formula_sum "Si O2"
_cell_formula_units_Z 52
_cell_length_a 15.841229
_cell_length_b 9.140877
_cell_length_c 22.773464
_cell_angle_alpha 90.000000
_cell_angle_beta 35.772091
_cell_angle_gamma 90.000000
_cell_volume 1927.688287
_symmetry_space_group_name_H-M "C 2/C"
_symmetry_group_IT_number 15
_symmetry_cell_setting 'monoclinic'
loop_
_space_group_symop_operation_xyz
x,y,z
-x,y,1/2-z
-x,-y,-z
x,-y,1/2+z
1/2+x,1/2+y,z
1/2-x,1/2+y,1/2-z
1/2-x,1/2-y,-z
1/2+x,1/2-y,1/2+z
loop_
_atom_site_type_symbol
_atom_site_label
_atom_site_fract_x
_atom_site_fract_y
_atom_site_fract_z
Si Si1 0.976028 0.205913 0.054123
Si Si2 0.025751 0.919281 0.650012
Si Si3 0.750000 0.750000 0.500000
Si Si4 0.290171 0.909534 0.859562
Si Si5 0.000000 0.665557 0.750000
Si Si6 0.061621 0.280150 0.885134
Si Si7 0.242179 0.455304 0.280900
Si Si8 0.500000 0.343514 0.250000
O O1 0.043872 0.123895 0.071900
O O2 0.874846 0.337850 0.133618
O O3 0.855628 0.042731 0.258611
O O4 0.071278 0.281355 0.950338
O O5 0.060317 0.774469 0.666524
O O6 0.085270 0.065850 0.650029
O O7 0.858219 0.133015 0.678181
O O8 0.711816 0.882547 0.569299
O O9 0.898038 0.714769 0.455708
O O10 0.133922 0.899930 0.918836
O O11 0.383624 0.765648 0.787658
O O12 0.374787 0.057765 0.798816
O O13 0.149884 0.413075 0.807540
#
# Coordination Sequence:
#
# PCOD9278206 Si02
#       8
#     8   8   4   8   4   8   8   4
#     4  11  25  45  76 115 151 209 267 327 388 489
#     4  11  24  42  70 111 154 202 256 326 396 464
#     4  10  24  44  72 112 162 198 264 332 392 478
#     4  10  22  41  71 101 146 205 259 314 390 471
#     4  10  26  42  72 110 154 208 258 318 406 474
#     4  11  27  48  80 119 156 215 271 332 403 479
#     4  12  24  47  79 112 161 208 264 330 400 477
#     4  10  20  42  68 102 148 206 254 310 400 474
#
# _framework density 26.975314999999998
#
# number of rings (size 3 to 8) (size 9 to 14) (size 15 to 20)
#    0.000    1.231    3.077    1.385    6.462    0.615 
#    0.000    3.077    0.000   12.000    0.000    0.000 
#    0.000    0.000    0.000    0.000    0.000    0.000 
#
# Total GULP energy -145156.228683 kJ/mol
# GULP energy per Si atom -5582.931872 kJ/mol
# Density = 2.691392 g / cm^3
# Si number density = 26.975315 Si / 1000 Ang^3
#
#
#
# Elastic Constant Matrix: (Units=GPa)
#
#
# Indices 1 2 3 4 5 6 
#
# 1 117.2592 51.6560 33.0919 0.0000 22.3743 0.0000
# 2 51.6560 150.2565 18.6022 0.0000 9.0631 0.0000
# 3 33.0919 18.6022 76.6446 0.0000 23.2103 0.0000
# 4 0.0000 0.0000 0.0000 23.7356 0.0000 -0.8739
# 5 22.3743 9.0631 23.2103 0.0000 61.4242 0.0000
# 6 0.0000 0.0000 0.0000 -0.8739 0.0000 50.5327
#
#
#
# Elastic Compliance Matrix: (Units=1/GPa)
#
#
# Indices 1 2 3 4 5 6 
#
# 1 0.011422 -0.003363 -0.003394 0.000000 -0.002382 0.000000
# 2 -0.003363 0.007862 -0.000537 0.000000 0.000268 0.000000
# 3 -0.003394 -0.000537 0.016085 0.000000 -0.004763 0.000000
# 4 0.000000 0.000000 0.000000 0.042158 0.000000 0.000729
# 5 -0.002382 0.000268 -0.004763 0.000000 0.018908 0.000000
# 6 0.000000 0.000000 0.000000 0.000729 0.000000 0.019802
#
#
# Mechanical properties :
#
#
# Convention : Reuss Voigt Hill
#
# Bulk Modulus (GPa) = 48.12189 61.20672 54.66431
# Shear Modulus (GPa) = 36.29733 43.19254 39.74493
#
# Velocity S-wave (km/s) = 3.67219 4.00583 3.84263
# Velocity P-wave (km/s) = 5.98815 6.64339 6.32426
#
# Compressibility (1/GPa) = 0.02078056
#
# Stress axis : x y z
#
# Youngs Moduli (GPa) = 87.55168 127.19845 62.16866
#
# Poissons Ratio (x) = 0.42774 0.21100
# Poissons Ratio (y) = 0.29442 0.03341
# Poissons Ratio (z) = 0.29715 0.06835
#
# Static dielectric constant tensor:
#      x y z
#    x 2.092780 0.000000 0.284660 
#    y 0.000000 2.087790 0.000000 
#    z 0.284660 0.000000 2.653370 
# 
# From -- ./inp_files/279540.got.cif
#   From: 2010.05.17/outbox.cif.g08.bks.cpg/sg15_140_cif.got.tgz:279540.got - 2010.06.03 18:47:42.
