data_PCOD9278642
_publ_section_title
;
Structure prediction by ZEFSAII (Michael W. Deem and Ramdas Pophale) SiO2 
 PCOD9278642
Probable space group: C 2/C
;
_chemical_formula_sum "Si O2"
_cell_formula_units_Z 44
_cell_length_a 17.780791
_cell_length_b 5.210512
_cell_length_c 24.897223
_cell_angle_alpha 90.000000
_cell_angle_beta 127.220458
_cell_angle_gamma 90.000000
_cell_volume 1836.820561
_symmetry_space_group_name_H-M "C 2/C"
_symmetry_group_IT_number 15
_symmetry_cell_setting 'monoclinic'
loop_
_space_group_symop_operation_xyz
x,y,z
-x,y,1/2-z
-x,-y,-z
x,-y,1/2+z
1/2+x,1/2+y,z
1/2-x,1/2+y,1/2-z
1/2-x,1/2-y,-z
1/2+x,1/2-y,1/2+z
loop_
_atom_site_type_symbol
_atom_site_label
_atom_site_fract_x
_atom_site_fract_y
_atom_site_fract_z
Si Si1 0.500000 0.058886 0.250000
Si Si2 0.650659 0.408046 0.934224
Si Si3 0.631733 0.362299 0.602451
Si Si4 0.961222 0.750989 0.038038
Si Si5 0.464079 0.844446 0.343198
Si Si6 0.693730 0.109501 0.392849
O O1 0.588994 0.155159 0.323208
O O2 0.441424 0.934197 0.274138
O O3 0.616996 0.536597 0.975890
O O4 0.542629 0.372582 0.865919
O O5 0.710832 0.623503 0.930430
O O6 0.694155 0.132693 0.934728
O O7 0.583259 0.168640 0.538005
O O8 0.559179 0.600079 0.571710
O O9 0.622696 0.248494 0.658128
O O10 0.733565 0.428726 0.624125
O O11 0.980360 0.543109 0.092723
#
# Coordination Sequence:
#
# PCOD9278642 Si02
#       6
#     4   8   8   8   8   8
#     4  10  22  46  66  90 132 176 220 270 320 392
#     4  10  21  42  65  95 130 170 223 253 329 381
#     4  10  24  39  67 101 135 166 220 270 334 385
#     4  10  20  44  66  96 136 177 208 275 323 401
#     4  10  21  44  66  96 125 180 214 266 332 386
#     4  11  24  43  64 101 127 175 218 271 319 389
#
# _framework density 23.954436999999999
#
# number of rings (size 3 to 8) (size 9 to 14) (size 15 to 20)
#    0.000    1.818    3.636    0.545    2.545    4.364 
#    3.273    0.000    0.000    0.000    0.000    0.000 
#    0.000    0.000    0.000    0.000    0.000    0.000 
#
# Total GULP energy -122505.883361 kJ/mol
# GULP energy per Si atom -5568.449244 kJ/mol
# Density = 2.389992 g / cm^3
# Si number density = 23.954437 Si / 1000 Ang^3
#
#
#
# Elastic Constant Matrix: (Units=GPa)
#
#
# Indices 1 2 3 4 5 6 
#
# 1 196.1325 57.1832 13.7782 0.0000 -27.7573 0.0000
# 2 57.1832 117.9640 36.2494 0.0001 -15.9179 -0.0010
# 3 13.7782 36.2494 98.2806 0.0000 -32.1739 -0.0002
# 4 0.0000 0.0001 0.0000 12.6446 0.0000 -12.4663
# 5 -27.7573 -15.9179 -32.1739 0.0000 45.6657 0.0000
# 6 0.0000 -0.0010 -0.0002 -12.4663 0.0000 34.2175
#
#
#
# Elastic Compliance Matrix: (Units=1/GPa)
#
#
# Indices 1 2 3 4 5 6 
#
# 1 0.006437 -0.003055 0.001503 0.000000 0.003907 0.000000
# 2 -0.003055 0.011054 -0.003893 0.000000 -0.000747 0.000000
# 3 0.001503 -0.003893 0.014629 0.000000 0.009864 0.000000
# 4 0.000000 0.000000 0.000000 0.123413 0.000000 0.044963
# 5 0.003907 -0.000747 0.009864 0.000000 0.030962 0.000000
# 6 0.000000 0.000000 0.000000 0.044963 0.000000 0.045606
#
#
# Mechanical properties :
#
#
# Convention : Reuss Voigt Hill
#
# Bulk Modulus (GPa) = 47.10351 69.64430 58.37390
# Shear Modulus (GPa) = 19.99465 38.84998 29.42231
#
# Velocity S-wave (km/s) = 2.89224 4.03156 3.50846
# Velocity P-wave (km/s) = 5.55517 7.12798 6.39015
#
# Compressibility (1/GPa) = 0.02122984
#
# Stress axis : x y z
#
# Youngs Moduli (GPa) = 155.36283 90.46820 68.35636
#
# Poissons Ratio (x) = 0.27637 -0.10276
# Poissons Ratio (y) = 0.47462 0.26612
# Poissons Ratio (z) = -0.23356 0.35221
#
# Static dielectric constant tensor:
#      x y z
#    x 2.190160 0.000000 -1.504950 
#    y 0.000000 2.023730 -0.000010 
#    z -1.504950 -0.000010 11.704280 
# 
# From -- ./inp_files/275725.got.cif
#   From: 2010.05.17/outbox.cif.g08.bks.cpg/sg15_138_cif.got.tgz:275725.got - 2010.06.03 18:47:42.
