data_PCOD9278839
_publ_section_title
;
Structure prediction by ZEFSAII (Michael W. Deem and Ramdas Pophale) SiO2 
 PCOD9278839
Probable space group: C 2/C
;
_chemical_formula_sum "Si O2"
_cell_formula_units_Z 56
_cell_length_a 23.869094
_cell_length_b 14.145823
_cell_length_c 23.563614
_cell_angle_alpha 90.000000
_cell_angle_beta 22.024698
_cell_angle_gamma 90.000000
_cell_volume 2983.627072
_symmetry_space_group_name_H-M "C 2/C"
_symmetry_group_IT_number 15
_symmetry_cell_setting 'monoclinic'
loop_
_space_group_symop_operation_xyz
x,y,z
-x,y,1/2-z
-x,-y,-z
x,-y,1/2+z
1/2+x,1/2+y,z
1/2-x,1/2+y,1/2-z
1/2-x,1/2-y,-z
1/2+x,1/2-y,1/2+z
loop_
_atom_site_type_symbol
_atom_site_label
_atom_site_fract_x
_atom_site_fract_y
_atom_site_fract_z
Si Si1 0.246674 0.122525 0.968765
Si Si2 0.465734 0.746331 0.196518
Si Si3 0.287672 0.634292 0.196165
Si Si4 0.821860 0.025100 0.756505
Si Si5 0.638359 0.325669 0.368171
Si Si6 0.674972 0.487386 0.429526
Si Si7 0.797476 0.385884 0.554949
O O1 0.375243 0.192253 0.826570
O O2 0.242894 0.037747 0.926906
O O3 0.092253 0.178256 0.102925
O O4 0.270669 0.105075 0.012441
O O5 0.339284 0.676784 0.291092
O O6 0.554129 0.822998 0.075495
O O7 0.282795 0.548006 0.243905
O O8 0.189920 0.718604 0.313006
O O9 0.255949 0.579128 0.166641
O O10 0.459449 0.668140 0.033762
O O11 0.718023 0.989621 0.904734
O O12 0.998388 0.010464 0.603100
O O13 0.800409 0.124938 0.746814
O O14 0.683464 0.392507 0.380425
#
# Coordination Sequence:
#
# PCOD9278839 Si02
#       7
#     8   8   8   8   8   8   8
#     4  11  19  31  47  71 102 129 160 195 236 290
#     4  10  21  30  44  72 104 134 158 188 237 292
#     4   9  19  36  52  69  97 129 162 201 238 280
#     4   9  19  33  51  73  97 130 162 191 241 291
#     4   9  19  36  52  69  97 129 162 201 238 280
#     4   9  19  33  51  73  97 130 162 191 241 291
#     4  11  19  31  47  71 102 129 160 195 236 290
#
# _framework density 18.769100999999999
#
# number of rings (size 3 to 8) (size 9 to 14) (size 15 to 20)
#    0.000    2.286    1.429    5.143    4.000    0.000 
#    2.571    1.429    0.000    0.857    0.000    0.000 
#    0.000    0.000    0.000    0.000    0.000    0.000 
#
# Total GULP energy -156075.413617 kJ/mol
# GULP energy per Si atom -5574.121915 kJ/mol
# Density = 1.872638 g / cm^3
# Si number density = 18.769101 Si / 1000 Ang^3
#
#
#
# Elastic Constant Matrix: (Units=GPa)
#
#
# Indices 1 2 3 4 5 6 
#
# 1 60.5115 15.9934 9.6696 0.0016 11.5976 -0.0005
# 2 15.9934 40.0188 5.6920 0.0069 -1.1505 -0.0006
# 3 9.6696 5.6920 56.8205 0.0023 8.0800 0.0011
# 4 0.0016 0.0069 0.0023 24.8451 0.0022 19.5618
# 5 11.5976 -1.1505 8.0800 0.0022 17.8809 -0.0003
# 6 -0.0005 -0.0006 0.0011 19.5618 -0.0003 19.6239
#
#
#
# Elastic Compliance Matrix: (Units=1/GPa)
#
#
# Indices 1 2 3 4 5 6 
#
# 1 0.021782 -0.009010 -0.000762 0.000011 -0.014363 -0.000011
# 2 -0.009010 0.029224 -0.002664 -0.000041 0.008928 0.000042
# 3 -0.000762 -0.002664 0.019183 0.000004 -0.008345 -0.000005
# 4 0.000011 -0.000041 0.000004 0.187084 -0.000038 -0.186492
# 5 -0.014363 0.008928 -0.008345 -0.000038 0.069587 0.000040
# 6 -0.000011 0.000042 -0.000005 -0.186492 0.000040 0.236861
#
#
# Mechanical properties :
#
#
# Convention : Reuss Voigt Hill
#
# Bulk Modulus (GPa) = 22.06616 24.45119 23.25868
# Shear Modulus (GPa) = 8.28230 20.86971 14.57600
#
# Velocity S-wave (km/s) = 2.10293 3.33816 2.78977
# Velocity P-wave (km/s) = 4.20459 5.28331 4.77451
#
# Compressibility (1/GPa) = 0.04531825
#
# Stress axis : x y z
#
# Youngs Moduli (GPa) = 45.91033 34.21791 52.13082
#
# Poissons Ratio (x) = 0.30829 0.03971
# Poissons Ratio (y) = 0.41363 0.13887
# Poissons Ratio (z) = 0.03497 0.09115
#
# Static dielectric constant tensor:
#      x y z
#    x 1.758950 0.000000 0.029700 
#    y 0.000000 1.683820 0.000000 
#    z 0.029700 0.000000 1.711450 
# 
# From -- ./inp_files/65532.got.cif
#   From: 2010.05.17/outbox.cif.g08.bks.cpg/sg15_33_cif.got.tgz:65532.got - 2010.06.03 18:47:42.
