data_PCOD9278290
_publ_section_title
;
Structure prediction by ZEFSAII (Michael W. Deem and Ramdas Pophale) SiO2 
 PCOD9278290
Probable space group: C 2/C
;
_chemical_formula_sum "Si O2"
_cell_formula_units_Z 44
_cell_length_a 14.558332
_cell_length_b 8.818305
_cell_length_c 15.747954
_cell_angle_alpha 90.000000
_cell_angle_beta 65.667453
_cell_angle_gamma 90.000000
_cell_volume 1842.128762
_symmetry_space_group_name_H-M "C 2/C"
_symmetry_group_IT_number 15
_symmetry_cell_setting 'monoclinic'
loop_
_space_group_symop_operation_xyz
x,y,z
-x,y,1/2-z
-x,-y,-z
x,-y,1/2+z
1/2+x,1/2+y,z
1/2-x,1/2+y,1/2-z
1/2-x,1/2-y,-z
1/2+x,1/2-y,1/2+z
loop_
_atom_site_type_symbol
_atom_site_label
_atom_site_fract_x
_atom_site_fract_y
_atom_site_fract_z
Si Si1 0.381709 0.892360 0.105480
Si Si2 0.544210 0.861055 0.821440
Si Si3 0.193219 0.934869 0.605563
Si Si4 0.000000 0.077326 0.750000
Si Si5 0.236900 0.817465 0.311448
Si Si6 0.886758 0.946261 0.542264
O O1 0.467446 0.014487 0.100497
O O2 0.294537 0.975017 0.087058
O O3 0.329825 0.853531 0.215754
O O4 0.396487 0.732890 0.054298
O O5 0.500000 0.930260 0.750000
O O6 0.491381 0.696125 0.832322
O O7 0.659250 0.797822 0.791886
O O8 0.100920 0.981136 0.703575
O O9 0.221844 0.764107 0.619528
O O10 0.160361 0.987696 0.525840
O O11 0.177345 0.968502 0.360370
O O12 0.000000 0.000000 0.500000
#
# Coordination Sequence:
#
# PCOD9278290 Si02
#       6
#     8   8   8   4   8   8
#     4  11  23  43  69  99 135 191 230 279 361 425
#     4   9  20  38  66  95 130 173 235 283 330 414
#     4  11  24  43  70  97 141 185 231 289 360 408
#     4  10  20  42  70 100 136 184 236 292 352 414
#     4  11  23  43  70  99 139 187 233 281 352 433
#     4  12  27  43  68 107 144 179 234 300 351 410
#
# _framework density 23.88541
#
# number of rings (size 3 to 8) (size 9 to 14) (size 15 to 20)
#    0.545    0.727    1.818    4.364    2.545    1.455 
#    0.000   12.727    0.000    0.000    0.000    0.000 
#    0.000    0.000    0.000    0.000    0.000    0.000 
#
# Total GULP energy -122714.172174 kJ/mol
# GULP energy per Si atom -5577.916917 kJ/mol
# Density = 2.383105 g / cm^3
# Si number density = 23.885410 Si / 1000 Ang^3
#
#
#
# Elastic Constant Matrix: (Units=GPa)
#
#
# Indices 1 2 3 4 5 6 
#
# 1 106.9645 35.8216 16.1864 0.0000 33.2124 0.0000
# 2 35.8216 109.1397 13.0900 0.0000 8.3423 0.0000
# 3 16.1864 13.0900 70.7419 0.0000 20.2353 0.0000
# 4 0.0000 0.0000 0.0000 -2.1233 0.0000 26.6687
# 5 33.2124 8.3423 20.2353 0.0000 40.9583 0.0000
# 6 0.0000 0.0000 0.0000 26.6687 0.0000 27.3610
#
#
#
# Elastic Compliance Matrix: (Units=1/GPa)
#
#
# Indices 1 2 3 4 5 6 
#
# 1 0.013878 -0.003804 0.000612 0.000000 -0.010781 0.000000
# 2 -0.003804 0.010466 -0.001559 0.000000 0.001723 0.000000
# 3 0.000612 -0.001559 0.016695 0.000000 -0.008427 0.000000
# 4 0.000000 0.000000 0.000000 -0.035565 0.000000 0.034666
# 5 -0.010781 0.001723 -0.008427 0.000000 0.036969 0.000000
# 6 0.000000 0.000000 0.000000 0.034666 0.000000 0.002760
#
#
# Mechanical properties :
#
#
# Convention : Reuss Voigt Hill
#
# Bulk Modulus (GPa) = 31.70899 46.33799 39.02349
# Shear Modulus (GPa) = 76.66667 28.02243 52.34455
#
# Velocity S-wave (km/s) = 5.67163 3.42892 4.68641
# Velocity P-wave (km/s) = 7.49627 5.92612 6.75696
#
# Compressibility (1/GPa) = 0.03153679
#
# Stress axis : x y z
#
# Youngs Moduli (GPa) = 72.05796 95.54303 59.89897
#
# Poissons Ratio (x) = 0.36347 -0.03668
# Poissons Ratio (y) = 0.27413 0.09339
# Poissons Ratio (z) = -0.04413 0.14897
#
# Static dielectric constant tensor:
#      x y z
#    x 1.974490 0.000000 0.089530 
#    y 0.000000 2.026290 0.000000 
#    z 0.089530 0.000000 2.019270 
# 
# From -- ./inp_files/202584.got.cif
#   From: 2010.05.17/outbox.cif.g08.bks.cpg/sg15_102_cif.got.tgz:202584.got - 2010.06.03 18:47:42.
