data_PCOD9278519
_publ_section_title
;
Structure prediction by ZEFSAII (Michael W. Deem and Ramdas Pophale) SiO2 
 PCOD9278519
Probable space group: C 2/C
;
_chemical_formula_sum "Si O2"
_cell_formula_units_Z 44
_cell_length_a 25.088841
_cell_length_b 8.798866
_cell_length_c 14.796427
_cell_angle_alpha 90.000000
_cell_angle_beta 141.268708
_cell_angle_gamma 90.000000
_cell_volume 2043.660040
_symmetry_space_group_name_H-M "C 2/C"
_symmetry_group_IT_number 15
_symmetry_cell_setting 'monoclinic'
loop_
_space_group_symop_operation_xyz
x,y,z
-x,y,1/2-z
-x,-y,-z
x,-y,1/2+z
1/2+x,1/2+y,z
1/2-x,1/2+y,1/2-z
1/2-x,1/2-y,-z
1/2+x,1/2-y,1/2+z
loop_
_atom_site_type_symbol
_atom_site_label
_atom_site_fract_x
_atom_site_fract_y
_atom_site_fract_z
Si Si1 0.673974 0.680762 0.837167
Si Si2 0.183973 0.562650 0.576147
Si Si3 0.000000 0.129185 0.250000
Si Si4 0.415538 0.648129 0.606786
Si Si5 0.844294 0.326349 0.119970
Si Si6 0.099836 0.471209 0.646045
O O1 0.716224 0.587547 0.811871
O O2 0.625984 0.595034 0.853302
O O3 0.617539 0.813604 0.720644
O O4 0.750000 0.750000 0.000000
O O5 0.142698 0.732638 0.521857
O O6 0.156522 0.464845 0.453023
O O7 0.152354 0.476931 0.622470
O O8 0.074270 0.227143 0.302704
O O9 0.048507 0.010705 0.383061
O O10 0.500000 0.738925 0.750000
O O11 0.862892 0.396595 0.241947
O O12 0.750000 0.250000 0.000000
O O13 0.000000 0.500000 0.500000
#
# Coordination Sequence:
#
# PCOD9278519 Si02
#       6
#     8   8   4   8   8   8
#     4  10  20  43  69  99 135 191 239 280 350 442
#     4  11  24  42  74  96 142 192 239 286 356 435
#     4  10  24  38  74 100 138 184 242 298 354 428
#     4   9  19  39  68  95 128 190 232 272 358 423
#     4  12  26  47  70 110 148 188 237 309 368 418
#     4  12  26  43  71 110 140 183 242 298 356 424
#
# _framework density 21.529999
#
# number of rings (size 3 to 8) (size 9 to 14) (size 15 to 20)
#    0.545    0.727    3.636    3.273    6.364    0.000 
#    0.000    0.909    0.000    0.000    0.000    0.000 
#    0.000    0.000    0.000    0.000    0.000    0.000 
#
# Total GULP energy -122545.635510 kJ/mol
# GULP energy per Si atom -5570.256160 kJ/mol
# Density = 2.148100 g / cm^3
# Si number density = 21.529999 Si / 1000 Ang^3
#
#
#
# Elastic Constant Matrix: (Units=GPa)
#
#
# Indices 1 2 3 4 5 6 
#
# 1 103.9402 17.7537 32.2655 0.0000 11.7686 0.0000
# 2 17.7537 73.0937 18.1226 0.0000 11.8624 0.0000
# 3 32.2655 18.1226 78.9674 0.0000 7.8632 0.0000
# 4 0.0000 0.0000 0.0000 31.2940 0.0000 12.5035
# 5 11.7686 11.8624 7.8632 0.0000 33.1085 0.0000
# 6 0.0000 0.0000 0.0000 12.5035 0.0000 37.3813
#
#
#
# Elastic Compliance Matrix: (Units=1/GPa)
#
#
# Indices 1 2 3 4 5 6 
#
# 1 0.011416 -0.001334 -0.004099 0.000000 -0.002607 0.000000
# 2 -0.001334 0.015352 -0.002538 0.000000 -0.004424 0.000000
# 3 -0.004099 -0.002538 0.015041 0.000000 -0.001206 0.000000
# 4 0.000000 0.000000 0.000000 0.036884 0.000000 -0.012337
# 5 -0.002607 -0.004424 -0.001206 0.000000 0.033002 0.000000
# 6 0.000000 0.000000 0.000000 -0.012337 0.000000 0.030878
#
#
# Mechanical properties :
#
#
# Convention : Reuss Voigt Hill
#
# Bulk Modulus (GPa) = 38.65729 43.58722 41.12226
# Shear Modulus (GPa) = 29.91561 32.88072 31.39816
#
# Velocity S-wave (km/s) = 3.73162 3.91219 3.82297
# Velocity P-wave (km/s) = 6.04655 6.37932 6.21516
#
# Compressibility (1/GPa) = 0.02586834
#
# Stress axis : x y z
#
# Youngs Moduli (GPa) = 87.59429 65.13750 66.48589
#
# Poissons Ratio (x) = 0.08687 0.27253
# Poissons Ratio (y) = 0.11681 0.16873
# Poissons Ratio (z) = 0.35905 0.16531
#
# Static dielectric constant tensor:
#      x y z
#    x 1.779800 0.000000 0.014180 
#    y 0.000000 1.824880 0.000000 
#    z 0.014180 0.000000 1.763280 
# 
# From -- ./inp_files/176750.got.cif
#   From: 2010.05.17/outbox.cif.g08.bks.cpg/sg15_89_cif.got.tgz:176750.got - 2010.06.03 18:47:42.
