data_PCOD9278837
_publ_section_title
;
Structure prediction by ZEFSAII (Michael W. Deem and Ramdas Pophale) SiO2 
 PCOD9278837
Probable space group: C 2/C
;
_chemical_formula_sum "Si O2"
_cell_formula_units_Z 60
_cell_length_a 11.547927
_cell_length_b 31.795376
_cell_length_c 8.441877
_cell_angle_alpha 90.000000
_cell_angle_beta 63.192429
_cell_angle_gamma 90.000000
_cell_volume 2766.482991
_symmetry_space_group_name_H-M "C 2/C"
_symmetry_group_IT_number 15
_symmetry_cell_setting 'monoclinic'
loop_
_space_group_symop_operation_xyz
x,y,z
-x,y,1/2-z
-x,-y,-z
x,-y,1/2+z
1/2+x,1/2+y,z
1/2-x,1/2+y,1/2-z
1/2-x,1/2-y,-z
1/2+x,1/2-y,1/2+z
loop_
_atom_site_type_symbol
_atom_site_label
_atom_site_fract_x
_atom_site_fract_y
_atom_site_fract_z
Si Si1 0.788430 0.867518 0.551673
Si Si2 0.204389 0.850923 0.305255
Si Si3 0.450382 0.202820 0.601308
Si Si4 0.713520 0.505598 0.621677
Si Si5 0.968124 0.204571 0.958138
Si Si6 0.435845 0.444994 0.553794
Si Si7 0.500000 0.152291 0.250000
Si Si8 0.248934 0.061626 0.867795
O O1 0.831489 0.872482 0.341171
O O2 0.867221 0.899962 0.609429
O O3 0.634757 0.872910 0.657639
O O4 0.832510 0.819944 0.561210
O O5 0.303606 0.814001 0.201066
O O6 0.078275 0.827998 0.450449
O O7 0.272534 0.888590 0.360408
O O8 0.500000 0.194745 0.750000
O O9 0.465515 0.251730 0.550292
O O10 0.507050 0.178691 0.411003
O O11 0.618544 0.476849 0.783828
O O12 0.625716 0.534488 0.564307
O O13 0.792376 0.538017 0.681310
O O14 0.792949 0.470360 0.476739
O O15 0.000000 0.211064 0.750000
O O16 0.590105 0.440699 0.463037
#
# Coordination Sequence:
#
# PCOD9278837 Si02
#       8
#     8   8   8   8   8   8   4   8
#     4  10  21  37  63  87 119 163 203 248 304 368
#     4  10  22  37  63  92 125 162 202 254 303 369
#     4  11  25  44  65  90 121 166 207 255 314 364
#     4  10  21  29  53  84 126 158 187 247 305 373
#     4  10  21  40  65  90 121 161 203 254 312 368
#     4  11  18  33  52  84 118 157 196 238 308 361
#     4  10  24  44  64  88 116 162 210 254 296 370
#     4  11  18  34  51  88 124 156 196 242 308 364
#
# _framework density 21.688185000000001
#
# number of rings (size 3 to 8) (size 9 to 14) (size 15 to 20)
#    0.000    1.600    3.333    3.200    1.867    3.200 
#    2.400    0.000    0.000    0.800    6.933    0.000 
#    0.000    0.000    0.000    0.000    0.000    0.000 
#
# Total GULP energy -167336.004210 kJ/mol
# GULP energy per Si atom -5577.866807 kJ/mol
# Density = 2.163882 g / cm^3
# Si number density = 21.688185 Si / 1000 Ang^3
#
#
#
# Elastic Constant Matrix: (Units=GPa)
#
#
# Indices 1 2 3 4 5 6 
#
# 1 39.9249 18.5059 15.8644 0.0000 -5.2951 0.0000
# 2 18.5059 117.7896 22.8863 0.0000 -3.0988 0.0000
# 3 15.8644 22.8863 60.6757 0.0000 7.7827 0.0000
# 4 0.0000 0.0000 0.0000 17.3791 0.0000 2.6311
# 5 -5.2951 -3.0988 7.7827 0.0000 26.3452 0.0000
# 6 0.0000 0.0000 0.0000 2.6311 0.0000 1.7514
#
#
#
# Elastic Compliance Matrix: (Units=1/GPa)
#
#
# Indices 1 2 3 4 5 6 
#
# 1 0.030695 -0.003071 -0.007912 0.000000 0.008145 0.000000
# 2 -0.003071 0.009591 -0.002993 0.000000 0.001395 0.000000
# 3 -0.007912 -0.002993 0.020713 0.000000 -0.008061 0.000000
# 4 0.000000 0.000000 0.000000 0.074479 0.000000 -0.111886
# 5 0.008145 0.001395 -0.008061 0.000000 0.042140 0.000000
# 6 0.000000 0.000000 0.000000 -0.111886 0.000000 0.739050
#
#
# Mechanical properties :
#
#
# Convention : Reuss Voigt Hill
#
# Bulk Modulus (GPa) = 30.26148 36.98927 33.62538
# Shear Modulus (GPa) = 5.23212 19.83737 12.53475
#
# Velocity S-wave (km/s) = 1.55488 3.02762 2.40667
# Velocity P-wave (km/s) = 4.14811 5.41424 4.82291
#
# Compressibility (1/GPa) = 0.03304531
#
# Stress axis : x y z
#
# Youngs Moduli (GPa) = 32.57904 104.26976 48.27918
#
# Poissons Ratio (x) = 0.32020 0.38198
# Poissons Ratio (y) = 0.10005 0.14452
# Poissons Ratio (z) = 0.25776 0.31213
#
# Static dielectric constant tensor:
#      x y z
#    x 1.821970 0.000000 0.063560 
#    y 0.000000 1.808590 0.000000 
#    z 0.063560 0.000000 1.892660 
# 
# From -- ./inp_files/35634.got.cif
#   From: 2010.05.17/outbox.cif.g08.bks.cpg/sg15_18_cif.got.tgz:35634.got - 2010.06.03 18:47:42.
