data_PCOD9278216
_publ_section_title
;
Structure prediction by ZEFSAII (Michael W. Deem and Ramdas Pophale) SiO2 
 PCOD9278216
Probable space group: C 2/C
;
_chemical_formula_sum "Si O2"
_cell_formula_units_Z 52
_cell_length_a 8.584237
_cell_length_b 20.115086
_cell_length_c 17.649568
_cell_angle_alpha 90.000000
_cell_angle_beta 123.502204
_cell_angle_gamma 90.000000
_cell_volume 2541.284016
_symmetry_space_group_name_H-M "C 2/C"
_symmetry_group_IT_number 15
_symmetry_cell_setting 'monoclinic'
loop_
_space_group_symop_operation_xyz
x,y,z
-x,y,1/2-z
-x,-y,-z
x,-y,1/2+z
1/2+x,1/2+y,z
1/2-x,1/2+y,1/2-z
1/2-x,1/2-y,-z
1/2+x,1/2-y,1/2+z
loop_
_atom_site_type_symbol
_atom_site_label
_atom_site_fract_x
_atom_site_fract_y
_atom_site_fract_z
Si Si1 0.708075 0.734979 0.156223
Si Si2 0.809387 0.740609 0.603466
Si Si3 0.000000 0.165978 0.750000
Si Si4 0.209027 0.125839 0.047467
Si Si5 0.848787 0.644821 0.329691
Si Si6 0.718966 0.037050 0.295782
Si Si7 0.356532 0.610206 0.857085
O O1 0.534194 0.760973 0.157665
O O2 0.645041 0.696064 0.064924
O O3 0.820345 0.687284 0.244592
O O4 0.853351 0.788853 0.166161
O O5 0.750000 0.750000 0.500000
O O6 0.742372 0.806608 0.631791
O O7 0.737570 0.671963 0.622909
O O8 0.874938 0.127982 0.774647
O O9 0.432061 0.131985 0.091932
O O10 0.177856 0.077236 0.110452
O O11 0.068329 0.103750 0.945100
O O12 0.752382 0.574223 0.278273
O O13 0.500000 0.048184 0.250000
O O14 0.757674 0.960795 0.326422
#
# Coordination Sequence:
#
# PCOD9278216 Si02
#       7
#     8   8   4   8   8   8   8
#     4  11  20  40  62  96 129 174 212 264 340 399
#     4  12  25  38  67 105 134 167 216 290 336 385
#     4  12  26  38  64  90 136 174 212 282 330 406
#     4  10  20  42  68  89 130 174 224 265 328 401
#     4  10  21  42  66  93 129 181 222 258 333 417
#     4   9  22  43  68  91 130 184 222 267 329 404
#     4  12  25  42  63  99 133 170 225 281 334 391
#
# _framework density 20.462097
#
# number of rings (size 3 to 8) (size 9 to 14) (size 15 to 20)
#    0.000    1.231    4.615    1.846    4.308    1.231 
#    5.538    0.000    0.000    3.692    0.000    0.000 
#    0.000    0.000    0.000    0.000    0.000    0.000 
#
# Total GULP energy -144828.047446 kJ/mol
# GULP energy per Si atom -5570.309517 kJ/mol
# Density = 2.041552 g / cm^3
# Si number density = 20.462097 Si / 1000 Ang^3
#
#
#
# Elastic Constant Matrix: (Units=GPa)
#
#
# Indices 1 2 3 4 5 6 
#
# 1 62.1052 29.5828 -2.7521 0.0000 7.8730 0.0000
# 2 29.5828 106.3627 23.6653 0.0000 -4.6857 0.0000
# 3 -2.7521 23.6653 56.7502 0.0000 3.3078 0.0000
# 4 0.0000 0.0000 0.0000 19.5886 0.0000 9.4521
# 5 7.8730 -4.6857 3.3078 0.0000 35.9283 0.0000
# 6 0.0000 0.0000 0.0000 9.4521 0.0000 12.7191
#
#
#
# Elastic Compliance Matrix: (Units=1/GPa)
#
#
# Indices 1 2 3 4 5 6 
#
# 1 0.020253 -0.006809 0.004154 0.000000 -0.005708 0.000000
# 2 -0.006809 0.012764 -0.005868 0.000000 0.003697 0.000000
# 3 0.004154 -0.005868 0.020477 0.000000 -0.003561 0.000000
# 4 0.000000 0.000000 0.000000 0.079590 0.000000 -0.059146
# 5 -0.005708 0.003697 -0.003561 0.000000 0.029894 0.000000
# 6 0.000000 0.000000 0.000000 -0.059146 0.000000 0.122576
#
#
# Mechanical properties :
#
#
# Convention : Reuss Voigt Hill
#
# Bulk Modulus (GPa) = 27.43621 36.24556 31.84089
# Shear Modulus (GPa) = 15.88567 25.29534 20.59050
#
# Velocity S-wave (km/s) = 2.78932 3.51978 3.17563
# Velocity P-wave (km/s) = 4.87967 5.85410 5.38895
#
# Compressibility (1/GPa) = 0.03644818
#
# Stress axis : x y z
#
# Youngs Moduli (GPa) = 49.37632 78.34511 48.83462
#
# Poissons Ratio (x) = 0.53342 -0.20287
# Poissons Ratio (y) = 0.33619 0.28658
# Poissons Ratio (z) = -0.20512 0.45976
#
# Static dielectric constant tensor:
#      x y z
#    x 1.742020 0.000000 -0.014790 
#    y 0.000000 1.810150 0.000000 
#    z -0.014790 0.000000 1.782150 
# 
# From -- ./inp_files/191136.got.cif
#   From: 2010.05.17/outbox.cif.g08.bks.cpg/sg15_96_cif.got.tgz:191136.got - 2010.06.03 18:47:42.
