data_PCOD9278693
_publ_section_title
;
Structure prediction by ZEFSAII (Michael W. Deem and Ramdas Pophale) SiO2 
 PCOD9278693
Probable space group: C 2/C
;
_chemical_formula_sum "Si O2"
_cell_formula_units_Z 52
_cell_length_a 12.504970
_cell_length_b 14.073620
_cell_length_c 12.991337
_cell_angle_alpha 90.000000
_cell_angle_beta 99.339611
_cell_angle_gamma 90.000000
_cell_volume 2256.039560
_symmetry_space_group_name_H-M "C 2/C"
_symmetry_group_IT_number 15
_symmetry_cell_setting 'monoclinic'
loop_
_space_group_symop_operation_xyz
x,y,z
-x,y,1/2-z
-x,-y,-z
x,-y,1/2+z
1/2+x,1/2+y,z
1/2-x,1/2+y,1/2-z
1/2-x,1/2-y,-z
1/2+x,1/2-y,1/2+z
loop_
_atom_site_type_symbol
_atom_site_label
_atom_site_fract_x
_atom_site_fract_y
_atom_site_fract_z
Si Si1 0.731104 0.640701 0.525067
Si Si2 0.654965 0.329038 0.699777
Si Si3 0.622647 0.135929 0.764145
Si Si4 0.484614 0.389441 0.015447
Si Si5 0.205572 0.470228 0.671150
Si Si6 0.500000 0.869571 0.750000
Si Si7 0.839612 0.761189 0.106405
O O1 0.750000 0.750000 0.500000
O O2 0.807342 0.605160 0.628282
O O3 0.607664 0.642696 0.544386
O O4 0.762488 0.572801 0.434247
O O5 0.612826 0.250332 0.771280
O O6 0.572400 0.342908 0.593571
O O7 0.693723 0.430799 0.745334
O O8 0.762921 0.269648 0.687243
O O9 0.500000 0.101979 0.750000
O O10 0.679760 0.082370 0.676202
O O11 0.403294 0.358990 0.094173
O O12 0.500000 0.500000 0.000000
O O13 0.097334 0.424288 0.705652
O O14 0.559284 0.809615 0.851499
O O15 0.750000 0.750000 0.000000
#
# Coordination Sequence:
#
# PCOD9278693 Si02
#       7
#     8   8   8   8   8   4   8
#     4  12  25  45  73 101 143 186 233 293 359 419
#     4  10  23  45  69  98 142 184 233 295 347 418
#     4  12  26  46  69 105 140 186 243 291 359 425
#     4  11  24  43  68 103 140 179 233 288 356 429
#     4  11  24  45  72 102 139 184 239 294 348 424
#     4  10  20  44  70  96 134 180 234 296 344 418
#     4   9  21  40  68  96 135 183 230 279 354 419
#
# _framework density 23.049240999999999
#
# number of rings (size 3 to 8) (size 9 to 14) (size 15 to 20)
#    0.000    1.231    2.308    2.769    4.308    1.846 
#    5.538    0.000    0.000    0.000    0.000    0.000 
#    0.000    0.000    0.000    0.000    0.000    0.000 
#
# Total GULP energy -144777.277960 kJ/mol
# GULP energy per Si atom -5568.356845 kJ/mol
# Density = 2.299678 g / cm^3
# Si number density = 23.049241 Si / 1000 Ang^3
#
#
#
# Elastic Constant Matrix: (Units=GPa)
#
#
# Indices 1 2 3 4 5 6 
#
# 1 139.5371 19.3693 34.4749 0.0000 23.6496 0.0000
# 2 19.3693 96.2712 -9.4746 0.0000 8.3292 0.0000
# 3 34.4749 -9.4746 64.7825 0.0000 22.8438 0.0000
# 4 0.0000 0.0000 0.0000 17.8706 0.0000 -15.3364
# 5 23.6496 8.3292 22.8438 0.0000 38.0030 0.0000
# 6 0.0000 0.0000 0.0000 -15.3364 0.0000 11.2435
#
#
#
# Elastic Compliance Matrix: (Units=1/GPa)
#
#
# Indices 1 2 3 4 5 6 
#
# 1 0.008898 -0.001963 -0.004088 0.000000 -0.002650 0.000000
# 2 -0.001963 0.011503 0.004042 0.000000 -0.003729 0.000000
# 3 -0.004088 0.004042 0.022357 0.000000 -0.011781 0.000000
# 4 0.000000 0.000000 0.000000 -0.328037 0.000000 -0.447448
# 5 -0.002650 -0.003729 -0.011781 0.000000 0.035862 0.000000
# 6 0.000000 0.000000 0.000000 -0.447448 0.000000 -0.521385
#
#
# Mechanical properties :
#
#
# Convention : Reuss Voigt Hill
#
# Bulk Modulus (GPa) = 25.81354 43.25888 34.53621
# Shear Modulus (GPa) = -6.63244 30.50483 11.93620
#
# Velocity S-wave (km/s) = -1.69816 3.64189 2.27811
# Velocity P-wave (km/s) = 2.71636 6.04097 4.68358
#
# Compressibility (1/GPa) = 0.03873936
#
# Stress axis : x y z
#
# Youngs Moduli (GPa) = 112.38216 86.93567 44.72842
#
# Poissons Ratio (x) = 0.17069 0.18285
# Poissons Ratio (y) = 0.22065 -0.18079
# Poissons Ratio (z) = 0.45943 -0.35140
#
# Static dielectric constant tensor:
#      x y z
#    x 1.930140 0.000000 -0.002190 
#    y 0.000000 1.864820 0.000000 
#    z -0.002190 0.000000 1.887770 
# 
# From -- ./inp_files/144338.got.cif
#   From: 2010.05.17/outbox.cif.g08.bks.cpg/sg15_73_cif.got.tgz:144338.got - 2010.06.03 18:47:42.
