data_PCOD9278097
_publ_section_title
;
Structure prediction by ZEFSAII (Michael W. Deem and Ramdas Pophale) SiO2 
 PCOD9278097
Probable space group: C 2/C
;
_chemical_formula_sum "Si O2"
_cell_formula_units_Z 56
_cell_length_a 17.726876
_cell_length_b 11.793627
_cell_length_c 17.860703
_cell_angle_alpha 90.000000
_cell_angle_beta 132.751914
_cell_angle_gamma 90.000000
_cell_volume 2741.899759
_symmetry_space_group_name_H-M "C 2/C"
_symmetry_group_IT_number 15
_symmetry_cell_setting 'monoclinic'
loop_
_space_group_symop_operation_xyz
x,y,z
-x,y,1/2-z
-x,-y,-z
x,-y,1/2+z
1/2+x,1/2+y,z
1/2-x,1/2+y,1/2-z
1/2-x,1/2-y,-z
1/2+x,1/2-y,1/2+z
loop_
_atom_site_type_symbol
_atom_site_label
_atom_site_fract_x
_atom_site_fract_y
_atom_site_fract_z
Si Si1 0.329104 0.807914 0.771154
Si Si2 0.183885 0.518014 0.120312
Si Si3 0.554397 0.612917 0.453896
Si Si4 0.111768 0.516637 0.787923
Si Si5 0.892494 0.686948 0.857241
Si Si6 0.258524 0.385034 0.513292
Si Si7 0.881207 0.074576 0.840985
O O1 0.362782 0.875203 0.868067
O O2 0.211672 0.762612 0.703567
O O3 0.394349 0.693558 0.807729
O O4 0.346500 0.898154 0.717451
O O5 0.112814 0.406384 0.079298
O O6 0.222387 0.560513 0.066591
O O7 0.282142 0.483601 0.237815
O O8 0.488114 0.727839 0.416223
O O9 0.622639 0.597872 0.426526
O O10 0.627061 0.603210 0.576259
O O11 0.475027 0.510078 0.399839
O O12 0.108079 0.609515 0.718180
O O13 0.000000 0.503671 0.750000
O O14 0.187621 0.560126 0.902527
O O15 0.250000 0.250000 0.500000
#
# Coordination Sequence:
#
# PCOD9278097 Si02
#       7
#     8   8   8   8   8   8   8
#     4  10  20  42  66  88 131 173 218 264 330 390
#     4  10  21  41  65  95 134 172 220 266 332 392
#     4  11  22  39  70  97 129 167 231 267 335 388
#     4  11  25  44  67  96 133 175 222 275 335 390
#     4  10  21  40  69  93 127 175 220 271 322 397
#     4  12  25  41  65 101 137 170 217 283 337 398
#     4  10  22  39  63  96 127 175 217 269 323 396
#
# _framework density 20.423795999999999
#
# number of rings (size 3 to 8) (size 9 to 14) (size 15 to 20)
#    0.000    1.429    1.429    5.143    2.000    1.714 
#    5.143    6.429    0.000    0.000    0.000    0.000 
#    0.000    0.000    0.000    0.000    0.000    0.000 
#
# Total GULP energy -156367.151915 kJ/mol
# GULP energy per Si atom -5584.541140 kJ/mol
# Density = 2.037731 g / cm^3
# Si number density = 20.423796 Si / 1000 Ang^3
#
#
#
# Elastic Constant Matrix: (Units=GPa)
#
#
# Indices 1 2 3 4 5 6 
#
# 1 112.1864 49.2160 30.4555 0.0000 -9.0823 0.0000
# 2 49.2160 154.9743 48.7029 0.0000 -9.9987 0.0000
# 3 30.4555 48.7029 80.4970 0.0000 -8.1422 0.0000
# 4 0.0000 0.0000 0.0000 27.3113 0.0000 -2.5617
# 5 -9.0823 -9.9987 -8.1422 0.0000 28.5760 0.0000
# 6 0.0000 0.0000 0.0000 -2.5617 0.0000 30.4141
#
#
#
# Elastic Compliance Matrix: (Units=1/GPa)
#
#
# Indices 1 2 3 4 5 6 
#
# 1 0.010836 -0.002583 -0.002348 0.000000 0.001871 0.000000
# 2 -0.002583 0.008642 -0.004149 0.000000 0.001021 0.000000
# 3 -0.002348 -0.004149 0.016062 0.000000 0.002379 0.000000
# 4 0.000000 0.000000 0.000000 0.036906 0.000000 0.003108
# 5 0.001871 0.001021 0.002379 0.000000 0.036624 0.000000
# 6 0.000000 0.000000 0.000000 0.003108 0.000000 0.033141
#
#
# Mechanical properties :
#
#
# Convention : Reuss Voigt Hill
#
# Bulk Modulus (GPa) = 57.53095 67.15627 62.34361
# Shear Modulus (GPa) = 30.09090 31.87919 30.98504
#
# Velocity S-wave (km/s) = 3.84256 3.95509 3.89923
# Velocity P-wave (km/s) = 6.92219 7.33551 7.13185
#
# Compressibility (1/GPa) = 0.01738195
#
# Stress axis : x y z
#
# Youngs Moduli (GPa) = 92.28895 115.70788 62.26006
#
# Poissons Ratio (x) = 0.29882 0.14617
# Poissons Ratio (y) = 0.23834 0.25829
# Poissons Ratio (z) = 0.21667 0.48002
#
# Static dielectric constant tensor:
#      x y z
#    x 1.780810 0.000000 0.016980 
#    y 0.000000 1.738950 0.000000 
#    z 0.016980 0.000000 1.749290 
# 
# From -- ./inp_files/210677.got.cif
#   From: 2010.05.17/outbox.cif.g08.bks.cpg/sg15_106_cif.got.tgz:210677.got - 2010.06.03 18:47:42.
