data_PCOD9278970
_publ_section_title
;
Structure prediction by ZEFSAII (Michael W. Deem and Ramdas Pophale) SiO2 
 PCOD9278970
Probable space group: C 2/C
;
_chemical_formula_sum "Si O2"
_cell_formula_units_Z 56
_cell_length_a 27.049640
_cell_length_b 9.774846
_cell_length_c 11.604307
_cell_angle_alpha 90.000000
_cell_angle_beta 49.327662
_cell_angle_gamma 90.000000
_cell_volume 2327.110738
_symmetry_space_group_name_H-M "C 2/C"
_symmetry_group_IT_number 15
_symmetry_cell_setting 'monoclinic'
loop_
_space_group_symop_operation_xyz
x,y,z
-x,y,1/2-z
-x,-y,-z
x,-y,1/2+z
1/2+x,1/2+y,z
1/2-x,1/2+y,1/2-z
1/2-x,1/2-y,-z
1/2+x,1/2-y,1/2+z
loop_
_atom_site_type_symbol
_atom_site_label
_atom_site_fract_x
_atom_site_fract_y
_atom_site_fract_z
Si Si1 0.115043 0.639634 0.376481
Si Si2 0.181286 0.075381 0.776393
Si Si3 0.693895 0.506639 0.016044
Si Si4 0.436640 0.169559 0.797535
Si Si5 0.310997 0.208633 0.560064
Si Si6 0.327927 0.153165 0.787290
Si Si7 0.050870 0.364622 0.762930
O O1 0.162520 0.766493 0.293421
O O2 0.100126 0.626060 0.531506
O O3 0.142174 0.495795 0.291346
O O4 0.053408 0.683059 0.390528
O O5 0.158023 0.000749 0.694760
O O6 0.259996 0.083082 0.643726
O O7 0.162511 0.038868 0.937240
O O8 0.713020 0.347162 0.964908
O O9 0.754785 0.610765 0.935869
O O10 0.500000 0.251022 0.750000
O O11 0.379347 0.216639 0.799290
O O12 0.463299 0.026303 0.706634
O O13 0.323747 0.238565 0.675809
O O14 0.377378 0.163746 0.396927
O O15 0.000000 0.303858 0.750000
#
# Coordination Sequence:
#
# PCOD9278970 Si02
#       7
#     8   8   8   8   8   8   8
#     4  11  20  37  59  84 120 154 194 237 296 352
#     4  11  23  38  61  87 119 156 199 248 293 352
#     4  11  23  38  60  87 121 158 201 242 298 347
#     4  10  22  35  55  89 128 155 182 239 302 359
#     4  11  20  38  60  88 118 156 191 241 298 349
#     4  10  22  34  59  90 121 151 195 240 293 356
#     4  10  21  33  58  87 117 151 199 234 289 355
#
# _framework density 24.064174999999999
#
# number of rings (size 3 to 8) (size 9 to 14) (size 15 to 20)
#    0.000    1.429    4.286    2.143    4.000    2.857 
#    0.000    2.857    0.000    1.714    0.000    0.000 
#    0.000    0.000    0.000    0.000    0.000    0.000 
#
# Total GULP energy -156166.749495 kJ/mol
# GULP energy per Si atom -5577.383911 kJ/mol
# Density = 2.400940 g / cm^3
# Si number density = 24.064175 Si / 1000 Ang^3
#
#
#
# Elastic Constant Matrix: (Units=GPa)
#
#
# Indices 1 2 3 4 5 6 
#
# 1 104.3255 12.4204 25.8589 0.0000 30.3889 0.0000
# 2 12.4204 60.5205 14.7207 0.0000 5.3392 0.0000
# 3 25.8589 14.7207 69.8578 0.0000 29.1912 0.0000
# 4 0.0000 0.0000 0.0000 17.2829 0.0000 14.8163
# 5 30.3889 5.3392 29.1912 0.0000 50.2729 0.0000
# 6 0.0000 0.0000 0.0000 14.8163 0.0000 27.4485
#
#
#
# Elastic Compliance Matrix: (Units=1/GPa)
#
#
# Indices 1 2 3 4 5 6 
#
# 1 0.011943 -0.001537 -0.001516 0.000000 -0.006176 0.000000
# 2 -0.001537 0.017619 -0.003631 0.000000 0.001167 0.000000
# 3 -0.001516 -0.003631 0.019934 0.000000 -0.010272 0.000000
# 4 0.000000 0.000000 0.000000 0.107697 0.000000 -0.058133
# 5 -0.006176 0.001167 -0.010272 0.000000 0.029465 0.000000
# 6 0.000000 0.000000 0.000000 -0.058133 0.000000 0.067811
#
#
# Mechanical properties :
#
#
# Convention : Reuss Voigt Hill
#
# Bulk Modulus (GPa) = 27.68069 37.85597 32.76833
# Shear Modulus (GPa) = 17.86474 31.11445 24.48960
#
# Velocity S-wave (km/s) = 2.72762 3.59970 3.19357
# Velocity P-wave (km/s) = 4.63117 5.74826 5.21969
#
# Compressibility (1/GPa) = 0.03612627
#
# Stress axis : x y z
#
# Youngs Moduli (GPa) = 83.72992 56.75650 50.16616
#
# Poissons Ratio (x) = 0.08726 0.07607
# Poissons Ratio (y) = 0.12872 0.18216
# Poissons Ratio (z) = 0.12697 0.20609
#
# Static dielectric constant tensor:
#      x y z
#    x 2.061240 0.000000 -0.009430 
#    y 0.000000 1.924510 0.000000 
#    z -0.009430 0.000000 1.978600 
# 
# From -- ./inp_files/111664.got.cif
#   From: 2010.05.17/outbox.cif.g08.bks.cpg/sg15_56_cif.got.tgz:111664.got - 2010.06.03 18:47:42.
