data_PCOD9278647
_publ_section_title
;
Structure prediction by ZEFSAII (Michael W. Deem and Ramdas Pophale) SiO2 
 PCOD9278647
Probable space group: C 2/C
;
_chemical_formula_sum "Si O2"
_cell_formula_units_Z 60
_cell_length_a 17.134842
_cell_length_b 26.000145
_cell_length_c 13.248922
_cell_angle_alpha 90.000000
_cell_angle_beta 26.131942
_cell_angle_gamma 90.000000
_cell_volume 2599.698123
_symmetry_space_group_name_H-M "C 2/C"
_symmetry_group_IT_number 15
_symmetry_cell_setting 'monoclinic'
loop_
_space_group_symop_operation_xyz
x,y,z
-x,y,1/2-z
-x,-y,-z
x,-y,1/2+z
1/2+x,1/2+y,z
1/2-x,1/2+y,1/2-z
1/2-x,1/2-y,-z
1/2+x,1/2-y,1/2+z
loop_
_atom_site_type_symbol
_atom_site_label
_atom_site_fract_x
_atom_site_fract_y
_atom_site_fract_z
Si Si1 0.514011 0.076586 0.442960
Si Si2 0.302951 0.798359 0.507542
Si Si3 0.001322 0.682068 0.366490
Si Si4 0.865265 0.090619 0.314532
Si Si5 0.000000 0.955853 0.250000
Si Si6 0.680924 0.711578 0.370548
Si Si7 0.572755 0.602123 0.477552
Si Si8 0.353667 0.982444 0.316008
O O1 0.435872 0.130280 0.496232
O O2 0.717222 0.090197 0.241990
O O3 0.408884 0.054276 0.660078
O O4 0.519548 0.032331 0.349550
O O5 0.500000 0.812934 0.250000
O O6 0.250000 0.750000 0.500000
O O7 0.189202 0.849598 0.624050
O O8 0.292297 0.784401 0.637953
O O9 0.198903 0.693562 0.176382
O O10 0.000000 0.673594 0.250000
O O11 0.898551 0.733469 0.514491
O O12 0.952844 0.079552 0.104274
O O13 0.693449 0.053944 0.533310
O O14 0.000000 0.085013 0.250000
O O15 0.041356 0.921761 0.300091
O O16 0.835887 0.989891 0.473909
O O17 0.548462 0.663804 0.506070
#
# Coordination Sequence:
#
# PCOD9278647 Si02
#       8
#     8   8   8   8   4   8   8   8
#     4   9  22  45  65  96 131 179 235 277 336 412
#     4  11  24  42  70  99 136 181 223 281 342 416
#     4  11  23  44  68 100 135 180 223 277 334 411
#     4  11  24  41  65 103 137 174 225 282 349 412
#     4  10  20  44  66  98 130 180 232 282 334 410
#     4  10  23  42  66  99 133 174 225 268 340 400
#     4   9  22  42  69  92 133 181 225 278 342 407
#     4  10  21  42  68  94 135 173 226 286 343 402
#
# _framework density 23.079602999999999
#
# number of rings (size 3 to 8) (size 9 to 14) (size 15 to 20)
#    0.000    1.867    0.667    1.600    8.400    1.600 
#    9.600    0.000    0.000    0.000    0.000    0.000 
#    0.000    0.000    0.000    0.000    0.000    0.000 
#
# Total GULP energy -167608.023862 kJ/mol
# GULP energy per Si atom -5586.934129 kJ/mol
# Density = 2.302707 g / cm^3
# Si number density = 23.079603 Si / 1000 Ang^3
#
#
#
# Elastic Constant Matrix: (Units=GPa)
#
#
# Indices 1 2 3 4 5 6 
#
# 1 92.0144 19.8278 8.9858 0.0342 23.7546 -0.0034
# 2 19.8278 161.4123 44.6709 -0.0101 23.1147 0.0253
# 3 8.9858 44.6709 44.5660 0.0101 7.4356 0.0286
# 4 0.0342 -0.0101 0.0101 27.1524 0.0383 1.9446
# 5 23.7546 23.1147 7.4356 0.0383 25.4234 -0.0256
# 6 -0.0034 0.0253 0.0286 1.9446 -0.0256 20.7015
#
#
#
# Elastic Compliance Matrix: (Units=1/GPa)
#
#
# Indices 1 2 3 4 5 6 
#
# 1 0.014368 0.000485 -0.001124 0.000003 -0.013537 -0.000014
# 2 0.000485 0.009407 -0.008436 0.000016 -0.006538 -0.000009
# 3 -0.001124 -0.008436 0.031188 -0.000010 -0.000401 -0.000032
# 4 0.000003 0.000016 -0.000010 0.037079 -0.000073 -0.003483
# 5 -0.013537 -0.006538 -0.000401 -0.000073 0.058044 0.000085
# 6 -0.000014 -0.000009 -0.000032 -0.003483 0.000085 0.048633
#
#
# Mechanical properties :
#
#
# Convention : Reuss Voigt Hill
#
# Bulk Modulus (GPa) = 27.16521 49.44019 38.30270
# Shear Modulus (GPa) = 21.82082 29.62268 25.72175
#
# Velocity S-wave (km/s) = 3.07817 3.58648 3.34200
# Velocity P-wave (km/s) = 4.94260 6.21439 5.61462
#
# Compressibility (1/GPa) = 0.03681179
#
# Stress axis : x y z
#
# Youngs Moduli (GPa) = 69.59986 106.30804 32.06381
#
# Poissons Ratio (x) = -0.05153 0.03605
# Poissons Ratio (y) = -0.03373 0.27048
# Poissons Ratio (z) = 0.07825 0.89678
#
# Static dielectric constant tensor:
#      x y z
#    x 1.949660 -0.000080 -0.062760 
#    y -0.000080 1.997290 0.000010 
#    z -0.062760 0.000010 1.861970 
# 
# From -- ./inp_files/108410.got.cif
#   From: 2010.05.17/outbox.cif.g08.bks.cpg/sg15_55_cif.got.tgz:108410.got - 2010.06.03 18:47:42.
