data_PCOD9278143
_publ_section_title
;
Structure prediction by ZEFSAII (Michael W. Deem and Ramdas Pophale) SiO2 
 PCOD9278143
Probable space group: C 2/C
;
_chemical_formula_sum "Si O2"
_cell_formula_units_Z 60
_cell_length_a 10.540088
_cell_length_b 10.090237
_cell_length_c 26.786081
_cell_angle_alpha 90.000000
_cell_angle_beta 88.654305
_cell_angle_gamma 90.000000
_cell_volume 2847.967216
_symmetry_space_group_name_H-M "C 2/C"
_symmetry_group_IT_number 15
_symmetry_cell_setting 'monoclinic'
loop_
_space_group_symop_operation_xyz
x,y,z
-x,y,1/2-z
-x,-y,-z
x,-y,1/2+z
1/2+x,1/2+y,z
1/2-x,1/2+y,1/2-z
1/2-x,1/2-y,-z
1/2+x,1/2-y,1/2+z
loop_
_atom_site_type_symbol
_atom_site_label
_atom_site_fract_x
_atom_site_fract_y
_atom_site_fract_z
Si Si1 0.814648 0.119969 0.522632
Si Si2 0.500000 0.276343 0.750000
Si Si3 0.637593 0.179113 0.241179
Si Si4 0.678273 0.203616 0.127090
Si Si5 0.525966 0.665929 0.364035
Si Si6 0.913113 0.939953 0.436583
Si Si7 0.124172 0.569442 0.614594
Si Si8 0.731900 0.909179 0.224386
O O1 0.750000 0.250000 0.500000
O O2 0.827738 0.006256 0.480447
O O3 0.723841 0.088720 0.569692
O O4 0.959962 0.126259 0.540934
O O5 0.499581 0.347797 0.695666
O O6 0.377498 0.179812 0.749080
O O7 0.500000 0.116633 0.250000
O O8 0.649136 0.231298 0.184987
O O9 0.651145 0.309038 0.274644
O O10 0.734798 0.056111 0.247662
O O11 0.825018 0.159159 0.125579
O O12 0.660520 0.329120 0.092966
O O13 0.584517 0.084197 0.111353
O O14 0.456589 0.555372 0.397850
O O15 0.475824 0.811389 0.381396
O O16 0.191701 0.573190 0.667859
#
# Coordination Sequence:
#
# PCOD9278143 Si02
#       8
#     8   4   8   8   8   8   8   8
#     4  11  23  47  69  97 131 170 220 286 339 392
#     4  10  20  42  66  94 140 180 210 264 328 382
#     4  11  24  40  63  95 134 172 218 261 320 385
#     4  11  25  44  65 101 134 172 222 274 321 400
#     4  11  22  46  67  97 138 177 215 270 325 391
#     4  11  26  44  71  97 131 170 227 277 329 401
#     4  10  23  43  68  91 137 174 214 274 338 377
#     4  10  22  42  62  94 134 173 213 270 311 390
#
# _framework density 21.067658999999999
#
# number of rings (size 3 to 8) (size 9 to 14) (size 15 to 20)
#    0.000    1.333    4.667    0.000    1.867    3.733 
#    2.400    1.333    0.000    0.000    0.000    0.000 
#    0.000    0.000    0.000    0.000    0.000    0.000 
#
# Total GULP energy -167438.170656 kJ/mol
# GULP energy per Si atom -5581.272355 kJ/mol
# Density = 2.101971 g / cm^3
# Si number density = 21.067659 Si / 1000 Ang^3
#
#
#
# Elastic Constant Matrix: (Units=GPa)
#
#
# Indices 1 2 3 4 5 6 
#
# 1 40.8706 30.5776 10.4714 0.0000 -1.2929 0.0000
# 2 30.5776 106.0264 9.0591 0.0000 12.8129 0.0000
# 3 10.4714 9.0591 59.8318 0.0000 -15.8210 0.0000
# 4 0.0000 0.0000 0.0000 25.9229 0.0000 8.2853
# 5 -1.2929 12.8129 -15.8210 0.0000 24.7980 0.0000
# 6 0.0000 0.0000 0.0000 8.2853 0.0000 32.0460
#
#
#
# Elastic Compliance Matrix: (Units=1/GPa)
#
#
# Indices 1 2 3 4 5 6 
#
# 1 0.032681 -0.009760 -0.002957 0.000000 0.004860 0.000000
# 2 -0.009760 0.013617 -0.002825 0.000000 -0.009347 0.000000
# 3 -0.002957 -0.002825 0.021658 0.000000 0.015123 0.000000
# 4 0.000000 0.000000 0.000000 0.042051 0.000000 -0.010872
# 5 0.004860 -0.009347 0.015123 0.000000 0.055057 0.000000
# 6 0.000000 0.000000 0.000000 -0.010872 0.000000 0.034016
#
#
# Mechanical properties :
#
#
# Convention : Reuss Voigt Hill
#
# Bulk Modulus (GPa) = 27.12080 34.10499 30.61289
# Shear Modulus (GPa) = 20.62248 26.99476 23.80862
#
# Velocity S-wave (km/s) = 3.13208 3.58346 3.36535
# Velocity P-wave (km/s) = 5.09716 5.77452 5.44638
#
# Compressibility (1/GPa) = 0.03687208
#
# Stress axis : x y z
#
# Youngs Moduli (GPa) = 30.59928 73.43628 46.17295
#
# Poissons Ratio (x) = 0.71671 0.13652
# Poissons Ratio (y) = 0.29864 0.13046
# Poissons Ratio (z) = 0.09047 0.20748
#
# Static dielectric constant tensor:
#      x y z
#    x 1.785480 0.000000 0.009230 
#    y 0.000000 1.837600 0.000000 
#    z 0.009230 0.000000 1.770190 
# 
# From -- ./inp_files/309978.got.cif
#   From: 2010.05.17/outbox.cif.g08.bks.cpg/sg15_155_cif.got.tgz:309978.got - 2010.06.03 18:47:42.
