data_PCOD9278496
_publ_section_title
;
Structure prediction by ZEFSAII (Michael W. Deem and Ramdas Pophale) SiO2 
 PCOD9278496
Probable space group: C 2/C
;
_chemical_formula_sum "Si O2"
_cell_formula_units_Z 48
_cell_length_a 14.440860
_cell_length_b 16.222803
_cell_length_c 15.517428
_cell_angle_alpha 90.000000
_cell_angle_beta 143.310700
_cell_angle_gamma 90.000000
_cell_volume 2171.994510
_symmetry_space_group_name_H-M "C 2/C"
_symmetry_group_IT_number 15
_symmetry_cell_setting 'monoclinic'
loop_
_space_group_symop_operation_xyz
x,y,z
-x,y,1/2-z
-x,-y,-z
x,-y,1/2+z
1/2+x,1/2+y,z
1/2-x,1/2+y,1/2-z
1/2-x,1/2-y,-z
1/2+x,1/2-y,1/2+z
loop_
_atom_site_type_symbol
_atom_site_label
_atom_site_fract_x
_atom_site_fract_y
_atom_site_fract_z
Si Si1 0.559372 0.806898 0.045063
Si Si2 0.589024 0.370549 0.897888
Si Si3 0.632271 0.937024 0.498773
Si Si4 0.144428 0.840960 0.121334
Si Si5 0.176332 0.972037 0.699042
Si Si6 0.448848 0.086333 0.305309
O O1 0.439657 0.851286 0.022305
O O2 0.504862 0.716098 0.979041
O O3 0.539630 0.860649 0.944303
O O4 0.721702 0.808495 0.215587
O O5 0.500000 0.328034 0.750000
O O6 0.719685 0.425537 0.950893
O O7 0.456461 0.421978 0.849782
O O8 0.676818 0.327904 0.043253
O O9 0.691487 0.982829 0.629082
O O10 0.506073 0.992106 0.357865
O O11 0.126695 0.937922 0.129777
O O12 0.267019 0.919971 0.693627
O O13 0.500000 0.115940 0.250000
#
# Coordination Sequence:
#
# PCOD9278496 Si02
#       6
#     8   8   8   8   8   8
#     4  11  26  42  67  97 139 179 218 268 330 406
#     4  10  24  40  69 104 127 165 225 283 328 391
#     4  10  20  43  68 100 129 168 227 269 333 394
#     4  12  24  44  65  95 141 184 209 267 341 388
#     4  10  20  43  70  97 129 172 221 280 326 391
#     4  11  21  42  74  94 125 173 232 274 326 387
#
# _framework density 22.099502999999999
#
# number of rings (size 3 to 8) (size 9 to 14) (size 15 to 20)
#    0.000    1.333    3.333    2.500    7.000    0.667 
#    0.000    3.333    0.000    0.000    0.000    0.000 
#    0.000    0.000    0.000    0.000    0.000    0.000 
#
# Total GULP energy -133940.357633 kJ/mol
# GULP energy per Si atom -5580.848235 kJ/mol
# Density = 2.204920 g / cm^3
# Si number density = 22.099503 Si / 1000 Ang^3
#
#
#
# Elastic Constant Matrix: (Units=GPa)
#
#
# Indices 1 2 3 4 5 6 
#
# 1 138.2890 17.4320 51.0833 0.0003 -6.3474 0.0001
# 2 17.4320 71.3051 58.8455 0.0002 -8.7376 0.0001
# 3 51.0833 58.8455 130.8617 -0.0001 -9.4050 -0.0001
# 4 0.0003 0.0002 -0.0001 26.4716 0.0003 8.1977
# 5 -6.3474 -8.7376 -9.4050 0.0003 33.0519 0.0002
# 6 0.0001 0.0001 -0.0001 8.1977 0.0002 14.8386
#
#
#
# Elastic Compliance Matrix: (Units=1/GPa)
#
#
# Indices 1 2 3 4 5 6 
#
# 1 0.008522 0.001139 -0.003777 0.000000 0.000863 0.000000
# 2 0.001139 0.022769 -0.010449 0.000000 0.003265 0.000000
# 3 -0.003777 -0.010449 0.013847 0.000000 0.000453 0.000000
# 4 0.000000 0.000000 0.000000 0.045573 0.000000 -0.025177
# 5 0.000863 0.003265 0.000453 0.000000 0.031413 0.000000
# 6 0.000000 0.000000 0.000000 -0.025177 0.000000 0.081301
#
#
# Mechanical properties :
#
#
# Convention : Reuss Voigt Hill
#
# Bulk Modulus (GPa) = 52.72742 66.13082 59.42912
# Shear Modulus (GPa) = 21.19361 29.07875 25.13618
#
# Velocity S-wave (km/s) = 3.10015 3.63135 3.37621
# Velocity P-wave (km/s) = 6.06015 6.89720 6.49218
#
# Compressibility (1/GPa) = 0.01896547
#
# Stress axis : x y z
#
# Youngs Moduli (GPa) = 117.33648 43.91993 72.21669
#
# Poissons Ratio (x) = -0.05004 0.27278
# Poissons Ratio (y) = -0.13370 0.75457
# Poissons Ratio (z) = 0.44320 0.45891
#
# Static dielectric constant tensor:
#      x y z
#    x 1.824180 0.000000 0.001240 
#    y 0.000000 1.827930 0.000000 
#    z 0.001240 0.000000 1.879420 
# 
# From -- ./inp_files/155293.got.cif
#   From: 2010.05.17/outbox.cif.g08.bks.cpg/sg15_78_cif.got.tgz:155293.got - 2010.06.03 18:47:42.
