data_PCOD9278243
_publ_section_title
;
Structure prediction by ZEFSAII (Michael W. Deem and Ramdas Pophale) SiO2 
 PCOD9278243
Probable space group: C 2/C
;
_chemical_formula_sum "Si O2"
_cell_formula_units_Z 44
_cell_length_a 27.724494
_cell_length_b 11.950808
_cell_length_c 16.220314
_cell_angle_alpha 90.000000
_cell_angle_beta 22.422198
_cell_angle_gamma 90.000000
_cell_volume 2049.903155
_symmetry_space_group_name_H-M "C 2/C"
_symmetry_group_IT_number 15
_symmetry_cell_setting 'monoclinic'
loop_
_space_group_symop_operation_xyz
x,y,z
-x,y,1/2-z
-x,-y,-z
x,-y,1/2+z
1/2+x,1/2+y,z
1/2-x,1/2+y,1/2-z
1/2-x,1/2-y,-z
1/2+x,1/2-y,1/2+z
loop_
_atom_site_type_symbol
_atom_site_label
_atom_site_fract_x
_atom_site_fract_y
_atom_site_fract_z
Si Si1 0.067333 0.594136 0.447892
Si Si2 0.293772 0.362532 0.470573
Si Si3 0.650928 0.505326 0.267687
Si Si4 0.756384 0.942287 0.212072
Si Si5 0.330086 0.239706 0.788934
Si Si6 0.000000 0.933265 0.250000
O O1 0.133321 0.524765 0.417468
O O2 0.000000 0.500000 0.500000
O O3 0.967493 0.695244 0.604499
O O4 0.194490 0.624778 0.199829
O O5 0.250000 0.250000 0.500000
O O6 0.289709 0.463906 0.412152
O O7 0.435286 0.359847 0.281781
O O8 0.500000 0.500000 0.500000
O O9 0.700620 0.424316 0.261682
O O10 0.675309 0.636713 0.241704
O O11 0.717186 0.845609 0.208561
O O12 0.885165 0.994505 0.968732
O O13 0.250000 0.250000 0.000000
#
# Coordination Sequence:
#
# PCOD9278243 Si02
#       6
#     8   8   8   8   8   4
#     4   9  20  42  64  92 134 173 219 285 342 410
#     4  11  23  42  66  96 135 178 223 282 349 417
#     4  12  24  42  67 103 140 179 239 288 353 443
#     4  10  23  42  67 100 139 177 238 286 362 420
#     4  11  24  45  73  99 136 189 238 301 355 424
#     4  10  20  42  68  94 132 184 226 280 342 428
#
# _framework density 21.464428999999999
#
# number of rings (size 3 to 8) (size 9 to 14) (size 15 to 20)
#    0.000    1.455    1.818    4.364    0.000    4.364 
#    3.273    3.636    0.000    0.000    0.000    0.000 
#    0.000    0.000    0.000    0.000    0.000    0.000 
#
# Total GULP energy -122535.735455 kJ/mol
# GULP energy per Si atom -5569.806157 kJ/mol
# Density = 2.141557 g / cm^3
# Si number density = 21.464429 Si / 1000 Ang^3
#
#
#
# Elastic Constant Matrix: (Units=GPa)
#
#
# Indices 1 2 3 4 5 6 
#
# 1 122.7598 37.6295 30.5587 0.0000 -22.7691 0.0000
# 2 37.6295 107.1590 31.3605 0.0000 -19.0176 0.0000
# 3 30.5587 31.3605 90.5104 0.0000 -16.0401 0.0000
# 4 0.0000 0.0000 0.0000 36.7390 0.0000 -3.1450
# 5 -22.7691 -19.0176 -16.0401 0.0000 35.4015 0.0000
# 6 0.0000 0.0000 0.0000 -3.1450 0.0000 32.6906
#
#
#
# Elastic Compliance Matrix: (Units=1/GPa)
#
#
# Indices 1 2 3 4 5 6 
#
# 1 0.010117 -0.002215 -0.001855 0.000000 0.004476 0.000000
# 2 -0.002215 0.011507 -0.002605 0.000000 0.003576 0.000000
# 3 -0.001855 -0.002605 0.013176 0.000000 0.003377 0.000000
# 4 0.000000 0.000000 0.000000 0.027445 0.000000 0.002640
# 5 0.004476 0.003576 0.003377 0.000000 0.034578 0.000000
# 6 0.000000 0.000000 0.000000 0.002640 0.000000 0.030844
#
#
# Mechanical properties :
#
#
# Convention : Reuss Voigt Hill
#
# Bulk Modulus (GPa) = 46.62237 57.72518 52.17377
# Shear Modulus (GPa) = 33.74560 35.69159 34.71859
#
# Velocity S-wave (km/s) = 3.96935 4.08220 4.02617
# Velocity P-wave (km/s) = 6.54031 7.01220 6.78036
#
# Compressibility (1/GPa) = 0.02144893
#
# Stress axis : x y z
#
# Youngs Moduli (GPa) = 98.84262 86.90373 75.89603
#
# Poissons Ratio (x) = 0.19253 0.14078
# Poissons Ratio (y) = 0.21898 0.19773
# Poissons Ratio (z) = 0.18334 0.22641
#
# Static dielectric constant tensor:
#      x y z
#    x 1.895670 0.000000 -0.066450 
#    y 0.000000 1.909780 0.000000 
#    z -0.066450 0.000000 1.654820 
# 
# From -- ./inp_files/142317.got.cif
#   From: 2010.05.17/outbox.cif.g08.bks.cpg/sg15_72_cif.got.tgz:142317.got - 2010.06.03 18:47:42.
