data_PCOD9278255
_publ_section_title
;
Structure prediction by ZEFSAII (Michael W. Deem and Ramdas Pophale) SiO2 
 PCOD9278255
Probable space group: C 2/C
;
_chemical_formula_sum "Si O2"
_cell_formula_units_Z 52
_cell_length_a 19.856038
_cell_length_b 8.729932
_cell_length_c 27.615678
_cell_angle_alpha 90.000000
_cell_angle_beta 151.005082
_cell_angle_gamma 90.000000
_cell_volume 2320.389516
_symmetry_space_group_name_H-M "C 2/C"
_symmetry_group_IT_number 15
_symmetry_cell_setting 'monoclinic'
loop_
_space_group_symop_operation_xyz
x,y,z
-x,y,1/2-z
-x,-y,-z
x,-y,1/2+z
1/2+x,1/2+y,z
1/2-x,1/2+y,1/2-z
1/2-x,1/2-y,-z
1/2+x,1/2-y,1/2+z
loop_
_atom_site_type_symbol
_atom_site_label
_atom_site_fract_x
_atom_site_fract_y
_atom_site_fract_z
Si Si1 0.792470 0.615244 0.271521
Si Si2 0.283384 0.077734 0.038740
Si Si3 0.490807 0.550035 0.118405
Si Si4 0.000000 0.365384 0.750000
Si Si5 0.154887 0.845463 0.282701
Si Si6 0.629876 0.888935 0.575213
Si Si7 0.450542 0.876962 0.078319
O O1 0.635729 0.549656 0.179322
O O2 0.793341 0.738396 0.228998
O O3 0.835465 0.687735 0.351224
O O4 0.911967 0.485410 0.338408
O O5 0.427417 0.056356 0.159155
O O6 0.320635 0.974035 0.015703
O O7 0.250000 0.250000 0.000000
O O8 0.158536 0.009805 0.992759
O O9 0.516199 0.427788 0.176972
O O10 0.477978 0.725631 0.126739
O O11 0.123786 0.261855 0.807552
O O12 0.249208 0.987660 0.355394
O O13 0.591404 0.807249 0.501040
O O14 0.500000 0.000000 0.500000
#
# Coordination Sequence:
#
# PCOD9278255 Si02
#       7
#     8   8   8   4   8   8   8
#     4  10  20  42  68  96 134 178 222 274 333 408
#     4  12  24  45  69  95 135 182 230 279 334 408
#     4  11  23  41  67  98 134 175 214 279 346 389
#     4  12  24  44  70  98 130 184 238 274 332 414
#     4  11  22  42  69  95 134 181 228 273 339 408
#     4   9  20  36  64  97 129 177 217 269 336 393
#     4  11  22  43  67  97 140 171 226 283 339 404
#
# _framework density 22.410032000000001
#
# number of rings (size 3 to 8) (size 9 to 14) (size 15 to 20)
#    0.000    1.231    3.077    4.154    0.000    1.231 
#    5.538    1.538    0.000    0.000    0.000    0.000 
#    0.000    0.000    0.000    0.000    0.000    0.000 
#
# Total GULP energy -144831.258998 kJ/mol
# GULP energy per Si atom -5570.433038 kJ/mol
# Density = 2.235903 g / cm^3
# Si number density = 22.410032 Si / 1000 Ang^3
#
#
#
# Elastic Constant Matrix: (Units=GPa)
#
#
# Indices 1 2 3 4 5 6 
#
# 1 78.5693 23.4880 10.8766 0.0000 2.2404 0.0000
# 2 23.4880 86.3204 8.2695 0.0000 15.6379 0.0000
# 3 10.8766 8.2695 69.8399 -0.0001 19.0000 0.0000
# 4 0.0000 0.0000 -0.0001 26.6571 0.0000 10.9214
# 5 2.2404 15.6379 19.0000 0.0000 37.1286 0.0000
# 6 0.0000 0.0000 0.0000 10.9214 0.0000 19.7052
#
#
#
# Elastic Compliance Matrix: (Units=1/GPa)
#
#
# Indices 1 2 3 4 5 6 
#
# 1 0.014183 -0.004002 -0.002278 0.000000 0.001996 0.000000
# 2 -0.004002 0.013671 0.000587 0.000000 -0.005817 0.000000
# 3 -0.002278 0.000587 0.017000 0.000000 -0.008809 0.000000
# 4 0.000000 0.000000 0.000000 0.048534 0.000000 -0.026900
# 5 0.001996 -0.005817 -0.008809 0.000000 0.033771 0.000000
# 6 0.000000 0.000000 0.000000 -0.026900 0.000000 0.065657
#
#
# Mechanical properties :
#
#
# Convention : Reuss Voigt Hill
#
# Bulk Modulus (GPa) = 29.87919 35.55531 32.71725
# Shear Modulus (GPa) = 23.21711 29.50454 26.36082
#
# Velocity S-wave (km/s) = 3.22221 3.63240 3.43344
# Velocity P-wave (km/s) = 5.21588 5.78729 5.50900
#
# Compressibility (1/GPa) = 0.03346811
#
# Stress axis : x y z
#
# Youngs Moduli (GPa) = 70.50934 73.14538 58.82260
#
# Poissons Ratio (x) = 0.29276 0.13398
# Poissons Ratio (y) = 0.28221 -0.03453
# Poissons Ratio (z) = 0.16060 -0.04294
#
# Static dielectric constant tensor:
#      x y z
#    x 1.867630 0.000000 0.003780 
#    y 0.000000 1.791050 0.000000 
#    z 0.003780 0.000000 1.872120 
# 
# From -- ./inp_files/317399.got.cif
#   From: 2010.05.17/outbox.cif.g08.bks.cpg/sg15_159_cif.got.tgz:317399.got - 2010.06.03 18:47:42.
