data_PCOD9278651
_publ_section_title
;
Structure prediction by ZEFSAII (Michael W. Deem and Ramdas Pophale) SiO2 
 PCOD9278651
Probable space group: C 2/C
;
_chemical_formula_sum "Si O2"
_cell_formula_units_Z 48
_cell_length_a 18.272215
_cell_length_b 7.928184
_cell_length_c 14.324869
_cell_angle_alpha 90.000000
_cell_angle_beta 77.925993
_cell_angle_gamma 90.000000
_cell_volume 2029.272432
_symmetry_space_group_name_H-M "C 2/C"
_symmetry_group_IT_number 15
_symmetry_cell_setting 'monoclinic'
loop_
_space_group_symop_operation_xyz
x,y,z
-x,y,1/2-z
-x,-y,-z
x,-y,1/2+z
1/2+x,1/2+y,z
1/2-x,1/2+y,1/2-z
1/2-x,1/2-y,-z
1/2+x,1/2-y,1/2+z
loop_
_atom_site_type_symbol
_atom_site_label
_atom_site_fract_x
_atom_site_fract_y
_atom_site_fract_z
Si Si1 0.897111 0.881571 0.069934
Si Si2 0.091433 0.692055 0.607172
Si Si3 0.667171 0.321347 0.121001
Si Si4 0.755776 0.504596 0.931387
Si Si5 0.919287 0.072082 0.231732
Si Si6 0.013017 0.358119 0.635795
O O1 0.942608 0.732398 0.107887
O O2 0.807433 0.881768 0.098870
O O3 0.918328 0.050496 0.121095
O O4 0.917640 0.854786 0.956219
O O5 0.171550 0.611781 0.563421
O O6 0.092220 0.749593 0.714719
O O7 0.029727 0.550914 0.603458
O O8 0.714821 0.155660 0.135921
O O9 0.641897 0.444088 0.210239
O O10 0.590058 0.245643 0.098135
O O11 0.715727 0.423210 0.032504
O O12 0.000000 0.017204 0.250000
O O13 0.000000 0.361131 0.750000
#
# Coordination Sequence:
#
# PCOD9278651 Si02
#       6
#     8   8   8   8   8   8
#     4  12  23  42  73 103 132 194 238 290 371 428
#     4  11  26  45  68 102 151 180 242 309 358 439
#     4  10  20  44  67  91 140 184 226 289 356 421
#     4  10  24  42  69  99 138 189 228 296 366 427
#     4  12  24  43  70  98 137 185 239 302 358 423
#     4  11  22  45  69 101 143 187 240 303 359 428
#
# _framework density 23.653797000000001
#
# number of rings (size 3 to 8) (size 9 to 14) (size 15 to 20)
#    0.000    1.000    5.000    1.500    0.000    4.000 
#    0.000    6.667    0.000    0.000    0.000    0.000 
#    0.000    0.000    0.000    0.000    0.000    0.000 
#
# Total GULP energy -134121.845583 kJ/mol
# GULP energy per Si atom -5588.410233 kJ/mol
# Density = 2.359996 g / cm^3
# Si number density = 23.653797 Si / 1000 Ang^3
#
#
#
# Elastic Constant Matrix: (Units=GPa)
#
#
# Indices 1 2 3 4 5 6 
#
# 1 119.8231 44.2869 41.9520 0.0000 -22.4794 0.0000
# 2 44.2869 106.8804 39.4489 0.0000 -12.8158 0.0000
# 3 41.9520 39.4489 77.3736 0.0000 -8.2600 0.0000
# 4 0.0000 0.0000 0.0000 44.3473 0.0000 -9.7030
# 5 -22.4794 -12.8158 -8.2600 0.0000 35.5100 0.0000
# 6 0.0000 0.0000 0.0000 -9.7030 0.0000 38.9327
#
#
#
# Elastic Compliance Matrix: (Units=1/GPa)
#
#
# Indices 1 2 3 4 5 6 
#
# 1 0.011946 -0.002601 -0.004557 0.000000 0.005564 0.000000
# 2 -0.002601 0.012382 -0.004719 0.000000 0.001725 0.000000
# 3 -0.004557 -0.004719 0.017752 0.000000 -0.000459 0.000000
# 4 0.000000 0.000000 0.000000 0.023850 0.000000 0.005944
# 5 0.005564 0.001725 -0.000459 0.000000 0.032199 0.000000
# 6 0.000000 0.000000 0.000000 0.005944 0.000000 0.027167
#
#
# Mechanical properties :
#
#
# Convention : Reuss Voigt Hill
#
# Bulk Modulus (GPa) = 54.56447 61.71696 58.14072
# Shear Modulus (GPa) = 32.22488 35.65060 33.93774
#
# Velocity S-wave (km/s) = 3.69501 3.88646 3.79194
# Velocity P-wave (km/s) = 6.42823 6.80352 6.61854
#
# Compressibility (1/GPa) = 0.01832694
#
# Stress axis : x y z
#
# Youngs Moduli (GPa) = 83.70794 80.75931 56.33095
#
# Poissons Ratio (x) = 0.21004 0.25672
# Poissons Ratio (y) = 0.21771 0.26582
# Poissons Ratio (z) = 0.38148 0.38109
#
# Static dielectric constant tensor:
#      x y z
#    x 1.882410 0.000000 0.006740 
#    y 0.000000 1.927490 0.000000 
#    z 0.006740 0.000000 1.914610 
# 
# From -- ./inp_files/166128.got.cif
#   From: 2010.05.17/outbox.cif.g08.bks.cpg/sg15_84_cif.got.tgz:166128.got - 2010.06.03 18:47:42.
