data_PCOD9278379
_publ_section_title
;
Structure prediction by ZEFSAII (Michael W. Deem and Ramdas Pophale) SiO2 
 PCOD9278379
Probable space group: C 2/C
;
_chemical_formula_sum "Si O2"
_cell_formula_units_Z 44
_cell_length_a 20.141909
_cell_length_b 4.961787
_cell_length_c 21.060905
_cell_angle_alpha 90.000000
_cell_angle_beta 114.456746
_cell_angle_gamma 90.000000
_cell_volume 1915.966666
_symmetry_space_group_name_H-M "C 2/C"
_symmetry_group_IT_number 15
_symmetry_cell_setting 'monoclinic'
loop_
_space_group_symop_operation_xyz
x,y,z
-x,y,1/2-z
-x,-y,-z
x,-y,1/2+z
1/2+x,1/2+y,z
1/2-x,1/2+y,1/2-z
1/2-x,1/2-y,-z
1/2+x,1/2-y,1/2+z
loop_
_atom_site_type_symbol
_atom_site_label
_atom_site_fract_x
_atom_site_fract_y
_atom_site_fract_z
Si Si1 0.750000 0.750000 0.500000
Si Si2 0.936657 0.906544 0.022755
Si Si3 0.442399 0.484457 0.171561
Si Si4 0.152832 0.488975 0.354899
Si Si5 0.258509 0.236891 0.293968
Si Si6 0.153714 0.399085 0.555663
O O1 0.799165 0.555734 0.564185
O O2 0.768561 0.551616 0.445280
O O3 0.962211 0.910053 0.106015
O O4 0.904510 0.625383 0.984471
O O5 0.870298 0.123252 0.990306
O O6 0.000000 0.000000 0.000000
O O7 0.500000 0.439631 0.250000
O O8 0.416765 0.793039 0.163638
O O9 0.375481 0.289617 0.161027
O O10 0.199426 0.387845 0.314116
O O11 0.273827 0.463218 0.247397
O O12 0.329476 0.161812 0.364542
#
# Coordination Sequence:
#
# PCOD9278379 Si02
#       6
#     4   8   8   8   8   8
#     4  10  20  42  72  98 128 162 236 302 332 406
#     4  12  25  44  66 100 141 189 240 286 349 425
#     4  12  25  44  66 100 140 188 239 285 348 422
#     4  11  24  42  70  99 131 179 231 293 352 414
#     4  11  24  43  66 103 140 171 224 295 371 424
#     4  11  24  42  70  99 132 182 233 293 355 417
#
# _framework density 22.964911000000001
#
# number of rings (size 3 to 8) (size 9 to 14) (size 15 to 20)
#    0.000    0.727    3.636    3.273    0.000   10.182 
#    0.000    0.000    0.000    0.000    0.000    0.000 
#    0.000    0.000    0.000    0.000    0.000    0.000 
#
# Total GULP energy -122577.430143 kJ/mol
# GULP energy per Si atom -5571.701370 kJ/mol
# Density = 2.291264 g / cm^3
# Si number density = 22.964911 Si / 1000 Ang^3
#
#
#
# Elastic Constant Matrix: (Units=GPa)
#
#
# Indices 1 2 3 4 5 6 
#
# 1 55.9375 11.2412 32.0587 0.0000 -11.5603 0.0001
# 2 11.2412 82.2975 46.9975 0.0002 2.0712 -0.0004
# 3 32.0587 46.9975 193.2602 0.0000 0.1394 0.0000
# 4 0.0000 0.0002 0.0000 28.6630 0.0000 2.3707
# 5 -11.5603 2.0712 0.1394 0.0000 34.8648 -0.0001
# 6 0.0001 -0.0004 0.0000 2.3707 -0.0001 34.5236
#
#
#
# Elastic Compliance Matrix: (Units=1/GPa)
#
#
# Indices 1 2 3 4 5 6 
#
# 1 0.021491 -0.001252 -0.003266 0.000000 0.007213 0.000000
# 2 -0.001252 0.014207 -0.003246 0.000000 -0.001246 0.000000
# 3 -0.003266 -0.003246 0.006506 0.000000 -0.000916 0.000000
# 4 0.000000 0.000000 0.000000 0.035087 0.000000 -0.002409
# 5 0.007213 -0.001246 -0.000916 0.000000 0.031152 0.000000
# 6 0.000000 0.000000 0.000000 -0.002409 0.000000 0.029131
#
#
# Mechanical properties :
#
#
# Convention : Reuss Voigt Hill
#
# Bulk Modulus (GPa) = 37.48659 56.89890 47.19275
# Shear Modulus (GPa) = 30.86508 35.69015 33.27761
#
# Velocity S-wave (km/s) = 3.67005 3.94651 3.81079
# Velocity P-wave (km/s) = 5.85815 6.75254 6.32118
#
# Compressibility (1/GPa) = 0.02667621
#
# Stress axis : x y z
#
# Youngs Moduli (GPa) = 46.53092 70.38623 153.69902
#
# Poissons Ratio (x) = 0.08813 0.50194
# Poissons Ratio (y) = 0.05826 0.49896
# Poissons Ratio (z) = 0.15196 0.22850
#
# Static dielectric constant tensor:
#      x y z
#    x 1.542070 0.000000 -0.149880 
#    y 0.000000 2.080300 0.000000 
#    z -0.149880 0.000000 1.904980 
# 
# From -- ./inp_files/250892.got.cif
#   From: 2010.05.17/outbox.cif.g08.bks.cpg/sg15_126_cif.got.tgz:250892.got - 2010.06.03 18:47:42.
