data_PCOD9278719
_publ_section_title
;
Structure prediction by ZEFSAII (Michael W. Deem and Ramdas Pophale) SiO2 
 PCOD9278719
Probable space group: C 2/C
;
_chemical_formula_sum "Si O2"
_cell_formula_units_Z 48
_cell_length_a 29.293365
_cell_length_b 8.566819
_cell_length_c 9.177978
_cell_angle_alpha 90.000000
_cell_angle_beta 69.743611
_cell_angle_gamma 90.000000
_cell_volume 2160.774349
_symmetry_space_group_name_H-M "C 2/C"
_symmetry_group_IT_number 15
_symmetry_cell_setting 'monoclinic'
loop_
_space_group_symop_operation_xyz
x,y,z
-x,y,1/2-z
-x,-y,-z
x,-y,1/2+z
1/2+x,1/2+y,z
1/2-x,1/2+y,1/2-z
1/2-x,1/2-y,-z
1/2+x,1/2-y,1/2+z
loop_
_atom_site_type_symbol
_atom_site_label
_atom_site_fract_x
_atom_site_fract_y
_atom_site_fract_z
Si Si1 0.725258 0.965850 0.798897
Si Si2 0.855931 0.227554 0.514963
Si Si3 0.000000 0.498432 0.750000
Si Si4 0.824809 0.880818 0.530324
Si Si5 0.563441 0.875491 0.926887
Si Si6 0.864899 0.350063 0.201165
Si Si7 0.750000 0.750000 0.500000
O O1 0.688493 0.071877 0.746492
O O2 0.766913 0.885517 0.650182
O O3 0.747349 0.081105 0.894852
O O4 0.692618 0.826376 0.897952
O O5 0.898084 0.236906 0.589534
O O6 0.878695 0.308850 0.348394
O O7 0.840592 0.054397 0.487599
O O8 0.037508 0.390352 0.799596
O O9 0.024156 0.606243 0.598712
O O10 0.858935 0.803159 0.610545
O O11 0.811455 0.757580 0.421618
O O12 0.597304 0.028808 0.904515
#
# Coordination Sequence:
#
# PCOD9278719 Si02
#       7
#     8   8   4   8   8   8   4
#     4   9  22  36  57  81 125 174 219 250 296 355
#     4  11  23  37  59  94 127 162 217 264 312 365
#     4  10  20  44  74  96 120 150 210 262 340 408
#     4  10  23  36  57  83 133 176 207 257 299 360
#     4  10  22  41  71 100 118 159 201 269 321 401
#     4  11  23  37  59  92 127 161 218 258 308 377
#     4   8  22  36  52  82 114 182 224 246 292 350
#
# _framework density 22.214257
#
# number of rings (size 3 to 8) (size 9 to 14) (size 15 to 20)
#    1.000    1.000    1.667    1.000    7.000    2.667 
#    0.000    0.000    0.000    6.000    0.000    0.000 
#    0.000    0.000    0.000    0.000    0.000    0.000 
#
# Total GULP energy -133734.333529 kJ/mol
# GULP energy per Si atom -5572.263897 kJ/mol
# Density = 2.216370 g / cm^3
# Si number density = 22.214257 Si / 1000 Ang^3
#
#
#
# Elastic Constant Matrix: (Units=GPa)
#
#
# Indices 1 2 3 4 5 6 
#
# 1 82.5132 -3.5123 13.2092 0.0000 24.5845 0.0000
# 2 -3.5123 74.5753 13.3268 0.0000 3.7354 0.0000
# 3 13.2092 13.3268 67.0395 0.0000 9.0711 0.0000
# 4 0.0000 0.0000 0.0000 20.4457 0.0000 9.2536
# 5 24.5845 3.7354 9.0711 0.0000 38.4805 0.0000
# 6 0.0000 0.0000 0.0000 9.2536 0.0000 28.3185
#
#
#
# Elastic Compliance Matrix: (Units=1/GPa)
#
#
# Indices 1 2 3 4 5 6 
#
# 1 0.015334 0.001563 -0.002051 0.000000 -0.009465 0.000000
# 2 0.001563 0.014082 -0.002879 0.000000 -0.001687 0.000000
# 3 -0.002051 -0.002879 0.016195 0.000000 -0.002228 0.000000
# 4 0.000000 0.000000 0.000000 0.057399 0.000000 -0.018756
# 5 -0.009465 -0.001687 -0.002228 0.000000 0.032723 0.000000
# 6 0.000000 0.000000 0.000000 -0.018756 0.000000 0.041441
#
#
# Mechanical properties :
#
#
# Convention : Reuss Voigt Hill
#
# Bulk Modulus (GPa) = 25.72315 30.01949 27.87132
# Shear Modulus (GPa) = 25.39776 30.85590 28.12683
#
# Velocity S-wave (km/s) = 3.38495 3.73099 3.56218
# Velocity P-wave (km/s) = 5.18478 5.66598 5.43071
#
# Compressibility (1/GPa) = 0.03887548
#
# Stress axis : x y z
#
# Youngs Moduli (GPa) = 65.21360 71.01335 61.74933
#
# Poissons Ratio (x) = -0.11099 0.12667
# Poissons Ratio (y) = -0.10192 0.17778
# Poissons Ratio (z) = 0.13378 0.20445
#
# Static dielectric constant tensor:
#      x y z
#    x 1.995710 0.000000 0.289930 
#    y 0.000000 2.028690 0.000000 
#    z 0.289930 0.000000 2.374890 
# 
# From -- ./inp_files/121115.got.cif
#   From: 2010.05.17/outbox.cif.g08.bks.cpg/sg15_61_cif.got.tgz:121115.got - 2010.06.03 18:47:42.
