data_PCOD9278545
_publ_section_title
;
Structure prediction by ZEFSAII (Michael W. Deem and Ramdas Pophale) SiO2 
 PCOD9278545
Probable space group: C 2/C
;
_chemical_formula_sum "Si O2"
_cell_formula_units_Z 44
_cell_length_a 12.132548
_cell_length_b 23.080664
_cell_length_c 7.468259
_cell_angle_alpha 90.000000
_cell_angle_beta 115.490422
_cell_angle_gamma 90.000000
_cell_volume 1887.741647
_symmetry_space_group_name_H-M "C 2/C"
_symmetry_group_IT_number 15
_symmetry_cell_setting 'monoclinic'
loop_
_space_group_symop_operation_xyz
x,y,z
-x,y,1/2-z
-x,-y,-z
x,-y,1/2+z
1/2+x,1/2+y,z
1/2-x,1/2+y,1/2-z
1/2-x,1/2-y,-z
1/2+x,1/2-y,1/2+z
loop_
_atom_site_type_symbol
_atom_site_label
_atom_site_fract_x
_atom_site_fract_y
_atom_site_fract_z
Si Si1 0.889074 0.180088 0.928400
Si Si2 0.902472 0.685994 0.340054
Si Si3 0.363004 0.485398 0.642292
Si Si4 0.759296 0.576993 0.762208
Si Si5 0.646829 0.637257 0.188287
Si Si6 0.500000 0.884838 0.250000
O O1 0.883504 0.246713 0.872797
O O2 0.790316 0.141817 0.753865
O O3 0.861440 0.168613 0.120674
O O4 0.026847 0.156895 0.998902
O O5 0.774146 0.657485 0.197837
O O6 0.947476 0.654140 0.552266
O O7 0.000000 0.679404 0.250000
O O8 0.500000 0.509240 0.750000
O O9 0.258705 0.533855 0.587004
O O10 0.338415 0.452682 0.439953
O O11 0.355176 0.431300 0.774727
O O12 0.889937 0.578770 0.759751
#
# Coordination Sequence:
#
# PCOD9278545 Si02
#       6
#     8   8   8   8   8   4
#     4  10  21  42  70 100 132 185 230 284 348 404
#     4  12  27  45  70 104 144 184 233 284 343 423
#     4  11  21  43  68 101 131 177 234 287 341 407
#     4  11  25  42  71 100 139 182 228 285 352 410
#     4  10  20  43  72  94 138 187 225 287 352 400
#     4  12  26  50  68 100 144 192 222 280 364 410
#
# _framework density 23.308273
#
# number of rings (size 3 to 8) (size 9 to 14) (size 15 to 20)
#    0.000    1.091    7.273    2.182    2.545    3.636 
#    1.636    0.000    0.000    0.000    0.000    0.000 
#    0.000    0.000    0.000    0.000    0.000    0.000 
#
# Total GULP energy -123160.786364 kJ/mol
# GULP energy per Si atom -5598.217562 kJ/mol
# Density = 2.325522 g / cm^3
# Si number density = 23.308273 Si / 1000 Ang^3
#
#
#
# Elastic Constant Matrix: (Units=GPa)
#
#
# Indices 1 2 3 4 5 6 
#
# 1 205.4813 70.3912 29.1990 0.0000 13.1258 0.0000
# 2 70.3912 96.5414 4.2822 0.0000 -2.1030 0.0000
# 3 29.1990 4.2822 59.3230 0.0000 -3.7023 0.0000
# 4 0.0000 0.0000 0.0000 11.4890 0.0000 1.8043
# 5 13.1258 -2.1030 -3.7023 0.0000 33.3006 0.0000
# 6 0.0000 0.0000 0.0000 1.8043 0.0000 9.6264
#
#
#
# Elastic Compliance Matrix: (Units=1/GPa)
#
#
# Indices 1 2 3 4 5 6 
#
# 1 0.007426 -0.005339 -0.003498 0.000000 -0.003653 0.000000
# 2 -0.005339 0.014241 0.001800 0.000000 0.003204 0.000000
# 3 -0.003498 0.001800 0.018671 0.000000 0.003568 0.000000
# 4 0.000000 0.000000 0.000000 0.089679 0.000000 -0.016808
# 5 -0.003653 0.003204 0.003568 0.000000 0.032068 0.000000
# 6 0.000000 0.000000 0.000000 -0.016808 0.000000 0.107031
#
#
# Mechanical properties :
#
#
# Convention : Reuss Voigt Hill
#
# Bulk Modulus (GPa) = 38.07408 63.23227 50.65318
# Shear Modulus (GPa) = 17.12651 28.04810 22.58730
#
# Velocity S-wave (km/s) = 2.71363 3.47270 3.11636
# Velocity P-wave (km/s) = 5.11750 6.57777 5.89305
#
# Compressibility (1/GPa) = 0.02626458
#
# Stress axis : x y z
#
# Youngs Moduli (GPa) = 134.66329 70.21995 53.55838
#
# Poissons Ratio (x) = 0.37490 0.18733
# Poissons Ratio (y) = 0.71895 -0.09639
# Poissons Ratio (z) = 0.47101 -0.12638
#
# Static dielectric constant tensor:
#      x y z
#    x 1.916250 0.000000 -0.091770 
#    y 0.000000 1.893380 0.000000 
#    z -0.091770 0.000000 1.946680 
# 
# From -- ./inp_files/32757.got.cif
#   From: 2010.05.17/outbox.cif.g08.bks.cpg/sg15_17_cif.got.tgz:32757.got - 2010.06.03 18:47:42.
