data_PCOD9278669
_publ_section_title
;
Structure prediction by ZEFSAII (Michael W. Deem and Ramdas Pophale) SiO2 
 PCOD9278669
Probable space group: C 2/C
;
_chemical_formula_sum "Si O2"
_cell_formula_units_Z 32
_cell_length_a 11.417025
_cell_length_b 9.733981
_cell_length_c 18.535769
_cell_angle_alpha 90.000000
_cell_angle_beta 144.545334
_cell_angle_gamma 90.000000
_cell_volume 1194.884541
_symmetry_space_group_name_H-M "C 2/C"
_symmetry_group_IT_number 15
_symmetry_cell_setting 'monoclinic'
loop_
_space_group_symop_operation_xyz
x,y,z
-x,y,1/2-z
-x,-y,-z
x,-y,1/2+z
1/2+x,1/2+y,z
1/2-x,1/2+y,1/2-z
1/2-x,1/2-y,-z
1/2+x,1/2-y,1/2+z
loop_
_atom_site_type_symbol
_atom_site_label
_atom_site_fract_x
_atom_site_fract_y
_atom_site_fract_z
Si Si1 0.073267 0.902403 0.864505
Si Si2 0.187131 0.069972 0.133228
Si Si3 0.478011 0.034440 0.883891
Si Si4 0.735587 0.157854 0.584030
O O1 0.085269 0.070299 0.861501
O O2 0.000000 0.849052 0.750000
O O3 0.915505 0.865054 0.846627
O O4 0.309536 0.883514 0.004476
O O5 0.267575 0.186708 0.120599
O O6 0.356485 0.968616 0.249049
O O7 0.000000 0.000000 0.000000
O O8 0.339868 0.082067 0.880796
O O9 0.548648 0.877161 0.937022
#
# Coordination Sequence:
#
# PCOD9278669 Si02
#       4
#     8   8   8   8
#     4  10  20  44  68  94 133 187 218 274 362 385
#     4  12  25  39  68 102 132 177 240 277 333 421
#     4   9  21  43  62  95 136 172 229 283 342 406
#     4   9  21  42  67  89 137 178 220 287 337 406
#
# _framework density 26.780830000000002
#
# number of rings (size 3 to 8) (size 9 to 14) (size 15 to 20)
#    1.500    0.500    2.500    0.000    3.500    3.000 
#    4.500    0.000    0.000    0.000    0.000    0.000 
#    0.000    0.000    0.000    0.000    0.000    0.000 
#
# Total GULP energy -89420.029646 kJ/mol
# GULP energy per Si atom -5588.751853 kJ/mol
# Density = 2.671988 g / cm^3
# Si number density = 26.780830 Si / 1000 Ang^3
#
#
#
# Elastic Constant Matrix: (Units=GPa)
#
#
# Indices 1 2 3 4 5 6 
#
# 1 129.2716 22.9922 31.7907 0.0000 -0.8134 0.0000
# 2 22.9922 82.9974 32.0215 0.0000 -6.0939 0.0000
# 3 31.7907 32.0215 230.4614 0.0001 11.1970 0.0000
# 4 0.0000 0.0000 0.0001 5.9559 0.0000 -5.2390
# 5 -0.8134 -6.0939 11.1970 0.0000 50.2057 0.0000
# 6 0.0000 0.0000 0.0000 -5.2390 0.0000 36.2730
#
#
#
# Elastic Compliance Matrix: (Units=1/GPa)
#
#
# Indices 1 2 3 4 5 6 
#
# 1 0.008300 -0.001954 -0.000878 0.000000 0.000093 0.000000
# 2 -0.001954 0.013385 -0.001686 0.000000 0.001969 0.000000
# 3 -0.000878 -0.001686 0.004757 0.000000 -0.001280 0.000000
# 4 0.000000 0.000000 0.000000 0.192335 0.000000 0.027779
# 5 0.000093 0.001969 -0.001280 0.000000 0.020444 0.000000
# 6 0.000000 0.000000 0.000000 0.027779 0.000000 0.031581
#
#
# Mechanical properties :
#
#
# Convention : Reuss Voigt Hill
#
# Bulk Modulus (GPa) = 57.45128 68.48213 62.96670
# Shear Modulus (GPa) = 17.50468 42.21533 29.86001
#
# Velocity S-wave (km/s) = 2.55939 3.97461 3.34275
# Velocity P-wave (km/s) = 5.49845 6.83302 6.20174
#
# Compressibility (1/GPa) = 0.01740605
#
# Stress axis : x y z
#
# Youngs Moduli (GPa) = 120.48749 74.71163 210.23175
#
# Poissons Ratio (x) = 0.14596 0.18457
# Poissons Ratio (y) = 0.23539 0.35444
# Poissons Ratio (z) = 0.10578 0.12596
#
# Static dielectric constant tensor:
#      x y z
#    x 2.026930 0.000000 0.003630 
#    y 0.000000 2.161370 0.000000 
#    z 0.003630 0.000000 2.199530 
# 
# From -- ./inp_files/243534.got.cif
#   From: 2010.05.17/outbox.cif.g08.bks.cpg/sg15_122_cif.got.tgz:243534.got - 2010.06.03 18:47:42.
