data_PCOD9278842
_publ_section_title
;
Structure prediction by ZEFSAII (Michael W. Deem and Ramdas Pophale) SiO2 
 PCOD9278842
Probable space group: C 2/C
;
_chemical_formula_sum "Si O2"
_cell_formula_units_Z 60
_cell_length_a 20.028660
_cell_length_b 10.949481
_cell_length_c 11.026618
_cell_angle_alpha 90.000000
_cell_angle_beta 96.291547
_cell_angle_gamma 90.000000
_cell_volume 2403.610827
_symmetry_space_group_name_H-M "C 2/C"
_symmetry_group_IT_number 15
_symmetry_cell_setting 'monoclinic'
loop_
_space_group_symop_operation_xyz
x,y,z
-x,y,1/2-z
-x,-y,-z
x,-y,1/2+z
1/2+x,1/2+y,z
1/2-x,1/2+y,1/2-z
1/2-x,1/2-y,-z
1/2+x,1/2-y,1/2+z
loop_
_atom_site_type_symbol
_atom_site_label
_atom_site_fract_x
_atom_site_fract_y
_atom_site_fract_z
Si Si1 0.512472 0.643608 0.004805
Si Si2 0.316963 0.351954 0.653238
Si Si3 0.559882 0.170989 0.194845
Si Si4 0.169773 0.294007 0.569632
Si Si5 0.287209 0.398377 0.220169
Si Si6 0.144796 0.631977 0.686269
Si Si7 0.144442 0.747182 0.444515
Si Si8 0.000000 0.701736 0.750000
O O1 0.496346 0.711078 0.129439
O O2 0.500000 0.500000 0.000000
O O3 0.473718 0.716843 0.888086
O O4 0.591492 0.660437 0.994728
O O5 0.241593 0.358662 0.582005
O O6 0.352062 0.272481 0.556708
O O7 0.333944 0.486847 0.697309
O O8 0.325435 0.266575 0.770689
O O9 0.500000 0.103019 0.250000
O O10 0.611259 0.117887 0.107042
O O11 0.607454 0.203091 0.315701
O O12 0.183946 0.181373 0.664412
O O13 0.211632 0.442232 0.240638
O O14 0.291643 0.316652 0.098645
O O15 0.144910 0.638180 0.540973
O O16 0.070735 0.629050 0.733159
#
# Coordination Sequence:
#
# PCOD9278842 Si02
#       8
#     8   8   8   8   8   8   8   4
#     4  10  21  30  50  80 112 148 184 221 278 351
#     4  10  21  35  58  82 109 149 187 237 284 333
#     4   9  18  34  51  72 109 149 170 219 274 331
#     4   9  20  37  53  82 110 142 191 230 280 337
#     4  10  21  35  58  79 111 148 186 235 280 337
#     4  10  21  38  54  84 114 146 192 233 284 339
#     4   9  20  32  51  79 109 142 181 231 276 330
#     4  10  22  34  54  80 114 154 178 236 290 326
#
# _framework density 24.962444000000001
#
# number of rings (size 3 to 8) (size 9 to 14) (size 15 to 20)
#    0.000    2.400    0.000    1.200    8.400    2.133 
#    0.000    0.000    1.467    0.000    0.000    5.600 
#    0.000    0.000    0.000    0.000    0.000    0.000 
#
# Total GULP energy -167072.177437 kJ/mol
# GULP energy per Si atom -5569.072581 kJ/mol
# Density = 2.490563 g / cm^3
# Si number density = 24.962444 Si / 1000 Ang^3
#
#
#
# Elastic Constant Matrix: (Units=GPa)
#
#
# Indices 1 2 3 4 5 6 
#
# 1 151.1983 0.0907 20.0796 0.0000 -36.2746 0.0000
# 2 0.0907 53.1864 27.2568 0.0000 -2.2952 0.0000
# 3 20.0796 27.2568 141.0452 0.0000 -10.9717 0.0000
# 4 0.0000 0.0000 0.0000 14.7882 0.0000 -4.2003
# 5 -36.2746 -2.2952 -10.9717 0.0000 45.4014 0.0000
# 6 0.0000 0.0000 0.0000 -4.2003 0.0000 10.7433
#
#
#
# Elastic Compliance Matrix: (Units=1/GPa)
#
#
# Indices 1 2 3 4 5 6 
#
# 1 0.008267 0.000677 -0.000806 0.000000 0.006444 0.000000
# 2 0.000677 0.020924 -0.004093 0.000000 0.000610 0.000000
# 3 -0.000806 -0.004093 0.008081 0.000000 0.001102 0.000000
# 4 0.000000 0.000000 0.000000 0.076069 0.000000 0.029741
# 5 0.006444 0.000610 0.001102 0.000000 0.027472 0.000000
# 6 0.000000 0.000000 0.000000 0.029741 0.000000 0.104709
#
#
# Mechanical properties :
#
#
# Convention : Reuss Voigt Hill
#
# Bulk Modulus (GPa) = 34.68766 48.92045 41.80406
# Shear Modulus (GPa) = 18.96997 34.05344 26.51171
#
# Velocity S-wave (km/s) = 2.75969 3.69750 3.26247
# Velocity P-wave (km/s) = 4.90720 6.15376 5.56549
#
# Compressibility (1/GPa) = 0.02882869
#
# Stress axis : x y z
#
# Youngs Moduli (GPa) = 120.96923 47.79132 123.74216
#
# Poissons Ratio (x) = -0.03237 0.09979
# Poissons Ratio (y) = -0.08193 0.50642
# Poissons Ratio (z) = 0.09756 0.19559
#
# Static dielectric constant tensor:
#      x y z
#    x 2.178880 0.000000 -0.063140 
#    y 0.000000 1.988870 0.000000 
#    z -0.063140 0.000000 1.988580 
# 
# From -- ./inp_files/111641.got.cif
#   From: 2010.05.17/outbox.cif.g08.bks.cpg/sg15_56_cif.got.tgz:111641.got - 2010.06.03 18:47:42.
