data_PCOD9278683
_publ_section_title
;
Structure prediction by ZEFSAII (Michael W. Deem and Ramdas Pophale) SiO2 
 PCOD9278683
Probable space group: C 2/C
;
_chemical_formula_sum "Si O2"
_cell_formula_units_Z 44
_cell_length_a 11.831684
_cell_length_b 20.083007
_cell_length_c 8.130496
_cell_angle_alpha 90.000000
_cell_angle_beta 80.772505
_cell_angle_gamma 90.000000
_cell_volume 1906.933917
_symmetry_space_group_name_H-M "C 2/C"
_symmetry_group_IT_number 15
_symmetry_cell_setting 'monoclinic'
loop_
_space_group_symop_operation_xyz
x,y,z
-x,y,1/2-z
-x,-y,-z
x,-y,1/2+z
1/2+x,1/2+y,z
1/2-x,1/2+y,1/2-z
1/2-x,1/2-y,-z
1/2+x,1/2-y,1/2+z
loop_
_atom_site_type_symbol
_atom_site_label
_atom_site_fract_x
_atom_site_fract_y
_atom_site_fract_z
Si Si1 0.000000 0.032354 0.750000
Si Si2 0.229837 0.768761 0.314461
Si Si3 0.263553 0.512283 0.990735
Si Si4 0.137508 0.406736 0.236136
Si Si5 0.179489 0.863197 0.804615
Si Si6 0.056692 0.856990 0.477627
O O1 0.109149 0.003303 0.622961
O O2 0.935913 0.077467 0.632968
O O3 0.250000 0.750000 0.500000
O O4 0.315088 0.830839 0.258345
O O5 0.239924 0.701248 0.210062
O O6 0.105439 0.800030 0.351019
O O7 0.182400 0.551375 0.881530
O O8 0.198079 0.446216 0.069575
O O9 0.276602 0.566022 0.138420
O O10 0.000000 0.406888 0.250000
O O11 0.124353 0.862661 0.634400
O O12 0.073925 0.847000 0.947422
#
# Coordination Sequence:
#
# PCOD9278683 Si02
#       6
#     4   8   8   8   8   8
#     4  10  20  44  70 106 132 178 226 300 352 406
#     4  10  22  41  70 101 137 184 231 289 350 419
#     4  11  26  47  72 104 144 184 239 295 350 428
#     4  12  28  48  71 102 145 193 238 285 353 424
#     4   9  21  41  71 100 138 183 229 290 357 408
#     4   9  18  39  65 103 138 169 231 286 353 415
#
# _framework density 23.073689999999999
#
# number of rings (size 3 to 8) (size 9 to 14) (size 15 to 20)
#    0.000    1.818    1.818    0.545   10.182    1.455 
#    0.000    0.000    0.000    0.000    0.000    0.000 
#    0.000    0.000    0.000    0.000    0.000    0.000 
#
# Total GULP energy -122823.849605 kJ/mol
# GULP energy per Si atom -5582.902255 kJ/mol
# Density = 2.302117 g / cm^3
# Si number density = 23.073690 Si / 1000 Ang^3
#
#
#
# Elastic Constant Matrix: (Units=GPa)
#
#
# Indices 1 2 3 4 5 6 
#
# 1 63.0895 23.2222 8.3820 0.0000 -17.2580 0.0000
# 2 23.2222 136.6570 33.5732 0.0000 -28.6830 0.0000
# 3 8.3820 33.5732 81.9013 0.0000 -9.1046 0.0000
# 4 0.0000 0.0000 0.0000 -76.1107 0.0000 -33.4289
# 5 -17.2580 -28.6830 -9.1046 0.0000 43.5999 0.0000
# 6 0.0000 0.0000 0.0000 -33.4289 0.0000 14.9075
#
#
#
# Elastic Compliance Matrix: (Units=1/GPa)
#
#
# Indices 1 2 3 4 5 6 
#
# 1 0.018179 -0.001716 -0.000494 0.000000 0.005964 0.000000
# 2 -0.001716 0.009398 -0.003138 0.000000 0.004848 0.000000
# 3 -0.000494 -0.003138 0.013611 0.000000 0.000583 0.000000
# 4 0.000000 0.000000 0.000000 -0.006619 0.000000 -0.014843
# 5 0.005964 0.004848 0.000583 0.000000 0.028607 0.000000
# 6 0.000000 0.000000 0.000000 -0.014843 0.000000 0.033795
#
#
# Mechanical properties :
#
#
# Convention : Reuss Voigt Hill
#
# Bulk Modulus (GPa) = 32.79522 45.77806 39.28664
# Shear Modulus (GPa) = 42.43355 10.91070 26.67213
#
# Velocity S-wave (km/s) = 4.29306 2.17690 3.40362
# Velocity P-wave (km/s) = 6.23040 5.11874 5.70173
#
# Compressibility (1/GPa) = 0.03049225
#
# Stress axis : x y z
#
# Youngs Moduli (GPa) = 55.00814 106.41020 73.46792
#
# Poissons Ratio (x) = 0.18261 0.03630
# Poissons Ratio (y) = 0.09440 0.23052
# Poissons Ratio (z) = 0.02718 0.33389
#
# Static dielectric constant tensor:
#      x y z
#    x 1.928050 0.000000 0.024290 
#    y 0.000000 1.974240 0.000000 
#    z 0.024290 0.000000 1.951830 
# 
# From -- ./inp_files/30856.got.cif
#   From: 2010.05.17/outbox.cif.g08.bks.cpg/sg15_16_cif.got.tgz:30856.got - 2010.06.03 18:47:42.
