data_PCOD9278570
_publ_section_title
;
Structure prediction by ZEFSAII (Michael W. Deem and Ramdas Pophale) SiO2 
 PCOD9278570
Probable space group: C 2/C
;
_chemical_formula_sum "Si O2"
_cell_formula_units_Z 52
_cell_length_a 10.963477
_cell_length_b 10.371398
_cell_length_c 18.155787
_cell_angle_alpha 90.000000
_cell_angle_beta 79.040929
_cell_angle_gamma 90.000000
_cell_volume 2026.783942
_symmetry_space_group_name_H-M "C 2/C"
_symmetry_group_IT_number 15
_symmetry_cell_setting 'monoclinic'
loop_
_space_group_symop_operation_xyz
x,y,z
-x,y,1/2-z
-x,-y,-z
x,-y,1/2+z
1/2+x,1/2+y,z
1/2-x,1/2+y,1/2-z
1/2-x,1/2-y,-z
1/2+x,1/2-y,1/2+z
loop_
_atom_site_type_symbol
_atom_site_label
_atom_site_fract_x
_atom_site_fract_y
_atom_site_fract_z
Si Si1 0.633837 0.033277 0.448709
Si Si2 0.588019 0.685422 0.362504
Si Si3 0.404636 0.955038 0.211461
Si Si4 0.674769 0.677092 0.594994
Si Si5 0.667813 0.419095 0.331891
Si Si6 0.435007 0.694107 0.521870
Si Si7 0.500000 0.329273 0.250000
O O1 0.649318 0.179384 0.469735
O O2 0.500000 0.000000 0.500000
O O3 0.627055 0.022496 0.360951
O O4 0.742440 0.932522 0.453866
O O5 0.552278 0.813608 0.321955
O O6 0.721769 0.721736 0.386001
O O7 0.606141 0.555049 0.314932
O O8 0.483731 0.660232 0.435991
O O9 0.500000 0.036090 0.250000
O O10 0.302153 0.926284 0.284021
O O11 0.564603 0.720820 0.552987
O O12 0.603672 0.624739 0.676011
O O13 0.640509 0.408251 0.421059
O O14 0.602535 0.297491 0.300041
#
# Coordination Sequence:
#
# PCOD9278570 Si02
#       7
#     8   8   8   8   8   8   4
#     4  11  22  43  70 101 139 178 238 296 354 430
#     4  11  23  45  64  99 139 170 231 287 348 432
#     4  11  26  44  65 103 136 181 231 295 354 425
#     4  10  22  40  71  99 132 179 233 289 353 410
#     4  11  25  41  68  97 135 179 228 279 361 423
#     4  11  24  44  72  97 136 186 233 294 361 427
#     4  10  20  44  60  98 130 176 218 280 346 408
#
# _framework density 25.656410999999999
#
# number of rings (size 3 to 8) (size 9 to 14) (size 15 to 20)
#    0.000    1.231    6.154    0.923    5.385    0.000 
#    4.154    0.769    0.000    0.000    0.000    0.000 
#    0.000    0.000    0.000    0.000    0.000    0.000 
#
# Total GULP energy -144952.978103 kJ/mol
# GULP energy per Si atom -5575.114542 kJ/mol
# Density = 2.559802 g / cm^3
# Si number density = 25.656411 Si / 1000 Ang^3
#
#
#
# Elastic Constant Matrix: (Units=GPa)
#
#
# Indices 1 2 3 4 5 6 
#
# 1 57.9504 -8.5531 41.4453 0.0000 -12.5952 0.0000
# 2 -8.5531 83.3923 25.8325 0.0000 -6.2310 0.0000
# 3 41.4453 25.8325 169.4355 0.0000 -41.0228 0.0000
# 4 0.0000 0.0000 0.0000 35.2270 0.0000 0.4676
# 5 -12.5952 -6.2310 -41.0228 0.0000 50.1176 0.0000
# 6 0.0000 0.0000 0.0000 0.4676 0.0000 18.0456
#
#
#
# Elastic Compliance Matrix: (Units=1/GPa)
#
#
# Indices 1 2 3 4 5 6 
#
# 1 0.022288 0.004171 -0.005745 0.000000 0.001418 0.000000
# 2 0.004171 0.013367 -0.002996 0.000000 0.000258 0.000000
# 3 -0.005745 -0.002996 0.009134 0.000000 0.005661 0.000000
# 4 0.000000 0.000000 0.000000 0.028397 0.000000 -0.000736
# 5 0.001418 0.000258 0.005661 0.000000 0.024975 0.000000
# 6 0.000000 0.000000 0.000000 -0.000736 0.000000 0.055434
#
#
# Mechanical properties :
#
#
# Convention : Reuss Voigt Hill
#
# Bulk Modulus (GPa) = 28.04925 47.58084 37.81505
# Shear Modulus (GPa) = 28.63397 37.48159 33.05778
#
# Velocity S-wave (km/s) = 3.34437 3.82633 3.59344
# Velocity P-wave (km/s) = 5.08620 6.17306 5.65580
#
# Compressibility (1/GPa) = 0.03565157
#
# Stress axis : x y z
#
# Youngs Moduli (GPa) = 44.86619 74.81299 109.47611
#
# Poissons Ratio (x) = -0.31208 0.62890
# Poissons Ratio (y) = -0.18716 0.32797
# Poissons Ratio (z) = 0.25774 0.22413
#
# Static dielectric constant tensor:
#      x y z
#    x 2.130960 0.000000 -0.001650 
#    y 0.000000 2.191770 0.000000 
#    z -0.001650 0.000000 1.980520 
# 
# From -- ./inp_files/237493.got.cif
#   From: 2010.05.17/outbox.cif.g08.bks.cpg/sg15_119_cif.got.tgz:237493.got - 2010.06.03 18:47:42.
