data_PCOD9278598
_publ_section_title
;
Structure prediction by ZEFSAII (Michael W. Deem and Ramdas Pophale) SiO2 
 PCOD9278598
Probable space group: C 2/C
;
_chemical_formula_sum "Si O2"
_cell_formula_units_Z 52
_cell_length_a 19.418281
_cell_length_b 6.359201
_cell_length_c 23.028699
_cell_angle_alpha 90.000000
_cell_angle_beta 45.778225
_cell_angle_gamma 90.000000
_cell_volume 2037.920212
_symmetry_space_group_name_H-M "C 2/C"
_symmetry_group_IT_number 15
_symmetry_cell_setting 'monoclinic'
loop_
_space_group_symop_operation_xyz
x,y,z
-x,y,1/2-z
-x,-y,-z
x,-y,1/2+z
1/2+x,1/2+y,z
1/2-x,1/2+y,1/2-z
1/2-x,1/2-y,-z
1/2+x,1/2-y,1/2+z
loop_
_atom_site_type_symbol
_atom_site_label
_atom_site_fract_x
_atom_site_fract_y
_atom_site_fract_z
Si Si1 0.500000 0.869907 0.250000
Si Si2 0.815072 0.783515 0.884328
Si Si3 0.150448 0.003253 0.011879
Si Si4 0.313648 0.007698 0.626230
Si Si5 0.472837 0.266554 0.574176
Si Si6 0.855210 0.140931 0.692661
Si Si7 0.039022 0.383566 0.615748
O O1 0.592681 0.732562 0.212193
O O2 0.453326 0.012176 0.326403
O O3 0.849994 0.865255 0.926781
O O4 0.739637 0.945981 0.901132
O O5 0.752588 0.569249 0.925639
O O6 0.066720 0.083835 0.016738
O O7 0.124813 0.767226 0.045385
O O8 0.337852 0.793955 0.647748
O O9 0.409670 0.147287 0.562754
O O10 0.237458 0.123356 0.712695
O O11 0.394171 0.415304 0.650376
O O12 0.512063 0.075516 0.589789
O O13 0.944081 0.241276 0.674327
#
# Coordination Sequence:
#
# PCOD9278598 Si02
#       7
#     4   8   8   8   8   8   8
#     4  12  24  40  70 102 128 170 230 286 336 408
#     4  11  26  43  68 102 139 172 232 282 337 411
#     4  10  24  49  65  94 141 184 217 284 344 409
#     4  11  22  37  66 100 132 181 223 284 340 403
#     4  10  20  44  64  91 133 180 223 274 342 402
#     4  10  21  37  63  96 137 167 220 287 345 391
#     4  10  23  40  68  93 129 179 221 278 341 397
#
# _framework density 25.516207999999999
#
# number of rings (size 3 to 8) (size 9 to 14) (size 15 to 20)
#    0.000    1.538    3.077    0.923    6.462    1.231 
#    0.000    6.923    0.000    0.000    0.000    0.000 
#    0.000    0.000    0.000    0.000    0.000    0.000 
#
# Total GULP energy -145484.124341 kJ/mol
# GULP energy per Si atom -5595.543244 kJ/mol
# Density = 2.545813 g / cm^3
# Si number density = 25.516208 Si / 1000 Ang^3
#
#
#
# Elastic Constant Matrix: (Units=GPa)
#
#
# Indices 1 2 3 4 5 6 
#
# 1 134.2891 31.7765 42.1468 -0.0013 -23.0791 0.0054
# 2 31.7765 109.0212 37.7118 0.0037 -18.5647 -0.0104
# 3 42.1468 37.7118 96.9924 -0.0001 -27.7732 0.0001
# 4 -0.0013 0.0037 -0.0001 35.5982 -0.0001 -8.6692
# 5 -23.0791 -18.5647 -27.7732 -0.0001 39.7757 0.0005
# 6 0.0054 -0.0104 0.0001 -8.6692 0.0005 43.8617
#
#
#
# Elastic Compliance Matrix: (Units=1/GPa)
#
#
# Indices 1 2 3 4 5 6 
#
# 1 0.009056 -0.001244 -0.002641 0.000000 0.002830 -0.000001
# 2 -0.001244 0.010986 -0.003086 -0.000001 0.002251 0.000003
# 3 -0.002641 -0.003086 0.014757 0.000000 0.007331 -0.000001
# 4 0.000000 -0.000001 0.000000 0.029512 0.000000 0.005833
# 5 0.002830 0.002251 0.007331 0.000000 0.032952 0.000000
# 6 -0.000001 0.000003 -0.000001 0.005833 0.000000 0.023952
#
#
# Mechanical properties :
#
#
# Convention : Reuss Voigt Hill
#
# Bulk Modulus (GPa) = 47.94852 62.61922 55.28387
# Shear Modulus (GPa) = 35.18384 39.09164 37.13774
#
# Velocity S-wave (km/s) = 3.71736 3.91836 3.81918
# Velocity P-wave (km/s) = 6.10387 6.71310 6.41572
#
# Compressibility (1/GPa) = 0.02085570
#
# Stress axis : x y z
#
# Youngs Moduli (GPa) = 110.42012 91.02469 67.76427
#
# Poissons Ratio (x) = 0.11325 0.17898
# Poissons Ratio (y) = 0.13738 0.20915
# Poissons Ratio (z) = 0.29165 0.28094
#
# Static dielectric constant tensor:
#      x y z
#    x 2.045090 -0.000010 0.000830 
#    y -0.000010 2.042990 0.000000 
#    z 0.000830 0.000000 1.954340 
# 
# From -- ./inp_files/300077.got.cif
#   From: 2010.05.17/outbox.cif.g08.bks.cpg/sg15_151_cif.got.tgz:300077.got - 2010.06.03 18:47:42.
