data_PCOD9278507
_publ_section_title
;
Structure prediction by ZEFSAII (Michael W. Deem and Ramdas Pophale) SiO2 
 PCOD9278507
Probable space group: C 2/C
;
_chemical_formula_sum "Si O2"
_cell_formula_units_Z 52
_cell_length_a 13.153365
_cell_length_b 6.748571
_cell_length_c 21.285864
_cell_angle_alpha 90.000000
_cell_angle_beta 114.612717
_cell_angle_gamma 90.000000
_cell_volume 1717.799633
_symmetry_space_group_name_H-M "C 2/C"
_symmetry_group_IT_number 15
_symmetry_cell_setting 'monoclinic'
loop_
_space_group_symop_operation_xyz
x,y,z
-x,y,1/2-z
-x,-y,-z
x,-y,1/2+z
1/2+x,1/2+y,z
1/2-x,1/2+y,1/2-z
1/2-x,1/2-y,-z
1/2+x,1/2-y,1/2+z
loop_
_atom_site_type_symbol
_atom_site_label
_atom_site_fract_x
_atom_site_fract_y
_atom_site_fract_z
Si Si1 0.538699 0.252058 0.390438
Si Si2 0.684881 0.744795 0.596109
Si Si3 0.852280 0.764169 0.199491
Si Si4 0.750000 0.750000 0.500000
Si Si5 0.505800 0.215499 0.889883
Si Si6 0.666915 0.186056 0.544774
Si Si7 0.172507 0.327921 0.254956
O O1 0.425849 0.318703 0.396895
O O2 0.546193 0.329480 0.320727
O O3 0.636392 0.259846 0.467711
O O4 0.519638 0.017172 0.379974
O O5 0.720005 0.596927 0.551299
O O6 0.778433 0.781834 0.671681
O O7 0.673879 0.935028 0.543911
O O8 0.762657 0.764512 0.119056
O O9 0.866381 0.539657 0.228114
O O10 0.780065 0.859199 0.237278
O O11 0.626343 0.693731 0.430897
O O12 0.442070 0.225125 0.939940
O O13 0.423319 0.273163 0.811465
#
# Coordination Sequence:
#
# PCOD9278507 Si02
#       7
#     8   8   8   4   8   8   8
#     4  11  20  42  71 105 130 196 226 286 336 445
#     4  11  23  40  73 103 143 176 244 276 354 402
#     4  11  24  42  72  98 144 179 238 277 362 405
#     4  12  20  38  68 106 132 184 222 302 324 408
#     4  10  21  39  70  96 142 179 246 273 346 406
#     4  10  20  43  69 107 135 183 233 297 331 423
#     4  11  25  44  65 107 137 192 224 298 340 440
#
# _framework density 30.271281999999999
#
# number of rings (size 3 to 8) (size 9 to 14) (size 15 to 20)
#    0.000    1.231    3.077    5.077    0.000    4.308 
#    0.000    3.846    0.000   22.154    0.000    0.000 
#    0.000    0.000    0.000    0.000    0.000    0.000 
#
# Total GULP energy -145266.271141 kJ/mol
# GULP energy per Si atom -5587.164275 kJ/mol
# Density = 3.020238 g / cm^3
# Si number density = 30.271282 Si / 1000 Ang^3
#
#
#
# Elastic Constant Matrix: (Units=GPa)
#
#
# Indices 1 2 3 4 5 6 
#
# 1 149.3284 -12.1341 40.3519 0.0000 -53.9218 0.0000
# 2 -12.1341 95.5910 16.5463 0.0000 -11.4983 0.0000
# 3 40.3519 16.5463 259.4902 0.0000 -52.0438 0.0000
# 4 0.0000 0.0000 0.0000 44.2407 0.0000 4.0750
# 5 -53.9218 -11.4983 -52.0438 0.0000 65.5071 0.0000
# 6 0.0000 0.0000 0.0000 4.0750 0.0000 23.9839
#
#
#
# Elastic Compliance Matrix: (Units=1/GPa)
#
#
# Indices 1 2 3 4 5 6 
#
# 1 0.010005 0.002306 0.000036 0.000000 0.008668 0.000000
# 2 0.002306 0.011247 -0.000356 0.000000 0.003590 0.000000
# 3 0.000036 -0.000356 0.004597 0.000000 0.003619 0.000000
# 4 0.000000 0.000000 0.000000 0.022963 0.000000 -0.003902
# 5 0.008668 0.003590 0.003619 0.000000 0.025906 0.000000
# 6 0.000000 0.000000 0.000000 -0.003902 0.000000 0.042357
#
#
# Mechanical properties :
#
#
# Convention : Reuss Voigt Hill
#
# Bulk Modulus (GPa) = 33.53304 65.99310 49.76307
# Shear Modulus (GPa) = 40.63622 57.38938 49.01280
#
# Velocity S-wave (km/s) = 3.66785 4.35884 4.02819
# Velocity P-wave (km/s) = 5.38879 6.86881 6.17332
#
# Compressibility (1/GPa) = 0.02982134
#
# Stress axis : x y z
#
# Youngs Moduli (GPa) = 99.95477 88.90913 217.54963
#
# Poissons Ratio (x) = -0.20506 -0.00777
# Poissons Ratio (y) = -0.23054 0.07741
# Poissons Ratio (z) = -0.00357 0.03164
#
# Static dielectric constant tensor:
#      x y z
#    x 1.381020 0.000000 0.610000 
#    y 0.000000 1.835010 0.000000 
#    z 0.610000 0.000000 1.981940 
# 
# From -- ./inp_files/272903.got.cif
#   From: 2010.05.17/outbox.cif.g08.bks.cpg/sg15_137_cif.got.tgz:272903.got - 2010.06.03 18:47:42.
