data_PCOD9278007
_publ_section_title
;
Structure prediction by ZEFSAII (Michael W. Deem and Ramdas Pophale) SiO2 
 PCOD9278007
Probable space group: C 2/C
;
_chemical_formula_sum "Si O2"
_cell_formula_units_Z 60
_cell_length_a 25.385522
_cell_length_b 9.071536
_cell_length_c 23.156942
_cell_angle_alpha 90.000000
_cell_angle_beta 147.903909
_cell_angle_gamma 90.000000
_cell_volume 2833.487403
_symmetry_space_group_name_H-M "C 2/C"
_symmetry_group_IT_number 15
_symmetry_cell_setting 'monoclinic'
loop_
_space_group_symop_operation_xyz
x,y,z
-x,y,1/2-z
-x,-y,-z
x,-y,1/2+z
1/2+x,1/2+y,z
1/2-x,1/2+y,1/2-z
1/2-x,1/2-y,-z
1/2+x,1/2-y,1/2+z
loop_
_atom_site_type_symbol
_atom_site_label
_atom_site_fract_x
_atom_site_fract_y
_atom_site_fract_z
Si Si1 0.777939 0.924737 0.520225
Si Si2 0.709742 0.145210 0.738602
Si Si3 0.483952 0.353680 0.364446
Si Si4 0.524544 0.036780 0.089803
Si Si5 0.644851 0.892913 0.492497
Si Si6 0.500000 0.561962 0.750000
Si Si7 0.800625 0.046087 0.230607
Si Si8 0.345379 0.573830 0.965925
O O1 0.750000 0.750000 0.500000
O O2 0.687487 0.979586 0.476550
O O3 0.767043 0.968428 0.443160
O O4 0.892251 0.972136 0.644241
O O5 0.683403 0.316485 0.711974
O O6 0.806601 0.122175 0.867850
O O7 0.624632 0.054631 0.691706
O O8 0.731164 0.072846 0.697239
O O9 0.463917 0.206815 0.382265
O O10 0.489762 0.345423 0.299903
O O11 0.398580 0.468627 0.301055
O O12 0.583955 0.435828 0.475585
O O13 0.500000 0.000000 0.000000
O O14 0.438946 0.979227 0.051869
O O15 0.744058 0.887809 0.623406
O O16 0.608599 0.721361 0.460306
#
# Coordination Sequence:
#
# PCOD9278007 Si02
#       8
#     8   8   8   8   8   4   8   8
#     4   9  18  39  67  97 129 168 217 270 324 394
#     4  11  24  41  62  96 130 168 221 273 330 394
#     4  11  24  42  67  96 131 176 218 268 335 393
#     4  12  26  42  62  90 130 172 222 273 329 396
#     4  10  20  42  64  92 124 165 214 267 327 384
#     4  10  20  42  68  98 136 176 222 272 330 398
#     4  11  22  39  69  92 126 171 213 270 329 394
#     4   9  22  40  65  96 123 162 218 268 329 392
#
# _framework density 21.175318000000001
#
# number of rings (size 3 to 8) (size 9 to 14) (size 15 to 20)
#    0.000    1.600    2.667    1.600    3.733    1.600 
#    2.400    1.333    0.000    0.000    0.000    0.000 
#    0.000    0.000    0.000    0.000    0.000    0.000 
#
# Total GULP energy -167081.364351 kJ/mol
# GULP energy per Si atom -5569.378812 kJ/mol
# Density = 2.112712 g / cm^3
# Si number density = 21.175318 Si / 1000 Ang^3
#
#
#
# Elastic Constant Matrix: (Units=GPa)
#
#
# Indices 1 2 3 4 5 6 
#
# 1 102.2277 13.4947 -5.3371 0.0000 9.4278 0.0000
# 2 13.4947 81.8853 -4.6329 0.0000 -6.4709 0.0000
# 3 -5.3371 -4.6329 11.2239 0.0000 -11.1149 0.0000
# 4 0.0000 0.0000 0.0000 20.0482 0.0000 0.5447
# 5 9.4278 -6.4709 -11.1149 0.0000 26.8985 0.0000
# 6 0.0000 0.0000 0.0000 0.5447 0.0000 30.3564
#
#
#
# Elastic Compliance Matrix: (Units=1/GPa)
#
#
# Indices 1 2 3 4 5 6 
#
# 1 0.010435 -0.002046 0.000013 0.000000 -0.004144 0.000000
# 2 -0.002046 0.014237 0.015243 0.000000 0.010441 0.000000
# 3 0.000013 0.015243 0.167606 0.000000 0.072920 0.000000
# 4 0.000000 0.000000 0.000000 0.049904 0.000000 -0.000895
# 5 -0.004144 0.010441 0.072920 0.000000 0.071273 0.000000
# 6 0.000000 0.000000 0.000000 -0.000895 0.000000 0.032958
#
#
# Mechanical properties :
#
#
# Convention : Reuss Voigt Hill
#
# Bulk Modulus (GPa) = 4.57252 22.48737 13.52995
# Shear Modulus (GPa) = 12.72610 28.24809 20.48710
#
# Velocity S-wave (km/s) = 2.45416 3.65637 3.11384
# Velocity P-wave (km/s) = 3.19290 5.33555 4.39674
#
# Compressibility (1/GPa) = 0.21869784
#
# Stress axis : x y z
#
# Youngs Moduli (GPa) = 95.83021 70.23978 5.96637
#
# Poissons Ratio (x) = 0.14374 -0.00008
# Poissons Ratio (y) = 0.19611 -0.09095
# Poissons Ratio (z) = -0.00127 -1.07066
#
# Static dielectric constant tensor:
#      x y z
#    x 1.875150 0.000000 -0.025200 
#    y 0.000000 1.771050 0.000000 
#    z -0.025200 0.000000 1.837330 
# 
# From -- ./inp_files/281646.got.cif
#   From: 2010.05.17/outbox.cif.g08.bks.cpg/sg15_141_cif.got.tgz:281646.got - 2010.06.03 18:47:42.
