data_PCOD9278105
_publ_section_title
;
Structure prediction by ZEFSAII (Michael W. Deem and Ramdas Pophale) SiO2 
 PCOD9278105
Probable space group: C 2/C
;
_chemical_formula_sum "Si O2"
_cell_formula_units_Z 36
_cell_length_a 31.442681
_cell_length_b 8.789265
_cell_length_c 17.270895
_cell_angle_alpha 90.000000
_cell_angle_beta 19.247988
_cell_angle_gamma 90.000000
_cell_volume 1573.439045
_symmetry_space_group_name_H-M "C 2/C"
_symmetry_group_IT_number 15
_symmetry_cell_setting 'monoclinic'
loop_
_space_group_symop_operation_xyz
x,y,z
-x,y,1/2-z
-x,-y,-z
x,-y,1/2+z
1/2+x,1/2+y,z
1/2-x,1/2+y,1/2-z
1/2-x,1/2-y,-z
1/2+x,1/2-y,1/2+z
loop_
_atom_site_type_symbol
_atom_site_label
_atom_site_fract_x
_atom_site_fract_y
_atom_site_fract_z
Si Si1 0.356259 0.497768 0.214579
Si Si2 0.370150 0.407957 0.513551
Si Si3 0.142201 0.343448 0.794424
Si Si4 0.114305 0.568439 0.697773
Si Si5 0.000000 0.609539 0.250000
O O1 0.354618 0.532596 0.126432
O O2 0.309203 0.324699 0.309144
O O3 0.260059 0.612103 0.424541
O O4 0.500000 0.500000 0.000000
O O5 0.244181 0.422845 0.676859
O O6 0.402094 0.227054 0.459924
O O7 0.500000 0.474694 0.250000
O O8 0.125089 0.446181 0.748475
O O9 0.002532 0.324119 0.075063
O O10 0.064177 0.491506 0.704924
#
# Coordination Sequence:
#
# PCOD9278105 Si02
#       5
#     8   8   8   8   4
#     4  12  23  42  65  96 133 172 220 281 331 395
#     4  10  22  40  63  93 125 170 216 266 335 395
#     4  11  24  41  66  96 127 176 223 272 332 408
#     4  11  23  42  66  93 130 171 226 268 340 393
#     4  10  20  42  66  90 122 176 210 266 334 398
#
# _framework density 22.879819999999999
#
# number of rings (size 3 to 8) (size 9 to 14) (size 15 to 20)
#    0.667    0.444    2.222    4.667    0.000    0.889 
#    6.000    0.000    0.000    0.000    0.000    0.000 
#    0.000    0.000    0.000    0.000    0.000    0.000 
#
# Total GULP energy -100581.069379 kJ/mol
# GULP energy per Si atom -5587.837188 kJ/mol
# Density = 2.282774 g / cm^3
# Si number density = 22.879820 Si / 1000 Ang^3
#
#
#
# Elastic Constant Matrix: (Units=GPa)
#
#
# Indices 1 2 3 4 5 6 
#
# 1 161.0850 16.4086 47.2114 0.0000 -16.1896 0.0000
# 2 16.4086 26.7341 -1.1013 0.0000 3.5894 0.0000
# 3 47.2114 -1.1013 172.4986 0.0000 -5.9611 0.0000
# 4 0.0000 0.0000 0.0000 32.0889 0.0000 4.5736
# 5 -16.1896 3.5894 -5.9611 0.0000 40.3081 0.0000
# 6 0.0000 0.0000 0.0000 4.5736 0.0000 31.8003
#
#
#
# Elastic Compliance Matrix: (Units=1/GPa)
#
#
# Indices 1 2 3 4 5 6 
#
# 1 0.007656 -0.005217 -0.002017 0.000000 0.003241 0.000000
# 2 -0.005217 0.041416 0.001500 0.000000 -0.005562 0.000000
# 3 -0.002017 0.001500 0.006359 0.000000 -0.000003 0.000000
# 4 0.000000 0.000000 0.000000 0.031816 0.000000 -0.004576
# 5 0.003241 -0.005562 -0.000003 0.000000 0.026606 0.000000
# 6 0.000000 0.000000 0.000000 -0.004576 0.000000 0.032104
#
#
# Mechanical properties :
#
#
# Convention : Reuss Voigt Hill
#
# Bulk Modulus (GPa) = 22.74639 53.92834 38.33737
# Shear Modulus (GPa) = 29.05647 40.69274 34.87460
#
# Velocity S-wave (km/s) = 3.56752 4.22185 3.90840
# Velocity P-wave (km/s) = 5.18969 6.88381 6.09589
#
# Compressibility (1/GPa) = 0.04396302
#
# Stress axis : x y z
#
# Youngs Moduli (GPa) = 130.61288 24.14517 157.26780
#
# Poissons Ratio (x) = 0.12598 0.31717
# Poissons Ratio (y) = 0.68146 -0.23593
# Poissons Ratio (z) = 0.26341 -0.03622
#
# Static dielectric constant tensor:
#      x y z
#    x 1.777840 0.000000 -0.052800 
#    y 0.000000 1.825790 0.000000 
#    z -0.052800 0.000000 1.943330 
# 
# From -- ./inp_files/181672.got.cif
#   From: 2010.05.17/outbox.cif.g08.bks.cpg/sg15_91_cif.got.tgz:181672.got - 2010.06.03 18:47:42.
