data_PCOD9278777
_publ_section_title
;
Structure prediction by ZEFSAII (Michael W. Deem and Ramdas Pophale) SiO2 
 PCOD9278777
Probable space group: C 2/C
;
_chemical_formula_sum "Si O2"
_cell_formula_units_Z 40
_cell_length_a 6.457717
_cell_length_b 22.592838
_cell_length_c 13.592265
_cell_angle_alpha 90.000000
_cell_angle_beta 100.416810
_cell_angle_gamma 90.000000
_cell_volume 1950.402067
_symmetry_space_group_name_H-M "C 2/C"
_symmetry_group_IT_number 15
_symmetry_cell_setting 'monoclinic'
loop_
_space_group_symop_operation_xyz
x,y,z
-x,y,1/2-z
-x,-y,-z
x,-y,1/2+z
1/2+x,1/2+y,z
1/2-x,1/2+y,1/2-z
1/2-x,1/2-y,-z
1/2+x,1/2-y,1/2+z
loop_
_atom_site_type_symbol
_atom_site_label
_atom_site_fract_x
_atom_site_fract_y
_atom_site_fract_z
Si Si1 0.930688 0.966494 0.345765
Si Si2 0.500000 0.319198 0.750000
Si Si3 0.000000 0.144992 0.750000
Si Si4 0.822608 0.457565 0.525485
Si Si5 0.077259 0.361536 0.652126
Si Si6 0.200875 0.749119 0.379928
O O1 0.131240 0.953430 0.432374
O O2 0.000000 0.996632 0.250000
O O3 0.860324 0.901125 0.302541
O O4 0.773138 0.008629 0.388721
O O5 0.328506 0.358839 0.677097
O O6 0.623815 0.280790 0.677298
O O7 0.137337 0.187425 0.830871
O O8 0.000000 0.500000 0.500000
O O9 0.943832 0.397235 0.561144
O O10 0.000000 0.386541 0.750000
O O11 0.001514 0.293786 0.642845
O O12 0.250000 0.750000 0.500000
#
# Coordination Sequence:
#
# PCOD9278777 Si02
#       6
#     8   4   4   8   8   8
#     4   9  24  45  66  98 136 180 217 291 346 417
#     4  10  22  44  65 100 135 184 222 284 350 396
#     4  10  20  46  67 102 143 170 230 286 346 414
#     4  11  24  43  69 101 131 180 238 278 351 413
#     4  10  23  41  64  98 132 176 229 280 332 412
#     4  11  22  43  68  99 136 177 230 284 342 418
#
# _framework density 20.508593000000001
#
# number of rings (size 3 to 8) (size 9 to 14) (size 15 to 20)
#    0.600    1.200    3.000    1.200    2.800    8.800 
#    9.000    0.000    0.000    0.000    0.000    0.000 
#    0.000    0.000    0.000    0.000    0.000    0.000 
#
# Total GULP energy -111466.461804 kJ/mol
# GULP energy per Si atom -5573.323090 kJ/mol
# Density = 2.046191 g / cm^3
# Si number density = 20.508593 Si / 1000 Ang^3
#
#
#
# Elastic Constant Matrix: (Units=GPa)
#
#
# Indices 1 2 3 4 5 6 
#
# 1 100.7316 35.1690 38.6987 0.0000 2.2650 0.0000
# 2 35.1690 95.8547 35.7365 0.0000 7.8640 0.0000
# 3 38.6987 35.7365 131.1250 0.0000 0.0849 0.0000
# 4 0.0000 0.0000 0.0000 42.7109 0.0000 12.1840
# 5 2.2650 7.8640 0.0849 0.0000 29.7322 0.0000
# 6 0.0000 0.0000 0.0000 12.1840 0.0000 -2.5565
#
#
#
# Elastic Compliance Matrix: (Units=1/GPa)
#
#
# Indices 1 2 3 4 5 6 
#
# 1 0.012155 -0.003475 -0.002640 0.000000 0.000001 0.000000
# 2 -0.003475 0.012892 -0.002486 0.000000 -0.003138 0.000000
# 3 -0.002640 -0.002486 0.009082 0.000000 0.000833 0.000000
# 4 0.000000 0.000000 0.000000 0.009923 0.000000 0.047291
# 5 0.000001 -0.003138 0.000833 0.000000 0.034461 0.000000
# 6 0.000000 0.000000 0.000000 0.047291 0.000000 -0.165777
#
#
# Mechanical properties :
#
#
# Convention : Reuss Voigt Hill
#
# Bulk Modulus (GPa) = 59.07865 60.76882 59.92374
# Shear Modulus (GPa) = -77.61735 28.51777 -24.54979
#
# Velocity S-wave (km/s) = -6.15861 3.73302 -3.46359
# Velocity P-wave (km/s) = 4.65853 6.94808 3.64513
#
# Compressibility (1/GPa) = 0.01692659
#
# Stress axis : x y z
#
# Youngs Moduli (GPa) = 82.27050 77.56883 110.10301
#
# Poissons Ratio (x) = 0.26959 0.29068
# Poissons Ratio (y) = 0.28593 0.27369
# Poissons Ratio (z) = 0.21720 0.19282
#
# Static dielectric constant tensor:
#      x y z
#    x 1.761660 0.000000 0.069180 
#    y 0.000000 1.761680 0.000000 
#    z 0.069180 0.000000 1.796960 
# 
# From -- ./inp_files/129150.got.cif
#   From: 2010.05.17/outbox.cif.g08.bks.cpg/sg15_65_cif.got.tgz:129150.got - 2010.06.03 18:47:42.
