data_PCOD9278157
_publ_section_title
;
Structure prediction by ZEFSAII (Michael W. Deem and Ramdas Pophale) SiO2 
 PCOD9278157
Probable space group: C 2/C
;
_chemical_formula_sum "Si O2"
_cell_formula_units_Z 44
_cell_length_a 25.329167
_cell_length_b 9.360143
_cell_length_c 21.041389
_cell_angle_alpha 90.000000
_cell_angle_beta 21.524744
_cell_angle_gamma 90.000000
_cell_volume 1830.328606
_symmetry_space_group_name_H-M "C 2/C"
_symmetry_group_IT_number 15
_symmetry_cell_setting 'monoclinic'
loop_
_space_group_symop_operation_xyz
x,y,z
-x,y,1/2-z
-x,-y,-z
x,-y,1/2+z
1/2+x,1/2+y,z
1/2-x,1/2+y,1/2-z
1/2-x,1/2-y,-z
1/2+x,1/2-y,1/2+z
loop_
_atom_site_type_symbol
_atom_site_label
_atom_site_fract_x
_atom_site_fract_y
_atom_site_fract_z
Si Si1 0.750000 0.750000 0.000000
Si Si2 0.333838 0.494047 0.445028
Si Si3 0.346559 0.069086 0.102722
Si Si4 0.041453 0.191173 0.104021
Si Si5 0.929439 0.055365 0.643922
Si Si6 0.130623 0.381296 0.780016
O O1 0.748800 0.936408 0.982507
O O2 0.901742 0.732540 0.786254
O O3 0.500000 0.443684 0.250000
O O4 0.357823 0.659035 0.447388
O O5 0.240693 0.405243 0.598616
O O6 0.299872 0.091374 0.228208
O O7 0.236108 0.981005 0.184603
O O8 0.367431 0.223715 0.048753
O O9 0.500818 0.993808 0.925228
O O10 0.999870 0.040007 0.119865
O O11 0.937399 0.223756 0.645778
O O12 0.000000 0.000000 0.500000
#
# Coordination Sequence:
#
# PCOD9278157 Si02
#       6
#     4   8   8   8   8   8
#     4  10  20  42  66  98 124 184 228 270 320 408
#     4  10  22  41  70  95 138 179 228 285 330 412
#     4  11  25  40  68  97 139 174 225 288 335 416
#     4  11  22  42  69  98 132 174 233 272 343 401
#     4  12  26  41  68 101 137 180 218 281 358 410
#     4  11  25  43  64 102 139 175 232 283 348 400
#
# _framework density 24.039397999999998
#
# number of rings (size 3 to 8) (size 9 to 14) (size 15 to 20)
#    0.000    1.091    3.636    2.182    5.091    0.000 
#    0.000    5.455    0.000    0.000    0.000    0.000 
#    0.000    0.000    0.000    0.000    0.000    0.000 
#
# Total GULP energy -122615.842012 kJ/mol
# GULP energy per Si atom -5573.447364 kJ/mol
# Density = 2.398468 g / cm^3
# Si number density = 24.039398 Si / 1000 Ang^3
#
#
#
# Elastic Constant Matrix: (Units=GPa)
#
#
# Indices 1 2 3 4 5 6 
#
# 1 82.2799 6.2405 14.1703 0.0001 11.4929 0.0000
# 2 6.2405 82.1299 1.8958 -0.0004 21.9164 0.0000
# 3 14.1703 1.8958 113.5104 -0.0002 25.8247 0.0000
# 4 0.0001 -0.0004 -0.0002 40.8149 0.0000 10.8511
# 5 11.4929 21.9164 25.8247 0.0000 40.5159 0.0000
# 6 0.0000 0.0000 0.0000 10.8511 0.0000 37.4086
#
#
#
# Elastic Compliance Matrix: (Units=1/GPa)
#
#
# Indices 1 2 3 4 5 6 
#
# 1 0.012735 -0.000162 -0.000918 0.000000 -0.002939 0.000000
# 2 -0.000162 0.014543 0.001821 0.000000 -0.008981 0.000000
# 3 -0.000918 0.001821 0.010595 0.000000 -0.007478 0.000000
# 4 0.000000 0.000000 0.000000 0.026548 0.000000 -0.007701
# 5 -0.002939 -0.008981 -0.007478 0.000000 0.035140 0.000000
# 6 0.000000 0.000000 0.000000 -0.007701 0.000000 0.028966
#
#
# Mechanical properties :
#
#
# Convention : Reuss Voigt Hill
#
# Bulk Modulus (GPa) = 25.41085 35.83705 30.62395
# Shear Modulus (GPa) = 35.67259 40.78878 38.23068
#
# Velocity S-wave (km/s) = 3.85635 4.12363 3.99223
# Velocity P-wave (km/s) = 5.51562 6.13289 5.83243
#
# Compressibility (1/GPa) = 0.03935327
#
# Stress axis : x y z
#
# Youngs Moduli (GPa) = 78.52586 68.76271 94.38190
#
# Poissons Ratio (x) = 0.01114 0.08667
# Poissons Ratio (y) = 0.01272 -0.17184
# Poissons Ratio (z) = 0.07211 -0.12519
#
# Static dielectric constant tensor:
#      x y z
#    x 2.290940 0.000000 -0.048450 
#    y 0.000000 1.999710 0.000000 
#    z -0.048450 0.000000 1.965500 
# 
# From -- ./inp_files/284390.got.cif
#   From: 2010.05.17/outbox.cif.g08.bks.cpg/sg15_143_cif.got.tgz:284390.got - 2010.06.03 18:47:42.
