data_PCOD9278128
_publ_section_title
;
Structure prediction by ZEFSAII (Michael W. Deem and Ramdas Pophale) SiO2 
 PCOD9278128
Probable space group: C 2/C
;
_chemical_formula_sum "Si O2"
_cell_formula_units_Z 56
_cell_length_a 23.453841
_cell_length_b 8.600228
_cell_length_c 15.395806
_cell_angle_alpha 90.000000
_cell_angle_beta 119.956880
_cell_angle_gamma 90.000000
_cell_volume 2690.577727
_symmetry_space_group_name_H-M "C 2/C"
_symmetry_group_IT_number 15
_symmetry_cell_setting 'monoclinic'
loop_
_space_group_symop_operation_xyz
x,y,z
-x,y,1/2-z
-x,-y,-z
x,-y,1/2+z
1/2+x,1/2+y,z
1/2-x,1/2+y,1/2-z
1/2-x,1/2-y,-z
1/2+x,1/2-y,1/2+z
loop_
_atom_site_type_symbol
_atom_site_label
_atom_site_fract_x
_atom_site_fract_y
_atom_site_fract_z
Si Si1 0.426515 0.839629 0.677490
Si Si2 0.545894 0.873623 0.433772
Si Si3 0.189286 0.842575 0.497884
Si Si4 0.657048 0.303617 0.944838
Si Si5 0.592483 0.002823 0.154396
Si Si6 0.758982 0.144350 0.138496
Si Si7 0.722480 0.836583 0.188795
O O1 0.500000 0.777256 0.750000
O O2 0.376143 0.719231 0.598371
O O3 0.434020 0.981055 0.613631
O O4 0.401997 0.901456 0.752161
O O5 0.583256 0.727749 0.419535
O O6 0.466898 0.879499 0.375775
O O7 0.570158 0.901167 0.551228
O O8 0.250000 0.750000 0.500000
O O9 0.193698 0.787889 0.600180
O O10 0.186886 0.028595 0.492436
O O11 0.674477 0.295255 0.856456
O O12 0.700431 0.171237 0.025469
O O13 0.661167 0.927129 0.182796
O O14 0.740941 0.247159 0.207497
O O15 0.764454 0.966239 0.170672
#
# Coordination Sequence:
#
# PCOD9278128 Si02
#       7
#     8   8   8   8   8   8   8
#     4  10  22  42  67  92 126 175 217 265 333 402
#     4  10  20  42  66  93 120 168 221 269 324 390
#     4  12  25  41  63  94 136 177 215 274 336 400
#     4  11  23  42  63  92 132 170 220 271 335 391
#     4  10  21  37  70  92 124 163 222 270 324 397
#     4  11  24  38  63  93 128 173 211 277 328 405
#     4  12  23  41  62  96 130 168 220 265 340 398
#
# _framework density 20.813372999999999
#
# number of rings (size 3 to 8) (size 9 to 14) (size 15 to 20)
#    0.000    1.143    4.286    1.714    6.000    0.000 
#    2.571    4.286    0.000    0.000    0.000    0.000 
#    0.000    0.000    0.000    0.000    0.000    0.000 
#
# Total GULP energy -156427.885074 kJ/mol
# GULP energy per Si atom -5586.710181 kJ/mol
# Density = 2.076600 g / cm^3
# Si number density = 20.813373 Si / 1000 Ang^3
#
#
#
# Elastic Constant Matrix: (Units=GPa)
#
#
# Indices 1 2 3 4 5 6 
#
# 1 93.8519 14.7565 12.5540 0.0000 -6.8506 0.0000
# 2 14.7565 62.8986 13.4921 0.0000 -4.1378 0.0000
# 3 12.5540 13.4921 85.7577 0.0000 -19.6720 0.0000
# 4 0.0000 0.0000 0.0000 14.5066 0.0000 -4.1075
# 5 -6.8506 -4.1378 -19.6720 0.0000 35.5665 0.0000
# 6 0.0000 0.0000 0.0000 -4.1075 0.0000 29.6353
#
#
#
# Elastic Compliance Matrix: (Units=1/GPa)
#
#
# Indices 1 2 3 4 5 6 
#
# 1 0.011252 -0.002343 -0.000967 0.000000 0.001360 0.000000
# 2 -0.002343 0.016951 -0.002262 0.000000 0.000270 0.000000
# 3 -0.000967 -0.002262 0.013807 0.000000 0.007187 0.000000
# 4 0.000000 0.000000 0.000000 0.071750 0.000000 0.009945
# 5 0.001360 0.000270 0.007187 0.000000 0.032385 0.000000
# 6 0.000000 0.000000 0.000000 0.009945 0.000000 0.035122
#
#
# Mechanical properties :
#
#
# Convention : Reuss Voigt Hill
#
# Bulk Modulus (GPa) = 32.39718 36.01261 34.20489
# Shear Modulus (GPa) = 24.66712 29.38873 27.02792
#
# Velocity S-wave (km/s) = 3.44635 3.76175 3.60750
# Velocity P-wave (km/s) = 5.60676 6.01730 5.81565
#
# Compressibility (1/GPa) = 0.03086688
#
# Stress axis : x y z
#
# Youngs Moduli (GPa) = 88.87262 58.99264 72.42781
#
# Poissons Ratio (x) = 0.13822 0.07001
# Poissons Ratio (y) = 0.20823 0.16384
# Poissons Ratio (z) = 0.08590 0.13345
#
# Static dielectric constant tensor:
#      x y z
#    x 1.791740 0.000000 -0.041950 
#    y 0.000000 1.737770 0.000000 
#    z -0.041950 0.000000 1.753510 
# 
# From -- ./inp_files/172485.got.cif
#   From: 2010.05.17/outbox.cif.g08.bks.cpg/sg15_87_cif.got.tgz:172485.got - 2010.06.03 18:47:42.
