data_PCOD9278976
_publ_section_title
;
Structure prediction by ZEFSAII (Michael W. Deem and Ramdas Pophale) SiO2 
 PCOD9278976
Probable space group: C 2/C
;
_chemical_formula_sum "Si O2"
_cell_formula_units_Z 40
_cell_length_a 27.688593
_cell_length_b 13.084464
_cell_length_c 14.515249
_cell_angle_alpha 90.000000
_cell_angle_beta 160.843211
_cell_angle_gamma 90.000000
_cell_volume 1725.676767
_symmetry_space_group_name_H-M "C 2/C"
_symmetry_group_IT_number 15
_symmetry_cell_setting 'monoclinic'
loop_
_space_group_symop_operation_xyz
x,y,z
-x,y,1/2-z
-x,-y,-z
x,-y,1/2+z
1/2+x,1/2+y,z
1/2-x,1/2+y,1/2-z
1/2-x,1/2-y,-z
1/2+x,1/2-y,1/2+z
loop_
_atom_site_type_symbol
_atom_site_label
_atom_site_fract_x
_atom_site_fract_y
_atom_site_fract_z
Si Si1 0.281760 0.674935 0.877690
Si Si2 0.348312 0.694175 0.504073
Si Si3 0.014497 0.882226 0.918166
Si Si4 0.973904 0.587803 0.303188
Si Si5 0.701140 0.567113 0.921364
O O1 0.235864 0.775986 0.739749
O O2 0.132192 0.614444 0.632056
O O3 0.368502 0.610113 0.954697
O O4 0.393651 0.696732 0.161800
O O5 0.402769 0.800542 0.649391
O O6 0.259339 0.631773 0.417884
O O7 0.500000 0.638927 0.750000
O O8 0.910775 0.979381 0.749191
O O9 0.105485 0.866473 0.175316
O O10 0.000000 0.538259 0.250000
O O11 0.850234 0.533186 0.140008
#
# Coordination Sequence:
#
# PCOD9278976 Si02
#       5
#     8   8   8   8   8
#     4   9  19  38  55  82 122 162 185 239 307 341
#     4   9  19  35  59  84 111 164 200 233 281 364
#     4  10  21  33  58  91 118 152 191 257 298 337
#     4   9  17  34  55  81 114 164 191 232 292 361
#     4  11  20  34  61  92 116 152 209 237 293 361
#
# _framework density 23.179313
#
# number of rings (size 3 to 8) (size 9 to 14) (size 15 to 20)
#    0.000    2.800    4.000    0.600    2.800    0.800 
#    0.000    4.000    0.000    0.000   20.800    0.000 
#    0.000    0.000    0.000    0.000    0.000    0.000 
#
# Total GULP energy -111520.885346 kJ/mol
# GULP energy per Si atom -5576.044267 kJ/mol
# Density = 2.312656 g / cm^3
# Si number density = 23.179313 Si / 1000 Ang^3
#
#
#
# Elastic Constant Matrix: (Units=GPa)
#
#
# Indices 1 2 3 4 5 6 
#
# 1 87.7809 21.2091 37.7529 0.0000 17.2607 0.0000
# 2 21.2091 15.5954 6.3625 0.0000 8.2480 0.0000
# 3 37.7529 6.3625 137.5944 0.0000 2.6839 0.0000
# 4 0.0000 0.0000 0.0000 3.7466 0.0000 -7.9999
# 5 17.2607 8.2480 2.6839 0.0000 51.5012 0.0000
# 6 0.0000 0.0000 0.0000 -7.9999 0.0000 17.1285
#
#
#
# Elastic Compliance Matrix: (Units=1/GPa)
#
#
# Indices 1 2 3 4 5 6 
#
# 1 0.019286 -0.023187 -0.004170 0.000000 -0.002533 0.000000
# 2 -0.023187 0.099212 0.001935 0.000000 -0.008219 0.000000
# 3 -0.004170 0.001935 0.008310 0.000000 0.000655 0.000000
# 4 0.000000 0.000000 0.000000 98.285423 0.000000 45.904789
# 5 -0.002533 -0.008219 0.000655 0.000000 0.021548 0.000000
# 6 0.000000 0.000000 0.000000 45.904789 0.000000 21.498486
#
#
# Mechanical properties :
#
#
# Convention : Reuss Voigt Hill
#
# Bulk Modulus (GPa) = 13.16431 41.29107 27.22769
# Shear Modulus (GPa) = 0.04166 26.18500 13.11333
#
# Velocity S-wave (km/s) = 0.13421 3.36470 2.38110
# Velocity P-wave (km/s) = 2.39075 5.73998 4.39677
#
# Compressibility (1/GPa) = 0.07596295
#
# Stress axis : x y z
#
# Youngs Moduli (GPa) = 51.85149 10.07939 120.34173
#
# Poissons Ratio (x) = 0.23371 0.50183
# Poissons Ratio (y) = 1.20229 -0.23283
# Poissons Ratio (z) = 0.21622 -0.01950
#
# Static dielectric constant tensor:
#      x y z
#    x 1.922870 0.000000 0.004560 
#    y 0.000000 1.880010 0.000000 
#    z 0.004560 0.000000 1.917370 
# 
# From -- ./inp_files/178739.got.cif
#   From: 2010.05.17/outbox.cif.g08.bks.cpg/sg15_90_cif.got.tgz:178739.got - 2010.06.03 18:47:42.
