data_PCOD9278540
_publ_section_title
;
Structure prediction by ZEFSAII (Michael W. Deem and Ramdas Pophale) SiO2 
 PCOD9278540
Probable space group: C 2/C
;
_chemical_formula_sum "Si O2"
_cell_formula_units_Z 36
_cell_length_a 6.047318
_cell_length_b 20.855378
_cell_length_c 11.679380
_cell_angle_alpha 90.000000
_cell_angle_beta 84.793720
_cell_angle_gamma 90.000000
_cell_volume 1466.916033
_symmetry_space_group_name_H-M "C 2/C"
_symmetry_group_IT_number 15
_symmetry_cell_setting 'monoclinic'
loop_
_space_group_symop_operation_xyz
x,y,z
-x,y,1/2-z
-x,-y,-z
x,-y,1/2+z
1/2+x,1/2+y,z
1/2-x,1/2+y,1/2-z
1/2-x,1/2-y,-z
1/2+x,1/2-y,1/2+z
loop_
_atom_site_type_symbol
_atom_site_label
_atom_site_fract_x
_atom_site_fract_y
_atom_site_fract_z
Si Si1 0.000000 0.547795 0.250000
Si Si2 0.390433 0.349523 0.940450
Si Si3 0.000000 0.955918 0.750000
Si Si4 0.836509 0.161919 0.861293
Si Si5 0.518164 0.076401 0.001202
Si Si6 0.500000 0.253761 0.750000
O O1 0.752859 0.514580 0.249999
O O2 0.029285 0.590721 0.136000
O O3 0.481401 0.410923 0.864078
O O4 0.192750 0.381199 0.022845
O O5 0.353916 0.298258 0.841596
O O6 0.542192 0.315879 0.028465
O O7 0.659035 0.211191 0.820330
O O8 0.000000 0.147617 0.750000
O O9 0.717382 0.098635 0.914279
O O10 0.500000 0.000000 0.000000
#
# Coordination Sequence:
#
# PCOD9278540 Si02
#       6
#     4   8   4   8   8   4
#     4  10  20  43  72 103 146 198 260 318 378 466
#     4  10  23  46  72 108 148 199 259 318 389 464
#     4   9  18  40  70 105 140 195 252 315 376 459
#     4  12  26  46  71 112 158 197 253 327 401 467
#     4  11  26  48  76 108 151 203 263 321 393 476
#     4  11  26  47  78 110 154 203 258 329 390 477
#
# _framework density 24.541281999999999
#
# number of rings (size 3 to 8) (size 9 to 14) (size 15 to 20)
#    0.000    1.333    2.222    2.000    0.000    8.889 
#   14.000    0.000    0.000    0.000    0.000    0.000 
#    0.000    0.000    0.000    0.000    0.000    0.000 
#
# Total GULP energy -100412.238617 kJ/mol
# GULP energy per Si atom -5578.457701 kJ/mol
# Density = 2.448543 g / cm^3
# Si number density = 24.541282 Si / 1000 Ang^3
#
#
#
# Elastic Constant Matrix: (Units=GPa)
#
#
# Indices 1 2 3 4 5 6 
#
# 1 128.7349 30.0426 28.4430 0.0000 -3.8703 0.0000
# 2 30.0426 91.5645 44.8681 0.0000 -2.3137 0.0000
# 3 28.4430 44.8681 137.8353 0.0000 -2.9779 0.0000
# 4 0.0000 0.0000 0.0000 8.7109 0.0000 -42.1699
# 5 -3.8703 -2.3137 -2.9779 0.0000 60.3234 0.0000
# 6 0.0000 0.0000 0.0000 -42.1699 0.0000 -25.3073
#
#
#
# Elastic Compliance Matrix: (Units=1/GPa)
#
#
# Indices 1 2 3 4 5 6 
#
# 1 0.008539 -0.002299 -0.001005 0.000000 0.000410 0.000000
# 2 -0.002299 0.013618 -0.003955 0.000000 0.000180 0.000000
# 3 -0.001005 -0.003955 0.008754 0.000000 0.000216 0.000000
# 4 0.000000 0.000000 0.000000 0.012662 0.000000 -0.021098
# 5 0.000410 0.000180 0.000216 0.000000 0.016621 0.000000
# 6 0.000000 0.000000 0.000000 -0.021098 0.000000 -0.004358
#
#
# Mechanical properties :
#
#
# Convention : Reuss Voigt Hill
#
# Bulk Modulus (GPa) = 60.99655 62.76024 61.87840
# Shear Modulus (GPa) = 65.94829 25.73078 45.83953
#
# Velocity S-wave (km/s) = 5.18948 3.24152 4.32656
# Velocity P-wave (km/s) = 7.79848 6.29593 7.08714
#
# Compressibility (1/GPa) = 0.01639437
#
# Stress axis : x y z
#
# Youngs Moduli (GPa) = 117.11364 73.43277 114.22871
#
# Poissons Ratio (x) = 0.16881 0.11478
# Poissons Ratio (y) = 0.26923 0.45173
# Poissons Ratio (z) = 0.11768 0.29040
#
# Static dielectric constant tensor:
#      x y z
#    x 2.231020 0.000000 0.006630 
#    y 0.000000 1.908420 0.000000 
#    z 0.006630 0.000000 1.955530 
# 
# From -- ./inp_files/72652.got.cif
#   From: 2010.05.17/outbox.cif.g08.bks.cpg/sg15_37_cif.got.tgz:72652.got - 2010.06.03 18:47:42.
