data_PCOD9278806
_publ_section_title
;
Structure prediction by ZEFSAII (Michael W. Deem and Ramdas Pophale) SiO2 
 PCOD9278806
Probable space group: C 2/C
;
_chemical_formula_sum "Si O2"
_cell_formula_units_Z 60
_cell_length_a 10.886216
_cell_length_b 9.181501
_cell_length_c 26.463730
_cell_angle_alpha 90.000000
_cell_angle_beta 59.516895
_cell_angle_gamma 90.000000
_cell_volume 2279.488929
_symmetry_space_group_name_H-M "C 2/C"
_symmetry_group_IT_number 15
_symmetry_cell_setting 'monoclinic'
loop_
_space_group_symop_operation_xyz
x,y,z
-x,y,1/2-z
-x,-y,-z
x,-y,1/2+z
1/2+x,1/2+y,z
1/2-x,1/2+y,1/2-z
1/2-x,1/2-y,-z
1/2+x,1/2-y,1/2+z
loop_
_atom_site_type_symbol
_atom_site_label
_atom_site_fract_x
_atom_site_fract_y
_atom_site_fract_z
Si Si1 0.573506 0.025489 0.853008
Si Si2 0.250000 0.250000 0.000000
Si Si3 0.701043 0.973872 0.728419
Si Si4 0.340981 0.197784 0.836980
Si Si5 0.887828 0.975973 0.479418
Si Si6 0.363143 0.700090 0.812813
Si Si7 0.968189 0.976174 0.853319
Si Si8 0.943408 0.714615 0.060047
O O1 0.628592 0.923855 0.795097
O O2 0.710559 0.131699 0.830441
O O3 0.549842 0.933009 0.908499
O O4 0.444338 0.117228 0.855494
O O5 0.254132 0.422668 0.018226
O O6 0.130137 0.295293 0.979779
O O7 0.655907 0.869648 0.692146
O O8 0.869278 0.968617 0.695816
O O9 0.650427 0.132584 0.720939
O O10 0.381941 0.365864 0.835630
O O11 0.174369 0.186359 0.885668
O O12 0.938696 0.061724 0.417574
O O13 0.907986 0.802911 0.469808
O O14 0.000000 0.000000 0.500000
O O15 0.500000 0.655549 0.750000
O O16 0.403831 0.635963 0.858114
#
# Coordination Sequence:
#
# PCOD9278806 Si02
#       8
#     8   4   8   8   8   8   8   8
#     4  12  26  42  68 102 145 188 235 289 347 418
#     4  10  20  46  76 104 128 182 234 296 358 434
#     4  12  28  42  65  99 145 188 238 282 346 417
#     4  12  25  43  66  99 142 186 231 288 342 418
#     4  10  22  41  76 103 131 177 235 292 365 420
#     4  12  25  41  65  95 135 191 233 281 340 409
#     4  12  24  45  71  99 138 182 237 288 352 422
#     4  11  24  43  73 101 138 182 228 294 361 418
#
# _framework density 26.321691999999999
#
# number of rings (size 3 to 8) (size 9 to 14) (size 15 to 20)
#    0.000    0.533    6.667    1.200    5.600    2.133 
#    0.000    0.667    0.000    4.800    0.000    0.000 
#    0.000    0.000    0.000    0.000    0.000    0.000 
#
# Total GULP energy -167237.443302 kJ/mol
# GULP energy per Si atom -5574.581443 kJ/mol
# Density = 2.626178 g / cm^3
# Si number density = 26.321692 Si / 1000 Ang^3
#
#
#
# Elastic Constant Matrix: (Units=GPa)
#
#
# Indices 1 2 3 4 5 6 
#
# 1 119.1560 38.0029 31.6037 0.0000 -0.3260 0.0000
# 2 38.0029 65.8487 4.2353 0.0000 12.6580 0.0000
# 3 31.6037 4.2353 65.0289 0.0000 18.8114 0.0000
# 4 0.0000 0.0000 0.0000 23.9040 0.0000 12.1184
# 5 -0.3260 12.6580 18.8114 0.0000 48.0452 0.0000
# 6 0.0000 0.0000 0.0000 12.1184 0.0000 55.4148
#
#
#
# Elastic Compliance Matrix: (Units=1/GPa)
#
#
# Indices 1 2 3 4 5 6 
#
# 1 0.012821 -0.007894 -0.007154 0.000000 0.004968 0.000000
# 2 -0.007894 0.020859 0.004605 0.000000 -0.007352 0.000000
# 3 -0.007154 0.004605 0.021336 0.000000 -0.009616 0.000000
# 4 0.000000 0.000000 0.000000 0.047050 0.000000 -0.010289
# 5 0.004968 -0.007352 -0.009616 0.000000 0.026549 0.000000
# 6 0.000000 0.000000 0.000000 -0.010289 0.000000 0.020296
#
#
# Mechanical properties :
#
#
# Convention : Reuss Voigt Hill
#
# Bulk Modulus (GPa) = 29.29972 44.19082 36.74527
# Shear Modulus (GPa) = 27.59756 37.21891 32.40824
#
# Velocity S-wave (km/s) = 3.24152 3.76440 3.51271
# Velocity P-wave (km/s) = 5.01653 5.97658 5.51747
#
# Compressibility (1/GPa) = 0.03413002
#
# Stress axis : x y z
#
# Youngs Moduli (GPa) = 77.99633 47.94009 46.86862
#
# Poissons Ratio (x) = 0.37845 0.33529
# Poissons Ratio (y) = 0.61572 -0.21582
# Poissons Ratio (z) = 0.55798 -0.22075
#
# Static dielectric constant tensor:
#      x y z
#    x 2.169360 0.000000 -0.189140 
#    y 0.000000 2.175050 0.000000 
#    z -0.189140 0.000000 2.471660 
# 
# From -- ./inp_files/310269.got.cif
#   From: 2010.05.17/outbox.cif.g08.bks.cpg/sg15_156_cif.got.tgz:310269.got - 2010.06.03 18:47:42.
