data_PCOD9278199
_publ_section_title
;
Structure prediction by ZEFSAII (Michael W. Deem and Ramdas Pophale) SiO2 
 PCOD9278199
Probable space group: C 2/C
;
_chemical_formula_sum "Si O2"
_cell_formula_units_Z 36
_cell_length_a 26.638806
_cell_length_b 7.156209
_cell_length_c 14.294368
_cell_angle_alpha 90.000000
_cell_angle_beta 150.117230
_cell_angle_gamma 90.000000
_cell_volume 1357.656832
_symmetry_space_group_name_H-M "C 2/C"
_symmetry_group_IT_number 15
_symmetry_cell_setting 'monoclinic'
loop_
_space_group_symop_operation_xyz
x,y,z
-x,y,1/2-z
-x,-y,-z
x,-y,1/2+z
1/2+x,1/2+y,z
1/2-x,1/2+y,1/2-z
1/2-x,1/2-y,-z
1/2+x,1/2-y,1/2+z
loop_
_atom_site_type_symbol
_atom_site_label
_atom_site_fract_x
_atom_site_fract_y
_atom_site_fract_z
Si Si1 0.527697 0.218936 0.103177
Si Si2 0.711219 0.023718 0.610163
Si Si3 0.260084 0.931904 0.632657
Si Si4 0.500000 0.008309 0.250000
Si Si5 0.623196 0.606239 0.260825
O O1 0.634113 0.138400 0.239156
O O2 0.491635 0.122288 0.139592
O O3 0.547314 0.435556 0.158815
O O4 0.447992 0.224540 0.888020
O O5 0.700772 0.235368 0.553445
O O6 0.608732 0.911418 0.420730
O O7 0.726701 0.022355 0.745296
O O8 0.809625 0.940966 0.721324
O O9 0.204517 0.076022 0.474517
#
# Coordination Sequence:
#
# PCOD9278199 Si02
#       5
#     8   8   8   4   8
#     4  10  21  38  70  98 136 179 231 279 351 405
#     4  11  23  41  69  95 139 180 227 286 349 399
#     4  11  22  46  65 103 138 178 231 289 337 421
#     4  12  20  40  62  96 136 186 220 282 346 412
#     4  10  20  42  67  99 133 180 230 289 337 415
#
# _framework density 26.516275
#
# number of rings (size 3 to 8) (size 9 to 14) (size 15 to 20)
#    0.000    1.333    4.444    2.667    0.000    0.889 
#    4.000    2.222    0.000    0.000    0.000    0.000 
#    0.000    0.000    0.000    0.000    0.000    0.000 
#
# Total GULP energy -100815.334096 kJ/mol
# GULP energy per Si atom -5600.851894 kJ/mol
# Density = 2.645592 g / cm^3
# Si number density = 26.516275 Si / 1000 Ang^3
#
#
#
# Elastic Constant Matrix: (Units=GPa)
#
#
# Indices 1 2 3 4 5 6 
#
# 1 153.9686 22.5975 70.2608 0.0000 -18.1870 0.0000
# 2 22.5975 75.1286 21.5663 0.0000 -4.9226 0.0000
# 3 70.2608 21.5663 212.0305 0.0000 -16.9614 0.0000
# 4 0.0000 0.0000 0.0000 20.3696 0.0000 -1.7776
# 5 -18.1870 -4.9226 -16.9614 0.0000 57.4070 0.0000
# 6 0.0000 0.0000 0.0000 -1.7776 0.0000 24.1638
#
#
#
# Elastic Compliance Matrix: (Units=1/GPa)
#
#
# Indices 1 2 3 4 5 6 
#
# 1 0.008007 -0.001622 -0.002352 0.000000 0.001703 0.000000
# 2 -0.001622 0.014074 -0.000859 0.000000 0.000439 0.000000
# 3 -0.002352 -0.000859 0.005651 0.000000 0.000851 0.000000
# 4 0.000000 0.000000 0.000000 0.049410 0.000000 0.003635
# 5 0.001703 0.000439 0.000851 0.000000 0.018248 0.000000
# 6 0.000000 0.000000 0.000000 0.003635 0.000000 0.041652
#
#
# Mechanical properties :
#
#
# Convention : Reuss Voigt Hill
#
# Bulk Modulus (GPa) = 55.35133 74.44188 64.89660
# Shear Modulus (GPa) = 32.73759 42.16830 37.45294
#
# Velocity S-wave (km/s) = 3.51753 3.99216 3.76234
# Velocity P-wave (km/s) = 6.11696 7.02743 6.58794
#
# Compressibility (1/GPa) = 0.01806641
#
# Stress axis : x y z
#
# Youngs Moduli (GPa) = 124.88471 71.05478 176.95348
#
# Poissons Ratio (x) = 0.11523 0.41624
# Poissons Ratio (y) = 0.20253 0.15200
# Poissons Ratio (z) = 0.29376 0.06103
#
# Static dielectric constant tensor:
#      x y z
#    x 1.965030 0.000000 0.001370 
#    y 0.000000 2.125150 0.000000 
#    z 0.001370 0.000000 2.148320 
# 
# From -- ./inp_files/84372.got.cif
#   From: 2010.05.17/outbox.cif.g08.bks.cpg/sg15_43_cif.got.tgz:84372.got - 2010.06.03 18:47:42.
