data_PCOD9278087
_publ_section_title
;
Structure prediction by ZEFSAII (Michael W. Deem and Ramdas Pophale) SiO2 
 PCOD9278087
Probable space group: C 2/C
;
_chemical_formula_sum "Si O2"
_cell_formula_units_Z 28
_cell_length_a 12.260256
_cell_length_b 6.663730
_cell_length_c 16.889120
_cell_angle_alpha 90.000000
_cell_angle_beta 113.316806
_cell_angle_gamma 90.000000
_cell_volume 1267.134967
_symmetry_space_group_name_H-M "C 2/C"
_symmetry_group_IT_number 15
_symmetry_cell_setting 'monoclinic'
loop_
_space_group_symop_operation_xyz
x,y,z
-x,y,1/2-z
-x,-y,-z
x,-y,1/2+z
1/2+x,1/2+y,z
1/2-x,1/2+y,1/2-z
1/2-x,1/2-y,-z
1/2+x,1/2-y,1/2+z
loop_
_atom_site_type_symbol
_atom_site_label
_atom_site_fract_x
_atom_site_fract_y
_atom_site_fract_z
Si Si1 0.958527 0.191306 0.535819
Si Si2 0.000000 0.538518 0.750000
Si Si3 0.623619 0.644423 0.820069
Si Si4 0.379006 0.043027 0.867772
O O1 0.066819 0.320671 0.604781
O O2 0.877644 0.123347 0.585761
O O3 0.898657 0.337706 0.454915
O O4 0.000000 0.000000 0.500000
O O5 0.108837 0.384380 0.800714
O O6 0.043663 0.637928 0.681652
O O7 0.500000 0.561158 0.750000
O O8 0.738979 0.552198 0.813546
#
# Coordination Sequence:
#
# PCOD9278087 Si02
#       4
#     8   4   8   8
#     4  10  22  40  62  96 121 165 218 254 310 379
#     4   8  20  40  60  96 126 166 214 258 310 372
#     4   9  20  40  61  91 131 163 205 269 308 368
#     4  10  20  42  66  84 133 170 199 266 320 354
#
# _framework density 22.097093000000001
#
# number of rings (size 3 to 8) (size 9 to 14) (size 15 to 20)
#    0.857    1.714    0.000    0.857    0.000    3.429 
#    7.714    0.000    0.000    0.000    0.000    0.000 
#    0.000    0.000    0.000    0.000    0.000    0.000 
#
# Total GULP energy -78084.600922 kJ/mol
# GULP energy per Si atom -5577.471494 kJ/mol
# Density = 2.204680 g / cm^3
# Si number density = 22.097093 Si / 1000 Ang^3
#
#
#
# Elastic Constant Matrix: (Units=GPa)
#
#
# Indices 1 2 3 4 5 6 
#
# 1 174.1565 29.3365 59.4324 0.0000 -5.7613 0.0000
# 2 29.3365 48.4850 4.3445 0.0000 -4.1128 0.0000
# 3 59.4324 4.3445 94.8265 0.0000 -27.1696 0.0000
# 4 0.0000 0.0000 0.0000 15.5403 0.0000 -7.4339
# 5 -5.7613 -4.1128 -27.1696 0.0000 49.1389 0.0000
# 6 0.0000 0.0000 0.0000 -7.4339 0.0000 20.0604
#
#
#
# Elastic Compliance Matrix: (Units=1/GPa)
#
#
# Indices 1 2 3 4 5 6 
#
# 1 0.008458 -0.004819 -0.005836 0.000000 -0.002639 0.000000
# 2 -0.004819 0.023541 0.002785 0.000000 0.002945 0.000000
# 3 -0.005836 0.002785 0.016572 0.000000 0.008712 0.000000
# 4 0.000000 0.000000 0.000000 0.078214 0.000000 0.028984
# 5 -0.002639 0.002945 0.008712 0.000000 0.025104 0.000000
# 6 0.000000 0.000000 0.000000 0.028984 0.000000 0.060590
#
#
# Mechanical properties :
#
#
# Convention : Reuss Voigt Hill
#
# Bulk Modulus (GPa) = 30.45826 55.96609 43.21218
# Shear Modulus (GPa) = 20.90633 31.90488 26.40561
#
# Velocity S-wave (km/s) = 3.07923 3.80392 3.46060
# Velocity P-wave (km/s) = 5.14354 6.68397 5.96370
#
# Compressibility (1/GPa) = 0.03283181
#
# Stress axis : x y z
#
# Youngs Moduli (GPa) = 118.23069 42.47958 60.34294
#
# Poissons Ratio (x) = 0.20469 0.35218
# Poissons Ratio (y) = 0.56970 -0.16808
# Poissons Ratio (z) = 0.69003 -0.11832
#
# Static dielectric constant tensor:
#      x y z
#    x 1.806890 0.000000 -0.001210 
#    y 0.000000 1.847950 0.000000 
#    z -0.001210 0.000000 1.879350 
# 
# From -- ./inp_files/187170.got.cif
#   From: 2010.05.17/outbox.cif.g08.bks.cpg/sg15_94_cif.got.tgz:187170.got - 2010.06.03 18:47:42.
