data_PCOD9278625
_publ_section_title
;
Structure prediction by ZEFSAII (Michael W. Deem and Ramdas Pophale) SiO2 
 PCOD9278625
Probable space group: C 2/C
;
_chemical_formula_sum "Si O2"
_cell_formula_units_Z 56
_cell_length_a 21.660206
_cell_length_b 8.686032
_cell_length_c 14.326316
_cell_angle_alpha 90.000000
_cell_angle_beta 111.514300
_cell_angle_gamma 90.000000
_cell_volume 2507.573801
_symmetry_space_group_name_H-M "C 2/C"
_symmetry_group_IT_number 15
_symmetry_cell_setting 'monoclinic'
loop_
_space_group_symop_operation_xyz
x,y,z
-x,y,1/2-z
-x,-y,-z
x,-y,1/2+z
1/2+x,1/2+y,z
1/2-x,1/2+y,1/2-z
1/2-x,1/2-y,-z
1/2+x,1/2-y,1/2+z
loop_
_atom_site_type_symbol
_atom_site_label
_atom_site_fract_x
_atom_site_fract_y
_atom_site_fract_z
Si Si1 0.796701 0.074187 0.425621
Si Si2 0.388921 0.194305 0.658121
Si Si3 0.654620 0.238588 0.062207
Si Si4 0.000000 0.545017 0.250000
Si Si5 0.552734 0.286780 0.164610
Si Si6 0.500000 0.556306 0.250000
Si Si7 0.327830 0.288092 0.125779
Si Si8 0.785180 0.104118 0.203313
O O1 0.723332 0.145944 0.398987
O O2 0.839955 0.168869 0.524553
O O3 0.809762 0.089504 0.322905
O O4 0.809595 0.895249 0.452489
O O5 0.365717 0.150526 0.542039
O O6 0.435369 0.061414 0.723303
O O7 0.438487 0.340787 0.683785
O O8 0.326753 0.255965 0.681756
O O9 0.590354 0.278234 0.088159
O O10 0.708028 0.147924 0.153638
O O11 0.000561 0.652903 0.158649
O O12 0.521402 0.449189 0.175469
O O13 0.608493 0.261653 0.275866
O O14 0.295827 0.443284 0.154556
#
# Coordination Sequence:
#
# PCOD9278625 Si02
#       8
#     8   8   8   4   8   4   8   8
#     4  11  22  38  63 102 133 171 207 262 337 390
#     4  11  24  43  65  96 130 173 221 270 332 388
#     4  12  24  40  69  98 131 171 213 278 336 391
#     4  10  28  44  66  88 130 184 220 286 312 392
#     4  11  22  44  65  93 129 174 223 273 324 383
#     4  10  20  44  66  86 128 174 226 262 314 394
#     4  11  23  38  63  97 137 171 212 262 326 397
#     4  12  22  41  65 101 136 170 211 271 334 396
#
# _framework density 22.332343000000002
#
# number of rings (size 3 to 8) (size 9 to 14) (size 15 to 20)
#    0.000    0.857    5.714    0.429    2.000    3.429 
#    0.000    5.714    0.000    0.000    0.000    0.000 
#    0.000    0.000    0.000    0.000    0.000    0.000 
#
# Total GULP energy -156562.017595 kJ/mol
# GULP energy per Si atom -5591.500628 kJ/mol
# Density = 2.228151 g / cm^3
# Si number density = 22.332343 Si / 1000 Ang^3
#
#
#
# Elastic Constant Matrix: (Units=GPa)
#
#
# Indices 1 2 3 4 5 6 
#
# 1 58.0160 18.0282 -13.6318 0.0000 -9.6645 0.0000
# 2 18.0282 85.8239 -13.3998 0.0000 -7.4266 0.0000
# 3 -13.6318 -13.3998 84.7719 0.0000 -15.3563 0.0000
# 4 0.0000 0.0000 0.0000 7.0695 0.0000 3.2835
# 5 -9.6645 -7.4266 -15.3563 0.0000 19.9254 0.0000
# 6 0.0000 0.0000 0.0000 3.2835 0.0000 20.9257
#
#
#
# Elastic Compliance Matrix: (Units=1/GPa)
#
#
# Indices 1 2 3 4 5 6 
#
# 1 0.021635 -0.002467 0.005606 0.000000 0.013895 0.000000
# 2 -0.002467 0.013095 0.002720 0.000000 0.005781 0.000000
# 3 0.005606 0.002720 0.016044 0.000000 0.016098 0.000000
# 4 0.000000 0.000000 0.000000 0.152572 0.000000 -0.023941
# 5 0.013895 0.005781 0.016098 0.000000 0.071488 0.000000
# 6 0.000000 0.000000 0.000000 -0.023941 0.000000 0.051545
#
#
# Mechanical properties :
#
#
# Convention : Reuss Voigt Hill
#
# Bulk Modulus (GPa) = 16.00175 23.40053 19.70114
# Shear Modulus (GPa) = 14.90351 25.42513 20.16432
#
# Velocity S-wave (km/s) = 2.58612 3.37781 3.00812
# Velocity P-wave (km/s) = 4.01225 5.07088 4.57231
#
# Compressibility (1/GPa) = 0.06249315
#
# Stress axis : x y z
#
# Youngs Moduli (GPa) = 46.22101 76.36530 62.32851
#
# Poissons Ratio (x) = 0.18839 -0.34942
# Poissons Ratio (y) = 0.11403 -0.16956
# Poissons Ratio (z) = -0.25912 -0.20774
#
# Static dielectric constant tensor:
#      x y z
#    x 1.854300 0.000000 0.009940 
#    y 0.000000 1.851210 0.000000 
#    z 0.009940 0.000000 1.799490 
# 
# From -- ./inp_files/172023.got.cif
#   From: 2010.05.17/outbox.cif.g08.bks.cpg/sg15_87_cif.got.tgz:172023.got - 2010.06.03 18:47:42.
