data_PCOD9278972
_publ_section_title
;
Structure prediction by ZEFSAII (Michael W. Deem and Ramdas Pophale) SiO2 
 PCOD9278972
Probable space group: C 2/C
;
_chemical_formula_sum "Si O2"
_cell_formula_units_Z 52
_cell_length_a 21.758445
_cell_length_b 25.630359
_cell_length_c 14.949937
_cell_angle_alpha 90.000000
_cell_angle_beta 162.161545
_cell_angle_gamma 90.000000
_cell_volume 2553.980022
_symmetry_space_group_name_H-M "C 2/C"
_symmetry_group_IT_number 15
_symmetry_cell_setting 'monoclinic'
loop_
_space_group_symop_operation_xyz
x,y,z
-x,y,1/2-z
-x,-y,-z
x,-y,1/2+z
1/2+x,1/2+y,z
1/2-x,1/2+y,1/2-z
1/2-x,1/2-y,-z
1/2+x,1/2-y,1/2+z
loop_
_atom_site_type_symbol
_atom_site_label
_atom_site_fract_x
_atom_site_fract_y
_atom_site_fract_z
Si Si1 0.596003 0.262230 0.625315
Si Si2 0.297827 0.393484 0.925488
Si Si3 0.328272 0.812960 0.436516
Si Si4 0.500000 0.907760 0.250000
Si Si5 0.544841 0.177070 0.944164
Si Si6 0.452974 0.926920 0.580074
Si Si7 0.809621 0.023961 0.286370
O O1 0.614347 0.225875 0.563673
O O2 0.583615 0.223432 0.692277
O O3 0.790225 0.298625 0.893990
O O4 0.392020 0.295619 0.337160
O O5 0.173977 0.348528 0.703603
O O6 0.355008 0.437265 0.931255
O O7 0.153524 0.417808 0.800936
O O8 0.500000 0.372541 0.250000
O O9 0.500000 0.809462 0.750000
O O10 0.330150 0.872764 0.406520
O O11 0.437554 0.870363 0.245681
O O12 0.679471 0.942728 0.535502
O O13 0.500000 0.936292 0.750000
O O14 0.327778 0.975877 0.371831
O O15 0.000000 0.000000 0.500000
#
# Coordination Sequence:
#
# PCOD9278972 Si02
#       7
#     8   8   8   4   8   8   8
#     4  10  21  39  58  92 123 171 214 269 320 393
#     4  11  24  40  63  96 132 174 217 274 337 393
#     4  10  21  33  58  87 129 167 214 261 328 383
#     4  10  24  44  68  94 130 172 218 274 326 384
#     4  10  23  41  66  90 132 167 221 266 330 388
#     4  11  22  39  62  93 129 172 218 271 325 394
#     4  11  24  44  70  94 130 171 224 275 337 394
#
# _framework density 20.360378999999998
#
# number of rings (size 3 to 8) (size 9 to 14) (size 15 to 20)
#    0.000    1.538    2.308    1.846    8.615    3.077 
#    0.000    0.000    0.000    5.538    0.000    0.000 
#    0.000    0.000    0.000    0.000    0.000    0.000 
#
# Total GULP energy -145352.422184 kJ/mol
# GULP energy per Si atom -5590.477776 kJ/mol
# Density = 2.031404 g / cm^3
# Si number density = 20.360379 Si / 1000 Ang^3
#
#
#
# Elastic Constant Matrix: (Units=GPa)
#
#
# Indices 1 2 3 4 5 6 
#
# 1 78.1692 18.9912 35.6621 0.0000 13.2632 0.0000
# 2 18.9912 87.9463 26.5689 0.0000 -3.0294 0.0000
# 3 35.6621 26.5689 47.2835 -0.0001 -0.7354 -0.0001
# 4 0.0000 0.0000 -0.0001 19.8851 0.0000 -5.7052
# 5 13.2632 -3.0294 -0.7354 0.0000 35.2853 0.0000
# 6 0.0000 0.0000 -0.0001 -5.7052 0.0000 30.0652
#
#
#
# Elastic Compliance Matrix: (Units=1/GPa)
#
#
# Indices 1 2 3 4 5 6 
#
# 1 0.021806 0.000007 -0.016583 0.000000 -0.008542 0.000000
# 2 0.000007 0.013732 -0.007705 0.000000 0.001016 0.000000
# 3 -0.016583 -0.007705 0.038085 0.000000 0.006365 0.000000
# 4 0.000000 0.000000 0.000000 0.053185 0.000000 0.010092
# 5 -0.008542 0.001016 0.006365 0.000000 0.031771 0.000000
# 6 0.000000 0.000000 0.000000 0.010092 0.000000 0.035176
#
#
# Mechanical properties :
#
#
# Convention : Reuss Voigt Hill
#
# Bulk Modulus (GPa) = 39.90504 41.76037 40.83270
# Shear Modulus (GPa) = 19.94652 25.85892 22.90272
#
# Velocity S-wave (km/s) = 3.13337 3.56766 3.35754
# Velocity P-wave (km/s) = 5.72124 6.12585 5.92700
#
# Compressibility (1/GPa) = 0.02505949
#
# Stress axis : x y z
#
# Youngs Moduli (GPa) = 45.85939 72.82309 26.25717
#
# Poissons Ratio (x) = -0.00049 0.43542
# Poissons Ratio (y) = -0.00031 0.20232
# Poissons Ratio (z) = 0.76048 0.56113
#
# Static dielectric constant tensor:
#      x y z
#    x 1.734460 0.000000 -0.013090 
#    y 0.000000 1.720070 0.000000 
#    z -0.013090 0.000000 1.711500 
# 
# From -- ./inp_files/33476.got.cif
#   From: 2010.05.17/outbox.cif.g08.bks.cpg/sg15_17_cif.got.tgz:33476.got - 2010.06.03 18:47:42.
