data_PCOD9278781
_publ_section_title
;
Structure prediction by ZEFSAII (Michael W. Deem and Ramdas Pophale) SiO2 
 PCOD9278781
Probable space group: C 2/C
;
_chemical_formula_sum "Si O2"
_cell_formula_units_Z 52
_cell_length_a 17.213180
_cell_length_b 10.324246
_cell_length_c 22.233145
_cell_angle_alpha 90.000000
_cell_angle_beta 42.689622
_cell_angle_gamma 90.000000
_cell_volume 2678.965068
_symmetry_space_group_name_H-M "C 2/C"
_symmetry_group_IT_number 15
_symmetry_cell_setting 'monoclinic'
loop_
_space_group_symop_operation_xyz
x,y,z
-x,y,1/2-z
-x,-y,-z
x,-y,1/2+z
1/2+x,1/2+y,z
1/2-x,1/2+y,1/2-z
1/2-x,1/2-y,-z
1/2+x,1/2-y,1/2+z
loop_
_atom_site_type_symbol
_atom_site_label
_atom_site_fract_x
_atom_site_fract_y
_atom_site_fract_z
Si Si1 0.634718 0.524381 0.926000
Si Si2 0.277629 0.112208 0.955056
Si Si3 0.671907 0.853606 0.508627
Si Si4 0.783007 0.264335 0.148736
Si Si5 0.337927 0.858909 0.246778
Si Si6 0.000000 0.681075 0.750000
Si Si7 0.551050 0.859108 0.788684
O O1 0.677116 0.567509 0.967561
O O2 0.682517 0.383673 0.882412
O O3 0.705611 0.625619 0.843683
O O4 0.500000 0.500000 0.000000
O O5 0.395815 0.118778 0.849041
O O6 0.292621 0.998758 0.994321
O O7 0.250000 0.250000 0.000000
O O8 0.750000 0.750000 0.500000
O O9 0.682889 0.836264 0.431450
O O10 0.546104 0.832479 0.607296
O O11 0.839329 0.319224 0.176879
O O12 0.646477 0.252425 0.234524
O O13 0.416645 0.764837 0.243991
O O14 0.393911 0.000794 0.226412
O O15 0.500000 0.865206 0.750000
#
# Coordination Sequence:
#
# PCOD9278781 Si02
#       7
#     8   8   8   8   8   4   8
#     4  10  23  42  63  94 138 170 211 282 346 385
#     4  11  24  44  70  96 128 183 228 271 338 410
#     4  12  22  41  71  99 132 176 228 274 337 410
#     4  11  25  39  65 106 128 172 232 282 336 394
#     4  10  21  41  66  91 132 176 224 272 337 405
#     4  10  20  46  68  86 132 184 224 266 336 414
#     4  11  20  42  69  91 136 185 221 272 346 413
#
# _framework density 19.41048
#
# number of rings (size 3 to 8) (size 9 to 14) (size 15 to 20)
#    0.000    1.231    5.385    0.923    4.308    0.615 
#   11.077    1.538    0.000    0.000    0.000    0.000 
#    0.000    0.000    0.000    0.000    0.000    0.000 
#
# Total GULP energy -144849.721488 kJ/mol
# GULP energy per Si atom -5571.143134 kJ/mol
# Density = 1.936630 g / cm^3
# Si number density = 19.410480 Si / 1000 Ang^3
#
#
#
# Elastic Constant Matrix: (Units=GPa)
#
#
# Indices 1 2 3 4 5 6 
#
# 1 165.9864 44.2440 88.6761 0.0000 20.6684 0.0000
# 2 44.2440 63.0586 48.5867 0.0000 11.9417 0.0000
# 3 88.6761 48.5867 137.1163 0.0000 1.4871 0.0000
# 4 0.0000 0.0000 0.0000 24.5050 0.0000 6.9335
# 5 20.6684 11.9417 1.4871 0.0000 55.7650 0.0000
# 6 0.0000 0.0000 0.0000 6.9335 0.0000 25.9666
#
#
#
# Elastic Compliance Matrix: (Units=1/GPa)
#
#
# Indices 1 2 3 4 5 6 
#
# 1 0.010010 -0.002022 -0.005724 0.000000 -0.003125 0.000000
# 2 -0.002022 0.023394 -0.006938 0.000000 -0.004075 0.000000
# 3 -0.005724 -0.006938 0.013418 0.000000 0.003249 0.000000
# 4 0.000000 0.000000 0.000000 0.044143 0.000000 -0.011787
# 5 -0.003125 -0.004075 0.003249 0.000000 0.019877 0.000000
# 6 0.000000 0.000000 0.000000 -0.011787 0.000000 0.041658
#
#
# Mechanical properties :
#
#
# Convention : Reuss Voigt Hill
#
# Bulk Modulus (GPa) = 57.28763 81.01944 69.15354
# Shear Modulus (GPa) = 26.64030 33.55761 30.09895
#
# Velocity S-wave (km/s) = 3.70870 4.16244 3.94211
# Velocity P-wave (km/s) = 6.92222 8.05803 7.51163
#
# Compressibility (1/GPa) = 0.01745577
#
# Stress axis : x y z
#
# Youngs Moduli (GPa) = 99.89686 42.74542 74.52763
#
# Poissons Ratio (x) = 0.08642 0.42656
# Poissons Ratio (y) = 0.20198 0.51707
# Poissons Ratio (z) = 0.57177 0.29657
#
# Static dielectric constant tensor:
#      x y z
#    x 1.745360 0.000000 -0.054030 
#    y 0.000000 1.680450 0.000000 
#    z -0.054030 0.000000 1.717700 
# 
# From -- ./inp_files/243640.got.cif
#   From: 2010.05.17/outbox.cif.g08.bks.cpg/sg15_122_cif.got.tgz:243640.got - 2010.06.03 18:47:42.
