data_PCOD9278047
_publ_section_title
;
Structure prediction by ZEFSAII (Michael W. Deem and Ramdas Pophale) SiO2 
 PCOD9278047
Probable space group: C 2/C
;
_chemical_formula_sum "Si O2"
_cell_formula_units_Z 56
_cell_length_a 11.209793
_cell_length_b 9.119595
_cell_length_c 27.586447
_cell_angle_alpha 90.000000
_cell_angle_beta 67.955741
_cell_angle_gamma 90.000000
_cell_volume 2613.960869
_symmetry_space_group_name_H-M "C 2/C"
_symmetry_group_IT_number 15
_symmetry_cell_setting 'monoclinic'
loop_
_space_group_symop_operation_xyz
x,y,z
-x,y,1/2-z
-x,-y,-z
x,-y,1/2+z
1/2+x,1/2+y,z
1/2-x,1/2+y,1/2-z
1/2-x,1/2-y,-z
1/2+x,1/2-y,1/2+z
loop_
_atom_site_type_symbol
_atom_site_label
_atom_site_fract_x
_atom_site_fract_y
_atom_site_fract_z
Si Si1 0.748008 0.686084 0.398810
Si Si2 0.330062 0.268076 0.867682
Si Si3 0.848445 0.829976 0.020460
Si Si4 0.361417 0.985078 0.129251
Si Si5 0.485220 0.525164 0.416863
Si Si6 0.551191 0.794034 0.557243
Si Si7 0.539137 0.997778 0.690516
O O1 0.623861 0.585333 0.410069
O O2 0.802990 0.687864 0.445546
O O3 0.865618 0.620474 0.348936
O O4 0.701072 0.844597 0.386769
O O5 0.241517 0.173916 0.918228
O O6 0.241572 0.386134 0.855608
O O7 0.428693 0.365161 0.885021
O O8 0.389585 0.154172 0.821525
O O9 0.980312 0.746597 0.017244
O O10 0.750000 0.750000 0.000000
O O11 0.896443 0.960475 0.978581
O O12 0.481853 0.052813 0.081062
O O13 0.417778 0.969616 0.174186
O O14 0.487174 0.352302 0.405227
O O15 0.500000 0.952604 0.750000
#
# Coordination Sequence:
#
# PCOD9278047 Si02
#       7
#     8   8   8   8   8   8   8
#     4  11  22  39  65  89 125 164 206 259 314 374
#     4  10  20  42  65  88 131 169 204 261 315 372
#     4   9  20  36  62  95 127 171 216 251 302 379
#     4  10  21  41  63  91 125 159 207 258 314 378
#     4  11  20  38  65  93 128 170 211 252 315 371
#     4  10  21  37  60  89 126 169 205 254 306 366
#     4  11  25  43  66  92 120 160 212 263 323 382
#
# _framework density 21.423428000000001
#
# number of rings (size 3 to 8) (size 9 to 14) (size 15 to 20)
#    0.000    1.714    2.857    2.143    0.000    1.714 
#    0.000    6.429    0.000    0.000    0.000    0.000 
#    0.000    0.000    0.000    0.000    0.000    0.000 
#
# Total GULP energy -156046.696813 kJ/mol
# GULP energy per Si atom -5573.096315 kJ/mol
# Density = 2.137467 g / cm^3
# Si number density = 21.423428 Si / 1000 Ang^3
#
#
#
# Elastic Constant Matrix: (Units=GPa)
#
#
# Indices 1 2 3 4 5 6 
#
# 1 146.0050 39.2586 13.8893 0.0000 5.6789 0.0000
# 2 39.2586 115.3107 21.9262 0.0000 -5.9391 0.0000
# 3 13.8893 21.9262 60.5173 0.0000 -10.2881 0.0000
# 4 0.0000 0.0000 0.0000 21.2972 0.0000 -6.2493
# 5 5.6789 -5.9391 -10.2881 0.0000 15.4447 0.0000
# 6 0.0000 0.0000 0.0000 -6.2493 0.0000 45.7021
#
#
#
# Elastic Compliance Matrix: (Units=1/GPa)
#
#
# Indices 1 2 3 4 5 6 
#
# 1 0.007917 -0.002628 -0.001727 0.000000 -0.005072 0.000000
# 2 -0.002628 0.010218 -0.002556 0.000000 0.003193 0.000000
# 3 -0.001727 -0.002556 0.020059 0.000000 0.013014 0.000000
# 4 0.000000 0.000000 0.000000 0.048917 0.000000 0.006689
# 5 -0.005072 0.003193 0.013014 0.000000 0.076509 0.000000
# 6 0.000000 0.000000 0.000000 0.006689 0.000000 0.022796
#
#
# Mechanical properties :
#
#
# Convention : Reuss Voigt Hill
#
# Bulk Modulus (GPa) = 41.03211 52.44237 46.73724
# Shear Modulus (GPa) = 23.99662 32.93938 28.46800
#
# Velocity S-wave (km/s) = 3.35044 3.92540 3.64926
# Velocity P-wave (km/s) = 5.84480 6.71395 6.29440
#
# Compressibility (1/GPa) = 0.02437116
#
# Stress axis : x y z
#
# Youngs Moduli (GPa) = 126.30393 97.87089 49.85275
#
# Poissons Ratio (x) = 0.25724 0.08610
# Poissons Ratio (y) = 0.33198 0.12742
# Poissons Ratio (z) = 0.21814 0.25015
#
# Static dielectric constant tensor:
#      x y z
#    x 1.953960 0.000000 -0.119080 
#    y 0.000000 1.957230 0.000000 
#    z -0.119080 0.000000 1.911090 
# 
# From -- ./inp_files/309927.got.cif
#   From: 2010.05.17/outbox.cif.g08.bks.cpg/sg15_155_cif.got.tgz:309927.got - 2010.06.03 18:47:42.
