data_PCOD9278185
_publ_section_title
;
Structure prediction by ZEFSAII (Michael W. Deem and Ramdas Pophale) SiO2 
 PCOD9278185
Probable space group: C 2/C
;
_chemical_formula_sum "Si O2"
_cell_formula_units_Z 48
_cell_length_a 7.742189
_cell_length_b 19.096487
_cell_length_c 11.369682
_cell_angle_alpha 90.000000
_cell_angle_beta 89.084554
_cell_angle_gamma 90.000000
_cell_volume 1680.777139
_symmetry_space_group_name_H-M "C 2/C"
_symmetry_group_IT_number 15
_symmetry_cell_setting 'monoclinic'
loop_
_space_group_symop_operation_xyz
x,y,z
-x,y,1/2-z
-x,-y,-z
x,-y,1/2+z
1/2+x,1/2+y,z
1/2-x,1/2+y,1/2-z
1/2-x,1/2-y,-z
1/2+x,1/2-y,1/2+z
loop_
_atom_site_type_symbol
_atom_site_label
_atom_site_fract_x
_atom_site_fract_y
_atom_site_fract_z
Si Si1 0.846459 0.687243 0.335044
Si Si2 0.764085 0.605470 0.789023
Si Si3 0.849136 0.526540 0.414215
Si Si4 0.895489 0.142372 0.343881
Si Si5 0.909648 0.896122 0.438973
Si Si6 0.113227 0.313040 0.005122
O O1 0.862974 0.603374 0.356746
O O2 0.677838 0.696836 0.254867
O O3 0.000000 0.715510 0.250000
O O4 0.926425 0.709616 0.459595
O O5 0.830429 0.527265 0.808022
O O6 0.727756 0.628365 0.657062
O O7 0.582497 0.600724 0.861104
O O8 0.883973 0.654433 0.866710
O O9 0.680093 0.536096 0.500868
O O10 0.000000 0.500000 0.500000
O O11 0.030734 0.149036 0.449408
O O12 0.000000 0.092177 0.250000
O O13 0.715428 0.131447 0.417036
O O14 0.250000 0.250000 0.000000
#
# Coordination Sequence:
#
# PCOD9278185 Si02
#       6
#     8   8   8   8   8   8
#     4  10  22  40  64  95 125 175 219 265 339 403
#     4  10  23  41  64  93 130 180 222 263 340 402
#     4  12  23  37  64  96 140 168 218 276 336 408
#     4  10  20  42  67  93 125 169 226 270 327 399
#     4  10  23  41  61  96 135 173 217 270 334 404
#     4  10  22  45  67  90 130 174 223 277 336 400
#
# _framework density 28.558218
#
# number of rings (size 3 to 8) (size 9 to 14) (size 15 to 20)
#    0.000    1.667    3.333    0.500    2.333    2.667 
#   18.000    2.500    0.000    0.000    0.000    0.000 
#    0.000    0.000    0.000    0.000    0.000    0.000 
#
# Total GULP energy -133756.363754 kJ/mol
# GULP energy per Si atom -5573.181823 kJ/mol
# Density = 2.849322 g / cm^3
# Si number density = 28.558218 Si / 1000 Ang^3
#
#
#
# Elastic Constant Matrix: (Units=GPa)
#
#
# Indices 1 2 3 4 5 6 
#
# 1 205.5767 36.8977 95.6772 0.0000 50.6404 0.0000
# 2 36.8977 83.2492 25.7790 0.0000 25.4749 0.0000
# 3 95.6772 25.7790 222.0318 0.0000 48.1550 0.0000
# 4 0.0000 0.0000 0.0000 5.0388 0.0000 -1.6244
# 5 50.6404 25.4749 48.1550 0.0000 87.4458 0.0000
# 6 0.0000 0.0000 0.0000 -1.6244 0.0000 29.5687
#
#
#
# Elastic Compliance Matrix: (Units=1/GPa)
#
#
# Indices 1 2 3 4 5 6 
#
# 1 0.006739 -0.001621 -0.002239 0.000000 -0.002197 0.000000
# 2 -0.001621 0.013702 -0.000261 0.000000 -0.002909 0.000000
# 3 -0.002239 -0.000261 0.005907 0.000000 -0.001880 0.000000
# 4 0.000000 0.000000 0.000000 0.202039 0.000000 0.011099
# 5 -0.002197 -0.002909 -0.001880 0.000000 0.014591 0.000000
# 6 0.000000 0.000000 0.000000 0.011099 0.000000 0.034429
#
#
# Mechanical properties :
#
#
# Convention : Reuss Voigt Hill
#
# Bulk Modulus (GPa) = 55.23602 91.95173 73.59387
# Shear Modulus (GPa) = 17.14185 47.91092 32.52639
#
# Velocity S-wave (km/s) = 2.45264 4.10037 3.37849
# Velocity P-wave (km/s) = 5.23490 7.39495 6.40661
#
# Compressibility (1/GPa) = 0.01810413
#
# Stress axis : x y z
#
# Youngs Moduli (GPa) = 148.39861 72.98374 169.29672
#
# Poissons Ratio (x) = 0.11831 0.37906
# Poissons Ratio (y) = 0.24055 0.04426
# Poissons Ratio (z) = 0.33227 0.01908
#
# Static dielectric constant tensor:
#      x y z
#    x 2.422460 0.000000 -0.031330 
#    y 0.000000 2.263860 0.000000 
#    z -0.031330 0.000000 2.239020 
# 
# From -- ./inp_files/79259.got.cif
#   From: 2010.05.17/outbox.cif.g08.bks.cpg/sg15_40_cif.got.tgz:79259.got - 2010.06.03 18:47:42.
