data_PCOD9278638
_publ_section_title
;
Structure prediction by ZEFSAII (Michael W. Deem and Ramdas Pophale) SiO2 
 PCOD9278638
Probable space group: C 2/C
;
_chemical_formula_sum "Si O2"
_cell_formula_units_Z 52
_cell_length_a 8.296340
_cell_length_b 11.824020
_cell_length_c 24.156713
_cell_angle_alpha 90.000000
_cell_angle_beta 99.382800
_cell_angle_gamma 90.000000
_cell_volume 2337.975507
_symmetry_space_group_name_H-M "C 2/C"
_symmetry_group_IT_number 15
_symmetry_cell_setting 'monoclinic'
loop_
_space_group_symop_operation_xyz
x,y,z
-x,y,1/2-z
-x,-y,-z
x,-y,1/2+z
1/2+x,1/2+y,z
1/2-x,1/2+y,1/2-z
1/2-x,1/2-y,-z
1/2+x,1/2-y,1/2+z
loop_
_atom_site_type_symbol
_atom_site_label
_atom_site_fract_x
_atom_site_fract_y
_atom_site_fract_z
Si Si1 0.000000 0.917509 0.250000
Si Si2 0.791920 0.205766 0.585411
Si Si3 0.211249 0.167729 0.414703
Si Si4 0.273957 0.982195 0.339247
Si Si5 0.531980 0.847246 0.475336
Si Si6 0.128161 0.857718 0.140949
Si Si7 0.870445 0.465860 0.609910
O O1 0.841000 0.985657 0.220290
O O2 0.940666 0.850686 0.300962
O O3 0.717773 0.146095 0.636926
O O4 0.662898 0.162684 0.532768
O O5 0.813640 0.339377 0.593707
O O6 0.974436 0.156828 0.591063
O O7 0.368691 0.147929 0.462549
O O8 0.083633 0.231261 0.446703
O O9 0.253388 0.255722 0.368610
O O10 0.178744 0.051734 0.381870
O O11 0.456394 0.031385 0.347533
O O12 0.591794 0.952845 0.441148
O O13 0.228810 0.970908 0.135742
#
# Coordination Sequence:
#
# PCOD9278638 Si02
#       7
#     4   8   8   8   8   8   8
#     4  10  24  44  62  96 118 168 226 272 328 378
#     4  10  21  39  64  96 131 169 210 262 314 397
#     4  10  20  44  66  95 138 170 209 274 316 401
#     4  10  22  43  63  92 129 166 220 272 319 382
#     4   9  22  39  65 101 134 174 211 248 339 392
#     4  10  22  43  65  90 131 164 221 268 320 378
#     4  10  21  42  66  97 131 172 210 264 323 400
#
# _framework density 22.241464000000001
#
# number of rings (size 3 to 8) (size 9 to 14) (size 15 to 20)
#    0.000    2.154    1.538    0.000    4.308    3.692 
#   11.077    2.308    0.000    0.000    0.000    0.000 
#    0.000    0.000    0.000    0.000    0.000    0.000 
#
# Total GULP energy -145158.816319 kJ/mol
# GULP energy per Si atom -5583.031397 kJ/mol
# Density = 2.219084 g / cm^3
# Si number density = 22.241464 Si / 1000 Ang^3
#
#
#
# Elastic Constant Matrix: (Units=GPa)
#
#
# Indices 1 2 3 4 5 6 
#
# 1 68.4489 28.3147 28.7176 0.0000 9.1826 0.0000
# 2 28.3147 118.2196 24.8344 0.0000 3.7884 0.0000
# 3 28.7176 24.8344 98.5737 0.0000 16.5632 0.0000
# 4 0.0000 0.0000 0.0000 15.9094 0.0000 -0.8440
# 5 9.1826 3.7884 16.5632 0.0000 43.9216 0.0000
# 6 0.0000 0.0000 0.0000 -0.8440 0.0000 38.3310
#
#
#
# Elastic Compliance Matrix: (Units=1/GPa)
#
#
# Indices 1 2 3 4 5 6 
#
# 1 0.017974 -0.003391 -0.004057 0.000000 -0.001935 0.000000
# 2 -0.003391 0.009571 -0.001499 0.000000 0.000449 0.000000
# 3 -0.004057 -0.001499 0.012321 0.000000 -0.003669 0.000000
# 4 0.000000 0.000000 0.000000 0.062929 0.000000 0.001386
# 5 -0.001935 0.000449 -0.003669 0.000000 0.024517 0.000000
# 6 0.000000 0.000000 0.000000 0.001386 0.000000 0.026119
#
#
# Mechanical properties :
#
#
# Convention : Reuss Voigt Hill
#
# Bulk Modulus (GPa) = 45.51065 49.88618 47.69841
# Shear Modulus (GPa) = 27.98789 33.19078 30.58934
#
# Velocity S-wave (km/s) = 3.55119 3.86721 3.71257
# Velocity P-wave (km/s) = 6.10910 6.51295 6.31425
#
# Compressibility (1/GPa) = 0.02197288
#
# Stress axis : x y z
#
# Youngs Moduli (GPa) = 55.63688 104.47754 81.16425
#
# Poissons Ratio (x) = 0.35424 0.32927
# Poissons Ratio (y) = 0.18864 0.12166
# Poissons Ratio (z) = 0.22571 0.15661
#
# Static dielectric constant tensor:
#      x y z
#    x 1.867580 0.000000 -0.000500 
#    y 0.000000 1.852650 0.000000 
#    z -0.000500 0.000000 1.850570 
# 
# From -- ./inp_files/287709.got.cif
#   From: 2010.05.17/outbox.cif.g08.bks.cpg/sg15_144_cif.got.tgz:287709.got - 2010.06.03 18:47:42.
