data_PCOD9278834
_publ_section_title
;
Structure prediction by ZEFSAII (Michael W. Deem and Ramdas Pophale) SiO2 
 PCOD9278834
Probable space group: C 2/C
;
_chemical_formula_sum "Si O2"
_cell_formula_units_Z 52
_cell_length_a 18.438383
_cell_length_b 18.317834
_cell_length_c 14.534159
_cell_angle_alpha 90.000000
_cell_angle_beta 150.678172
_cell_angle_gamma 90.000000
_cell_volume 2403.975034
_symmetry_space_group_name_H-M "C 2/C"
_symmetry_group_IT_number 15
_symmetry_cell_setting 'monoclinic'
loop_
_space_group_symop_operation_xyz
x,y,z
-x,y,1/2-z
-x,-y,-z
x,-y,1/2+z
1/2+x,1/2+y,z
1/2-x,1/2+y,1/2-z
1/2-x,1/2-y,-z
1/2+x,1/2-y,1/2+z
loop_
_atom_site_type_symbol
_atom_site_label
_atom_site_fract_x
_atom_site_fract_y
_atom_site_fract_z
Si Si1 0.576730 0.310255 0.678879
Si Si2 0.260570 0.816674 0.252045
Si Si3 0.500000 0.212507 0.750000
Si Si4 0.472109 0.086757 0.425963
Si Si5 0.280833 0.210345 0.147767
Si Si6 0.666477 0.084941 0.041635
Si Si7 0.500000 0.725091 0.750000
Si Si8 0.000000 0.473224 0.750000
O O1 0.645418 0.251099 0.684782
O O2 0.401346 0.322120 0.470992
O O3 0.597648 0.268563 0.798711
O O4 0.667535 0.385019 0.769072
O O5 0.363663 0.887082 0.364993
O O6 0.238461 0.790928 0.331992
O O7 0.422990 0.157640 0.591757
O O8 0.365975 0.158706 0.311330
O O9 0.402306 0.049244 0.440595
O O10 0.463770 0.065001 0.308294
O O11 0.393450 0.222942 0.189866
O O12 0.118976 0.181332 0.941773
O O13 0.636770 0.025893 0.929201
#
# Coordination Sequence:
#
# PCOD9278834 Si02
#       8
#     8   8   4   8   8   8   4   4
#     4  12  21  37  64 108 138 159 199 274 352 391
#     4  12  21  36  63 104 137 160 203 266 357 378
#     4  11  20  36  71 109 136 157 208 268 356 391
#     4  12  23  44  66  94 130 177 219 272 311 400
#     4  11  19  34  56  94 133 162 199 264 333 384
#     4  11  24  44  68  93 135 170 222 269 320 389
#     4  10  21  28  51  91 138 161 200 246 324 400
#     4  11  29  46  66  88 122 196 236 246 310 385
#
# _framework density 21.630839000000002
#
# number of rings (size 3 to 8) (size 9 to 14) (size 15 to 20)
#    0.000    0.615    7.692    1.385    2.154    0.000 
#    0.000    0.769    0.000    4.615    0.000    0.000 
#    0.000    0.000    0.000    0.000    0.000    0.000 
#
# Total GULP energy -144877.004398 kJ/mol
# GULP energy per Si atom -5572.192477 kJ/mol
# Density = 2.158161 g / cm^3
# Si number density = 21.630839 Si / 1000 Ang^3
#
#
#
# Elastic Constant Matrix: (Units=GPa)
#
#
# Indices 1 2 3 4 5 6 
#
# 1 110.4922 36.0894 42.6713 0.0000 -8.4589 0.0000
# 2 36.0894 55.7483 26.3277 0.0000 1.5356 0.0000
# 3 42.6713 26.3277 162.9939 0.0000 14.3566 0.0000
# 4 0.0000 0.0000 0.0000 27.0430 0.0000 -10.9810
# 5 -8.4589 1.5356 14.3566 0.0000 28.0000 0.0000
# 6 0.0000 0.0000 0.0000 -10.9810 0.0000 28.7830
#
#
#
# Elastic Compliance Matrix: (Units=1/GPa)
#
#
# Indices 1 2 3 4 5 6 
#
# 1 0.012890 -0.007222 -0.002708 0.000000 0.005679 0.000000
# 2 -0.007222 0.023474 -0.001671 0.000000 -0.002612 0.000000
# 3 -0.002708 -0.001671 0.007518 0.000000 -0.004581 0.000000
# 4 0.000000 0.000000 0.000000 0.043757 0.000000 0.016694
# 5 0.005679 -0.002612 -0.004581 0.000000 0.039922 0.000000
# 6 0.000000 0.000000 0.000000 0.016694 0.000000 0.041111
#
#
# Mechanical properties :
#
#
# Convention : Reuss Voigt Hill
#
# Bulk Modulus (GPa) = 48.35699 59.93460 54.14579
# Shear Modulus (GPa) = 25.15514 31.70828 28.43171
#
# Velocity S-wave (km/s) = 3.41387 3.83284 3.62941
# Velocity P-wave (km/s) = 6.15983 6.88154 6.53066
#
# Compressibility (1/GPa) = 0.02067953
#
# Stress axis : x y z
#
# Youngs Moduli (GPa) = 77.58031 42.60036 133.02135
#
# Poissons Ratio (x) = 0.30765 0.36025
# Poissons Ratio (y) = 0.56027 0.22226
# Poissons Ratio (z) = 0.21010 0.07118
#
# Static dielectric constant tensor:
#      x y z
#    x 1.959960 0.000000 -0.067550 
#    y 0.000000 1.850310 0.000000 
#    z -0.067550 0.000000 1.873700 
# 
# From -- ./inp_files/163668.got.cif
#   From: 2010.05.17/outbox.cif.g08.bks.cpg/sg15_82_cif.got.tgz:163668.got - 2010.06.03 18:47:42.
