data_PCOD9278531
_publ_section_title
;
Structure prediction by ZEFSAII (Michael W. Deem and Ramdas Pophale) SiO2 
 PCOD9278531
Probable space group: C 2/C
;
_chemical_formula_sum "Si O2"
_cell_formula_units_Z 48
_cell_length_a 8.050572
_cell_length_b 29.316565
_cell_length_c 17.369499
_cell_angle_alpha 90.000000
_cell_angle_beta 151.279772
_cell_angle_gamma 90.000000
_cell_volume 1969.928473
_symmetry_space_group_name_H-M "C 2/C"
_symmetry_group_IT_number 15
_symmetry_cell_setting 'monoclinic'
loop_
_space_group_symop_operation_xyz
x,y,z
-x,y,1/2-z
-x,-y,-z
x,-y,1/2+z
1/2+x,1/2+y,z
1/2-x,1/2+y,1/2-z
1/2-x,1/2-y,-z
1/2+x,1/2-y,1/2+z
loop_
_atom_site_type_symbol
_atom_site_label
_atom_site_fract_x
_atom_site_fract_y
_atom_site_fract_z
Si Si1 0.746580 0.311430 0.421885
Si Si2 0.140031 0.861771 0.005515
Si Si3 0.408994 0.606966 0.837619
Si Si4 0.674436 0.515148 0.990385
Si Si5 0.597473 0.566019 0.203427
Si Si6 0.386352 0.274442 0.430058
O O1 0.500000 0.300097 0.250000
O O2 0.721703 0.365665 0.424060
O O3 0.602108 0.292144 0.444267
O O4 0.071332 0.279171 0.538811
O O5 0.080736 0.881569 0.067211
O O6 0.548822 0.872502 0.158774
O O7 0.042271 0.808528 0.970252
O O8 0.914292 0.889486 0.853876
O O9 0.447173 0.552829 0.852103
O O10 0.037049 0.539974 0.152697
O O11 0.500000 0.500000 0.000000
O O12 0.684579 0.469592 0.944323
O O13 0.500000 0.577448 0.250000
O O14 0.000000 0.285088 0.250000
#
# Coordination Sequence:
#
# PCOD9278531 Si02
#       6
#     8   8   8   8   8   8
#     4  10  22  40  67 103 137 178 240 298 360 411
#     4  10  20  43  70  99 140 189 243 283 361 430
#     4  10  21  42  71  99 138 189 238 298 349 434
#     4  12  25  44  73 105 146 194 242 291 361 448
#     4  12  27  45  70 111 148 187 239 308 364 426
#     4  10  20  44  69  99 139 191 238 290 356 436
#
# _framework density 24.366367
#
# number of rings (size 3 to 8) (size 9 to 14) (size 15 to 20)
#    0.000    1.333    5.000    2.000    2.333    2.667 
#    9.000    0.833    0.000    0.000    0.000    0.000 
#    0.000    0.000    0.000    0.000    0.000    0.000 
#
# Total GULP energy -134231.595005 kJ/mol
# GULP energy per Si atom -5592.983125 kJ/mol
# Density = 2.431091 g / cm^3
# Si number density = 24.366367 Si / 1000 Ang^3
#
#
#
# Elastic Constant Matrix: (Units=GPa)
#
#
# Indices 1 2 3 4 5 6 
#
# 1 89.6143 40.2807 36.8197 0.0000 -12.5129 0.0000
# 2 40.2807 121.5766 12.4108 0.0000 7.3910 0.0000
# 3 36.8197 12.4108 68.4578 0.0001 1.4521 0.0002
# 4 0.0000 0.0000 0.0001 26.2901 0.0000 3.8682
# 5 -12.5129 7.3910 1.4521 0.0000 25.0498 0.0000
# 6 0.0000 0.0000 0.0002 3.8682 0.0000 47.9853
#
#
#
# Elastic Compliance Matrix: (Units=1/GPa)
#
#
# Indices 1 2 3 4 5 6 
#
# 1 0.019675 -0.006272 -0.009704 0.000000 0.012241 0.000000
# 2 -0.006272 0.010525 0.001600 0.000000 -0.006331 0.000000
# 3 -0.009704 0.001600 0.019674 0.000000 -0.006460 0.000000
# 4 0.000000 0.000000 0.000000 0.038494 0.000000 -0.003103
# 5 0.012241 -0.006331 -0.006460 0.000000 0.048278 0.000000
# 6 0.000000 0.000000 0.000000 -0.003103 0.000000 0.021090
#
#
# Mechanical properties :
#
#
# Convention : Reuss Voigt Hill
#
# Bulk Modulus (GPa) = 47.34904 50.96345 49.15624
# Shear Modulus (GPa) = 25.83594 32.54086 29.18840
#
# Velocity S-wave (km/s) = 3.25978 3.65839 3.46482
# Velocity P-wave (km/s) = 5.80022 6.22945 6.01866
#
# Compressibility (1/GPa) = 0.02111975
#
# Stress axis : x y z
#
# Youngs Moduli (GPa) = 50.82680 95.01246 50.82829
#
# Poissons Ratio (x) = 0.59593 0.49326
# Poissons Ratio (y) = 0.31879 -0.08131
# Poissons Ratio (z) = 0.49325 -0.15198
#
# Static dielectric constant tensor:
#      x y z
#    x 1.992020 0.000000 0.054650 
#    y 0.000000 1.970970 0.000000 
#    z 0.054650 0.000000 1.962580 
# 
# From -- ./inp_files/194306.got.cif
#   From: 2010.05.17/outbox.cif.g08.bks.cpg/sg15_98_cif.got.tgz:194306.got - 2010.06.03 18:47:42.
