data_PCOD9278094
_publ_section_title
;
Structure prediction by ZEFSAII (Michael W. Deem and Ramdas Pophale) SiO2 
 PCOD9278094
Probable space group: C 2/C
;
_chemical_formula_sum "Si O2"
_cell_formula_units_Z 48
_cell_length_a 7.746502
_cell_length_b 29.081304
_cell_length_c 8.657994
_cell_angle_alpha 90.000000
_cell_angle_beta 101.317491
_cell_angle_gamma 90.000000
_cell_volume 1912.531787
_symmetry_space_group_name_H-M "C 2/C"
_symmetry_group_IT_number 15
_symmetry_cell_setting 'monoclinic'
loop_
_space_group_symop_operation_xyz
x,y,z
-x,y,1/2-z
-x,-y,-z
x,-y,1/2+z
1/2+x,1/2+y,z
1/2-x,1/2+y,1/2-z
1/2-x,1/2-y,-z
1/2+x,1/2-y,1/2+z
loop_
_atom_site_type_symbol
_atom_site_label
_atom_site_fract_x
_atom_site_fract_y
_atom_site_fract_z
Si Si1 0.632182 0.524449 0.403242
Si Si2 0.847604 0.116764 0.942988
Si Si3 0.344949 0.936635 0.344157
Si Si4 0.265697 0.862138 0.523125
Si Si5 0.795029 0.224121 0.670751
Si Si6 0.206276 0.187015 0.321245
O O1 0.500000 0.539439 0.250000
O O2 0.500000 0.500000 0.500000
O O3 0.711120 0.572071 0.471077
O O4 0.766420 0.485911 0.370922
O O5 0.763279 0.162065 0.008736
O O6 0.795130 0.096705 0.767616
O O7 0.057551 0.124304 0.990054
O O8 0.500000 0.941378 0.250000
O O9 0.376814 0.907295 0.503902
O O10 0.292858 0.824086 0.391796
O O11 0.300852 0.839167 0.695870
O O12 0.750000 0.250000 0.500000
O O13 0.740075 0.258905 0.797925
O O14 0.000000 0.214775 0.750000
O O15 0.000000 0.181432 0.250000
#
# Coordination Sequence:
#
# PCOD9278094 Si02
#       6
#     8   8   8   8   8   8
#     4  12  22  42  70  91 119 169 220 254 316 397
#     4  11  22  41  67  90 123 170 222 262 312 405
#     4  12  26  40  58  96 132 162 208 273 335 376
#     4  10  20  42  66  88 123 172 221 265 319 399
#     4  10  21  38  62  92 130 171 220 277 332 398
#     4   9  21  39  65  95 124 167 224 270 324 393
#
# _framework density 25.097622999999999
#
# number of rings (size 3 to 8) (size 9 to 14) (size 15 to 20)
#    0.000    1.333    3.333    3.000    0.000    4.000 
#    0.000   12.500    0.000    0.000    0.000    0.000 
#    0.000    0.000    0.000    0.000    0.000    0.000 
#
# Total GULP energy -133987.887652 kJ/mol
# GULP energy per Si atom -5582.828652 kJ/mol
# Density = 2.504050 g / cm^3
# Si number density = 25.097623 Si / 1000 Ang^3
#
#
#
# Elastic Constant Matrix: (Units=GPa)
#
#
# Indices 1 2 3 4 5 6 
#
# 1 91.9123 16.7942 10.9485 0.0000 -23.2560 0.0000
# 2 16.7942 160.7803 24.4884 0.0000 -28.7732 0.0000
# 3 10.9485 24.4884 61.5465 0.0000 -16.7305 0.0000
# 4 0.0000 0.0000 0.0000 48.4964 0.0000 -17.6566
# 5 -23.2560 -28.7732 -16.7305 0.0000 38.2794 0.0000
# 6 0.0000 0.0000 0.0000 -17.6566 0.0000 26.5166
#
#
#
# Elastic Compliance Matrix: (Units=1/GPa)
#
#
# Indices 1 2 3 4 5 6 
#
# 1 0.012859 0.000081 -0.000204 0.000000 0.007784 0.000000
# 2 0.000081 0.007325 -0.001610 0.000000 0.004851 0.000000
# 3 -0.000204 -0.001610 0.018795 0.000000 0.006881 0.000000
# 4 0.000000 0.000000 0.000000 0.027219 0.000000 0.018124
# 5 0.007784 0.004851 0.006881 0.000000 0.037506 0.000000
# 6 0.000000 0.000000 0.000000 0.018124 0.000000 0.049780
#
#
# Mechanical properties :
#
#
# Convention : Reuss Voigt Hill
#
# Bulk Modulus (GPa) = 28.15873 46.52238 37.34055
# Shear Modulus (GPa) = 29.62301 40.12567 34.87434
#
# Velocity S-wave (km/s) = 3.43929 4.00282 3.73171
# Velocity P-wave (km/s) = 5.19766 6.31983 5.78601
#
# Compressibility (1/GPa) = 0.03551297
#
# Stress axis : x y z
#
# Youngs Moduli (GPa) = 77.76669 136.52635 53.20528
#
# Poissons Ratio (x) = -0.01104 0.01084
# Poissons Ratio (y) = -0.00629 0.08566
# Poissons Ratio (z) = 0.01584 0.21981
#
# Static dielectric constant tensor:
#      x y z
#    x 2.062200 0.000000 0.139430 
#    y 0.000000 1.891360 0.000000 
#    z 0.139430 0.000000 2.256010 
# 
# From -- ./inp_files/26074.got.cif
#   From: 2010.05.17/outbox.cif.g08.bks.cpg/sg15_14_cif.got.tgz:26074.got - 2010.06.03 18:47:42.
