data_PCOD9278293
_publ_section_title
;
Structure prediction by ZEFSAII (Michael W. Deem and Ramdas Pophale) SiO2 
 PCOD9278293
Probable space group: C 2/C
;
_chemical_formula_sum "Si O2"
_cell_formula_units_Z 36
_cell_length_a 9.656875
_cell_length_b 10.987289
_cell_length_c 18.747647
_cell_angle_alpha 90.000000
_cell_angle_beta 140.275011
_cell_angle_gamma 90.000000
_cell_volume 1271.291084
_symmetry_space_group_name_H-M "C 2/C"
_symmetry_group_IT_number 15
_symmetry_cell_setting 'monoclinic'
loop_
_space_group_symop_operation_xyz
x,y,z
-x,y,1/2-z
-x,-y,-z
x,-y,1/2+z
1/2+x,1/2+y,z
1/2-x,1/2+y,1/2-z
1/2-x,1/2-y,-z
1/2+x,1/2-y,1/2+z
loop_
_atom_site_type_symbol
_atom_site_label
_atom_site_fract_x
_atom_site_fract_y
_atom_site_fract_z
Si Si1 0.131931 0.768957 0.873816
Si Si2 0.500000 0.103241 0.250000
Si Si3 0.939067 0.137477 0.500569
Si Si4 0.914640 0.541990 0.856118
Si Si5 0.319136 0.547729 0.596807
O O1 0.372586 0.725947 0.949759
O O2 0.000000 0.756761 0.750000
O O3 0.028150 0.669560 0.884301
O O4 0.104916 0.908473 0.884858
O O5 0.706092 0.165562 0.371152
O O6 0.607469 0.022427 0.229220
O O7 0.938178 0.133362 0.586869
O O8 0.000000 0.000000 0.500000
O O9 0.718392 0.562557 0.833152
O O10 0.079131 0.456380 0.965431
#
# Coordination Sequence:
#
# PCOD9278293 Si02
#       5
#     8   4   8   8   8
#     4  12  24  44  73 103 141 190 236 283 357 420
#     4  10  20  42  70 100 142 188 224 290 366 404
#     4  11  22  43  74 101 144 188 228 297 354 413
#     4  10  20  45  69  99 141 177 235 297 341 415
#     4  10  24  43  72 102 136 188 241 288 348 419
#
# _framework density 28.317671000000001
#
# number of rings (size 3 to 8) (size 9 to 14) (size 15 to 20)
#    0.000    1.333    5.556    0.667    0.000    3.556 
#    0.000   12.222    0.000    0.000    0.000    0.000 
#    0.000    0.000    0.000    0.000    0.000    0.000 
#
# Total GULP energy -100929.630476 kJ/mol
# GULP energy per Si atom -5607.201693 kJ/mol
# Density = 2.825322 g / cm^3
# Si number density = 28.317671 Si / 1000 Ang^3
#
#
#
# Elastic Constant Matrix: (Units=GPa)
#
#
# Indices 1 2 3 4 5 6 
#
# 1 196.3495 48.3082 89.7890 0.0000 -20.4853 0.0000
# 2 48.3082 110.2758 26.4269 0.0000 7.5441 0.0000
# 3 89.7890 26.4269 147.5212 0.0000 3.0246 0.0000
# 4 0.0000 0.0000 0.0000 60.0238 0.0000 -11.6470
# 5 -20.4853 7.5441 3.0246 0.0000 68.6415 0.0000
# 6 0.0000 0.0000 0.0000 -11.6470 0.0000 49.0086
#
#
#
# Elastic Compliance Matrix: (Units=1/GPa)
#
#
# Indices 1 2 3 4 5 6 
#
# 1 0.008125 -0.002674 -0.004526 0.000000 0.002918 0.000000
# 2 -0.002674 0.010420 -0.000199 0.000000 -0.001935 0.000000
# 3 -0.004526 -0.000199 0.009605 0.000000 -0.001752 0.000000
# 4 0.000000 0.000000 0.000000 0.017465 0.000000 0.004151
# 5 0.002918 -0.001935 -0.001752 0.000000 0.015729 0.000000
# 6 0.000000 0.000000 0.000000 0.004151 0.000000 0.021391
#
#
# Mechanical properties :
#
#
# Convention : Reuss Voigt Hill
#
# Bulk Modulus (GPa) = 74.90223 87.02163 80.96193
# Shear Modulus (GPa) = 49.02666 54.84295 51.93481
#
# Velocity S-wave (km/s) = 4.16542 4.40557 4.28718
# Velocity P-wave (km/s) = 7.04573 7.52835 7.29103
#
# Compressibility (1/GPa) = 0.01335074
#
# Stress axis : x y z
#
# Youngs Moduli (GPa) = 123.07454 95.97114 104.11101
#
# Poissons Ratio (x) = 0.25666 0.47122
# Poissons Ratio (y) = 0.32914 0.02074
# Poissons Ratio (z) = 0.55705 0.01912
#
# Static dielectric constant tensor:
#      x y z
#    x 2.198650 0.000000 0.017760 
#    y 0.000000 2.133730 0.000000 
#    z 0.017760 0.000000 2.327620 
# 
# From -- ./inp_files/269394.got.cif
#   From: 2010.05.17/outbox.cif.g08.bks.cpg/sg15_135_cif.got.tgz:269394.got - 2010.06.03 18:47:42.
