data_PCOD9278296
_publ_section_title
;
Structure prediction by ZEFSAII (Michael W. Deem and Ramdas Pophale) SiO2 
 PCOD9278296
Probable space group: C 2/C
;
_chemical_formula_sum "Si O2"
_cell_formula_units_Z 56
_cell_length_a 15.200650
_cell_length_b 16.592662
_cell_length_c 20.457906
_cell_angle_alpha 90.000000
_cell_angle_beta 151.485687
_cell_angle_gamma 90.000000
_cell_volume 2463.213531
_symmetry_space_group_name_H-M "C 2/C"
_symmetry_group_IT_number 15
_symmetry_cell_setting 'monoclinic'
loop_
_space_group_symop_operation_xyz
x,y,z
-x,y,1/2-z
-x,-y,-z
x,-y,1/2+z
1/2+x,1/2+y,z
1/2-x,1/2+y,1/2-z
1/2-x,1/2-y,-z
1/2+x,1/2-y,1/2+z
loop_
_atom_site_type_symbol
_atom_site_label
_atom_site_fract_x
_atom_site_fract_y
_atom_site_fract_z
Si Si1 0.421401 0.403749 0.477642
Si Si2 0.689697 0.175677 0.248562
Si Si3 0.320700 0.457683 0.006748
Si Si4 0.079567 0.418580 0.021129
Si Si5 0.000000 0.085865 0.750000
Si Si6 0.649011 0.831001 0.200000
Si Si7 0.349984 0.883422 0.098097
Si Si8 0.000000 0.340390 0.750000
O O1 0.625042 0.368708 0.606668
O O2 0.591103 0.507324 0.497195
O O3 0.290748 0.391159 0.329737
O O4 0.315678 0.350314 0.465654
O O5 0.748465 0.246519 0.238860
O O6 0.580184 0.208189 0.240947
O O7 0.558759 0.114889 0.124163
O O8 0.457760 0.410361 0.142746
O O9 0.231357 0.535271 0.985863
O O10 0.162700 0.398026 0.880483
O O11 0.280546 0.426761 0.121404
O O12 0.096527 0.357711 0.093158
O O13 0.000000 0.500000 0.000000
O O14 0.462897 0.830428 0.121652
O O15 0.500000 0.911332 0.250000
#
# Coordination Sequence:
#
# PCOD9278296 Si02
#       8
#     8   8   8   8   4   8   8   4
#     4   9  22  42  73 101 130 192 244 294 364 443
#     4  12  27  45  67 108 147 192 245 303 365 449
#     4  10  20  42  70 102 135 180 242 300 368 425
#     4  12  28  46  72 109 149 190 248 319 368 431
#     4  12  24  43  66 110 145 186 228 318 378 403
#     4  11  23  45  71 101 150 194 240 296 377 440
#     4   8  17  39  69  99 130 180 232 295 357 430
#     4  12  24  43  70  96 147 188 246 290 350 441
#
# _framework density 22.734529999999999
#
# number of rings (size 3 to 8) (size 9 to 14) (size 15 to 20)
#    0.857    0.571    2.143    2.571    4.000    1.714 
#    0.000    3.571    0.000    0.000    0.000    0.000 
#    0.000    0.000    0.000    0.000    0.000    0.000 
#
# Total GULP energy -155885.658195 kJ/mol
# GULP energy per Si atom -5567.344936 kJ/mol
# Density = 2.268278 g / cm^3
# Si number density = 22.734530 Si / 1000 Ang^3
#
#
#
# Elastic Constant Matrix: (Units=GPa)
#
#
# Indices 1 2 3 4 5 6 
#
# 1 142.5368 5.6990 27.2813 -0.0008 23.8344 0.0003
# 2 5.6990 43.3230 -5.1590 -0.0007 10.1614 -0.0014
# 3 27.2813 -5.1590 118.3127 -0.0059 7.4648 -0.0040
# 4 -0.0008 -0.0007 -0.0059 18.3287 -0.0001 -6.9812
# 5 23.8344 10.1614 7.4648 -0.0001 48.9868 0.0001
# 6 0.0003 -0.0014 -0.0040 -6.9812 0.0001 17.4712
#
#
#
# Elastic Compliance Matrix: (Units=1/GPa)
#
#
# Indices 1 2 3 4 5 6 
#
# 1 0.007933 -0.000410 -0.001625 0.000000 -0.003527 -0.000001
# 2 -0.000410 0.024512 0.001486 0.000003 -0.005112 0.000003
# 3 -0.001625 0.001486 0.008947 0.000004 -0.000881 0.000004
# 4 0.000000 0.000003 0.000004 0.064354 -0.000001 0.025715
# 5 -0.003527 -0.005112 -0.000881 -0.000001 0.023324 -0.000001
# 6 -0.000001 0.000003 0.000004 0.025715 -0.000001 0.067512
#
#
# Mechanical properties :
#
#
# Convention : Reuss Voigt Hill
#
# Bulk Modulus (GPa) = 24.81670 39.97945 32.39807
# Shear Modulus (GPa) = 23.68419 35.38075 29.53247
#
# Velocity S-wave (km/s) = 3.23115 3.94922 3.60809
# Velocity P-wave (km/s) = 4.98598 6.19828 5.62488
#
# Compressibility (1/GPa) = 0.04029545
#
# Stress axis : x y z
#
# Youngs Moduli (GPa) = 126.05815 40.79600 111.76733
#
# Poissons Ratio (x) = 0.01671 0.18157
# Poissons Ratio (y) = 0.05164 -0.16607
# Poissons Ratio (z) = 0.20479 -0.06062
#
# Static dielectric constant tensor:
#      x y z
#    x 2.084510 0.000020 0.057680 
#    y 0.000020 1.882210 0.000010 
#    z 0.057680 0.000010 1.798280 
# 
# From -- ./inp_files/245201.got.cif
#   From: 2010.05.17/outbox.cif.g08.bks.cpg/sg15_123_cif.got.tgz:245201.got - 2010.06.03 18:47:42.
