data_PCOD9278602
_publ_section_title
;
Structure prediction by ZEFSAII (Michael W. Deem and Ramdas Pophale) SiO2 
 PCOD9278602
Probable space group: C 2/C
;
_chemical_formula_sum "Si O2"
_cell_formula_units_Z 44
_cell_length_a 11.459785
_cell_length_b 14.567691
_cell_length_c 12.155036
_cell_angle_alpha 90.000000
_cell_angle_beta 99.262060
_cell_angle_gamma 90.000000
_cell_volume 2002.737808
_symmetry_space_group_name_H-M "C 2/C"
_symmetry_group_IT_number 15
_symmetry_cell_setting 'monoclinic'
loop_
_space_group_symop_operation_xyz
x,y,z
-x,y,1/2-z
-x,-y,-z
x,-y,1/2+z
1/2+x,1/2+y,z
1/2-x,1/2+y,1/2-z
1/2-x,1/2-y,-z
1/2+x,1/2-y,1/2+z
loop_
_atom_site_type_symbol
_atom_site_label
_atom_site_fract_x
_atom_site_fract_y
_atom_site_fract_z
Si Si1 0.365572 0.643752 0.426862
Si Si2 0.849163 0.227078 0.644375
Si Si3 0.270733 0.018633 0.253584
Si Si4 0.000000 0.373917 0.750000
Si Si5 0.863830 0.858762 0.598206
Si Si6 0.757953 0.826378 0.342824
O O1 0.284620 0.733597 0.388682
O O2 0.373895 0.649139 0.559910
O O3 0.293066 0.560104 0.364591
O O4 0.495240 0.642305 0.394456
O O5 0.935575 0.313608 0.646284
O O6 0.861608 0.200809 0.773682
O O7 0.396109 0.067452 0.287334
O O8 0.187002 0.056037 0.338899
O O9 0.294149 0.912638 0.231610
O O10 0.806268 0.856285 0.468379
O O11 0.821536 0.763798 0.649640
#
# Coordination Sequence:
#
# PCOD9278602 Si02
#       6
#     8   8   8   4   8   8
#     4  10  22  41  68  97 135 172 223 276 324 395
#     4  10  21  41  68  96 130 182 217 266 340 395
#     4  11  25  43  65 101 130 173 224 279 326 399
#     4  10  20  44  64  92 136 168 220 274 328 392
#     4  11  24  47  66  97 139 172 224 277 334 401
#     4  11  25  43  70  97 133 180 221 270 343 389
#
# _framework density 21.969926000000001
#
# number of rings (size 3 to 8) (size 9 to 14) (size 15 to 20)
#    0.000    1.455    3.636    1.636    5.091    2.182 
#    6.545    0.909    0.000    0.000    0.000    0.000 
#    0.000    0.000    0.000    0.000    0.000    0.000 
#
# Total GULP energy -122783.219653 kJ/mol
# GULP energy per Si atom -5581.055439 kJ/mol
# Density = 2.191992 g / cm^3
# Si number density = 21.969926 Si / 1000 Ang^3
#
#
#
# Elastic Constant Matrix: (Units=GPa)
#
#
# Indices 1 2 3 4 5 6 
#
# 1 128.1028 25.1399 33.7778 0.0000 -12.4204 0.0000
# 2 25.1399 91.0212 39.1021 0.0000 -12.9618 0.0000
# 3 33.7778 39.1021 91.3356 0.0000 -24.8806 0.0000
# 4 0.0000 0.0000 0.0000 25.1402 0.0000 1.6342
# 5 -12.4204 -12.9618 -24.8806 0.0000 29.2340 0.0000
# 6 0.0000 0.0000 0.0000 1.6342 0.0000 11.7023
#
#
#
# Elastic Compliance Matrix: (Units=1/GPa)
#
#
# Indices 1 2 3 4 5 6 
#
# 1 0.008795 -0.001229 -0.002417 0.000000 0.001134 0.000000
# 2 -0.001229 0.013677 -0.005066 0.000000 0.001231 0.000000
# 3 -0.002417 -0.005066 0.017079 0.000000 0.011263 0.000000
# 4 0.000000 0.000000 0.000000 0.040141 0.000000 -0.005606
# 5 0.001134 0.001231 0.011263 0.000000 0.044820 0.000000
# 6 0.000000 0.000000 0.000000 -0.005606 0.000000 0.086236
#
#
# Mechanical properties :
#
#
# Convention : Reuss Voigt Hill
#
# Bulk Modulus (GPa) = 45.19280 56.27769 50.73525
# Shear Modulus (GPa) = 21.22702 27.37796 24.30249
#
# Velocity S-wave (km/s) = 3.11172 3.53392 3.32952
# Velocity P-wave (km/s) = 5.79011 6.50560 6.15826
#
# Compressibility (1/GPa) = 0.02212742
#
# Stress axis : x y z
#
# Youngs Moduli (GPa) = 113.70344 73.11344 58.55007
#
# Poissons Ratio (x) = 0.08987 0.14153
# Poissons Ratio (y) = 0.13976 0.29659
# Poissons Ratio (z) = 0.27486 0.37037
#
# Static dielectric constant tensor:
#      x y z
#    x 1.804910 0.000000 0.003030 
#    y 0.000000 1.900580 0.000000 
#    z 0.003030 0.000000 1.859350 
# 
# From -- ./inp_files/86159.got.cif
#   From: 2010.05.17/outbox.cif.g08.bks.cpg/sg15_44_cif.got.tgz:86159.got - 2010.06.03 18:47:42.
