data_PCOD9278858
_publ_section_title
;
Structure prediction by ZEFSAII (Michael W. Deem and Ramdas Pophale) SiO2 
 PCOD9278858
Probable space group: C 2/C
;
_chemical_formula_sum "Si O2"
_cell_formula_units_Z 44
_cell_length_a 14.156433
_cell_length_b 25.045156
_cell_length_c 12.532531
_cell_angle_alpha 90.000000
_cell_angle_beta 148.473394
_cell_angle_gamma 90.000000
_cell_volume 2323.434279
_symmetry_space_group_name_H-M "C 2/C"
_symmetry_group_IT_number 15
_symmetry_cell_setting 'monoclinic'
loop_
_space_group_symop_operation_xyz
x,y,z
-x,y,1/2-z
-x,-y,-z
x,-y,1/2+z
1/2+x,1/2+y,z
1/2-x,1/2+y,1/2-z
1/2-x,1/2-y,-z
1/2+x,1/2-y,1/2+z
loop_
_atom_site_type_symbol
_atom_site_label
_atom_site_fract_x
_atom_site_fract_y
_atom_site_fract_z
Si Si1 0.000000 0.536739 0.750000
Si Si2 0.923590 0.389873 0.980087
Si Si3 0.335456 0.301826 0.842087
Si Si4 0.663586 0.933797 0.833876
Si Si5 0.740689 0.817538 0.218927
Si Si6 0.302222 0.668943 0.538499
O O1 0.923334 0.572751 0.582102
O O2 0.154175 0.496124 0.853185
O O3 0.121170 0.363587 0.156678
O O4 0.778570 0.341692 0.841301
O O5 0.877166 0.423636 0.828816
O O6 0.325678 0.239928 0.803377
O O7 0.543573 0.320473 0.053537
O O8 0.239065 0.305448 0.866637
O O9 0.500000 0.911862 0.750000
O O10 0.818450 0.893821 0.021678
O O11 0.705322 0.821970 0.057205
O O12 0.500000 0.692039 0.750000
#
# Coordination Sequence:
#
# PCOD9278858 Si02
#       6
#     4   8   8   8   8   8
#     4  10  22  38  60  80 102 156 188 228 274 318
#     4  11  21  38  58  81 117 141 188 228 271 333
#     4  10  21  31  54  82 114 148 183 221 275 331
#     4   9  18  34  59  82 105 141 181 226 281 323
#     4  11  18  34  53  81 115 149 180 225 274 327
#     4   9  18  30  50  87 118 140 172 225 285 340
#
# _framework density 18.937484000000001
#
# number of rings (size 3 to 8) (size 9 to 14) (size 15 to 20)
#    0.545    1.455    3.636    1.091    0.000    0.000 
#    0.000    3.636    0.000    7.636    0.000    0.000 
#    0.000    0.000    0.000    0.000    0.000    0.000 
#
# Total GULP energy -122471.200194 kJ/mol
# GULP energy per Si atom -5566.872736 kJ/mol
# Density = 1.889438 g / cm^3
# Si number density = 18.937484 Si / 1000 Ang^3
#
#
#
# Elastic Constant Matrix: (Units=GPa)
#
#
# Indices 1 2 3 4 5 6 
#
# 1 40.2308 39.0659 33.5640 0.0000 -4.0729 0.0000
# 2 39.0659 122.9096 37.1211 0.0000 -19.4791 0.0000
# 3 33.5640 37.1211 70.6507 0.0000 0.3380 0.0000
# 4 0.0000 0.0000 0.0000 20.9311 0.0000 -4.8767
# 5 -4.0729 -19.4791 0.3380 0.0000 28.9970 0.0000
# 6 0.0000 0.0000 0.0000 -4.8767 0.0000 -7.3320
#
#
#
# Elastic Compliance Matrix: (Units=1/GPa)
#
#
# Indices 1 2 3 4 5 6 
#
# 1 0.050396 -0.010384 -0.018487 0.000000 0.000318 0.000000
# 2 -0.010384 0.013241 -0.002060 0.000000 0.007460 0.000000
# 3 -0.018487 -0.002060 0.024039 0.000000 -0.004260 0.000000
# 4 0.000000 0.000000 0.000000 0.041366 0.000000 -0.027513
# 5 0.000318 0.007460 -0.004260 0.000000 0.039592 0.000000
# 6 0.000000 0.000000 0.000000 -0.027513 0.000000 -0.118089
#
#
# Mechanical properties :
#
#
# Convention : Reuss Voigt Hill
#
# Bulk Modulus (GPa) = 38.73774 50.36590 44.55182
# Shear Modulus (GPa) = 41.31866 16.78856 29.05361
#
# Velocity S-wave (km/s) = 4.67609 2.98069 3.92112
# Velocity P-wave (km/s) = 7.04659 6.20481 6.63905
#
# Compressibility (1/GPa) = 0.02581462
#
# Stress axis : x y z
#
# Youngs Moduli (GPa) = 19.84304 75.52385 41.59852
#
# Poissons Ratio (x) = 0.78423 0.76903
# Poissons Ratio (y) = 0.20605 0.08568
# Poissons Ratio (z) = 0.36684 0.15555
#
# Static dielectric constant tensor:
#      x y z
#    x 1.667530 0.000000 0.015350 
#    y 0.000000 1.681270 0.000000 
#    z 0.015350 0.000000 1.665930 
# 
# From -- ./inp_files/41823.got.cif
#   From: 2010.05.17/outbox.cif.g08.bks.cpg/sg15_21_cif.got.tgz:41823.got - 2010.06.03 18:47:42.
