data_PCOD9278250
_publ_section_title
;
Structure prediction by ZEFSAII (Michael W. Deem and Ramdas Pophale) SiO2 
 PCOD9278250
Probable space group: C 2/C
;
_chemical_formula_sum "Si O2"
_cell_formula_units_Z 44
_cell_length_a 16.479801
_cell_length_b 15.935187
_cell_length_c 8.143726
_cell_angle_alpha 90.000000
_cell_angle_beta 59.205070
_cell_angle_gamma 90.000000
_cell_volume 1837.080025
_symmetry_space_group_name_H-M "C 2/C"
_symmetry_group_IT_number 15
_symmetry_cell_setting 'monoclinic'
loop_
_space_group_symop_operation_xyz
x,y,z
-x,y,1/2-z
-x,-y,-z
x,-y,1/2+z
1/2+x,1/2+y,z
1/2-x,1/2+y,1/2-z
1/2-x,1/2-y,-z
1/2+x,1/2-y,1/2+z
loop_
_atom_site_type_symbol
_atom_site_label
_atom_site_fract_x
_atom_site_fract_y
_atom_site_fract_z
Si Si1 0.123545 0.369693 0.728284
Si Si2 0.896053 0.469976 0.418360
Si Si3 0.983386 0.217801 0.937536
Si Si4 0.290865 0.617209 0.506500
Si Si5 0.000000 0.890612 0.750000
Si Si6 0.772839 0.239630 0.209449
O O1 0.104668 0.429409 0.594385
O O2 0.223070 0.322183 0.632102
O O3 0.052883 0.296055 0.852673
O O4 0.116678 0.434987 0.886709
O O5 0.803706 0.437686 0.414769
O O6 0.000000 0.440856 0.250000
O O7 0.000000 0.167704 0.750000
O O8 0.995184 0.165614 0.090463
O O9 0.878760 0.255240 0.045917
O O10 0.393193 0.571209 0.380667
O O11 0.282052 0.676592 0.676820
O O12 0.282905 0.682066 0.362609
#
# Coordination Sequence:
#
# PCOD9278250 Si02
#       6
#     8   8   8   8   4   8
#     4  11  23  41  60  95 131 171 212 267 327 392
#     4  11  23  38  60  93 136 170 211 262 333 401
#     4  11  23  39  65  99 131 165 219 276 325 384
#     4   9  18  36  66  93 122 177 216 269 322 387
#     4  10  20  42  68  96 130 166 226 278 322 380
#     4   9  19  37  63  91 127 166 219 269 324 381
#
# _framework density 23.951051
#
# number of rings (size 3 to 8) (size 9 to 14) (size 15 to 20)
#    0.000    1.818    1.818    2.182    3.818    2.182 
#    3.273    0.000    2.000    3.273    0.000    0.000 
#    0.000    0.000    0.000    0.000    0.000    0.000 
#
# Total GULP energy -122867.787954 kJ/mol
# GULP energy per Si atom -5584.899452 kJ/mol
# Density = 2.389654 g / cm^3
# Si number density = 23.951051 Si / 1000 Ang^3
#
#
#
# Elastic Constant Matrix: (Units=GPa)
#
#
# Indices 1 2 3 4 5 6 
#
# 1 108.0463 17.7288 37.8299 0.0000 -29.2972 0.0000
# 2 17.7288 36.5582 31.4223 0.0000 -12.6812 0.0000
# 3 37.8299 31.4223 117.2790 0.0000 -16.1509 0.0000
# 4 0.0000 0.0000 0.0000 26.7244 0.0000 -3.6691
# 5 -29.2972 -12.6812 -16.1509 0.0000 69.6158 0.0000
# 6 0.0000 0.0000 0.0000 -3.6691 0.0000 48.7485
#
#
#
# Elastic Compliance Matrix: (Units=1/GPa)
#
#
# Indices 1 2 3 4 5 6 
#
# 1 0.011567 -0.001966 -0.002669 0.000000 0.003891 0.000000
# 2 -0.001966 0.037230 -0.008802 0.000000 0.003912 0.000000
# 3 -0.002669 -0.008802 0.011746 0.000000 -0.000001 0.000000
# 4 0.000000 0.000000 0.000000 0.037810 0.000000 0.002846
# 5 0.003891 0.003912 -0.000001 0.000000 0.016714 0.000000
# 6 0.000000 0.000000 0.000000 0.002846 0.000000 0.020728
#
#
# Mechanical properties :
#
#
# Convention : Reuss Voigt Hill
#
# Bulk Modulus (GPa) = 29.70087 48.42729 39.06408
# Shear Modulus (GPa) = 28.75377 40.67789 34.71583
#
# Velocity S-wave (km/s) = 3.46861 4.12561 3.81129
# Velocity P-wave (km/s) = 5.33566 6.55419 5.97606
#
# Compressibility (1/GPa) = 0.03366905
#
# Stress axis : x y z
#
# Youngs Moduli (GPa) = 86.45108 26.86036 85.13895
#
# Poissons Ratio (x) = 0.05281 0.22720
# Poissons Ratio (y) = 0.16999 0.74938
# Poissons Ratio (z) = 0.23070 0.23642
#
# Static dielectric constant tensor:
#      x y z
#    x 2.037450 0.000000 0.021150 
#    y 0.000000 1.879280 0.000000 
#    z 0.021150 0.000000 1.932160 
# 
# From -- ./inp_files/48877.got.cif
#   From: 2010.05.17/outbox.cif.g08.bks.cpg/sg15_25_cif.got.tgz:48877.got - 2010.06.03 18:47:42.
