data_PCOD9278025
_publ_section_title
;
Structure prediction by ZEFSAII (Michael W. Deem and Ramdas Pophale) SiO2 
 PCOD9278025
Probable space group: C 2/C
;
_chemical_formula_sum "Si O2"
_cell_formula_units_Z 60
_cell_length_a 16.336973
_cell_length_b 14.891810
_cell_length_c 21.751554
_cell_angle_alpha 90.000000
_cell_angle_beta 146.746876
_cell_angle_gamma 90.000000
_cell_volume 2901.739127
_symmetry_space_group_name_H-M "C 2/C"
_symmetry_group_IT_number 15
_symmetry_cell_setting 'monoclinic'
loop_
_space_group_symop_operation_xyz
x,y,z
-x,y,1/2-z
-x,-y,-z
x,-y,1/2+z
1/2+x,1/2+y,z
1/2-x,1/2+y,1/2-z
1/2-x,1/2-y,-z
1/2+x,1/2-y,1/2+z
loop_
_atom_site_type_symbol
_atom_site_label
_atom_site_fract_x
_atom_site_fract_y
_atom_site_fract_z
Si Si1 0.116719 0.373897 0.059713
Si Si2 0.760867 0.931314 0.487258
Si Si3 0.194789 0.429401 0.585413
Si Si4 0.834603 0.128026 0.494533
Si Si5 0.500000 0.843001 0.250000
Si Si6 0.284875 0.689816 0.333409
Si Si7 0.947417 0.180019 0.306091
Si Si8 0.555177 0.805690 0.886277
O O1 0.182443 0.472818 0.108418
O O2 0.206212 0.296099 0.149006
O O3 0.116215 0.348607 0.987667
O O4 0.946762 0.374200 0.977967
O O5 0.682809 0.940653 0.504684
O O6 0.639248 0.901723 0.360652
O O7 0.887813 0.856551 0.576659
O O8 0.837556 0.025429 0.517132
O O9 0.349795 0.382278 0.699445
O O10 0.865469 0.142400 0.441780
O O11 0.666145 0.163904 0.402458
O O12 0.933288 0.198237 0.595773
O O13 0.456693 0.776807 0.279270
O O14 0.360291 0.675244 0.315548
O O15 0.112829 0.662231 0.225844
#
# Coordination Sequence:
#
# PCOD9278025 Si02
#       8
#     8   8   8   8   4   8   8   8
#     4  10  22  39  67  98 127 179 217 268 330 392
#     4  12  26  45  70  99 135 167 232 273 330 399
#     4  11  22  44  69  97 134 171 228 273 324 393
#     4  10  24  41  66  98 130 175 214 274 327 397
#     4  12  28  44  72  92 130 184 216 280 330 384
#     4  11  24  41  67  95 138 167 219 267 336 397
#     4  12  26  45  68  96 132 179 222 277 327 393
#     4  10  20  42  64  94 137 171 214 265 334 395
#
# _framework density 20.677254000000001
#
# number of rings (size 3 to 8) (size 9 to 14) (size 15 to 20)
#    0.000    1.067    4.000    1.600    5.600    0.533 
#    2.400    0.000    0.000    0.000    0.000    0.000 
#    0.000    0.000    0.000    0.000    0.000    0.000 
#
# Total GULP energy -167677.897353 kJ/mol
# GULP energy per Si atom -5589.263245 kJ/mol
# Density = 2.063019 g / cm^3
# Si number density = 20.677254 Si / 1000 Ang^3
#
#
#
# Elastic Constant Matrix: (Units=GPa)
#
#
# Indices 1 2 3 4 5 6 
#
# 1 99.2664 -4.1474 0.2780 -0.0001 -17.5289 0.0001
# 2 -4.1474 49.1572 2.3459 -0.0001 -10.5753 0.0001
# 3 0.2780 2.3459 47.7733 -0.0006 -0.1083 0.0003
# 4 -0.0001 -0.0001 -0.0006 11.8779 -0.0001 10.2294
# 5 -17.5289 -10.5753 -0.1083 -0.0001 30.4258 0.0001
# 6 0.0001 0.0001 0.0003 10.2294 0.0001 22.0568
#
#
#
# Elastic Compliance Matrix: (Units=1/GPa)
#
#
# Indices 1 2 3 4 5 6 
#
# 1 0.011514 0.002601 -0.000178 0.000000 0.007537 0.000000
# 2 0.002601 0.022629 -0.001105 0.000001 0.009360 0.000000
# 3 -0.000178 -0.001105 0.020987 0.000002 -0.000412 -0.000001
# 4 0.000000 0.000001 0.000002 0.140179 0.000001 -0.065012
# 5 0.007537 0.009360 -0.000412 0.000001 0.040461 -0.000001
# 6 0.000000 0.000000 -0.000001 -0.065012 -0.000001 0.075488
#
#
# Mechanical properties :
#
#
# Convention : Reuss Voigt Hill
#
# Bulk Modulus (GPa) = 17.31106 21.46109 19.38607
# Shear Modulus (GPa) = 15.24969 26.05347 20.65158
#
# Velocity S-wave (km/s) = 2.71866 3.55351 3.16374
# Velocity P-wave (km/s) = 4.27142 5.21902 4.76882
#
# Compressibility (1/GPa) = 0.05776653
#
# Stress axis : x y z
#
# Youngs Moduli (GPa) = 86.85077 44.19160 47.64958
#
# Poissons Ratio (x) = -0.11496 0.00847
# Poissons Ratio (y) = -0.22593 0.05266
# Poissons Ratio (z) = 0.01543 0.04884
#
# Static dielectric constant tensor:
#      x y z
#    x 1.753190 0.000000 -0.001020 
#    y 0.000000 1.728490 0.000000 
#    z -0.001020 0.000000 1.724590 
# 
# From -- ./inp_files/244708.got.cif
#   From: 2010.05.17/outbox.cif.g08.bks.cpg/sg15_123_cif.got.tgz:244708.got - 2010.06.03 18:47:42.
