data_PCOD9278679
_publ_section_title
;
Structure prediction by ZEFSAII (Michael W. Deem and Ramdas Pophale) SiO2 
 PCOD9278679
Probable space group: C 2/C
;
_chemical_formula_sum "Si O2"
_cell_formula_units_Z 60
_cell_length_a 23.759544
_cell_length_b 8.576950
_cell_length_c 19.712275
_cell_angle_alpha 90.000000
_cell_angle_beta 37.598808
_cell_angle_gamma 90.000000
_cell_volume 2450.920190
_symmetry_space_group_name_H-M "C 2/C"
_symmetry_group_IT_number 15
_symmetry_cell_setting 'monoclinic'
loop_
_space_group_symop_operation_xyz
x,y,z
-x,y,1/2-z
-x,-y,-z
x,-y,1/2+z
1/2+x,1/2+y,z
1/2-x,1/2+y,1/2-z
1/2-x,1/2-y,-z
1/2+x,1/2-y,1/2+z
loop_
_atom_site_type_symbol
_atom_site_label
_atom_site_fract_x
_atom_site_fract_y
_atom_site_fract_z
Si Si1 0.102480 0.503682 0.131686
Si Si2 0.592668 0.426800 0.727159
Si Si3 0.708686 0.467764 0.476713
Si Si4 0.500000 0.699479 0.750000
Si Si5 0.831062 0.215572 0.093976
Si Si6 0.973856 0.178180 0.546292
Si Si7 0.797956 0.983650 0.251825
Si Si8 0.072794 0.270897 0.052173
O O1 0.110735 0.425138 0.051087
O O2 0.000000 0.451334 0.250000
O O3 0.086000 0.688563 0.150374
O O4 0.185465 0.448958 0.100605
O O5 0.648606 0.433085 0.602617
O O6 0.533996 0.586749 0.777054
O O7 0.666457 0.424054 0.716499
O O8 0.512943 0.304597 0.823565
O O9 0.702474 0.632774 0.443291
O O10 0.658862 0.349413 0.472468
O O11 0.792301 0.384802 0.148518
O O12 0.941500 0.229254 0.989295
O O13 0.801615 0.097540 0.183735
O O14 0.873971 0.155038 0.672502
O O15 0.964112 0.281341 0.488488
O O16 0.000000 0.000000 0.500000
#
# Coordination Sequence:
#
# PCOD9278679 Si02
#       8
#     8   8   8   4   8   8   8   8
#     4  10  26  43  58 103 142 172 219 298 346 389
#     4  12  23  43  73  99 131 191 233 269 348 438
#     4  12  23  43  72 102 137 180 234 289 348 412
#     4  10  24  42  58  94 144 172 212 290 342 398
#     4  11  24  45  72  99 140 183 229 291 340 415
#     4  10  20  44  69  97 133 180 228 282 329 418
#     4  11  24  45  67  99 134 182 231 274 349 416
#     4  12  21  44  77  97 129 184 237 278 342 423
#
# _framework density 24.480602000000001
#
# number of rings (size 3 to 8) (size 9 to 14) (size 15 to 20)
#    0.400    0.533    6.667    2.000    0.000    4.267 
#    2.400    0.667    0.000    0.000    0.000    0.000 
#    0.000    0.000    0.000    0.000    0.000    0.000 
#
# Total GULP energy -167593.390022 kJ/mol
# GULP energy per Si atom -5586.446334 kJ/mol
# Density = 2.442488 g / cm^3
# Si number density = 24.480602 Si / 1000 Ang^3
#
#
#
# Elastic Constant Matrix: (Units=GPa)
#
#
# Indices 1 2 3 4 5 6 
#
# 1 145.4284 18.1494 47.9762 0.0002 -8.2361 -0.0002
# 2 18.1494 54.4055 19.1921 0.0003 2.5940 -0.0004
# 3 47.9762 19.1921 81.3919 -0.0002 -18.3342 0.0000
# 4 0.0002 0.0003 -0.0002 26.4381 0.0001 16.5057
# 5 -8.2361 2.5940 -18.3342 0.0001 50.3373 -0.0001
# 6 -0.0002 -0.0004 0.0000 16.5057 -0.0001 20.3738
#
#
#
# Elastic Compliance Matrix: (Units=1/GPa)
#
#
# Indices 1 2 3 4 5 6 
#
# 1 0.008609 -0.001137 -0.004876 0.000000 -0.000309 0.000000
# 2 -0.001137 0.020623 -0.004874 -0.000001 -0.003024 0.000001
# 3 -0.004876 -0.004874 0.017633 0.000001 0.005876 -0.000001
# 4 0.000000 -0.000001 0.000001 0.076534 0.000000 -0.062003
# 5 -0.000309 -0.003024 0.005876 0.000000 0.022111 0.000000
# 6 0.000000 0.000001 -0.000001 -0.062003 0.000000 0.099314
#
#
# Mechanical properties :
#
#
# Convention : Reuss Voigt Hill
#
# Bulk Modulus (GPa) = 39.85397 50.20681 45.03039
# Shear Modulus (GPa) = 18.18423 32.49038 25.33730
#
# Velocity S-wave (km/s) = 2.72840 3.64701 3.22062
# Velocity P-wave (km/s) = 5.12257 6.18770 5.68015
#
# Compressibility (1/GPa) = 0.02509160
#
# Stress axis : x y z
#
# Youngs Moduli (GPa) = 116.15367 48.48879 56.71093
#
# Poissons Ratio (x) = 0.05514 0.27653
# Poissons Ratio (y) = 0.13209 0.27640
# Poissons Ratio (z) = 0.56638 0.23633
#
# Static dielectric constant tensor:
#      x y z
#    x 1.927080 0.000000 0.021130 
#    y 0.000000 1.968420 0.000000 
#    z 0.021130 0.000000 2.025030 
# 
# From -- ./inp_files/255155.got.cif
#   From: 2010.05.17/outbox.cif.g08.bks.cpg/sg15_128_cif.got.tgz:255155.got - 2010.06.03 18:47:42.
