data_PCOD9278702
_publ_section_title
;
Structure prediction by ZEFSAII (Michael W. Deem and Ramdas Pophale) SiO2 
 PCOD9278702
Probable space group: C 2/C
;
_chemical_formula_sum "Si O2"
_cell_formula_units_Z 52
_cell_length_a 27.276792
_cell_length_b 11.797273
_cell_length_c 11.330243
_cell_angle_alpha 90.000000
_cell_angle_beta 40.123440
_cell_angle_gamma 90.000000
_cell_volume 2349.601887
_symmetry_space_group_name_H-M "C 2/C"
_symmetry_group_IT_number 15
_symmetry_cell_setting 'monoclinic'
loop_
_space_group_symop_operation_xyz
x,y,z
-x,y,1/2-z
-x,-y,-z
x,-y,1/2+z
1/2+x,1/2+y,z
1/2-x,1/2+y,1/2-z
1/2-x,1/2-y,-z
1/2+x,1/2-y,1/2+z
loop_
_atom_site_type_symbol
_atom_site_label
_atom_site_fract_x
_atom_site_fract_y
_atom_site_fract_z
Si Si1 0.843361 0.558273 0.952527
Si Si2 0.379748 0.290646 0.765842
Si Si3 0.815175 0.687139 0.452778
Si Si4 0.500000 0.903148 0.250000
Si Si5 0.451804 0.269876 0.047849
Si Si6 0.701497 0.353031 0.813546
Si Si7 0.411302 0.445466 0.933280
O O1 0.859368 0.661486 0.834359
O O2 0.805336 0.447249 0.969811
O O3 0.926806 0.526539 0.846733
O O4 0.788490 0.605998 0.155712
O O5 0.464973 0.300906 0.555639
O O6 0.319637 0.336825 0.784240
O O7 0.385176 0.360038 0.877805
O O8 0.750000 0.750000 0.500000
O O9 0.895233 0.719026 0.246528
O O10 0.810037 0.738023 0.593473
O O11 0.471995 0.820319 0.406876
O O12 0.412576 0.376279 0.054112
O O13 0.644444 0.448591 0.965604
O O14 0.500000 0.476000 0.750000
#
# Coordination Sequence:
#
# PCOD9278702 Si02
#       7
#     8   8   8   4   8   8   8
#     4  11  25  47  72  98 140 189 230 299 347 424
#     4  10  24  45  72 102 136 188 236 284 357 430
#     4  12  29  44  67 103 140 182 239 300 355 420
#     4  10  20  46  74  98 132 192 234 278 358 422
#     4  10  20  44  72 100 139 181 232 285 355 419
#     4  12  28  41  71 103 143 180 235 293 353 431
#     4  10  22  43  72 101 139 185 225 286 351 420
#
# _framework density 22.131406999999999
#
# number of rings (size 3 to 8) (size 9 to 14) (size 15 to 20)
#    0.000    1.231    3.846    2.308    8.615    7.385 
#    0.000    0.000    0.000    0.000    0.000    0.000 
#    0.000    0.000    0.000    0.000    0.000    0.000 
#
# Total GULP energy -145477.759244 kJ/mol
# GULP energy per Si atom -5595.298432 kJ/mol
# Density = 2.208104 g / cm^3
# Si number density = 22.131407 Si / 1000 Ang^3
#
#
#
# Elastic Constant Matrix: (Units=GPa)
#
#
# Indices 1 2 3 4 5 6 
#
# 1 75.3431 24.4620 18.5706 0.0000 -15.6666 0.0000
# 2 24.4620 105.8395 21.9339 0.0000 -12.0240 0.0000
# 3 18.5706 21.9339 86.7666 0.0000 -10.9724 0.0000
# 4 0.0000 0.0000 0.0000 16.5377 0.0000 -10.1703
# 5 -15.6666 -12.0240 -10.9724 0.0000 16.0687 0.0000
# 6 0.0000 0.0000 0.0000 -10.1703 0.0000 13.4022
#
#
#
# Elastic Compliance Matrix: (Units=1/GPa)
#
#
# Indices 1 2 3 4 5 6 
#
# 1 0.017266 -0.002079 -0.001355 0.000000 0.014353 0.000000
# 2 -0.002079 0.010836 -0.001669 0.000000 0.004941 0.000000
# 3 -0.001355 -0.001669 0.013038 0.000000 0.006333 0.000000
# 4 0.000000 0.000000 0.000000 0.113381 0.000000 0.086040
# 5 0.014353 0.004941 0.006333 0.000000 0.084248 0.000000
# 6 0.000000 0.000000 0.000000 0.086040 0.000000 0.139907
#
#
# Mechanical properties :
#
#
# Convention : Reuss Voigt Hill
#
# Bulk Modulus (GPa) = 32.32747 44.20913 38.26830
# Shear Modulus (GPa) = 12.52523 22.73390 17.62957
#
# Velocity S-wave (km/s) = 2.38155 3.20851 2.82545
# Velocity P-wave (km/s) = 4.71181 5.80906 5.28896
#
# Compressibility (1/GPa) = 0.03093345
#
# Stress axis : x y z
#
# Youngs Moduli (GPa) = 57.91678 92.28356 76.69900
#
# Poissons Ratio (x) = 0.19188 0.10391
# Poissons Ratio (y) = 0.12042 0.12804
# Poissons Ratio (z) = 0.07846 0.15406
#
# Static dielectric constant tensor:
#      x y z
#    x 1.819410 0.000000 -0.020580 
#    y 0.000000 1.780990 0.000000 
#    z -0.020580 0.000000 1.814070 
# 
# From -- ./inp_files/126392.got.cif
#   From: 2010.05.17/outbox.cif.g08.bks.cpg/sg15_64_cif.got.tgz:126392.got - 2010.06.03 18:47:42.
