data_PCOD9278146
_publ_section_title
;
Structure prediction by ZEFSAII (Michael W. Deem and Ramdas Pophale) SiO2 
 PCOD9278146
Probable space group: C 2/C
;
_chemical_formula_sum "Si O2"
_cell_formula_units_Z 44
_cell_length_a 17.184723
_cell_length_b 15.705954
_cell_length_c 11.575531
_cell_angle_alpha 90.000000
_cell_angle_beta 147.449550
_cell_angle_gamma 90.000000
_cell_volume 1680.985532
_symmetry_space_group_name_H-M "C 2/C"
_symmetry_group_IT_number 15
_symmetry_cell_setting 'monoclinic'
loop_
_space_group_symop_operation_xyz
x,y,z
-x,y,1/2-z
-x,-y,-z
x,-y,1/2+z
1/2+x,1/2+y,z
1/2-x,1/2+y,1/2-z
1/2-x,1/2-y,-z
1/2+x,1/2-y,1/2+z
loop_
_atom_site_type_symbol
_atom_site_label
_atom_site_fract_x
_atom_site_fract_y
_atom_site_fract_z
Si Si1 0.731845 0.152411 0.663868
Si Si2 0.000000 0.962751 0.250000
Si Si3 0.020001 0.618824 0.594217
Si Si4 0.945027 0.890392 0.858428
Si Si5 0.500000 0.032213 0.250000
Si Si6 0.500000 0.259626 0.750000
Si Si7 0.266308 0.351767 0.856477
O O1 0.634961 0.089368 0.464198
O O2 0.712838 0.250935 0.604857
O O3 0.666390 0.141537 0.711542
O O4 0.902641 0.135593 0.891925
O O5 0.135972 0.902049 0.432653
O O6 0.025699 0.022373 0.171486
O O7 0.898380 0.619501 0.343379
O O8 0.033756 0.535141 0.688204
O O9 0.957239 0.694147 0.596767
O O10 0.825187 0.885272 0.806125
O O11 0.903086 0.824255 0.703551
#
# Coordination Sequence:
#
# PCOD9278146 Si02
#       7
#     8   4   8   8   4   4   8
#     4  12  24  46  68 100 134 175 223 273 328 396
#     4  11  27  43  69 100 138 176 215 279 337 385
#     4  11  25  43  69  99 133 174 226 270 326 396
#     4  11  25  43  69  99 133 174 226 270 326 396
#     4  11  27  43  69 100 138 176 215 279 337 385
#     4  10  20  42  66  96 122 170 218 266 320 374
#     4  12  24  46  68 100 134 175 223 273 328 396
#
# _framework density 26.175121000000001
#
# number of rings (size 3 to 8) (size 9 to 14) (size 15 to 20)
#    0.000    0.727    3.636    2.727    0.000   11.636 
#    0.000    3.636    0.000    0.000    0.000    0.000 
#    0.000    0.000    0.000    0.000    0.000    0.000 
#
# Total GULP energy -123333.096686 kJ/mol
# GULP energy per Si atom -5606.049849 kJ/mol
# Density = 2.611555 g / cm^3
# Si number density = 26.175121 Si / 1000 Ang^3
#
#
#
# Elastic Constant Matrix: (Units=GPa)
#
#
# Indices 1 2 3 4 5 6 
#
# 1 92.5874 21.2582 12.3646 0.0000 5.7309 0.0000
# 2 21.2582 210.7349 42.6986 0.0000 -19.6000 0.0000
# 3 12.3646 42.6986 108.1347 0.0000 -10.6865 0.0000
# 4 0.0000 0.0000 0.0000 44.5975 0.0000 26.9512
# 5 5.7309 -19.6000 -10.6865 0.0000 38.1476 0.0000
# 6 0.0000 0.0000 0.0000 26.9512 0.0000 -238.1684
#
#
#
# Elastic Compliance Matrix: (Units=1/GPa)
#
#
# Indices 1 2 3 4 5 6 
#
# 1 0.011378 -0.001169 -0.001098 0.000000 -0.002617 0.000000
# 2 -0.001169 0.005453 -0.001775 0.000000 0.002480 0.000000
# 3 -0.001098 -0.001775 0.010285 0.000000 0.002134 0.000000
# 4 0.000000 0.000000 0.000000 0.020988 0.000000 0.002375
# 5 -0.002617 0.002480 0.002134 0.000000 0.028480 0.000000
# 6 0.000000 0.000000 0.000000 0.002375 0.000000 -0.003930
#
#
# Mechanical properties :
#
#
# Convention : Reuss Voigt Hill
#
# Bulk Modulus (GPa) = 52.54001 62.67777 57.60889
# Shear Modulus (GPa) = 57.41822 -8.74230 24.33796
#
# Velocity S-wave (km/s) = 4.68869 -1.82953 3.05259
# Velocity P-wave (km/s) = 7.03049 4.41980 5.87207
#
# Compressibility (1/GPa) = 0.01903312
#
# Stress axis : x y z
#
# Youngs Moduli (GPa) = 87.89210 183.37001 97.22937
#
# Poissons Ratio (x) = 0.21430 0.10677
# Poissons Ratio (y) = 0.10272 0.17255
# Poissons Ratio (z) = 0.09652 0.32541
#
# Static dielectric constant tensor:
#      x y z
#    x 2.031230 0.000000 -0.070810 
#    y 0.000000 2.021790 0.000000 
#    z -0.070810 0.000000 2.005790 
# 
# From -- ./inp_files/173541.got.cif
#   From: 2010.05.17/outbox.cif.g08.bks.cpg/sg15_87_cif.got.tgz:173541.got - 2010.06.03 18:47:42.
