data_PCOD9278604
_publ_section_title
;
Structure prediction by ZEFSAII (Michael W. Deem and Ramdas Pophale) SiO2 
 PCOD9278604
Probable space group: C 2/C
;
_chemical_formula_sum "Si O2"
_cell_formula_units_Z 44
_cell_length_a 14.627499
_cell_length_b 12.083142
_cell_length_c 27.502134
_cell_angle_alpha 90.000000
_cell_angle_beta 27.602307
_cell_angle_gamma 90.000000
_cell_volume 2252.207400
_symmetry_space_group_name_H-M "C 2/C"
_symmetry_group_IT_number 15
_symmetry_cell_setting 'monoclinic'
loop_
_space_group_symop_operation_xyz
x,y,z
-x,y,1/2-z
-x,-y,-z
x,-y,1/2+z
1/2+x,1/2+y,z
1/2-x,1/2+y,1/2-z
1/2-x,1/2-y,-z
1/2+x,1/2-y,1/2+z
loop_
_atom_site_type_symbol
_atom_site_label
_atom_site_fract_x
_atom_site_fract_y
_atom_site_fract_z
Si Si1 0.004041 0.012051 0.078166
Si Si2 0.350584 0.102015 0.079226
Si Si3 0.767249 0.051079 0.784713
Si Si4 0.397691 0.676412 0.044770
Si Si5 0.684120 0.868501 0.010071
Si Si6 0.000000 0.207361 0.750000
O O1 0.931520 0.118169 0.081188
O O2 0.210744 0.042493 0.005598
O O3 0.856224 0.975989 0.190383
O O4 0.039910 0.913313 0.024008
O O5 0.247904 0.062406 0.176745
O O6 0.468895 0.215791 0.026543
O O7 0.234838 0.114426 0.083099
O O8 0.500000 0.000000 0.000000
O O9 0.550986 0.108614 0.881142
O O10 0.903358 0.131331 0.753508
O O11 0.173808 0.717112 0.146973
O O12 0.750000 0.750000 0.000000
#
# Coordination Sequence:
#
# PCOD9278604 Si02
#       6
#     8   8   8   8   8   4
#     4  11  26  45  65 104 136 176 226 281 339 407
#     4  10  20  44  64  93 132 172 220 272 328 399
#     4  11  25  41  70 101 130 178 232 269 338 400
#     4  11  25  44  69  95 142 175 221 282 344 395
#     4  11  21  43  69  95 135 175 220 281 330 400
#     4  12  22  44  70  98 134 184 220 282 330 408
#
# _framework density 19.536389
#
# number of rings (size 3 to 8) (size 9 to 14) (size 15 to 20)
#    0.000    1.091    5.455    1.091    5.091    3.636 
#    0.000    0.000    0.000    0.000    0.000    0.000 
#    0.000    0.000    0.000    0.000    0.000    0.000 
#
# Total GULP energy -122837.767386 kJ/mol
# GULP energy per Si atom -5583.534881 kJ/mol
# Density = 1.949192 g / cm^3
# Si number density = 19.536389 Si / 1000 Ang^3
#
#
#
# Elastic Constant Matrix: (Units=GPa)
#
#
# Indices 1 2 3 4 5 6 
#
# 1 132.0859 59.7269 72.6473 0.0003 -1.6539 0.0003
# 2 59.7269 135.2173 57.6248 0.0002 0.7102 0.0005
# 3 72.6473 57.6248 125.2130 0.0005 12.3572 0.0027
# 4 0.0003 0.0002 0.0005 26.7814 -0.0007 -6.5861
# 5 -1.6539 0.7102 12.3572 -0.0007 39.1136 -0.0008
# 6 0.0003 0.0005 0.0027 -6.5861 -0.0008 24.2133
#
#
#
# Elastic Compliance Matrix: (Units=1/GPa)
#
#
# Indices 1 2 3 4 5 6 
#
# 1 0.012190 -0.002836 -0.006011 0.000000 0.002466 0.000001
# 2 -0.002836 0.009915 -0.002981 0.000000 0.000642 0.000000
# 3 -0.006011 -0.002981 0.013280 -0.000001 -0.004395 -0.000002
# 4 0.000000 0.000000 -0.000001 0.040016 0.000001 0.010885
# 5 0.002466 0.000642 -0.004395 0.000001 0.027048 0.000002
# 6 0.000001 0.000000 -0.000002 0.010885 0.000002 0.044260
#
#
# Mechanical properties :
#
#
# Convention : Reuss Voigt Hill
#
# Bulk Modulus (GPa) = 85.25717 85.83491 85.54604
# Shear Modulus (GPa) = 28.69042 31.52279 30.10660
#
# Velocity S-wave (km/s) = 3.83634 4.02125 3.92988
# Velocity P-wave (km/s) = 7.95979 8.09888 8.02964
#
# Compressibility (1/GPa) = 0.01172922
#
# Stress axis : x y z
#
# Youngs Moduli (GPa) = 82.03501 100.85528 75.30385
#
# Poissons Ratio (x) = 0.28600 0.45263
# Poissons Ratio (y) = 0.23263 0.22449
# Poissons Ratio (z) = 0.49309 0.30067
#
# Static dielectric constant tensor:
#      x y z
#    x 1.677820 0.000000 0.006620 
#    y 0.000000 1.830900 -0.000020 
#    z 0.006620 -0.000020 1.709280 
# 
# From -- ./inp_files/151742.got.cif
#   From: 2010.05.17/outbox.cif.g08.bks.cpg/sg15_76_cif.got.tgz:151742.got - 2010.06.03 18:47:42.
