data_PCOD9278152
_publ_section_title
;
Structure prediction by ZEFSAII (Michael W. Deem and Ramdas Pophale) SiO2 
 PCOD9278152
Probable space group: C 2/C
;
_chemical_formula_sum "Si O2"
_cell_formula_units_Z 36
_cell_length_a 8.803845
_cell_length_b 16.271417
_cell_length_c 13.716935
_cell_angle_alpha 90.000000
_cell_angle_beta 48.316503
_cell_angle_gamma 90.000000
_cell_volume 1467.494420
_symmetry_space_group_name_H-M "C 2/C"
_symmetry_group_IT_number 15
_symmetry_cell_setting 'monoclinic'
loop_
_space_group_symop_operation_xyz
x,y,z
-x,y,1/2-z
-x,-y,-z
x,-y,1/2+z
1/2+x,1/2+y,z
1/2-x,1/2+y,1/2-z
1/2-x,1/2-y,-z
1/2+x,1/2-y,1/2+z
loop_
_atom_site_type_symbol
_atom_site_label
_atom_site_fract_x
_atom_site_fract_y
_atom_site_fract_z
Si Si1 0.000000 0.484299 0.750000
Si Si2 0.904512 0.309310 0.487393
Si Si3 0.859249 0.235505 0.715543
Si Si4 0.680809 0.005738 0.496509
Si Si5 0.076505 0.947010 0.373723
O O1 0.118222 0.444390 0.611305
O O2 0.183843 0.531523 0.727491
O O3 0.750000 0.250000 0.500000
O O4 0.869843 0.299593 0.619825
O O5 0.831757 0.397633 0.476241
O O6 0.133056 0.284562 0.355414
O O7 0.933558 0.150695 0.632380
O O8 0.000000 0.254421 0.750000
O O9 0.500000 0.000000 0.500000
O O10 0.904262 0.979796 0.373536
O O11 0.000000 0.000000 0.500000
#
# Coordination Sequence:
#
# PCOD9278152 Si02
#       5
#     4   8   8   8   8
#     4  10  20  42  66  96 146 186 230 304 380 430
#     4  12  26  49  78 109 151 203 253 311 381 461
#     4  12  26  49  76 111 159 204 250 317 387 457
#     4  11  24  45  72 107 141 192 250 310 381 446
#     4  10  22  42  74 102 143 196 245 306 380 445
#
# _framework density 24.531610000000001
#
# number of rings (size 3 to 8) (size 9 to 14) (size 15 to 20)
#    0.000    0.889    2.222    5.333    0.000    0.000 
#   18.000    0.000    0.000    0.000    0.000    0.000 
#    0.000    0.000    0.000    0.000    0.000    0.000 
#
# Total GULP energy -100203.231075 kJ/mol
# GULP energy per Si atom -5566.846171 kJ/mol
# Density = 2.447577 g / cm^3
# Si number density = 24.531610 Si / 1000 Ang^3
#
#
#
# Elastic Constant Matrix: (Units=GPa)
#
#
# Indices 1 2 3 4 5 6 
#
# 1 164.5532 18.1082 38.8555 0.0000 -30.4852 0.0000
# 2 18.1082 85.1182 29.6525 0.0000 -20.3412 0.0000
# 3 38.8555 29.6525 147.4138 0.0000 13.9749 0.0000
# 4 0.0000 0.0000 0.0000 5.0960 0.0000 -23.1704
# 5 -30.4852 -20.3412 13.9749 0.0000 53.1507 0.0000
# 6 0.0000 0.0000 0.0000 -23.1704 0.0000 21.6422
#
#
#
# Elastic Compliance Matrix: (Units=1/GPa)
#
#
# Indices 1 2 3 4 5 6 
#
# 1 0.007609 0.000550 -0.002615 0.000000 0.005262 0.000000
# 2 0.000550 0.014572 -0.003728 0.000000 0.006872 0.000000
# 3 -0.002615 -0.003728 0.008717 0.000000 -0.005219 0.000000
# 4 0.000000 0.000000 0.000000 -0.050734 0.000000 -0.054317
# 5 0.005262 0.006872 -0.005219 0.000000 0.025835 0.000000
# 6 0.000000 0.000000 0.000000 -0.054317 0.000000 -0.011946
#
#
# Mechanical properties :
#
#
# Convention : Reuss Voigt Hill
#
# Bulk Modulus (GPa) = 51.77885 63.36863 57.57374
# Shear Modulus (GPa) = 414.02982 36.67571 225.35276
#
# Velocity S-wave (km/s) = 13.00540 3.87077 9.59487
# Velocity P-wave (km/s) = 15.70584 6.77234 12.09417
#
# Compressibility (1/GPa) = 0.01931291
#
# Stress axis : x y z
#
# Youngs Moduli (GPa) = 131.42493 68.62312 114.71254
#
# Poissons Ratio (x) = -0.03773 0.29997
# Poissons Ratio (y) = -0.07226 0.42761
# Poissons Ratio (z) = 0.34368 0.25580
#
# Static dielectric constant tensor:
#      x y z
#    x 2.031010 0.000000 0.116930 
#    y 0.000000 1.027540 0.000000 
#    z 0.116930 0.000000 1.973090 
# 
# From -- ./inp_files/134166.got.cif
#   From: 2010.05.17/outbox.cif.g08.bks.cpg/sg15_68_cif.got.tgz:134166.got - 2010.06.03 18:47:42.
