data_PCOD9278914
_publ_section_title
;
Structure prediction by ZEFSAII (Michael W. Deem and Ramdas Pophale) SiO2 
 PCOD9278914
Probable space group: C 2/C
;
_chemical_formula_sum "Si O2"
_cell_formula_units_Z 64
_cell_length_a 28.323442
_cell_length_b 25.014919
_cell_length_c 9.367041
_cell_angle_alpha 90.000000
_cell_angle_beta 32.439114
_cell_angle_gamma 90.000000
_cell_volume 3559.908236
_symmetry_space_group_name_H-M "C 2/C"
_symmetry_group_IT_number 15
_symmetry_cell_setting 'monoclinic'
loop_
_space_group_symop_operation_xyz
x,y,z
-x,y,1/2-z
-x,-y,-z
x,-y,1/2+z
1/2+x,1/2+y,z
1/2-x,1/2+y,1/2-z
1/2-x,1/2-y,-z
1/2+x,1/2-y,1/2+z
loop_
_atom_site_type_symbol
_atom_site_label
_atom_site_fract_x
_atom_site_fract_y
_atom_site_fract_z
Si Si1 0.891970 0.447616 0.174139
Si Si2 0.223858 0.363300 0.537240
Si Si3 0.422684 0.233026 0.734051
Si Si4 0.879411 0.264462 0.779239
Si Si5 0.597606 0.672525 0.986351
Si Si6 0.166750 0.773298 0.798767
Si Si7 0.406473 0.939781 0.798570
Si Si8 0.218956 0.362196 0.879994
O O1 0.891643 0.506168 0.245801
O O2 0.817585 0.410301 0.431799
O O3 0.883980 0.448915 0.022948
O O4 0.989596 0.425643 0.965076
O O5 0.190161 0.301889 0.621841
O O6 0.153003 0.395530 0.625720
O O7 0.229289 0.379621 0.689014
O O8 0.318721 0.365480 0.218750
O O9 0.522423 0.213373 0.494589
O O10 0.400880 0.278803 0.904584
O O11 0.412283 0.262792 0.608624
O O12 0.355827 0.184252 0.922783
O O13 0.888100 0.204270 0.698341
O O14 0.850789 0.260946 0.015557
O O15 0.500000 0.648562 0.250000
O O16 0.250000 0.750000 0.500000
O O17 0.194900 0.832661 0.775539
#
# Coordination Sequence:
#
# PCOD9278914 Si02
#       8
#     8   8   8   8   8   8   8   8
#     4  10  22  41  55  85 112 139 179 222 276 320
#     4  12  21  34  57  81 106 151 187 221 275 326
#     4  10  21  33  50  78 110 152 183 227 270 311
#     4  11  20  34  52  75 113 148 190 220 265 328
#     4  10  21  36  53  79 113 148 189 227 267 322
#     4  10  21  33  47  74 108 149 183 230 264 310
#     4  10  23  38  61  80 111 143 176 226 270 331
#     4  11  21  34  53  77 112 144 185 225 264 330
#
# _framework density 17.977992
#
# number of rings (size 3 to 8) (size 9 to 14) (size 15 to 20)
#    0.000    1.500    2.500    3.750    5.250    2.500 
#    0.000    0.000    0.000    0.000    0.000    5.250 
#    0.000    0.000    0.000    0.000    0.000    0.000 
#
# Total GULP energy -178538.577471 kJ/mol
# GULP energy per Si atom -5579.330546 kJ/mol
# Density = 1.793707 g / cm^3
# Si number density = 17.977992 Si / 1000 Ang^3
#
#
#
# Elastic Constant Matrix: (Units=GPa)
#
#
# Indices 1 2 3 4 5 6 
#
# 1 65.0432 14.9509 23.3460 0.0000 7.8972 0.0000
# 2 14.9509 40.1819 16.9606 0.0000 -3.1607 0.0000
# 3 23.3460 16.9606 82.2087 0.0000 6.0574 0.0000
# 4 0.0000 0.0000 0.0000 23.1172 0.0000 -2.9947
# 5 7.8972 -3.1607 6.0574 0.0000 39.6863 0.0000
# 6 0.0000 0.0000 0.0000 -2.9947 0.0000 30.6470
#
#
#
# Elastic Compliance Matrix: (Units=1/GPa)
#
#
# Indices 1 2 3 4 5 6 
#
# 1 0.018450 -0.005521 -0.003841 0.000000 -0.003525 0.000000
# 2 -0.005521 0.029286 -0.004781 0.000000 0.004161 0.000000
# 3 -0.003841 -0.004781 0.014375 0.000000 -0.001811 0.000000
# 4 0.000000 0.000000 0.000000 0.043813 0.000000 0.004281
# 5 -0.003525 0.004161 -0.001811 0.000000 0.026507 0.000000
# 6 0.000000 0.000000 0.000000 0.004281 0.000000 0.033048
#
#
# Mechanical properties :
#
#
# Convention : Reuss Voigt Hill
#
# Bulk Modulus (GPa) = 29.56317 33.10541 31.33429
# Shear Modulus (GPa) = 24.38565 27.50183 25.94374
#
# Velocity S-wave (km/s) = 3.68695 3.91544 3.80292
# Velocity P-wave (km/s) = 5.88257 6.23661 6.06218
#
# Compressibility (1/GPa) = 0.03382587
#
# Stress axis : x y z
#
# Youngs Moduli (GPa) = 54.20052 34.14563 69.56711
#
# Poissons Ratio (x) = 0.18852 0.26719
# Poissons Ratio (y) = 0.29924 0.33259
# Poissons Ratio (z) = 0.20817 0.16324
#
# Static dielectric constant tensor:
#      x y z
#    x 1.670240 0.000000 -0.007520 
#    y 0.000000 1.600080 0.000000 
#    z -0.007520 0.000000 1.649750 
# 
# From -- ./inp_files/70967.got.cif
#   From: 2010.05.17/outbox.cif.g08.bks.cpg/sg15_36_cif.got.tgz:70967.got - 2010.06.03 18:47:42.
