data_PCOD9278778
_publ_section_title
;
Structure prediction by ZEFSAII (Michael W. Deem and Ramdas Pophale) SiO2 
 PCOD9278778
Probable space group: C 2/C
;
_chemical_formula_sum "Si O2"
_cell_formula_units_Z 36
_cell_length_a 22.069764
_cell_length_b 12.855209
_cell_length_c 10.605707
_cell_angle_alpha 90.000000
_cell_angle_beta 28.945300
_cell_angle_gamma 90.000000
_cell_volume 1456.259762
_symmetry_space_group_name_H-M "C 2/C"
_symmetry_group_IT_number 15
_symmetry_cell_setting 'monoclinic'
loop_
_space_group_symop_operation_xyz
x,y,z
-x,y,1/2-z
-x,-y,-z
x,-y,1/2+z
1/2+x,1/2+y,z
1/2-x,1/2+y,1/2-z
1/2-x,1/2-y,-z
1/2+x,1/2-y,1/2+z
loop_
_atom_site_type_symbol
_atom_site_label
_atom_site_fract_x
_atom_site_fract_y
_atom_site_fract_z
Si Si1 0.500000 0.681320 0.750000
Si Si2 0.533934 0.650735 0.332823
Si Si3 0.108482 0.469551 0.966012
Si Si4 0.158466 0.025926 0.282872
Si Si5 0.958209 0.337517 0.626062
O O1 0.582534 0.605968 0.512528
O O2 0.418657 0.760180 0.810785
O O3 0.500000 0.659365 0.250000
O O4 0.655938 0.584558 0.152528
O O5 0.418822 0.579757 0.592846
O O6 0.537556 0.760876 0.392669
O O7 0.000000 0.419189 0.250000
O O8 0.045905 0.573103 0.023343
O O9 0.216151 0.493333 0.869571
O O10 0.137999 0.394734 0.793412
#
# Coordination Sequence:
#
# PCOD9278778 Si02
#       5
#     4   8   8   8   8
#     4  10  20  46  68 100 130 178 228 276 324 408
#     4  10  21  42  67 100 127 175 227 280 325 395
#     4  11  24  45  63 101 139 179 219 278 332 408
#     4  10  23  41  72  98 132 172 227 279 335 383
#     4  10  23  42  67  97 138 180 224 265 345 392
#
# _framework density 24.720863999999999
#
# number of rings (size 3 to 8) (size 9 to 14) (size 15 to 20)
#    0.000    1.778    2.222    0.667    0.000    8.000 
#    0.000    6.667    0.000    0.000    0.000    0.000 
#    0.000    0.000    0.000    0.000    0.000    0.000 
#
# Total GULP energy -100582.660661 kJ/mol
# GULP energy per Si atom -5587.925592 kJ/mol
# Density = 2.466460 g / cm^3
# Si number density = 24.720864 Si / 1000 Ang^3
#
#
#
# Elastic Constant Matrix: (Units=GPa)
#
#
# Indices 1 2 3 4 5 6 
#
# 1 187.2599 38.5408 24.8132 0.0000 -8.3488 0.0000
# 2 38.5408 104.2627 11.8237 0.0000 4.6127 0.0000
# 3 24.8132 11.8237 24.9860 0.0000 -6.7544 0.0000
# 4 0.0000 0.0000 0.0000 17.7196 0.0000 28.7189
# 5 -8.3488 4.6127 -6.7544 0.0000 44.2375 0.0000
# 6 0.0000 0.0000 0.0000 28.7189 0.0000 136.2946
#
#
#
# Elastic Compliance Matrix: (Units=1/GPa)
#
#
# Indices 1 2 3 4 5 6 
#
# 1 0.006452 -0.001798 -0.005399 0.000000 0.000581 0.000000
# 2 -0.001798 0.010786 -0.003874 0.000000 -0.002056 0.000000
# 3 -0.005399 -0.003874 0.049077 0.000000 0.006878 0.000000
# 4 0.000000 0.000000 0.000000 0.085703 0.000000 -0.018059
# 5 0.000581 -0.002056 0.006878 0.000000 0.023979 0.000000
# 6 0.000000 0.000000 0.000000 -0.018059 0.000000 0.011142
#
#
# Mechanical properties :
#
#
# Convention : Reuss Voigt Hill
#
# Bulk Modulus (GPa) = 22.63881 51.87377 37.25629
# Shear Modulus (GPa) = 22.32085 55.73907 39.02996
#
# Velocity S-wave (km/s) = 3.00811 4.75356 3.97776
# Velocity P-wave (km/s) = 4.60898 7.15247 6.01666
#
# Compressibility (1/GPa) = 0.04417193
#
# Stress axis : x y z
#
# Youngs Moduli (GPa) = 155.00078 92.71152 20.37625
#
# Poissons Ratio (x) = 0.16672 0.11001
# Poissons Ratio (y) = 0.27873 0.07894
# Poissons Ratio (z) = 0.83685 0.35916
#
# Static dielectric constant tensor:
#      x y z
#    x 2.049820 0.000000 0.044220 
#    y 0.000000 1.929210 0.000000 
#    z 0.044220 0.000000 2.000070 
# 
# From -- ./inp_files/117872.got.cif
#   From: 2010.05.17/outbox.cif.g08.bks.cpg/sg15_59_cif.got.tgz:117872.got - 2010.06.03 18:47:42.
