data_PCOD9278262
_publ_section_title
;
Structure prediction by ZEFSAII (Michael W. Deem and Ramdas Pophale) SiO2 
 PCOD9278262
Probable space group: C 2/C
;
_chemical_formula_sum "Si O2"
_cell_formula_units_Z 48
_cell_length_a 8.395950
_cell_length_b 21.283249
_cell_length_c 16.293012
_cell_angle_alpha 90.000000
_cell_angle_beta 124.971394
_cell_angle_gamma 90.000000
_cell_volume 2385.752632
_symmetry_space_group_name_H-M "C 2/C"
_symmetry_group_IT_number 15
_symmetry_cell_setting 'monoclinic'
loop_
_space_group_symop_operation_xyz
x,y,z
-x,y,1/2-z
-x,-y,-z
x,-y,1/2+z
1/2+x,1/2+y,z
1/2-x,1/2+y,1/2-z
1/2-x,1/2-y,-z
1/2+x,1/2-y,1/2+z
loop_
_atom_site_type_symbol
_atom_site_label
_atom_site_fract_x
_atom_site_fract_y
_atom_site_fract_z
Si Si1 0.844392 0.405299 0.909879
Si Si2 0.500000 0.900208 0.250000
Si Si3 0.829991 0.692109 0.267984
Si Si4 0.909323 0.807008 0.563243
Si Si5 0.887587 0.816037 0.374768
Si Si6 0.624209 0.950381 0.123162
Si Si7 0.000000 0.124468 0.750000
O O1 0.848359 0.373704 0.821528
O O2 0.689626 0.364258 0.915985
O O3 0.821986 0.480063 0.890635
O O4 0.034639 0.407690 0.024132
O O5 0.684892 0.853630 0.307814
O O6 0.491956 0.943093 0.165536
O O7 0.614921 0.707079 0.168226
O O8 0.856560 0.742929 0.348020
O O9 0.000000 0.696916 0.250000
O O10 0.750000 0.750000 0.500000
O O11 0.965591 0.827895 0.487996
O O12 0.023017 0.836186 0.339350
O O13 0.819514 0.919159 0.209592
#
# Coordination Sequence:
#
# PCOD9278262 Si02
#       7
#     8   4   8   8   8   8   4
#     4  11  25  46  68  97 139 181 232 280 347 407
#     4  10  20  42  68  98 132 180 226 274 342 410
#     4  12  28  42  68 104 143 179 228 292 347 403
#     4  12  25  43  71 100 135 184 228 284 346 420
#     4  11  22  41  66  97 132 174 226 278 343 406
#     4  10  24  44  69  98 137 183 229 281 334 415
#     4  10  24  40  68  96 136 180 222 282 340 410
#
# _framework density 20.119437999999999
#
# number of rings (size 3 to 8) (size 9 to 14) (size 15 to 20)
#    0.000    1.000    4.167    1.500    8.167    0.667 
#    0.000    0.833    0.000    0.000    0.000    0.000 
#    0.000    0.000    0.000    0.000    0.000    0.000 
#
# Total GULP energy -133703.939808 kJ/mol
# GULP energy per Si atom -5570.997492 kJ/mol
# Density = 2.007365 g / cm^3
# Si number density = 20.119438 Si / 1000 Ang^3
#
#
#
# Elastic Constant Matrix: (Units=GPa)
#
#
# Indices 1 2 3 4 5 6 
#
# 1 81.2883 28.4444 23.4291 0.0000 -17.8177 0.0000
# 2 28.4444 55.4463 8.3359 0.0000 4.3764 0.0000
# 3 23.4291 8.3359 70.2155 0.0000 -10.6047 0.0000
# 4 0.0000 0.0000 0.0000 21.4737 0.0000 -1.6831
# 5 -17.8177 4.3764 -10.6047 0.0000 36.1779 0.0000
# 6 0.0000 0.0000 0.0000 -1.6831 0.0000 14.7799
#
#
#
# Elastic Compliance Matrix: (Units=1/GPa)
#
#
# Indices 1 2 3 4 5 6 
#
# 1 0.018889 -0.009875 -0.003709 0.000000 0.009410 0.000000
# 2 -0.009875 0.023841 -0.000738 0.000000 -0.007964 0.000000
# 3 -0.003709 -0.000738 0.016014 0.000000 0.002957 0.000000
# 4 0.000000 0.000000 0.000000 0.046988 0.000000 0.005351
# 5 0.009410 -0.007964 0.002957 0.000000 0.034106 0.000000
# 6 0.000000 0.000000 0.000000 0.005351 0.000000 0.068269
#
#
# Mechanical properties :
#
#
# Convention : Reuss Voigt Hill
#
# Bulk Modulus (GPa) = 33.22395 36.37433 34.79914
# Shear Modulus (GPa) = 20.26054 24.26901 22.26477
#
# Velocity S-wave (km/s) = 3.17679 3.47687 3.33021
# Velocity P-wave (km/s) = 5.47770 5.85121 5.66753
#
# Compressibility (1/GPa) = 0.03009877
#
# Stress axis : x y z
#
# Youngs Moduli (GPa) = 52.94014 41.94419 62.44661
#
# Poissons Ratio (x) = 0.41422 0.23163
# Poissons Ratio (y) = 0.52281 0.04609
# Poissons Ratio (z) = 0.19637 0.03096
#
# Static dielectric constant tensor:
#      x y z
#    x 1.831880 0.000000 -0.022200 
#    y 0.000000 1.707720 0.000000 
#    z -0.022200 0.000000 1.737890 
# 
# From -- ./inp_files/192347.got.cif
#   From: 2010.05.17/outbox.cif.g08.bks.cpg/sg15_97_cif.got.tgz:192347.got - 2010.06.03 18:47:42.
