data_PCOD9278065
_publ_section_title
;
Structure prediction by ZEFSAII (Michael W. Deem and Ramdas Pophale) SiO2 
 PCOD9278065
Probable space group: C 2/C
;
_chemical_formula_sum "Si O2"
_cell_formula_units_Z 52
_cell_length_a 11.153059
_cell_length_b 13.542652
_cell_length_c 15.021819
_cell_angle_alpha 90.000000
_cell_angle_beta 68.167821
_cell_angle_gamma 90.000000
_cell_volume 2106.191639
_symmetry_space_group_name_H-M "C 2/C"
_symmetry_group_IT_number 15
_symmetry_cell_setting 'monoclinic'
loop_
_space_group_symop_operation_xyz
x,y,z
-x,y,1/2-z
-x,-y,-z
x,-y,1/2+z
1/2+x,1/2+y,z
1/2-x,1/2+y,1/2-z
1/2-x,1/2-y,-z
1/2+x,1/2-y,1/2+z
loop_
_atom_site_type_symbol
_atom_site_label
_atom_site_fract_x
_atom_site_fract_y
_atom_site_fract_z
Si Si1 0.040424 0.085044 0.883196
Si Si2 0.871849 0.554254 0.932135
Si Si3 0.500000 0.735583 0.250000
Si Si4 0.404313 0.403126 0.933324
Si Si5 0.205223 0.533838 0.226716
Si Si6 0.725713 0.265529 0.237935
Si Si7 0.861820 0.596752 0.587164
O O1 0.103006 0.176317 0.813203
O O2 0.151444 0.001746 0.839273
O O3 0.024773 0.109902 0.991362
O O4 0.917597 0.017144 0.894021
O O5 0.874624 0.516082 0.830826
O O6 0.991825 0.621881 0.924903
O O7 0.743298 0.610604 0.996839
O O8 0.872392 0.453685 0.989396
O O9 0.542618 0.667627 0.155856
O O10 0.358963 0.781463 0.259564
O O11 0.197562 0.650820 0.235598
O O12 0.173766 0.487700 0.330776
O O13 0.764867 0.314547 0.133061
#
# Coordination Sequence:
#
# PCOD9278065 Si02
#       7
#     8   8   4   8   8   8   8
#     4   9  21  42  63  92 130 170 212 266 324 390
#     4  10  22  41  68  90 129 180 214 266 328 387
#     4  12  24  38  66 100 128 170 218 280 330 392
#     4  10  21  41  66  91 126 172 214 268 326 390
#     4  10  20  42  65  94 134 169 217 267 324 387
#     4  11  24  39  66  97 130 168 218 275 326 393
#     4  10  23  43  64  94 131 172 219 268 327 390
#
# _framework density 24.689112000000002
#
# number of rings (size 3 to 8) (size 9 to 14) (size 15 to 20)
#    0.000    1.846    1.538    1.385    8.615    1.231 
#    5.538    3.077    0.000    0.000    0.000    0.000 
#    0.000    0.000    0.000    0.000    0.000    0.000 
#
# Total GULP energy -145364.386964 kJ/mol
# GULP energy per Si atom -5590.937960 kJ/mol
# Density = 2.463292 g / cm^3
# Si number density = 24.689112 Si / 1000 Ang^3
#
#
#
# Elastic Constant Matrix: (Units=GPa)
#
#
# Indices 1 2 3 4 5 6 
#
# 1 37.1955 -7.6618 27.0331 0.0000 0.1049 0.0000
# 2 -7.6618 126.6687 53.0731 0.0000 -3.0326 0.0000
# 3 27.0331 53.0731 140.6583 0.0000 -11.1056 0.0000
# 4 0.0000 0.0000 0.0000 24.4871 0.0000 10.7242
# 5 0.1049 -3.0326 -11.1056 0.0000 36.6800 0.0000
# 6 0.0000 0.0000 0.0000 10.7242 0.0000 4.7591
#
#
#
# Elastic Compliance Matrix: (Units=1/GPa)
#
#
# Indices 1 2 3 4 5 6 
#
# 1 0.034671 0.005833 -0.009050 0.000000 -0.002357 0.000000
# 2 0.005833 0.010362 -0.005086 0.000000 -0.000700 0.000000
# 3 -0.009050 -0.005086 0.011000 0.000000 0.002936 0.000000
# 4 0.000000 0.000000 0.000000 3.118315 0.000000 -7.026938
# 5 -0.002357 -0.000700 0.002936 0.000000 0.028100 0.000000
# 6 0.000000 0.000000 0.000000 -7.026938 0.000000 16.044917
#
#
# Mechanical properties :
#
#
# Convention : Reuss Voigt Hill
#
# Bulk Modulus (GPa) = 25.36466 49.93458 37.64962
# Shear Modulus (GPa) = 0.25937 28.65712 14.45825
#
# Velocity S-wave (km/s) = 0.32448 3.41063 2.42257
# Velocity P-wave (km/s) = 3.23053 5.98156 4.80705
#
# Compressibility (1/GPa) = 0.03942494
#
# Stress axis : x y z
#
# Youngs Moduli (GPa) = 28.84285 96.51037 90.91269
#
# Poissons Ratio (x) = -0.56291 0.82278
# Poissons Ratio (y) = -0.16823 0.46237
# Poissons Ratio (z) = 0.26103 0.49084
#
# Static dielectric constant tensor:
#      x y z
#    x 2.119070 0.000000 -0.007390 
#    y 0.000000 1.938450 0.000000 
#    z -0.007390 0.000000 1.902810 
# 
# From -- ./inp_files/197704.got.cif
#   From: 2010.05.17/outbox.cif.g08.bks.cpg/sg15_99_cif.got.tgz:197704.got - 2010.06.03 18:47:42.
