data_PCOD9278331
_publ_section_title
;
Structure prediction by ZEFSAII (Michael W. Deem and Ramdas Pophale) SiO2 
 PCOD9278331
Probable space group: C 2/C
;
_chemical_formula_sum "Si O2"
_cell_formula_units_Z 36
_cell_length_a 28.060973
_cell_length_b 9.000532
_cell_length_c 17.266049
_cell_angle_alpha 90.000000
_cell_angle_beta 153.663788
_cell_angle_gamma 90.000000
_cell_volume 1934.605058
_symmetry_space_group_name_H-M "C 2/C"
_symmetry_group_IT_number 15
_symmetry_cell_setting 'monoclinic'
loop_
_space_group_symop_operation_xyz
x,y,z
-x,y,1/2-z
-x,-y,-z
x,-y,1/2+z
1/2+x,1/2+y,z
1/2-x,1/2+y,1/2-z
1/2-x,1/2-y,-z
1/2+x,1/2-y,1/2+z
loop_
_atom_site_type_symbol
_atom_site_label
_atom_site_fract_x
_atom_site_fract_y
_atom_site_fract_z
Si Si1 0.000000 0.303192 0.250000
Si Si2 0.805664 0.160271 0.650271
Si Si3 0.021910 0.667303 0.504878
Si Si4 0.138361 0.827574 0.815665
Si Si5 0.401596 0.098404 0.053192
O O1 0.059256 0.206646 0.271945
O O2 0.079955 0.420045 0.409909
O O3 0.750000 0.250000 0.500000
O O4 0.713616 0.138994 0.580665
O O5 0.842321 0.000071 0.672502
O O6 0.909056 0.248694 0.830252
O O7 0.091015 0.751377 0.669890
O O8 0.079737 0.654360 0.506042
O O9 0.000000 0.500000 0.500000
O O10 0.250000 0.750000 0.000000
O O11 0.500000 0.159909 0.250000
#
# Coordination Sequence:
#
# PCOD9278331 Si02
#       5
#     4   8   8   8   8
#     4  10  20  42  70  96 134 176 222 270 340 394
#     4  12  24  43  69 102 135 177 222 277 333 397
#     4  12  24  43  69 102 135 177 222 277 333 397
#     4  12  24  43  69 102 135 177 222 277 333 397
#     4  10  20  42  70  96 134 176 222 270 340 394
#
# _framework density 18.608449
#
# number of rings (size 3 to 8) (size 9 to 14) (size 15 to 20)
#    0.667    0.000    6.667    2.000    0.000    5.333 
#    0.000    0.000    0.000    0.000    0.000    0.000 
#    0.000    0.000    0.000    0.000    0.000    0.000 
#
# Total GULP energy -100565.159851 kJ/mol
# GULP energy per Si atom -5586.953325 kJ/mol
# Density = 1.856610 g / cm^3
# Si number density = 18.608449 Si / 1000 Ang^3
#
#
#
# Elastic Constant Matrix: (Units=GPa)
#
#
# Indices 1 2 3 4 5 6 
#
# 1 239.4625 82.6555 84.4149 0.0000 5.3615 0.0000
# 2 82.6555 166.9205 94.8368 0.0000 5.2948 0.0000
# 3 84.4149 94.8368 165.3801 0.0000 -6.9694 0.0000
# 4 0.0000 0.0000 0.0000 37.0693 0.0000 5.6969
# 5 5.3615 5.2948 -6.9694 0.0000 33.4248 0.0000
# 6 0.0000 0.0000 0.0000 5.6969 0.0000 31.6415
#
#
#
# Elastic Compliance Matrix: (Units=1/GPa)
#
#
# Indices 1 2 3 4 5 6 
#
# 1 0.005411 -0.001563 -0.001909 0.000000 -0.001018 0.000000
# 2 -0.001563 0.009548 -0.004773 0.000000 -0.002257 0.000000
# 3 -0.001909 -0.004773 0.009890 0.000000 0.003124 0.000000
# 4 0.000000 0.000000 0.000000 0.027744 0.000000 -0.004995
# 5 -0.001018 -0.002257 0.003124 0.000000 0.031090 0.000000
# 6 0.000000 0.000000 0.000000 -0.004995 0.000000 0.032503
#
#
# Mechanical properties :
#
#
# Convention : Reuss Voigt Hill
#
# Bulk Modulus (GPa) = 119.61419 121.73084 120.67251
# Shear Modulus (GPa) = 36.91084 41.08417 38.99751
#
# Velocity S-wave (km/s) = 4.45854 4.70385 4.58283
# Velocity P-wave (km/s) = 9.53540 9.74990 9.64325
#
# Compressibility (1/GPa) = 0.00836021
#
# Stress axis : x y z
#
# Youngs Moduli (GPa) = 184.80559 104.73506 101.11686
#
# Poissons Ratio (x) = 0.16366 0.19301
# Poissons Ratio (y) = 0.28879 0.48260
# Poissons Ratio (z) = 0.35276 0.49987
#
# Static dielectric constant tensor:
#      x y z
#    x 1.631020 0.000000 0.000200 
#    y 0.000000 1.627620 0.000000 
#    z 0.000200 0.000000 1.627630 
# 
# From -- ./inp_files/177069.got.cif
#   From: 2010.05.17/outbox.cif.g08.bks.cpg/sg15_89_cif.got.tgz:177069.got - 2010.06.03 18:47:42.
