data_PCOD9278819
_publ_section_title
;
Structure prediction by ZEFSAII (Michael W. Deem and Ramdas Pophale) SiO2 
 PCOD9278819
Probable space group: C 2/C
;
_chemical_formula_sum "Si O2"
_cell_formula_units_Z 28
_cell_length_a 12.852801
_cell_length_b 18.518516
_cell_length_c 8.907449
_cell_angle_alpha 90.000000
_cell_angle_beta 137.810055
_cell_angle_gamma 90.000000
_cell_volume 1423.842331
_symmetry_space_group_name_H-M "C 2/C"
_symmetry_group_IT_number 15
_symmetry_cell_setting 'monoclinic'
loop_
_space_group_symop_operation_xyz
x,y,z
-x,y,1/2-z
-x,-y,-z
x,-y,1/2+z
1/2+x,1/2+y,z
1/2-x,1/2+y,1/2-z
1/2-x,1/2-y,-z
1/2+x,1/2-y,1/2+z
loop_
_atom_site_type_symbol
_atom_site_label
_atom_site_fract_x
_atom_site_fract_y
_atom_site_fract_z
Si Si1 0.830216 0.497069 0.390151
Si Si2 0.679214 0.581994 0.480149
Si Si3 0.500000 0.729229 0.750000
Si Si4 0.771936 0.340359 0.358265
O O1 0.781698 0.562121 0.445272
O O2 0.822307 0.420037 0.467219
O O3 0.000000 0.500000 0.500000
O O4 0.705282 0.484880 0.123979
O O5 0.500000 0.590471 0.250000
O O6 0.743241 0.647544 0.650051
O O7 0.385258 0.682021 0.727546
O O8 0.397744 0.780964 0.534584
#
# Coordination Sequence:
#
# PCOD9278819 Si02
#       4
#     8   8   4   8
#     4  10  22  38  65  97 126 160 204 270 329 373
#     4  10  22  40  63 100 125 162 204 270 331 370
#     4  10  20  48  58  92 122 186 214 248 312 378
#     4   9  24  37  69  85 128 168 219 256 306 389
#
# _framework density 19.665099999999999
#
# number of rings (size 3 to 8) (size 9 to 14) (size 15 to 20)
#    1.714    0.571    0.000    1.714    6.000    0.000 
#    5.143    1.429    0.000    0.000    0.000    0.000 
#    0.000    0.000    0.000    0.000    0.000    0.000 
#
# Total GULP energy -77962.987072 kJ/mol
# GULP energy per Si atom -5568.784791 kJ/mol
# Density = 1.962034 g / cm^3
# Si number density = 19.665100 Si / 1000 Ang^3
#
#
#
# Elastic Constant Matrix: (Units=GPa)
#
#
# Indices 1 2 3 4 5 6 
#
# 1 138.0992 61.9005 50.1733 0.0000 18.3256 0.0000
# 2 61.9005 65.4267 19.9820 0.0000 12.6850 0.0000
# 3 50.1733 19.9820 99.7284 0.0000 3.6557 0.0000
# 4 0.0000 0.0000 0.0000 6.7254 0.0000 6.0996
# 5 18.3256 12.6850 3.6557 0.0000 30.6642 0.0000
# 6 0.0000 0.0000 0.0000 6.0996 0.0000 8.6873
#
#
#
# Elastic Compliance Matrix: (Units=1/GPa)
#
#
# Indices 1 2 3 4 5 6 
#
# 1 0.014784 -0.011827 -0.004945 0.000000 -0.003353 0.000000
# 2 -0.011827 0.027084 0.000678 0.000000 -0.004217 0.000000
# 3 -0.004945 0.000678 0.012335 0.000000 0.001204 0.000000
# 4 0.000000 0.000000 0.000000 0.409393 0.000000 -0.287449
# 5 -0.003353 -0.004217 0.001204 0.000000 0.036216 0.000000
# 6 0.000000 0.000000 0.000000 -0.287449 0.000000 0.316939
#
#
# Mechanical properties :
#
#
# Convention : Reuss Voigt Hill
#
# Bulk Modulus (GPa) = 45.42313 63.04066 54.23190
# Shear Modulus (GPa) = 5.83923 20.62862 13.23393
#
# Velocity S-wave (km/s) = 1.72505 3.24234 2.59697
# Velocity P-wave (km/s) = 5.20732 6.79292 6.05227
#
# Compressibility (1/GPa) = 0.02201521
#
# Stress axis : x y z
#
# Youngs Moduli (GPa) = 67.64111 36.92199 81.06886
#
# Poissons Ratio (x) = 0.43667 0.40090
# Poissons Ratio (y) = 0.79997 -0.05496
# Poissons Ratio (z) = 0.33450 -0.02503
#
# Static dielectric constant tensor:
#      x y z
#    x 1.675330 0.000000 -0.031390 
#    y 0.000000 1.690960 0.000000 
#    z -0.031390 0.000000 1.724380 
# 
# From -- ./inp_files/29949.got.cif
#   From: 2010.05.17/outbox.cif.g08.bks.cpg/sg15_15_cif.got.tgz:29949.got - 2010.06.03 18:47:42.
