data_PCOD9278015
_publ_section_title
;
Structure prediction by ZEFSAII (Michael W. Deem and Ramdas Pophale) SiO2 
 PCOD9278015
Probable space group: C 2/C
;
_chemical_formula_sum "Si O2"
_cell_formula_units_Z 52
_cell_length_a 8.916869
_cell_length_b 16.679732
_cell_length_c 17.382642
_cell_angle_alpha 90.000000
_cell_angle_beta 111.411107
_cell_angle_gamma 90.000000
_cell_volume 2406.910574
_symmetry_space_group_name_H-M "C 2/C"
_symmetry_group_IT_number 15
_symmetry_cell_setting 'monoclinic'
loop_
_space_group_symop_operation_xyz
x,y,z
-x,y,1/2-z
-x,-y,-z
x,-y,1/2+z
1/2+x,1/2+y,z
1/2-x,1/2+y,1/2-z
1/2-x,1/2-y,-z
1/2+x,1/2-y,1/2+z
loop_
_atom_site_type_symbol
_atom_site_label
_atom_site_fract_x
_atom_site_fract_y
_atom_site_fract_z
Si Si1 0.690126 0.553661 0.772464
Si Si2 0.253922 0.427985 0.817950
Si Si3 0.500000 0.806496 0.750000
Si Si4 0.733064 0.795749 0.123739
Si Si5 0.322468 0.918033 0.519000
Si Si6 0.705284 0.072055 0.079895
Si Si7 0.976610 0.813713 0.656738
O O1 0.500000 0.564580 0.750000
O O2 0.748647 0.521484 0.701340
O O3 0.773488 0.634383 0.813877
O O4 0.747621 0.481435 0.837678
O O5 0.135756 0.369026 0.747841
O O6 0.430375 0.398626 0.829634
O O7 0.217284 0.410785 0.899344
O O8 0.600390 0.751823 0.827918
O O9 0.740622 0.844136 0.045029
O O10 0.578033 0.740911 0.115635
O O11 0.514250 0.915477 0.542826
O O12 0.259397 0.005693 0.480047
O O13 0.799121 0.156826 0.099416
O O14 0.000000 0.785022 0.750000
#
# Coordination Sequence:
#
# PCOD9278015 Si02
#       7
#     8   8   4   8   8   8   8
#     4  11  19  41  69  94 126 176 226 279 312 395
#     4  11  21  38  69  99 122 176 227 267 327 391
#     4  10  22  38  66  90 128 170 216 270 318 398
#     4  10  24  43  63  96 134 170 223 271 339 384
#     4  10  24  40  64  98 136 172 216 281 327 394
#     4  10  20  42  64  92 140 172 214 269 337 385
#     4  11  22  41  66  97 126 172 222 271 324 398
#
# _framework density 21.60446
#
# number of rings (size 3 to 8) (size 9 to 14) (size 15 to 20)
#    0.000    1.538    3.846    0.923    2.154    3.692 
#    9.692    1.538    3.385    0.000    0.000    0.000 
#    0.000    0.000    0.000    0.000    0.000    0.000 
#
# Total GULP energy -144902.980657 kJ/mol
# GULP energy per Si atom -5573.191564 kJ/mol
# Density = 2.155529 g / cm^3
# Si number density = 21.604460 Si / 1000 Ang^3
#
#
#
# Elastic Constant Matrix: (Units=GPa)
#
#
# Indices 1 2 3 4 5 6 
#
# 1 56.2177 31.3111 32.8613 0.0000 5.2810 0.0000
# 2 31.3111 102.3362 43.9375 0.0000 -5.0918 0.0000
# 3 32.8613 43.9375 77.6313 0.0000 -5.2793 0.0000
# 4 0.0000 0.0000 0.0000 34.2593 0.0000 0.2593
# 5 5.2810 -5.0918 -5.2793 0.0000 34.0202 0.0000
# 6 0.0000 0.0000 0.0000 0.2593 0.0000 21.8525
#
#
#
# Elastic Compliance Matrix: (Units=1/GPa)
#
#
# Indices 1 2 3 4 5 6 
#
# 1 0.026054 -0.004441 -0.008930 0.000000 -0.006095 0.000000
# 2 -0.004441 0.013687 -0.005741 0.000000 0.001847 0.000000
# 3 -0.008930 -0.005741 0.020159 0.000000 0.003655 0.000000
# 4 0.000000 0.000000 0.000000 0.029192 0.000000 -0.000346
# 5 -0.006095 0.001847 0.003655 0.000000 0.031184 0.000000
# 6 0.000000 0.000000 0.000000 -0.000346 0.000000 0.045765
#
#
# Mechanical properties :
#
#
# Convention : Reuss Voigt Hill
#
# Bulk Modulus (GPa) = 46.13214 50.26719 48.19967
# Shear Modulus (GPa) = 23.64175 26.56476 25.10326
#
# Velocity S-wave (km/s) = 3.31161 3.51036 3.41243
# Velocity P-wave (km/s) = 6.00181 6.30458 6.15506
#
# Compressibility (1/GPa) = 0.02167686
#
# Stress axis : x y z
#
# Youngs Moduli (GPa) = 38.38255 73.06017 49.60492
#
# Poissons Ratio (x) = 0.32445 0.44295
# Poissons Ratio (y) = 0.17045 0.28480
# Poissons Ratio (z) = 0.34274 0.41946
#
# Static dielectric constant tensor:
#      x y z
#    x 1.847460 0.000000 0.019430 
#    y 0.000000 1.830120 0.000000 
#    z 0.019430 0.000000 1.902300 
# 
# From -- ./inp_files/190559.got.cif
#   From: 2010.05.17/outbox.cif.g08.bks.cpg/sg15_96_cif.got.tgz:190559.got - 2010.06.03 18:47:42.
