data_PCOD9278673
_publ_section_title
;
Structure prediction by ZEFSAII (Michael W. Deem and Ramdas Pophale) SiO2 
 PCOD9278673
Probable space group: C 2/C
;
_chemical_formula_sum "Si O2"
_cell_formula_units_Z 56
_cell_length_a 13.768870
_cell_length_b 6.594867
_cell_length_c 27.383631
_cell_angle_alpha 90.000000
_cell_angle_beta 91.657666
_cell_angle_gamma 90.000000
_cell_volume 2485.498970
_symmetry_space_group_name_H-M "C 2/C"
_symmetry_group_IT_number 15
_symmetry_cell_setting 'monoclinic'
loop_
_space_group_symop_operation_xyz
x,y,z
-x,y,1/2-z
-x,-y,-z
x,-y,1/2+z
1/2+x,1/2+y,z
1/2-x,1/2+y,1/2-z
1/2-x,1/2-y,-z
1/2+x,1/2-y,1/2+z
loop_
_atom_site_type_symbol
_atom_site_label
_atom_site_fract_x
_atom_site_fract_y
_atom_site_fract_z
Si Si1 0.239780 0.466815 0.086357
Si Si2 0.487741 0.241498 0.178395
Si Si3 0.664180 0.923301 0.282024
Si Si4 0.458756 0.367149 0.073636
Si Si5 0.250000 0.250000 0.500000
Si Si6 0.800149 0.602764 0.311108
Si Si7 0.500000 0.386935 0.750000
Si Si8 0.382883 0.362883 0.972937
O O1 0.355439 0.441983 0.092136
O O2 0.202150 0.470227 0.140840
O O3 0.187292 0.285496 0.056817
O O4 0.219260 0.667150 0.054412
O O5 0.498874 0.244456 0.119918
O O6 0.588895 0.154172 0.199215
O O7 0.486296 0.463763 0.203140
O O8 0.397574 0.100108 0.192677
O O9 0.733337 0.798566 0.319444
O O10 0.590362 0.765385 0.255622
O O11 0.733667 0.000283 0.239525
O O12 0.531715 0.545872 0.059146
O O13 0.432848 0.259244 0.021556
O O14 0.319242 0.452368 0.493503
#
# Coordination Sequence:
#
# PCOD9278673 Si02
#       8
#     8   8   8   8   4   8   4   8
#     4  11  25  43  69 101 141 186 235 296 367 438
#     4  12  25  47  70 105 143 193 243 305 375 438
#     4  12  27  47  71 105 146 190 254 310 368 454
#     4  10  23  42  71 101 137 185 233 293 366 429
#     4  10  20  44  68  98 134 180 226 292 352 442
#     4  12  26  46  69 105 139 194 243 299 379 429
#     4  12  22  48  72  98 148 184 242 314 356 454
#     4  10  23  46  69 103 144 181 239 302 360 440
#
# _framework density 22.530688999999999
#
# number of rings (size 3 to 8) (size 9 to 14) (size 15 to 20)
#    0.000    0.857    2.857    4.286    4.000    4.571 
#    0.000   17.857    0.000    0.000    0.000    0.000 
#    0.000    0.000    0.000    0.000    0.000    0.000 
#
# Total GULP energy -155926.196680 kJ/mol
# GULP energy per Si atom -5568.792739 kJ/mol
# Density = 2.247941 g / cm^3
# Si number density = 22.530689 Si / 1000 Ang^3
#
#
#
# Elastic Constant Matrix: (Units=GPa)
#
#
# Indices 1 2 3 4 5 6 
#
# 1 63.6676 23.6639 14.7980 0.0000 -10.1325 0.0000
# 2 23.6639 51.6133 24.1450 0.0000 1.1969 0.0000
# 3 14.7980 24.1450 108.9741 0.0000 -5.5586 0.0000
# 4 0.0000 0.0000 0.0000 21.9359 0.0000 -0.5976
# 5 -10.1325 1.1969 -5.5586 0.0000 32.7584 0.0000
# 6 0.0000 0.0000 0.0000 -0.5976 0.0000 33.6711
#
#
#
# Elastic Compliance Matrix: (Units=1/GPa)
#
#
# Indices 1 2 3 4 5 6 
#
# 1 0.020283 -0.009281 -0.000364 0.000000 0.006551 0.000000
# 2 -0.009281 0.025947 -0.004724 0.000000 -0.004621 0.000000
# 3 -0.000364 -0.004724 0.010365 0.000000 0.001819 0.000000
# 4 0.000000 0.000000 0.000000 0.045609 0.000000 0.000810
# 5 0.006551 -0.004621 0.001819 0.000000 0.033030 0.000000
# 6 0.000000 0.000000 0.000000 0.000810 0.000000 0.029713
#
#
# Mechanical properties :
#
#
# Convention : Reuss Voigt Hill
#
# Bulk Modulus (GPa) = 35.89735 38.82988 37.36361
# Shear Modulus (GPa) = 24.63363 28.44962 26.54163
#
# Velocity S-wave (km/s) = 3.31015 3.55731 3.43595
# Velocity P-wave (km/s) = 5.52962 5.84331 5.68863
#
# Compressibility (1/GPa) = 0.02785721
#
# Stress axis : x y z
#
# Youngs Moduli (GPa) = 49.30128 38.53938 96.47447
#
# Poissons Ratio (x) = 0.35770 0.03509
# Poissons Ratio (y) = 0.45759 0.45579
# Poissons Ratio (z) = 0.01793 0.18208
#
# Static dielectric constant tensor:
#      x y z
#    x 1.873940 0.000000 0.075830 
#    y 0.000000 1.903650 0.000000 
#    z 0.075830 0.000000 1.706610 
# 
# From -- ./inp_files/312379.got.cif
#   From: 2010.05.17/outbox.cif.g08.bks.cpg/sg15_157_cif.got.tgz:312379.got - 2010.06.03 18:47:42.
