data_PCOD9278173
_publ_section_title
;
Structure prediction by ZEFSAII (Michael W. Deem and Ramdas Pophale) SiO2 
 PCOD9278173
Probable space group: C 2/C
;
_chemical_formula_sum "Si O2"
_cell_formula_units_Z 48
_cell_length_a 18.808835
_cell_length_b 14.780641
_cell_length_c 18.510229
_cell_angle_alpha 90.000000
_cell_angle_beta 27.356278
_cell_angle_gamma 90.000000
_cell_volume 2364.685682
_symmetry_space_group_name_H-M "C 2/C"
_symmetry_group_IT_number 15
_symmetry_cell_setting 'monoclinic'
loop_
_space_group_symop_operation_xyz
x,y,z
-x,y,1/2-z
-x,-y,-z
x,-y,1/2+z
1/2+x,1/2+y,z
1/2-x,1/2+y,1/2-z
1/2-x,1/2-y,-z
1/2+x,1/2-y,1/2+z
loop_
_atom_site_type_symbol
_atom_site_label
_atom_site_fract_x
_atom_site_fract_y
_atom_site_fract_z
Si Si1 0.586917 0.178417 0.097317
Si Si2 0.601343 0.031662 0.975806
Si Si3 0.600139 0.315365 0.733147
Si Si4 0.552258 0.137756 0.620812
Si Si5 0.386598 0.385687 0.409357
Si Si6 0.960164 0.006358 0.120344
O O1 0.500000 0.156689 0.250000
O O2 0.569346 0.285561 0.102025
O O3 0.547594 0.125375 0.060444
O O4 0.752339 0.142497 0.974795
O O5 0.785792 0.033801 0.791670
O O6 0.500000 0.000000 0.000000
O O7 0.561937 0.956511 0.071316
O O8 0.500000 0.323385 0.750000
O O9 0.564007 0.216898 0.799410
O O10 0.776187 0.322987 0.547408
O O11 0.555152 0.394038 0.830088
O O12 0.500000 0.120431 0.750000
O O13 0.500000 0.432113 0.250000
O O14 0.401307 0.452554 0.463209
O O15 0.000000 0.000000 0.000000
#
# Coordination Sequence:
#
# PCOD9278173 Si02
#       6
#     8   8   8   8   8   8
#     4  10  22  39  67  96 117 159 204 260 312 358
#     4  11  25  41  58  90 128 161 200 251 311 366
#     4  10  21  38  62  89 116 156 202 248 296 355
#     4  10  21  39  62  89 117 156 202 246 299 354
#     4  10  20  42  67  90 121 156 212 256 301 371
#     4  11  25  40  61  88 123 167 201 248 309 368
#
# _framework density 20.298680999999998
#
# number of rings (size 3 to 8) (size 9 to 14) (size 15 to 20)
#    0.000    1.667    1.667    3.000    4.667    4.000 
#    0.000    3.333    0.000    0.000    0.000    0.000 
#    0.000    0.000    0.000    0.000    0.000    0.000 
#
# Total GULP energy -133632.681763 kJ/mol
# GULP energy per Si atom -5568.028407 kJ/mol
# Density = 2.025248 g / cm^3
# Si number density = 20.298681 Si / 1000 Ang^3
#
#
#
# Elastic Constant Matrix: (Units=GPa)
#
#
# Indices 1 2 3 4 5 6 
#
# 1 52.0130 18.7143 4.5709 0.0002 20.3271 -0.0001
# 2 18.7143 67.4298 19.2875 -0.0003 20.6774 0.0003
# 3 4.5709 19.2875 67.5940 -0.0012 23.0381 0.0010
# 4 0.0002 -0.0003 -0.0012 28.9923 0.0009 -0.8616
# 5 20.3271 20.6774 23.0381 0.0009 31.2640 -0.0005
# 6 -0.0001 0.0003 0.0010 -0.8616 -0.0005 2.8382
#
#
#
# Elastic Compliance Matrix: (Units=1/GPa)
#
#
# Indices 1 2 3 4 5 6 
#
# 1 0.027809 -0.003177 0.005972 0.000001 -0.020381 -0.000004
# 2 -0.003177 0.019079 -0.002180 0.000000 -0.008947 -0.000003
# 3 0.005972 -0.002180 0.021158 0.000001 -0.018033 -0.000010
# 4 0.000001 0.000000 0.000001 0.034806 -0.000002 0.010567
# 5 -0.020381 -0.008947 -0.018033 -0.000002 0.064442 0.000018
# 6 -0.000004 -0.000003 -0.000010 0.010567 0.000018 0.355541
#
#
# Mechanical properties :
#
#
# Convention : Reuss Voigt Hill
#
# Bulk Modulus (GPa) = 14.43465 30.24248 22.33857
# Shear Modulus (GPa) = 9.17943 22.24987 15.71465
#
# Velocity S-wave (km/s) = 2.12885 3.31437 2.78541
# Velocity P-wave (km/s) = 3.62894 5.43855 4.62315
#
# Compressibility (1/GPa) = 0.06927774
#
# Stress axis : x y z
#
# Youngs Moduli (GPa) = 35.95967 52.41388 47.26249
#
# Poissons Ratio (x) = 0.16650 -0.28226
# Poissons Ratio (y) = 0.11423 0.10303
# Poissons Ratio (z) = -0.21476 0.11426
#
# Static dielectric constant tensor:
#      x y z
#    x 1.761120 0.000000 0.009530 
#    y 0.000000 1.751160 0.000000 
#    z 0.009530 0.000000 1.755910 
# 
# From -- ./inp_files/211313.got.cif
#   From: 2010.05.17/outbox.cif.g08.bks.cpg/sg15_106_cif.got.tgz:211313.got - 2010.06.03 18:47:42.
