data_PCOD9278523
_publ_section_title
;
Structure prediction by ZEFSAII (Michael W. Deem and Ramdas Pophale) SiO2 
 PCOD9278523
Probable space group: C 2/C
;
_chemical_formula_sum "Si O2"
_cell_formula_units_Z 40
_cell_length_a 12.971619
_cell_length_b 14.322679
_cell_length_c 11.364613
_cell_angle_alpha 90.000000
_cell_angle_beta 50.165577
_cell_angle_gamma 90.000000
_cell_volume 1621.351168
_symmetry_space_group_name_H-M "C 2/C"
_symmetry_group_IT_number 15
_symmetry_cell_setting 'monoclinic'
loop_
_space_group_symop_operation_xyz
x,y,z
-x,y,1/2-z
-x,-y,-z
x,-y,1/2+z
1/2+x,1/2+y,z
1/2-x,1/2+y,1/2-z
1/2-x,1/2-y,-z
1/2+x,1/2-y,1/2+z
loop_
_atom_site_type_symbol
_atom_site_label
_atom_site_fract_x
_atom_site_fract_y
_atom_site_fract_z
Si Si1 0.679752 0.058270 0.839379
Si Si2 0.295255 0.151519 0.091845
Si Si3 0.500000 0.092024 0.750000
Si Si4 0.541777 0.393235 0.466856
Si Si5 0.518918 0.214072 0.097961
Si Si6 0.500000 0.682231 0.250000
O O1 0.586954 0.042412 0.789320
O O2 0.815770 0.105453 0.700029
O O3 0.713560 0.959353 0.874634
O O4 0.609202 0.130729 0.979479
O O5 0.378402 0.196253 0.135945
O O6 0.151584 0.200654 0.192800
O O7 0.398144 0.154115 0.904094
O O8 0.500000 0.500000 0.500000
O O9 0.445536 0.319331 0.470696
O O10 0.557369 0.366423 0.590694
O O11 0.500000 0.209341 0.250000
#
# Coordination Sequence:
#
# PCOD9278523 Si02
#       6
#     8   8   4   8   8   4
#     4  11  25  45  79 114 154 208 254 321 392 459
#     4  11  25  45  81 114 155 207 256 328 387 460
#     4  10  20  43  70 113 146 194 262 313 372 457
#     4  12  28  49  74 112 155 209 253 325 401 458
#     4  11  29  50  78 117 155 202 264 323 391 468
#     4  12  26  49  76 107 156 202 266 309 384 477
#
# _framework density 24.670780000000001
#
# number of rings (size 3 to 8) (size 9 to 14) (size 15 to 20)
#    0.000    0.800    4.000    2.400    9.800    4.800 
#    0.000    0.000    0.000    0.000    0.000    0.000 
#    0.000    0.000    0.000    0.000    0.000    0.000 
#
# Total GULP energy -111713.775502 kJ/mol
# GULP energy per Si atom -5585.688775 kJ/mol
# Density = 2.461463 g / cm^3
# Si number density = 24.670780 Si / 1000 Ang^3
#
#
#
# Elastic Constant Matrix: (Units=GPa)
#
#
# Indices 1 2 3 4 5 6 
#
# 1 89.1029 30.1690 66.0790 0.0000 2.6417 0.0000
# 2 30.1690 154.9278 35.4965 0.0000 13.0738 0.0000
# 3 66.0790 35.4965 149.1815 0.0000 18.5629 0.0000
# 4 0.0000 0.0000 0.0000 713.9196 0.0000 -264.6481
# 5 2.6417 13.0738 18.5629 0.0000 64.2875 0.0000
# 6 0.0000 0.0000 0.0000 -264.6481 0.0000 143.0235
#
#
#
# Elastic Compliance Matrix: (Units=1/GPa)
#
#
# Indices 1 2 3 4 5 6 
#
# 1 0.017320 -0.001815 -0.007466 0.000000 0.001813 0.000000
# 2 -0.001815 0.007074 -0.000736 0.000000 -0.001152 0.000000
# 3 -0.007466 -0.000736 0.010506 0.000000 -0.002577 0.000000
# 4 0.000000 0.000000 0.000000 0.004460 0.000000 0.008253
# 5 0.001813 -0.001152 -0.002577 0.000000 0.016459 0.000000
# 6 0.000000 0.000000 0.000000 0.008253 0.000000 0.022262
#
#
# Mechanical properties :
#
#
# Convention : Reuss Voigt Hill
#
# Bulk Modulus (GPa) = 67.26469 72.96679 70.11574
# Shear Modulus (GPa) = 48.51059 201.67730 125.09395
#
# Velocity S-wave (km/s) = 4.43913 9.05124 7.12849
# Velocity P-wave (km/s) = 7.32111 11.78446 9.81000
#
# Compressibility (1/GPa) = 0.01486664
#
# Stress axis : x y z
#
# Youngs Moduli (GPa) = 57.73537 141.36529 95.18495
#
# Poissons Ratio (x) = 0.25662 0.71062
# Poissons Ratio (y) = 0.10481 0.07004
# Poissons Ratio (z) = 0.43103 0.10402
#
# Static dielectric constant tensor:
#      x y z
#    x 1.728160 0.000000 0.055150 
#    y 0.000000 1.674890 0.000000 
#    z 0.055150 0.000000 1.901810 
# 
# From -- ./inp_files/96057.got.cif
#   From: 2010.05.17/outbox.cif.g08.bks.cpg/sg15_49_cif.got.tgz:96057.got - 2010.06.03 18:47:42.
