data_PCOD9278887
_publ_section_title
;
Structure prediction by ZEFSAII (Michael W. Deem and Ramdas Pophale) SiO2 
 PCOD9278887
Probable space group: C 2/C
;
_chemical_formula_sum "Si O2"
_cell_formula_units_Z 64
_cell_length_a 10.004446
_cell_length_b 17.864012
_cell_length_c 15.027284
_cell_angle_alpha 90.000000
_cell_angle_beta 107.180755
_cell_angle_gamma 90.000000
_cell_volume 2565.828413
_symmetry_space_group_name_H-M "C 2/C"
_symmetry_group_IT_number 15
_symmetry_cell_setting 'monoclinic'
loop_
_space_group_symop_operation_xyz
x,y,z
-x,y,1/2-z
-x,-y,-z
x,-y,1/2+z
1/2+x,1/2+y,z
1/2-x,1/2+y,1/2-z
1/2-x,1/2-y,-z
1/2+x,1/2-y,1/2+z
loop_
_atom_site_type_symbol
_atom_site_label
_atom_site_fract_x
_atom_site_fract_y
_atom_site_fract_z
Si Si1 0.930381 0.758726 0.659370
Si Si2 0.147741 0.446598 0.466096
Si Si3 0.242871 0.576587 0.362940
Si Si4 0.644835 0.642386 0.953670
Si Si5 0.795863 0.467561 0.823069
Si Si6 0.353996 0.317643 0.448110
Si Si7 0.629015 0.132075 0.648506
Si Si8 0.978216 0.002908 0.654216
O O1 0.769924 0.726112 0.628230
O O2 0.914705 0.788439 0.554602
O O3 0.000000 0.810696 0.750000
O O4 0.064242 0.700852 0.688389
O O5 0.153073 0.519644 0.405396
O O6 0.133561 0.463173 0.567568
O O7 0.281053 0.396320 0.461406
O O8 0.014523 0.395889 0.422620
O O9 0.283834 0.644756 0.435111
O O10 0.169606 0.585180 0.252645
O O11 0.387757 0.535018 0.361940
O O12 0.494238 0.679971 0.917686
O O13 0.756819 0.658198 0.899933
O O14 0.602010 0.554745 0.931513
O O15 0.813735 0.554962 0.794888
O O16 0.639376 0.449734 0.827246
O O17 0.000000 0.051226 0.750000
#
# Coordination Sequence:
#
# PCOD9278887 Si02
#       8
#     8   8   8   8   8   8   8   8
#     4  10  24  45  65  91 116 155 219 269 310 371
#     4  11  20  38  58  85 129 163 204 253 306 377
#     4  11  20  31  55  88 125 166 201 242 306 375
#     4  11  20  36  58  87 125 156 197 246 312 370
#     4  10  21  32  53  88 124 162 203 245 312 374
#     4  10  23  40  69  88 114 167 205 260 323 366
#     4  10  23  37  58  86 123 162 205 263 301 360
#     4   9  17  29  47  78 115 149 192 238 288 358
#
# _framework density 24.943210000000001
#
# number of rings (size 3 to 8) (size 9 to 14) (size 15 to 20)
#    0.000    1.750    3.750    1.500    3.500    2.500 
#    0.000    0.000    0.000    0.000    0.000    0.000 
#    0.000    0.000    0.000    0.000    0.000    0.000 
#
# Total GULP energy -178231.673709 kJ/mol
# GULP energy per Si atom -5569.739803 kJ/mol
# Density = 2.488644 g / cm^3
# Si number density = 24.943210 Si / 1000 Ang^3
#
#
#
# Elastic Constant Matrix: (Units=GPa)
#
#
# Indices 1 2 3 4 5 6 
#
# 1 171.8157 17.8853 28.9236 0.0000 -25.6940 0.0000
# 2 17.8853 24.0541 -8.2821 0.0000 4.5232 0.0000
# 3 28.9236 -8.2821 126.7605 0.0000 6.9481 0.0000
# 4 0.0000 0.0000 0.0000 2.6073 0.0000 9.8650
# 5 -25.6940 4.5232 6.9481 0.0000 24.3734 0.0000
# 6 0.0000 0.0000 0.0000 9.8650 0.0000 16.3781
#
#
#
# Elastic Compliance Matrix: (Units=1/GPa)
#
#
# Indices 1 2 3 4 5 6 
#
# 1 0.009486 -0.010732 -0.003579 0.000000 0.013011 0.000000
# 2 -0.010732 0.056625 0.007461 0.000000 -0.023949 0.000000
# 3 -0.003579 0.007461 0.009626 0.000000 -0.007901 0.000000
# 4 0.000000 0.000000 0.000000 -0.299876 0.000000 0.180624
# 5 0.013011 -0.023949 -0.007901 0.000000 0.061441 0.000000
# 6 0.000000 0.000000 0.000000 0.180624 0.000000 -0.047738
#
#
# Mechanical properties :
#
#
# Convention : Reuss Voigt Hill
#
# Bulk Modulus (GPa) = 16.11926 44.40933 30.26430
# Shear Modulus (GPa) = -28.39971 27.61199 -0.39386
#
# Velocity S-wave (km/s) = -3.37794 3.33076 -0.39780
# Velocity P-wave (km/s) = 2.95593 5.71269 3.45668
#
# Compressibility (1/GPa) = 0.06203757
#
# Stress axis : x y z
#
# Youngs Moduli (GPa) = 105.42378 17.66009 103.88482
#
# Poissons Ratio (x) = 0.18952 0.37177
# Poissons Ratio (y) = 1.13139 -0.77510
# Poissons Ratio (z) = 0.37728 -0.13176
#
# Static dielectric constant tensor:
#      x y z
#    x 1.981910 0.000000 0.153710 
#    y 0.000000 2.402380 0.000000 
#    z 0.153710 0.000000 2.158560 
# 
# From -- ./inp_files/138635.got.cif
#   From: 2010.05.17/outbox.cif.g08.bks.cpg/sg15_70_cif.got.tgz:138635.got - 2010.06.03 18:47:42.
