data_PCOD9278176
_publ_section_title
;
Structure prediction by ZEFSAII (Michael W. Deem and Ramdas Pophale) SiO2 
 PCOD9278176
Probable space group: C 2/C
;
_chemical_formula_sum "Si O2"
_cell_formula_units_Z 56
_cell_length_a 21.378564
_cell_length_b 10.568071
_cell_length_c 14.645718
_cell_angle_alpha 90.000000
_cell_angle_beta 61.187091
_cell_angle_gamma 90.000000
_cell_volume 2899.260479
_symmetry_space_group_name_H-M "C 2/C"
_symmetry_group_IT_number 15
_symmetry_cell_setting 'monoclinic'
loop_
_space_group_symop_operation_xyz
x,y,z
-x,y,1/2-z
-x,-y,-z
x,-y,1/2+z
1/2+x,1/2+y,z
1/2-x,1/2+y,1/2-z
1/2-x,1/2-y,-z
1/2+x,1/2-y,1/2+z
loop_
_atom_site_type_symbol
_atom_site_label
_atom_site_fract_x
_atom_site_fract_y
_atom_site_fract_z
Si Si1 0.500000 0.771583 0.750000
Si Si2 0.383539 0.809082 0.236375
Si Si3 0.121566 0.556277 0.150788
Si Si4 0.701272 0.553341 0.219314
Si Si5 0.000000 0.837920 0.750000
Si Si6 0.106068 0.946632 0.138171
Si Si7 0.280010 0.623492 0.089491
Si Si8 0.839871 0.404453 0.074158
O O1 0.441204 0.869115 0.752591
O O2 0.446740 0.672647 0.837415
O O3 0.324619 0.696876 0.283309
O O4 0.458914 0.743484 0.203794
O O5 0.378845 0.880120 0.142843
O O6 0.373807 0.912606 0.321107
O O7 0.197632 0.616496 0.121164
O O8 0.112408 0.567125 0.047984
O O9 0.642553 0.462262 0.212614
O O10 0.705625 0.550899 0.325712
O O11 0.778432 0.510472 0.128372
O O12 0.942281 0.929343 0.837904
O O13 0.170439 0.936534 0.022735
O O14 0.301394 0.769757 0.083930
#
# Coordination Sequence:
#
# PCOD9278176 Si02
#       8
#     4   8   8   8   4   8   8   8
#     4  11  23  38  62  98 123 169 198 260 330 375
#     4  10  23  41  62  88 131 166 204 258 315 385
#     4  12  22  39  66  90 131 163 208 260 327 372
#     4  10  21  39  65  93 124 161 212 265 312 363
#     4   9  21  44  60  84 135 173 200 254 316 385
#     4  10  20  42  67  91 125 165 218 260 309 371
#     4  11  21  39  68  95 122 166 215 270 310 362
#     4  11  21  39  64  93 122 159 211 270 309 368
#
# _framework density 19.315270000000002
#
# number of rings (size 3 to 8) (size 9 to 14) (size 15 to 20)
#    0.000    1.429    4.286    1.714    0.000    0.571 
#    2.571    5.714    0.000    0.000    0.000    0.000 
#    0.000    0.000    0.000    0.000    0.000    0.000 
#
# Total GULP energy -156097.278502 kJ/mol
# GULP energy per Si atom -5574.902804 kJ/mol
# Density = 1.927131 g / cm^3
# Si number density = 19.315270 Si / 1000 Ang^3
#
#
#
# Elastic Constant Matrix: (Units=GPa)
#
#
# Indices 1 2 3 4 5 6 
#
# 1 112.9442 38.9682 47.7421 0.0000 -3.5629 0.0000
# 2 38.9682 59.9931 37.1331 0.0000 12.2804 0.0000
# 3 47.7421 37.1331 80.9318 0.0000 11.3805 0.0000
# 4 0.0000 0.0000 0.0000 20.1353 0.0000 5.1110
# 5 -3.5629 12.2804 11.3805 0.0000 21.0512 0.0000
# 6 0.0000 0.0000 0.0000 5.1110 0.0000 22.1065
#
#
#
# Elastic Compliance Matrix: (Units=1/GPa)
#
#
# Indices 1 2 3 4 5 6 
#
# 1 0.014567 -0.007498 -0.006618 0.000000 0.010417 0.000000
# 2 -0.007498 0.028616 -0.006689 0.000000 -0.014346 0.000000
# 3 -0.006618 -0.006689 0.020496 0.000000 -0.008298 0.000000
# 4 0.000000 0.000000 0.000000 0.052760 0.000000 -0.012198
# 5 0.010417 -0.014346 -0.008298 0.000000 0.062121 0.000000
# 6 0.000000 0.000000 0.000000 -0.012198 0.000000 0.048056
#
#
# Mechanical properties :
#
#
# Convention : Reuss Voigt Hill
#
# Bulk Modulus (GPa) = 45.31249 55.72845 50.52047
# Shear Modulus (GPa) = 18.14342 21.32696 19.73519
#
# Velocity S-wave (km/s) = 3.06817 3.32648 3.19993
# Velocity P-wave (km/s) = 6.00516 6.60822 6.31390
#
# Compressibility (1/GPa) = 0.02206897
#
# Stress axis : x y z
#
# Youngs Moduli (GPa) = 68.64888 34.94568 48.79062
#
# Poissons Ratio (x) = 0.26203 0.32288
# Poissons Ratio (y) = 0.51474 0.32636
# Poissons Ratio (z) = 0.45429 0.23375
#
# Static dielectric constant tensor:
#      x y z
#    x 1.693040 0.000000 0.005950 
#    y 0.000000 1.694060 0.000000 
#    z 0.005950 0.000000 1.669890 
# 
# From -- ./inp_files/117706.got.cif
#   From: 2010.05.17/outbox.cif.g08.bks.cpg/sg15_59_cif.got.tgz:117706.got - 2010.06.03 18:47:42.
