data_PCOD9278867
_publ_section_title
;
Structure prediction by ZEFSAII (Michael W. Deem and Ramdas Pophale) SiO2 
 PCOD9278867
Probable space group: C 2/C
;
_chemical_formula_sum "Si O2"
_cell_formula_units_Z 52
_cell_length_a 15.120295
_cell_length_b 24.005311
_cell_length_c 8.385553
_cell_angle_alpha 90.000000
_cell_angle_beta 83.806614
_cell_angle_gamma 90.000000
_cell_volume 3025.917553
_symmetry_space_group_name_H-M "C 2/C"
_symmetry_group_IT_number 15
_symmetry_cell_setting 'monoclinic'
loop_
_space_group_symop_operation_xyz
x,y,z
-x,y,1/2-z
-x,-y,-z
x,-y,1/2+z
1/2+x,1/2+y,z
1/2-x,1/2+y,1/2-z
1/2-x,1/2-y,-z
1/2+x,1/2-y,1/2+z
loop_
_atom_site_type_symbol
_atom_site_label
_atom_site_fract_x
_atom_site_fract_y
_atom_site_fract_z
Si Si1 0.065088 0.419407 0.010958
Si Si2 0.000000 0.485724 0.750000
Si Si3 0.302272 0.827371 0.407403
Si Si4 0.070208 0.203892 0.465000
Si Si5 0.380970 0.707535 0.416046
Si Si6 0.248225 0.684527 0.953703
Si Si7 0.935590 0.668050 0.416817
O O1 0.051440 0.472640 0.124395
O O2 0.146123 0.382143 0.050880
O O3 0.065867 0.445815 0.834736
O O4 0.979588 0.377692 0.025034
O O5 0.361427 0.773488 0.445135
O O6 0.208760 0.822097 0.514468
O O7 0.282762 0.823527 0.222235
O O8 0.099325 0.201219 0.274723
O O9 0.147417 0.170905 0.543468
O O10 0.064866 0.269085 0.515430
O O11 0.967329 0.186264 0.493926
O O12 0.250000 0.750000 0.000000
O O13 0.170746 0.657006 0.077949
O O14 0.000000 0.668555 0.250000
#
# Coordination Sequence:
#
# PCOD9278867 Si02
#       7
#     8   4   8   8   8   8   8
#     4  11  22  39  57  79 110 144 190 241 289 333
#     4  10  24  38  56  82 108 140 198 246 286 340
#     4  11  21  34  55  77 111 149 193 229 279 341
#     4  10  21  33  47  74 117 148 191 221 258 319
#     4  10  21  32  50  80 107 153 188 226 265 338
#     4  10  21  32  46  76 107 149 196 225 253 328
#     4  11  21  30  53  75 104 157 184 219 272 326
#
# _framework density 17.184871000000001
#
# number of rings (size 3 to 8) (size 9 to 14) (size 15 to 20)
#    0.000    1.538    5.385    0.923    6.462    0.000 
#    0.000    0.000    0.000    0.000    0.000    0.000 
#    0.000   41.846    0.000    0.000    0.000    0.000 
#
# Total GULP energy -144876.965000 kJ/mol
# GULP energy per Si atom -5572.190962 kJ/mol
# Density = 1.714576 g / cm^3
# Si number density = 17.184871 Si / 1000 Ang^3
#
#
#
# Elastic Constant Matrix: (Units=GPa)
#
#
# Indices 1 2 3 4 5 6 
#
# 1 163.7107 45.2459 51.0684 0.0000 1.9388 0.0000
# 2 45.2459 70.1531 34.2879 0.0000 7.7972 0.0000
# 3 51.0684 34.2879 72.6326 0.0000 0.2985 0.0000
# 4 0.0000 0.0000 0.0000 18.9635 0.0000 8.0730
# 5 1.9388 7.7972 0.2985 0.0000 27.6641 0.0000
# 6 0.0000 0.0000 0.0000 8.0730 0.0000 26.6163
#
#
#
# Elastic Compliance Matrix: (Units=1/GPa)
#
#
# Indices 1 2 3 4 5 6 
#
# 1 0.008371 -0.003335 -0.004313 0.000000 0.000400 0.000000
# 2 -0.003335 0.020616 -0.007365 0.000000 -0.005498 0.000000
# 3 -0.004313 -0.007365 0.020268 0.000000 0.002159 0.000000
# 4 0.000000 0.000000 0.000000 0.060551 0.000000 -0.018366
# 5 0.000400 -0.005498 0.002159 0.000000 0.037646 0.000000
# 6 0.000000 0.000000 0.000000 -0.018366 0.000000 0.043141
#
#
# Mechanical properties :
#
#
# Convention : Reuss Voigt Hill
#
# Bulk Modulus (GPa) = 52.00312 63.07786 57.54049
# Shear Modulus (GPa) = 22.02360 26.37507 24.19934
#
# Velocity S-wave (km/s) = 3.58378 3.92188 3.75664
# Velocity P-wave (km/s) = 6.88850 7.56924 7.23688
#
# Compressibility (1/GPa) = 0.01922961
#
# Stress axis : x y z
#
# Youngs Moduli (GPa) = 119.46415 48.50533 49.33908
#
# Poissons Ratio (x) = 0.16179 0.21278
# Poissons Ratio (y) = 0.39846 0.36337
# Poissons Ratio (z) = 0.51520 0.35722
#
# Static dielectric constant tensor:
#      x y z
#    x 1.656620 0.000000 0.022920 
#    y 0.000000 1.548380 0.000000 
#    z 0.022920 0.000000 1.657160 
# 
# From -- ./inp_files/41706.got.cif
#   From: 2010.05.17/outbox.cif.g08.bks.cpg/sg15_21_cif.got.tgz:41706.got - 2010.06.03 18:47:42.
