data_PCOD9278154
_publ_section_title
;
Structure prediction by ZEFSAII (Michael W. Deem and Ramdas Pophale) SiO2 
 PCOD9278154
Probable space group: C 2/C
;
_chemical_formula_sum "Si O2"
_cell_formula_units_Z 56
_cell_length_a 9.996186
_cell_length_b 12.686047
_cell_length_c 18.424218
_cell_angle_alpha 90.000000
_cell_angle_beta 71.994154
_cell_angle_gamma 90.000000
_cell_volume 2221.987613
_symmetry_space_group_name_H-M "C 2/C"
_symmetry_group_IT_number 15
_symmetry_cell_setting 'monoclinic'
loop_
_space_group_symop_operation_xyz
x,y,z
-x,y,1/2-z
-x,-y,-z
x,-y,1/2+z
1/2+x,1/2+y,z
1/2-x,1/2+y,1/2-z
1/2-x,1/2-y,-z
1/2+x,1/2-y,1/2+z
loop_
_atom_site_type_symbol
_atom_site_label
_atom_site_fract_x
_atom_site_fract_y
_atom_site_fract_z
Si Si1 0.629548 0.126526 0.887274
Si Si2 0.337223 0.279875 0.746374
Si Si3 0.057127 0.527482 0.164420
Si Si4 0.542208 0.333393 0.542312
Si Si5 0.458955 0.478190 0.675903
Si Si6 0.293772 0.647538 0.624227
Si Si7 0.257538 0.372563 0.514613
O O1 0.697577 0.195436 0.810914
O O2 0.567788 0.024253 0.860164
O O3 0.511246 0.213686 0.933207
O O4 0.718855 0.086976 0.941130
O O5 0.500000 0.268687 0.750000
O O6 0.331502 0.394744 0.711414
O O7 0.234540 0.255462 0.829479
O O8 0.158698 0.426031 0.160911
O O9 0.144261 0.599211 0.094671
O O10 0.000000 0.570765 0.250000
O O11 0.560559 0.402392 0.611665
O O12 0.670345 0.337634 0.465563
O O13 0.409208 0.390779 0.524767
O O14 0.500000 0.507563 0.750000
O O15 0.418379 0.581632 0.639823
O O16 0.250000 0.250000 0.500000
#
# Coordination Sequence:
#
# PCOD9278154 Si02
#       7
#     8   8   8   8   8   8   8
#     4  10  20  42  66  97 129 175 225 270 330 403
#     4  10  20  43  66  92 138 176 220 284 333 388
#     4  12  23  43  70  97 131 178 225 279 334 395
#     4  10  23  42  65  96 136 176 211 282 345 388
#     4  10  23  42  65  95 134 177 220 276 339 402
#     4  12  22  42  67  97 134 169 223 278 343 397
#     4  10  23  44  64  95 141 176 219 277 336 403
#
# _framework density 25.202659000000001
#
# number of rings (size 3 to 8) (size 9 to 14) (size 15 to 20)
#    0.000    1.429    4.286    0.857    0.000    1.714 
#    5.143    0.000    0.000    0.000    0.000    0.000 
#    0.000    0.000    0.000    0.000    0.000    0.000 
#
# Total GULP energy -156633.995219 kJ/mol
# GULP energy per Si atom -5594.071258 kJ/mol
# Density = 2.514530 g / cm^3
# Si number density = 25.202659 Si / 1000 Ang^3
#
#
#
# Elastic Constant Matrix: (Units=GPa)
#
#
# Indices 1 2 3 4 5 6 
#
# 1 48.4784 18.1232 49.7546 0.0000 19.2966 0.0000
# 2 18.1232 77.9502 32.9157 0.0000 2.5719 0.0000
# 3 49.7546 32.9157 164.5634 0.0000 18.9339 0.0000
# 4 0.0000 0.0000 0.0000 48.5602 0.0000 5.6116
# 5 19.2966 2.5719 18.9339 0.0000 39.3656 0.0000
# 6 0.0000 0.0000 0.0000 5.6116 0.0000 22.1756
#
#
#
# Elastic Compliance Matrix: (Units=1/GPa)
#
#
# Indices 1 2 3 4 5 6 
#
# 1 0.036441 -0.004401 -0.008591 0.000000 -0.013444 0.000000
# 2 -0.004401 0.014552 -0.001819 0.000000 0.002082 0.000000
# 3 -0.008591 -0.001819 0.009040 0.000000 -0.000018 0.000000
# 4 0.000000 0.000000 0.000000 0.021213 0.000000 -0.005368
# 5 -0.013444 0.002082 -0.000018 0.000000 0.031865 0.000000
# 6 0.000000 0.000000 0.000000 -0.005368 0.000000 0.046453
#
#
# Mechanical properties :
#
#
# Convention : Reuss Voigt Hill
#
# Bulk Modulus (GPa) = 32.88398 54.73098 43.80748
# Shear Modulus (GPa) = 25.08483 34.70020 29.89252
#
# Velocity S-wave (km/s) = 3.15830 3.71461 3.44770
# Velocity P-wave (km/s) = 5.13575 6.33729 5.76790
#
# Compressibility (1/GPa) = 0.03040994
#
# Stress axis : x y z
#
# Youngs Moduli (GPa) = 27.44161 68.72101 110.61963
#
# Poissons Ratio (x) = 0.30246 0.95029
# Poissons Ratio (y) = 0.12078 0.20126
# Poissons Ratio (z) = 0.23574 0.12503
#
# Static dielectric constant tensor:
#      x y z
#    x 2.045710 0.000000 -0.022720 
#    y 0.000000 1.962540 0.000000 
#    z -0.022720 0.000000 1.950360 
# 
# From -- ./inp_files/198197.got.cif
#   From: 2010.05.17/outbox.cif.g08.bks.cpg/sg15_100_cif.got.tgz:198197.got - 2010.06.03 18:47:42.
