data_PCOD9278945
_publ_section_title
;
Structure prediction by ZEFSAII (Michael W. Deem and Ramdas Pophale) SiO2 
 PCOD9278945
Probable space group: C 2/C
;
_chemical_formula_sum "Si O2"
_cell_formula_units_Z 52
_cell_length_a 21.705583
_cell_length_b 20.755732
_cell_length_c 16.863867
_cell_angle_alpha 90.000000
_cell_angle_beta 19.849790
_cell_angle_gamma 90.000000
_cell_volume 2579.748339
_symmetry_space_group_name_H-M "C 2/C"
_symmetry_group_IT_number 15
_symmetry_cell_setting 'monoclinic'
loop_
_space_group_symop_operation_xyz
x,y,z
-x,y,1/2-z
-x,-y,-z
x,-y,1/2+z
1/2+x,1/2+y,z
1/2-x,1/2+y,1/2-z
1/2-x,1/2-y,-z
1/2+x,1/2-y,1/2+z
loop_
_atom_site_type_symbol
_atom_site_label
_atom_site_fract_x
_atom_site_fract_y
_atom_site_fract_z
Si Si1 0.223223 0.975255 0.671777
Si Si2 0.914223 0.959418 0.439833
Si Si3 0.808205 0.373557 0.702321
Si Si4 0.049896 0.712584 0.828126
Si Si5 0.000000 0.392081 0.250000
Si Si6 0.810159 0.560742 0.711567
Si Si7 0.427425 0.341767 0.921512
O O1 0.218237 0.914630 0.739223
O O2 0.335624 0.941006 0.465808
O O3 0.312677 0.029053 0.621652
O O4 0.055631 0.011996 0.833690
O O5 0.837081 0.888375 0.553462
O O6 0.000000 0.963207 0.250000
O O7 0.739484 0.005607 0.664097
O O8 0.875598 0.302936 0.594839
O O9 0.003143 0.405407 0.490026
O O10 0.243659 0.697540 0.629561
O O11 0.030166 0.657006 0.785544
O O12 0.061728 0.785851 0.785454
O O13 0.637679 0.608069 0.933880
O O14 0.500000 0.370117 0.750000
#
# Coordination Sequence:
#
# PCOD9278945 Si02
#       7
#     8   8   8   8   4   8   8
#     4  10  21  33  54  76 108 149 185 220 280 326
#     4  11  22  32  54  82 105 143 187 233 269 326
#     4   9  20  38  52  75 114 146 180 228 281 329
#     4  10  22  36  54  79 112 151 179 225 277 325
#     4  10  22  34  54  80 114 146 182 230 270 322
#     4  10  21  36  53  78 115 147 179 227 278 336
#     4  11  22  34  55  84 112 145 185 225 269 336
#
# _framework density 20.157005000000002
#
# number of rings (size 3 to 8) (size 9 to 14) (size 15 to 20)
#    0.000    1.846    0.769    4.615   10.769    2.462 
#    0.000    0.000    0.000    0.000    2.000    3.231 
#    0.000    0.000    0.000    0.000    0.000    0.000 
#
# Total GULP energy -144803.108999 kJ/mol
# GULP energy per Si atom -5569.350346 kJ/mol
# Density = 2.011113 g / cm^3
# Si number density = 20.157005 Si / 1000 Ang^3
#
#
#
# Elastic Constant Matrix: (Units=GPa)
#
#
# Indices 1 2 3 4 5 6 
#
# 1 66.7482 7.8713 15.4766 0.0197 -1.9239 -0.0113
# 2 7.8713 52.9096 15.4532 0.0324 10.1398 0.0199
# 3 15.4766 15.4532 55.8323 0.0806 3.3703 -0.0243
# 4 0.0197 0.0324 0.0806 28.1543 -0.0216 9.3455
# 5 -1.9239 10.1398 3.3703 -0.0216 22.5757 0.0152
# 6 -0.0113 0.0199 -0.0243 9.3455 0.0152 7.2929
#
#
#
# Elastic Compliance Matrix: (Units=1/GPa)
#
#
# Indices 1 2 3 4 5 6 
#
# 1 0.016237 -0.001725 -0.004192 0.000002 0.002784 0.000007
# 2 -0.001725 0.022483 -0.005173 0.000006 -0.009473 -0.000069
# 3 -0.004192 -0.005173 0.020571 -0.000134 -0.001105 0.000250
# 4 0.000002 0.000006 -0.000134 0.061812 0.000130 -0.079209
# 5 0.002784 -0.009473 -0.001105 0.000130 0.048953 -0.000243
# 6 0.000007 -0.000069 0.000250 -0.079209 -0.000243 0.238625
#
#
# Mechanical properties :
#
#
# Convention : Reuss Voigt Hill
#
# Bulk Modulus (GPa) = 26.94481 28.12136 27.53308
# Shear Modulus (GPa) = 11.28080 20.71718 15.99899
#
# Velocity S-wave (km/s) = 2.36825 3.20940 2.82036
# Velocity P-wave (km/s) = 4.56888 5.26451 4.92898
#
# Compressibility (1/GPa) = 0.03711290
#
# Stress axis : x y z
#
# Youngs Moduli (GPa) = 61.58687 44.47799 48.61110
#
# Poissons Ratio (x) = 0.07672 0.20376
# Poissons Ratio (y) = 0.10623 0.25146
# Poissons Ratio (z) = 0.25815 0.23008
#
# Static dielectric constant tensor:
#      x y z
#    x 1.777470 -0.000010 0.009220 
#    y -0.000010 1.795180 0.000030 
#    z 0.009220 0.000030 1.839670 
# 
# From -- ./inp_files/220090.got.cif
#   From: 2010.05.17/outbox.cif.g08.bks.cpg/sg15_111_cif.got.tgz:220090.got - 2010.06.03 18:47:42.
