data_PCOD9278542
_publ_section_title
;
Structure prediction by ZEFSAII (Michael W. Deem and Ramdas Pophale) SiO2 
 PCOD9278542
Probable space group: C 2/C
;
_chemical_formula_sum "Si O2"
_cell_formula_units_Z 40
_cell_length_a 13.508080
_cell_length_b 13.897749
_cell_length_c 17.972094
_cell_angle_alpha 90.000000
_cell_angle_beta 151.390351
_cell_angle_gamma 90.000000
_cell_volume 1615.574270
_symmetry_space_group_name_H-M "C 2/C"
_symmetry_group_IT_number 15
_symmetry_cell_setting 'monoclinic'
loop_
_space_group_symop_operation_xyz
x,y,z
-x,y,1/2-z
-x,-y,-z
x,-y,1/2+z
1/2+x,1/2+y,z
1/2-x,1/2+y,1/2-z
1/2-x,1/2-y,-z
1/2+x,1/2-y,1/2+z
loop_
_atom_site_type_symbol
_atom_site_label
_atom_site_fract_x
_atom_site_fract_y
_atom_site_fract_z
Si Si1 0.263928 0.881767 0.813444
Si Si2 0.450107 0.209982 0.562099
Si Si3 0.927338 0.176307 0.594136
Si Si4 0.500000 0.511337 0.750000
Si Si5 0.168577 0.355564 0.797569
Si Si6 0.500000 0.190816 0.750000
O O1 0.336543 0.917810 0.780602
O O2 0.211125 0.752991 0.897771
O O3 0.151596 0.950306 0.798125
O O4 0.459978 0.842097 0.989203
O O5 0.610464 0.354684 0.515327
O O6 0.592422 0.302032 0.674523
O O7 0.495663 0.143613 0.665049
O O8 0.750000 0.250000 0.500000
O O9 0.897000 0.083699 0.624084
O O10 0.119025 0.244835 0.739600
O O11 0.000000 0.382410 0.750000
#
# Coordination Sequence:
#
# PCOD9278542 Si02
#       6
#     8   8   8   4   8   4
#     4  11  22  37  67 103 138 173 225 278 331 404
#     4   9  17  32  54  89 138 182 204 246 350 401
#     4  10  20  43  72  90 126 183 231 271 340 405
#     4  12  23  38  70 107 128 162 234 295 330 384
#     4  10  21  41  70  91 125 189 229 258 334 418
#     4   8  13  26  50  71 122 186 206 225 304 432
#
# _framework density 24.758998999999999
#
# number of rings (size 3 to 8) (size 9 to 14) (size 15 to 20)
#    0.000    2.000    3.000    4.800    0.000    0.800 
#    0.000    4.000   39.600    0.000    0.000    0.000 
#    0.000    0.000    0.000    0.000    0.000    0.000 
#
# Total GULP energy -111425.293974 kJ/mol
# GULP energy per Si atom -5571.264699 kJ/mol
# Density = 2.470265 g / cm^3
# Si number density = 24.758999 Si / 1000 Ang^3
#
#
#
# Elastic Constant Matrix: (Units=GPa)
#
#
# Indices 1 2 3 4 5 6 
#
# 1 161.2503 49.5714 70.1764 0.0010 -41.7977 -0.0001
# 2 49.5714 83.5842 32.6169 0.0008 -4.4436 -0.0006
# 3 70.1764 32.6169 144.7470 0.0096 -47.4299 0.0005
# 4 0.0010 0.0008 0.0096 -0.9171 0.0042 -9.4190
# 5 -41.7977 -4.4436 -47.4299 0.0042 69.8281 0.0006
# 6 -0.0001 -0.0006 0.0005 -9.4190 0.0006 29.2714
#
#
#
# Elastic Compliance Matrix: (Units=1/GPa)
#
#
# Indices 1 2 3 4 5 6 
#
# 1 0.009650 -0.004590 -0.002376 0.000000 0.003870 0.000000
# 2 -0.004590 0.015426 -0.002353 -0.000008 -0.003364 -0.000002
# 3 -0.002376 -0.002353 0.010388 0.000031 0.005484 0.000010
# 4 0.000000 -0.000008 0.000031 -0.253294 0.000036 -0.081505
# 5 0.003870 -0.003364 0.005484 0.000036 0.020148 0.000011
# 6 0.000000 -0.000002 0.000010 -0.081505 0.000011 0.007936
#
#
# Mechanical properties :
#
#
# Convention : Reuss Voigt Hill
#
# Bulk Modulus (GPa) = 59.43510 77.14567 68.29038
# Shear Modulus (GPa) = -30.21145 35.45093 2.61974
#
# Velocity S-wave (km/s) = -3.49696 3.78807 1.02975
# Velocity P-wave (km/s) = 2.78436 7.09640 5.39034
#
# Compressibility (1/GPa) = 0.01682508
#
# Stress axis : x y z
#
# Youngs Moduli (GPa) = 103.62847 64.82738 96.26890
#
# Poissons Ratio (x) = 0.29757 0.22873
# Poissons Ratio (y) = 0.47567 0.22651
# Poissons Ratio (z) = 0.24621 0.15253
#
# Static dielectric constant tensor:
#      x y z
#    x 2.231670 0.000000 0.016340 
#    y 0.000000 2.034510 0.000000 
#    z 0.016340 0.000000 2.053580 
# 
# From -- ./inp_files/198128.got.cif
#   From: 2010.05.17/outbox.cif.g08.bks.cpg/sg15_100_cif.got.tgz:198128.got - 2010.06.03 18:47:42.
