data_PCOD9278499
_publ_section_title
;
Structure prediction by ZEFSAII (Michael W. Deem and Ramdas Pophale) SiO2 
 PCOD9278499
Probable space group: C 2/C
;
_chemical_formula_sum "Si O2"
_cell_formula_units_Z 44
_cell_length_a 13.341226
_cell_length_b 5.012014
_cell_length_c 23.288315
_cell_angle_alpha 90.000000
_cell_angle_beta 89.628897
_cell_angle_gamma 90.000000
_cell_volume 1557.173391
_symmetry_space_group_name_H-M "C 2/C"
_symmetry_group_IT_number 15
_symmetry_cell_setting 'monoclinic'
loop_
_space_group_symop_operation_xyz
x,y,z
-x,y,1/2-z
-x,-y,-z
x,-y,1/2+z
1/2+x,1/2+y,z
1/2-x,1/2+y,1/2-z
1/2-x,1/2-y,-z
1/2+x,1/2-y,1/2+z
loop_
_atom_site_type_symbol
_atom_site_label
_atom_site_fract_x
_atom_site_fract_y
_atom_site_fract_z
Si Si1 0.645306 0.504557 0.542192
Si Si2 0.339456 0.340534 0.681401
Si Si3 0.064388 0.746840 0.936936
Si Si4 0.000000 0.477363 0.250000
Si Si5 0.723370 0.326196 0.644728
Si Si6 0.553329 0.093702 0.131122
O O1 0.545552 0.320439 0.537254
O O2 0.645243 0.675991 0.484214
O O3 0.735336 0.347314 0.573752
O O4 0.619069 0.711538 0.593211
O O5 0.403009 0.382786 0.622450
O O6 0.411411 0.217611 0.728794
O O7 0.283897 0.619922 0.684689
O O8 0.257594 0.108620 0.669990
O O9 0.041620 0.457887 0.909985
O O10 0.022737 0.665200 0.195330
O O11 0.614008 0.183143 0.643393
#
# Coordination Sequence:
#
# PCOD9278499 Si02
#       6
#     8   8   8   4   8   8
#     4  10  20  43  68 104 138 187 215 284 331 411
#     4  11  25  46  65 103 129 182 224 283 334 407
#     4   9  22  38  69 100 142 180 229 268 335 406
#     4  10  26  46  72  92 130 176 236 286 332 404
#     4  11  24  44  69  97 143 167 226 276 343 400
#     4  10  21  45  67  99 133 180 228 278 336 406
#
# _framework density 28.256328
#
# number of rings (size 3 to 8) (size 9 to 14) (size 15 to 20)
#    0.000    1.818    1.818    0.545    5.091    3.636 
#    6.545    0.000    0.000    0.000    0.000    0.000 
#    0.000    0.000    0.000    0.000    0.000    0.000 
#
# Total GULP energy -122796.325837 kJ/mol
# GULP energy per Si atom -5581.651174 kJ/mol
# Density = 2.819202 g / cm^3
# Si number density = 28.256328 Si / 1000 Ang^3
#
#
#
# Elastic Constant Matrix: (Units=GPa)
#
#
# Indices 1 2 3 4 5 6 
#
# 1 92.2894 7.4813 29.1745 0.0000 37.7545 0.0000
# 2 7.4813 111.7254 14.9780 0.0000 7.8032 0.0000
# 3 29.1745 14.9780 169.9839 0.0000 38.0506 0.0000
# 4 0.0000 0.0000 0.0000 34.1982 0.0000 6.5436
# 5 37.7545 7.8032 38.0506 0.0000 51.9270 0.0000
# 6 0.0000 0.0000 0.0000 6.5436 0.0000 30.6381
#
#
#
# Elastic Compliance Matrix: (Units=1/GPa)
#
#
# Indices 1 2 3 4 5 6 
#
# 1 0.015433 -0.000240 -0.000148 0.000000 -0.011076 0.000000
# 2 -0.000240 0.009099 -0.000590 0.000000 -0.000760 0.000000
# 3 -0.000148 -0.000590 0.007077 0.000000 -0.004990 0.000000
# 4 0.000000 0.000000 0.000000 0.030487 0.000000 -0.006511
# 5 -0.011076 -0.000760 -0.004990 0.000000 0.031081 0.000000
# 6 0.000000 0.000000 0.000000 -0.006511 0.000000 0.034030
#
#
# Mechanical properties :
#
#
# Convention : Reuss Voigt Hill
#
# Bulk Modulus (GPa) = 33.72477 53.02960 43.37719
# Shear Modulus (GPa) = 35.95871 44.84366 40.40119
#
# Velocity S-wave (km/s) = 3.57121 3.98808 3.78539
# Velocity P-wave (km/s) = 5.38200 6.32570 5.87283
#
# Compressibility (1/GPa) = 0.02965179
#
# Stress axis : x y z
#
# Youngs Moduli (GPa) = 64.79668 109.90429 141.29747
#
# Poissons Ratio (x) = 0.02637 0.02095
# Poissons Ratio (y) = 0.01555 0.08342
# Poissons Ratio (z) = 0.00961 0.06489
#
# Static dielectric constant tensor:
#      x y z
#    x 2.444620 0.000000 -0.061410 
#    y 0.000000 2.397550 0.000000 
#    z -0.061410 0.000000 2.231700 
# 
# From -- ./inp_files/271918.got.cif
#   From: 2010.05.17/outbox.cif.g08.bks.cpg/sg15_136_cif.got.tgz:271918.got - 2010.06.03 18:47:42.
