data_PCOD9278159
_publ_section_title
;
Structure prediction by ZEFSAII (Michael W. Deem and Ramdas Pophale) SiO2 
 PCOD9278159
Probable space group: C 2/C
;
_chemical_formula_sum "Si O2"
_cell_formula_units_Z 36
_cell_length_a 5.387029
_cell_length_b 24.915213
_cell_length_c 12.384227
_cell_angle_alpha 90.000000
_cell_angle_beta 93.896262
_cell_angle_gamma 90.000000
_cell_volume 1658.356438
_symmetry_space_group_name_H-M "C 2/C"
_symmetry_group_IT_number 15
_symmetry_cell_setting 'monoclinic'
loop_
_space_group_symop_operation_xyz
x,y,z
-x,y,1/2-z
-x,-y,-z
x,-y,1/2+z
1/2+x,1/2+y,z
1/2-x,1/2+y,1/2-z
1/2-x,1/2-y,-z
1/2+x,1/2-y,1/2+z
loop_
_atom_site_type_symbol
_atom_site_label
_atom_site_fract_x
_atom_site_fract_y
_atom_site_fract_z
Si Si1 0.000000 0.274595 0.250000
Si Si2 0.374775 0.363344 0.358291
Si Si3 0.750117 0.464985 0.999172
Si Si4 0.072742 0.205448 0.447029
Si Si5 0.761286 0.616216 0.315551
O O1 0.196703 0.315673 0.308709
O O2 0.915076 0.235230 0.347197
O O3 0.500000 0.381933 0.250000
O O4 0.256729 0.416063 0.412787
O O5 0.534024 0.332347 0.458722
O O6 0.500000 0.500000 0.000000
O O7 0.743360 0.436706 0.884060
O O8 0.000000 0.500000 0.000000
O O9 0.250000 0.250000 0.500000
O O10 0.267734 0.166423 0.394392
O O11 0.500000 0.622134 0.250000
O O12 0.000000 0.615281 0.250000
#
# Coordination Sequence:
#
# PCOD9278159 Si02
#       5
#     4   8   8   8   8
#     4  10  20  42  66  98 140 186 228 284 348 410
#     4  10  24  41  66 102 141 180 234 286 345 424
#     4  11  26  47  71 102 138 181 236 291 353 410
#     4   9  20  41  63 102 137 183 229 275 343 410
#     4  11  23  44  69 101 135 178 233 282 342 414
#
# _framework density 21.708241999999998
#
# number of rings (size 3 to 8) (size 9 to 14) (size 15 to 20)
#    0.000    1.778    1.111    1.333    3.111    7.111 
#   12.000    0.000    0.000    0.000    0.000    0.000 
#    0.000    0.000    0.000    0.000    0.000    0.000 
#
# Total GULP energy -100242.461968 kJ/mol
# GULP energy per Si atom -5569.025665 kJ/mol
# Density = 2.165883 g / cm^3
# Si number density = 21.708242 Si / 1000 Ang^3
#
#
#
# Elastic Constant Matrix: (Units=GPa)
#
#
# Indices 1 2 3 4 5 6 
#
# 1 107.1176 65.6919 54.0041 0.0000 -18.9643 0.0000
# 2 65.6919 153.4117 67.3192 0.0000 -6.1732 0.0000
# 3 54.0041 67.3192 136.1737 0.0000 -15.4301 0.0000
# 4 0.0000 0.0000 0.0000 39.6469 0.0000 4.3145
# 5 -18.9643 -6.1732 -15.4301 0.0000 35.7868 0.0000
# 6 0.0000 0.0000 0.0000 4.3145 0.0000 24.5038
#
#
#
# Elastic Compliance Matrix: (Units=1/GPa)
#
#
# Indices 1 2 3 4 5 6 
#
# 1 0.014743 -0.004855 -0.002793 0.000000 0.005771 0.000000
# 2 -0.004855 0.009928 -0.003238 0.000000 -0.002257 0.000000
# 3 -0.002793 -0.003238 0.010325 0.000000 0.002414 0.000000
# 4 0.000000 0.000000 0.000000 0.025715 0.000000 -0.004528
# 5 0.005771 -0.002257 0.002414 0.000000 0.031653 0.000000
# 6 0.000000 0.000000 0.000000 -0.004528 0.000000 0.041607
#
#
# Mechanical properties :
#
#
# Convention : Reuss Voigt Hill
#
# Bulk Modulus (GPa) = 75.62055 85.63707 80.62881
# Shear Modulus (GPa) = 31.22063 33.96668 32.59366
#
# Velocity S-wave (km/s) = 3.79647 3.95991 3.87905
# Velocity P-wave (km/s) = 7.35718 7.77448 7.56871
#
# Compressibility (1/GPa) = 0.01322392
#
# Stress axis : x y z
#
# Youngs Moduli (GPa) = 67.83011 100.72982 96.85020
#
# Poissons Ratio (x) = 0.48908 0.27045
# Poissons Ratio (y) = 0.32934 0.31360
# Poissons Ratio (z) = 0.18942 0.32616
#
# Static dielectric constant tensor:
#      x y z
#    x 1.743860 0.000000 0.006340 
#    y 0.000000 1.797530 0.000000 
#    z 0.006340 0.000000 1.886210 
# 
# From -- ./inp_files/72467.got.cif
#   From: 2010.05.17/outbox.cif.g08.bks.cpg/sg15_37_cif.got.tgz:72467.got - 2010.06.03 18:47:42.
