data_PCOD9278919
_publ_section_title
;
Structure prediction by ZEFSAII (Michael W. Deem and Ramdas Pophale) SiO2 
 PCOD9278919
Probable space group: C 2/C
;
_chemical_formula_sum "Si O2"
_cell_formula_units_Z 60
_cell_length_a 26.149065
_cell_length_b 13.051923
_cell_length_c 25.715888
_cell_angle_alpha 90.000000
_cell_angle_beta 23.086506
_cell_angle_gamma 90.000000
_cell_volume 3441.531210
_symmetry_space_group_name_H-M "C 2/C"
_symmetry_group_IT_number 15
_symmetry_cell_setting 'monoclinic'
loop_
_space_group_symop_operation_xyz
x,y,z
-x,y,1/2-z
-x,-y,-z
x,-y,1/2+z
1/2+x,1/2+y,z
1/2-x,1/2+y,1/2-z
1/2-x,1/2-y,-z
1/2+x,1/2-y,1/2+z
loop_
_atom_site_type_symbol
_atom_site_label
_atom_site_fract_x
_atom_site_fract_y
_atom_site_fract_z
Si Si1 0.500000 0.729629 0.750000
Si Si2 0.902690 0.014395 0.165955
Si Si3 0.492067 0.838317 0.503707
Si Si4 0.076008 0.670993 0.077815
Si Si5 0.518813 0.995012 0.898463
Si Si6 0.860690 0.828939 0.281550
Si Si7 0.284207 0.722692 0.251628
Si Si8 0.692784 0.445534 0.358979
O O1 0.420282 0.801293 0.864618
O O2 0.588337 0.663724 0.706421
O O3 0.874853 0.933064 0.236725
O O4 0.842427 0.969298 0.168447
O O5 0.834980 0.125296 0.236353
O O6 0.058580 0.029596 0.013782
O O7 0.535767 0.920321 0.505135
O O8 0.597524 0.750269 0.397651
O O9 0.348247 0.806129 0.653319
O O10 0.483615 0.894139 0.455004
O O11 0.042908 0.553481 0.095176
O O12 0.956371 0.741455 0.169449
O O13 0.210572 0.701941 0.925307
O O14 0.676223 0.993095 0.748747
O O15 0.238286 0.827256 0.322673
#
# Coordination Sequence:
#
# PCOD9278919 Si02
#       8
#     4   8   8   8   8   8   8   8
#     4   8  22  40  58  88 124 138 202 248 306 338
#     4  11  22  36  56  82 116 154 205 228 296 351
#     4  10  21  33  49  73 111 149 190 231 271 338
#     4  10  22  36  60  83 117 153 188 243 300 350
#     4  10  21  34  54  76 112 155 195 226 292 346
#     4  10  23  37  60  85 115 155 190 244 298 353
#     4  11  20  35  50  71 111 150 184 238 273 326
#     4  10  23  35  51  85 116 156 194 246 272 349
#
# _framework density 17.434100000000001
#
# number of rings (size 3 to 8) (size 9 to 14) (size 15 to 20)
#    0.800    1.067    2.667    1.200    7.467    0.000 
#    0.000    0.000    0.000    0.000    0.000    4.667 
#    0.000    0.133    0.000    0.000    0.000    0.000 
#
# Total GULP energy -167024.751928 kJ/mol
# GULP energy per Si atom -5567.491731 kJ/mol
# Density = 1.739442 g / cm^3
# Si number density = 17.434100 Si / 1000 Ang^3
#
#
#
# Elastic Constant Matrix: (Units=GPa)
#
#
# Indices 1 2 3 4 5 6 
#
# 1 58.7458 23.5632 27.6534 0.0003 2.3665 0.0000
# 2 23.5632 69.4472 35.1101 -0.0023 8.4842 0.0003
# 3 27.6534 35.1101 128.5596 -0.0005 -11.6335 -0.0002
# 4 0.0003 -0.0023 -0.0005 27.6147 0.0001 -2.0438
# 5 2.3665 8.4842 -11.6335 0.0001 18.7673 0.0001
# 6 0.0000 0.0003 -0.0002 -2.0438 0.0001 27.8451
#
#
#
# Elastic Compliance Matrix: (Units=1/GPa)
#
#
# Indices 1 2 3 4 5 6 
#
# 1 0.020697 -0.005079 -0.003277 -0.000001 -0.002345 0.000000
# 2 -0.005079 0.020410 -0.005571 0.000002 -0.012040 0.000000
# 3 -0.003277 -0.005571 0.010880 0.000000 0.009676 0.000000
# 4 -0.000001 0.000002 0.000000 0.036410 -0.000001 0.002672
# 5 -0.002345 -0.012040 0.009676 -0.000001 0.065021 0.000000
# 6 0.000000 0.000000 0.000000 0.002672 0.000000 0.036109
#
#
# Mechanical properties :
#
#
# Convention : Reuss Voigt Hill
#
# Bulk Modulus (GPa) = 41.43689 47.71178 44.57433
# Shear Modulus (GPa) = 22.18015 26.20714 24.19365
#
# Velocity S-wave (km/s) = 3.57070 3.88133 3.72925
# Velocity P-wave (km/s) = 6.38899 6.89294 6.64575
#
# Compressibility (1/GPa) = 0.02413309
#
# Stress axis : x y z
#
# Youngs Moduli (GPa) = 48.31658 48.99514 91.90761
#
# Poissons Ratio (x) = 0.24885 0.30118
# Poissons Ratio (y) = 0.24541 0.51202
# Poissons Ratio (z) = 0.15833 0.27296
#
# Static dielectric constant tensor:
#      x y z
#    x 1.602150 0.000000 -0.011140 
#    y 0.000000 1.642970 0.000000 
#    z -0.011140 0.000000 1.633960 
# 
# From -- ./inp_files/320271.got.cif
#   From: 2010.05.17/outbox.cif.g08.bks.cpg/sg15_161_cif.got.tgz:320271.got - 2010.06.03 18:47:42.
