data_PCOD9278339
_publ_section_title
;
Structure prediction by ZEFSAII (Michael W. Deem and Ramdas Pophale) SiO2 
 PCOD9278339
Probable space group: C 2/C
;
_chemical_formula_sum "Si O2"
_cell_formula_units_Z 44
_cell_length_a 7.686866
_cell_length_b 12.294553
_cell_length_c 25.837025
_cell_angle_alpha 90.000000
_cell_angle_beta 48.711040
_cell_angle_gamma 90.000000
_cell_volume 1834.723893
_symmetry_space_group_name_H-M "C 2/C"
_symmetry_group_IT_number 15
_symmetry_cell_setting 'monoclinic'
loop_
_space_group_symop_operation_xyz
x,y,z
-x,y,1/2-z
-x,-y,-z
x,-y,1/2+z
1/2+x,1/2+y,z
1/2-x,1/2+y,1/2-z
1/2-x,1/2-y,-z
1/2+x,1/2-y,1/2+z
loop_
_atom_site_type_symbol
_atom_site_label
_atom_site_fract_x
_atom_site_fract_y
_atom_site_fract_z
Si Si1 0.501775 0.064633 0.586315
Si Si2 0.446913 0.295087 0.599301
Si Si3 0.535418 0.532905 0.617665
Si Si4 0.232590 0.018729 0.235732
Si Si5 0.656134 0.363832 0.997035
Si Si6 0.000000 0.307572 0.750000
O O1 0.599850 0.186625 0.567687
O O2 0.287936 0.067480 0.587848
O O3 0.400146 0.037085 0.662296
O O4 0.668174 0.966305 0.538312
O O5 0.539425 0.401742 0.610499
O O6 0.398954 0.338996 0.551441
O O7 0.209759 0.256922 0.675579
O O8 0.352709 0.554489 0.699351
O O9 0.475749 0.592420 0.575744
O O10 0.368191 0.118485 0.233911
O O11 0.000000 0.049898 0.250000
O O12 0.750000 0.250000 0.000000
#
# Coordination Sequence:
#
# PCOD9278339 Si02
#       6
#     8   8   8   8   8   4
#     4  11  23  44  67  96 134 176 226 273 340 400
#     4  11  24  41  69  95 130 182 219 281 337 400
#     4  10  23  42  64  96 134 168 223 276 337 396
#     4   9  20  40  69  95 134 179 223 284 334 404
#     4  12  24  43  67  99 133 179 220 276 341 407
#     4  10  20  42  70  98 132 180 236 272 348 406
#
# _framework density 23.981809999999999
#
# number of rings (size 3 to 8) (size 9 to 14) (size 15 to 20)
#    0.000    1.455    3.636    1.091    3.818    0.727 
#    3.273    0.000    8.000    0.000    0.000    0.000 
#    0.000    0.000    0.000    0.000    0.000    0.000 
#
# Total GULP energy -123048.646682 kJ/mol
# GULP energy per Si atom -5593.120304 kJ/mol
# Density = 2.392723 g / cm^3
# Si number density = 23.981810 Si / 1000 Ang^3
#
#
#
# Elastic Constant Matrix: (Units=GPa)
#
#
# Indices 1 2 3 4 5 6 
#
# 1 48.8114 26.7426 45.3972 0.0007 11.8851 -0.0002
# 2 26.7426 141.6258 43.1822 0.0005 4.7890 -0.0001
# 3 45.3972 43.1822 162.3095 0.0008 23.5766 -0.0003
# 4 0.0007 0.0005 0.0008 27.3928 -0.0006 -4.0605
# 5 11.8851 4.7890 23.5766 -0.0006 39.7553 0.0002
# 6 -0.0002 -0.0001 -0.0003 -4.0605 0.0002 27.0214
#
#
#
# Elastic Compliance Matrix: (Units=1/GPa)
#
#
# Indices 1 2 3 4 5 6 
#
# 1 0.029726 -0.003401 -0.006760 -0.000001 -0.004468 0.000000
# 2 -0.003401 0.008077 -0.001318 0.000000 0.000825 0.000000
# 3 -0.006760 -0.001318 0.008848 0.000000 -0.003067 0.000000
# 4 -0.000001 0.000000 0.000000 0.037338 0.000001 0.005611
# 5 -0.004468 0.000825 -0.003067 0.000001 0.028209 0.000000
# 6 0.000000 0.000000 0.000000 0.005611 0.000000 0.037851
#
#
# Mechanical properties :
#
#
# Convention : Reuss Voigt Hill
#
# Bulk Modulus (GPa) = 42.20600 64.82119 53.51360
# Shear Modulus (GPa) = 27.63913 34.66221 31.15067
#
# Velocity S-wave (km/s) = 3.39854 3.80591 3.60798
# Velocity P-wave (km/s) = 5.74782 6.81184 6.30233
#
# Compressibility (1/GPa) = 0.02369331
#
# Stress axis : x y z
#
# Youngs Moduli (GPa) = 33.64111 123.81130 113.01962
#
# Poissons Ratio (x) = 0.42103 0.76406
# Poissons Ratio (y) = 0.11440 0.14891
# Poissons Ratio (z) = 0.22743 0.16313
#
# Static dielectric constant tensor:
#      x y z
#    x 1.975780 0.000000 -0.053450 
#    y 0.000000 1.890780 0.000000 
#    z -0.053450 0.000000 1.971480 
# 
# From -- ./inp_files/230187.got.cif
#   From: 2010.05.17/outbox.cif.g08.bks.cpg/sg15_116_cif.got.tgz:230187.got - 2010.06.03 18:47:42.
