data_PCOD9278995
_publ_section_title
;
Structure prediction by ZEFSAII (Michael W. Deem and Ramdas Pophale) SiO2 
 PCOD9278995
Probable space group: C 2/C
;
_chemical_formula_sum "Si O2"
_cell_formula_units_Z 36
_cell_length_a 17.824476
_cell_length_b 8.864171
_cell_length_c 18.587358
_cell_angle_alpha 90.000000
_cell_angle_beta 27.869619
_cell_angle_gamma 90.000000
_cell_volume 1372.834131
_symmetry_space_group_name_H-M "C 2/C"
_symmetry_group_IT_number 15
_symmetry_cell_setting 'monoclinic'
loop_
_space_group_symop_operation_xyz
x,y,z
-x,y,1/2-z
-x,-y,-z
x,-y,1/2+z
1/2+x,1/2+y,z
1/2-x,1/2+y,1/2-z
1/2-x,1/2-y,-z
1/2+x,1/2-y,1/2+z
loop_
_atom_site_type_symbol
_atom_site_label
_atom_site_fract_x
_atom_site_fract_y
_atom_site_fract_z
Si Si1 0.827014 0.569685 0.630096
Si Si2 0.239989 0.580258 0.656247
Si Si3 0.967109 0.029342 0.196130
Si Si4 0.484607 0.178159 0.365526
Si Si5 0.000000 0.437392 0.250000
O O1 0.749259 0.628231 0.770019
O O2 0.708127 0.453000 0.691414
O O3 0.000000 0.500000 0.500000
O O4 0.878743 0.687617 0.526038
O O5 0.401972 0.583257 0.473626
O O6 0.148380 0.417185 0.739319
O O7 0.105650 0.653350 0.717301
O O8 0.984065 0.846008 0.184667
O O9 0.000000 0.075974 0.250000
O O10 0.397556 0.061035 0.383448
#
# Coordination Sequence:
#
# PCOD9278995 Si02
#       5
#     8   8   8   8   4
#     4  10  21  34  47  70 116 143 163 205 254 316
#     4   9  19  32  46  73 110 142 171 197 251 311
#     4  12  20  30  54  82 108 133 170 210 256 317
#     4   9  18  32  51  77 109 135 164 208 263 308
#     4   8  16  30  50  74 106 130 164 206 260 292
#
# _framework density 26.223126000000001
#
# number of rings (size 3 to 8) (size 9 to 14) (size 15 to 20)
#    1.333    0.889    1.111    3.333    0.000    2.667 
#    0.000    0.000    0.000    0.000    0.000    1.556 
#   16.667    0.889    0.000    0.000    0.000    0.000 
#
# Total GULP energy -100423.918807 kJ/mol
# GULP energy per Si atom -5579.106600 kJ/mol
# Density = 2.616344 g / cm^3
# Si number density = 26.223126 Si / 1000 Ang^3
#
#
#
# Elastic Constant Matrix: (Units=GPa)
#
#
# Indices 1 2 3 4 5 6 
#
# 1 191.7540 33.1703 94.7219 0.0000 17.7822 0.0000
# 2 33.1703 61.6350 12.5235 0.0000 7.2726 0.0000
# 3 94.7219 12.5235 182.2800 0.0000 20.3440 0.0000
# 4 0.0000 0.0000 0.0000 11.6833 0.0000 -14.7775
# 5 17.7822 7.2726 20.3440 0.0000 53.5755 0.0000
# 6 0.0000 0.0000 0.0000 -14.7775 0.0000 20.6271
#
#
#
# Elastic Compliance Matrix: (Units=1/GPa)
#
#
# Indices 1 2 3 4 5 6 
#
# 1 0.007668 -0.003296 -0.003680 0.000000 -0.000700 0.000000
# 2 -0.003296 0.018055 0.000652 0.000000 -0.001604 0.000000
# 3 -0.003680 0.000652 0.007547 0.000000 -0.001733 0.000000
# 4 0.000000 0.000000 0.000000 0.911960 0.000000 0.653341
# 5 -0.000700 -0.001604 -0.001733 0.000000 0.019773 0.000000
# 6 0.000000 0.000000 0.000000 0.653341 0.000000 0.516542
#
#
# Mechanical properties :
#
#
# Convention : Reuss Voigt Hill
#
# Bulk Modulus (GPa) = 48.49498 79.61117 64.05308
# Shear Modulus (GPa) = 3.33096 36.86074 20.09585
#
# Velocity S-wave (km/s) = 1.12827 3.75328 2.77129
# Velocity P-wave (km/s) = 4.49785 7.01483 5.89231
#
# Compressibility (1/GPa) = 0.02062069
#
# Stress axis : x y z
#
# Youngs Moduli (GPa) = 130.41160 55.38492 132.50202
#
# Poissons Ratio (x) = 0.18257 0.48762
# Poissons Ratio (y) = 0.42988 -0.08633
# Poissons Ratio (z) = 0.47992 -0.03608
#
# Static dielectric constant tensor:
#      x y z
#    x 2.239240 0.000000 -0.027600 
#    y 0.000000 2.117330 0.000000 
#    z -0.027600 0.000000 2.035790 
# 
# From -- ./inp_files/210916.got.cif
#   From: 2010.05.17/outbox.cif.g08.bks.cpg/sg15_106_cif.got.tgz:210916.got - 2010.06.03 18:47:42.
