data_PCOD9278947
_publ_section_title
;
Structure prediction by ZEFSAII (Michael W. Deem and Ramdas Pophale) SiO2 
 PCOD9278947
Probable space group: C 2/C
;
_chemical_formula_sum "Si O2"
_cell_formula_units_Z 60
_cell_length_a 22.386641
_cell_length_b 23.804792
_cell_length_c 8.713008
_cell_angle_alpha 90.000000
_cell_angle_beta 134.844606
_cell_angle_gamma 90.000000
_cell_volume 3292.161397
_symmetry_space_group_name_H-M "C 2/C"
_symmetry_group_IT_number 15
_symmetry_cell_setting 'monoclinic'
loop_
_space_group_symop_operation_xyz
x,y,z
-x,y,1/2-z
-x,-y,-z
x,-y,1/2+z
1/2+x,1/2+y,z
1/2-x,1/2+y,1/2-z
1/2-x,1/2-y,-z
1/2+x,1/2-y,1/2+z
loop_
_atom_site_type_symbol
_atom_site_label
_atom_site_fract_x
_atom_site_fract_y
_atom_site_fract_z
Si Si1 0.901869 0.528900 0.540513
Si Si2 0.675139 0.137796 0.962039
Si Si3 0.945917 0.265801 0.368964
Si Si4 0.000000 0.663158 0.250000
Si Si5 0.363061 0.266636 0.295867
Si Si6 0.752681 0.838913 0.929028
Si Si7 0.698905 0.698759 0.485315
Si Si8 0.138206 0.577850 0.366902
O O1 0.868759 0.578244 0.592892
O O2 0.889773 0.549641 0.344971
O O3 0.856316 0.470745 0.497325
O O4 0.000000 0.519631 0.750000
O O5 0.732811 0.147294 0.216987
O O6 0.740328 0.146610 0.940348
O O7 0.602411 0.185989 0.818910
O O8 0.952290 0.296375 0.544512
O O9 0.891054 0.208984 0.258611
O O10 0.040931 0.249356 0.499359
O O11 0.067088 0.622757 0.287709
O O12 0.314765 0.210462 0.158400
O O13 0.318358 0.290038 0.368197
O O14 0.343290 0.313128 0.131082
O O15 0.724587 0.890415 0.983843
O O16 0.750000 0.750000 0.500000
#
# Coordination Sequence:
#
# PCOD9278947 Si02
#       8
#     8   8   8   4   8   8   8   8
#     4  11  23  37  56  79 107 149 186 234 267 329
#     4  10  23  37  56  78 113 149 186 227 279 320
#     4  11  23  34  56  79 112 151 185 225 271 334
#     4  12  24  32  54  82 110 146 192 224 276 318
#     4  11  21  35  55  77 111 149 185 223 274 331
#     4  10  22  36  53  77 112 145 183 229 276 322
#     4  10  21  33  54  80 108 147 187 225 272 331
#     4  11  24  37  53  79 107 146 188 229 275 322
#
# _framework density 18.225107999999999
#
# number of rings (size 3 to 8) (size 9 to 14) (size 15 to 20)
#    0.000    1.333    4.667    1.600    9.333    0.000 
#    0.000    0.000    0.000    0.000    0.000    0.933 
#    0.000    0.000    0.000    0.000    0.000    0.000 
#
# Total GULP energy -167352.804572 kJ/mol
# GULP energy per Si atom -5578.426819 kJ/mol
# Density = 1.818363 g / cm^3
# Si number density = 18.225108 Si / 1000 Ang^3
#
#
#
# Elastic Constant Matrix: (Units=GPa)
#
#
# Indices 1 2 3 4 5 6 
#
# 1 77.8530 29.9197 26.5379 0.0000 -0.3653 0.0000
# 2 29.9197 55.9668 17.8021 0.0000 -0.8701 0.0000
# 3 26.5379 17.8021 62.9732 0.0000 2.7531 0.0000
# 4 0.0000 0.0000 0.0000 13.9057 0.0000 -6.5471
# 5 -0.3653 -0.8701 2.7531 0.0000 26.0065 0.0000
# 6 0.0000 0.0000 0.0000 -6.5471 0.0000 39.9790
#
#
#
# Elastic Compliance Matrix: (Units=1/GPa)
#
#
# Indices 1 2 3 4 5 6 
#
# 1 0.017612 -0.007734 -0.005260 0.000000 0.000545 0.000000
# 2 -0.007734 0.023070 -0.003307 0.000000 0.001013 0.000000
# 3 -0.005260 -0.003307 0.019128 0.000000 -0.002209 0.000000
# 4 0.000000 0.000000 0.000000 0.077921 0.000000 0.012761
# 5 0.000545 0.001013 -0.002209 0.000000 0.038727 0.000000
# 6 0.000000 0.000000 0.000000 0.012761 0.000000 0.027103
#
#
# Mechanical properties :
#
#
# Convention : Reuss Voigt Hill
#
# Bulk Modulus (GPa) = 36.75241 38.36804 37.56022
# Shear Modulus (GPa) = 20.38889 24.14713 22.26801
#
# Velocity S-wave (km/s) = 3.34836 3.64392 3.49926
# Velocity P-wave (km/s) = 5.92944 6.22914 6.08114
#
# Compressibility (1/GPa) = 0.02720910
#
# Stress axis : x y z
#
# Youngs Moduli (GPa) = 56.77809 43.34647 52.28041
#
# Poissons Ratio (x) = 0.33525 0.27498
# Poissons Ratio (y) = 0.43913 0.17288
# Poissons Ratio (z) = 0.29863 0.14334
#
# Static dielectric constant tensor:
#      x y z
#    x 1.683620 0.000000 -0.024440 
#    y 0.000000 1.642980 0.000000 
#    z -0.024440 0.000000 1.674020 
# 
# From -- ./inp_files/58773.got.cif
#   From: 2010.05.17/outbox.cif.g08.bks.cpg/sg15_30_cif.got.tgz:58773.got - 2010.06.03 18:47:42.
