data_PCOD9278611
_publ_section_title
;
Structure prediction by ZEFSAII (Michael W. Deem and Ramdas Pophale) SiO2 
 PCOD9278611
Probable space group: C 2/C
;
_chemical_formula_sum "Si O2"
_cell_formula_units_Z 60
_cell_length_a 19.482522
_cell_length_b 18.536410
_cell_length_c 11.349778
_cell_angle_alpha 90.000000
_cell_angle_beta 138.450600
_cell_angle_gamma 90.000000
_cell_volume 2718.601844
_symmetry_space_group_name_H-M "C 2/C"
_symmetry_group_IT_number 15
_symmetry_cell_setting 'monoclinic'
loop_
_space_group_symop_operation_xyz
x,y,z
-x,y,1/2-z
-x,-y,-z
x,-y,1/2+z
1/2+x,1/2+y,z
1/2-x,1/2+y,1/2-z
1/2-x,1/2-y,-z
1/2+x,1/2-y,1/2+z
loop_
_atom_site_type_symbol
_atom_site_label
_atom_site_fract_x
_atom_site_fract_y
_atom_site_fract_z
Si Si1 0.159437 0.436603 0.632345
Si Si2 0.256342 0.681112 0.416504
Si Si3 0.940182 0.816897 0.965832
Si Si4 0.625711 0.399193 0.251374
Si Si5 0.347605 0.207193 0.681530
Si Si6 0.500000 0.895187 0.250000
Si Si7 0.256845 0.418994 0.339520
Si Si8 0.641622 0.554783 0.285688
O O1 0.172600 0.360739 0.722707
O O2 0.049549 0.438607 0.423162
O O3 0.187307 0.508535 0.743403
O O4 0.250140 0.444280 0.648975
O O5 0.250000 0.750000 0.500000
O O6 0.350224 0.695233 0.445417
O O7 0.285359 0.615936 0.540607
O O8 0.928871 0.759231 0.848724
O O9 0.925408 0.891810 0.877695
O O10 0.049899 0.831176 0.165499
O O11 0.673205 0.407853 0.184217
O O12 0.584855 0.478553 0.226988
O O13 0.250000 0.250000 0.500000
O O14 0.405854 0.157135 0.664124
O O15 0.309868 0.152745 0.733267
O O16 0.328557 0.419956 0.546666
#
# Coordination Sequence:
#
# PCOD9278611 Si02
#       8
#     8   8   8   8   8   4   8   8
#     4  10  23  44  71  98 135 181 237 295 348 415
#     4  11  23  43  67  94 144 185 220 285 364 412
#     4  11  24  41  64 101 139 174 236 285 335 434
#     4  11  24  39  69  98 131 185 227 281 352 418
#     4  12  25  43  68 100 141 178 228 293 354 412
#     4  12  26  44  74 102 134 184 240 296 356 408
#     4  11  22  44  70  96 137 187 228 282 355 415
#     4  10  20  44  64  98 138 182 223 289 353 405
#
# _framework density 22.070169
#
# number of rings (size 3 to 8) (size 9 to 14) (size 15 to 20)
#    0.000    1.067    4.000    2.400    3.733    1.067 
#    2.400    0.000    2.933    0.000    0.000    0.000 
#    0.000    0.000    0.000    0.000    0.000    0.000 
#
# Total GULP energy -167260.994347 kJ/mol
# GULP energy per Si atom -5575.366478 kJ/mol
# Density = 2.201994 g / cm^3
# Si number density = 22.070169 Si / 1000 Ang^3
#
#
#
# Elastic Constant Matrix: (Units=GPa)
#
#
# Indices 1 2 3 4 5 6 
#
# 1 32.6924 3.9604 6.6471 0.0000 -9.2176 0.0000
# 2 3.9604 91.0570 19.8160 0.0000 2.0425 0.0000
# 3 6.6471 19.8160 112.7590 0.0000 -6.8780 0.0000
# 4 0.0000 0.0000 0.0000 -178.9404 0.0000 3.5280
# 5 -9.2176 2.0425 -6.8780 0.0000 34.1406 0.0000
# 6 0.0000 0.0000 0.0000 3.5280 0.0000 27.6195
#
#
#
# Elastic Compliance Matrix: (Units=1/GPa)
#
#
# Indices 1 2 3 4 5 6 
#
# 1 0.033506 -0.001398 -0.001187 0.000000 0.008891 0.000000
# 2 -0.001398 0.011518 -0.002032 0.000000 -0.001476 0.000000
# 3 -0.001187 -0.002032 0.009399 0.000000 0.001695 0.000000
# 4 0.000000 0.000000 0.000000 -0.005574 0.000000 0.000712
# 5 0.008891 -0.001476 0.001695 0.000000 0.032121 0.000000
# 6 0.000000 0.000000 0.000000 0.000712 0.000000 0.036115
#
#
# Mechanical properties :
#
#
# Convention : Reuss Voigt Hill
#
# Bulk Modulus (GPa) = 22.12963 33.03949 27.58456
# Shear Modulus (GPa) = 35.36523 -9.69708 12.83408
#
# Velocity S-wave (km/s) = 4.00734 -2.09840 2.41407
# Velocity P-wave (km/s) = 5.60896 3.02186 4.50511
#
# Compressibility (1/GPa) = 0.04518829
#
# Stress axis : x y z
#
# Youngs Moduli (GPa) = 29.84567 86.81891 106.39573
#
# Poissons Ratio (x) = 0.12141 0.12630
# Poissons Ratio (y) = 0.04174 0.21617
# Poissons Ratio (z) = 0.03543 0.17640
#
# Static dielectric constant tensor:
#      x y z
#    x 1.851970 0.000000 0.008570 
#    y 0.000000 1.868660 0.000000 
#    z 0.008570 0.000000 1.923050 
# 
# From -- ./inp_files/113815.got.cif
#   From: 2010.05.17/outbox.cif.g08.bks.cpg/sg15_57_cif.got.tgz:113815.got - 2010.06.03 18:47:42.
