data_PCOD9278631
_publ_section_title
;
Structure prediction by ZEFSAII (Michael W. Deem and Ramdas Pophale) SiO2 
 PCOD9278631
Probable space group: C 2/C
;
_chemical_formula_sum "Si O2"
_cell_formula_units_Z 48
_cell_length_a 22.853002
_cell_length_b 8.059714
_cell_length_c 10.353863
_cell_angle_alpha 90.000000
_cell_angle_beta 90.513859
_cell_angle_gamma 90.000000
_cell_volume 1906.987457
_symmetry_space_group_name_H-M "C 2/C"
_symmetry_group_IT_number 15
_symmetry_cell_setting 'monoclinic'
loop_
_space_group_symop_operation_xyz
x,y,z
-x,y,1/2-z
-x,-y,-z
x,-y,1/2+z
1/2+x,1/2+y,z
1/2-x,1/2+y,1/2-z
1/2-x,1/2-y,-z
1/2+x,1/2-y,1/2+z
loop_
_atom_site_type_symbol
_atom_site_label
_atom_site_fract_x
_atom_site_fract_y
_atom_site_fract_z
Si Si1 0.865173 0.753741 0.994363
Si Si2 0.078677 0.967745 0.886918
Si Si3 0.812004 0.241802 0.211621
Si Si4 0.310891 0.883554 0.731846
Si Si5 0.923767 0.528053 0.384327
Si Si6 0.500000 0.726843 0.750000
Si Si7 0.500000 0.232945 0.750000
O O1 0.824917 0.748349 0.119972
O O2 0.903213 0.921928 0.990454
O O3 0.827365 0.746747 0.864617
O O4 0.904934 0.585823 0.004320
O O5 0.136149 0.864037 0.850921
O O6 0.024962 0.840662 0.869254
O O7 0.054253 0.113239 0.793043
O O8 0.807632 0.432986 0.168863
O O9 0.749302 0.156365 0.198589
O O10 0.365221 0.887737 0.830906
O O11 0.975489 0.660193 0.367180
O O12 0.946569 0.381896 0.290679
#
# Coordination Sequence:
#
# PCOD9278631 Si02
#       7
#     8   8   8   8   8   4   4
#     4  11  23  43  68 102 129 175 225 263 341 391
#     4  11  22  42  67 101 132 175 214 277 326 391
#     4  11  25  46  68  97 138 169 221 282 324 395
#     4  11  22  44  68  93 134 174 215 279 329 383
#     4  10  22  44  65  97 132 175 216 278 321 390
#     4  10  22  42  70  92 138 174 222 268 332 392
#     4  10  20  44  66  90 142 170 216 270 332 378
#
# _framework density 25.170590000000001
#
# number of rings (size 3 to 8) (size 9 to 14) (size 15 to 20)
#    0.000    1.333    5.000    1.500    0.000    2.667 
#    3.000    4.167    0.000    0.000    0.000    0.000 
#    0.000    0.000    0.000    0.000    0.000    0.000 
#
# Total GULP energy -134103.055990 kJ/mol
# GULP energy per Si atom -5587.627333 kJ/mol
# Density = 2.511330 g / cm^3
# Si number density = 25.170590 Si / 1000 Ang^3
#
#
#
# Elastic Constant Matrix: (Units=GPa)
#
#
# Indices 1 2 3 4 5 6 
#
# 1 180.1688 38.9468 11.4132 0.0000 4.3689 0.0000
# 2 38.9468 102.9010 4.3008 0.0000 2.2995 0.0000
# 3 11.4132 4.3008 27.5262 0.0000 7.9600 0.0000
# 4 0.0000 0.0000 0.0000 39.0981 0.0000 -0.7085
# 5 4.3689 2.2995 7.9600 0.0000 27.3793 0.0000
# 6 0.0000 0.0000 0.0000 -0.7085 0.0000 42.6128
#
#
#
# Elastic Compliance Matrix: (Units=1/GPa)
#
#
# Indices 1 2 3 4 5 6 
#
# 1 0.006176 -0.002244 -0.002162 0.000000 -0.000169 0.000000
# 2 -0.002244 0.010601 -0.000625 0.000000 -0.000351 0.000000
# 3 -0.002162 -0.000625 0.040623 0.000000 -0.011413 0.000000
# 4 0.000000 0.000000 0.000000 0.025584 0.000000 0.000425
# 5 -0.000169 -0.000351 -0.011413 0.000000 0.039899 0.000000
# 6 0.000000 0.000000 0.000000 0.000425 0.000000 0.023474
#
#
# Mechanical properties :
#
#
# Convention : Reuss Voigt Hill
#
# Bulk Modulus (GPa) = 21.12324 46.65750 33.89037
# Shear Modulus (GPa) = 29.03632 38.88037 33.95834
#
# Velocity S-wave (km/s) = 3.40013 3.93450 3.67703
# Velocity P-wave (km/s) = 4.88106 6.26236 5.61435
#
# Compressibility (1/GPa) = 0.04734123
#
# Stress axis : x y z
#
# Youngs Moduli (GPa) = 161.90769 94.32902 24.61638
#
# Poissons Ratio (x) = 0.21163 0.05321
# Poissons Ratio (y) = 0.36325 0.01538
# Poissons Ratio (z) = 0.34998 0.05893
#
# Static dielectric constant tensor:
#      x y z
#    x 2.005800 0.000000 -0.013670 
#    y 0.000000 2.024520 0.000000 
#    z -0.013670 0.000000 2.039070 
# 
# From -- ./inp_files/116411.got.cif
#   From: 2010.05.17/outbox.cif.g08.bks.cpg/sg15_59_cif.got.tgz:116411.got - 2010.06.03 18:47:42.
