data_PCOD9278428
_publ_section_title
;
Structure prediction by ZEFSAII (Michael W. Deem and Ramdas Pophale) SiO2 
 PCOD9278428
Probable space group: C 2/C
;
_chemical_formula_sum "Si O2"
_cell_formula_units_Z 48
_cell_length_a 11.817241
_cell_length_b 21.809620
_cell_length_c 8.875774
_cell_angle_alpha 90.000000
_cell_angle_beta 58.557609
_cell_angle_gamma 90.000000
_cell_volume 1951.657040
_symmetry_space_group_name_H-M "C 2/C"
_symmetry_group_IT_number 15
_symmetry_cell_setting 'monoclinic'
loop_
_space_group_symop_operation_xyz
x,y,z
-x,y,1/2-z
-x,-y,-z
x,-y,1/2+z
1/2+x,1/2+y,z
1/2-x,1/2+y,1/2-z
1/2-x,1/2-y,-z
1/2+x,1/2-y,1/2+z
loop_
_atom_site_type_symbol
_atom_site_label
_atom_site_fract_x
_atom_site_fract_y
_atom_site_fract_z
Si Si1 0.538719 0.416443 0.879859
Si Si2 0.164588 0.235244 0.797822
Si Si3 0.429797 0.943192 0.955895
Si Si4 0.113364 0.195357 0.494546
Si Si5 0.721249 0.533366 0.034881
Si Si6 0.130767 0.358256 0.233357
O O1 0.500000 0.379371 0.750000
O O2 0.553782 0.371295 0.005602
O O3 0.414148 0.462181 0.966700
O O4 0.675335 0.446429 0.733327
O O5 0.155369 0.205335 0.636796
O O6 0.261121 0.292814 0.701284
O O7 0.247662 0.188454 0.841973
O O8 0.011229 0.241076 0.950983
O O9 0.500000 0.929566 0.750000
O O10 0.286811 0.968486 0.006775
O O11 0.410805 0.885637 0.076543
O O12 0.500000 0.000000 0.000000
O O13 0.822017 0.582245 0.894566
O O14 0.000000 0.331013 0.250000
#
# Coordination Sequence:
#
# PCOD9278428 Si02
#       6
#     8   8   8   8   8   8
#     4   8  19  37  65  86 123 166 204 265 315 386
#     4  10  23  40  65  93 127 178 215 272 331 395
#     4  12  22  39  63  90 130 168 209 272 320 383
#     4  10  20  43  63  93 134 165 222 271 326 399
#     4   9  19  39  61  88 124 162 209 258 321 378
#     4  12  23  42  64  94 133 170 221 271 327 390
#
# _framework density 24.594483
#
# number of rings (size 3 to 8) (size 9 to 14) (size 15 to 20)
#    1.000    0.667    5.000    0.000    0.000    3.333 
#    6.000    9.167    0.000    0.000    0.000    0.000 
#    0.000    0.000    0.000    0.000    0.000    0.000 
#
# Total GULP energy -134114.258726 kJ/mol
# GULP energy per Si atom -5588.094114 kJ/mol
# Density = 2.453851 g / cm^3
# Si number density = 24.594483 Si / 1000 Ang^3
#
#
#
# Elastic Constant Matrix: (Units=GPa)
#
#
# Indices 1 2 3 4 5 6 
#
# 1 130.8440 27.3240 12.8998 0.0000 -3.0547 0.0000
# 2 27.3240 36.5929 14.9526 0.0000 11.9392 0.0000
# 3 12.8998 14.9526 86.2930 0.0000 -10.4580 0.0000
# 4 0.0000 0.0000 0.0000 19.4667 0.0000 9.0855
# 5 -3.0547 11.9392 -10.4580 0.0000 33.0589 0.0000
# 6 0.0000 0.0000 0.0000 9.0855 0.0000 29.3895
#
#
#
# Elastic Compliance Matrix: (Units=1/GPa)
#
#
# Indices 1 2 3 4 5 6 
#
# 1 0.009502 -0.008716 0.000601 0.000000 0.004216 0.000000
# 2 -0.008716 0.043641 -0.008596 0.000000 -0.019286 0.000000
# 3 0.000601 -0.008596 0.013904 0.000000 0.007559 0.000000
# 4 0.000000 0.000000 0.000000 0.060031 0.000000 -0.018558
# 5 0.004216 -0.019286 0.007559 0.000000 0.039995 0.000000
# 6 0.000000 0.000000 0.000000 -0.018558 0.000000 0.039763
#
#
# Mechanical properties :
#
#
# Convention : Reuss Voigt Hill
#
# Bulk Modulus (GPa) = 29.74073 40.45365 35.09719
# Shear Modulus (GPa) = 19.88323 29.61990 24.75156
#
# Velocity S-wave (km/s) = 2.84640 3.47411 3.17580
# Velocity P-wave (km/s) = 4.78762 5.70759 5.26773
#
# Compressibility (1/GPa) = 0.03362392
#
# Stress axis : x y z
#
# Youngs Moduli (GPa) = 105.23984 22.91407 71.92068
#
# Poissons Ratio (x) = 0.19973 -0.04321
# Poissons Ratio (y) = 0.91730 0.61826
# Poissons Ratio (z) = -0.06323 0.19698
#
# Static dielectric constant tensor:
#      x y z
#    x 2.008450 0.000000 -0.026930 
#    y 0.000000 1.943270 0.000000 
#    z -0.026930 0.000000 2.010270 
# 
# From -- ./inp_files/32526.got.cif
#   From: 2010.05.17/outbox.cif.g08.bks.cpg/sg15_17_cif.got.tgz:32526.got - 2010.06.03 18:47:42.
