data_PCOD9278855
_publ_section_title
;
Structure prediction by ZEFSAII (Michael W. Deem and Ramdas Pophale) SiO2 
 PCOD9278855
Probable space group: C 2/C
;
_chemical_formula_sum "Si O2"
_cell_formula_units_Z 44
_cell_length_a 19.054570
_cell_length_b 16.299682
_cell_length_c 5.832813
_cell_angle_alpha 90.000000
_cell_angle_beta 98.851827
_cell_angle_gamma 90.000000
_cell_volume 1789.998482
_symmetry_space_group_name_H-M "C 2/C"
_symmetry_group_IT_number 15
_symmetry_cell_setting 'monoclinic'
loop_
_space_group_symop_operation_xyz
x,y,z
-x,y,1/2-z
-x,-y,-z
x,-y,1/2+z
1/2+x,1/2+y,z
1/2-x,1/2+y,1/2-z
1/2-x,1/2-y,-z
1/2+x,1/2-y,1/2+z
loop_
_atom_site_type_symbol
_atom_site_label
_atom_site_fract_x
_atom_site_fract_y
_atom_site_fract_z
Si Si1 0.904073 0.186347 0.830712
Si Si2 0.283875 0.379675 0.515663
Si Si3 0.638075 0.555037 0.063591
Si Si4 0.500000 0.086945 0.750000
Si Si5 0.500000 0.174643 0.250000
Si Si6 0.158614 0.536507 0.822740
Si Si7 0.000000 0.900606 0.750000
O O1 0.830885 0.191437 0.931737
O O2 0.891200 0.112857 0.649466
O O3 0.930632 0.267608 0.723509
O O4 0.964502 0.156710 0.039629
O O5 0.321685 0.468808 0.461453
O O6 0.301525 0.387291 0.790395
O O7 0.204174 0.381508 0.389321
O O8 0.566135 0.547530 0.182979
O O9 0.499892 0.131636 0.499899
O O10 0.574070 0.039567 0.785311
O O11 0.178260 0.509385 0.573389
#
# Coordination Sequence:
#
# PCOD9278855 Si02
#       7
#     8   8   8   4   4   8   4
#     4  11  22  39  61  91 138 193 227 275 330 392
#     4  11  23  36  63 101 141 174 219 278 358 418
#     4  11  19  35  54  97 133 179 219 275 336 414
#     4  12  29  49  78 101 130 177 244 288 348 404
#     4  12  26  50  66  99 139 192 240 286 310 400
#     4  12  24  49  79 111 136 165 212 299 372 425
#     4  10  21  31  52  88 133 179 232 256 322 390
#
# _framework density 24.581025
#
# number of rings (size 3 to 8) (size 9 to 14) (size 15 to 20)
#    0.000    0.727    5.455    2.182    2.545    3.636 
#    0.000    1.818    0.000    0.000    0.000    0.000 
#    0.000    0.000    0.000    0.000    0.000    0.000 
#
# Total GULP energy -122718.824256 kJ/mol
# GULP energy per Si atom -5578.128375 kJ/mol
# Density = 2.452508 g / cm^3
# Si number density = 24.581025 Si / 1000 Ang^3
#
#
#
# Elastic Constant Matrix: (Units=GPa)
#
#
# Indices 1 2 3 4 5 6 
#
# 1 103.8084 -1.5562 24.9464 0.0000 12.6729 0.0000
# 2 -1.5562 31.1647 33.4810 0.0000 -17.2573 0.0000
# 3 24.9464 33.4810 156.2665 0.0000 -9.9881 0.0000
# 4 0.0000 0.0000 0.0000 26.7216 0.0000 -23.5882
# 5 12.6729 -17.2573 -9.9881 0.0000 42.4894 0.0000
# 6 0.0000 0.0000 0.0000 -23.5882 0.0000 26.1054
#
#
#
# Elastic Compliance Matrix: (Units=1/GPa)
#
#
# Indices 1 2 3 4 5 6 
#
# 1 0.010549 0.000995 -0.002104 0.000000 -0.003237 0.000000
# 2 0.000995 0.054059 -0.010515 0.000000 0.019188 0.000000
# 3 -0.002104 -0.010515 0.008889 0.000000 -0.001554 0.000000
# 4 0.000000 0.000000 0.000000 0.184914 0.000000 0.167083
# 5 -0.003237 0.019188 -0.001554 0.000000 0.031929 0.000000
# 6 0.000000 0.000000 0.000000 0.167083 0.000000 0.189278
#
#
# Mechanical properties :
#
#
# Convention : Reuss Voigt Hill
#
# Bulk Modulus (GPa) = 19.90123 44.99801 32.44962
# Shear Modulus (GPa) = 9.62252 34.68784 22.15518
#
# Velocity S-wave (km/s) = 1.98068 3.76062 3.00544
# Velocity P-wave (km/s) = 3.65302 6.09935 5.02726
#
# Compressibility (1/GPa) = 0.05024814
#
# Stress axis : x y z
#
# Youngs Moduli (GPa) = 94.79732 18.49845 112.50165
#
# Poissons Ratio (x) = -0.01840 0.23671
# Poissons Ratio (y) = -0.09430 1.18293
# Poissons Ratio (z) = 0.19946 0.19451
#
# Static dielectric constant tensor:
#      x y z
#    x 2.001370 0.000000 -0.088610 
#    y 0.000000 1.960980 0.000000 
#    z -0.088610 0.000000 2.199270 
# 
# From -- ./inp_files/10428.got.cif
#   From: 2010.05.17/outbox.cif.g08.bks.cpg/sg15_6_cif.got.tgz:10428.got - 2010.06.03 18:47:42.
