data_PCOD9278936
_publ_section_title
;
Structure prediction by ZEFSAII (Michael W. Deem and Ramdas Pophale) SiO2 
 PCOD9278936
Probable space group: C 2/C
;
_chemical_formula_sum "Si O2"
_cell_formula_units_Z 56
_cell_length_a 7.579165
_cell_length_b 26.882930
_cell_length_c 14.590425
_cell_angle_alpha 90.000000
_cell_angle_beta 71.450515
_cell_angle_gamma 90.000000
_cell_volume 2818.362203
_symmetry_space_group_name_H-M "C 2/C"
_symmetry_group_IT_number 15
_symmetry_cell_setting 'monoclinic'
loop_
_space_group_symop_operation_xyz
x,y,z
-x,y,1/2-z
-x,-y,-z
x,-y,1/2+z
1/2+x,1/2+y,z
1/2-x,1/2+y,1/2-z
1/2-x,1/2-y,-z
1/2+x,1/2-y,1/2+z
loop_
_atom_site_type_symbol
_atom_site_label
_atom_site_fract_x
_atom_site_fract_y
_atom_site_fract_z
Si Si1 0.799995 0.278014 0.734102
Si Si2 0.891650 0.513070 0.363617
Si Si3 0.402417 0.066627 0.002678
Si Si4 0.609526 0.729944 0.948458
Si Si5 0.007574 0.946653 0.855982
Si Si6 0.499841 0.834243 0.936673
Si Si7 0.615740 0.660150 0.403464
O O1 0.787775 0.232297 0.666540
O O2 0.643355 0.292802 0.830973
O O3 0.000000 0.272000 0.750000
O O4 0.831240 0.326235 0.663278
O O5 0.965929 0.546758 0.436176
O O6 0.325156 0.523648 0.122202
O O7 0.000000 0.522447 0.250000
O O8 0.934077 0.458617 0.399125
O O9 0.435017 0.125918 0.000247
O O10 0.196040 0.048905 0.066040
O O11 0.519719 0.678948 0.994372
O O12 0.750000 0.750000 0.000000
O O13 0.464349 0.776566 0.969381
O O14 0.053602 0.888364 0.860954
O O15 0.000000 0.959903 0.750000
O O16 0.316774 0.850829 0.913691
#
# Coordination Sequence:
#
# PCOD9278936 Si02
#       7
#     8   8   8   8   8   8   8
#     4   8  19  32  54  80 111 147 191 242 291 347
#     4  11  24  41  63  91 125 159 201 251 316 380
#     4  11  22  41  64  90 124 160 199 258 312 367
#     4  10  21  33  52  85 120 153 193 250 292 357
#     4  12  23  36  66  96 122 151 206 262 315 362
#     4   9  19  37  57  82 118 152 198 247 301 355
#     4  11  20  35  60  87 118 159 201 252 306 354
#
# _framework density 19.869696999999999
#
# number of rings (size 3 to 8) (size 9 to 14) (size 15 to 20)
#    0.857    0.857    2.857    2.571    2.000    0.000 
#    0.000    0.000    6.286    0.000    0.000    0.000 
#    0.000    0.000    0.000    0.000    0.000    0.000 
#
# Total GULP energy -155915.599368 kJ/mol
# GULP energy per Si atom -5568.414263 kJ/mol
# Density = 1.982447 g / cm^3
# Si number density = 19.869697 Si / 1000 Ang^3
#
#
#
# Elastic Constant Matrix: (Units=GPa)
#
#
# Indices 1 2 3 4 5 6 
#
# 1 84.4850 5.9845 10.8794 0.0000 12.1384 0.0000
# 2 5.9845 29.5989 16.3171 0.0000 7.8476 0.0000
# 3 10.8794 16.3171 55.5091 0.0000 15.6601 0.0000
# 4 0.0000 0.0000 0.0000 24.9184 0.0000 4.0388
# 5 12.1384 7.8476 15.6601 0.0000 24.7154 0.0000
# 6 0.0000 0.0000 0.0000 4.0388 0.0000 23.0844
#
#
#
# Elastic Compliance Matrix: (Units=1/GPa)
#
#
# Indices 1 2 3 4 5 6 
#
# 1 0.012783 -0.000704 -0.000719 0.000000 -0.005599 0.000000
# 2 -0.000704 0.041218 -0.010208 0.000000 -0.006274 0.000000
# 3 -0.000719 -0.010208 0.024527 0.000000 -0.011946 0.000000
# 4 0.000000 0.000000 0.000000 0.041302 0.000000 -0.007226
# 5 -0.005599 -0.006274 -0.011946 0.000000 0.052772 0.000000
# 6 0.000000 0.000000 0.000000 -0.007226 0.000000 0.044584
#
#
# Mechanical properties :
#
#
# Convention : Reuss Voigt Hill
#
# Bulk Modulus (GPa) = 18.09414 26.21723 22.15569
# Shear Modulus (GPa) = 19.31466 23.63777 21.47622
#
# Velocity S-wave (km/s) = 3.12118 3.45286 3.29120
# Velocity P-wave (km/s) = 4.70268 5.39625 5.06136
#
# Compressibility (1/GPa) = 0.05526650
#
# Stress axis : x y z
#
# Youngs Moduli (GPa) = 78.22698 24.26109 40.77134
#
# Poissons Ratio (x) = 0.01707 0.02931
# Poissons Ratio (y) = 0.05505 0.41621
# Poissons Ratio (z) = 0.05624 0.24767
#
# Static dielectric constant tensor:
#      x y z
#    x 1.747780 0.000000 0.025580 
#    y 0.000000 1.778710 0.000000 
#    z 0.025580 0.000000 1.758660 
# 
# From -- ./inp_files/137722.got.cif
#   From: 2010.05.17/outbox.cif.g08.bks.cpg/sg15_69_cif.got.tgz:137722.got - 2010.06.03 18:47:42.
