data_PCOD9278448
_publ_section_title
;
Structure prediction by ZEFSAII (Michael W. Deem and Ramdas Pophale) SiO2 
 PCOD9278448
Probable space group: C 2/C
;
_chemical_formula_sum "Si O2"
_cell_formula_units_Z 40
_cell_length_a 9.361338
_cell_length_b 27.972251
_cell_length_c 15.747346
_cell_angle_alpha 90.000000
_cell_angle_beta 29.688436
_cell_angle_gamma 90.000000
_cell_volume 2042.332435
_symmetry_space_group_name_H-M "C 2/C"
_symmetry_group_IT_number 15
_symmetry_cell_setting 'monoclinic'
loop_
_space_group_symop_operation_xyz
x,y,z
-x,y,1/2-z
-x,-y,-z
x,-y,1/2+z
1/2+x,1/2+y,z
1/2-x,1/2+y,1/2-z
1/2-x,1/2-y,-z
1/2+x,1/2-y,1/2+z
loop_
_atom_site_type_symbol
_atom_site_label
_atom_site_fract_x
_atom_site_fract_y
_atom_site_fract_z
Si Si1 0.169946 0.644207 0.403576
Si Si2 0.371483 0.375276 0.219805
Si Si3 0.134397 0.464590 0.861972
Si Si4 0.423173 0.476177 0.450699
Si Si5 0.346010 0.197520 0.421187
O O1 0.500000 0.656410 0.250000
O O2 0.150859 0.589360 0.383297
O O3 0.949579 0.644590 0.597390
O O4 0.051732 0.676685 0.388492
O O5 0.500000 0.380707 0.250000
O O6 0.406110 0.426723 0.157012
O O7 0.569708 0.337715 0.067451
O O8 0.447141 0.484439 0.679345
O O9 0.000000 0.500000 0.000000
O O10 0.910590 0.467034 0.898306
O O11 0.500000 0.500000 0.500000
O O12 0.500000 0.197814 0.250000
O O13 0.250000 0.250000 0.500000
#
# Coordination Sequence:
#
# PCOD9278448 Si02
#       5
#     8   8   8   8   8
#     4  11  23  42  71  98 134 175 231 278 337 399
#     4  10  20  43  65  91 135 176 224 278 335 402
#     4  12  22  40  60  90 130 186 225 267 330 395
#     4  12  24  36  58  92 134 175 225 276 325 389
#     4  11  24  46  76 102 130 174 221 279 349 406
#
# _framework density 19.585450000000002
#
# number of rings (size 3 to 8) (size 9 to 14) (size 15 to 20)
#    0.000    0.800    6.000    4.200    2.800    0.000 
#    0.000    5.000    0.000    0.000    0.000    0.000 
#    0.000    0.000    0.000    0.000    0.000    0.000 
#
# Total GULP energy -111717.420349 kJ/mol
# GULP energy per Si atom -5585.871017 kJ/mol
# Density = 1.954087 g / cm^3
# Si number density = 19.585450 Si / 1000 Ang^3
#
#
#
# Elastic Constant Matrix: (Units=GPa)
#
#
# Indices 1 2 3 4 5 6 
#
# 1 80.6810 40.4226 55.7525 0.0000 -0.6870 0.0000
# 2 40.4226 142.7172 59.2478 0.0000 17.9620 0.0000
# 3 55.7525 59.2478 152.6987 0.0000 -1.3222 0.0000
# 4 0.0000 0.0000 0.0000 37.6898 0.0000 3.5995
# 5 -0.6870 17.9620 -1.3222 0.0000 45.1567 0.0000
# 6 0.0000 0.0000 0.0000 3.5995 0.0000 28.8481
#
#
#
# Elastic Compliance Matrix: (Units=1/GPa)
#
#
# Indices 1 2 3 4 5 6 
#
# 1 0.017498 -0.002944 -0.005235 0.000000 0.001284 0.000000
# 2 -0.002944 0.009411 -0.002610 0.000000 -0.003864 0.000000
# 3 -0.005235 -0.002610 0.009484 0.000000 0.001236 0.000000
# 4 0.000000 0.000000 0.000000 0.026852 0.000000 -0.003351
# 5 0.001284 -0.003864 0.001236 0.000000 0.023738 0.000000
# 6 0.000000 0.000000 0.000000 -0.003351 0.000000 0.035082
#
#
# Mechanical properties :
#
#
# Convention : Reuss Voigt Hill
#
# Bulk Modulus (GPa) = 67.50549 76.32697 71.91623
# Shear Modulus (GPa) = 33.65139 37.05053 35.35096
#
# Velocity S-wave (km/s) = 4.14959 4.35413 4.25309
# Velocity P-wave (km/s) = 7.58293 8.02084 7.80495
#
# Compressibility (1/GPa) = 0.01481361
#
# Stress axis : x y z
#
# Youngs Moduli (GPa) = 57.14826 106.26296 105.44445
#
# Poissons Ratio (x) = 0.31288 0.55204
# Poissons Ratio (y) = 0.16826 0.27519
# Poissons Ratio (z) = 0.29919 0.27733
#
# Static dielectric constant tensor:
#      x y z
#    x 1.627440 0.000000 -0.027140 
#    y 0.000000 1.649800 0.000000 
#    z -0.027140 0.000000 1.721600 
# 
# From -- ./inp_files/51656.got.cif
#   From: 2010.05.17/outbox.cif.g08.bks.cpg/sg15_26_cif.got.tgz:51656.got - 2010.06.03 18:47:42.
