data_PCOD9278629
_publ_section_title
;
Structure prediction by ZEFSAII (Michael W. Deem and Ramdas Pophale) SiO2 
 PCOD9278629
Probable space group: C 2/C
;
_chemical_formula_sum "Si O2"
_cell_formula_units_Z 60
_cell_length_a 25.448949
_cell_length_b 21.129283
_cell_length_c 9.473500
_cell_angle_alpha 90.000000
_cell_angle_beta 37.333349
_cell_angle_gamma 90.000000
_cell_volume 3089.306543
_symmetry_space_group_name_H-M "C 2/C"
_symmetry_group_IT_number 15
_symmetry_cell_setting 'monoclinic'
loop_
_space_group_symop_operation_xyz
x,y,z
-x,y,1/2-z
-x,-y,-z
x,-y,1/2+z
1/2+x,1/2+y,z
1/2-x,1/2+y,1/2-z
1/2-x,1/2-y,-z
1/2+x,1/2-y,1/2+z
loop_
_atom_site_type_symbol
_atom_site_label
_atom_site_fract_x
_atom_site_fract_y
_atom_site_fract_z
Si Si1 0.983582 0.675512 0.449001
Si Si2 0.163919 0.022351 0.938444
Si Si3 0.921965 0.404529 0.511958
Si Si4 0.500000 0.611729 0.250000
Si Si5 0.024746 0.177967 0.906171
Si Si6 0.327004 0.134170 0.952647
Si Si7 0.866247 0.874867 0.564407
Si Si8 0.784451 0.497315 0.941150
O O1 0.011424 0.747649 0.415597
O O2 0.883705 0.667800 0.712000
O O3 0.000000 0.659660 0.250000
O O4 0.037102 0.630968 0.441615
O O5 0.234494 0.041162 0.669405
O O6 0.138778 0.950202 0.951028
O O7 0.212069 0.020353 0.984838
O O8 0.080848 0.066746 0.115825
O O9 0.872673 0.358085 0.507455
O O10 0.854251 0.455872 0.710465
O O11 0.000000 0.432137 0.250000
O O12 0.526692 0.654812 0.061398
O O13 0.942938 0.143292 0.006673
O O14 0.108187 0.156247 0.639184
O O15 0.328138 0.058969 0.916134
O O16 0.225844 0.149481 0.182211
#
# Coordination Sequence:
#
# PCOD9278629 Si02
#       8
#     8   8   8   4   8   8   8   8
#     4  11  25  45  65  91 122 166 222 263 302 373
#     4  11  23  38  65  98 130 161 208 254 314 383
#     4  10  23  42  66  91 128 167 202 260 320 367
#     4  12  24  36  64 102 122 170 210 252 314 376
#     4  11  24  42  64  90 132 167 216 257 308 364
#     4  10  23  40  68  94 128 166 205 257 320 369
#     4  10  20  44  66  89 130 172 199 260 320 367
#     4  11  21  41  63  97 133 158 200 264 315 384
#
# _framework density 19.421832999999999
#
# number of rings (size 3 to 8) (size 9 to 14) (size 15 to 20)
#    0.000    1.333    4.000    3.200    4.667    4.800 
#    0.000    0.667    0.000    0.000    0.000    0.000 
#    0.000    0.000    0.000    0.000    0.000    0.000 
#
# Total GULP energy -167595.283542 kJ/mol
# GULP energy per Si atom -5586.509451 kJ/mol
# Density = 1.937763 g / cm^3
# Si number density = 19.421833 Si / 1000 Ang^3
#
#
#
# Elastic Constant Matrix: (Units=GPa)
#
#
# Indices 1 2 3 4 5 6 
#
# 1 98.6622 16.9182 30.7043 0.0000 20.3904 0.0000
# 2 16.9182 50.0696 46.7085 0.0000 7.6996 0.0000
# 3 30.7043 46.7085 152.7519 0.0000 11.4912 0.0000
# 4 0.0000 0.0000 0.0000 19.1407 0.0000 5.4078
# 5 20.3904 7.6996 11.4912 0.0000 35.9026 0.0000
# 6 0.0000 0.0000 0.0000 5.4078 0.0000 -2.4078
#
#
#
# Elastic Compliance Matrix: (Units=1/GPa)
#
#
# Indices 1 2 3 4 5 6 
#
# 1 0.012144 -0.001848 -0.001421 0.000000 -0.006046 0.000000
# 2 -0.001848 0.028620 -0.008195 0.000000 -0.002466 0.000000
# 3 -0.001421 -0.008195 0.009371 0.000000 -0.000435 0.000000
# 4 0.000000 0.000000 0.000000 0.031963 0.000000 0.071788
# 5 -0.006046 -0.002466 -0.000435 0.000000 0.031955 0.000000
# 6 0.000000 0.000000 0.000000 0.071788 0.000000 -0.254089
#
#
# Mechanical properties :
#
#
# Convention : Reuss Voigt Hill
#
# Bulk Modulus (GPa) = 36.75425 54.46063 45.60744
# Shear Modulus (GPa) = -46.27897 24.33730 -10.97083
#
# Velocity S-wave (km/s) = -4.88672 3.54374 -2.37928
# Velocity P-wave (km/s) = 3.58815 6.69671 3.99820
#
# Compressibility (1/GPa) = 0.02720774
#
# Stress axis : x y z
#
# Youngs Moduli (GPa) = 82.34335 34.94039 106.71601
#
# Poissons Ratio (x) = 0.06457 0.15166
# Poissons Ratio (y) = 0.15217 0.87449
# Poissons Ratio (z) = 0.11703 0.28632
#
# Static dielectric constant tensor:
#      x y z
#    x 1.691270 0.000000 0.004340 
#    y 0.000000 1.643050 0.000000 
#    z 0.004340 0.000000 1.697800 
# 
# From -- ./inp_files/63926.got.cif
#   From: 2010.05.17/outbox.cif.g08.bks.cpg/sg15_32_cif.got.tgz:63926.got - 2010.06.03 18:47:42.
