data_PCOD9278894
_publ_section_title
;
Structure prediction by ZEFSAII (Michael W. Deem and Ramdas Pophale) SiO2 
 PCOD9278894
Probable space group: C 2/C
;
_chemical_formula_sum "Si O2"
_cell_formula_units_Z 56
_cell_length_a 25.066045
_cell_length_b 26.373346
_cell_length_c 5.342705
_cell_angle_alpha 90.000000
_cell_angle_beta 60.079565
_cell_angle_gamma 90.000000
_cell_volume 3061.191591
_symmetry_space_group_name_H-M "C 2/C"
_symmetry_group_IT_number 15
_symmetry_cell_setting 'monoclinic'
loop_
_space_group_symop_operation_xyz
x,y,z
-x,y,1/2-z
-x,-y,-z
x,-y,1/2+z
1/2+x,1/2+y,z
1/2-x,1/2+y,1/2-z
1/2-x,1/2-y,-z
1/2+x,1/2-y,1/2+z
loop_
_atom_site_type_symbol
_atom_site_label
_atom_site_fract_x
_atom_site_fract_y
_atom_site_fract_z
Si Si1 0.803786 0.525277 0.772664
Si Si2 0.299138 0.141908 0.847235
Si Si3 0.071020 0.228627 0.132937
Si Si4 0.655499 0.525167 0.054549
Si Si5 0.334417 0.359899 0.100367
Si Si6 0.375104 0.228512 0.513101
Si Si7 0.769381 0.795377 0.641904
O O1 0.826952 0.510671 0.442169
O O2 0.814700 0.583146 0.828731
O O3 0.729643 0.519323 0.914387
O O4 0.229522 0.145159 0.902985
O O5 0.348374 0.171982 0.568259
O O6 0.290203 0.175805 0.115984
O O7 0.079583 0.263025 0.360003
O O8 0.000000 0.217434 0.250000
O O9 0.110348 0.177811 0.092717
O O10 0.098289 0.253750 0.815353
O O11 0.632250 0.488384 0.886946
O O12 0.645593 0.582276 0.981826
O O13 0.310881 0.340048 0.424765
O O14 0.315253 0.264062 0.712712
O O15 0.750000 0.750000 0.500000
#
# Coordination Sequence:
#
# PCOD9278894 Si02
#       7
#     8   8   8   8   8   8   8
#     4   9  20  31  46  72 111 146 171 205 261 326
#     4  11  20  32  55  80 112 141 181 218 272 320
#     4  11  24  40  55  76 109 145 184 223 268 321
#     4   9  19  31  47  72 103 136 179 220 265 316
#     4  10  21  32  55  76 106 146 181 221 271 321
#     4  11  22  36  56  80 108 141 181 222 265 321
#     4  11  20  31  48  81 113 139 179 223 260 323
#
# _framework density 18.293530000000001
#
# number of rings (size 3 to 8) (size 9 to 14) (size 15 to 20)
#    0.000    1.714    2.857    2.571   10.000    0.000 
#    0.000    0.000    0.000    0.857    0.000    0.000 
#    0.000   11.429    0.000    0.000    0.000    0.000 
#
# Total GULP energy -155966.572434 kJ/mol
# GULP energy per Si atom -5570.234730 kJ/mol
# Density = 1.825189 g / cm^3
# Si number density = 18.293530 Si / 1000 Ang^3
#
#
#
# Elastic Constant Matrix: (Units=GPa)
#
#
# Indices 1 2 3 4 5 6 
#
# 1 65.9412 27.2113 17.7785 0.0000 8.8044 0.0000
# 2 27.2113 105.0599 39.5835 0.0000 15.1704 0.0000
# 3 17.7785 39.5835 55.7040 0.0000 17.5614 0.0000
# 4 0.0000 0.0000 0.0000 16.8763 0.0000 8.3362
# 5 8.8044 15.1704 17.5614 0.0000 26.7535 0.0000
# 6 0.0000 0.0000 0.0000 8.3362 0.0000 17.1136
#
#
#
# Elastic Compliance Matrix: (Units=1/GPa)
#
#
# Indices 1 2 3 4 5 6 
#
# 1 0.017494 -0.003237 -0.002581 0.000000 -0.002227 0.000000
# 2 -0.003237 0.013655 -0.008278 0.000000 -0.001244 0.000000
# 3 -0.002581 -0.008278 0.028889 0.000000 -0.013420 0.000000
# 4 0.000000 0.000000 0.000000 0.078030 0.000000 -0.038009
# 5 -0.002227 -0.001244 -0.013420 0.000000 0.047626 0.000000
# 6 0.000000 0.000000 0.000000 -0.038009 0.000000 0.076948
#
#
# Mechanical properties :
#
#
# Convention : Reuss Voigt Hill
#
# Bulk Modulus (GPa) = 31.40105 43.98352 37.69228
# Shear Modulus (GPa) = 16.58654 21.62414 19.10534
#
# Velocity S-wave (km/s) = 3.01439 3.44185 3.23519
# Velocity P-wave (km/s) = 5.41459 6.31589 5.88253
#
# Compressibility (1/GPa) = 0.03184606
#
# Stress axis : x y z
#
# Youngs Moduli (GPa) = 57.16228 73.23093 34.61520
#
# Poissons Ratio (x) = 0.23705 0.08934
# Poissons Ratio (y) = 0.18504 0.28655
# Poissons Ratio (z) = 0.14753 0.60623
#
# Static dielectric constant tensor:
#      x y z
#    x 1.655860 0.000000 0.064850 
#    y 0.000000 1.636590 0.000000 
#    z 0.064850 0.000000 1.734060 
# 
# From -- ./inp_files/13693.got.cif
#   From: 2010.05.17/outbox.cif.g08.bks.cpg/sg15_7_cif.got.tgz:13693.got - 2010.06.03 18:47:42.
