data_PCOD9278618
_publ_section_title
;
Structure prediction by ZEFSAII (Michael W. Deem and Ramdas Pophale) SiO2 
 PCOD9278618
Probable space group: C 2/C
;
_chemical_formula_sum "Si O2"
_cell_formula_units_Z 48
_cell_length_a 5.613661
_cell_length_b 27.794972
_cell_length_c 13.846337
_cell_angle_alpha 90.000000
_cell_angle_beta 88.683387
_cell_angle_gamma 90.000000
_cell_volume 2159.895042
_symmetry_space_group_name_H-M "C 2/C"
_symmetry_group_IT_number 15
_symmetry_cell_setting 'monoclinic'
loop_
_space_group_symop_operation_xyz
x,y,z
-x,y,1/2-z
-x,-y,-z
x,-y,1/2+z
1/2+x,1/2+y,z
1/2-x,1/2+y,1/2-z
1/2-x,1/2-y,-z
1/2+x,1/2-y,1/2+z
loop_
_atom_site_type_symbol
_atom_site_label
_atom_site_fract_x
_atom_site_fract_y
_atom_site_fract_z
Si Si1 0.000000 0.312393 0.750000
Si Si2 0.500000 0.988470 0.250000
Si Si3 0.119380 0.142973 0.643440
Si Si4 0.633315 0.262188 0.398728
Si Si5 0.500000 0.370790 0.750000
Si Si6 0.127490 0.042271 0.372484
Si Si7 0.500000 0.807663 0.250000
Si Si8 0.735666 0.542828 0.575501
O O1 0.983671 0.279991 0.848120
O O2 0.249390 0.341882 0.756667
O O3 0.565549 0.957932 0.343628
O O4 0.279263 0.021270 0.282963
O O5 0.385095 0.158520 0.669521
O O6 0.092688 0.092205 0.593103
O O7 0.000000 0.139497 0.750000
O O8 0.012982 0.188435 0.588934
O O9 0.750000 0.250000 0.500000
O O10 0.820133 0.274588 0.311363
O O11 0.474805 0.406570 0.658143
O O12 0.304467 0.044173 0.463009
O O13 0.926515 0.003794 0.403348
#
# Coordination Sequence:
#
# PCOD9278618 Si02
#       8
#     4   4   8   8   4   8   4   8
#     4  12  27  50  74 108 149 195 252 303 376 438
#     4  12  20  44  67  96 144 193 232 305 373 422
#     4  10  21  40  67  99 136 177 233 292 366 430
#     4  11  25  45  71 103 139 188 239 312 362 446
#     4  12  27  48  76 102 151 199 244 305 364 450
#     4  11  25  44  67 101 143 185 245 296 362 442
#     4  10  20  44  65  96 142 171 238 293 369 426
#     4  11  24  41  69 103 138 186 238 302 368 445
#
# _framework density 22.223300999999999
#
# number of rings (size 3 to 8) (size 9 to 14) (size 15 to 20)
#    0.000    1.000    4.167    3.000    2.333    3.333 
#    0.000    0.000    0.000    0.000    0.000    0.000 
#    0.000    0.000    0.000    0.000    0.000    0.000 
#
# Total GULP energy -134015.069359 kJ/mol
# GULP energy per Si atom -5583.961223 kJ/mol
# Density = 2.217272 g / cm^3
# Si number density = 22.223301 Si / 1000 Ang^3
#
#
#
# Elastic Constant Matrix: (Units=GPa)
#
#
# Indices 1 2 3 4 5 6 
#
# 1 53.7903 19.2517 7.3919 0.0000 10.0763 0.0000
# 2 19.2517 119.4529 33.0470 0.0000 11.6402 0.0000
# 3 7.3919 33.0470 129.8248 0.0000 39.3792 0.0000
# 4 0.0000 0.0000 0.0000 -9.1315 0.0000 3.1814
# 5 10.0763 11.6402 39.3792 0.0000 35.7835 0.0000
# 6 0.0000 0.0000 0.0000 3.1814 0.0000 29.9605
#
#
#
# Elastic Compliance Matrix: (Units=1/GPa)
#
#
# Indices 1 2 3 4 5 6 
#
# 1 0.020730 -0.003147 0.001622 0.000000 -0.006599 0.000000
# 2 -0.003147 0.009492 -0.002356 0.000000 0.000391 0.000000
# 3 0.001622 -0.002356 0.012183 0.000000 -0.013097 0.000000
# 4 0.000000 0.000000 0.000000 -0.105605 0.000000 0.011214
# 5 -0.006599 0.000391 -0.013097 0.000000 0.044091 0.000000
# 6 0.000000 0.000000 0.000000 0.011214 0.000000 0.032186
#
#
# Mechanical properties :
#
#
# Convention : Reuss Voigt Hill
#
# Bulk Modulus (GPa) = 28.86391 46.93881 37.90136
# Shear Modulus (GPa) = 154.38765 27.54769 90.96767
#
# Velocity S-wave (km/s) = 8.34397 3.52459 6.40487
# Velocity P-wave (km/s) = 10.28812 6.14256 8.47279
#
# Compressibility (1/GPa) = 0.03464534
#
# Stress axis : x y z
#
# Youngs Moduli (GPa) = 48.23875 105.34896 82.08348
#
# Poissons Ratio (x) = 0.33151 -0.13317
# Poissons Ratio (y) = 0.15180 0.19335
# Poissons Ratio (z) = -0.07826 0.24816
#
# Static dielectric constant tensor:
#      x y z
#    x 1.929730 0.000000 0.037240 
#    y 0.000000 1.849420 0.000000 
#    z 0.037240 0.000000 1.825960 
# 
# From -- ./inp_files/130436.got.cif
#   From: 2010.05.17/outbox.cif.g08.bks.cpg/sg15_66_cif.got.tgz:130436.got - 2010.06.03 18:47:42.
