data_PCOD9278412
_publ_section_title
;
Structure prediction by ZEFSAII (Michael W. Deem and Ramdas Pophale) SiO2 
 PCOD9278412
Probable space group: C 2/C
;
_chemical_formula_sum "Si O2"
_cell_formula_units_Z 56
_cell_length_a 13.526744
_cell_length_b 33.750173
_cell_length_c 9.749147
_cell_angle_alpha 90.000000
_cell_angle_beta 36.495472
_cell_angle_gamma 90.000000
_cell_volume 2647.141176
_symmetry_space_group_name_H-M "C 2/C"
_symmetry_group_IT_number 15
_symmetry_cell_setting 'monoclinic'
loop_
_space_group_symop_operation_xyz
x,y,z
-x,y,1/2-z
-x,-y,-z
x,-y,1/2+z
1/2+x,1/2+y,z
1/2-x,1/2+y,1/2-z
1/2-x,1/2-y,-z
1/2+x,1/2-y,1/2+z
loop_
_atom_site_type_symbol
_atom_site_label
_atom_site_fract_x
_atom_site_fract_y
_atom_site_fract_z
Si Si1 0.000000 0.862803 0.750000
Si Si2 0.500000 0.232685 0.750000
Si Si3 0.736518 0.700204 0.872484
Si Si4 0.301535 0.794707 0.983069
Si Si5 0.124068 0.922214 0.395074
Si Si6 0.696224 0.119165 0.066702
Si Si7 0.142140 0.949535 0.982417
Si Si8 0.884601 0.520331 0.745148
O O1 0.155732 0.833987 0.554301
O O2 0.019773 0.890785 0.598412
O O3 0.632556 0.260778 0.527769
O O4 0.420527 0.206664 0.720662
O O5 0.739431 0.696281 0.706752
O O6 0.500000 0.794082 0.750000
O O7 0.249622 0.835412 0.962928
O O8 0.250000 0.750000 0.000000
O O9 0.274535 0.943236 0.309994
O O10 0.975099 0.952760 0.519922
O O11 0.210884 0.898942 0.171349
O O12 0.500000 0.118465 0.250000
O O13 0.740281 0.089186 0.141393
O O14 0.000000 0.941880 0.250000
O O15 0.248027 0.986083 0.919110
O O16 0.000000 0.528253 0.750000
O O17 0.000000 0.500000 0.500000
#
# Coordination Sequence:
#
# PCOD9278412 Si02
#       8
#     4   4   8   8   8   8   8   8
#     4  11  24  42  62  90 140 172 216 280 332 412
#     4   9  20  38  68  86 122 176 214 272 338 402
#     4  10  20  43  61  93 129 169 223 275 341 399
#     4  11  23  39  63  95 127 167 221 279 325 394
#     4  11  24  42  66  98 135 175 227 271 343 412
#     4  10  21  44  66  95 133 173 219 283 341 400
#     4  10  22  42  69  95 128 175 217 274 338 404
#     4  12  26  44  70 101 136 177 226 284 341 414
#
# _framework density 21.154896000000001
#
# number of rings (size 3 to 8) (size 9 to 14) (size 15 to 20)
#    0.000    1.429    1.429    4.286    3.000    1.714 
#   14.143    0.000    0.000    0.000    0.000    0.000 
#    0.000    0.000    0.000    0.000    0.000    0.000 
#
# Total GULP energy -155942.038919 kJ/mol
# GULP energy per Si atom -5569.358533 kJ/mol
# Density = 2.110675 g / cm^3
# Si number density = 21.154896 Si / 1000 Ang^3
#
#
#
# Elastic Constant Matrix: (Units=GPa)
#
#
# Indices 1 2 3 4 5 6 
#
# 1 91.4931 40.3204 23.3771 0.0000 -18.6298 0.0000
# 2 40.3204 130.3289 18.9160 0.0000 -15.9299 0.0000
# 3 23.3771 18.9160 72.8020 0.0000 -3.2207 0.0000
# 4 0.0000 0.0000 0.0000 7.0064 0.0000 15.3794
# 5 -18.6298 -15.9299 -3.2207 0.0000 28.1608 0.0000
# 6 0.0000 0.0000 0.0000 15.3794 0.0000 19.0009
#
#
#
# Elastic Compliance Matrix: (Units=1/GPa)
#
#
# Indices 1 2 3 4 5 6 
#
# 1 0.014770 -0.003119 -0.003596 0.000000 0.007595 0.000000
# 2 -0.003119 0.009185 -0.001253 0.000000 0.002989 0.000000
# 3 -0.003596 -0.001253 0.015156 0.000000 -0.001354 0.000000
# 4 0.000000 0.000000 0.000000 -0.183762 0.000000 0.148738
# 5 0.007595 0.002989 -0.001354 0.000000 0.042071 0.000000
# 6 0.000000 0.000000 0.000000 0.148738 0.000000 -0.067761
#
#
# Mechanical properties :
#
#
# Convention : Reuss Voigt Hill
#
# Bulk Modulus (GPa) = 43.15000 51.09454 47.12227
# Shear Modulus (GPa) = -34.08776 24.96767 -4.56005
#
# Velocity S-wave (km/s) = -4.01851 3.43918 -1.46977
# Velocity P-wave (km/s) = 1.04391 6.32263 4.40941
#
# Compressibility (1/GPa) = 0.02317497
#
# Stress axis : x y z
#
# Youngs Moduli (GPa) = 67.70602 108.87289 65.97947
#
# Poissons Ratio (x) = 0.33958 0.23728
# Poissons Ratio (y) = 0.21118 0.08266
# Poissons Ratio (z) = 0.24348 0.13639
#
# Static dielectric constant tensor:
#      x y z
#    x 1.865570 0.000000 -0.042430 
#    y 0.000000 3.892670 0.000000 
#    z -0.042430 0.000000 2.081130 
# 
# From -- ./inp_files/101783.got.cif
#   From: 2010.05.17/outbox.cif.g08.bks.cpg/sg15_51_cif.got.tgz:101783.got - 2010.06.03 18:47:42.
