data_PCOD9278127
_publ_section_title
;
Structure prediction by ZEFSAII (Michael W. Deem and Ramdas Pophale) SiO2 
 PCOD9278127
Probable space group: C 2/C
;
_chemical_formula_sum "Si O2"
_cell_formula_units_Z 56
_cell_length_a 12.840068
_cell_length_b 12.277385
_cell_length_c 18.164521
_cell_angle_alpha 90.000000
_cell_angle_beta 67.657884
_cell_angle_gamma 90.000000
_cell_volume 2648.538377
_symmetry_space_group_name_H-M "C 2/C"
_symmetry_group_IT_number 15
_symmetry_cell_setting 'monoclinic'
loop_
_space_group_symop_operation_xyz
x,y,z
-x,y,1/2-z
-x,-y,-z
x,-y,1/2+z
1/2+x,1/2+y,z
1/2-x,1/2+y,1/2-z
1/2-x,1/2-y,-z
1/2+x,1/2-y,1/2+z
loop_
_atom_site_type_symbol
_atom_site_label
_atom_site_fract_x
_atom_site_fract_y
_atom_site_fract_z
Si Si1 0.100478 0.234445 0.936429
Si Si2 0.358235 0.726048 0.019013
Si Si3 0.850682 0.604916 0.653828
Si Si4 0.835658 0.990912 0.001414
Si Si5 0.383647 0.514704 0.316675
Si Si6 0.403706 0.906930 0.431097
Si Si7 0.333798 0.765459 0.307934
O O1 0.111792 0.327707 0.994982
O O2 0.973480 0.244265 0.943428
O O3 0.122437 0.118967 0.971278
O O4 0.198938 0.244199 0.851646
O O5 0.352677 0.802200 0.091031
O O6 0.364748 0.599009 0.038230
O O7 0.250000 0.750000 0.000000
O O8 0.733827 0.539435 0.679174
O O9 0.860282 0.665225 0.729078
O O10 0.970595 0.544511 0.607557
O O11 0.699584 0.989194 0.034701
O O12 0.882253 0.996886 0.905813
O O13 0.500000 0.470587 0.250000
O O14 0.377881 0.642689 0.298326
O O15 0.379677 0.831321 0.366356
#
# Coordination Sequence:
#
# PCOD9278127 Si02
#       7
#     8   8   8   8   8   8   8
#     4  10  21  39  68  93 120 166 213 257 309 371
#     4  11  24  40  60  91 130 167 208 253 313 378
#     4  11  26  40  62  93 128 167 201 260 326 371
#     4  11  21  41  67  94 121 165 215 262 302 375
#     4  12  25  40  64  94 129 165 209 261 320 373
#     4  10  20  42  66  93 119 160 218 258 304 370
#     4  11  22  42  66  94 125 161 209 267 315 368
#
# _framework density 21.143737999999999
#
# number of rings (size 3 to 8) (size 9 to 14) (size 15 to 20)
#    0.000    1.143    4.286    2.571    4.000    4.000 
#    0.000    0.000    0.000    0.000    0.000    0.000 
#    0.000    0.000    0.000    0.000    0.000    0.000 
#
# Total GULP energy -156506.839313 kJ/mol
# GULP energy per Si atom -5589.529975 kJ/mol
# Density = 2.109561 g / cm^3
# Si number density = 21.143738 Si / 1000 Ang^3
#
#
#
# Elastic Constant Matrix: (Units=GPa)
#
#
# Indices 1 2 3 4 5 6 
#
# 1 102.7985 6.5063 37.5031 0.0000 -50.9062 0.0000
# 2 6.5063 57.8836 9.1102 0.0000 -13.7339 0.0000
# 3 37.5031 9.1102 93.4154 0.0000 -39.2392 0.0000
# 4 0.0000 0.0000 0.0000 16.0777 0.0000 -1.3686
# 5 -50.9062 -13.7339 -39.2392 0.0000 47.2178 0.0000
# 6 0.0000 0.0000 0.0000 -1.3686 0.0000 24.1348
#
#
#
# Elastic Compliance Matrix: (Units=1/GPa)
#
#
# Indices 1 2 3 4 5 6 
#
# 1 0.021645 0.003413 0.001838 0.000000 0.025857 0.000000
# 2 0.003413 0.019125 0.000994 0.000000 0.010068 0.000000
# 3 0.001838 0.000994 0.016628 0.000000 0.016090 0.000000
# 4 0.000000 0.000000 0.000000 0.062500 0.000000 0.003544
# 5 0.025857 0.010068 0.016090 0.000000 0.065354 0.000000
# 6 0.000000 0.000000 0.000000 0.003544 0.000000 0.041635
#
#
# Mechanical properties :
#
#
# Convention : Reuss Voigt Hill
#
# Bulk Modulus (GPa) = 14.30858 40.03739 27.17298
# Shear Modulus (GPa) = 21.03546 30.88458 25.96002
#
# Velocity S-wave (km/s) = 3.15759 3.82605 3.50778
# Velocity P-wave (km/s) = 4.48061 6.20445 5.41161
#
# Compressibility (1/GPa) = 0.06988815
#
# Stress axis : x y z
#
# Youngs Moduli (GPa) = 46.19928 52.28812 60.13805
#
# Poissons Ratio (x) = -0.17844 -0.11056
# Poissons Ratio (y) = -0.15766 -0.05977
# Poissons Ratio (z) = -0.08493 -0.05196
#
# Static dielectric constant tensor:
#      x y z
#    x 1.833900 0.000000 -0.038070 
#    y 0.000000 1.763150 0.000000 
#    z -0.038070 0.000000 1.743120 
# 
# From -- ./inp_files/198230.got.cif
#   From: 2010.05.17/outbox.cif.g08.bks.cpg/sg15_100_cif.got.tgz:198230.got - 2010.06.03 18:47:42.
