data_PCOD9278291
_publ_section_title
;
Structure prediction by ZEFSAII (Michael W. Deem and Ramdas Pophale) SiO2 
 PCOD9278291
Probable space group: C 2/C
;
_chemical_formula_sum "Si O2"
_cell_formula_units_Z 40
_cell_length_a 17.154268
_cell_length_b 7.678712
_cell_length_c 25.406650
_cell_angle_alpha 90.000000
_cell_angle_beta 30.260578
_cell_angle_gamma 90.000000
_cell_volume 1686.479871
_symmetry_space_group_name_H-M "C 2/C"
_symmetry_group_IT_number 15
_symmetry_cell_setting 'monoclinic'
loop_
_space_group_symop_operation_xyz
x,y,z
-x,y,1/2-z
-x,-y,-z
x,-y,1/2+z
1/2+x,1/2+y,z
1/2-x,1/2+y,1/2-z
1/2-x,1/2-y,-z
1/2+x,1/2-y,1/2+z
loop_
_atom_site_type_symbol
_atom_site_label
_atom_site_fract_x
_atom_site_fract_y
_atom_site_fract_z
Si Si1 0.155113 0.202169 0.608335
Si Si2 0.417887 0.517197 0.603830
Si Si3 0.080964 0.837093 0.608273
Si Si4 0.939212 0.504157 0.197411
Si Si5 0.462219 0.112218 0.470802
O O1 0.250000 0.250000 0.500000
O O2 0.288646 0.191267 0.574211
O O3 0.023772 0.348128 0.682047
O O4 0.092389 0.008432 0.637519
O O5 0.500000 0.500000 0.500000
O O6 0.508743 0.412384 0.595957
O O7 0.240929 0.461684 0.703816
O O8 0.427258 0.724931 0.606794
O O9 0.250000 0.750000 0.500000
O O10 0.973900 0.690026 0.696843
O O11 0.017397 0.498587 0.093600
O O12 0.500000 0.000000 0.500000
#
# Coordination Sequence:
#
# PCOD9278291 Si02
#       5
#     8   8   8   8   8
#     4  10  20  42  70 100 139 180 225 286 360 420
#     4  12  26  43  70 102 141 187 240 289 343 415
#     4  12  21  41  75 100 135 184 226 286 360 418
#     4  11  23  45  73 100 142 184 233 287 356 423
#     4  11  22  43  72 105 141 181 233 293 355 423
#
# _framework density 23.718039999999998
#
# number of rings (size 3 to 8) (size 9 to 14) (size 15 to 20)
#    0.000    0.800    8.000    2.400    0.000    0.000 
#    3.600    4.000    8.800    0.000    0.000    0.000 
#    0.000    0.000    0.000    0.000    0.000    0.000 
#
# Total GULP energy -111882.978915 kJ/mol
# GULP energy per Si atom -5594.148946 kJ/mol
# Density = 2.366406 g / cm^3
# Si number density = 23.718040 Si / 1000 Ang^3
#
#
#
# Elastic Constant Matrix: (Units=GPa)
#
#
# Indices 1 2 3 4 5 6 
#
# 1 165.1834 74.6197 76.3359 0.0011 -33.7785 0.0000
# 2 74.6197 176.1816 35.7774 0.0023 -20.5252 -0.0005
# 3 76.3359 35.7774 102.2398 0.0001 -31.3497 -0.0007
# 4 0.0011 0.0023 0.0001 -1.1057 -0.0006 -27.1487
# 5 -33.7785 -20.5252 -31.3497 -0.0006 45.3328 0.0005
# 6 0.0000 -0.0005 -0.0007 -27.1487 0.0005 50.2604
#
#
#
# Elastic Compliance Matrix: (Units=1/GPa)
#
#
# Indices 1 2 3 4 5 6 
#
# 1 0.010807 -0.003027 -0.006296 0.000000 0.002328 0.000000
# 2 -0.003027 0.007055 0.000101 0.000001 0.001008 0.000000
# 3 -0.006296 0.000101 0.016526 -0.000001 0.006783 0.000000
# 4 0.000000 0.000001 -0.000001 -0.063410 0.000000 -0.034252
# 5 0.002328 0.001008 0.006783 0.000000 0.028941 0.000000
# 6 0.000000 0.000000 0.000000 -0.034252 0.000000 0.001395
#
#
# Mechanical properties :
#
#
# Convention : Reuss Voigt Hill
#
# Bulk Modulus (GPa) = 62.72138 90.78565 76.75351
# Shear Modulus (GPa) = 199.41210 36.02227 117.71719
#
# Velocity S-wave (km/s) = 9.17925 3.90137 7.05264
# Velocity P-wave (km/s) = 11.78333 7.65861 9.93733
#
# Compressibility (1/GPa) = 0.01594353
#
# Stress axis : x y z
#
# Youngs Moduli (GPa) = 92.53304 141.73891 60.51029
#
# Poissons Ratio (x) = 0.42911 0.38095
# Poissons Ratio (y) = 0.28014 -0.00609
# Poissons Ratio (z) = 0.58255 -0.01427
#
# Static dielectric constant tensor:
#      x y z
#    x 1.946280 0.000000 0.029530 
#    y 0.000000 2.179990 0.000000 
#    z 0.029530 0.000000 1.940190 
# 
# From -- ./inp_files/298284.got.cif
#   From: 2010.05.17/outbox.cif.g08.bks.cpg/sg15_150_cif.got.tgz:298284.got - 2010.06.03 18:47:42.
