data_PCOD9278755
_publ_section_title
;
Structure prediction by ZEFSAII (Michael W. Deem and Ramdas Pophale) SiO2 
 PCOD9278755
Probable space group: C 2/C
;
_chemical_formula_sum "Si O2"
_cell_formula_units_Z 56
_cell_length_a 30.492582
_cell_length_b 12.331007
_cell_length_c 14.384631
_cell_angle_alpha 90.000000
_cell_angle_beta 28.085671
_cell_angle_gamma 90.000000
_cell_volume 2546.360328
_symmetry_space_group_name_H-M "C 2/C"
_symmetry_group_IT_number 15
_symmetry_cell_setting 'monoclinic'
loop_
_space_group_symop_operation_xyz
x,y,z
-x,y,1/2-z
-x,-y,-z
x,-y,1/2+z
1/2+x,1/2+y,z
1/2-x,1/2+y,1/2-z
1/2-x,1/2-y,-z
1/2+x,1/2-y,1/2+z
loop_
_atom_site_type_symbol
_atom_site_label
_atom_site_fract_x
_atom_site_fract_y
_atom_site_fract_z
Si Si1 0.784366 0.217656 0.686219
Si Si2 0.489126 0.374221 0.383387
Si Si3 0.860209 0.682551 0.690515
Si Si4 0.406599 0.815780 0.300773
Si Si5 0.539101 0.617527 0.071824
Si Si6 0.170409 0.746363 0.071677
Si Si7 0.970105 0.558276 0.200619
O O1 0.722918 0.155699 0.724258
O O2 0.851408 0.292551 0.498924
O O3 0.852343 0.144060 0.620893
O O4 0.716984 0.274410 0.885491
O O5 0.500000 0.367105 0.250000
O O6 0.404777 0.296747 0.573332
O O7 0.475493 0.497865 0.439125
O O8 0.584281 0.327021 0.248642
O O9 0.838408 0.682914 0.839990
O O10 0.944241 0.597641 0.521736
O O11 0.480823 0.719434 0.141873
O O12 0.454633 0.931256 0.221371
O O13 0.500000 0.610769 0.250000
O O14 0.121084 0.628476 0.154292
O O15 0.250000 0.750000 0.000000
O O16 0.000000 0.587188 0.250000
#
# Coordination Sequence:
#
# PCOD9278755 Si02
#       7
#     8   8   8   8   8   8   8
#     4  11  22  45  65 100 137 169 228 281 328 403
#     4  10  20  45  70  92 133 182 223 278 342 396
#     4  11  22  42  70  98 133 178 227 278 341 409
#     4  11  25  44  65  99 138 180 218 281 349 405
#     4   9  22  42  64  95 135 179 219 269 343 397
#     4  11  24  44  70 102 127 173 236 280 328 405
#     4  11  22  47  70  93 138 183 226 279 348 405
#
# _framework density 21.992173999999999
#
# number of rings (size 3 to 8) (size 9 to 14) (size 15 to 20)
#    0.000    1.429    2.857    3.000    4.000    1.714 
#   18.000    0.000    0.000    0.000    0.000    0.000 
#    0.000    0.000    0.000    0.000    0.000    0.000 
#
# Total GULP energy -156532.063572 kJ/mol
# GULP energy per Si atom -5590.430842 kJ/mol
# Density = 2.194212 g / cm^3
# Si number density = 21.992174 Si / 1000 Ang^3
#
#
#
# Elastic Constant Matrix: (Units=GPa)
#
#
# Indices 1 2 3 4 5 6 
#
# 1 113.2692 5.0519 6.3333 0.0000 -10.5138 0.0000
# 2 5.0519 127.0935 45.0240 0.0000 1.1085 0.0000
# 3 6.3333 45.0240 47.3421 0.0000 -17.1575 0.0000
# 4 0.0000 0.0000 0.0000 3.4395 0.0000 -5.3992
# 5 -10.5138 1.1085 -17.1575 0.0000 34.6146 0.0000
# 6 0.0000 0.0000 0.0000 -5.3992 0.0000 18.2349
#
#
#
# Elastic Compliance Matrix: (Units=1/GPa)
#
#
# Indices 1 2 3 4 5 6 
#
# 1 0.009106 -0.000504 0.000328 0.000000 0.002945 0.000000
# 2 -0.000504 0.013618 -0.015966 0.000000 -0.008503 0.000000
# 3 0.000328 -0.015966 0.044474 0.000000 0.022655 0.000000
# 4 0.000000 0.000000 0.000000 0.543222 0.000000 0.160843
# 5 0.002945 -0.008503 0.022655 0.000000 0.041286 0.000000
# 6 0.000000 0.000000 0.000000 0.160843 0.000000 0.102464
#
#
# Mechanical properties :
#
#
# Convention : Reuss Voigt Hill
#
# Bulk Modulus (GPa) = 28.64092 44.50259 36.57175
# Shear Modulus (GPa) = 6.26495 26.67754 16.47124
#
# Velocity S-wave (km/s) = 1.68965 3.48666 2.73968
# Velocity P-wave (km/s) = 4.10585 6.04058 5.16462
#
# Compressibility (1/GPa) = 0.03491508
#
# Stress axis : x y z
#
# Youngs Moduli (GPa) = 109.81801 73.42983 22.48528
#
# Poissons Ratio (x) = 0.03700 -0.00738
# Poissons Ratio (y) = 0.05534 0.35900
# Poissons Ratio (z) = -0.03605 1.17237
#
# Static dielectric constant tensor:
#      x y z
#    x 1.865280 0.000000 0.021800 
#    y 0.000000 1.786270 0.000000 
#    z 0.021800 0.000000 1.847650 
# 
# From -- ./inp_files/181911.got.cif
#   From: 2010.05.17/outbox.cif.g08.bks.cpg/sg15_91_cif.got.tgz:181911.got - 2010.06.03 18:47:42.
