data_PCOD9278788
_publ_section_title
;
Structure prediction by ZEFSAII (Michael W. Deem and Ramdas Pophale) SiO2 
 PCOD9278788
Probable space group: C 2/C
;
_chemical_formula_sum "Si O2"
_cell_formula_units_Z 52
_cell_length_a 24.900868
_cell_length_b 7.641083
_cell_length_c 18.894474
_cell_angle_alpha 90.000000
_cell_angle_beta 41.528990
_cell_angle_gamma 90.000000
_cell_volume 2383.510261
_symmetry_space_group_name_H-M "C 2/C"
_symmetry_group_IT_number 15
_symmetry_cell_setting 'monoclinic'
loop_
_space_group_symop_operation_xyz
x,y,z
-x,y,1/2-z
-x,-y,-z
x,-y,1/2+z
1/2+x,1/2+y,z
1/2-x,1/2+y,1/2-z
1/2-x,1/2-y,-z
1/2+x,1/2-y,1/2+z
loop_
_atom_site_type_symbol
_atom_site_label
_atom_site_fract_x
_atom_site_fract_y
_atom_site_fract_z
Si Si1 0.161926 0.369636 0.289092
Si Si2 0.562469 0.604334 0.589324
Si Si3 0.828513 0.222361 0.375321
Si Si4 0.000000 0.186058 0.250000
Si Si5 0.665819 0.308392 0.117614
Si Si6 0.418293 0.207749 0.157979
Si Si7 0.839052 0.000097 0.137617
O O1 0.179186 0.315333 0.191590
O O2 0.091309 0.513018 0.362243
O O3 0.244188 0.456403 0.237346
O O4 0.143813 0.188921 0.345766
O O5 0.511588 0.442149 0.671223
O O6 0.600161 0.703295 0.619434
O O7 0.504664 0.729150 0.601334
O O8 0.631929 0.520800 0.471846
O O9 0.750000 0.250000 0.500000
O O10 0.914437 0.281774 0.324681
O O11 0.832322 0.012806 0.363726
O O12 0.640109 0.212822 0.214812
O O13 0.750000 0.250000 0.000000
O O14 0.387363 0.349208 0.131392
#
# Coordination Sequence:
#
# PCOD9278788 Si02
#       7
#     8   8   8   4   8   8   8
#     4  12  25  44  68 101 138 185 236 292 349 425
#     4  11  22  43  71  99 138 187 226 292 369 416
#     4  11  22  42  70 106 140 183 236 287 357 426
#     4  10  20  46  70 102 148 180 228 300 360 422
#     4  11  22  42  73 102 138 184 229 290 356 417
#     4  12  23  45  70  97 142 180 230 295 346 424
#     4  12  25  44  71 100 139 186 238 287 358 426
#
# _framework density 21.816562999999999
#
# number of rings (size 3 to 8) (size 9 to 14) (size 15 to 20)
#    0.000    0.615    6.154    4.154    0.000    0.615 
#    5.538    0.000    0.000    0.000    0.000    0.000 
#    0.000    0.000    0.000    0.000    0.000    0.000 
#
# Total GULP energy -145450.515926 kJ/mol
# GULP energy per Si atom -5594.250613 kJ/mol
# Density = 2.176691 g / cm^3
# Si number density = 21.816563 Si / 1000 Ang^3
#
#
#
# Elastic Constant Matrix: (Units=GPa)
#
#
# Indices 1 2 3 4 5 6 
#
# 1 85.9617 35.6624 -5.8791 -0.0030 -10.8437 -0.0019
# 2 35.6624 97.3808 -0.8485 0.0013 9.6035 0.0090
# 3 -5.8791 -0.8485 83.8351 -0.0070 2.2509 0.0058
# 4 -0.0030 0.0013 -0.0070 16.4523 0.0096 -1.0455
# 5 -10.8437 9.6035 2.2509 0.0096 34.7544 -0.0064
# 6 -0.0019 0.0090 0.0058 -1.0455 -0.0064 31.0927
#
#
#
# Elastic Compliance Matrix: (Units=1/GPa)
#
#
# Indices 1 2 3 4 5 6 
#
# 1 0.015026 -0.006119 0.000822 0.000000 0.006326 0.000004
# 2 -0.006119 0.013052 -0.000149 0.000001 -0.005506 -0.000005
# 3 0.000822 -0.000149 0.011997 0.000005 -0.000479 -0.000002
# 4 0.000000 0.000001 0.000005 0.060912 -0.000017 0.002048
# 5 0.006326 -0.005506 -0.000479 -0.000017 0.032300 0.000008
# 6 0.000004 -0.000005 -0.000002 0.002048 0.000008 0.032231
#
#
# Mechanical properties :
#
#
# Convention : Reuss Voigt Hill
#
# Bulk Modulus (GPa) = 34.26833 36.11638 35.19235
# Shear Modulus (GPa) = 26.86180 32.34273 29.60227
#
# Velocity S-wave (km/s) = 3.51273 3.85448 3.68757
# Velocity P-wave (km/s) = 5.67397 6.03323 5.85636
#
# Compressibility (1/GPa) = 0.02918146
#
# Stress axis : x y z
#
# Youngs Moduli (GPa) = 66.55115 76.61833 83.35298
#
# Poissons Ratio (x) = 0.46886 -0.06851
# Poissons Ratio (y) = 0.40726 0.01244
# Poissons Ratio (z) = -0.05470 0.01143
#
# Static dielectric constant tensor:
#      x y z
#    x 1.616850 -0.000130 -0.213680 
#    y -0.000130 1.799130 -0.000140 
#    z -0.213680 -0.000140 1.597930 
# 
# From -- ./inp_files/256977.got.cif
#   From: 2010.05.17/outbox.cif.g08.bks.cpg/sg15_129_cif.got.tgz:256977.got - 2010.06.03 18:47:42.
