data_PCOD9278424
_publ_section_title
;
Structure prediction by ZEFSAII (Michael W. Deem and Ramdas Pophale) SiO2 
 PCOD9278424
Probable space group: C 2/C
;
_chemical_formula_sum "Si O2"
_cell_formula_units_Z 60
_cell_length_a 20.041004
_cell_length_b 18.524757
_cell_length_c 14.831961
_cell_angle_alpha 90.000000
_cell_angle_beta 32.727722
_cell_angle_gamma 90.000000
_cell_volume 2977.040202
_symmetry_space_group_name_H-M "C 2/C"
_symmetry_group_IT_number 15
_symmetry_cell_setting 'monoclinic'
loop_
_space_group_symop_operation_xyz
x,y,z
-x,y,1/2-z
-x,-y,-z
x,-y,1/2+z
1/2+x,1/2+y,z
1/2-x,1/2+y,1/2-z
1/2-x,1/2-y,-z
1/2+x,1/2-y,1/2+z
loop_
_atom_site_type_symbol
_atom_site_label
_atom_site_fract_x
_atom_site_fract_y
_atom_site_fract_z
Si Si1 0.865434 0.086603 0.082389
Si Si2 0.563238 0.895179 0.561436
Si Si3 0.273366 0.323012 0.421322
Si Si4 0.895089 0.661229 0.111357
Si Si5 0.500000 0.594394 0.750000
Si Si6 0.078187 0.822402 0.434776
Si Si7 0.530784 0.056969 0.815419
Si Si8 0.752602 0.934817 0.189526
O O1 0.747090 0.139919 0.207895
O O2 0.806608 0.008659 0.170824
O O3 0.948220 0.062236 0.901698
O O4 0.957609 0.132663 0.040777
O O5 0.644668 0.864553 0.550275
O O6 0.463142 0.842649 0.630771
O O7 0.657163 0.907193 0.372333
O O8 0.506713 0.973272 0.641897
O O9 0.250000 0.250000 0.500000
O O10 0.377995 0.363536 0.358246
O O11 0.335374 0.314573 0.252540
O O12 0.929647 0.738694 0.029212
O O13 0.950205 0.600599 0.980869
O O14 0.144701 0.873054 0.431933
O O15 0.500000 0.084928 0.750000
O O16 0.672690 0.057246 0.689237
#
# Coordination Sequence:
#
# PCOD9278424 Si02
#       8
#     8   8   8   8   4   8   8   8
#     4  11  21  40  64  88 127 168 205 246 312 370
#     4  10  21  39  64  92 118 163 211 243 307 384
#     4  10  22  37  56  88 135 158 196 248 311 369
#     4  11  22  41  66  91 120 165 211 249 314 368
#     4  10  24  36  52  94 128 156 200 254 296 366
#     4  10  24  36  64  90 119 170 207 251 305 380
#     4  11  23  40  63  94 119 157 210 268 300 357
#     4  10  20  43  63  88 121 161 213 254 300 378
#
# _framework density 20.154246000000001
#
# number of rings (size 3 to 8) (size 9 to 14) (size 15 to 20)
#    0.000    1.600    2.667    2.000   11.200    1.067 
#    0.000    0.667    1.467    0.000    0.000    0.000 
#    0.000    0.000    0.000    0.000    0.000    0.000 
#
# Total GULP energy -167139.040359 kJ/mol
# GULP energy per Si atom -5571.301345 kJ/mol
# Density = 2.010837 g / cm^3
# Si number density = 20.154246 Si / 1000 Ang^3
#
#
#
# Elastic Constant Matrix: (Units=GPa)
#
#
# Indices 1 2 3 4 5 6 
#
# 1 125.3403 64.3065 42.7088 0.0001 -32.6622 -0.0001
# 2 64.3065 112.9456 12.8362 0.0000 -35.6120 -0.0001
# 3 42.7088 12.8362 55.5447 0.0001 -27.5901 -0.0002
# 4 0.0001 0.0000 0.0001 13.4081 -0.0001 8.2448
# 5 -32.6622 -35.6120 -27.5901 -0.0001 34.2335 0.0001
# 6 -0.0001 -0.0001 -0.0002 8.2448 0.0001 -14.3989
#
#
#
# Elastic Compliance Matrix: (Units=1/GPa)
#
#
# Indices 1 2 3 4 5 6 
#
# 1 0.015423 -0.008605 -0.011685 0.000000 -0.003655 0.000000
# 2 -0.008605 0.019434 0.013489 0.000000 0.022877 0.000000
# 3 -0.011685 0.013489 0.042195 0.000000 0.036890 0.000000
# 4 0.000000 0.000000 0.000000 0.055160 0.000000 0.031585
# 5 -0.003655 0.022877 0.036890 0.000000 0.079254 0.000000
# 6 0.000000 0.000000 0.000000 0.031585 0.000000 -0.051365
#
#
# Mechanical properties :
#
#
# Convention : Reuss Voigt Hill
#
# Bulk Modulus (GPa) = 15.76080 59.28152 37.52116
# Shear Modulus (GPa) = 25.66040 18.24716 21.95378
#
# Velocity S-wave (km/s) = 3.57206 3.01221 3.30402
# Velocity P-wave (km/s) = 4.98497 6.44792 5.76305
#
# Compressibility (1/GPa) = 0.06344857
#
# Stress axis : x y z
#
# Youngs Moduli (GPa) = 64.84009 51.45751 23.69938
#
# Poissons Ratio (x) = 0.44281 0.27693
# Poissons Ratio (y) = 0.55797 -0.31969
# Poissons Ratio (z) = 0.75767 -0.69412
#
# Static dielectric constant tensor:
#      x y z
#    x 1.747020 0.000000 0.011790 
#    y 0.000000 1.856330 0.000000 
#    z 0.011790 0.000000 1.770790 
# 
# From -- ./inp_files/163244.got.cif
#   From: 2010.05.17/outbox.cif.g08.bks.cpg/sg15_82_cif.got.tgz:163244.got - 2010.06.03 18:47:42.
