data_PCOD9278397
_publ_section_title
;
Structure prediction by ZEFSAII (Michael W. Deem and Ramdas Pophale) SiO2 
 PCOD9278397
Probable space group: C 2/C
;
_chemical_formula_sum "Si O2"
_cell_formula_units_Z 56
_cell_length_a 12.223312
_cell_length_b 29.646089
_cell_length_c 9.646492
_cell_angle_alpha 90.000000
_cell_angle_beta 52.461931
_cell_angle_gamma 90.000000
_cell_volume 2771.856849
_symmetry_space_group_name_H-M "C 2/C"
_symmetry_group_IT_number 15
_symmetry_cell_setting 'monoclinic'
loop_
_space_group_symop_operation_xyz
x,y,z
-x,y,1/2-z
-x,-y,-z
x,-y,1/2+z
1/2+x,1/2+y,z
1/2-x,1/2+y,1/2-z
1/2-x,1/2-y,-z
1/2+x,1/2-y,1/2+z
loop_
_atom_site_type_symbol
_atom_site_label
_atom_site_fract_x
_atom_site_fract_y
_atom_site_fract_z
Si Si1 0.886507 0.629556 0.225044
Si Si2 0.876188 0.312778 0.455091
Si Si3 0.500000 0.428970 0.250000
Si Si4 0.379933 0.976443 0.679751
Si Si5 0.095188 0.790150 0.540422
Si Si6 0.000000 0.083226 0.250000
Si Si7 0.707551 0.509252 0.053555
Si Si8 0.930017 0.863869 0.534980
O O1 0.907440 0.575784 0.189656
O O2 0.727984 0.638412 0.393735
O O3 0.000000 0.645040 0.250000
O O4 0.896539 0.653591 0.067510
O O5 0.870539 0.261642 0.520314
O O6 0.733446 0.316591 0.479175
O O7 0.000000 0.317025 0.250000
O O8 0.626346 0.462226 0.119905
O O9 0.515069 0.396490 0.369122
O O10 0.500000 0.000000 0.500000
O O11 0.250357 0.979180 0.676409
O O12 0.335481 0.002683 0.852381
O O13 0.000000 0.787709 0.750000
O O14 0.008326 0.816685 0.492795
O O15 0.929400 0.113876 0.188431
O O16 0.893541 0.049785 0.409332
#
# Coordination Sequence:
#
# PCOD9278397 Si02
#       8
#     8   8   4   8   8   4   8   8
#     4  12  25  45  63  94 140 180 218 277 341 405
#     4  10  23  43  71 104 132 171 220 281 337 405
#     4  11  24  38  62  96 138 168 216 286 337 390
#     4  12  25  42  63  89 133 184 218 265 332 396
#     4  10  20  42  75 100 131 167 225 281 336 399
#     4  11  20  38  70  94 118 164 228 280 321 380
#     4  11  22  41  61  94 128 168 225 276 325 387
#     4  12  22  42  68  97 129 177 222 279 339 398
#
# _framework density 20.203063
#
# number of rings (size 3 to 8) (size 9 to 14) (size 15 to 20)
#    0.000    0.857    5.000    2.143    0.000    4.571 
#    1.286    0.714    0.000    0.000    0.000    0.000 
#    0.000    0.000    0.000    0.000    0.000    0.000 
#
# Total GULP energy -156437.758960 kJ/mol
# GULP energy per Si atom -5587.062820 kJ/mol
# Density = 2.015708 g / cm^3
# Si number density = 20.203063 Si / 1000 Ang^3
#
#
#
# Elastic Constant Matrix: (Units=GPa)
#
#
# Indices 1 2 3 4 5 6 
#
# 1 103.7050 22.4539 13.6554 0.0000 -2.9466 0.0000
# 2 22.4539 72.1198 11.5788 0.0000 6.0108 0.0000
# 3 13.6554 11.5788 80.6814 0.0000 -5.9211 0.0000
# 4 0.0000 0.0000 0.0000 11.7134 0.0000 3.8851
# 5 -2.9466 6.0108 -5.9211 0.0000 33.5878 0.0000
# 6 0.0000 0.0000 0.0000 3.8851 0.0000 27.3003
#
#
#
# Elastic Compliance Matrix: (Units=1/GPa)
#
#
# Indices 1 2 3 4 5 6 
#
# 1 0.010531 -0.003188 -0.001231 0.000000 0.001277 0.000000
# 2 -0.003188 0.015450 -0.001926 0.000000 -0.003384 0.000000
# 3 -0.001231 -0.001926 0.013066 0.000000 0.002540 0.000000
# 4 0.000000 0.000000 0.000000 0.089602 0.000000 -0.012751
# 5 0.001277 -0.003384 0.002540 0.000000 0.030938 0.000000
# 6 0.000000 0.000000 0.000000 -0.012751 0.000000 0.038444
#
#
# Mechanical properties :
#
#
# Convention : Reuss Voigt Hill
#
# Bulk Modulus (GPa) = 37.94104 39.09805 38.51955
# Shear Modulus (GPa) = 22.77841 28.44152 25.60996
#
# Velocity S-wave (km/s) = 3.36143 3.75611 3.56424
# Velocity P-wave (km/s) = 5.82119 6.18108 6.00383
#
# Compressibility (1/GPa) = 0.02635668
#
# Stress axis : x y z
#
# Youngs Moduli (GPa) = 94.95483 64.72689 76.53668
#
# Poissons Ratio (x) = 0.20633 0.09423
# Poissons Ratio (y) = 0.30268 0.14741
# Poissons Ratio (z) = 0.11691 0.12467
#
# Static dielectric constant tensor:
#      x y z
#    x -0.904680 0.000000 -0.157490 
#    y 0.000000 1.723900 0.000000 
#    z -0.157490 0.000000 1.690610 
# 
# From -- ./inp_files/35613.got.cif
#   From: 2010.05.17/outbox.cif.g08.bks.cpg/sg15_18_cif.got.tgz:35613.got - 2010.06.03 18:47:42.
