data_PCOD9278780
_publ_section_title
;
Structure prediction by ZEFSAII (Michael W. Deem and Ramdas Pophale) SiO2 
 PCOD9278780
Probable space group: C 2/C
;
_chemical_formula_sum "Si O2"
_cell_formula_units_Z 36
_cell_length_a 8.936660
_cell_length_b 11.126296
_cell_length_c 13.695189
_cell_angle_alpha 90.000000
_cell_angle_beta 75.799426
_cell_angle_gamma 90.000000
_cell_volume 1320.128192
_symmetry_space_group_name_H-M "C 2/C"
_symmetry_group_IT_number 15
_symmetry_cell_setting 'monoclinic'
loop_
_space_group_symop_operation_xyz
x,y,z
-x,y,1/2-z
-x,-y,-z
x,-y,1/2+z
1/2+x,1/2+y,z
1/2-x,1/2+y,1/2-z
1/2-x,1/2-y,-z
1/2+x,1/2-y,1/2+z
loop_
_atom_site_type_symbol
_atom_site_label
_atom_site_fract_x
_atom_site_fract_y
_atom_site_fract_z
Si Si1 0.000000 0.828943 0.250000
Si Si2 0.600106 0.287180 0.587473
Si Si3 0.310127 0.887627 0.707158
Si Si4 0.147838 0.872380 0.024058
Si Si5 0.393967 0.981671 0.386389
O O1 0.860275 0.740773 0.241887
O O2 0.938538 0.886867 0.359151
O O3 0.750000 0.250000 0.500000
O O4 0.659491 0.362020 0.670127
O O5 0.764065 0.519064 0.484051
O O6 0.954818 0.346662 0.374563
O O7 0.459685 0.930669 0.621865
O O8 0.314359 0.980990 0.795897
O O9 0.250000 0.750000 0.000000
O O10 0.022619 0.855132 0.959004
#
# Coordination Sequence:
#
# PCOD9278780 Si02
#       5
#     4   8   8   8   8
#     4  10  20  46  68 104 160 186 240 328 348 432
#     4  12  26  47  76 112 152 192 257 310 359 462
#     4  10  22  49  70 110 154 182 256 307 356 452
#     4  12  23  46  79 104 154 200 248 308 376 437
#     4  10  25  48  77 109 145 209 236 303 398 420
#
# _framework density 27.270078999999999
#
# number of rings (size 3 to 8) (size 9 to 14) (size 15 to 20)
#    0.000    1.333    6.667    0.000    0.000    8.889 
#    4.000    6.667    0.000    2.667    0.000    0.000 
#    0.000    0.000    0.000    0.000    0.000    0.000 
#
# Total GULP energy -101040.128033 kJ/mol
# GULP energy per Si atom -5613.340446 kJ/mol
# Density = 2.720801 g / cm^3
# Si number density = 27.270079 Si / 1000 Ang^3
#
#
#
# Elastic Constant Matrix: (Units=GPa)
#
#
# Indices 1 2 3 4 5 6 
#
# 1 160.6033 51.2709 84.1277 0.0000 42.4666 0.0000
# 2 51.2709 141.3317 53.1143 0.0000 21.9245 0.0000
# 3 84.1277 53.1143 173.3203 0.0000 13.2902 0.0000
# 4 0.0000 0.0000 0.0000 17.3324 0.0000 6.1447
# 5 42.4666 21.9245 13.2902 0.0000 60.1794 0.0000
# 6 0.0000 0.0000 0.0000 6.1447 0.0000 42.2518
#
#
#
# Elastic Compliance Matrix: (Units=1/GPa)
#
#
# Indices 1 2 3 4 5 6 
#
# 1 0.010411 -0.001272 -0.004207 0.000000 -0.005954 0.000000
# 2 -0.001272 0.008512 -0.001853 0.000000 -0.001794 0.000000
# 3 -0.004207 -0.001853 0.008240 0.000000 0.001824 0.000000
# 4 0.000000 0.000000 0.000000 0.060832 0.000000 -0.008847
# 5 -0.005954 -0.001794 0.001824 0.000000 0.021069 0.000000
# 6 0.000000 0.000000 0.000000 -0.008847 0.000000 0.024954
#
#
# Mechanical properties :
#
#
# Convention : Reuss Voigt Hill
#
# Bulk Modulus (GPa) = 80.01592 94.69792 87.35692
# Shear Modulus (GPa) = 32.71225 43.06888 37.89057
#
# Velocity S-wave (km/s) = 3.46723 3.97841 3.73158
# Velocity P-wave (km/s) = 6.74052 7.47696 7.11827
#
# Compressibility (1/GPa) = 0.01249751
#
# Stress axis : x y z
#
# Youngs Moduli (GPa) = 96.05637 117.48276 121.36335
#
# Poissons Ratio (x) = 0.14944 0.51055
# Poissons Ratio (y) = 0.12219 0.22494
# Poissons Ratio (z) = 0.40409 0.21775
#
# Static dielectric constant tensor:
#      x y z
#    x 2.055150 0.000000 -0.016640 
#    y 0.000000 2.148590 0.000000 
#    z -0.016640 0.000000 2.221730 
# 
# From -- ./inp_files/150915.got.cif
#   From: 2010.05.17/outbox.cif.g08.bks.cpg/sg15_76_cif.got.tgz:150915.got - 2010.06.03 18:47:42.
