data_PCOD9278055
_publ_section_title
;
Structure prediction by ZEFSAII (Michael W. Deem and Ramdas Pophale) SiO2 
 PCOD9278055
Probable space group: C 2/C
;
_chemical_formula_sum "Si O2"
_cell_formula_units_Z 28
_cell_length_a 7.945566
_cell_length_b 14.047382
_cell_length_c 15.448913
_cell_angle_alpha 90.000000
_cell_angle_beta 132.134641
_cell_angle_gamma 90.000000
_cell_volume 1278.705479
_symmetry_space_group_name_H-M "C 2/C"
_symmetry_group_IT_number 15
_symmetry_cell_setting 'monoclinic'
loop_
_space_group_symop_operation_xyz
x,y,z
-x,y,1/2-z
-x,-y,-z
x,-y,1/2+z
1/2+x,1/2+y,z
1/2-x,1/2+y,1/2-z
1/2-x,1/2-y,-z
1/2+x,1/2-y,1/2+z
loop_
_atom_site_type_symbol
_atom_site_label
_atom_site_fract_x
_atom_site_fract_y
_atom_site_fract_z
Si Si1 0.109198 0.950050 0.454444
Si Si2 0.585849 0.264538 0.546268
Si Si3 0.500000 0.637285 0.750000
Si Si4 0.679241 0.368433 0.889107
O O1 0.182800 0.848035 0.518186
O O2 0.945675 0.922655 0.317820
O O3 0.259740 0.031296 0.459844
O O4 0.000000 0.000000 0.500000
O O5 0.459198 0.315650 0.582555
O O6 0.390509 0.198193 0.436884
O O7 0.784711 0.200495 0.652468
O O8 0.500000 0.382034 0.750000
#
# Coordination Sequence:
#
# PCOD9278055 Si02
#       4
#     8   8   4   8
#     4  10  22  41  61  97 128 166 229 263 324 406
#     4  10  23  39  66  95 130 171 222 270 331 396
#     4  12  22  42  64  92 134 172 210 276 334 382
#     4  10  20  42  65  90 132 174 215 273 333 388
#
# _framework density 21.897144999999998
#
# number of rings (size 3 to 8) (size 9 to 14) (size 15 to 20)
#    0.000    1.714    1.429    2.571    0.000    1.143 
#   10.286    0.000    3.143    0.000    0.000    0.000 
#    0.000    0.000    0.000    0.000    0.000    0.000 
#
# Total GULP energy -78041.628032 kJ/mol
# GULP energy per Si atom -5574.402002 kJ/mol
# Density = 2.184731 g / cm^3
# Si number density = 21.897145 Si / 1000 Ang^3
#
#
#
# Elastic Constant Matrix: (Units=GPa)
#
#
# Indices 1 2 3 4 5 6 
#
# 1 98.4341 47.6355 49.5655 0.0000 -8.1555 0.0000
# 2 47.6355 147.9273 56.8693 0.0000 -7.3869 0.0000
# 3 49.5655 56.8693 112.9672 0.0000 -17.0970 0.0000
# 4 0.0000 0.0000 0.0000 50.5276 0.0000 -17.3267
# 5 -8.1555 -7.3869 -17.0970 0.0000 36.6559 0.0000
# 6 0.0000 0.0000 0.0000 -17.3267 0.0000 -1.3430
#
#
#
# Elastic Compliance Matrix: (Units=1/GPa)
#
#
# Indices 1 2 3 4 5 6 
#
# 1 0.013822 -0.002632 -0.004685 0.000000 0.000360 0.000000
# 2 -0.002632 0.008887 -0.003375 0.000000 -0.000369 0.000000
# 3 -0.004685 -0.003375 0.013284 0.000000 0.004473 0.000000
# 4 0.000000 0.000000 0.000000 0.003649 0.000000 -0.047074
# 5 0.000360 -0.000369 0.004473 0.000000 0.029373 0.000000
# 6 0.000000 0.000000 0.000000 -0.047074 0.000000 -0.137277
#
#
# Mechanical properties :
#
#
# Convention : Reuss Voigt Hill
#
# Bulk Modulus (GPa) = 68.45242 74.16324 71.30783
# Shear Modulus (GPa) = -119.01529 30.85200 -44.08164
#
# Velocity S-wave (km/s) = -7.38038 3.75767 -4.49165
# Velocity P-wave (km/s) = 6.42634 7.26424 2.39493
#
# Compressibility (1/GPa) = 0.01460869
#
# Stress axis : x y z
#
# Youngs Moduli (GPa) = 72.35065 112.53019 75.28057
#
# Poissons Ratio (x) = 0.29615 0.35270
# Poissons Ratio (y) = 0.19041 0.25405
# Poissons Ratio (z) = 0.33897 0.37976
#
# Static dielectric constant tensor:
#      x y z
#    x 1.826180 0.000000 -0.014300 
#    y 0.000000 1.895820 0.000000 
#    z -0.014300 0.000000 1.775780 
# 
# From -- ./inp_files/28092.got.cif
#   From: 2010.05.17/outbox.cif.g08.bks.cpg/sg15_15_cif.got.tgz:28092.got - 2010.06.03 18:47:42.
