data_PCOD9278548
_publ_section_title
;
Structure prediction by ZEFSAII (Michael W. Deem and Ramdas Pophale) SiO2 
 PCOD9278548
Probable space group: C 2/C
;
_chemical_formula_sum "Si O2"
_cell_formula_units_Z 64
_cell_length_a 14.392682
_cell_length_b 11.189911
_cell_length_c 22.624425
_cell_angle_alpha 90.000000
_cell_angle_beta 40.758203
_cell_angle_gamma 90.000000
_cell_volume 2378.873958
_symmetry_space_group_name_H-M "C 2/C"
_symmetry_group_IT_number 15
_symmetry_cell_setting 'monoclinic'
loop_
_space_group_symop_operation_xyz
x,y,z
-x,y,1/2-z
-x,-y,-z
x,-y,1/2+z
1/2+x,1/2+y,z
1/2-x,1/2+y,1/2-z
1/2-x,1/2-y,-z
1/2+x,1/2-y,1/2+z
loop_
_atom_site_type_symbol
_atom_site_label
_atom_site_fract_x
_atom_site_fract_y
_atom_site_fract_z
Si Si1 0.906936 0.945990 0.734103
Si Si2 0.207450 0.664391 0.401863
Si Si3 0.007839 0.572354 0.370870
Si Si4 0.859910 0.142671 0.440998
Si Si5 0.715594 0.558991 0.437403
Si Si6 0.611939 0.293848 0.249825
Si Si7 0.597927 0.195884 0.963045
Si Si8 0.143358 0.593329 0.719790
O O1 0.743687 0.922252 0.829567
O O2 0.000000 0.940032 0.750000
O O3 0.977817 0.846308 0.658280
O O4 0.924545 0.079459 0.702130
O O5 0.281969 0.593840 0.419538
O O6 0.281191 0.784711 0.339355
O O7 0.051835 0.699100 0.498271
O O8 0.095319 0.687228 0.303994
O O9 0.087484 0.450426 0.310903
O O10 0.863188 0.577383 0.400856
O O11 0.945296 0.597668 0.466509
O O12 0.750000 0.250000 0.500000
O O13 0.856734 0.051566 0.495391
O O14 0.624295 0.678098 0.482761
O O15 0.756433 0.513985 0.352403
O O16 0.500000 0.274360 0.250000
O O17 0.763468 0.312356 0.144397
O O18 0.000000 0.593832 0.750000
#
# Coordination Sequence:
#
# PCOD9278548 Si02
#       8
#     8   8   8   8   8   8   8   8
#     4   9  22  39  66  92 135 182 233 289 345 425
#     4  11  25  46  64 104 149 185 230 306 371 428
#     4  11  23  42  69 102 133 185 241 293 360 434
#     4  11  22  43  73 104 133 192 254 285 356 457
#     4  11  22  41  73 101 131 185 246 295 344 437
#     4  11  21  44  68  98 138 185 243 302 348 439
#     4  12  26  43  69 105 150 186 238 305 376 427
#     4  10  20  43  72  97 134 180 240 294 351 427
#
# _framework density 26.903486999999998
#
# number of rings (size 3 to 8) (size 9 to 14) (size 15 to 20)
#    0.000    1.250    3.750    2.625    7.000    1.000 
#    6.750    0.000    0.000    0.000    0.000    0.000 
#    0.000    0.000    0.000    0.000    0.000    0.000 
#
# Total GULP energy -178728.219758 kJ/mol
# GULP energy per Si atom -5585.256867 kJ/mol
# Density = 2.684225 g / cm^3
# Si number density = 26.903487 Si / 1000 Ang^3
#
#
#
# Elastic Constant Matrix: (Units=GPa)
#
#
# Indices 1 2 3 4 5 6 
#
# 1 36.6942 -16.3778 3.4789 0.0000 -0.8893 0.0000
# 2 -16.3778 79.0758 14.5756 0.0000 13.2371 0.0000
# 3 3.4789 14.5756 159.7450 0.0000 -11.6159 0.0000
# 4 0.0000 0.0000 0.0000 36.8439 0.0000 15.0197
# 5 -0.8893 13.2371 -11.6159 0.0000 30.6369 0.0000
# 6 0.0000 0.0000 0.0000 15.0197 0.0000 18.9449
#
#
#
# Elastic Compliance Matrix: (Units=1/GPa)
#
#
# Indices 1 2 3 4 5 6 
#
# 1 0.030474 0.007046 -0.001505 0.000000 -0.002730 0.000000
# 2 0.007046 0.015737 -0.002127 0.000000 -0.007401 0.000000
# 3 -0.001505 -0.002127 0.006736 0.000000 0.003430 0.000000
# 4 0.000000 0.000000 0.000000 0.040102 0.000000 -0.031793
# 5 -0.002730 -0.007401 0.003430 0.000000 0.037059 0.000000
# 6 0.000000 0.000000 0.000000 -0.031793 0.000000 0.077990
#
#
# Mechanical properties :
#
#
# Convention : Reuss Voigt Hill
#
# Bulk Modulus (GPa) = 16.72987 30.98540 23.85763
# Shear Modulus (GPa) = 22.60439 35.54103 29.07271
#
# Velocity S-wave (km/s) = 2.90177 3.63858 3.29086
# Velocity P-wave (km/s) = 4.17840 5.40320 4.82978
#
# Compressibility (1/GPa) = 0.05977333
#
# Stress axis : x y z
#
# Youngs Moduli (GPa) = 32.81522 63.54647 148.45051
#
# Poissons Ratio (x) = -0.44775 0.22343
# Poissons Ratio (y) = -0.23122 0.31583
# Poissons Ratio (z) = 0.04939 0.13519
#
# Static dielectric constant tensor:
#      x y z
#    x 2.473670 0.000000 -0.013090 
#    y 0.000000 2.150150 0.000000 
#    z -0.013090 0.000000 2.135090 
# 
# From -- ./inp_files/316167.got.cif
#   From: 2010.05.17/outbox.cif.g08.bks.cpg/sg15_159_cif.got.tgz:316167.got - 2010.06.03 18:47:42.
