data_PCOD9278336
_publ_section_title
;
Structure prediction by ZEFSAII (Michael W. Deem and Ramdas Pophale) SiO2 
 PCOD9278336
Probable space group: C 2/C
;
_chemical_formula_sum "Si O2"
_cell_formula_units_Z 36
_cell_length_a 8.939168
_cell_length_b 13.415453
_cell_length_c 21.662137
_cell_angle_alpha 90.000000
_cell_angle_beta 35.382406
_cell_angle_gamma 90.000000
_cell_volume 1504.199486
_symmetry_space_group_name_H-M "C 2/C"
_symmetry_group_IT_number 15
_symmetry_cell_setting 'monoclinic'
loop_
_space_group_symop_operation_xyz
x,y,z
-x,y,1/2-z
-x,-y,-z
x,-y,1/2+z
1/2+x,1/2+y,z
1/2-x,1/2+y,1/2-z
1/2-x,1/2-y,-z
1/2+x,1/2-y,1/2+z
loop_
_atom_site_type_symbol
_atom_site_label
_atom_site_fract_x
_atom_site_fract_y
_atom_site_fract_z
Si Si1 0.535374 0.666986 0.437840
Si Si2 0.082592 0.135417 0.886510
Si Si3 0.500000 0.040111 0.250000
Si Si4 0.860040 0.508579 0.981292
Si Si5 0.760295 0.353539 0.199981
O O1 0.404927 0.677805 0.549004
O O2 0.360026 0.593319 0.455148
O O3 0.577839 0.771254 0.390787
O O4 0.821181 0.617835 0.349037
O O5 0.178310 0.191793 0.793620
O O6 0.270986 0.040432 0.817912
O O7 0.792653 0.094498 0.975769
O O8 0.000000 0.500000 0.000000
O O9 0.072715 0.544322 0.859761
O O10 0.500000 0.374472 0.250000
#
# Coordination Sequence:
#
# PCOD9278336 Si02
#       5
#     8   8   4   8   8
#     4  11  24  44  70  98 135 180 229 276 340 408
#     4  11  23  44  72  94 136 183 229 274 331 417
#     4  10  20  42  70  98 122 176 232 268 330 408
#     4  11  23  44  69 100 133 174 223 287 338 394
#     4  12  24  44  65 102 141 175 228 284 339 399
#
# _framework density 23.932994999999998
#
# number of rings (size 3 to 8) (size 9 to 14) (size 15 to 20)
#    0.000    0.889    3.333    6.000    0.000    0.889 
#    0.000    2.222    0.000    0.000    0.000    0.000 
#    0.000    0.000    0.000    0.000    0.000    0.000 
#
# Total GULP energy -100317.066364 kJ/mol
# GULP energy per Si atom -5573.170354 kJ/mol
# Density = 2.387852 g / cm^3
# Si number density = 23.932995 Si / 1000 Ang^3
#
#
#
# Elastic Constant Matrix: (Units=GPa)
#
#
# Indices 1 2 3 4 5 6 
#
# 1 108.7645 24.4826 62.7680 -0.0023 5.5855 -0.0004
# 2 24.4826 34.8206 38.9033 -0.0017 11.1400 0.0010
# 3 62.7680 38.9033 185.0411 -0.0104 36.6112 0.0069
# 4 -0.0023 -0.0017 -0.0104 19.2951 0.0094 -0.5671
# 5 5.5855 11.1400 36.6112 0.0094 52.1672 -0.0033
# 6 -0.0004 0.0010 0.0069 -0.5671 -0.0033 21.2636
#
#
#
# Elastic Compliance Matrix: (Units=1/GPa)
#
#
# Indices 1 2 3 4 5 6 
#
# 1 0.012323 -0.005517 -0.003475 -0.000002 0.002297 0.000002
# 2 -0.005517 0.040381 -0.005840 0.000002 -0.003934 -0.000001
# 3 -0.003475 -0.005840 0.008698 0.000006 -0.004485 -0.000003
# 4 -0.000002 0.000002 0.000006 0.051867 -0.000014 0.001383
# 5 0.002297 -0.003934 -0.004485 -0.000014 0.022911 0.000005
# 6 0.000002 -0.000001 -0.000003 0.001383 0.000005 0.047066
#
#
# Mechanical properties :
#
#
# Convention : Reuss Voigt Hill
#
# Bulk Modulus (GPa) = 31.50753 64.54822 48.02787
# Shear Modulus (GPa) = 22.37232 32.04333 27.20782
#
# Velocity S-wave (km/s) = 3.06075 3.66304 3.37535
# Velocity P-wave (km/s) = 5.06798 6.70219 5.94154
#
# Compressibility (1/GPa) = 0.03173845
#
# Stress axis : x y z
#
# Youngs Moduli (GPa) = 81.14591 24.76403 114.96758
#
# Poissons Ratio (x) = 0.13664 0.39949
# Poissons Ratio (y) = 0.44772 0.67139
# Poissons Ratio (z) = 0.28197 0.14462
#
# Static dielectric constant tensor:
#      x y z
#    x 2.008940 0.000000 -0.007530 
#    y 0.000000 1.999920 0.000000 
#    z -0.007530 0.000000 1.942960 
# 
# From -- ./inp_files/231520.got.cif
#   From: 2010.05.17/outbox.cif.g08.bks.cpg/sg15_116_cif.got.tgz:231520.got - 2010.06.03 18:47:42.
