data_PCOD9278024
_publ_section_title
;
Structure prediction by ZEFSAII (Michael W. Deem and Ramdas Pophale) SiO2 
 PCOD9278024
Probable space group: C 2/C
;
_chemical_formula_sum "Si O2"
_cell_formula_units_Z 40
_cell_length_a 30.053904
_cell_length_b 11.198703
_cell_length_c 18.138431
_cell_angle_alpha 90.000000
_cell_angle_beta 163.896395
_cell_angle_gamma 90.000000
_cell_volume 1693.307443
_symmetry_space_group_name_H-M "C 2/C"
_symmetry_group_IT_number 15
_symmetry_cell_setting 'monoclinic'
loop_
_space_group_symop_operation_xyz
x,y,z
-x,y,1/2-z
-x,-y,-z
x,-y,1/2+z
1/2+x,1/2+y,z
1/2-x,1/2+y,1/2-z
1/2-x,1/2-y,-z
1/2+x,1/2-y,1/2+z
loop_
_atom_site_type_symbol
_atom_site_label
_atom_site_fract_x
_atom_site_fract_y
_atom_site_fract_z
Si Si1 0.759523 0.124827 0.614989
Si Si2 0.177247 0.338228 0.274631
Si Si3 0.978342 0.782289 0.351626
Si Si4 0.327112 0.270292 0.376446
Si Si5 0.144036 0.386938 0.380783
O O1 0.895962 0.116468 0.769131
O O2 0.641153 0.230395 0.399118
O O3 0.830776 0.155902 0.807339
O O4 0.659936 0.003871 0.454443
O O5 0.306822 0.355460 0.415950
O O6 0.169561 0.416432 0.334895
O O7 0.222977 0.207423 0.380068
O O8 0.012533 0.322702 0.967391
O O9 0.157489 0.801803 0.607418
O O10 0.476126 0.182428 0.619712
#
# Coordination Sequence:
#
# PCOD9278024 Si02
#       5
#     8   8   8   8   8
#     4  11  22  42  70  94 128 182 224 264 342 406
#     4   9  22  41  60  93 142 166 210 293 326 378
#     4   9  22  41  60  93 142 166 210 293 326 378
#     4  10  20  42  64  94 134 170 220 286 318 394
#     4  11  22  42  70  94 128 182 224 264 342 406
#
# _framework density 23.622411
#
# number of rings (size 3 to 8) (size 9 to 14) (size 15 to 20)
#    1.200    0.800    2.000    1.200    0.000    4.800 
#    0.000    0.000    0.000    0.000    0.000    0.000 
#    0.000    0.000    0.000    0.000    0.000    0.000 
#
# Total GULP energy -111607.967299 kJ/mol
# GULP energy per Si atom -5580.398365 kJ/mol
# Density = 2.356865 g / cm^3
# Si number density = 23.622411 Si / 1000 Ang^3
#
#
#
# Elastic Constant Matrix: (Units=GPa)
#
#
# Indices 1 2 3 4 5 6 
#
# 1 107.9442 31.9584 24.3987 0.0000 -3.6784 0.0000
# 2 31.9584 58.2898 26.8586 0.0000 -0.2485 0.0000
# 3 24.3987 26.8586 96.1595 0.0000 14.0124 0.0000
# 4 0.0000 0.0000 0.0000 29.5795 0.0000 -7.6717
# 5 -3.6784 -0.2485 14.0124 0.0000 43.1458 0.0000
# 6 0.0000 0.0000 0.0000 -7.6717 0.0000 1.5505
#
#
#
# Elastic Compliance Matrix: (Units=1/GPa)
#
#
# Indices 1 2 3 4 5 6 
#
# 1 0.011280 -0.005467 -0.001544 0.000000 0.001432 0.000000
# 2 -0.005467 0.022504 -0.005090 0.000000 0.001317 0.000000
# 3 -0.001544 -0.005090 0.012844 0.000000 -0.004332 0.000000
# 4 0.000000 0.000000 0.000000 -0.119348 0.000000 -0.590519
# 5 0.001432 0.001317 -0.004332 0.000000 0.024714 0.000000
# 6 0.000000 0.000000 0.000000 -0.590519 0.000000 -2.276853
#
#
# Mechanical properties :
#
#
# Convention : Reuss Voigt Hill
#
# Bulk Modulus (GPa) = 44.59079 47.64722 46.11900
# Shear Modulus (GPa) = -2.18038 26.80036 12.30999
#
# Velocity S-wave (km/s) = -0.96178 3.37193 2.28527
# Velocity P-wave (km/s) = 4.20525 5.94761 5.15064
#
# Compressibility (1/GPa) = 0.02242616
#
# Stress axis : x y z
#
# Youngs Moduli (GPa) = 88.64918 44.43591 77.85619
#
# Poissons Ratio (x) = 0.24294 0.12019
# Poissons Ratio (y) = 0.48467 0.39632
# Poissons Ratio (z) = 0.13685 0.22620
#
# Static dielectric constant tensor:
#      x y z
#    x 1.982620 0.000000 0.012750 
#    y 0.000000 1.886400 0.000000 
#    z 0.012750 0.000000 1.896410 
# 
# From -- ./inp_files/225039.got.cif
#   From: 2010.05.17/outbox.cif.g08.bks.cpg/sg15_113_cif.got.tgz:225039.got - 2010.06.03 18:47:42.
