data_PCOD9278021
_publ_section_title
;
Structure prediction by ZEFSAII (Michael W. Deem and Ramdas Pophale) SiO2 
 PCOD9278021
Probable space group: C 2/C
;
_chemical_formula_sum "Si O2"
_cell_formula_units_Z 56
_cell_length_a 31.112716
_cell_length_b 7.690950
_cell_length_c 15.070208
_cell_angle_alpha 90.000000
_cell_angle_beta 46.184392
_cell_angle_gamma 90.000000
_cell_volume 2602.055906
_symmetry_space_group_name_H-M "C 2/C"
_symmetry_group_IT_number 15
_symmetry_cell_setting 'monoclinic'
loop_
_space_group_symop_operation_xyz
x,y,z
-x,y,1/2-z
-x,-y,-z
x,-y,1/2+z
1/2+x,1/2+y,z
1/2-x,1/2+y,1/2-z
1/2-x,1/2-y,-z
1/2+x,1/2-y,1/2+z
loop_
_atom_site_type_symbol
_atom_site_label
_atom_site_fract_x
_atom_site_fract_y
_atom_site_fract_z
Si Si1 0.663533 0.518172 0.120836
Si Si2 0.822240 0.366445 0.844193
Si Si3 0.561972 0.716000 0.207490
Si Si4 0.756546 0.525992 0.271894
Si Si5 0.935056 0.572862 0.615097
Si Si6 0.338405 0.692701 0.182178
Si Si7 0.818451 0.648583 0.003537
O O1 0.678901 0.318995 0.107124
O O2 0.596356 0.538081 0.180155
O O3 0.665434 0.601671 0.216395
O O4 0.697790 0.658599 0.010256
O O5 0.777241 0.360222 0.825786
O O6 0.886054 0.424517 0.710303
O O7 0.808716 0.513095 0.937271
O O8 0.500000 0.694570 0.250000
O O9 0.556318 0.814649 0.308479
O O10 0.610375 0.829512 0.083681
O O11 0.685778 0.550742 0.354116
O O12 0.789189 0.343896 0.242932
O O13 0.787717 0.584102 0.135459
O O14 0.901246 0.702868 0.593499
O O15 0.000000 0.500000 0.500000
#
# Coordination Sequence:
#
# PCOD9278021 Si02
#       7
#     8   8   8   8   8   8   8
#     4   9  19  41  59  88 132 159 210 278 317 381
#     4  10  20  42  64  93 132 167 219 269 332 383
#     4   8  17  34  59  84 125 158 210 272 312 380
#     4  11  21  40  66  88 131 171 215 266 323 397
#     4   9  19  36  63  88 125 170 211 268 334 384
#     4  10  21  39  59  93 128 166 217 265 327 381
#     4   9  21  40  63  91 121 173 213 265 332 389
#
# _framework density 21.521443000000001
#
# number of rings (size 3 to 8) (size 9 to 14) (size 15 to 20)
#    0.857    1.714    2.857    0.857    4.000    0.571 
#    5.143    7.143    3.143    0.000    0.000    0.000 
#    0.000    0.000    0.000    0.000    0.000    0.000 
#
# Total GULP energy -156129.555769 kJ/mol
# GULP energy per Si atom -5576.055563 kJ/mol
# Density = 2.147246 g / cm^3
# Si number density = 21.521443 Si / 1000 Ang^3
#
#
#
# Elastic Constant Matrix: (Units=GPa)
#
#
# Indices 1 2 3 4 5 6 
#
# 1 179.7996 41.1746 43.6126 0.0000 -17.8335 0.0000
# 2 41.1746 102.4341 27.4153 0.0003 -1.5929 0.0004
# 3 43.6126 27.4153 95.3185 0.0000 -9.3619 0.0000
# 4 0.0000 0.0003 0.0000 20.3043 0.0000 -0.6760
# 5 -17.8335 -1.5929 -9.3619 0.0000 21.8632 0.0000
# 6 0.0000 0.0004 0.0000 -0.6760 0.0000 29.2458
#
#
#
# Elastic Compliance Matrix: (Units=1/GPa)
#
#
# Indices 1 2 3 4 5 6 
#
# 1 0.007044 -0.002187 -0.002135 0.000000 0.004672 0.000000
# 2 -0.002187 0.011262 -0.002435 0.000000 -0.002007 0.000000
# 3 -0.002135 -0.002435 0.012506 0.000000 0.003436 0.000000
# 4 0.000000 0.000000 0.000000 0.049289 0.000000 0.001139
# 5 0.004672 -0.002007 0.003436 0.000000 0.050875 0.000000
# 6 0.000000 0.000000 0.000000 0.001139 0.000000 0.034219
#
#
# Mechanical properties :
#
#
# Convention : Reuss Voigt Hill
#
# Bulk Modulus (GPa) = 57.81479 66.88414 62.34947
# Shear Modulus (GPa) = 27.10380 31.97266 29.53823
#
# Velocity S-wave (km/s) = 3.55263 3.85855 3.70875
# Velocity P-wave (km/s) = 6.61441 7.14119 6.88284
#
# Compressibility (1/GPa) = 0.01729661
#
# Stress axis : x y z
#
# Youngs Moduli (GPa) = 141.96672 88.79241 79.96197
#
# Poissons Ratio (x) = 0.19422 0.17071
# Poissons Ratio (y) = 0.31053 0.19475
# Poissons Ratio (z) = 0.30309 0.21625
#
# Static dielectric constant tensor:
#      x y z
#    x 1.815040 0.000000 -0.018430 
#    y 0.000000 1.843230 0.000000 
#    z -0.018430 0.000000 1.819290 
# 
# From -- ./inp_files/180762.got.cif
#   From: 2010.05.17/outbox.cif.g08.bks.cpg/sg15_91_cif.got.tgz:180762.got - 2010.06.03 18:47:42.
