data_PCOD9278212
_publ_section_title
;
Structure prediction by ZEFSAII (Michael W. Deem and Ramdas Pophale) SiO2 
 PCOD9278212
Probable space group: C 2/C
;
_chemical_formula_sum "Si O2"
_cell_formula_units_Z 48
_cell_length_a 22.658836
_cell_length_b 8.438903
_cell_length_c 19.293065
_cell_angle_alpha 90.000000
_cell_angle_beta 146.965506
_cell_angle_gamma 90.000000
_cell_volume 2011.110489
_symmetry_space_group_name_H-M "C 2/C"
_symmetry_group_IT_number 15
_symmetry_cell_setting 'monoclinic'
loop_
_space_group_symop_operation_xyz
x,y,z
-x,y,1/2-z
-x,-y,-z
x,-y,1/2+z
1/2+x,1/2+y,z
1/2-x,1/2+y,1/2-z
1/2-x,1/2-y,-z
1/2+x,1/2-y,1/2+z
loop_
_atom_site_type_symbol
_atom_site_label
_atom_site_fract_x
_atom_site_fract_y
_atom_site_fract_z
Si Si1 0.000000 0.446130 0.750000
Si Si2 0.628923 0.338501 0.435535
Si Si3 0.985441 0.692000 0.626223
Si Si4 0.961617 0.009313 0.883267
Si Si5 0.123413 0.510508 0.095992
Si Si6 0.730064 0.238502 0.309484
Si Si7 0.000000 0.072451 0.250000
O O1 0.911444 0.333070 0.627696
O O2 0.960041 0.551452 0.776222
O O3 0.551198 0.416227 0.419063
O O4 0.741235 0.322757 0.585603
O O5 0.600480 0.449320 0.341559
O O6 0.939982 0.803208 0.641366
O O7 0.892388 0.624027 0.485837
O O8 0.058122 0.825754 0.659359
O O9 0.863008 0.129757 0.782724
O O10 0.000000 0.000000 0.000000
O O11 0.168113 0.339529 0.119035
O O12 0.195959 0.596259 0.225203
O O13 0.000000 0.500000 0.000000
#
# Coordination Sequence:
#
# PCOD9278212 Si02
#       7
#     4   8   8   8   8   8   4
#     4  10  20  42  68  88 136 190 228 278 342 400
#     4  10  21  42  68  96 134 180 230 280 343 408
#     4  10  21  41  68  90 134 182 221 276 352 397
#     4  11  22  41  66 102 139 176 222 293 357 412
#     4  12  27  44  71 105 142 178 230 297 353 415
#     4  12  25  41  71 103 138 180 236 283 360 422
#     4   8  20  40  68  90 130 188 214 284 340 402
#
# _framework density 23.867408999999999
#
# number of rings (size 3 to 8) (size 9 to 14) (size 15 to 20)
#    0.000    1.333    3.333    2.000    4.667    0.000 
#    0.000    8.333    0.000    0.000    0.000    0.000 
#    0.000    0.000    0.000    0.000    0.000    0.000 
#
# Total GULP energy -133773.297277 kJ/mol
# GULP energy per Si atom -5573.887387 kJ/mol
# Density = 2.381309 g / cm^3
# Si number density = 23.867409 Si / 1000 Ang^3
#
#
#
# Elastic Constant Matrix: (Units=GPa)
#
#
# Indices 1 2 3 4 5 6 
#
# 1 54.2578 13.8262 10.4309 0.0000 -4.4825 0.0000
# 2 13.8262 122.6311 53.8113 0.0000 -20.5674 0.0000
# 3 10.4309 53.8113 150.4423 0.0000 -37.4157 0.0000
# 4 0.0000 0.0000 0.0000 55.2986 0.0000 -12.8094
# 5 -4.4825 -20.5674 -37.4157 0.0000 43.1816 0.0000
# 6 0.0000 0.0000 0.0000 -12.8094 0.0000 47.2524
#
#
#
# Elastic Compliance Matrix: (Units=1/GPa)
#
#
# Indices 1 2 3 4 5 6 
#
# 1 0.019045 -0.001813 -0.000504 0.000000 0.000677 0.000000
# 2 -0.001813 0.009990 -0.002946 0.000000 0.002018 0.000000
# 3 -0.000504 -0.002946 0.009399 0.000000 0.006689 0.000000
# 4 0.000000 0.000000 0.000000 0.019295 0.000000 0.005231
# 5 0.000677 0.002018 0.006689 0.000000 0.029985 0.000000
# 6 0.000000 0.000000 0.000000 0.005231 0.000000 0.022581
#
#
# Mechanical properties :
#
#
# Convention : Reuss Voigt Hill
#
# Bulk Modulus (GPa) = 35.82951 53.71866 44.77409
# Shear Modulus (GPa) = 38.42515 45.76404 42.09459
#
# Velocity S-wave (km/s) = 4.01676 4.38360 4.20418
# Velocity P-wave (km/s) = 6.04624 6.94098 6.50900
#
# Compressibility (1/GPa) = 0.02790995
#
# Stress axis : x y z
#
# Youngs Moduli (GPa) = 52.50663 100.10073 106.39210
#
# Poissons Ratio (x) = 0.18145 0.05359
# Poissons Ratio (y) = 0.09518 0.31341
# Poissons Ratio (z) = 0.02645 0.29488
#
# Static dielectric constant tensor:
#      x y z
#    x 2.125640 0.000000 -0.116310 
#    y 0.000000 1.938070 0.000000 
#    z -0.116310 0.000000 2.021120 
# 
# From -- ./inp_files/166172.got.cif
#   From: 2010.05.17/outbox.cif.g08.bks.cpg/sg15_84_cif.got.tgz:166172.got - 2010.06.03 18:47:42.
