data_PCOD9278091
_publ_section_title
;
Structure prediction by ZEFSAII (Michael W. Deem and Ramdas Pophale) SiO2 
 PCOD9278091
Probable space group: C 2/C
;
_chemical_formula_sum "Si O2"
_cell_formula_units_Z 44
_cell_length_a 9.175095
_cell_length_b 12.358140
_cell_length_c 27.038663
_cell_angle_alpha 90.000000
_cell_angle_beta 140.125880
_cell_angle_gamma 90.000000
_cell_volume 1965.516675
_symmetry_space_group_name_H-M "C 2/C"
_symmetry_group_IT_number 15
_symmetry_cell_setting 'monoclinic'
loop_
_space_group_symop_operation_xyz
x,y,z
-x,y,1/2-z
-x,-y,-z
x,-y,1/2+z
1/2+x,1/2+y,z
1/2-x,1/2+y,1/2-z
1/2-x,1/2-y,-z
1/2+x,1/2-y,1/2+z
loop_
_atom_site_type_symbol
_atom_site_label
_atom_site_fract_x
_atom_site_fract_y
_atom_site_fract_z
Si Si1 0.325689 0.539203 0.496680
Si Si2 0.160397 0.930027 0.390098
Si Si3 0.535985 0.173975 0.939578
Si Si4 0.853880 0.605224 0.366334
Si Si5 0.216941 0.605832 0.715618
Si Si6 0.000000 0.291599 0.250000
O O1 0.500000 0.500000 0.500000
O O2 0.430698 0.558017 0.578195
O O3 0.158304 0.438502 0.460556
O O4 0.126155 0.627211 0.434941
O O5 0.372709 0.847199 0.443378
O O6 0.967862 0.886521 0.303229
O O7 0.256769 0.042784 0.390691
O O8 0.366086 0.188002 0.848962
O O9 0.750000 0.250000 0.000000
O O10 0.800894 0.515731 0.310114
O O11 0.708758 0.711771 0.317787
O O12 0.051668 0.632517 0.717322
#
# Coordination Sequence:
#
# PCOD9278091 Si02
#       6
#     8   8   8   8   8   4
#     4  10  23  39  64  93 129 176 220 278 357 401
#     4  10  20  42  66  87 135 176 216 294 334 401
#     4  10  22  39  64  94 130 171 227 277 335 414
#     4  10  21  45  64  95 136 174 229 281 342 418
#     4  10  23  38  67  98 134 170 237 278 338 416
#     4  12  24  38  74  96 132 190 220 282 364 388
#
# _framework density 22.385971000000001
#
# number of rings (size 3 to 8) (size 9 to 14) (size 15 to 20)
#    0.000    2.182    1.818    3.818   10.182    1.455 
#    0.000    1.818    8.000    0.000    0.000    0.000 
#    0.000    0.000    0.000    0.000    0.000    0.000 
#
# Total GULP energy -122615.987837 kJ/mol
# GULP energy per Si atom -5573.453993 kJ/mol
# Density = 2.233502 g / cm^3
# Si number density = 22.385971 Si / 1000 Ang^3
#
#
#
# Elastic Constant Matrix: (Units=GPa)
#
#
# Indices 1 2 3 4 5 6 
#
# 1 157.7906 29.6445 51.1284 0.0000 -20.2811 0.0000
# 2 29.6445 27.4787 15.1682 0.0000 2.0489 0.0000
# 3 51.1284 15.1682 146.2162 0.0000 5.9618 0.0000
# 4 0.0000 0.0000 0.0000 19.8463 0.0000 12.3757
# 5 -20.2811 2.0489 5.9618 0.0000 31.9346 0.0000
# 6 0.0000 0.0000 0.0000 12.3757 0.0000 25.6690
#
#
#
# Elastic Compliance Matrix: (Units=1/GPa)
#
#
# Indices 1 2 3 4 5 6 
#
# 1 0.010075 -0.009883 -0.002806 0.000000 0.007556 0.000000
# 2 -0.009883 0.048395 -0.001191 0.000000 -0.009159 0.000000
# 3 -0.002806 -0.001191 0.008075 0.000000 -0.003213 0.000000
# 4 0.000000 0.000000 0.000000 0.072048 0.000000 -0.034736
# 5 0.007556 -0.009159 -0.003213 0.000000 0.037300 0.000000
# 6 0.000000 0.000000 0.000000 -0.034736 0.000000 0.055705
#
#
# Mechanical properties :
#
#
# Convention : Reuss Voigt Hill
#
# Bulk Modulus (GPa) = 25.78380 58.15198 41.96789
# Shear Modulus (GPa) = 18.36309 31.19293 24.77801
#
# Velocity S-wave (km/s) = 2.86719 3.73690 3.33055
# Velocity P-wave (km/s) = 4.74382 6.68226 5.79467
#
# Compressibility (1/GPa) = 0.03878404
#
# Stress axis : x y z
#
# Youngs Moduli (GPa) = 99.25904 20.66350 123.84193
#
# Poissons Ratio (x) = 0.20423 0.34746
# Poissons Ratio (y) = 0.98102 0.14748
# Poissons Ratio (z) = 0.27849 0.02461
#
# Static dielectric constant tensor:
#      x y z
#    x 1.887010 0.000000 0.044250 
#    y 0.000000 1.945510 0.000000 
#    z 0.044250 0.000000 2.143040 
# 
# From -- ./inp_files/288956.got.cif
#   From: 2010.05.17/outbox.cif.g08.bks.cpg/sg15_145_cif.got.tgz:288956.got - 2010.06.03 18:47:42.
