data_PCOD9278537
_publ_section_title
;
Structure prediction by ZEFSAII (Michael W. Deem and Ramdas Pophale) SiO2 
 PCOD9278537
Probable space group: C 2/C
;
_chemical_formula_sum "Si O2"
_cell_formula_units_Z 44
_cell_length_a 11.954028
_cell_length_b 20.866342
_cell_length_c 9.145636
_cell_angle_alpha 90.000000
_cell_angle_beta 107.821829
_cell_angle_gamma 90.000000
_cell_volume 2171.787434
_symmetry_space_group_name_H-M "C 2/C"
_symmetry_group_IT_number 15
_symmetry_cell_setting 'monoclinic'
loop_
_space_group_symop_operation_xyz
x,y,z
-x,y,1/2-z
-x,-y,-z
x,-y,1/2+z
1/2+x,1/2+y,z
1/2-x,1/2+y,1/2-z
1/2-x,1/2-y,-z
1/2+x,1/2-y,1/2+z
loop_
_atom_site_type_symbol
_atom_site_label
_atom_site_fract_x
_atom_site_fract_y
_atom_site_fract_z
Si Si1 0.500000 0.139863 0.250000
Si Si2 0.178530 0.297829 0.367145
Si Si3 0.953359 0.271861 0.461982
Si Si4 0.530091 0.370043 0.589195
Si Si5 0.294762 0.433332 0.444348
Si Si6 0.731307 0.062081 0.257969
O O1 0.553765 0.186001 0.396613
O O2 0.606460 0.095534 0.235477
O O3 0.250000 0.250000 0.500000
O O4 0.154854 0.271116 0.195399
O O5 0.239677 0.365800 0.375962
O O6 0.057654 0.303539 0.408634
O O7 0.983838 0.197396 0.498808
O O8 0.500000 0.357382 0.750000
O O9 0.435331 0.421940 0.496840
O O10 0.662162 0.395449 0.633803
O O11 0.245864 0.492039 0.332710
O O12 0.257369 0.442987 0.596891
#
# Coordination Sequence:
#
# PCOD9278537 Si02
#       6
#     4   8   8   8   8   8
#     4  12  28  44  60 100 146 174 214 276 334 392
#     4  11  20  42  73  97 122 174 232 268 330 394
#     4  11  23  40  69  99 131 173 223 278 329 392
#     4  10  20  43  71  96 125 170 222 279 329 388
#     4  11  23  43  70  94 131 170 224 271 332 397
#     4  11  26  43  64  94 135 177 218 270 332 402
#
# _framework density 20.259810000000002
#
# number of rings (size 3 to 8) (size 9 to 14) (size 15 to 20)
#    0.000    1.091    5.455    1.636    2.545    2.909 
#    3.273    0.000    0.000    0.000    0.000    0.000 
#    0.000    0.000    0.000    0.000    0.000    0.000 
#
# Total GULP energy -122910.704023 kJ/mol
# GULP energy per Si atom -5586.850183 kJ/mol
# Density = 2.021370 g / cm^3
# Si number density = 20.259810 Si / 1000 Ang^3
#
#
#
# Elastic Constant Matrix: (Units=GPa)
#
#
# Indices 1 2 3 4 5 6 
#
# 1 87.7320 43.6550 19.2625 0.0000 10.6291 0.0000
# 2 43.6550 138.4665 47.0133 0.0000 8.9181 0.0000
# 3 19.2625 47.0133 97.4605 0.0000 14.3572 0.0000
# 4 0.0000 0.0000 0.0000 39.7640 0.0000 16.5980
# 5 10.6291 8.9181 14.3572 0.0000 16.5315 0.0000
# 6 0.0000 0.0000 0.0000 16.5980 0.0000 12.3395
#
#
#
# Elastic Compliance Matrix: (Units=1/GPa)
#
#
# Indices 1 2 3 4 5 6 
#
# 1 0.014261 -0.004109 0.000215 0.000000 -0.007139 0.000000
# 2 -0.004109 0.009841 -0.004062 0.000000 0.000861 0.000000
# 3 0.000215 -0.004062 0.013617 0.000000 -0.009773 0.000000
# 4 0.000000 0.000000 0.000000 0.057346 0.000000 -0.077137
# 5 -0.007139 0.000861 -0.009773 0.000000 0.073104 0.000000
# 6 0.000000 0.000000 0.000000 -0.077137 0.000000 0.184797
#
#
# Mechanical properties :
#
#
# Convention : Reuss Voigt Hill
#
# Bulk Modulus (GPa) = 45.85567 60.39121 53.12344
# Shear Modulus (GPa) = 13.29264 27.97555 20.63410
#
# Velocity S-wave (km/s) = 2.56424 3.72000 3.19482
# Velocity P-wave (km/s) = 5.60804 6.95157 6.31563
#
# Compressibility (1/GPa) = 0.02180755
#
# Stress axis : x y z
#
# Youngs Moduli (GPa) = 70.12212 101.61326 73.43705
#
# Poissons Ratio (x) = 0.41757 -0.01582
# Poissons Ratio (y) = 0.28816 0.29829
# Poissons Ratio (z) = -0.01511 0.41274
#
# Static dielectric constant tensor:
#      x y z
#    x 1.712180 0.000000 -0.047190 
#    y 0.000000 1.699140 0.000000 
#    z -0.047190 0.000000 1.532590 
# 
# From -- ./inp_files/30976.got.cif
#   From: 2010.05.17/outbox.cif.g08.bks.cpg/sg15_16_cif.got.tgz:30976.got - 2010.06.03 18:47:42.
