data_PCOD9278699
_publ_section_title
;
Structure prediction by ZEFSAII (Michael W. Deem and Ramdas Pophale) SiO2 
 PCOD9278699
Probable space group: C 2/C
;
_chemical_formula_sum "Si O2"
_cell_formula_units_Z 48
_cell_length_a 10.631385
_cell_length_b 23.620875
_cell_length_c 8.650463
_cell_angle_alpha 90.000000
_cell_angle_beta 109.025163
_cell_angle_gamma 90.000000
_cell_volume 2053.664634
_symmetry_space_group_name_H-M "C 2/C"
_symmetry_group_IT_number 15
_symmetry_cell_setting 'monoclinic'
loop_
_space_group_symop_operation_xyz
x,y,z
-x,y,1/2-z
-x,-y,-z
x,-y,1/2+z
1/2+x,1/2+y,z
1/2-x,1/2+y,1/2-z
1/2-x,1/2-y,-z
1/2+x,1/2-y,1/2+z
loop_
_atom_site_type_symbol
_atom_site_label
_atom_site_fract_x
_atom_site_fract_y
_atom_site_fract_z
Si Si1 0.751118 0.071685 0.014701
Si Si2 0.000000 0.616933 0.750000
Si Si3 0.000000 0.303060 0.750000
Si Si4 0.864934 0.285173 0.391716
Si Si5 0.632956 0.637740 0.903223
Si Si6 0.211063 0.833293 0.749750
Si Si7 0.151120 0.975663 0.258312
O O1 0.605735 0.079811 0.884855
O O2 0.839080 0.044246 0.914223
O O3 0.795808 0.133256 0.093537
O O4 0.761168 0.029616 0.163571
O O5 0.073480 0.660778 0.666921
O O6 0.135501 0.335667 0.752697
O O7 0.959512 0.271273 0.575664
O O8 0.726703 0.309553 0.400452
O O9 0.835209 0.231988 0.270349
O O10 0.500000 0.641494 0.750000
O O11 0.697795 0.578650 0.876210
O O12 0.619888 0.637804 0.082046
O O13 0.000000 0.987418 0.250000
#
# Coordination Sequence:
#
# PCOD9278699 Si02
#       7
#     8   4   4   8   8   8   8
#     4  12  26  50  74 109 141 195 239 306 371 421
#     4  12  26  50  67 106 156 185 250 300 348 450
#     4  10  20  44  71 104 154 187 248 288 354 426
#     4  11  24  44  71 105 152 196 236 302 351 443
#     4  10  22  43  73 108 141 189 241 299 359 429
#     4  11  25  41  75 108 149 199 237 294 368 430
#     4  11  25  50  77 103 144 179 249 308 360 438
#
# _framework density 23.372854
#
# number of rings (size 3 to 8) (size 9 to 14) (size 15 to 20)
#    0.000    1.000    3.333    3.500    4.667    2.667 
#    7.500    1.667    0.000    0.000    0.000    0.000 
#    0.000    0.000    0.000    0.000    0.000    0.000 
#
# Total GULP energy -134220.084045 kJ/mol
# GULP energy per Si atom -5592.503502 kJ/mol
# Density = 2.331966 g / cm^3
# Si number density = 23.372854 Si / 1000 Ang^3
#
#
#
# Elastic Constant Matrix: (Units=GPa)
#
#
# Indices 1 2 3 4 5 6 
#
# 1 84.7541 25.8887 57.6621 0.0000 10.9012 0.0000
# 2 25.8887 113.3256 47.8994 0.0000 19.8198 0.0000
# 3 57.6621 47.8994 115.8332 0.0000 25.0285 0.0000
# 4 0.0000 0.0000 0.0000 44.2794 0.0000 -0.3336
# 5 10.9012 19.8198 25.0285 0.0000 33.3462 0.0000
# 6 0.0000 0.0000 0.0000 -0.3336 0.0000 -20.3163
#
#
#
# Elastic Compliance Matrix: (Units=1/GPa)
#
#
# Indices 1 2 3 4 5 6 
#
# 1 0.017892 -0.000510 -0.008949 0.000000 0.001171 0.000000
# 2 -0.000510 0.011088 -0.003513 0.000000 -0.003787 0.000000
# 3 -0.008949 -0.003513 0.016062 0.000000 -0.007042 0.000000
# 4 0.000000 0.000000 0.000000 0.022581 0.000000 -0.000371
# 5 0.001171 -0.003787 -0.007042 0.000000 0.037142 0.000000
# 6 0.000000 0.000000 0.000000 -0.000371 0.000000 -0.049216
#
#
# Mechanical properties :
#
#
# Convention : Reuss Voigt Hill
#
# Bulk Modulus (GPa) = 52.35906 64.09037 58.22471
# Shear Modulus (GPa) = 56.90857 23.62603 40.26730
#
# Velocity S-wave (km/s) = 4.93974 3.18281 4.15519
# Velocity P-wave (km/s) = 7.41518 6.40214 6.92721
#
# Compressibility (1/GPa) = 0.01909889
#
# Stress axis : x y z
#
# Youngs Moduli (GPa) = 55.88953 90.18993 62.25728
#
# Poissons Ratio (x) = 0.04596 0.55715
# Poissons Ratio (y) = 0.02848 0.21871
# Poissons Ratio (z) = 0.50016 0.31684
#
# Static dielectric constant tensor:
#      x y z
#    x 1.949170 0.000000 -0.031760 
#    y 0.000000 1.890020 0.000000 
#    z -0.031760 0.000000 1.910620 
# 
# From -- ./inp_files/32668.got.cif
#   From: 2010.05.17/outbox.cif.g08.bks.cpg/sg15_17_cif.got.tgz:32668.got - 2010.06.03 18:47:42.
