data_PCOD9278965
_publ_section_title
;
Structure prediction by ZEFSAII (Michael W. Deem and Ramdas Pophale) SiO2 
 PCOD9278965
Probable space group: C 2/C
;
_chemical_formula_sum "Si O2"
_cell_formula_units_Z 56
_cell_length_a 24.865268
_cell_length_b 11.261754
_cell_length_c 17.158691
_cell_angle_alpha 90.000000
_cell_angle_beta 145.520381
_cell_angle_gamma 90.000000
_cell_volume 2720.110194
_symmetry_space_group_name_H-M "C 2/C"
_symmetry_group_IT_number 15
_symmetry_cell_setting 'monoclinic'
loop_
_space_group_symop_operation_xyz
x,y,z
-x,y,1/2-z
-x,-y,-z
x,-y,1/2+z
1/2+x,1/2+y,z
1/2-x,1/2+y,1/2-z
1/2-x,1/2-y,-z
1/2+x,1/2-y,1/2+z
loop_
_atom_site_type_symbol
_atom_site_label
_atom_site_fract_x
_atom_site_fract_y
_atom_site_fract_z
Si Si1 0.137334 0.078171 0.675409
Si Si2 0.886149 0.568980 0.106397
Si Si3 0.848729 0.697819 0.211784
Si Si4 0.940208 0.826310 0.875568
Si Si5 0.331514 0.165705 0.630313
Si Si6 0.430718 0.136809 0.992126
Si Si7 0.292500 0.010441 0.733949
O O1 0.158562 0.167524 0.771228
O O2 0.216648 0.052297 0.705981
O O3 0.049601 0.139648 0.523570
O O4 0.110965 0.952869 0.682957
O O5 0.836428 0.657331 0.108314
O O6 0.859442 0.434219 0.099643
O O7 0.000000 0.573713 0.250000
O O8 0.874552 0.615603 0.005126
O O9 0.782808 0.622101 0.190883
O O10 0.957769 0.653110 0.358012
O O11 0.914940 0.747431 0.769136
O O12 0.905243 0.750539 0.908805
O O13 0.250000 0.250000 0.500000
O O14 0.291985 0.091609 0.656605
O O15 0.395272 0.027494 0.897272
#
# Coordination Sequence:
#
# PCOD9278965 Si02
#       7
#     8   8   8   8   8   8   8
#     4  10  21  37  60  82 115 165 194 237 302 356
#     4   9  19  36  59  86 112 149 191 240 301 346
#     4   9  19  36  55  86 118 145 195 246 290 352
#     4   9  21  40  57  84 120 153 200 242 292 371
#     4  10  22  37  55  87 122 147 193 252 300 353
#     4   9  18  35  61  83 113 149 190 250 296 345
#     4  10  21  33  57  86 110 149 202 241 292 358
#
# _framework density 20.587402000000001
#
# number of rings (size 3 to 8) (size 9 to 14) (size 15 to 20)
#    0.000    2.571    0.000    0.429    6.000    4.571 
#    0.000    2.143    0.000    6.000    0.000    0.000 
#    0.000    0.000    0.000    0.000    0.000    0.000 
#
# Total GULP energy -156059.443705 kJ/mol
# GULP energy per Si atom -5573.551561 kJ/mol
# Density = 2.054054 g / cm^3
# Si number density = 20.587402 Si / 1000 Ang^3
#
#
#
# Elastic Constant Matrix: (Units=GPa)
#
#
# Indices 1 2 3 4 5 6 
#
# 1 114.3655 53.8786 30.9433 0.0000 -6.2123 0.0000
# 2 53.8786 107.0924 24.2697 0.0000 -13.5913 0.0000
# 3 30.9433 24.2697 60.0414 0.0000 -11.3266 0.0000
# 4 0.0000 0.0000 0.0000 15.5939 0.0000 8.1409
# 5 -6.2123 -13.5913 -11.3266 0.0000 28.8027 0.0000
# 6 0.0000 0.0000 0.0000 8.1409 0.0000 22.7526
#
#
#
# Elastic Compliance Matrix: (Units=1/GPa)
#
#
# Indices 1 2 3 4 5 6 
#
# 1 0.012444 -0.005446 -0.004526 0.000000 -0.001666 0.000000
# 2 -0.005446 0.012995 -0.001632 0.000000 0.004316 0.000000
# 3 -0.004526 -0.001632 0.020866 0.000000 0.006459 0.000000
# 4 0.000000 0.000000 0.000000 0.078858 0.000000 -0.028216
# 5 -0.001666 0.004316 0.006459 0.000000 0.038936 0.000000
# 6 0.000000 0.000000 0.000000 -0.028216 0.000000 0.054047
#
#
# Mechanical properties :
#
#
# Convention : Reuss Voigt Hill
#
# Bulk Modulus (GPa) = 43.29621 55.52029 49.40825
# Shear Modulus (GPa) = 20.07608 24.92368 22.49988
#
# Velocity S-wave (km/s) = 3.12615 3.48318 3.30948
# Velocity P-wave (km/s) = 5.84008 6.57293 6.21731
#
# Compressibility (1/GPa) = 0.02309671
#
# Stress axis : x y z
#
# Youngs Moduli (GPa) = 80.36191 76.95089 47.92531
#
# Poissons Ratio (x) = 0.41909 0.21690
# Poissons Ratio (y) = 0.43767 0.07821
# Poissons Ratio (z) = 0.36371 0.12558
#
# Static dielectric constant tensor:
#      x y z
#    x 1.710930 0.000000 0.000350 
#    y 0.000000 1.749650 0.000000 
#    z 0.000350 0.000000 1.806860 
# 
# From -- ./inp_files/219173.got.cif
#   From: 2010.05.17/outbox.cif.g08.bks.cpg/sg15_110_cif.got.tgz:219173.got - 2010.06.03 18:47:42.
