data_PCOD9278162
_publ_section_title
;
Structure prediction by ZEFSAII (Michael W. Deem and Ramdas Pophale) SiO2 
 PCOD9278162
Probable space group: C 2/C
;
_chemical_formula_sum "Si O2"
_cell_formula_units_Z 40
_cell_length_a 22.329274
_cell_length_b 10.831431
_cell_length_c 9.875829
_cell_angle_alpha 90.000000
_cell_angle_beta 41.585340
_cell_angle_gamma 90.000000
_cell_volume 1585.362666
_symmetry_space_group_name_H-M "C 2/C"
_symmetry_group_IT_number 15
_symmetry_cell_setting 'monoclinic'
loop_
_space_group_symop_operation_xyz
x,y,z
-x,y,1/2-z
-x,-y,-z
x,-y,1/2+z
1/2+x,1/2+y,z
1/2-x,1/2+y,1/2-z
1/2-x,1/2-y,-z
1/2+x,1/2-y,1/2+z
loop_
_atom_site_type_symbol
_atom_site_label
_atom_site_fract_x
_atom_site_fract_y
_atom_site_fract_z
Si Si1 0.671270 0.641680 0.119818
Si Si2 0.096906 0.555946 0.423864
Si Si3 0.781486 0.979233 0.697691
Si Si4 0.500000 0.251774 0.750000
Si Si5 0.679892 0.832145 0.539880
Si Si6 0.000000 0.338782 0.750000
O O1 0.656979 0.590356 0.297605
O O2 0.584003 0.681089 0.179596
O O3 0.750000 0.750000 0.000000
O O4 0.695448 0.517534 0.993339
O O5 0.187230 0.593115 0.351539
O O6 0.031346 0.664959 0.573830
O O7 0.131745 0.560018 0.211465
O O8 0.051229 0.430880 0.555649
O O9 0.742368 0.108519 0.820853
O O10 0.750000 0.750000 0.500000
O O11 0.587252 0.763892 0.653091
#
# Coordination Sequence:
#
# PCOD9278162 Si02
#       6
#     8   8   8   4   8   4
#     4  12  26  47  75 108 149 195 240 301 370 433
#     4  10  20  42  66  99 133 179 241 295 340 414
#     4  11  24  45  73 102 145 192 235 299 367 429
#     4  11  24  42  73 108 144 190 243 296 365 438
#     4  11  22  39  65 101 138 172 233 292 356 417
#     4   9  22  36  63  94 132 182 227 292 341 410
#
# _framework density 25.230820999999999
#
# number of rings (size 3 to 8) (size 9 to 14) (size 15 to 20)
#    0.000    1.200    4.000    1.800    0.000    4.000 
#    0.000    1.000    0.000    0.000    0.000    0.000 
#    0.000    0.000    0.000    0.000    0.000    0.000 
#
# Total GULP energy -111373.031585 kJ/mol
# GULP energy per Si atom -5568.651579 kJ/mol
# Density = 2.517339 g / cm^3
# Si number density = 25.230821 Si / 1000 Ang^3
#
#
#
# Elastic Constant Matrix: (Units=GPa)
#
#
# Indices 1 2 3 4 5 6 
#
# 1 166.9543 40.1907 33.7149 0.0000 -35.1749 0.0000
# 2 40.1907 61.7416 27.9314 0.0000 -10.1671 0.0000
# 3 33.7149 27.9314 63.9246 0.0000 7.2806 0.0000
# 4 0.0000 0.0000 0.0000 32.7571 0.0000 4.1089
# 5 -35.1749 -10.1671 7.2806 0.0000 63.4718 0.0000
# 6 0.0000 0.0000 0.0000 4.1089 0.0000 49.4193
#
#
#
# Elastic Compliance Matrix: (Units=1/GPa)
#
#
# Indices 1 2 3 4 5 6 
#
# 1 0.008433 -0.003097 -0.003618 0.000000 0.004593 0.000000
# 2 -0.003097 0.022554 -0.008549 0.000000 0.002877 0.000000
# 3 -0.003618 -0.008549 0.021958 0.000000 -0.005893 0.000000
# 4 0.000000 0.000000 0.000000 0.030850 0.000000 -0.002565
# 5 0.004593 0.002877 -0.005893 0.000000 0.019437 0.000000
# 6 0.000000 0.000000 0.000000 -0.002565 0.000000 0.020448
#
#
# Mechanical properties :
#
#
# Convention : Reuss Voigt Hill
#
# Bulk Modulus (GPa) = 44.60731 55.14386 49.87559
# Shear Modulus (GPa) = 30.92530 41.84851 36.38690
#
# Velocity S-wave (km/s) = 3.50479 4.07704 3.80170
# Velocity P-wave (km/s) = 5.83919 6.63824 6.25150
#
# Compressibility (1/GPa) = 0.02241785
#
# Stress axis : x y z
#
# Youngs Moduli (GPa) = 118.57750 44.33864 45.54108
#
# Poissons Ratio (x) = 0.13730 0.16476
# Poissons Ratio (y) = 0.36720 0.38934
# Poissons Ratio (z) = 0.42899 0.37906
#
# Static dielectric constant tensor:
#      x y z
#    x 2.196130 0.000000 0.020240 
#    y 0.000000 2.018140 0.000000 
#    z 0.020240 0.000000 2.049110 
# 
# From -- ./inp_files/117400.got.cif
#   From: 2010.05.17/outbox.cif.g08.bks.cpg/sg15_59_cif.got.tgz:117400.got - 2010.06.03 18:47:42.
