data_PCOD9278752
_publ_section_title
;
Structure prediction by ZEFSAII (Michael W. Deem and Ramdas Pophale) SiO2 
 PCOD9278752
Probable space group: C 2/C
;
_chemical_formula_sum "Si O2"
_cell_formula_units_Z 40
_cell_length_a 16.025816
_cell_length_b 4.984369
_cell_length_c 18.036827
_cell_angle_alpha 90.000000
_cell_angle_beta 92.132274
_cell_angle_gamma 90.000000
_cell_volume 1439.758549
_symmetry_space_group_name_H-M "C 2/C"
_symmetry_group_IT_number 15
_symmetry_cell_setting 'monoclinic'
loop_
_space_group_symop_operation_xyz
x,y,z
-x,y,1/2-z
-x,-y,-z
x,-y,1/2+z
1/2+x,1/2+y,z
1/2-x,1/2+y,1/2-z
1/2-x,1/2-y,-z
1/2+x,1/2-y,1/2+z
loop_
_atom_site_type_symbol
_atom_site_label
_atom_site_fract_x
_atom_site_fract_y
_atom_site_fract_z
Si Si1 0.443162 0.158067 0.918850
Si Si2 0.945223 0.668898 0.185607
Si Si3 0.591530 0.562256 0.945655
Si Si4 0.211046 0.058861 0.063098
Si Si5 0.789614 0.346972 0.210279
O O1 0.509970 0.398846 0.921969
O O2 0.352005 0.257116 0.890393
O O3 0.483298 0.940802 0.867605
O O4 0.426500 0.164719 0.007449
O O5 0.880472 0.841080 0.133855
O O6 0.887486 0.430675 0.215189
O O7 0.000000 0.810722 0.250000
O O8 0.648101 0.397620 0.005690
O O9 0.261871 0.882536 0.122442
O O10 0.250000 0.250000 0.000000
O O11 0.761030 0.068571 0.243969
#
# Coordination Sequence:
#
# PCOD9278752 Si02
#       5
#     8   8   8   8   8
#     4   9  21  41  66  95 133 177 241 286 345 426
#     4  12  25  40  68  99 140 188 233 295 356 435
#     4   9  21  41  68  96 131 179 237 284 353 416
#     4  10  20  45  70 103 138 185 242 296 356 427
#     4  12  29  49  70 107 150 188 237 302 369 422
#
# _framework density 27.782437000000002
#
# number of rings (size 3 to 8) (size 9 to 14) (size 15 to 20)
#    1.200    0.400    2.000    1.800    5.600    0.800 
#    3.600    2.000    0.000    0.000    0.000    0.000 
#    0.000    0.000    0.000    0.000    0.000    0.000 
#
# Total GULP energy -111565.449165 kJ/mol
# GULP energy per Si atom -5578.272458 kJ/mol
# Density = 2.771920 g / cm^3
# Si number density = 27.782437 Si / 1000 Ang^3
#
#
#
# Elastic Constant Matrix: (Units=GPa)
#
#
# Indices 1 2 3 4 5 6 
#
# 1 70.2965 5.1430 40.7682 0.0000 3.9801 0.0000
# 2 5.1430 76.9600 37.4048 0.0000 -2.5916 0.0000
# 3 40.7682 37.4048 165.2078 0.0000 22.6278 0.0000
# 4 0.0000 0.0000 0.0000 33.7353 0.0000 -12.7026
# 5 3.9801 -2.5916 22.6278 0.0000 52.3241 0.0000
# 6 0.0000 0.0000 0.0000 -12.7026 0.0000 33.9103
#
#
#
# Elastic Compliance Matrix: (Units=1/GPa)
#
#
# Indices 1 2 3 4 5 6 
#
# 1 0.016693 0.001076 -0.004461 0.000000 0.000713 0.000000
# 2 0.001076 0.014932 -0.003972 0.000000 0.002375 0.000000
# 3 -0.004461 -0.003972 0.008539 0.000000 -0.003550 0.000000
# 4 0.000000 0.000000 0.000000 0.034510 0.000000 0.012927
# 5 0.000713 0.002375 -0.003550 0.000000 0.020710 0.000000
# 6 0.000000 0.000000 0.000000 0.012927 0.000000 0.034332
#
#
# Mechanical properties :
#
#
# Convention : Reuss Voigt Hill
#
# Bulk Modulus (GPa) = 39.28849 53.23292 46.26070
# Shear Modulus (GPa) = 32.69817 39.27050 35.98433
#
# Velocity S-wave (km/s) = 3.43437 3.76373 3.60282
# Velocity P-wave (km/s) = 5.46797 6.17170 5.83046
#
# Compressibility (1/GPa) = 0.02545275
#
# Stress axis : x y z
#
# Youngs Moduli (GPa) = 59.90419 66.96926 117.10603
#
# Poissons Ratio (x) = -0.07209 0.52238
# Poissons Ratio (y) = -0.06449 0.46512
# Poissons Ratio (z) = 0.26722 0.26599
#
# Static dielectric constant tensor:
#      x y z
#    x 2.494120 0.000000 0.013590 
#    y 0.000000 2.194560 0.000000 
#    z 0.013590 0.000000 2.214480 
# 
# From -- ./inp_files/208008.got.cif
#   From: 2010.05.17/outbox.cif.g08.bks.cpg/sg15_105_cif.got.tgz:208008.got - 2010.06.03 18:47:42.
