data_PCOD9278544
_publ_section_title
;
Structure prediction by ZEFSAII (Michael W. Deem and Ramdas Pophale) SiO2 
 PCOD9278544
Probable space group: C 2/C
;
_chemical_formula_sum "Si O2"
_cell_formula_units_Z 36
_cell_length_a 8.436765
_cell_length_b 11.272848
_cell_length_c 17.394282
_cell_angle_alpha 90.000000
_cell_angle_beta 110.541073
_cell_angle_gamma 90.000000
_cell_volume 1549.127658
_symmetry_space_group_name_H-M "C 2/C"
_symmetry_group_IT_number 15
_symmetry_cell_setting 'monoclinic'
loop_
_space_group_symop_operation_xyz
x,y,z
-x,y,1/2-z
-x,-y,-z
x,-y,1/2+z
1/2+x,1/2+y,z
1/2-x,1/2+y,1/2-z
1/2-x,1/2-y,-z
1/2+x,1/2-y,1/2+z
loop_
_atom_site_type_symbol
_atom_site_label
_atom_site_fract_x
_atom_site_fract_y
_atom_site_fract_z
Si Si1 0.881991 0.189739 0.305158
Si Si2 0.571214 0.210088 0.430732
Si Si3 0.895222 0.655410 0.545848
Si Si4 0.000000 0.304527 0.750000
Si Si5 0.614641 0.541407 0.590679
O O1 0.691660 0.235942 0.258752
O O2 0.000000 0.191005 0.250000
O O3 0.964356 0.276951 0.381181
O O4 0.884509 0.057026 0.342354
O O5 0.750000 0.250000 0.500000
O O6 0.476865 0.128658 0.477263
O O7 0.560176 0.151381 0.345019
O O8 0.472191 0.334617 0.401510
O O9 0.750000 0.750000 0.500000
O O10 0.796616 0.565137 0.583201
O O11 0.500000 0.500000 0.500000
#
# Coordination Sequence:
#
# PCOD9278544 Si02
#       5
#     8   8   8   4   8
#     4  12  25  47  70 104 151 186 243 311 362 438
#     4  11  22  45  70  99 143 190 236 297 366 434
#     4  10  20  43  72  93 141 193 230 294 377 420
#     4  12  26  46  72 108 142 188 244 300 374 440
#     4  11  22  42  71 103 136 188 248 295 363 439
#
# _framework density 23.238886000000001
#
# number of rings (size 3 to 8) (size 9 to 14) (size 15 to 20)
#    0.000    0.889    6.667    2.667    1.556    0.000 
#   10.000    2.222    0.000    0.000    0.000    0.000 
#    0.000    0.000    0.000    0.000    0.000    0.000 
#
# Total GULP energy -100275.643249 kJ/mol
# GULP energy per Si atom -5570.869069 kJ/mol
# Density = 2.318599 g / cm^3
# Si number density = 23.238886 Si / 1000 Ang^3
#
#
#
# Elastic Constant Matrix: (Units=GPa)
#
#
# Indices 1 2 3 4 5 6 
#
# 1 170.7005 14.5477 72.7386 0.0000 3.9658 0.0000
# 2 14.5477 69.1616 39.8965 0.0000 7.0511 0.0000
# 3 72.7386 39.8965 180.9768 0.0000 -3.6895 0.0000
# 4 0.0000 0.0000 0.0000 30.4018 0.0000 -7.5606
# 5 3.9658 7.0511 -3.6895 0.0000 66.6018 0.0000
# 6 0.0000 0.0000 0.0000 -7.5606 0.0000 27.0986
#
#
#
# Elastic Compliance Matrix: (Units=1/GPa)
#
#
# Indices 1 2 3 4 5 6 
#
# 1 0.007095 0.000254 -0.002920 0.000000 -0.000611 0.000000
# 2 0.000254 0.016834 -0.003854 0.000000 -0.002011 0.000000
# 3 -0.002920 -0.003854 0.007569 0.000000 0.001001 0.000000
# 4 0.000000 0.000000 0.000000 0.035345 0.000000 0.009861
# 5 -0.000611 -0.002011 0.001001 0.000000 0.015319 0.000000
# 6 0.000000 0.000000 0.000000 0.009861 0.000000 0.039654
#
#
# Mechanical properties :
#
#
# Convention : Reuss Voigt Hill
#
# Bulk Modulus (GPa) = 54.17670 75.02271 64.59971
# Shear Modulus (GPa) = 35.45865 44.39751 39.92808
#
# Velocity S-wave (km/s) = 3.91043 4.37565 4.14956
# Velocity P-wave (km/s) = 6.61454 7.60801 7.12860
#
# Compressibility (1/GPa) = 0.01845812
#
# Stress axis : x y z
#
# Youngs Moduli (GPa) = 140.94249 59.40444 132.11143
#
# Poissons Ratio (x) = -0.01512 0.38580
# Poissons Ratio (y) = -0.03587 0.50920
# Poissons Ratio (z) = 0.41158 0.22896
#
# Static dielectric constant tensor:
#      x y z
#    x 2.020790 0.000000 -0.007820 
#    y 0.000000 1.911860 0.000000 
#    z -0.007820 0.000000 1.912910 
# 
# From -- ./inp_files/187996.got.cif
#   From: 2010.05.17/outbox.cif.g08.bks.cpg/sg15_94_cif.got.tgz:187996.got - 2010.06.03 18:47:42.
