data_PCOD9278391
_publ_section_title
;
Structure prediction by ZEFSAII (Michael W. Deem and Ramdas Pophale) SiO2 
 PCOD9278391
Probable space group: C 2/C
;
_chemical_formula_sum "Si O2"
_cell_formula_units_Z 44
_cell_length_a 9.029058
_cell_length_b 24.618542
_cell_length_c 14.096141
_cell_angle_alpha 90.000000
_cell_angle_beta 38.021110
_cell_angle_gamma 90.000000
_cell_volume 1929.975130
_symmetry_space_group_name_H-M "C 2/C"
_symmetry_group_IT_number 15
_symmetry_cell_setting 'monoclinic'
loop_
_space_group_symop_operation_xyz
x,y,z
-x,y,1/2-z
-x,-y,-z
x,-y,1/2+z
1/2+x,1/2+y,z
1/2-x,1/2+y,1/2-z
1/2-x,1/2-y,-z
1/2+x,1/2-y,1/2+z
loop_
_atom_site_type_symbol
_atom_site_label
_atom_site_fract_x
_atom_site_fract_y
_atom_site_fract_z
Si Si1 0.500000 0.761401 0.250000
Si Si2 0.024040 0.003090 0.101390
Si Si3 0.842700 0.407174 0.738348
Si Si4 0.082481 0.177720 0.043882
Si Si5 0.770124 0.101578 0.893024
Si Si6 0.933935 0.412025 0.394695
O O1 0.251832 0.795971 0.377577
O O2 0.496856 0.724128 0.158226
O O3 0.790464 0.040888 0.243013
O O4 0.107815 0.947407 0.108260
O O5 0.253779 0.039858 0.004301
O O6 0.000000 0.000000 0.000000
O O7 0.632761 0.364053 0.872166
O O8 0.000000 0.424769 0.750000
O O9 0.040349 0.380225 0.569644
O O10 0.283279 0.141602 0.995620
O O11 0.656222 0.083411 0.851067
O O12 0.000000 0.138618 0.750000
O O13 0.000000 0.411538 0.250000
#
# Coordination Sequence:
#
# PCOD9278391 Si02
#       6
#     4   8   8   8   8   8
#     4  10  20  42  74 104 128 164 224 288 354 444
#     4  11  24  40  63  92 133 185 230 277 328 389
#     4  11  25  44  65  98 141 180 228 284 340 405
#     4  10  22  42  72 101 133 173 222 284 358 413
#     4  12  27  39  64  95 133 187 237 280 327 392
#     4  11  24  41  62  96 140 177 230 280 338 399
#
# _framework density 22.798221000000002
#
# number of rings (size 3 to 8) (size 9 to 14) (size 15 to 20)
#    0.000    1.091    2.727    2.727   10.182    1.455 
#    0.000    0.909    0.000    4.364    0.000    0.000 
#    0.000    0.000    0.000    0.000    0.000    0.000 
#
# Total GULP energy -122770.446763 kJ/mol
# GULP energy per Si atom -5580.474853 kJ/mol
# Density = 2.274633 g / cm^3
# Si number density = 22.798221 Si / 1000 Ang^3
#
#
#
# Elastic Constant Matrix: (Units=GPa)
#
#
# Indices 1 2 3 4 5 6 
#
# 1 144.0932 8.3873 40.6090 0.0000 -17.7743 0.0000
# 2 8.3873 67.5092 30.7143 0.0000 -18.2902 0.0000
# 3 40.6090 30.7143 154.7132 0.0000 -24.2428 0.0000
# 4 0.0000 0.0000 0.0000 15.6642 0.0000 2.3609
# 5 -17.7743 -18.2902 -24.2428 0.0000 47.4390 0.0000
# 6 0.0000 0.0000 0.0000 2.3609 0.0000 11.4834
#
#
#
# Elastic Compliance Matrix: (Units=1/GPa)
#
#
# Indices 1 2 3 4 5 6 
#
# 1 0.007676 0.000429 -0.001765 0.000000 0.002140 0.000000
# 2 0.000429 0.017491 -0.002721 0.000000 0.005514 0.000000
# 3 -0.001765 -0.002721 0.007826 0.000000 0.002289 0.000000
# 4 0.000000 0.000000 0.000000 0.065881 0.000000 -0.013545
# 5 0.002140 0.005514 0.002289 0.000000 0.025177 0.000000
# 6 0.000000 0.000000 0.000000 -0.013545 0.000000 0.089867
#
#
# Mechanical properties :
#
#
# Convention : Reuss Voigt Hill
#
# Bulk Modulus (GPa) = 40.19367 58.41521 49.30444
# Shear Modulus (GPa) = 21.70846 34.02433 27.86640
#
# Velocity S-wave (km/s) = 3.08912 3.86737 3.49994
# Velocity P-wave (km/s) = 5.51289 6.75428 6.16492
#
# Compressibility (1/GPa) = 0.02487954
#
# Stress axis : x y z
#
# Youngs Moduli (GPa) = 130.27172 57.17100 127.78551
#
# Poissons Ratio (x) = -0.02452 0.22551
# Poissons Ratio (y) = -0.05587 0.34771
# Poissons Ratio (z) = 0.22989 0.15556
#
# Static dielectric constant tensor:
#      x y z
#    x 1.522280 0.000000 -0.116840 
#    y 0.000000 1.909490 0.000000 
#    z -0.116840 0.000000 1.942570 
# 
# From -- ./inp_files/138396.got.cif
#   From: 2010.05.17/outbox.cif.g08.bks.cpg/sg15_70_cif.got.tgz:138396.got - 2010.06.03 18:47:42.
