data_PCOD9278716
_publ_section_title
;
Structure prediction by ZEFSAII (Michael W. Deem and Ramdas Pophale) SiO2 
 PCOD9278716
Probable space group: C 2/C
;
_chemical_formula_sum "Si O2"
_cell_formula_units_Z 36
_cell_length_a 18.571711
_cell_length_b 20.790193
_cell_length_c 9.888273
_cell_angle_alpha 90.000000
_cell_angle_beta 160.231233
_cell_angle_gamma 90.000000
_cell_volume 1291.327987
_symmetry_space_group_name_H-M "C 2/C"
_symmetry_group_IT_number 15
_symmetry_cell_setting 'monoclinic'
loop_
_space_group_symop_operation_xyz
x,y,z
-x,y,1/2-z
-x,-y,-z
x,-y,1/2+z
1/2+x,1/2+y,z
1/2-x,1/2+y,1/2-z
1/2-x,1/2-y,-z
1/2+x,1/2-y,1/2+z
loop_
_atom_site_type_symbol
_atom_site_label
_atom_site_fract_x
_atom_site_fract_y
_atom_site_fract_z
Si Si1 0.930789 0.893374 0.389666
Si Si2 0.500000 0.829828 0.250000
Si Si3 0.657317 0.045882 0.194503
Si Si4 0.000000 0.662570 0.250000
Si Si5 0.000000 0.972152 0.750000
Si Si6 0.498245 0.747568 0.516205
O O1 0.069757 0.925400 0.750363
O O2 0.047475 0.828238 0.549304
O O3 0.868859 0.938922 0.157139
O O4 0.696599 0.874991 0.033158
O O5 0.593093 0.886171 0.517816
O O6 0.457767 0.777624 0.298040
O O7 0.776402 0.001311 0.297030
O O8 0.500000 0.000000 0.000000
O O9 0.900450 0.708044 0.958974
O O10 0.750000 0.750000 0.000000
#
# Coordination Sequence:
#
# PCOD9278716 Si02
#       6
#     8   4   8   4   4   8
#     4  11  23  47  69 106 154 184 262 317 378 458
#     4  12  23  47  80 102 150 202 254 308 398 452
#     4  12  26  48  75 109 154 207 259 311 385 458
#     4  10  20  44  74 104 150 192 242 320 384 468
#     4  12  27  45  72 110 150 202 258 322 372 456
#     4  10  22  44  72 111 144 191 249 320 385 449
#
# _framework density 27.878278000000002
#
# number of rings (size 3 to 8) (size 9 to 14) (size 15 to 20)
#    0.000    0.889    4.444    4.000    0.000    0.889 
#    8.000    5.556    0.000    0.000    0.000    0.000 
#    0.000    0.000    0.000    0.000    0.000    0.000 
#
# Total GULP energy -100499.960352 kJ/mol
# GULP energy per Si atom -5583.331131 kJ/mol
# Density = 2.781483 g / cm^3
# Si number density = 27.878278 Si / 1000 Ang^3
#
#
#
# Elastic Constant Matrix: (Units=GPa)
#
#
# Indices 1 2 3 4 5 6 
#
# 1 71.4061 -24.0548 2.8655 0.0000 10.9740 0.0000
# 2 -24.0548 100.4823 0.3225 0.0000 17.2939 0.0000
# 3 2.8655 0.3225 92.1299 0.0000 -0.0439 0.0000
# 4 0.0000 0.0000 0.0000 46.3907 0.0000 -10.8685
# 5 10.9740 17.2939 -0.0439 0.0000 49.0279 0.0000
# 6 0.0000 0.0000 0.0000 -10.8685 0.0000 33.4849
#
#
#
# Elastic Compliance Matrix: (Units=1/GPa)
#
#
# Indices 1 2 3 4 5 6 
#
# 1 0.016504 0.004885 -0.000533 0.000000 -0.005418 0.000000
# 2 0.004885 0.012041 -0.000197 0.000000 -0.005341 0.000000
# 3 -0.000533 -0.000197 0.010872 0.000000 0.000198 0.000000
# 4 0.000000 0.000000 0.000000 0.023330 0.000000 0.007573
# 5 -0.005418 -0.005341 0.000198 0.000000 0.023493 0.000000
# 6 0.000000 0.000000 0.000000 0.007573 0.000000 0.032322
#
#
# Mechanical properties :
#
#
# Convention : Reuss Voigt Hill
#
# Bulk Modulus (GPa) = 20.95207 24.69830 22.82519
# Shear Modulus (GPa) = 39.63190 44.77304 42.20247
#
# Velocity S-wave (km/s) = 3.77451 4.01186 3.89499
# Velocity P-wave (km/s) = 5.15051 5.50805 5.33228
#
# Compressibility (1/GPa) = 0.04772798
#
# Stress axis : x y z
#
# Youngs Moduli (GPa) = 60.59109 83.04728 91.98276
#
# Poissons Ratio (x) = -0.40570 0.04903
# Poissons Ratio (y) = -0.29599 0.01809
# Poissons Ratio (z) = 0.03230 0.01633
#
# Static dielectric constant tensor:
#      x y z
#    x 2.154070 0.000000 0.047080 
#    y 0.000000 2.282550 0.000000 
#    z 0.047080 0.000000 2.213130 
# 
# From -- ./inp_files/50558.got.cif
#   From: 2010.05.17/outbox.cif.g08.bks.cpg/sg15_26_cif.got.tgz:50558.got - 2010.06.03 18:47:42.
