data_PCOD9278849
_publ_section_title
;
Structure prediction by ZEFSAII (Michael W. Deem and Ramdas Pophale) SiO2 
 PCOD9278849
Probable space group: C 2/C
;
_chemical_formula_sum "Si O2"
_cell_formula_units_Z 52
_cell_length_a 23.268863
_cell_length_b 13.455118
_cell_length_c 21.805523
_cell_angle_alpha 90.000000
_cell_angle_beta 19.525468
_cell_angle_gamma 90.000000
_cell_volume 2281.755955
_symmetry_space_group_name_H-M "C 2/C"
_symmetry_group_IT_number 15
_symmetry_cell_setting 'monoclinic'
loop_
_space_group_symop_operation_xyz
x,y,z
-x,y,1/2-z
-x,-y,-z
x,-y,1/2+z
1/2+x,1/2+y,z
1/2-x,1/2+y,1/2-z
1/2-x,1/2-y,-z
1/2+x,1/2-y,1/2+z
loop_
_atom_site_type_symbol
_atom_site_label
_atom_site_fract_x
_atom_site_fract_y
_atom_site_fract_z
Si Si1 0.359739 0.390524 0.079975
Si Si2 0.158647 0.156388 0.503550
Si Si3 0.638619 0.431181 0.561286
Si Si4 0.500000 0.032181 0.750000
Si Si5 0.934469 0.633344 0.409187
Si Si6 0.345482 0.626479 0.124776
Si Si7 0.541957 0.113364 0.975699
O O1 0.344997 0.508554 0.110524
O O2 0.183000 0.348702 0.285980
O O3 0.378701 0.383063 0.988276
O O4 0.527140 0.355608 0.947828
O O5 0.103633 0.051369 0.587509
O O6 0.360782 0.142060 0.292517
O O7 0.082009 0.169211 0.512093
O O8 0.130360 0.266233 0.558298
O O9 0.500000 0.395042 0.750000
O O10 0.836801 0.415434 0.383023
O O11 0.592919 0.961311 0.606190
O O12 0.877047 0.616351 0.537126
O O13 0.149005 0.659637 0.332777
O O14 0.500000 0.000000 0.000000
#
# Coordination Sequence:
#
# PCOD9278849 Si02
#       7
#     8   8   8   4   8   8   8
#     4   9  17  30  50  68  85 124 166 204 256 286
#     4   9  20  32  44  71  99 132 176 200 238 296
#     4  10  22  34  48  70 100 135 175 204 240 291
#     4  10  22  34  44  66 104 142 174 200 228 278
#     4  10  21  31  48  70  99 142 172 201 241 285
#     4   8  16  30  46  67  92 117 159 214 247 282
#     4   9  17  31  48  67  90 123 168 209 250 288
#
# _framework density 22.789466999999998
#
# number of rings (size 3 to 8) (size 9 to 14) (size 15 to 20)
#    0.000    2.769    0.000    2.769    5.385    6.154 
#    0.000    0.000    0.000    0.000    0.000    0.000 
#    0.000    1.231    3.538    0.615    0.000    0.000 
#
# Total GULP energy -145091.907200 kJ/mol
# GULP energy per Si atom -5580.457969 kJ/mol
# Density = 2.273760 g / cm^3
# Si number density = 22.789467 Si / 1000 Ang^3
#
#
#
# Elastic Constant Matrix: (Units=GPa)
#
#
# Indices 1 2 3 4 5 6 
#
# 1 156.6681 -6.5976 71.9863 -0.0009 -2.1450 -0.0006
# 2 -6.5976 38.0817 -5.4365 -0.0018 -0.6014 0.0004
# 3 71.9863 -5.4365 107.7339 -0.0050 19.4542 0.0038
# 4 -0.0009 -0.0018 -0.0050 12.3263 0.0011 -13.4183
# 5 -2.1450 -0.6014 19.4542 0.0011 37.3110 -0.0008
# 6 -0.0006 0.0004 0.0038 -13.4183 -0.0008 2.1606
#
#
#
# Elastic Compliance Matrix: (Units=1/GPa)
#
#
# Indices 1 2 3 4 5 6 
#
# 1 0.009845 0.000728 -0.007337 -0.000003 0.004403 0.000000
# 2 0.000728 0.026507 0.000846 0.000000 0.000028 -0.000003
# 3 -0.007337 0.000846 0.015787 0.000005 -0.008640 -0.000001
# 4 -0.000003 0.000000 0.000005 -0.014083 -0.000004 -0.087462
# 5 0.004403 0.000028 -0.008640 -0.000004 0.031560 0.000001
# 6 0.000000 -0.000003 -0.000001 -0.087462 0.000001 -0.080344
#
#
# Mechanical properties :
#
#
# Convention : Reuss Voigt Hill
#
# Bulk Modulus (GPa) = 24.62228 46.93202 35.77715
# Shear Modulus (GPa) = 348.81657 26.52835 187.67246
#
# Velocity S-wave (km/s) = 12.38518 3.41554 9.08456
# Velocity P-wave (km/s) = 14.67485 6.01606 11.21482
#
# Compressibility (1/GPa) = 0.04061362
#
# Stress axis : x y z
#
# Youngs Moduli (GPa) = 101.57568 37.72637 63.34267
#
# Poissons Ratio (x) = -0.02746 0.46472
# Poissons Ratio (y) = -0.07392 -0.05360
# Poissons Ratio (z) = 0.74522 -0.03193
#
# Static dielectric constant tensor:
#      x y z
#    x 1.896050 0.000000 0.025990 
#    y 0.000000 1.889920 0.000000 
#    z 0.025990 0.000000 1.844360 
# 
# From -- ./inp_files/48927.got.cif
#   From: 2010.05.17/outbox.cif.g08.bks.cpg/sg15_25_cif.got.tgz:48927.got - 2010.06.03 18:47:42.
