data_PCOD9278442
_publ_section_title
;
Structure prediction by ZEFSAII (Michael W. Deem and Ramdas Pophale) SiO2 
 PCOD9278442
Probable space group: C 2/C
;
_chemical_formula_sum "Si O2"
_cell_formula_units_Z 56
_cell_length_a 6.656549
_cell_length_b 14.228626
_cell_length_c 26.690735
_cell_angle_alpha 90.000000
_cell_angle_beta 93.532818
_cell_angle_gamma 90.000000
_cell_volume 2523.170170
_symmetry_space_group_name_H-M "C 2/C"
_symmetry_group_IT_number 15
_symmetry_cell_setting 'monoclinic'
loop_
_space_group_symop_operation_xyz
x,y,z
-x,y,1/2-z
-x,-y,-z
x,-y,1/2+z
1/2+x,1/2+y,z
1/2-x,1/2+y,1/2-z
1/2-x,1/2-y,-z
1/2+x,1/2-y,1/2+z
loop_
_atom_site_type_symbol
_atom_site_label
_atom_site_fract_x
_atom_site_fract_y
_atom_site_fract_z
Si Si1 0.797252 0.523000 0.635895
Si Si2 0.112639 0.314409 0.565098
Si Si3 0.546722 0.379500 0.853072
Si Si4 0.048885 0.835918 0.193265
Si Si5 0.241162 0.273856 0.115856
Si Si6 0.605383 0.860458 0.454952
Si Si7 0.401713 0.890912 0.801134
O O1 0.596502 0.462137 0.632854
O O2 0.739009 0.611298 0.671101
O O3 0.845580 0.553951 0.580545
O O4 0.975156 0.459046 0.660204
O O5 0.275965 0.360158 0.604453
O O6 0.214605 0.214772 0.551352
O O7 0.085602 0.372845 0.513843
O O8 0.904963 0.290092 0.589545
O O9 0.402586 0.288661 0.850702
O O10 0.664222 0.405091 0.804387
O O11 0.076175 0.722331 0.192303
O O12 0.000000 0.862470 0.250000
O O13 0.860165 0.847486 0.152421
O O14 0.098192 0.317768 0.071659
O O15 0.500000 0.913583 0.750000
#
# Coordination Sequence:
#
# PCOD9278442 Si02
#       7
#     8   8   8   8   8   8   8
#     4  12  25  43  68 101 135 177 224 284 339 412
#     4  10  20  43  65 100 136 179 231 276 343 409
#     4  11  23  42  69  95 138 175 219 288 337 407
#     4  11  24  45  69 101 135 178 230 276 345 413
#     4  11  20  45  69  96 136 178 228 283 337 405
#     4  10  23  37  70 100 135 183 225 282 342 404
#     4  11  26  48  68  99 138 181 228 286 347 406
#
# _framework density 22.194300999999999
#
# number of rings (size 3 to 8) (size 9 to 14) (size 15 to 20)
#    0.000    1.143    4.286    1.286    4.000    0.571 
#    0.000    4.286    0.000    0.000    0.000    0.000 
#    0.000    0.000    0.000    0.000    0.000    0.000 
#
# Total GULP energy -156493.868424 kJ/mol
# GULP energy per Si atom -5589.066729 kJ/mol
# Density = 2.214379 g / cm^3
# Si number density = 22.194301 Si / 1000 Ang^3
#
#
#
# Elastic Constant Matrix: (Units=GPa)
#
#
# Indices 1 2 3 4 5 6 
#
# 1 126.0078 26.2121 20.2333 0.0000 -23.1675 0.0000
# 2 26.2121 51.0315 2.9307 0.0000 -4.0018 0.0000
# 3 20.2333 2.9307 62.9637 0.0000 -25.3502 0.0000
# 4 0.0000 0.0000 0.0000 -6.6968 0.0000 -19.7605
# 5 -23.1675 -4.0018 -25.3502 0.0000 28.7938 0.0000
# 6 0.0000 0.0000 0.0000 -19.7605 0.0000 30.4486
#
#
#
# Elastic Compliance Matrix: (Units=1/GPa)
#
#
# Indices 1 2 3 4 5 6 
#
# 1 0.010321 -0.004701 -0.000027 0.000000 0.007627 0.000000
# 2 -0.004701 0.021957 0.000301 0.000000 -0.000466 0.000000
# 3 -0.000027 0.000301 0.024607 0.000000 0.021685 0.000000
# 4 0.000000 0.000000 0.000000 -0.051227 0.000000 -0.033245
# 5 0.007627 -0.000466 0.021685 0.000000 0.059892 0.000000
# 6 0.000000 0.000000 0.000000 -0.033245 0.000000 0.011267
#
#
# Mechanical properties :
#
#
# Convention : Reuss Voigt Hill
#
# Bulk Modulus (GPa) = 20.82028 37.63945 29.22986
# Shear Modulus (GPa) = 49.17307 23.21758 36.19533
#
# Velocity S-wave (km/s) = 4.71209 3.23786 4.04275
# Velocity P-wave (km/s) = 6.24551 5.56545 5.91526
#
# Compressibility (1/GPa) = 0.04803009
#
# Stress axis : x y z
#
# Youngs Moduli (GPa) = 96.89380 45.54403 40.63824
#
# Poissons Ratio (x) = 0.21412 0.00110
# Poissons Ratio (y) = 0.45554 -0.01224
# Poissons Ratio (z) = 0.00262 -0.01372
#
# Static dielectric constant tensor:
#      x y z
#    x 1.803640 0.000000 -0.012010 
#    y 0.000000 1.872670 0.000000 
#    z -0.012010 0.000000 1.861780 
# 
# From -- ./inp_files/305399.got.cif
#   From: 2010.05.17/outbox.cif.g08.bks.cpg/sg15_153_cif.got.tgz:305399.got - 2010.06.03 18:47:42.
