data_PCOD9278805
_publ_section_title
;
Structure prediction by ZEFSAII (Michael W. Deem and Ramdas Pophale) SiO2 
 PCOD9278805
Probable space group: C 2/C
;
_chemical_formula_sum "Si O2"
_cell_formula_units_Z 60
_cell_length_a 9.217708
_cell_length_b 13.758694
_cell_length_c 19.513266
_cell_angle_alpha 90.000000
_cell_angle_beta 111.954724
_cell_angle_gamma 90.000000
_cell_volume 2295.273708
_symmetry_space_group_name_H-M "C 2/C"
_symmetry_group_IT_number 15
_symmetry_cell_setting 'monoclinic'
loop_
_space_group_symop_operation_xyz
x,y,z
-x,y,1/2-z
-x,-y,-z
x,-y,1/2+z
1/2+x,1/2+y,z
1/2-x,1/2+y,1/2-z
1/2-x,1/2-y,-z
1/2+x,1/2-y,1/2+z
loop_
_atom_site_type_symbol
_atom_site_label
_atom_site_fract_x
_atom_site_fract_y
_atom_site_fract_z
Si Si1 0.318998 0.503997 0.486131
Si Si2 0.258736 0.607171 0.105919
Si Si3 0.346835 0.578048 0.771405
Si Si4 0.500000 0.204644 0.250000
Si Si5 0.688149 0.625852 0.232506
Si Si6 0.171837 0.814145 0.093373
Si Si7 0.580685 0.162910 0.473019
Si Si8 0.195123 0.303262 0.146246
O O1 0.500000 0.500000 0.500000
O O2 0.316731 0.474595 0.565535
O O3 0.263838 0.407394 0.435617
O O4 0.220641 0.603526 0.459663
O O5 0.345500 0.607905 0.193822
O O6 0.271115 0.720815 0.086861
O O7 0.070487 0.596584 0.068959
O O8 0.500000 0.577852 0.750000
O O9 0.339236 0.476123 0.808444
O O10 0.324795 0.660146 0.825341
O O11 0.205947 0.599922 0.693923
O O12 0.376099 0.142444 0.269529
O O13 0.375983 0.262198 0.179912
O O14 0.620605 0.715973 0.178178
O O15 0.994296 0.770925 0.053650
O O16 0.868430 0.325876 0.439008
#
# Coordination Sequence:
#
# PCOD9278805 Si02
#       8
#     8   8   8   4   8   8   8   8
#     4  12  27  45  74 116 152 206 270 319 401 488
#     4  10  23  51  75 109 157 206 257 336 405 469
#     4  12  24  45  74 105 147 197 259 321 390 479
#     4   8  20  42  70 104 142 186 258 310 376 468
#     4  10  22  43  81 102 148 200 254 326 394 477
#     4  10  26  49  73 109 153 205 258 337 391 481
#     4  10  25  47  82 107 159 206 258 332 411 471
#     4  10  20  46  75 108 141 197 261 316 392 474
#
# _framework density 26.140673
#
# number of rings (size 3 to 8) (size 9 to 14) (size 15 to 20)
#    1.600    0.000    2.000    1.600    3.733    2.667 
#    4.800    0.000    1.467    0.000    0.000    0.000 
#    0.000    0.000    0.000    0.000    0.000    0.000 
#
# Total GULP energy -167243.754364 kJ/mol
# GULP energy per Si atom -5574.791812 kJ/mol
# Density = 2.608118 g / cm^3
# Si number density = 26.140673 Si / 1000 Ang^3
#
#
#
# Elastic Constant Matrix: (Units=GPa)
#
#
# Indices 1 2 3 4 5 6 
#
# 1 107.9878 19.5272 27.4304 0.0000 14.0774 0.0000
# 2 19.5272 99.3722 14.4863 0.0000 5.7030 0.0000
# 3 27.4304 14.4863 132.3541 0.0000 20.3547 0.0000
# 4 0.0000 0.0000 0.0000 36.9459 0.0000 -14.6837
# 5 14.0774 5.7030 20.3547 0.0000 31.9619 0.0000
# 6 0.0000 0.0000 0.0000 -14.6837 0.0000 37.6898
#
#
#
# Elastic Compliance Matrix: (Units=1/GPa)
#
#
# Indices 1 2 3 4 5 6 
#
# 1 0.010361 -0.001632 -0.001454 0.000000 -0.003346 0.000000
# 2 -0.001632 0.010527 -0.000705 0.000000 -0.000711 0.000000
# 3 -0.001454 -0.000705 0.008665 0.000000 -0.004752 0.000000
# 4 0.000000 0.000000 0.000000 0.032025 0.000000 0.012477
# 5 -0.003346 -0.000711 -0.004752 0.000000 0.035914 0.000000
# 6 0.000000 0.000000 0.000000 0.012477 0.000000 0.031393
#
#
# Mechanical properties :
#
#
# Convention : Reuss Voigt Hill
#
# Bulk Modulus (GPa) = 45.51321 51.40022 48.45671
# Shear Modulus (GPa) = 34.77260 39.87085 37.32172
#
# Velocity S-wave (km/s) = 3.65116 3.90967 3.78263
# Velocity P-wave (km/s) = 5.93492 6.33138 6.13635
#
# Compressibility (1/GPa) = 0.02197164
#
# Stress axis : x y z
#
# Youngs Moduli (GPa) = 96.51591 94.99029 115.40979
#
# Poissons Ratio (x) = 0.15502 0.16782
# Poissons Ratio (y) = 0.15751 0.08133
# Poissons Ratio (z) = 0.14034 0.06694
#
# Static dielectric constant tensor:
#      x y z
#    x 2.175220 0.000000 -0.043500 
#    y 0.000000 2.263620 0.000000 
#    z -0.043500 0.000000 2.084610 
# 
# From -- ./inp_files/269560.got.cif
#   From: 2010.05.17/outbox.cif.g08.bks.cpg/sg15_135_cif.got.tgz:269560.got - 2010.06.03 18:47:42.
