data_PCOD9278221
_publ_section_title
;
Structure prediction by ZEFSAII (Michael W. Deem and Ramdas Pophale) SiO2 
 PCOD9278221
Probable space group: C 2/C
;
_chemical_formula_sum "Si O2"
_cell_formula_units_Z 36
_cell_length_a 21.731339
_cell_length_b 12.284792
_cell_length_c 10.878167
_cell_angle_alpha 90.000000
_cell_angle_beta 30.987230
_cell_angle_gamma 90.000000
_cell_volume 1495.161886
_symmetry_space_group_name_H-M "C 2/C"
_symmetry_group_IT_number 15
_symmetry_cell_setting 'monoclinic'
loop_
_space_group_symop_operation_xyz
x,y,z
-x,y,1/2-z
-x,-y,-z
x,-y,1/2+z
1/2+x,1/2+y,z
1/2-x,1/2+y,1/2-z
1/2-x,1/2-y,-z
1/2+x,1/2-y,1/2+z
loop_
_atom_site_type_symbol
_atom_site_label
_atom_site_fract_x
_atom_site_fract_y
_atom_site_fract_z
Si Si1 0.000000 0.550629 0.750000
Si Si2 0.120776 0.256922 0.904122
Si Si3 0.961172 0.655722 0.189273
Si Si4 0.724716 0.161104 0.648442
Si Si5 0.452499 0.449899 0.706323
O O1 0.085967 0.629484 0.527714
O O2 0.925450 0.465013 0.795074
O O3 0.226442 0.204218 0.802895
O O4 0.127722 0.283077 0.748156
O O5 0.011507 0.171061 0.103590
O O6 0.000000 0.713730 0.250000
O O7 0.085307 0.640454 0.902157
O O8 0.750000 0.250000 0.500000
O O9 0.810730 0.061929 0.463337
O O10 0.500000 0.504213 0.750000
O O11 0.500000 0.500000 0.500000
#
# Coordination Sequence:
#
# PCOD9278221 Si02
#       5
#     4   8   8   8   8
#     4  10  20  42  68  90 136 170 222 278 326 398
#     4  11  20  44  68  91 136 174 215 282 335 393
#     4  10  24  39  67 103 131 172 232 280 326 412
#     4  11  21  43  71  92 133 188 210 271 357 391
#     4  10  22  43  68  96 135 174 222 275 342 406
#
# _framework density 24.077660000000002
#
# number of rings (size 3 to 8) (size 9 to 14) (size 15 to 20)
#    0.667    0.889    5.556    0.667    0.000    1.778 
#   16.000    0.000    0.000    0.000    0.000    0.000 
#    0.000    0.000    0.000    0.000    0.000    0.000 
#
# Total GULP energy -100543.159233 kJ/mol
# GULP energy per Si atom -5585.731069 kJ/mol
# Density = 2.402286 g / cm^3
# Si number density = 24.077660 Si / 1000 Ang^3
#
#
#
# Elastic Constant Matrix: (Units=GPa)
#
#
# Indices 1 2 3 4 5 6 
#
# 1 133.6366 29.8536 65.5356 0.0000 23.6721 0.0000
# 2 29.8536 66.3849 30.6659 0.0000 17.8110 0.0000
# 3 65.5356 30.6659 124.0679 0.0000 18.2932 0.0000
# 4 0.0000 0.0000 0.0000 19.3276 0.0000 25.6398
# 5 23.6721 17.8110 18.2932 0.0000 58.2638 0.0000
# 6 0.0000 0.0000 0.0000 25.6398 0.0000 26.5249
#
#
#
# Elastic Compliance Matrix: (Units=1/GPa)
#
#
# Indices 1 2 3 4 5 6 
#
# 1 0.010686 -0.001980 -0.004828 0.000000 -0.002221 0.000000
# 2 -0.001980 0.018344 -0.002915 0.000000 -0.003888 0.000000
# 3 -0.004828 -0.002915 0.011440 0.000000 -0.000739 0.000000
# 4 0.000000 0.000000 0.000000 -0.183267 0.000000 0.177151
# 5 -0.002221 -0.003888 -0.000739 0.000000 0.019486 0.000000
# 6 0.000000 0.000000 0.000000 0.177151 0.000000 -0.133539
#
#
# Mechanical properties :
#
#
# Convention : Reuss Voigt Hill
#
# Bulk Modulus (GPa) = 47.56368 64.02218 55.79293
# Shear Modulus (GPa) = -21.70171 34.02556 6.16193
#
# Velocity S-wave (km/s) = -3.00546 3.76328 1.60148
# Velocity P-wave (km/s) = 2.78450 6.74764 5.16159
#
# Compressibility (1/GPa) = 0.02102445
#
# Stress axis : x y z
#
# Youngs Moduli (GPa) = 93.57833 54.51485 87.41370
#
# Poissons Ratio (x) = 0.10792 0.42203
# Poissons Ratio (y) = 0.18525 0.25482
# Poissons Ratio (z) = 0.45180 0.15891
#
# Static dielectric constant tensor:
#      x y z
#    x 2.009600 0.000000 0.052340 
#    y 0.000000 1.943270 0.000000 
#    z 0.052340 0.000000 2.030770 
# 
# From -- ./inp_files/62139.got.cif
#   From: 2010.05.17/outbox.cif.g08.bks.cpg/sg15_32_cif.got.tgz:62139.got - 2010.06.03 18:47:42.
