data_PCOD9278098
_publ_section_title
;
Structure prediction by ZEFSAII (Michael W. Deem and Ramdas Pophale) SiO2 
 PCOD9278098
Probable space group: C 2/C
;
_chemical_formula_sum "Si O2"
_cell_formula_units_Z 48
_cell_length_a 13.310871
_cell_length_b 13.665095
_cell_length_c 16.837258
_cell_angle_alpha 90.000000
_cell_angle_beta 40.054723
_cell_angle_gamma 90.000000
_cell_volume 1970.842166
_symmetry_space_group_name_H-M "C 2/C"
_symmetry_group_IT_number 15
_symmetry_cell_setting 'monoclinic'
loop_
_space_group_symop_operation_xyz
x,y,z
-x,y,1/2-z
-x,-y,-z
x,-y,1/2+z
1/2+x,1/2+y,z
1/2-x,1/2+y,1/2-z
1/2-x,1/2-y,-z
1/2+x,1/2-y,1/2+z
loop_
_atom_site_type_symbol
_atom_site_label
_atom_site_fract_x
_atom_site_fract_y
_atom_site_fract_z
Si Si1 0.110210 0.083933 0.523970
Si Si2 0.357963 0.500328 0.286439
Si Si3 0.348442 0.613192 0.570591
Si Si4 0.375750 0.123537 0.460716
Si Si5 0.037160 0.430644 0.317115
Si Si6 0.877218 0.330538 0.565772
O O1 0.251370 0.151614 0.467250
O O2 0.028446 0.105594 0.489723
O O3 0.171973 0.971141 0.482545
O O4 0.964137 0.074898 0.671335
O O5 0.500000 0.549411 0.250000
O O6 0.238674 0.433825 0.409127
O O7 0.250773 0.591997 0.324707
O O8 0.222313 0.580474 0.712314
O O9 0.313825 0.725841 0.576722
O O10 0.487484 0.042922 0.353339
O O11 0.506981 0.813392 0.556523
O O12 0.000000 0.394518 0.250000
O O13 0.956421 0.377220 0.439719
#
# Coordination Sequence:
#
# PCOD9278098 Si02
#       6
#     8   8   8   8   8   8
#     4  10  21  41  62  88 123 167 206 250 316 386
#     4   9  19  38  64  86 117 158 202 246 306 378
#     4  11  24  38  59  92 129 159 204 264 316 362
#     4  10  20  42  66  89 117 168 211 249 311 378
#     4  11  22  42  62  88 125 164 205 253 316 377
#     4  11  24  38  64  95 124 160 209 265 308 364
#
# _framework density 24.355070999999999
#
# number of rings (size 3 to 8) (size 9 to 14) (size 15 to 20)
#    0.000    1.667    1.667    4.000    2.333    2.000 
#    0.000    0.000    0.000    1.000    0.000    0.000 
#    0.000    0.000    0.000    0.000    0.000    0.000 
#
# Total GULP energy -133798.196242 kJ/mol
# GULP energy per Si atom -5574.924843 kJ/mol
# Density = 2.429964 g / cm^3
# Si number density = 24.355071 Si / 1000 Ang^3
#
#
#
# Elastic Constant Matrix: (Units=GPa)
#
#
# Indices 1 2 3 4 5 6 
#
# 1 107.7800 -8.7124 -2.7355 0.0000 -31.5276 0.0000
# 2 -8.7124 35.1913 -3.3235 -0.0001 -3.9956 0.0000
# 3 -2.7355 -3.3235 83.2602 -0.0003 -7.1110 0.0001
# 4 0.0000 -0.0001 -0.0003 11.7216 0.0001 -2.3717
# 5 -31.5276 -3.9956 -7.1110 0.0001 43.3076 0.0000
# 6 0.0000 0.0000 0.0001 -2.3717 0.0000 24.8659
#
#
#
# Elastic Compliance Matrix: (Units=1/GPa)
#
#
# Indices 1 2 3 4 5 6 
#
# 1 0.012515 0.004338 0.001417 0.000000 0.009744 0.000000
# 2 0.004338 0.030381 0.001891 0.000000 0.006272 0.000000
# 3 0.001417 0.001891 0.012410 0.000000 0.003243 0.000000
# 4 0.000000 0.000000 0.000000 0.086991 0.000000 0.008297
# 5 0.009744 0.006272 0.003243 0.000000 0.031295 0.000000
# 6 0.000000 0.000000 0.000000 0.008297 0.000000 0.041007
#
#
# Mechanical properties :
#
#
# Convention : Reuss Voigt Hill
#
# Bulk Modulus (GPa) = 14.16484 21.85430 18.00957
# Shear Modulus (GPa) = 22.43765 32.04589 27.24177
#
# Velocity S-wave (km/s) = 3.03854 3.63130 3.34806
# Velocity P-wave (km/s) = 4.25898 5.15504 4.72829
#
# Compressibility (1/GPa) = 0.07059732
#
# Stress axis : x y z
#
# Youngs Moduli (GPa) = 79.90396 32.91543 80.58304
#
# Poissons Ratio (x) = -0.14280 -0.11415
# Poissons Ratio (y) = -0.34666 -0.15238
# Poissons Ratio (z) = -0.11319 -0.06224
#
# Static dielectric constant tensor:
#      x y z
#    x 2.144460 0.000000 0.006620 
#    y 0.000000 1.907410 0.000000 
#    z 0.006620 0.000000 1.914440 
# 
# From -- ./inp_files/277382.got.cif
#   From: 2010.05.17/outbox.cif.g08.bks.cpg/sg15_139_cif.got.tgz:277382.got - 2010.06.03 18:47:42.
