data_PCOD9278240
_publ_section_title
;
Structure prediction by ZEFSAII (Michael W. Deem and Ramdas Pophale) SiO2 
 PCOD9278240
Probable space group: C 2/C
;
_chemical_formula_sum "Si O2"
_cell_formula_units_Z 36
_cell_length_a 16.679123
_cell_length_b 17.904417
_cell_length_c 9.431430
_cell_angle_alpha 90.000000
_cell_angle_beta 143.325480
_cell_angle_gamma 90.000000
_cell_volume 1682.211409
_symmetry_space_group_name_H-M "C 2/C"
_symmetry_group_IT_number 15
_symmetry_cell_setting 'monoclinic'
loop_
_space_group_symop_operation_xyz
x,y,z
-x,y,1/2-z
-x,-y,-z
x,-y,1/2+z
1/2+x,1/2+y,z
1/2-x,1/2+y,1/2-z
1/2-x,1/2-y,-z
1/2+x,1/2-y,1/2+z
loop_
_atom_site_type_symbol
_atom_site_label
_atom_site_fract_x
_atom_site_fract_y
_atom_site_fract_z
Si Si1 0.793008 0.156936 0.446807
Si Si2 0.715624 0.119770 0.651201
Si Si3 0.903472 0.003299 0.496283
Si Si4 0.344686 0.247966 0.493500
Si Si5 0.000000 0.287347 0.750000
O O1 0.729420 0.124703 0.500461
O O2 0.874978 0.088298 0.497790
O O3 0.883822 0.227935 0.623977
O O4 0.702876 0.186971 0.189773
O O5 0.569873 0.158540 0.465232
O O6 0.762870 0.039057 0.770305
O O7 0.819748 0.174481 0.875953
O O8 0.000000 0.000000 0.500000
O O9 0.000000 0.966851 0.750000
O O10 0.500000 0.238072 0.750000
O O11 0.250000 0.250000 0.500000
#
# Coordination Sequence:
#
# PCOD9278240 Si02
#       5
#     8   8   8   8   4
#     4  11  24  43  70  93 138 186 228 281 347 417
#     4  11  25  42  71  95 137 184 227 284 347 414
#     4  12  24  43  68  98 134 177 237 288 343 414
#     4  11  27  42  69 105 140 177 233 292 346 409
#     4  10  20  42  68  94 124 178 226 268 344 404
#
# _framework density 21.400400999999999
#
# number of rings (size 3 to 8) (size 9 to 14) (size 15 to 20)
#    0.000    0.889    3.333    3.333   18.667    0.000 
#    2.000    1.111    0.000    0.000    0.000    0.000 
#    0.000    0.000    0.000    0.000    0.000    0.000 
#
# Total GULP energy -100377.005721 kJ/mol
# GULP energy per Si atom -5576.500318 kJ/mol
# Density = 2.135169 g / cm^3
# Si number density = 21.400401 Si / 1000 Ang^3
#
#
#
# Elastic Constant Matrix: (Units=GPa)
#
#
# Indices 1 2 3 4 5 6 
#
# 1 109.7089 18.1773 53.0942 0.0000 -14.9279 0.0000
# 2 18.1773 109.8772 54.5912 0.0000 10.4525 0.0000
# 3 53.0942 54.5912 183.0349 0.0000 11.6293 0.0000
# 4 0.0000 0.0000 0.0000 34.8328 0.0000 6.2183
# 5 -14.9279 10.4525 11.6293 0.0000 45.4599 0.0000
# 6 0.0000 0.0000 0.0000 6.2183 0.0000 21.9786
#
#
#
# Elastic Compliance Matrix: (Units=1/GPa)
#
#
# Indices 1 2 3 4 5 6 
#
# 1 0.011557 -0.000650 -0.003466 0.000000 0.004831 0.000000
# 2 -0.000650 0.010847 -0.002922 0.000000 -0.001960 0.000000
# 3 -0.003466 -0.002922 0.007492 0.000000 -0.002383 0.000000
# 4 0.000000 0.000000 0.000000 0.030236 0.000000 -0.008554
# 5 0.004831 -0.001960 -0.002383 0.000000 0.024644 0.000000
# 6 0.000000 0.000000 0.000000 -0.008554 0.000000 0.047919
#
#
# Mechanical properties :
#
#
# Convention : Reuss Voigt Hill
#
# Bulk Modulus (GPa) = 63.20794 72.70515 67.95654
# Shear Modulus (GPa) = 32.88540 38.90481 35.89510
#
# Velocity S-wave (km/s) = 3.92429 4.26837 4.09994
# Velocity P-wave (km/s) = 7.08050 7.63802 7.36454
#
# Compressibility (1/GPa) = 0.01582080
#
# Stress axis : x y z
#
# Youngs Moduli (GPa) = 86.52571 92.19296 133.48130
#
# Poissons Ratio (x) = 0.05989 0.46260
# Poissons Ratio (y) = 0.05621 0.39005
# Poissons Ratio (z) = 0.29987 0.26940
#
# Static dielectric constant tensor:
#      x y z
#    x 1.889490 0.000000 0.068350 
#    y 0.000000 1.756470 0.000000 
#    z 0.068350 0.000000 1.802560 
# 
# From -- ./inp_files/48844.got.cif
#   From: 2010.05.17/outbox.cif.g08.bks.cpg/sg15_25_cif.got.tgz:48844.got - 2010.06.03 18:47:42.
