data_PCOD9278717
_publ_section_title
;
Structure prediction by ZEFSAII (Michael W. Deem and Ramdas Pophale) SiO2 
 PCOD9278717
Probable space group: C 2/C
;
_chemical_formula_sum "Si O2"
_cell_formula_units_Z 48
_cell_length_a 20.610978
_cell_length_b 4.834570
_cell_length_c 18.607771
_cell_angle_alpha 90.000000
_cell_angle_beta 66.741030
_cell_angle_gamma 90.000000
_cell_volume 1703.485414
_symmetry_space_group_name_H-M "C 2/C"
_symmetry_group_IT_number 15
_symmetry_cell_setting 'monoclinic'
loop_
_space_group_symop_operation_xyz
x,y,z
-x,y,1/2-z
-x,-y,-z
x,-y,1/2+z
1/2+x,1/2+y,z
1/2-x,1/2+y,1/2-z
1/2-x,1/2-y,-z
1/2+x,1/2-y,1/2+z
loop_
_atom_site_type_symbol
_atom_site_label
_atom_site_fract_x
_atom_site_fract_y
_atom_site_fract_z
Si Si1 0.230569 0.479847 0.803185
Si Si2 0.438295 0.716188 0.226537
Si Si3 0.369371 0.242739 0.330919
Si Si4 0.759962 0.901708 0.071358
Si Si5 0.528480 0.126142 0.088918
Si Si6 0.100599 0.726755 0.434270
O O1 0.383539 0.540951 0.758649
O O2 0.248513 0.789321 0.773491
O O3 0.261050 0.324381 0.859238
O O4 0.148276 0.449405 0.857683
O O5 0.500000 0.601953 0.250000
O O6 0.398338 0.959322 0.285322
O O7 0.482670 0.882075 0.146817
O O8 0.292626 0.159179 0.397480
O O9 0.419945 0.281667 0.378528
O O10 0.842998 0.941357 0.055677
O O11 0.750000 0.750000 0.000000
O O12 0.469013 0.321139 0.078007
O O13 0.574161 0.973630 0.008535
#
# Coordination Sequence:
#
# PCOD9278717 Si02
#       6
#     8   8   8   8   8   8
#     4  10  24  48  72 110 148 202 259 325 389 468
#     4  10  23  41  71 108 148 198 253 321 395 470
#     4  11  22  44  72 110 146 199 259 324 389 473
#     4  10  22  46  75 112 152 202 264 323 392 470
#     4  10  20  44  74 110 158 204 262 324 406 482
#     4   9  22  44  73 108 155 208 259 329 400 483
#
# _framework density 28.177524999999999
#
# number of rings (size 3 to 8) (size 9 to 14) (size 15 to 20)
#    1.000    1.000    1.667    1.500    2.333    1.333 
#    6.000   13.333    0.000   20.000    0.000    0.000 
#    0.000    0.000    0.000    0.000    0.000    0.000 
#
# Total GULP energy -134185.950139 kJ/mol
# GULP energy per Si atom -5591.081256 kJ/mol
# Density = 2.811339 g / cm^3
# Si number density = 28.177525 Si / 1000 Ang^3
#
#
#
# Elastic Constant Matrix: (Units=GPa)
#
#
# Indices 1 2 3 4 5 6 
#
# 1 189.0611 37.2882 56.9079 0.0040 0.9113 0.0096
# 2 37.2882 96.4352 15.8668 0.0001 -4.6073 0.0050
# 3 56.9079 15.8668 149.7579 -0.0066 -5.0823 -0.0174
# 4 0.0040 0.0001 -0.0066 46.9542 0.0009 -5.1378
# 5 0.9113 -4.6073 -5.0823 0.0009 51.2792 0.0013
# 6 0.0096 0.0050 -0.0174 -5.1378 0.0013 24.6445
#
#
#
# Elastic Compliance Matrix: (Units=1/GPa)
#
#
# Indices 1 2 3 4 5 6 
#
# 1 0.006378 -0.002127 -0.002216 -0.000001 -0.000524 -0.000004
# 2 -0.002127 0.011299 -0.000354 0.000000 0.001018 -0.000002
# 3 -0.002216 -0.000354 0.007583 0.000002 0.000759 0.000007
# 4 -0.000001 0.000000 0.000002 0.021795 0.000000 0.004544
# 5 -0.000524 0.001018 0.000759 0.000000 0.019677 -0.000001
# 6 -0.000004 -0.000002 0.000007 0.004544 -0.000001 0.041524
#
#
# Mechanical properties :
#
#
# Convention : Reuss Voigt Hill
#
# Bulk Modulus (GPa) = 63.02990 72.81998 67.92494
# Shear Modulus (GPa) = 40.67047 46.25500 43.46273
#
# Velocity S-wave (km/s) = 3.80329 4.05601 3.93168
# Velocity P-wave (km/s) = 6.45787 6.91624 6.69098
#
# Compressibility (1/GPa) = 0.01586549
#
# Stress axis : x y z
#
# Youngs Moduli (GPa) = 156.78019 88.50405 131.87521
#
# Poissons Ratio (x) = 0.18822 0.29227
# Poissons Ratio (y) = 0.33342 0.04674
# Poissons Ratio (z) = 0.34746 0.03137
#
# Static dielectric constant tensor:
#      x y z
#    x 2.465400 0.000000 0.047080 
#    y 0.000000 2.108440 0.000010 
#    z 0.047080 0.000010 2.177550 
# 
# From -- ./inp_files/209796.got.cif
#   From: 2010.05.17/outbox.cif.g08.bks.cpg/sg15_105_cif.got.tgz:209796.got - 2010.06.03 18:47:42.
