data_PCOD9278270
_publ_section_title
;
Structure prediction by ZEFSAII (Michael W. Deem and Ramdas Pophale) SiO2 
 PCOD9278270
Probable space group: C 2/C
;
_chemical_formula_sum "Si O2"
_cell_formula_units_Z 40
_cell_length_a 9.474676
_cell_length_b 14.865488
_cell_length_c 13.727846
_cell_angle_alpha 90.000000
_cell_angle_beta 75.153000
_cell_angle_gamma 90.000000
_cell_volume 1868.954817
_symmetry_space_group_name_H-M "C 2/C"
_symmetry_group_IT_number 15
_symmetry_cell_setting 'monoclinic'
loop_
_space_group_symop_operation_xyz
x,y,z
-x,y,1/2-z
-x,-y,-z
x,-y,1/2+z
1/2+x,1/2+y,z
1/2-x,1/2+y,1/2-z
1/2-x,1/2-y,-z
1/2+x,1/2-y,1/2+z
loop_
_atom_site_type_symbol
_atom_site_label
_atom_site_fract_x
_atom_site_fract_y
_atom_site_fract_z
Si Si1 0.454677 0.320983 0.651744
Si Si2 0.846817 0.454395 0.553137
Si Si3 0.349806 0.194656 0.219341
Si Si4 0.650005 0.661751 0.948639
Si Si5 0.545389 0.469051 0.137126
O O1 0.500000 0.285419 0.750000
O O2 0.281802 0.309821 0.679804
O O3 0.554925 0.285379 0.547133
O O4 0.493061 0.427252 0.645978
O O5 0.853451 0.395016 0.650966
O O6 0.781776 0.389814 0.479333
O O7 0.718716 0.527908 0.591430
O O8 0.000000 0.500000 0.500000
O O9 0.500000 0.205980 0.250000
O O10 0.318388 0.273562 0.147107
O O11 0.540808 0.586274 0.927143
O O12 0.500000 0.431443 0.250000
#
# Coordination Sequence:
#
# PCOD9278270 Si02
#       5
#     8   8   8   8   8
#     4  10  20  42  69  87 128 187 213 260 336 401
#     4  11  24  42  71  99 131 171 227 283 327 389
#     4  12  26  43  65 101 140 172 221 281 335 388
#     4  11  24  44  69  96 133 177 223 268 339 403
#     4  10  20  43  70  93 128 180 220 259 339 408
#
# _framework density 21.402336999999999
#
# number of rings (size 3 to 8) (size 9 to 14) (size 15 to 20)
#    0.000    1.200    6.000    3.600    5.600    0.800 
#    3.600    0.000    0.000    0.000    0.000    0.000 
#    0.000    0.000    0.000    0.000    0.000    0.000 
#
# Total GULP energy -111746.299164 kJ/mol
# GULP energy per Si atom -5587.314958 kJ/mol
# Density = 2.135362 g / cm^3
# Si number density = 21.402337 Si / 1000 Ang^3
#
#
#
# Elastic Constant Matrix: (Units=GPa)
#
#
# Indices 1 2 3 4 5 6 
#
# 1 192.9927 41.8858 65.3552 0.0000 -22.5479 0.0000
# 2 41.8858 43.9081 29.1980 0.0000 -11.5745 0.0000
# 3 65.3552 29.1980 104.3396 0.0000 -3.4873 0.0000
# 4 0.0000 0.0000 0.0000 26.9433 0.0000 1.7038
# 5 -22.5479 -11.5745 -3.4873 0.0000 49.4686 0.0000
# 6 0.0000 0.0000 0.0000 1.7038 0.0000 19.4830
#
#
#
# Elastic Compliance Matrix: (Units=1/GPa)
#
#
# Indices 1 2 3 4 5 6 
#
# 1 0.007541 -0.004332 -0.003438 0.000000 0.002181 0.000000
# 2 -0.004332 0.032374 -0.006173 0.000000 0.005165 0.000000
# 3 -0.003438 -0.006173 0.013396 0.000000 -0.002067 0.000000
# 4 0.000000 0.000000 0.000000 0.037321 0.000000 -0.003264
# 5 0.002181 0.005165 -0.002067 0.000000 0.022272 0.000000
# 6 0.000000 0.000000 0.000000 -0.003264 0.000000 0.051612
#
#
# Mechanical properties :
#
#
# Convention : Reuss Voigt Hill
#
# Bulk Modulus (GPa) = 39.33323 68.23539 53.78431
# Shear Modulus (GPa) = 24.89064 32.83240 28.86152
#
# Velocity S-wave (km/s) = 3.41396 3.92095 3.67621
# Velocity P-wave (km/s) = 5.82735 7.24223 6.57297
#
# Compressibility (1/GPa) = 0.02542380
#
# Stress axis : x y z
#
# Youngs Moduli (GPa) = 132.60945 30.88873 74.64880
#
# Poissons Ratio (x) = 0.13382 0.25666
# Poissons Ratio (y) = 0.57451 0.46082
# Poissons Ratio (z) = 0.45593 0.19068
#
# Static dielectric constant tensor:
#      x y z
#    x 1.781290 0.000000 -0.000730 
#    y 0.000000 1.794490 0.000000 
#    z -0.000730 0.000000 1.849030 
# 
# From -- ./inp_files/133062.got.cif
#   From: 2010.05.17/outbox.cif.g08.bks.cpg/sg15_67_cif.got.tgz:133062.got - 2010.06.03 18:47:42.
