data_PCOD9278237
_publ_section_title
;
Structure prediction by ZEFSAII (Michael W. Deem and Ramdas Pophale) SiO2 
 PCOD9278237
Probable space group: C 2/C
;
_chemical_formula_sum "Si O2"
_cell_formula_units_Z 52
_cell_length_a 12.106199
_cell_length_b 30.157591
_cell_length_c 9.184611
_cell_angle_alpha 90.000000
_cell_angle_beta 123.476187
_cell_angle_gamma 90.000000
_cell_volume 2796.992028
_symmetry_space_group_name_H-M "C 2/C"
_symmetry_group_IT_number 15
_symmetry_cell_setting 'monoclinic'
loop_
_space_group_symop_operation_xyz
x,y,z
-x,y,1/2-z
-x,-y,-z
x,-y,1/2+z
1/2+x,1/2+y,z
1/2-x,1/2+y,1/2-z
1/2-x,1/2-y,-z
1/2+x,1/2-y,1/2+z
loop_
_atom_site_type_symbol
_atom_site_label
_atom_site_fract_x
_atom_site_fract_y
_atom_site_fract_z
Si Si1 0.678674 0.965831 0.637679
Si Si2 0.353827 0.197861 0.205199
Si Si3 0.353976 0.700517 0.708899
Si Si4 0.194648 0.871678 0.768802
Si Si5 0.108303 0.126614 0.537560
Si Si6 0.415313 0.467903 0.332338
Si Si7 0.000000 0.510739 0.750000
O O1 0.753765 0.920761 0.728910
O O2 0.592697 0.961697 0.427634
O O3 0.785831 0.004622 0.692748
O O4 0.587336 0.980735 0.705450
O O5 0.500000 0.187877 0.250000
O O6 0.352204 0.248545 0.261449
O O7 0.298103 0.163823 0.282873
O O8 0.253370 0.196218 0.996217
O O9 0.500000 0.692938 0.750000
O O10 0.331794 0.663753 0.814488
O O11 0.049569 0.864904 0.593563
O O12 0.172122 0.870099 0.925169
O O13 0.121847 0.077275 0.612381
O O14 0.500000 0.457578 0.250000
O O15 0.500000 0.500000 0.500000
#
# Coordination Sequence:
#
# PCOD9278237 Si02
#       7
#     8   8   8   8   8   8   4
#     4  11  23  41  60  84 123 161 212 251 308 370
#     4  10  23  41  66  94 124 162 206 267 313 382
#     4  10  20  42  68  93 122 161 216 256 318 375
#     4  11  23  40  62  92 128 158 206 262 314 376
#     4  11  23  39  65  94 123 165 206 262 319 376
#     4  12  23  38  65  96 123 156 205 269 316 360
#     4  10  24  42  58  78 120 178 202 248 304 380
#
# _framework density 18.5914
#
# number of rings (size 3 to 8) (size 9 to 14) (size 15 to 20)
#    0.000    1.231    3.077    3.231    1.077    0.615 
#    5.538    0.000    0.000    0.000    0.000    0.000 
#    0.000    0.000    0.000    0.000    0.000    0.000 
#
# Total GULP energy -145309.842088 kJ/mol
# GULP energy per Si atom -5588.840080 kJ/mol
# Density = 1.854909 g / cm^3
# Si number density = 18.591400 Si / 1000 Ang^3
#
#
#
# Elastic Constant Matrix: (Units=GPa)
#
#
# Indices 1 2 3 4 5 6 
#
# 1 107.1412 53.6343 26.4658 0.0000 1.9964 0.0000
# 2 53.6343 119.7076 28.7432 0.0000 -17.1631 0.0000
# 3 26.4658 28.7432 67.7646 0.0000 -0.6779 0.0000
# 4 0.0000 0.0000 0.0000 27.2494 0.0000 1.1423
# 5 1.9964 -17.1631 -0.6779 0.0000 27.8009 0.0000
# 6 0.0000 0.0000 0.0000 1.1423 0.0000 29.8337
#
#
#
# Elastic Compliance Matrix: (Units=1/GPa)
#
#
# Indices 1 2 3 4 5 6 
#
# 1 0.013001 -0.005852 -0.002642 0.000000 -0.004611 0.000000
# 2 -0.005852 0.012915 -0.003109 0.000000 0.008317 0.000000
# 3 -0.002642 -0.003109 0.017094 0.000000 -0.001313 0.000000
# 4 0.000000 0.000000 0.000000 0.036757 0.000000 -0.001407
# 5 -0.004611 0.008317 -0.001313 0.000000 0.041404 0.000000
# 6 0.000000 0.000000 0.000000 -0.001407 0.000000 0.033573
#
#
# Mechanical properties :
#
#
# Convention : Reuss Voigt Hill
#
# Bulk Modulus (GPa) = 50.49302 56.92221 53.70761
# Shear Modulus (GPa) = 27.09264 29.36145 28.22705
#
# Velocity S-wave (km/s) = 3.82156 3.97836 3.90075
# Velocity P-wave (km/s) = 6.83306 7.19632 7.01704
#
# Compressibility (1/GPa) = 0.01980472
#
# Stress axis : x y z
#
# Youngs Moduli (GPa) = 76.91470 77.43113 58.49876
#
# Poissons Ratio (x) = 0.45313 0.15454
# Poissons Ratio (y) = 0.45010 0.18188
# Poissons Ratio (z) = 0.20319 0.24075
#
# Static dielectric constant tensor:
#      x y z
#    x 1.629690 0.000000 0.015180 
#    y 0.000000 1.623510 0.000000 
#    z 0.015180 0.000000 1.638980 
# 
# From -- ./inp_files/34452.got.cif
#   From: 2010.05.17/outbox.cif.g08.bks.cpg/sg15_18_cif.got.tgz:34452.got - 2010.06.03 18:47:42.
