data_PCOD9278865
_publ_section_title
;
Structure prediction by ZEFSAII (Michael W. Deem and Ramdas Pophale) SiO2 
 PCOD9278865
Probable space group: C 2/C
;
_chemical_formula_sum "Si O2"
_cell_formula_units_Z 56
_cell_length_a 30.565086
_cell_length_b 17.173113
_cell_length_c 5.474677
_cell_angle_alpha 90.000000
_cell_angle_beta 77.651275
_cell_angle_gamma 90.000000
_cell_volume 2807.160742
_symmetry_space_group_name_H-M "C 2/C"
_symmetry_group_IT_number 15
_symmetry_cell_setting 'monoclinic'
loop_
_space_group_symop_operation_xyz
x,y,z
-x,y,1/2-z
-x,-y,-z
x,-y,1/2+z
1/2+x,1/2+y,z
1/2-x,1/2+y,1/2-z
1/2-x,1/2-y,-z
1/2+x,1/2-y,1/2+z
loop_
_atom_site_type_symbol
_atom_site_label
_atom_site_fract_x
_atom_site_fract_y
_atom_site_fract_z
Si Si1 0.141506 0.621427 0.654689
Si Si2 0.629304 0.541482 0.690841
Si Si3 0.237948 0.042457 0.588946
Si Si4 0.336200 0.692164 0.863688
Si Si5 0.176228 0.376368 0.612390
Si Si6 0.448736 0.049638 0.825714
Si Si7 0.699626 0.721773 0.092509
O O1 0.165019 0.586851 0.386485
O O2 0.089049 0.615135 0.663018
O O3 0.165355 0.705755 0.643334
O O4 0.151110 0.587390 0.910744
O O5 0.614319 0.496910 0.463641
O O6 0.683932 0.540201 0.632057
O O7 0.621364 0.634750 0.680551
O O8 0.270962 0.116120 0.503157
O O9 0.250388 0.013639 0.845771
O O10 0.339832 0.786059 0.852103
O O11 0.312369 0.674448 0.634223
O O12 0.308867 0.677258 0.146228
O O13 0.500000 0.078086 0.750000
O O14 0.443129 0.991763 0.597624
O O15 0.750000 0.750000 0.000000
#
# Coordination Sequence:
#
# PCOD9278865 Si02
#       7
#     8   8   8   8   8   8   8
#     4  10  21  33  49  72  95 121 167 213 257 307
#     4  10  21  34  46  62  85 119 158 204 250 287
#     4  10  21  32  41  59  88 117 151 199 250 295
#     4  10  21  34  50  65  90 121 167 210 246 302
#     4  10  21  33  49  71  90 125 162 202 262 306
#     4  10  21  37  56  76 101 138 179 222 272 321
#     4  10  21  32  50  71  92 125 161 207 252 305
#
# _framework density 19.948982999999998
#
# number of rings (size 3 to 8) (size 9 to 14) (size 15 to 20)
#    0.000    2.000    0.000    3.000    8.000    3.429 
#    0.000    0.000    0.000    0.000    0.000    0.000 
#    0.000    0.000    0.000    0.000    0.000  228.571 
#
# Total GULP energy -155964.087080 kJ/mol
# GULP energy per Si atom -5570.145967 kJ/mol
# Density = 1.990358 g / cm^3
# Si number density = 19.948983 Si / 1000 Ang^3
#
#
#
# Elastic Constant Matrix: (Units=GPa)
#
#
# Indices 1 2 3 4 5 6 
#
# 1 73.2639 1.6642 13.5823 0.0000 3.2906 0.0000
# 2 1.6642 68.3910 10.3308 0.0000 5.8594 0.0000
# 3 13.5823 10.3308 153.6226 0.0000 45.2412 0.0000
# 4 0.0000 0.0000 0.0000 10.4015 0.0000 4.4550
# 5 3.2906 5.8594 45.2412 0.0000 28.7635 0.0000
# 6 0.0000 0.0000 0.0000 4.4550 0.0000 18.1868
#
#
#
# Elastic Compliance Matrix: (Units=1/GPa)
#
#
# Indices 1 2 3 4 5 6 
#
# 1 0.013885 -0.000182 -0.001413 0.000000 0.000671 0.000000
# 2 -0.000182 0.014887 -0.000183 0.000000 -0.002724 0.000000
# 3 -0.001413 -0.000183 0.012273 0.000000 -0.019105 0.000000
# 4 0.000000 0.000000 0.000000 0.107409 0.000000 -0.026311
# 5 0.000671 -0.002724 -0.019105 0.000000 0.065294 0.000000
# 6 0.000000 0.000000 0.000000 -0.026311 0.000000 0.061430
#
#
# Mechanical properties :
#
#
# Convention : Reuss Voigt Hill
#
# Bulk Modulus (GPa) = 26.67370 38.49245 32.58307
# Shear Modulus (GPa) = 17.16856 29.45038 23.30947
#
# Velocity S-wave (km/s) = 2.93682 3.84641 3.42197
# Velocity P-wave (km/s) = 4.98998 6.25011 5.65525
#
# Compressibility (1/GPa) = 0.03749011
#
# Stress axis : x y z
#
# Youngs Moduli (GPa) = 72.01891 67.17159 81.47988
#
# Poissons Ratio (x) = 0.01222 0.11514
# Poissons Ratio (y) = 0.01310 0.01489
# Poissons Ratio (z) = 0.10177 0.01227
#
# Static dielectric constant tensor:
#      x y z
#    x 1.698150 0.000000 0.038120 
#    y 0.000000 1.781740 0.000000 
#    z 0.038120 0.000000 1.803210 
# 
# From -- ./inp_files/18346.got.cif
#   From: 2010.05.17/outbox.cif.g08.bks.cpg/sg15_10_cif.got.tgz:18346.got - 2010.06.03 18:47:42.
