data_PCOD9278553
_publ_section_title
;
Structure prediction by ZEFSAII (Michael W. Deem and Ramdas Pophale) SiO2 
 PCOD9278553
Probable space group: C 2/C
;
_chemical_formula_sum "Si O2"
_cell_formula_units_Z 48
_cell_length_a 13.810874
_cell_length_b 11.704665
_cell_length_c 23.359106
_cell_angle_alpha 90.000000
_cell_angle_beta 147.023827
_cell_angle_gamma 90.000000
_cell_volume 2055.260609
_symmetry_space_group_name_H-M "C 2/C"
_symmetry_group_IT_number 15
_symmetry_cell_setting 'monoclinic'
loop_
_space_group_symop_operation_xyz
x,y,z
-x,y,1/2-z
-x,-y,-z
x,-y,1/2+z
1/2+x,1/2+y,z
1/2-x,1/2+y,1/2-z
1/2-x,1/2-y,-z
1/2+x,1/2-y,1/2+z
loop_
_atom_site_type_symbol
_atom_site_label
_atom_site_fract_x
_atom_site_fract_y
_atom_site_fract_z
Si Si1 0.715168 0.130928 0.939237
Si Si2 0.266847 0.106107 0.887204
Si Si3 0.461210 0.921526 0.792077
Si Si4 0.499032 0.314267 0.345120
Si Si5 0.556304 0.496784 0.593459
Si Si6 0.657558 0.152535 0.042514
O O1 0.633526 0.152684 0.961386
O O2 0.603111 0.022567 0.863268
O O3 0.723073 0.232393 0.896071
O O4 0.919608 0.094437 0.052302
O O5 0.153372 0.140457 0.774722
O O6 0.464016 0.154541 0.975003
O O7 0.178466 0.158031 0.899874
O O8 0.265082 0.968296 0.896699
O O9 0.500000 0.863350 0.750000
O O10 0.485128 0.820125 0.848538
O O11 0.261847 0.965465 0.699518
O O12 0.481438 0.385457 0.393692
O O13 0.500000 0.500000 0.500000
#
# Coordination Sequence:
#
# PCOD9278553 Si02
#       6
#     8   8   8   8   8   8
#     4  11  24  44  69 105 149 189 242 303 369 433
#     4  10  20  43  74 101 139 191 244 298 367 436
#     4  12  25  47  71 107 148 190 246 303 371 440
#     4  11  24  46  71 102 142 190 245 301 362 447
#     4  12  26  48  70 102 143 192 242 300 365 433
#     4  10  22  43  70 105 144 187 243 308 365 439
#
# _framework density 23.354702
#
# number of rings (size 3 to 8) (size 9 to 14) (size 15 to 20)
#    0.000    1.000    5.000    2.000    0.000    2.000 
#   15.000    0.000    0.000    0.000    0.000    0.000 
#    0.000    0.000    0.000    0.000    0.000    0.000 
#
# Total GULP energy -134237.557194 kJ/mol
# GULP energy per Si atom -5593.231550 kJ/mol
# Density = 2.330155 g / cm^3
# Si number density = 23.354702 Si / 1000 Ang^3
#
#
#
# Elastic Constant Matrix: (Units=GPa)
#
#
# Indices 1 2 3 4 5 6 
#
# 1 135.2383 61.3720 44.3562 0.0000 21.9911 0.0000
# 2 61.3720 188.7530 63.2791 0.0000 14.1538 0.0000
# 3 44.3562 63.2791 82.5008 0.0000 20.4282 0.0000
# 4 0.0000 0.0000 0.0000 23.1579 0.0000 -12.2330
# 5 21.9911 14.1538 20.4282 0.0000 44.2732 0.0000
# 6 0.0000 0.0000 0.0000 -12.2330 0.0000 26.7618
#
#
#
# Elastic Compliance Matrix: (Units=1/GPa)
#
#
# Indices 1 2 3 4 5 6 
#
# 1 0.009728 -0.001928 -0.003057 0.000000 -0.002805 0.000000
# 2 -0.001928 0.007517 -0.004935 0.000000 0.000832 0.000000
# 3 -0.003057 -0.004935 0.018948 0.000000 -0.005647 0.000000
# 4 0.000000 0.000000 0.000000 0.056928 0.000000 0.026022
# 5 -0.002805 0.000832 -0.005647 0.000000 0.026320 0.000000
# 6 0.000000 0.000000 0.000000 0.026022 0.000000 0.049261
#
#
# Mechanical properties :
#
#
# Convention : Reuss Voigt Hill
#
# Bulk Modulus (GPa) = 61.14915 82.72295 71.93605
# Shear Modulus (GPa) = 25.77420 34.67091 30.22256
#
# Velocity S-wave (km/s) = 3.32565 3.85715 3.60122
# Velocity P-wave (km/s) = 6.40205 7.43868 6.93975
#
# Compressibility (1/GPa) = 0.01635346
#
# Stress axis : x y z
#
# Youngs Moduli (GPa) = 102.79599 133.03512 52.77602
#
# Poissons Ratio (x) = 0.25647 0.16133
# Poissons Ratio (y) = 0.19817 0.26044
# Poissons Ratio (z) = 0.31424 0.65652
#
# Static dielectric constant tensor:
#      x y z
#    x 1.907210 0.000000 -0.032440 
#    y 0.000000 2.038780 0.000000 
#    z -0.032440 0.000000 1.909350 
# 
# From -- ./inp_files/296204.got.cif
#   From: 2010.05.17/outbox.cif.g08.bks.cpg/sg15_149_cif.got.tgz:296204.got - 2010.06.03 18:47:42.
