data_PCOD9278550
_publ_section_title
;
Structure prediction by ZEFSAII (Michael W. Deem and Ramdas Pophale) SiO2 
 PCOD9278550
Probable space group: C 2/C
;
_chemical_formula_sum "Si O2"
_cell_formula_units_Z 48
_cell_length_a 12.907736
_cell_length_b 14.582795
_cell_length_c 10.678633
_cell_angle_alpha 90.000000
_cell_angle_beta 103.144267
_cell_angle_gamma 90.000000
_cell_volume 1957.386227
_symmetry_space_group_name_H-M "C 2/C"
_symmetry_group_IT_number 15
_symmetry_cell_setting 'monoclinic'
loop_
_space_group_symop_operation_xyz
x,y,z
-x,y,1/2-z
-x,-y,-z
x,-y,1/2+z
1/2+x,1/2+y,z
1/2-x,1/2+y,1/2-z
1/2-x,1/2-y,-z
1/2+x,1/2-y,1/2+z
loop_
_atom_site_type_symbol
_atom_site_label
_atom_site_fract_x
_atom_site_fract_y
_atom_site_fract_z
Si Si1 0.500000 0.900072 0.750000
Si Si2 0.500000 0.641436 0.250000
Si Si3 0.821287 0.979872 0.619989
Si Si4 0.196044 0.338077 0.426679
Si Si5 0.007114 0.388969 0.012523
Si Si6 0.239629 0.419551 0.869198
Si Si7 0.178913 0.730048 0.669120
O O1 0.530954 0.850209 0.631350
O O2 0.613338 0.947423 0.820973
O O3 0.566574 0.573401 0.358251
O O4 0.413602 0.704794 0.295659
O O5 0.735092 0.917699 0.526138
O O6 0.792457 0.970776 0.761092
O O7 0.808168 0.062795 0.516326
O O8 0.250000 0.250000 0.500000
O O9 0.228348 0.331402 0.292360
O O10 0.069922 0.349083 0.403343
O O11 0.121326 0.344644 0.067385
O O12 0.000000 0.500000 0.000000
O O13 0.242638 0.308817 0.855896
#
# Coordination Sequence:
#
# PCOD9278550 Si02
#       7
#     4   4   8   8   8   8   8
#     4  12  26  43  65 106 152 184 250 302 383 429
#     4  10  20  43  73 104 138 198 256 300 363 479
#     4  11  24  42  72 108 145 192 256 310 379 438
#     4  12  20  43  73 103 137 193 249 301 364 457
#     4  12  26  41  70 107 143 191 240 308 368 439
#     4  11  26  46  71 109 150 198 251 317 366 464
#     4  11  23  44  72 104 147 194 249 301 380 454
#
# _framework density 24.522496
#
# number of rings (size 3 to 8) (size 9 to 14) (size 15 to 20)
#    0.000    0.667    6.667    1.000    4.667    3.333 
#    0.000    4.167    0.000    0.000    0.000    0.000 
#    0.000    0.000    0.000    0.000    0.000    0.000 
#
# Total GULP energy -133680.158625 kJ/mol
# GULP energy per Si atom -5570.006609 kJ/mol
# Density = 2.446668 g / cm^3
# Si number density = 24.522496 Si / 1000 Ang^3
#
#
#
# Elastic Constant Matrix: (Units=GPa)
#
#
# Indices 1 2 3 4 5 6 
#
# 1 71.0868 23.7197 5.2404 0.0000 5.1555 0.0000
# 2 23.7197 108.3295 39.1973 0.0000 -4.4304 0.0000
# 3 5.2404 39.1973 138.2131 0.0000 11.6746 0.0000
# 4 0.0000 0.0000 0.0000 41.4773 0.0000 11.8889
# 5 5.1555 -4.4304 11.6746 0.0000 36.1868 0.0000
# 6 0.0000 0.0000 0.0000 11.8889 0.0000 39.6220
#
#
#
# Elastic Compliance Matrix: (Units=1/GPa)
#
#
# Indices 1 2 3 4 5 6 
#
# 1 0.015483 -0.003772 0.000728 0.000000 -0.002902 0.000000
# 2 -0.003772 0.011389 -0.003341 0.000000 0.003010 0.000000
# 3 0.000728 -0.003341 0.008428 0.000000 -0.003232 0.000000
# 4 0.000000 0.000000 0.000000 0.026378 0.000000 -0.007915
# 5 -0.002902 0.003010 -0.003232 0.000000 0.029459 0.000000
# 6 0.000000 0.000000 0.000000 -0.007915 0.000000 0.027613
#
#
# Mechanical properties :
#
#
# Convention : Reuss Voigt Hill
#
# Bulk Modulus (GPa) = 44.38681 50.43824 47.41253
# Shear Modulus (GPa) = 35.96308 40.08868 38.02588
#
# Velocity S-wave (km/s) = 3.83369 4.04762 3.94211
# Velocity P-wave (km/s) = 6.14296 6.51591 6.33218
#
# Compressibility (1/GPa) = 0.02252922
#
# Stress axis : x y z
#
# Youngs Moduli (GPa) = 64.58775 87.80334 118.65006
#
# Poissons Ratio (x) = 0.33121 -0.08637
# Poissons Ratio (y) = 0.24364 0.39643
# Poissons Ratio (z) = -0.04702 0.29336
#
# Static dielectric constant tensor:
#      x y z
#    x 2.062530 0.000000 -0.010210 
#    y 0.000000 1.931230 0.000000 
#    z -0.010210 0.000000 0.524990 
# 
# From -- ./inp_files/97222.got.cif
#   From: 2010.05.17/outbox.cif.g08.bks.cpg/sg15_49_cif.got.tgz:97222.got - 2010.06.03 18:47:42.
