data_PCOD9278420
_publ_section_title
;
Structure prediction by ZEFSAII (Michael W. Deem and Ramdas Pophale) SiO2 
 PCOD9278420
Probable space group: C 2/C
;
_chemical_formula_sum "Si O2"
_cell_formula_units_Z 52
_cell_length_a 12.379056
_cell_length_b 14.122473
_cell_length_c 23.325734
_cell_angle_alpha 90.000000
_cell_angle_beta 142.000937
_cell_angle_gamma 90.000000
_cell_volume 2510.536197
_symmetry_space_group_name_H-M "C 2/C"
_symmetry_group_IT_number 15
_symmetry_cell_setting 'monoclinic'
loop_
_space_group_symop_operation_xyz
x,y,z
-x,y,1/2-z
-x,-y,-z
x,-y,1/2+z
1/2+x,1/2+y,z
1/2-x,1/2+y,1/2-z
1/2-x,1/2-y,-z
1/2+x,1/2-y,1/2+z
loop_
_atom_site_type_symbol
_atom_site_label
_atom_site_fract_x
_atom_site_fract_y
_atom_site_fract_z
Si Si1 0.864193 0.385883 0.888063
Si Si2 0.416748 0.897796 0.402537
Si Si3 0.947330 0.776517 0.099528
Si Si4 0.678950 0.764193 0.836501
Si Si5 0.000000 0.783793 0.750000
Si Si6 0.005598 0.889841 0.016013
Si Si7 0.663808 0.179309 0.918057
O O1 0.842057 0.496977 0.867670
O O2 0.675571 0.344575 0.823893
O O3 0.941504 0.317747 0.870398
O O4 0.994699 0.379418 0.997751
O O5 0.279673 0.811199 0.338128
O O6 0.568131 0.896028 0.418071
O O7 0.912421 0.798670 0.151142
O O8 0.750000 0.750000 0.000000
O O9 0.013567 0.860181 0.086219
O O10 0.500000 0.823220 0.750000
O O11 0.833028 0.835319 0.920217
O O12 0.982926 0.722928 0.685071
O O13 0.178360 0.852375 0.056531
O O14 0.000000 0.000000 0.000000
O O15 0.750000 0.250000 0.000000
#
# Coordination Sequence:
#
# PCOD9278420 Si02
#       7
#     8   8   8   8   4   8   8
#     4  11  23  42  69 100 129 178 227 273 338 395
#     4  11  24  43  68  98 133 176 222 281 338 391
#     4  10  20  43  62  88 128 175 209 260 326 389
#     4  11  24  42  64  94 132 172 219 270 327 390
#     4  12  24  44  68  98 140 178 228 274 336 406
#     4  11  24  44  67  96 130 179 218 262 340 393
#     4  12  23  46  67  95 137 178 222 279 336 391
#
# _framework density 20.712707999999999
#
# number of rings (size 3 to 8) (size 9 to 14) (size 15 to 20)
#    0.000    0.923    7.692    0.000    7.538    0.000 
#    1.385    3.077    0.000    0.000    0.000    0.000 
#    0.000    0.000    0.000    0.000    0.000    0.000 
#
# Total GULP energy -144883.122418 kJ/mol
# GULP energy per Si atom -5572.427785 kJ/mol
# Density = 2.066556 g / cm^3
# Si number density = 20.712708 Si / 1000 Ang^3
#
#
#
# Elastic Constant Matrix: (Units=GPa)
#
#
# Indices 1 2 3 4 5 6 
#
# 1 125.2903 27.1830 -8.1958 0.0000 6.3827 0.0000
# 2 27.1830 109.5573 7.3698 0.0000 5.7168 0.0000
# 3 -8.1958 7.3698 38.8514 0.0000 13.3196 0.0000
# 4 0.0000 0.0000 0.0000 10.8290 0.0000 6.1427
# 5 6.3827 5.7168 13.3196 0.0000 35.6231 0.0000
# 6 0.0000 0.0000 0.0000 6.1427 0.0000 6.6757
#
#
#
# Elastic Compliance Matrix: (Units=1/GPa)
#
#
# Indices 1 2 3 4 5 6 
#
# 1 0.008797 -0.002267 0.003099 0.000000 -0.002371 0.000000
# 2 -0.002267 0.009858 -0.002231 0.000000 -0.000342 0.000000
# 3 0.003099 -0.002231 0.030836 0.000000 -0.011727 0.000000
# 4 0.000000 0.000000 0.000000 0.193175 0.000000 -0.177754
# 5 -0.002371 -0.000342 -0.011727 0.000000 0.032936 0.000000
# 6 0.000000 0.000000 0.000000 -0.177754 0.000000 0.313361
#
#
# Mechanical properties :
#
#
# Convention : Reuss Voigt Hill
#
# Bulk Modulus (GPa) = 21.41717 36.26813 28.84265
# Shear Modulus (GPa) = 8.23280 27.11501 17.67390
#
# Velocity S-wave (km/s) = 1.99584 3.62207 2.92428
# Velocity P-wave (km/s) = 3.95901 5.91952 5.03559
#
# Compressibility (1/GPa) = 0.04669151
#
# Stress axis : x y z
#
# Youngs Moduli (GPa) = 113.67680 101.43906 32.42914
#
# Poissons Ratio (x) = 0.23000 -0.10049
# Poissons Ratio (y) = 0.25775 0.07236
# Poissons Ratio (z) = -0.35224 0.22634
#
# Static dielectric constant tensor:
#      x y z
#    x 1.829700 0.000000 -0.113370 
#    y 0.000000 1.815990 0.000000 
#    z -0.113370 0.000000 2.031330 
# 
# From -- ./inp_files/269996.got.cif
#   From: 2010.05.17/outbox.cif.g08.bks.cpg/sg15_135_cif.got.tgz:269996.got - 2010.06.03 18:47:42.
