data_PCOD9278784
_publ_section_title
;
Structure prediction by ZEFSAII (Michael W. Deem and Ramdas Pophale) SiO2 
 PCOD9278784
Probable space group: C 2/C
;
_chemical_formula_sum "Si O2"
_cell_formula_units_Z 52
_cell_length_a 31.440612
_cell_length_b 7.328518
_cell_length_c 13.586945
_cell_angle_alpha 90.000000
_cell_angle_beta 51.615576
_cell_angle_gamma 90.000000
_cell_volume 2453.967116
_symmetry_space_group_name_H-M "C 2/C"
_symmetry_group_IT_number 15
_symmetry_cell_setting 'monoclinic'
loop_
_space_group_symop_operation_xyz
x,y,z
-x,y,1/2-z
-x,-y,-z
x,-y,1/2+z
1/2+x,1/2+y,z
1/2-x,1/2+y,1/2-z
1/2-x,1/2-y,-z
1/2+x,1/2-y,1/2+z
loop_
_atom_site_type_symbol
_atom_site_label
_atom_site_fract_x
_atom_site_fract_y
_atom_site_fract_z
Si Si1 0.316146 0.671984 0.606978
Si Si2 0.595462 0.062485 0.480661
Si Si3 0.365281 0.473840 0.842254
Si Si4 0.258936 0.518119 0.364594
Si Si5 0.582741 0.118029 0.794799
Si Si6 0.000000 0.390733 0.250000
Si Si7 0.151279 0.630464 0.081295
O O1 0.356046 0.799411 0.613995
O O2 0.352987 0.575257 0.472992
O O3 0.282916 0.543028 0.725642
O O4 0.275574 0.801385 0.605503
O O5 0.549016 0.174006 0.607248
O O6 0.574787 0.952209 0.416188
O O7 0.621935 0.921236 0.520787
O O8 0.309625 0.450523 0.861997
O O9 0.410275 0.335820 0.732907
O O10 0.374304 0.690316 0.833525
O O11 0.215459 0.369397 0.466996
O O12 0.538027 0.034856 0.784238
O O13 0.638975 0.035555 0.672956
#
# Coordination Sequence:
#
# PCOD9278784 Si02
#       7
#     8   8   8   8   8   4   8
#     4  11  23  39  61  96 130 169 214 256 306 383
#     4  10  22  42  69  90 127 165 208 266 321 378
#     4  12  23  39  63  91 131 171 208 262 310 371
#     4  11  23  37  61  92 133 179 208 255 308 374
#     4  11  23  42  68  93 124 165 213 265 325 374
#     4  10  20  46  68  96 120 162 212 272 326 370
#     4  10  23  41  59  96 133 167 214 257 303 382
#
# _framework density 21.190176999999998
#
# number of rings (size 3 to 8) (size 9 to 14) (size 15 to 20)
#    0.000    1.231    4.615    3.231    6.462    0.000 
#    0.000    3.077    0.000    6.462    0.000    0.000 
#    0.000    0.000    0.000    0.000    0.000    0.000 
#
# Total GULP energy -144815.203372 kJ/mol
# GULP energy per Si atom -5569.815514 kJ/mol
# Density = 2.114195 g / cm^3
# Si number density = 21.190177 Si / 1000 Ang^3
#
#
#
# Elastic Constant Matrix: (Units=GPa)
#
#
# Indices 1 2 3 4 5 6 
#
# 1 77.0441 0.7513 12.8712 0.0000 9.3548 0.0000
# 2 0.7513 59.7230 -4.2474 0.0000 8.2860 -0.0002
# 3 12.8712 -4.2474 60.7256 0.0000 10.5785 0.0000
# 4 0.0000 0.0000 0.0000 22.2043 0.0000 11.0003
# 5 9.3548 8.2860 10.5785 0.0000 30.8919 0.0000
# 6 0.0000 -0.0002 0.0000 11.0003 0.0000 8.0430
#
#
#
# Elastic Compliance Matrix: (Units=1/GPa)
#
#
# Indices 1 2 3 4 5 6 
#
# 1 0.013780 0.000136 -0.002316 0.000000 -0.003416 0.000000
# 2 0.000136 0.017662 0.002168 -0.000001 -0.005521 0.000001
# 3 -0.002316 0.002168 0.018173 0.000000 -0.006103 0.000000
# 4 0.000000 -0.000001 0.000000 0.139678 0.000000 -0.191035
# 5 -0.003416 -0.005521 -0.006103 0.000000 0.036976 0.000000
# 6 0.000000 0.000001 0.000000 -0.191035 0.000000 0.385609
#
#
# Mechanical properties :
#
#
# Convention : Reuss Voigt Hill
#
# Bulk Modulus (GPa) = 20.16450 24.02698 22.09574
# Shear Modulus (GPa) = 7.95630 24.76900 16.36265
#
# Velocity S-wave (km/s) = 1.93981 3.42261 2.78183
# Velocity P-wave (km/s) = 3.81494 5.19446 4.55720
#
# Compressibility (1/GPa) = 0.04959211
#
# Stress axis : x y z
#
# Youngs Moduli (GPa) = 72.56897 56.61714 55.02570
#
# Poissons Ratio (x) = -0.00769 0.12745
# Poissons Ratio (y) = -0.00986 -0.11932
# Poissons Ratio (z) = 0.16808 -0.12277
#
# Static dielectric constant tensor:
#      x y z
#    x 1.782150 0.000000 -0.016870 
#    y 0.000000 1.797060 0.000000 
#    z -0.016870 0.000000 1.787080 
# 
# From -- ./inp_files/125498.got.cif
#   From: 2010.05.17/outbox.cif.g08.bks.cpg/sg15_63_cif.got.tgz:125498.got - 2010.06.03 18:47:42.
