data_PCOD9278737
_publ_section_title
;
Structure prediction by ZEFSAII (Michael W. Deem and Ramdas Pophale) SiO2 
 PCOD9278737
Probable space group: C 2/C
;
_chemical_formula_sum "Si O2"
_cell_formula_units_Z 44
_cell_length_a 9.026132
_cell_length_b 14.923884
_cell_length_c 14.830144
_cell_angle_alpha 90.000000
_cell_angle_beta 73.164150
_cell_angle_gamma 90.000000
_cell_volume 1912.069535
_symmetry_space_group_name_H-M "C 2/C"
_symmetry_group_IT_number 15
_symmetry_cell_setting 'monoclinic'
loop_
_space_group_symop_operation_xyz
x,y,z
-x,y,1/2-z
-x,-y,-z
x,-y,1/2+z
1/2+x,1/2+y,z
1/2-x,1/2+y,1/2-z
1/2-x,1/2-y,-z
1/2+x,1/2-y,1/2+z
loop_
_atom_site_type_symbol
_atom_site_label
_atom_site_fract_x
_atom_site_fract_y
_atom_site_fract_z
Si Si1 0.252523 0.508335 0.335873
Si Si2 0.861027 0.933440 0.012646
Si Si3 0.744277 0.294427 0.731558
Si Si4 0.556690 0.916638 0.141361
Si Si5 0.500000 0.345739 0.250000
Si Si6 0.033929 0.237017 0.091977
O O1 0.291502 0.541181 0.428629
O O2 0.259366 0.596429 0.270806
O O3 0.364638 0.420578 0.300413
O O4 0.072724 0.485074 0.363054
O O5 0.925319 0.833081 0.991529
O O6 0.733174 0.946287 0.111944
O O7 0.000000 0.000000 0.000000
O O8 0.894746 0.228794 0.712474
O O9 0.636558 0.273741 0.836994
O O10 0.652631 0.273355 0.655063
O O11 0.500000 0.884993 0.250000
O O12 0.553255 0.840160 0.065586
#
# Coordination Sequence:
#
# PCOD9278737 Si02
#       6
#     8   8   8   8   4   8
#     4  11  25  44  68 102 153 180 242 304 360 430
#     4  11  27  43  70 101 139 189 239 296 368 430
#     4  10  22  40  71 107 136 185 237 296 357 433
#     4  12  24  44  71 100 139 185 235 295 371 432
#     4  12  22  42  76 110 144 192 248 298 366 440
#     4  10  20  45  65  95 140 178 233 286 365 423
#
# _framework density 23.011714000000001
#
# number of rings (size 3 to 8) (size 9 to 14) (size 15 to 20)
#    0.000    1.091    3.636    3.273    8.909    0.000 
#    0.000    0.909    0.000    0.000    0.000    0.000 
#    0.000    0.000    0.000    0.000    0.000    0.000 
#
# Total GULP energy -122593.112844 kJ/mol
# GULP energy per Si atom -5572.414220 kJ/mol
# Density = 2.295934 g / cm^3
# Si number density = 23.011714 Si / 1000 Ang^3
#
#
#
# Elastic Constant Matrix: (Units=GPa)
#
#
# Indices 1 2 3 4 5 6 
#
# 1 75.8754 55.2053 50.5096 0.0000 -29.0085 0.0000
# 2 55.2053 130.8387 39.4596 0.0000 -11.6454 0.0000
# 3 50.5096 39.4596 84.1782 0.0000 -29.5076 0.0000
# 4 0.0000 0.0000 0.0000 25.8044 0.0000 -6.1769
# 5 -29.0085 -11.6454 -29.5076 0.0000 37.3799 0.0000
# 6 0.0000 0.0000 0.0000 -6.1769 0.0000 36.0028
#
#
#
# Elastic Compliance Matrix: (Units=1/GPa)
#
#
# Indices 1 2 3 4 5 6 
#
# 1 0.031787 -0.009194 -0.009844 0.000000 0.014033 0.000000
# 2 -0.009194 0.011575 -0.001585 0.000000 -0.004780 0.000000
# 3 -0.009844 -0.001585 0.021676 0.000000 0.008978 0.000000
# 4 0.000000 0.000000 0.000000 0.040413 0.000000 0.006934
# 5 0.014033 -0.004780 0.008978 0.000000 0.043240 0.000000
# 6 0.000000 0.000000 0.000000 0.006934 0.000000 0.028965
#
#
# Mechanical properties :
#
#
# Convention : Reuss Voigt Hill
#
# Bulk Modulus (GPa) = 42.03073 64.58236 53.30655
# Shear Modulus (GPa) = 22.04252 29.55194 25.79723
#
# Velocity S-wave (km/s) = 3.09833 3.58748 3.35184
# Velocity P-wave (km/s) = 5.57710 6.72948 6.18021
#
# Compressibility (1/GPa) = 0.02379212
#
# Stress axis : x y z
#
# Youngs Moduli (GPa) = 31.45906 86.39470 46.13299
#
# Poissons Ratio (x) = 0.79433 0.45416
# Poissons Ratio (y) = 0.28924 0.07310
# Poissons Ratio (z) = 0.30970 0.13690
#
# Static dielectric constant tensor:
#      x y z
#    x 2.043730 0.000000 -0.020800 
#    y 0.000000 1.917220 0.000000 
#    z -0.020800 0.000000 1.907270 
# 
# From -- ./inp_files/189179.got.cif
#   From: 2010.05.17/outbox.cif.g08.bks.cpg/sg15_95_cif.got.tgz:189179.got - 2010.06.03 18:47:42.
