data_PCOD9278857
_publ_section_title
;
Structure prediction by ZEFSAII (Michael W. Deem and Ramdas Pophale) SiO2 
 PCOD9278857
Probable space group: C 2/C
;
_chemical_formula_sum "Si O2"
_cell_formula_units_Z 48
_cell_length_a 25.051675
_cell_length_b 10.204458
_cell_length_c 10.208358
_cell_angle_alpha 90.000000
_cell_angle_beta 69.323320
_cell_angle_gamma 90.000000
_cell_volume 2441.558663
_symmetry_space_group_name_H-M "C 2/C"
_symmetry_group_IT_number 15
_symmetry_cell_setting 'monoclinic'
loop_
_space_group_symop_operation_xyz
x,y,z
-x,y,1/2-z
-x,-y,-z
x,-y,1/2+z
1/2+x,1/2+y,z
1/2-x,1/2+y,1/2-z
1/2-x,1/2-y,-z
1/2+x,1/2-y,1/2+z
loop_
_atom_site_type_symbol
_atom_site_label
_atom_site_fract_x
_atom_site_fract_y
_atom_site_fract_z
Si Si1 0.223808 0.759150 0.219948
Si Si2 0.034395 0.349863 0.039753
Si Si3 0.930432 0.524622 0.723552
Si Si4 0.865618 0.177701 0.492273
Si Si5 0.810923 0.626759 0.846126
Si Si6 0.284130 0.544212 0.007867
O O1 0.169774 0.752929 0.360931
O O2 0.273742 0.832353 0.255230
O O3 0.251646 0.624486 0.149115
O O4 0.206396 0.850664 0.113297
O O5 0.057248 0.455102 0.131393
O O6 0.966921 0.355534 0.127061
O O7 0.047606 0.402832 0.882774
O O8 0.068909 0.217327 0.040766
O O9 0.862915 0.531934 0.767133
O O10 0.842793 0.249838 0.382293
O O11 0.841161 0.030671 0.503775
O O12 0.764056 0.564594 0.985331
#
# Coordination Sequence:
#
# PCOD9278857 Si02
#       6
#     8   8   8   8   8   8
#     4  10  21  33  50  77 108 141 178 219 261 325
#     4   9  18  34  53  83 102 149 169 235 269 331
#     4   9  18  32  55  78 112 131 186 218 280 311
#     4  10  21  33  54  74 109 140 177 217 277 323
#     4  10  21  31  54  76 106 140 171 223 268 334
#     4  10  21  33  50  77 106 142 177 216 268 322
#
# _framework density 19.659573000000002
#
# number of rings (size 3 to 8) (size 9 to 14) (size 15 to 20)
#    0.000    2.333    0.000    3.000   14.000    0.000 
#    0.000    0.000    0.000    1.000    4.333    0.000 
#    0.000    0.000    0.000    0.000    0.000    0.000 
#
# Total GULP energy -133615.412467 kJ/mol
# GULP energy per Si atom -5567.308853 kJ/mol
# Density = 1.961483 g / cm^3
# Si number density = 19.659573 Si / 1000 Ang^3
#
#
#
# Elastic Constant Matrix: (Units=GPa)
#
#
# Indices 1 2 3 4 5 6 
#
# 1 61.0081 13.2333 7.1884 0.0000 -18.5723 0.0000
# 2 13.2333 63.0630 1.9658 0.0000 3.9816 0.0000
# 3 7.1884 1.9658 49.4928 0.0000 4.5105 0.0000
# 4 0.0000 0.0000 0.0000 12.6057 0.0000 -0.1923
# 5 -18.5723 3.9816 4.5105 0.0000 25.2733 0.0000
# 6 0.0000 0.0000 0.0000 -0.1923 0.0000 33.5802
#
#
#
# Elastic Compliance Matrix: (Units=1/GPa)
#
#
# Indices 1 2 3 4 5 6 
#
# 1 0.024361 -0.006203 -0.005095 0.000000 0.019788 0.000000
# 2 -0.006203 0.017604 0.000884 0.000000 -0.007489 0.000000
# 3 -0.005095 0.000884 0.021615 0.000000 -0.007741 0.000000
# 4 0.000000 0.000000 0.000000 0.079336 0.000000 0.000454
# 5 0.019788 -0.007489 -0.007741 0.000000 0.056671 0.000000
# 6 0.000000 0.000000 0.000000 0.000454 0.000000 0.029782
#
#
# Mechanical properties :
#
#
# Convention : Reuss Voigt Hill
#
# Bulk Modulus (GPa) = 23.39012 24.25990 23.82501
# Shear Modulus (GPa) = 18.90731 24.37025 21.63878
#
# Velocity S-wave (km/s) = 3.10455 3.52463 3.32124
# Velocity P-wave (km/s) = 4.97739 5.37874 5.18195
#
# Compressibility (1/GPa) = 0.04275310
#
# Stress axis : x y z
#
# Youngs Moduli (GPa) = 41.04902 56.80531 46.26330
#
# Poissons Ratio (x) = 0.35234 0.23573
# Poissons Ratio (y) = 0.25461 -0.04090
# Poissons Ratio (z) = 0.20916 -0.05023
#
# Static dielectric constant tensor:
#      x y z
#    x 1.717570 0.000000 0.003910 
#    y 0.000000 1.759370 0.000000 
#    z 0.003910 0.000000 1.727580 
# 
# From -- ./inp_files/121384.got.cif
#   From: 2010.05.17/outbox.cif.g08.bks.cpg/sg15_61_cif.got.tgz:121384.got - 2010.06.03 18:47:42.
