data_PCOD9278271
_publ_section_title
;
Structure prediction by ZEFSAII (Michael W. Deem and Ramdas Pophale) SiO2 
 PCOD9278271
Probable space group: C 2/C
;
_chemical_formula_sum "Si O2"
_cell_formula_units_Z 48
_cell_length_a 8.453250
_cell_length_b 18.806526
_cell_length_c 27.927833
_cell_angle_alpha 90.000000
_cell_angle_beta 151.621687
_cell_angle_gamma 90.000000
_cell_volume 2110.227713
_symmetry_space_group_name_H-M "C 2/C"
_symmetry_group_IT_number 15
_symmetry_cell_setting 'monoclinic'
loop_
_space_group_symop_operation_xyz
x,y,z
-x,y,1/2-z
-x,-y,-z
x,-y,1/2+z
1/2+x,1/2+y,z
1/2-x,1/2+y,1/2-z
1/2-x,1/2-y,-z
1/2+x,1/2-y,1/2+z
loop_
_atom_site_type_symbol
_atom_site_label
_atom_site_fract_x
_atom_site_fract_y
_atom_site_fract_z
Si Si1 0.123700 0.589906 0.393445
Si Si2 0.382929 0.669446 0.314906
Si Si3 0.816270 0.546604 0.411671
Si Si4 0.614788 0.969299 0.226697
Si Si5 0.654827 0.315740 0.238165
Si Si6 0.913649 0.214056 0.428255
O O1 0.414319 0.648855 0.465857
O O2 0.829770 0.631829 0.284844
O O3 0.016783 0.567653 0.417807
O O4 0.153445 0.513952 0.375105
O O5 0.708160 0.621787 0.404491
O O6 0.418153 0.751446 0.310215
O O7 0.283004 0.675679 0.344448
O O8 0.476150 0.503108 0.310629
O O9 0.000000 0.500000 0.500000
O O10 0.500000 0.983195 0.250000
O O11 0.674747 0.886340 0.234865
O O12 0.500000 0.329350 0.250000
O O13 0.345924 0.277324 0.128495
O O14 0.250000 0.250000 0.500000
#
# Coordination Sequence:
#
# PCOD9278271 Si02
#       6
#     8   8   8   8   8   8
#     4  10  20  42  69  89 131 190 229 269 353 425
#     4   9  19  40  66  91 129 183 231 270 341 431
#     4  11  24  41  66 100 136 171 227 303 351 407
#     4  11  22  40  66  95 129 181 238 277 335 436
#     4   9  19  37  62  91 127 176 231 272 329 420
#     4  10  21  38  67 102 136 176 224 294 355 415
#
# _framework density 22.746361
#
# number of rings (size 3 to 8) (size 9 to 14) (size 15 to 20)
#    0.000    2.000    0.000    6.500    2.333    3.333 
#    6.000    2.500    0.000    0.000    0.000    0.000 
#    0.000    0.000    0.000    0.000    0.000    0.000 
#
# Total GULP energy -133685.830376 kJ/mol
# GULP energy per Si atom -5570.242932 kJ/mol
# Density = 2.269459 g / cm^3
# Si number density = 22.746361 Si / 1000 Ang^3
#
#
#
# Elastic Constant Matrix: (Units=GPa)
#
#
# Indices 1 2 3 4 5 6 
#
# 1 95.6384 44.6449 19.9839 0.0124 -10.8978 0.0066
# 2 44.6449 164.2436 34.1642 -0.0037 12.7472 -0.0016
# 3 19.9839 34.1642 59.2638 0.0009 3.1321 -0.0019
# 4 0.0124 -0.0037 0.0009 20.5064 0.0076 13.4046
# 5 -10.8978 12.7472 3.1321 0.0076 22.0428 0.0030
# 6 0.0066 -0.0016 -0.0019 13.4046 0.0030 52.5001
#
#
#
# Elastic Compliance Matrix: (Units=1/GPa)
#
#
# Indices 1 2 3 4 5 6 
#
# 1 0.014011 -0.003939 -0.002962 -0.000013 0.009626 0.000001
# 2 -0.003939 0.008298 -0.003122 0.000007 -0.006303 -0.000001
# 3 -0.002962 -0.003122 0.019803 0.000001 -0.002473 0.000001
# 4 -0.000013 0.000007 0.000001 0.058535 -0.000029 -0.014945
# 5 0.009626 -0.006303 -0.002473 -0.000029 0.054121 0.000003
# 6 0.000001 -0.000001 0.000001 -0.014945 0.000003 0.022864
#
#
# Mechanical properties :
#
#
# Convention : Reuss Voigt Hill
#
# Bulk Modulus (GPa) = 45.32188 57.41464 51.36826
# Shear Modulus (GPa) = 24.38624 33.70004 29.04314
#
# Velocity S-wave (km/s) = 3.27784 3.85328 3.57715
# Velocity P-wave (km/s) = 5.85609 6.71513 6.30027
#
# Compressibility (1/GPa) = 0.02206440
#
# Stress axis : x y z
#
# Youngs Moduli (GPa) = 71.37360 120.51251 50.49712
#
# Poissons Ratio (x) = 0.47474 0.14959
# Poissons Ratio (y) = 0.28116 0.15766
# Poissons Ratio (z) = 0.21143 0.37625
#
# Static dielectric constant tensor:
#      x y z
#    x 1.933240 0.000320 0.122370 
#    y 0.000320 1.413790 0.000210 
#    z 0.122370 0.000210 2.141090 
# 
# From -- ./inp_files/308833.got.cif
#   From: 2010.05.17/outbox.cif.g08.bks.cpg/sg15_155_cif.got.tgz:308833.got - 2010.06.03 18:47:42.
