data_PCOD9278751
_publ_section_title
;
Structure prediction by ZEFSAII (Michael W. Deem and Ramdas Pophale) SiO2 
 PCOD9278751
Probable space group: C 2/C
;
_chemical_formula_sum "Si O2"
_cell_formula_units_Z 56
_cell_length_a 20.525564
_cell_length_b 7.205123
_cell_length_c 22.709440
_cell_angle_alpha 90.000000
_cell_angle_beta 46.800014
_cell_angle_gamma 90.000000
_cell_volume 2448.228003
_symmetry_space_group_name_H-M "C 2/C"
_symmetry_group_IT_number 15
_symmetry_cell_setting 'monoclinic'
loop_
_space_group_symop_operation_xyz
x,y,z
-x,y,1/2-z
-x,-y,-z
x,-y,1/2+z
1/2+x,1/2+y,z
1/2-x,1/2+y,1/2-z
1/2-x,1/2-y,-z
1/2+x,1/2-y,1/2+z
loop_
_atom_site_type_symbol
_atom_site_label
_atom_site_fract_x
_atom_site_fract_y
_atom_site_fract_z
Si Si1 0.665385 0.137923 0.570886
Si Si2 0.922887 0.458756 0.630375
Si Si3 0.157411 0.076844 0.811462
Si Si4 0.984663 0.069795 0.361074
Si Si5 0.301512 0.765035 0.139007
Si Si6 0.114162 0.284571 0.536883
Si Si7 0.080413 0.365380 0.239353
O O1 0.750000 0.250000 0.500000
O O2 0.581207 0.253429 0.595541
O O3 0.660289 0.135478 0.644536
O O4 0.662109 0.932503 0.548368
O O5 0.863209 0.280280 0.651185
O O6 0.887650 0.624828 0.612020
O O7 0.907687 0.527706 0.707253
O O8 0.024896 0.387898 0.566623
O O9 0.216593 0.116716 0.716077
O O10 0.204940 0.934398 0.825356
O O11 0.059967 0.986690 0.861305
O O12 0.921154 0.890121 0.402890
O O13 0.000000 0.453404 0.250000
O O14 0.051085 0.152476 0.270039
O O15 0.321588 0.739556 0.057819
#
# Coordination Sequence:
#
# PCOD9278751 Si02
#       7
#     8   8   8   8   8   8   8
#     4  11  25  46  71 106 140 181 234 296 347 411
#     4  11  22  44  69  99 132 183 230 280 353 409
#     4  11  24  42  68 100 136 185 231 276 351 420
#     4  10  23  45  67 101 141 181 235 276 361 415
#     4  12  24  42  66 102 139 175 235 286 340 420
#     4  11  25  42  68 104 137 182 227 290 356 404
#     4  10  20  45  69  95 138 178 230 284 340 423
#
# _framework density 22.873685999999999
#
# number of rings (size 3 to 8) (size 9 to 14) (size 15 to 20)
#    0.000    1.143    5.714    0.429    2.000    5.143 
#   15.429    0.000    0.000    0.000    0.000    0.000 
#    0.000    0.000    0.000    0.000    0.000    0.000 
#
# Total GULP energy -156142.872981 kJ/mol
# GULP energy per Si atom -5576.531178 kJ/mol
# Density = 2.282162 g / cm^3
# Si number density = 22.873686 Si / 1000 Ang^3
#
#
#
# Elastic Constant Matrix: (Units=GPa)
#
#
# Indices 1 2 3 4 5 6 
#
# 1 44.1903 40.7670 21.1033 0.0086 5.1183 -0.0071
# 2 40.7670 148.5856 50.9866 0.0115 17.0420 -0.0079
# 3 21.1033 50.9866 142.4153 0.0034 11.9290 -0.0031
# 4 0.0086 0.0115 0.0034 21.0126 -0.0041 -7.8099
# 5 5.1183 17.0420 11.9290 -0.0041 28.1496 0.0044
# 6 -0.0071 -0.0079 -0.0031 -7.8099 0.0044 27.2311
#
#
#
# Elastic Compliance Matrix: (Units=1/GPa)
#
#
# Indices 1 2 3 4 5 6 
#
# 1 0.030675 -0.007806 -0.001741 -0.000007 -0.000114 0.000004
# 2 -0.007806 0.010030 -0.002120 -0.000003 -0.003755 0.000001
# 3 -0.001741 -0.002120 0.008196 0.000000 -0.001873 0.000000
# 4 -0.000007 -0.000003 0.000000 0.053269 0.000008 0.015278
# 5 -0.000114 -0.003755 -0.001873 0.000008 0.038612 -0.000005
# 6 0.000004 0.000001 0.000000 0.015278 -0.000005 0.041104
#
#
# Mechanical properties :
#
#
# Convention : Reuss Voigt Hill
#
# Bulk Modulus (GPa) = 39.11284 62.32275 50.71780
# Shear Modulus (GPa) = 23.39273 30.10093 26.74683
#
# Velocity S-wave (km/s) = 3.20142 3.63156 3.42325
# Velocity P-wave (km/s) = 5.54996 6.69999 6.15191
#
# Compressibility (1/GPa) = 0.02556705
#
# Stress axis : x y z
#
# Youngs Moduli (GPa) = 32.59964 99.70380 122.01795
#
# Poissons Ratio (x) = 0.77825 0.21249
# Poissons Ratio (y) = 0.25446 0.25863
# Poissons Ratio (z) = 0.05677 0.21133
#
# Static dielectric constant tensor:
#      x y z
#    x 1.928050 0.000000 -0.031320 
#    y 0.000000 1.839750 0.000000 
#    z -0.031320 0.000000 1.915300 
# 
# From -- ./inp_files/302913.got.cif
#   From: 2010.05.17/outbox.cif.g08.bks.cpg/sg15_152_cif.got.tgz:302913.got - 2010.06.03 18:47:42.
