data_PCOD9278984
_publ_section_title
;
Structure prediction by ZEFSAII (Michael W. Deem and Ramdas Pophale) SiO2 
 PCOD9278984
Probable space group: C 2/C
;
_chemical_formula_sum "Si O2"
_cell_formula_units_Z 56
_cell_length_a 9.837775
_cell_length_b 20.355800
_cell_length_c 15.257495
_cell_angle_alpha 90.000000
_cell_angle_beta 74.367940
_cell_angle_gamma 90.000000
_cell_volume 2942.388195
_symmetry_space_group_name_H-M "C 2/C"
_symmetry_group_IT_number 15
_symmetry_cell_setting 'monoclinic'
loop_
_space_group_symop_operation_xyz
x,y,z
-x,y,1/2-z
-x,-y,-z
x,-y,1/2+z
1/2+x,1/2+y,z
1/2-x,1/2+y,1/2-z
1/2-x,1/2-y,-z
1/2+x,1/2-y,1/2+z
loop_
_atom_site_type_symbol
_atom_site_label
_atom_site_fract_x
_atom_site_fract_y
_atom_site_fract_z
Si Si1 0.013835 0.077299 0.506411
Si Si2 0.050684 0.680452 0.840565
Si Si3 0.244312 0.658183 0.560752
Si Si4 0.766998 0.699815 0.135167
Si Si5 0.860837 0.828828 0.663994
Si Si6 0.591218 0.797533 0.602907
Si Si7 0.212113 0.843206 0.088523
O O1 0.064679 0.115413 0.408054
O O2 0.128747 0.097371 0.559937
O O3 0.862086 0.105407 0.561965
O O4 0.000000 0.000000 0.500000
O O5 0.067167 0.757296 0.866485
O O6 0.202502 0.649149 0.836190
O O7 0.000000 0.679795 0.750000
O O8 0.921873 0.642845 0.908885
O O9 0.270729 0.675690 0.454822
O O10 0.261213 0.721319 0.621627
O O11 0.662397 0.671163 0.227057
O O12 0.928521 0.683443 0.131896
O O13 0.699678 0.824748 0.656017
O O14 0.664271 0.820508 0.500032
O O15 0.606319 0.718709 0.608911
#
# Coordination Sequence:
#
# PCOD9278984 Si02
#       7
#     8   8   8   8   8   8   8
#     4  11  24  43  62  83 126 178 215 242 298 396
#     4  11  20  36  61  96 124 149 197 282 330 362
#     4  11  22  33  60  89 122 158 201 258 327 369
#     4  11  18  32  59  97 125 142 200 277 325 367
#     4  10  21  33  60  93 124 157 203 260 325 374
#     4   9  16  30  55  92 124 151 187 264 330 370
#     4   9  18  35  58  86 124 159 202 248 321 372
#
# _framework density 19.032159
#
# number of rings (size 3 to 8) (size 9 to 14) (size 15 to 20)
#    0.000    1.714    4.286    3.000    0.000    0.000 
#    0.000    1.429    6.286    0.000    0.000    0.000 
#    0.000    0.000    0.000    0.000    0.000    0.000 
#
# Total GULP energy -156032.986162 kJ/mol
# GULP energy per Si atom -5572.606649 kJ/mol
# Density = 1.898884 g / cm^3
# Si number density = 19.032159 Si / 1000 Ang^3
#
#
#
# Elastic Constant Matrix: (Units=GPa)
#
#
# Indices 1 2 3 4 5 6 
#
# 1 138.5580 44.5472 26.4877 0.0000 7.5204 0.0000
# 2 44.5472 93.2862 25.7322 0.0000 7.7585 0.0000
# 3 26.4877 25.7322 79.3324 0.0000 10.5404 0.0000
# 4 0.0000 0.0000 0.0000 12.1962 0.0000 -2.7051
# 5 7.5204 7.7585 10.5404 0.0000 29.0672 0.0000
# 6 0.0000 0.0000 0.0000 -2.7051 0.0000 16.2477
#
#
#
# Elastic Compliance Matrix: (Units=1/GPa)
#
#
# Indices 1 2 3 4 5 6 
#
# 1 0.008747 -0.003667 -0.001639 0.000000 -0.000690 0.000000
# 2 -0.003667 0.013406 -0.002915 0.000000 -0.001572 0.000000
# 3 -0.001639 -0.002915 0.014644 0.000000 -0.004108 0.000000
# 4 0.000000 0.000000 0.000000 0.085137 0.000000 0.014175
# 5 -0.000690 -0.001572 -0.004108 0.000000 0.036491 0.000000
# 6 0.000000 0.000000 0.000000 0.014175 0.000000 0.063907
#
#
# Mechanical properties :
#
#
# Convention : Reuss Voigt Hill
#
# Bulk Modulus (GPa) = 49.13174 56.07898 52.60536
# Shear Modulus (GPa) = 20.36169 25.79619 23.07894
#
# Velocity S-wave (km/s) = 3.27442 3.68557 3.48606
# Velocity P-wave (km/s) = 6.33774 6.90222 6.62599
#
# Compressibility (1/GPa) = 0.02035344
#
# Stress axis : x y z
#
# Youngs Moduli (GPa) = 114.32325 74.59416 68.28829
#
# Poissons Ratio (x) = 0.27357 0.11194
# Poissons Ratio (y) = 0.41928 0.19905
# Poissons Ratio (z) = 0.18741 0.21743
#
# Static dielectric constant tensor:
#      x y z
#    x 1.724700 0.000000 0.005680 
#    y 0.000000 1.613460 0.000000 
#    z 0.005680 0.000000 1.774760 
# 
# From -- ./inp_files/233255.got.cif
#   From: 2010.05.17/outbox.cif.g08.bks.cpg/sg15_117_cif.got.tgz:233255.got - 2010.06.03 18:47:42.
