data_PCOD9278010
_publ_section_title
;
Structure prediction by ZEFSAII (Michael W. Deem and Ramdas Pophale) SiO2 
 PCOD9278010
Probable space group: C 2/C
;
_chemical_formula_sum "Si O2"
_cell_formula_units_Z 60
_cell_length_a 8.300246
_cell_length_b 27.002179
_cell_length_c 12.908467
_cell_angle_alpha 90.000000
_cell_angle_beta 92.242400
_cell_angle_gamma 90.000000
_cell_volume 2890.891219
_symmetry_space_group_name_H-M "C 2/C"
_symmetry_group_IT_number 15
_symmetry_cell_setting 'monoclinic'
loop_
_space_group_symop_operation_xyz
x,y,z
-x,y,1/2-z
-x,-y,-z
x,-y,1/2+z
1/2+x,1/2+y,z
1/2-x,1/2+y,1/2-z
1/2-x,1/2-y,-z
1/2+x,1/2-y,1/2+z
loop_
_atom_site_type_symbol
_atom_site_label
_atom_site_fract_x
_atom_site_fract_y
_atom_site_fract_z
Si Si1 0.809436 0.358644 0.756488
Si Si2 0.500000 0.078064 0.750000
Si Si3 0.177181 0.882498 0.538002
Si Si4 0.836092 0.931544 0.590090
Si Si5 0.350064 0.973011 0.440703
Si Si6 0.122167 0.281999 0.564063
Si Si7 0.327697 0.863513 0.073571
Si Si8 0.490498 0.315521 0.127238
O O1 0.736088 0.352514 0.640451
O O2 0.718660 0.405829 0.804298
O O3 0.797798 0.312596 0.837829
O O4 0.000000 0.368294 0.750000
O O5 0.595939 0.044861 0.671124
O O6 0.609823 0.113940 0.820304
O O7 0.300160 0.925042 0.505593
O O8 0.012732 0.911863 0.565225
O O9 0.140397 0.846271 0.440534
O O10 0.712265 0.907533 0.505128
O O11 0.800265 0.989561 0.579847
O O12 0.500000 0.000000 0.500000
O O13 0.250000 0.250000 0.500000
O O14 0.060849 0.324214 0.483738
O O15 0.992544 0.243086 0.602854
O O16 0.159217 0.836733 0.089523
O O17 0.500000 0.323000 0.250000
#
# Coordination Sequence:
#
# PCOD9278010 Si02
#       8
#     8   4   8   8   8   8   8   8
#     4  11  23  41  69 100 138 181 228 290 343 406
#     4  12  24  40  64  96 128 176 224 274 344 396
#     4  11  25  43  69  98 138 179 230 286 345 411
#     4  10  22  42  64  95 135 178 227 277 340 404
#     4  12  25  42  66  99 136 180 230 282 342 417
#     4   9  20  41  65  91 134 176 218 277 344 407
#     4   9  20  39  61  88 128 170 213 272 329 399
#     4  10  20  42  64  92 129 171 219 277 336 399
#
# _framework density 20.754845
#
# number of rings (size 3 to 8) (size 9 to 14) (size 15 to 20)
#    0.000    1.600    1.333    3.600    4.667    0.000 
#    4.800    2.667    0.000    0.000    0.000    0.000 
#    0.000    0.000    0.000    0.000    0.000    0.000 
#
# Total GULP energy -167470.571827 kJ/mol
# GULP energy per Si atom -5582.352394 kJ/mol
# Density = 2.070761 g / cm^3
# Si number density = 20.754845 Si / 1000 Ang^3
#
#
#
# Elastic Constant Matrix: (Units=GPa)
#
#
# Indices 1 2 3 4 5 6 
#
# 1 62.5230 29.9211 32.3569 0.0000 5.2514 0.0000
# 2 29.9211 118.3020 58.5663 0.0000 5.5757 0.0000
# 3 32.3569 58.5663 152.1068 0.0000 10.9765 0.0000
# 4 0.0000 0.0000 0.0000 31.2169 0.0000 -6.9083
# 5 5.2514 5.5757 10.9765 0.0000 34.0355 0.0000
# 6 0.0000 0.0000 0.0000 -6.9083 0.0000 15.7544
#
#
#
# Elastic Compliance Matrix: (Units=1/GPa)
#
#
# Indices 1 2 3 4 5 6 
#
# 1 0.019142 -0.003469 -0.002625 0.000000 -0.001539 0.000000
# 2 -0.003469 0.011078 -0.003517 0.000000 -0.000145 0.000000
# 3 -0.002625 -0.003517 0.008617 0.000000 -0.001798 0.000000
# 4 0.000000 0.000000 0.000000 0.035477 0.000000 0.015556
# 5 -0.001539 -0.000145 -0.001798 0.000000 0.030222 0.000000
# 6 0.000000 0.000000 0.000000 0.015556 0.000000 0.070296
#
#
# Mechanical properties :
#
#
# Convention : Reuss Voigt Hill
#
# Bulk Modulus (GPa) = 50.98367 63.84671 57.41519
# Shear Modulus (GPa) = 24.92611 30.34053 27.63332
#
# Velocity S-wave (km/s) = 3.46927 3.82757 3.65281
# Velocity P-wave (km/s) = 6.37698 7.09667 6.74643
#
# Compressibility (1/GPa) = 0.01961412
#
# Stress axis : x y z
#
# Youngs Moduli (GPa) = 52.24054 90.26567 116.05388
#
# Poissons Ratio (x) = 0.31316 0.30466
# Poissons Ratio (y) = 0.18124 0.40817
# Poissons Ratio (z) = 0.13714 0.31747
#
# Static dielectric constant tensor:
#      x y z
#    x 1.756000 0.000000 -0.068850 
#    y 0.000000 1.809370 0.000000 
#    z -0.068850 0.000000 1.883890 
# 
# From -- ./inp_files/81377.got.cif
#   From: 2010.05.17/outbox.cif.g08.bks.cpg/sg15_41_cif.got.tgz:81377.got - 2010.06.03 18:47:42.
