data_PCOD9278656
_publ_section_title
;
Structure prediction by ZEFSAII (Michael W. Deem and Ramdas Pophale) SiO2 
 PCOD9278656
Probable space group: C 2/C
;
_chemical_formula_sum "Si O2"
_cell_formula_units_Z 40
_cell_length_a 7.522537
_cell_length_b 23.190995
_cell_length_c 13.759968
_cell_angle_alpha 90.000000
_cell_angle_beta 131.793632
_cell_angle_gamma 90.000000
_cell_volume 1789.690600
_symmetry_space_group_name_H-M "C 2/C"
_symmetry_group_IT_number 15
_symmetry_cell_setting 'monoclinic'
loop_
_space_group_symop_operation_xyz
x,y,z
-x,y,1/2-z
-x,-y,-z
x,-y,1/2+z
1/2+x,1/2+y,z
1/2-x,1/2+y,1/2-z
1/2-x,1/2-y,-z
1/2+x,1/2-y,1/2+z
loop_
_atom_site_type_symbol
_atom_site_label
_atom_site_fract_x
_atom_site_fract_y
_atom_site_fract_z
Si Si1 0.000000 0.449383 0.750000
Si Si2 0.187364 0.890027 0.470748
Si Si3 0.105541 0.684453 0.057272
Si Si4 0.261857 0.314223 0.391957
Si Si5 0.969101 0.996235 0.872857
Si Si6 0.000000 0.105819 0.250000
O O1 0.845409 0.410567 0.620639
O O2 0.815771 0.489296 0.743152
O O3 0.347482 0.844790 0.469740
O O4 0.943832 0.861306 0.418454
O O5 0.111036 0.948293 0.387683
O O6 0.121291 0.751738 0.087554
O O7 0.279259 0.647442 0.190043
O O8 0.219941 0.679774 0.991870
O O9 0.000000 0.317078 0.250000
O O10 0.066936 0.937992 0.860657
O O11 0.000000 0.000000 0.000000
#
# Coordination Sequence:
#
# PCOD9278656 Si02
#       6
#     4   8   8   8   8   4
#     4  10  20  44  67  99 144 180 240 292 356 430
#     4  11  24  43  70 103 138 191 234 294 359 425
#     4  11  24  45  73 104 137 191 241 290 366 427
#     4  11  26  45  71 107 146 182 237 306 356 422
#     4  10  23  40  66 104 135 184 235 295 353 420
#     4  12  22  46  73  99 144 188 244 290 366 444
#
# _framework density 22.350232999999999
#
# number of rings (size 3 to 8) (size 9 to 14) (size 15 to 20)
#    0.000    1.200    3.000    3.000    1.400    3.200 
#    0.000    0.000    0.000    0.000    0.000    0.000 
#    0.000    0.000    0.000    0.000    0.000    0.000 
#
# Total GULP energy -111749.021119 kJ/mol
# GULP energy per Si atom -5587.451056 kJ/mol
# Density = 2.229936 g / cm^3
# Si number density = 22.350233 Si / 1000 Ang^3
#
#
#
# Elastic Constant Matrix: (Units=GPa)
#
#
# Indices 1 2 3 4 5 6 
#
# 1 59.5011 30.8263 11.8530 0.0000 18.5659 0.0000
# 2 30.8263 137.6682 55.3896 0.0000 14.1001 0.0000
# 3 11.8530 55.3896 57.7318 0.0000 2.3648 0.0000
# 4 0.0000 0.0000 0.0000 39.2706 0.0000 23.8464
# 5 18.5659 14.1001 2.3648 0.0000 43.2836 0.0000
# 6 0.0000 0.0000 0.0000 23.8464 0.0000 40.0644
#
#
#
# Elastic Compliance Matrix: (Units=1/GPa)
#
#
# Indices 1 2 3 4 5 6 
#
# 1 0.021317 -0.003803 -0.000405 0.000000 -0.007883 0.000000
# 2 -0.003803 0.012981 -0.011593 0.000000 -0.001964 0.000000
# 3 -0.000405 -0.011593 0.028429 0.000000 0.002397 0.000000
# 4 0.000000 0.000000 0.000000 0.039877 0.000000 -0.023735
# 5 -0.007883 -0.001964 0.002397 0.000000 0.026993 0.000000
# 6 0.000000 0.000000 0.000000 -0.023735 0.000000 0.039087
#
#
# Mechanical properties :
#
#
# Convention : Reuss Voigt Hill
#
# Bulk Modulus (GPa) = 32.12864 50.11544 41.12204
# Shear Modulus (GPa) = 23.73479 34.97920 29.35700
#
# Velocity S-wave (km/s) = 3.26229 3.96036 3.62815
# Velocity P-wave (km/s) = 5.34755 6.58666 5.99918
#
# Compressibility (1/GPa) = 0.03112488
#
# Stress axis : x y z
#
# Youngs Moduli (GPa) = 46.91114 77.03634 35.17514
#
# Poissons Ratio (x) = 0.29296 0.01425
# Poissons Ratio (y) = 0.17840 0.40779
# Poissons Ratio (z) = 0.01901 0.89308
#
# Static dielectric constant tensor:
#      x y z
#    x 1.870270 0.000000 -0.028380 
#    y 0.000000 1.822460 0.000000 
#    z -0.028380 0.000000 1.849280 
# 
# From -- ./inp_files/192393.got.cif
#   From: 2010.05.17/outbox.cif.g08.bks.cpg/sg15_97_cif.got.tgz:192393.got - 2010.06.03 18:47:42.
