data_PCOD9278623
_publ_section_title
;
Structure prediction by ZEFSAII (Michael W. Deem and Ramdas Pophale) SiO2 
 PCOD9278623
Probable space group: C 2/C
;
_chemical_formula_sum "Si O2"
_cell_formula_units_Z 52
_cell_length_a 9.114192
_cell_length_b 10.945457
_cell_length_c 22.119055
_cell_angle_alpha 90.000000
_cell_angle_beta 105.140411
_cell_angle_gamma 90.000000
_cell_volume 2129.981558
_symmetry_space_group_name_H-M "C 2/C"
_symmetry_group_IT_number 15
_symmetry_cell_setting 'monoclinic'
loop_
_space_group_symop_operation_xyz
x,y,z
-x,y,1/2-z
-x,-y,-z
x,-y,1/2+z
1/2+x,1/2+y,z
1/2-x,1/2+y,1/2-z
1/2-x,1/2-y,-z
1/2+x,1/2-y,1/2+z
loop_
_atom_site_type_symbol
_atom_site_label
_atom_site_fract_x
_atom_site_fract_y
_atom_site_fract_z
Si Si1 0.203242 0.106841 0.109749
Si Si2 0.030365 0.420225 0.630747
Si Si3 0.378702 0.426488 0.534128
Si Si4 0.223180 0.892805 0.386068
Si Si5 0.275828 0.265344 0.411842
Si Si6 0.500000 0.238089 0.250000
Si Si7 0.364194 0.586042 0.812023
O O1 0.357263 0.046416 0.101336
O O2 0.226303 0.252044 0.108632
O O3 0.060864 0.062150 0.054458
O O4 0.179113 0.052840 0.175656
O O5 0.155545 0.526166 0.638745
O O6 0.080121 0.321753 0.586078
O O7 0.017604 0.351233 0.694307
O O8 0.286652 0.543361 0.548611
O O9 0.312657 0.350553 0.471789
O O10 0.358299 0.326973 0.587413
O O11 0.043624 0.903564 0.349232
O O12 0.262931 0.338580 0.348462
O O13 0.636784 0.336231 0.249825
#
# Coordination Sequence:
#
# PCOD9278623 Si02
#       7
#     8   8   8   8   8   4   8
#     4  11  22  39  60  95 118 159 201 248 298 368
#     4  10  22  40  64  86 124 154 205 255 303 352
#     4   9  21  37  64  87 126 165 200 242 308 353
#     4  10  21  42  58  90 123 155 199 250 293 371
#     4   9  18  42  59  89 124 165 199 250 297 361
#     4  10  20  44  66  84 116 166 190 258 308 352
#     4  10  22  40  63  85 124 156 205 249 304 356
#
# _framework density 24.413357999999999
#
# number of rings (size 3 to 8) (size 9 to 14) (size 15 to 20)
#    0.000    2.154    3.077    0.000    2.154    4.308 
#    2.769    3.077    0.000    0.000    0.000    0.000 
#    0.000    0.000    0.000    0.000    0.000    0.000 
#
# Total GULP energy -144918.878180 kJ/mol
# GULP energy per Si atom -5573.803007 kJ/mol
# Density = 2.435779 g / cm^3
# Si number density = 24.413358 Si / 1000 Ang^3
#
#
#
# Elastic Constant Matrix: (Units=GPa)
#
#
# Indices 1 2 3 4 5 6 
#
# 1 66.9626 39.9427 -25.0295 0.0000 7.5652 0.0000
# 2 39.9427 148.3444 5.9594 0.0000 -8.3235 0.0000
# 3 -25.0295 5.9594 36.8800 0.0000 -3.7121 0.0000
# 4 0.0000 0.0000 0.0000 30.7131 0.0000 -6.3079
# 5 7.5652 -8.3235 -3.7121 0.0000 23.2680 0.0000
# 6 0.0000 0.0000 0.0000 -6.3079 0.0000 38.5717
#
#
#
# Elastic Compliance Matrix: (Units=1/GPa)
#
#
# Indices 1 2 3 4 5 6 
#
# 1 0.029032 -0.009162 0.020229 0.000000 -0.009490 0.000000
# 2 -0.009162 0.009799 -0.007266 0.000000 0.005325 0.000000
# 3 0.020229 -0.007266 0.041765 0.000000 -0.002513 0.000000
# 4 0.000000 0.000000 0.000000 0.033691 0.000000 0.005510
# 5 -0.009490 0.005325 -0.002513 0.000000 0.047567 0.000000
# 6 0.000000 0.000000 0.000000 0.005510 0.000000 0.026827
#
#
# Mechanical properties :
#
#
# Convention : Reuss Voigt Hill
#
# Bulk Modulus (GPa) = 11.33816 32.65912 21.99864
# Shear Modulus (GPa) = 23.75551 33.93153 28.84352
#
# Velocity S-wave (km/s) = 3.12277 3.73215 3.44097
# Velocity P-wave (km/s) = 4.20197 5.65495 4.98172
#
# Compressibility (1/GPa) = 0.08819776
#
# Stress axis : x y z
#
# Youngs Moduli (GPa) = 34.44453 102.05422 23.94359
#
# Poissons Ratio (x) = 0.93504 -0.48435
# Poissons Ratio (y) = 0.31559 0.17396
# Poissons Ratio (z) = -0.69677 0.74148
#
# Static dielectric constant tensor:
#      x y z
#    x 1.953270 0.000000 -0.004940 
#    y 0.000000 1.996290 0.000000 
#    z -0.004940 0.000000 2.146300 
# 
# From -- ./inp_files/287634.got.cif
#   From: 2010.05.17/outbox.cif.g08.bks.cpg/sg15_144_cif.got.tgz:287634.got - 2010.06.03 18:47:42.
