data_PCOD9278626
_publ_section_title
;
Structure prediction by ZEFSAII (Michael W. Deem and Ramdas Pophale) SiO2 
 PCOD9278626
Probable space group: C 2/C
;
_chemical_formula_sum "Si O2"
_cell_formula_units_Z 60
_cell_length_a 24.108155
_cell_length_b 8.363277
_cell_length_c 14.373226
_cell_angle_alpha 90.000000
_cell_angle_beta 65.464228
_cell_angle_gamma 90.000000
_cell_volume 2636.294649
_symmetry_space_group_name_H-M "C 2/C"
_symmetry_group_IT_number 15
_symmetry_cell_setting 'monoclinic'
loop_
_space_group_symop_operation_xyz
x,y,z
-x,y,1/2-z
-x,-y,-z
x,-y,1/2+z
1/2+x,1/2+y,z
1/2-x,1/2+y,1/2-z
1/2-x,1/2-y,-z
1/2+x,1/2-y,1/2+z
loop_
_atom_site_type_symbol
_atom_site_label
_atom_site_fract_x
_atom_site_fract_y
_atom_site_fract_z
Si Si1 0.674721 0.219607 0.784716
Si Si2 0.393633 0.100158 0.146554
Si Si3 0.054419 0.354479 0.070622
Si Si4 0.177669 0.245320 0.061347
Si Si5 0.061029 0.655873 0.179135
Si Si6 0.000000 0.105922 0.250000
Si Si7 0.189407 0.908464 0.279383
Si Si8 0.127286 0.939884 0.130045
O O1 0.664286 0.233722 0.680454
O O2 0.741193 0.139681 0.750724
O O3 0.674920 0.406059 0.819049
O O4 0.630330 0.080640 0.854941
O O5 0.407612 0.104890 0.246548
O O6 0.349147 0.253612 0.160298
O O7 0.448496 0.138765 0.037694
O O8 0.127556 0.352381 0.044906
O O9 0.036366 0.515326 0.133972
O O10 0.016575 0.215815 0.148420
O O11 0.156976 0.069204 0.043504
O O12 0.250000 0.250000 0.000000
O O13 0.106879 0.776367 0.097736
O O14 0.000000 0.748166 0.250000
O O15 0.065337 0.017681 0.216997
O O16 0.174785 0.910061 0.179251
#
# Coordination Sequence:
#
# PCOD9278626 Si02
#       8
#     8   8   8   8   8   4   8   8
#     4  11  20  39  64  90 134 174 209 272 324 389
#     4  11  24  43  63  99 130 169 225 265 328 396
#     4  11  23  41  68  93 128 173 219 265 331 392
#     4  10  21  39  65  91 129 172 215 262 331 393
#     4  11  22  44  66  92 131 170 215 275 321 379
#     4  10  20  44  66  86 130 176 216 272 324 386
#     4  10  21  37  64  92 127 173 214 262 328 383
#     4   9  21  39  65  91 126 173 215 267 329 382
#
# _framework density 22.759217
#
# number of rings (size 3 to 8) (size 9 to 14) (size 15 to 20)
#    0.000    1.600    4.000    0.800    1.867    0.533 
#    7.200    3.333    0.000    0.000    0.000    0.000 
#    0.000    0.000    0.000    0.000    0.000    0.000 
#
# Total GULP energy -167094.415510 kJ/mol
# GULP energy per Si atom -5569.813850 kJ/mol
# Density = 2.270742 g / cm^3
# Si number density = 22.759217 Si / 1000 Ang^3
#
#
#
# Elastic Constant Matrix: (Units=GPa)
#
#
# Indices 1 2 3 4 5 6 
#
# 1 62.0094 13.9737 -9.7931 0.0000 -7.1780 0.0000
# 2 13.9737 97.3374 1.0054 0.0000 -1.1482 0.0000
# 3 -9.7931 1.0054 54.6346 0.0000 4.8783 0.0000
# 4 0.0000 0.0000 0.0000 10.1093 0.0000 -5.7024
# 5 -7.1780 -1.1482 4.8783 0.0000 28.2992 0.0000
# 6 0.0000 0.0000 0.0000 -5.7024 0.0000 35.6051
#
#
#
# Elastic Compliance Matrix: (Units=1/GPa)
#
#
# Indices 1 2 3 4 5 6 
#
# 1 0.017590 -0.002509 0.002854 0.000000 0.003868 0.000000
# 2 -0.002509 0.010639 -0.000637 0.000000 -0.000095 0.000000
# 3 0.002854 -0.000637 0.019058 0.000000 -0.002587 0.000000
# 4 0.000000 0.000000 0.000000 0.108743 0.000000 0.017416
# 5 0.003868 -0.000095 -0.002587 0.000000 0.036760 0.000000
# 6 0.000000 0.000000 0.000000 0.017416 0.000000 0.030875
#
#
# Mechanical properties :
#
#
# Convention : Reuss Voigt Hill
#
# Bulk Modulus (GPa) = 21.41206 24.92817 23.17012
# Shear Modulus (GPa) = 20.84919 28.72241 24.78580
#
# Velocity S-wave (km/s) = 3.02996 3.55633 3.30365
# Velocity P-wave (km/s) = 4.65504 5.27638 4.97542
#
# Compressibility (1/GPa) = 0.04670264
#
# Stress axis : x y z
#
# Youngs Moduli (GPa) = 56.84897 93.99186 52.47225
#
# Poissons Ratio (x) = 0.23584 -0.14975
# Poissons Ratio (y) = 0.14264 0.03343
# Poissons Ratio (z) = -0.16224 0.05988
#
# Static dielectric constant tensor:
#      x y z
#    x 1.855410 0.000000 0.003070 
#    y 0.000000 1.957740 0.000000 
#    z 0.003070 0.000000 1.876580 
# 
# From -- ./inp_files/221876.got.cif
#   From: 2010.05.17/outbox.cif.g08.bks.cpg/sg15_111_cif.got.tgz:221876.got - 2010.06.03 18:47:42.
