data_PCOD9278892
_publ_section_title
;
Structure prediction by ZEFSAII (Michael W. Deem and Ramdas Pophale) SiO2 
 PCOD9278892
Probable space group: C 2/C
;
_chemical_formula_sum "Si O2"
_cell_formula_units_Z 48
_cell_length_a 16.422962
_cell_length_b 20.043223
_cell_length_c 13.102325
_cell_angle_alpha 90.000000
_cell_angle_beta 148.959785
_cell_angle_gamma 90.000000
_cell_volume 2223.891835
_symmetry_space_group_name_H-M "C 2/C"
_symmetry_group_IT_number 15
_symmetry_cell_setting 'monoclinic'
loop_
_space_group_symop_operation_xyz
x,y,z
-x,y,1/2-z
-x,-y,-z
x,-y,1/2+z
1/2+x,1/2+y,z
1/2-x,1/2+y,1/2-z
1/2-x,1/2-y,-z
1/2+x,1/2-y,1/2+z
loop_
_atom_site_type_symbol
_atom_site_label
_atom_site_fract_x
_atom_site_fract_y
_atom_site_fract_z
Si Si1 0.500000 0.043603 0.250000
Si Si2 0.500000 0.287731 0.250000
Si Si3 0.757293 0.811170 0.303065
Si Si4 0.488999 0.100377 0.466882
Si Si5 0.093404 0.193794 0.245269
Si Si6 0.220837 0.709297 0.336112
Si Si7 0.145880 0.420954 0.470094
O O1 0.490694 0.080886 0.348935
O O2 0.650029 0.992713 0.418520
O O3 0.629546 0.327549 0.453879
O O4 0.604124 0.238638 0.293733
O O5 0.660734 0.879390 0.193582
O O6 0.689036 0.759883 0.314530
O O7 0.714313 0.773319 0.152846
O O8 0.945503 0.818230 0.510285
O O9 0.377696 0.165997 0.348300
O O10 0.407955 0.059644 0.471860
O O11 0.208686 0.129702 0.375032
O O12 0.000000 0.202976 0.250000
O O13 0.000000 0.387402 0.250000
#
# Coordination Sequence:
#
# PCOD9278892 Si02
#       7
#     4   4   8   8   8   8   8
#     4  10  27  46  74  90 124 192 241 272 328 380
#     4  10  21  32  54  88 140 176 203 246 314 434
#     4  12  23  37  64 106 138 168 207 271 359 409
#     4  12  22  44  69 100 132 175 227 279 335 407
#     4  12  23  41  66 102 142 174 216 275 344 414
#     4  11  20  36  58  94 138 167 207 258 339 407
#     4  10  24  47  71  93 127 183 235 281 322 386
#
# _framework density 21.583784000000001
#
# number of rings (size 3 to 8) (size 9 to 14) (size 15 to 20)
#    0.500    0.333    5.000    2.500    2.333    1.333 
#    0.000    0.833    1.833    0.000    0.000    0.000 
#    0.000    0.000    0.000    0.000    0.000    0.000 
#
# Total GULP energy -133730.469265 kJ/mol
# GULP energy per Si atom -5572.102886 kJ/mol
# Density = 2.153466 g / cm^3
# Si number density = 21.583784 Si / 1000 Ang^3
#
#
#
# Elastic Constant Matrix: (Units=GPa)
#
#
# Indices 1 2 3 4 5 6 
#
# 1 132.1618 21.5246 8.9800 0.0000 -6.1898 0.0000
# 2 21.5246 48.0505 13.6836 0.0000 3.6634 0.0000
# 3 8.9800 13.6836 139.8587 0.0000 12.5058 0.0000
# 4 0.0000 0.0000 0.0000 27.7678 0.0000 -9.8413
# 5 -6.1898 3.6634 12.5058 0.0000 27.8673 0.0000
# 6 0.0000 0.0000 0.0000 -9.8413 0.0000 17.2039
#
#
#
# Elastic Compliance Matrix: (Units=1/GPa)
#
#
# Indices 1 2 3 4 5 6 
#
# 1 0.008332 -0.003815 -0.000388 0.000000 0.002526 0.000000
# 2 -0.003815 0.023257 -0.001752 0.000000 -0.003119 0.000000
# 3 -0.000388 -0.001752 0.007640 0.000000 -0.003284 0.000000
# 4 0.000000 0.000000 0.000000 0.045171 0.000000 0.025839
# 5 0.002526 -0.003119 -0.003284 0.000000 0.038329 0.000000
# 6 0.000000 0.000000 0.000000 0.025839 0.000000 0.072907
#
#
# Mechanical properties :
#
#
# Convention : Reuss Voigt Hill
#
# Bulk Modulus (GPa) = 36.60161 45.38303 40.99232
# Shear Modulus (GPa) = 23.07850 32.96000 28.01925
#
# Velocity S-wave (km/s) = 3.27349 3.91202 3.60691
# Velocity P-wave (km/s) = 5.59306 6.44028 6.03157
#
# Compressibility (1/GPa) = 0.02732120
#
# Stress axis : x y z
#
# Youngs Moduli (GPa) = 120.01292 42.99800 130.88971
#
# Poissons Ratio (x) = 0.16403 0.05074
# Poissons Ratio (y) = 0.45782 0.22927
# Poissons Ratio (z) = 0.04652 0.07532
#
# Static dielectric constant tensor:
#      x y z
#    x 1.844470 0.000000 -0.072270 
#    y 0.000000 1.804220 0.000000 
#    z -0.072270 0.000000 1.861320 
# 
# From -- ./inp_files/163340.got.cif
#   From: 2010.05.17/outbox.cif.g08.bks.cpg/sg15_82_cif.got.tgz:163340.got - 2010.06.03 18:47:42.
