data_PCOD9278546
_publ_section_title
;
Structure prediction by ZEFSAII (Michael W. Deem and Ramdas Pophale) SiO2 
 PCOD9278546
Probable space group: C 2/C
;
_chemical_formula_sum "Si O2"
_cell_formula_units_Z 44
_cell_length_a 7.826449
_cell_length_b 13.575325
_cell_length_c 17.435815
_cell_angle_alpha 90.000000
_cell_angle_beta 109.532035
_cell_angle_gamma 90.000000
_cell_volume 1745.893449
_symmetry_space_group_name_H-M "C 2/C"
_symmetry_group_IT_number 15
_symmetry_cell_setting 'monoclinic'
loop_
_space_group_symop_operation_xyz
x,y,z
-x,y,1/2-z
-x,-y,-z
x,-y,1/2+z
1/2+x,1/2+y,z
1/2-x,1/2+y,1/2-z
1/2-x,1/2-y,-z
1/2+x,1/2-y,1/2+z
loop_
_atom_site_type_symbol
_atom_site_label
_atom_site_fract_x
_atom_site_fract_y
_atom_site_fract_z
Si Si1 0.123024 0.862502 0.642281
Si Si2 0.188526 0.530205 0.595049
Si Si3 0.500000 0.492067 0.250000
Si Si4 0.077379 0.365156 0.933072
Si Si5 0.940042 0.345018 0.159165
Si Si6 0.604285 0.315459 0.025321
O O1 0.318873 0.856215 0.631690
O O2 0.039013 0.760676 0.662688
O O3 0.114206 0.939809 0.708931
O O4 0.985704 0.886733 0.550743
O O5 0.359155 0.559725 0.672176
O O6 0.193742 0.566730 0.508858
O O7 0.019487 0.589110 0.604168
O O8 0.121354 0.417900 0.597699
O O9 0.046825 0.258785 0.966021
O O10 0.000000 0.384114 0.250000
O O11 0.724432 0.349736 0.114852
O O12 0.750000 0.250000 0.000000
#
# Coordination Sequence:
#
# PCOD9278546 Si02
#       6
#     8   8   4   8   8   8
#     4  11  24  44  71  98 131 186 230 283 333 421
#     4  11  26  45  65 101 139 180 222 294 345 415
#     4  12  28  46  64 102 146 180 230 284 360 394
#     4  11  24  44  73  99 134 179 239 276 350 415
#     4  11  24  44  70 100 140 177 229 287 349 399
#     4  10  20  43  72  95 129 182 226 275 336 413
#
# _framework density 25.201995
#
# number of rings (size 3 to 8) (size 9 to 14) (size 15 to 20)
#    0.000    1.091    4.545    2.727    5.091    2.182 
#    0.000    0.000    0.000    0.000    0.000    0.000 
#    0.000    0.000    0.000    0.000    0.000    0.000 
#
# Total GULP energy -123093.478653 kJ/mol
# GULP energy per Si atom -5595.158121 kJ/mol
# Density = 2.514463 g / cm^3
# Si number density = 25.201995 Si / 1000 Ang^3
#
#
#
# Elastic Constant Matrix: (Units=GPa)
#
#
# Indices 1 2 3 4 5 6 
#
# 1 114.4576 8.8294 21.0567 0.0000 -18.1819 0.0000
# 2 8.8294 40.8108 2.4818 0.0000 -3.1576 0.0000
# 3 21.0567 2.4818 118.4374 0.0000 12.6323 0.0000
# 4 0.0000 0.0000 0.0000 16.4701 0.0000 5.3853
# 5 -18.1819 -3.1576 12.6323 0.0000 47.3187 0.0000
# 6 0.0000 0.0000 0.0000 5.3853 0.0000 26.4259
#
#
#
# Elastic Compliance Matrix: (Units=1/GPa)
#
#
# Indices 1 2 3 4 5 6 
#
# 1 0.009953 -0.001688 -0.002192 0.000000 0.004297 0.000000
# 2 -0.001688 0.024975 -0.000342 0.000000 0.001109 0.000000
# 3 -0.002192 -0.000342 0.009194 0.000000 -0.003320 0.000000
# 4 0.000000 0.000000 0.000000 0.065051 0.000000 -0.013257
# 5 0.004297 0.001109 -0.003320 0.000000 0.023745 0.000000
# 6 0.000000 0.000000 0.000000 -0.013257 0.000000 0.040543
#
#
# Mechanical properties :
#
#
# Convention : Reuss Voigt Hill
#
# Bulk Modulus (GPa) = 28.02764 37.60460 32.81612
# Shear Modulus (GPa) = 25.80016 34.13213 29.96614
#
# Velocity S-wave (km/s) = 3.20306 3.68413 3.45198
# Velocity P-wave (km/s) = 4.98245 5.74898 5.37938
#
# Compressibility (1/GPa) = 0.03567906
#
# Stress axis : x y z
#
# Youngs Moduli (GPa) = 100.47236 40.03999 108.76293
#
# Poissons Ratio (x) = 0.06757 0.23846
# Poissons Ratio (y) = 0.16955 0.03716
# Poissons Ratio (z) = 0.22028 0.01368
#
# Static dielectric constant tensor:
#      x y z
#    x 1.992590 0.000000 0.065330 
#    y 0.000000 2.064850 0.000000 
#    z 0.065330 0.000000 1.986320 
# 
# From -- ./inp_files/189337.got.cif
#   From: 2010.05.17/outbox.cif.g08.bks.cpg/sg15_95_cif.got.tgz:189337.got - 2010.06.03 18:47:42.
