data_PCOD9278437
_publ_section_title
;
Structure prediction by ZEFSAII (Michael W. Deem and Ramdas Pophale) SiO2 
 PCOD9278437
Probable space group: C 2/C
;
_chemical_formula_sum "Si O2"
_cell_formula_units_Z 40
_cell_length_a 20.561592
_cell_length_b 11.407725
_cell_length_c 15.682901
_cell_angle_alpha 90.000000
_cell_angle_beta 27.657647
_cell_angle_gamma 90.000000
_cell_volume 1707.558390
_symmetry_space_group_name_H-M "C 2/C"
_symmetry_group_IT_number 15
_symmetry_cell_setting 'monoclinic'
loop_
_space_group_symop_operation_xyz
x,y,z
-x,y,1/2-z
-x,-y,-z
x,-y,1/2+z
1/2+x,1/2+y,z
1/2-x,1/2+y,1/2-z
1/2-x,1/2-y,-z
1/2+x,1/2-y,1/2+z
loop_
_atom_site_type_symbol
_atom_site_label
_atom_site_fract_x
_atom_site_fract_y
_atom_site_fract_z
Si Si1 0.382096 0.587441 0.169831
Si Si2 0.924592 0.463616 0.743421
Si Si3 0.415537 0.258297 0.476057
Si Si4 0.098394 0.276308 0.216455
Si Si5 0.703382 0.611806 0.615903
O O1 0.439660 0.675205 0.173905
O O2 0.280280 0.498818 0.337917
O O3 0.500000 0.500000 0.000000
O O4 0.340288 0.672168 0.140378
O O5 0.000886 0.363722 0.599953
O O6 0.918459 0.596746 0.720260
O O7 0.000000 0.461137 0.750000
O O8 0.766128 0.430483 0.953784
O O9 0.544218 0.342056 0.297081
O O10 0.301949 0.213277 0.540200
O O11 0.000000 0.275024 0.250000
O O12 0.250000 0.250000 0.000000
#
# Coordination Sequence:
#
# PCOD9278437 Si02
#       5
#     8   8   8   8   8
#     4  10  23  44  64  95 136 166 212 272 322 383
#     4   9  19  39  65  94 129 167 216 265 311 383
#     4  10  22  40  65  93 132 171 208 270 328 365
#     4  11  23  43  70  95 128 173 219 262 321 389
#     4  10  20  43  64  92 134 172 215 267 314 389
#
# _framework density 23.425260999999999
#
# number of rings (size 3 to 8) (size 9 to 14) (size 15 to 20)
#    0.000    2.000    2.000    0.600    0.000    4.000 
#   10.800    4.000    0.000    0.000    0.000    0.000 
#    0.000    0.000    0.000    0.000    0.000    0.000 
#
# Total GULP energy -111644.367421 kJ/mol
# GULP energy per Si atom -5582.218371 kJ/mol
# Density = 2.337194 g / cm^3
# Si number density = 23.425261 Si / 1000 Ang^3
#
#
#
# Elastic Constant Matrix: (Units=GPa)
#
#
# Indices 1 2 3 4 5 6 
#
# 1 43.4810 24.0124 20.6528 0.0000 -9.4365 0.0000
# 2 24.0124 180.0581 51.9728 0.0000 12.7004 0.0000
# 3 20.6528 51.9728 63.3263 0.0000 1.4991 0.0000
# 4 0.0000 0.0000 0.0000 51.0416 0.0000 20.1226
# 5 -9.4365 12.7004 1.4991 0.0000 29.3411 0.0000
# 6 0.0000 0.0000 0.0000 20.1226 0.0000 41.5676
#
#
#
# Elastic Compliance Matrix: (Units=1/GPa)
#
#
# Indices 1 2 3 4 5 6 
#
# 1 0.030786 -0.002536 -0.008230 0.000000 0.011419 0.000000
# 2 -0.002536 0.007733 -0.005427 0.000000 -0.003885 0.000000
# 3 -0.008230 -0.005427 0.022964 0.000000 -0.001471 0.000000
# 4 0.000000 0.000000 0.000000 0.024213 0.000000 -0.011721
# 5 0.011419 -0.003885 -0.001471 0.000000 0.039511 0.000000
# 6 0.000000 0.000000 0.000000 -0.011721 0.000000 0.029731
#
#
# Mechanical properties :
#
#
# Convention : Reuss Voigt Hill
#
# Bulk Modulus (GPa) = 34.36691 53.34903 43.85797
# Shear Modulus (GPa) = 25.37778 37.07188 31.22483
#
# Velocity S-wave (km/s) = 3.29500 3.98246 3.65493
# Velocity P-wave (km/s) = 5.40174 6.63100 6.04768
#
# Compressibility (1/GPa) = 0.02909775
#
# Stress axis : x y z
#
# Youngs Moduli (GPa) = 32.48225 129.32418 43.54598
#
# Poissons Ratio (x) = 0.32792 0.35837
# Poissons Ratio (y) = 0.08236 0.23634
# Poissons Ratio (z) = 0.26732 0.70188
#
# Static dielectric constant tensor:
#      x y z
#    x 1.889790 0.000000 0.000520 
#    y 0.000000 1.842820 0.000000 
#    z 0.000520 0.000000 1.955220 
# 
# From -- ./inp_files/173080.got.cif
#   From: 2010.05.17/outbox.cif.g08.bks.cpg/sg15_87_cif.got.tgz:173080.got - 2010.06.03 18:47:42.
