data_PCOD9278131
_publ_section_title
;
Structure prediction by ZEFSAII (Michael W. Deem and Ramdas Pophale) SiO2 
 PCOD9278131
Probable space group: C 2/C
;
_chemical_formula_sum "Si O2"
_cell_formula_units_Z 52
_cell_length_a 15.010915
_cell_length_b 22.325619
_cell_length_c 12.274475
_cell_angle_alpha 90.000000
_cell_angle_beta 40.557187
_cell_angle_gamma 90.000000
_cell_volume 2674.638132
_symmetry_space_group_name_H-M "C 2/C"
_symmetry_group_IT_number 15
_symmetry_cell_setting 'monoclinic'
loop_
_space_group_symop_operation_xyz
x,y,z
-x,y,1/2-z
-x,-y,-z
x,-y,1/2+z
1/2+x,1/2+y,z
1/2-x,1/2+y,1/2-z
1/2-x,1/2-y,-z
1/2+x,1/2-y,1/2+z
loop_
_atom_site_type_symbol
_atom_site_label
_atom_site_fract_x
_atom_site_fract_y
_atom_site_fract_z
Si Si1 0.849021 0.002841 0.588914
Si Si2 0.635794 0.728615 0.692388
Si Si3 0.680961 0.609601 0.258383
Si Si4 0.056992 0.316787 0.964124
Si Si5 0.000000 0.038850 0.250000
Si Si6 0.959360 0.806653 0.912553
Si Si7 0.256236 0.866332 0.249006
O O1 0.887416 0.004815 0.426552
O O2 0.778982 0.063380 0.699890
O O3 0.782978 0.940812 0.686678
O O4 0.000000 0.000000 0.500000
O O5 0.500000 0.714991 0.750000
O O6 0.750000 0.750000 0.500000
O O7 0.686441 0.670581 0.714048
O O8 0.602546 0.782359 0.810054
O O9 0.597056 0.576422 0.240829
O O10 0.568829 0.660372 0.390703
O O11 0.820116 0.643227 0.104551
O O12 0.034111 0.262563 0.067760
O O13 0.916882 0.353786 0.086280
O O14 0.000000 0.815188 0.750000
O O15 0.812800 0.834331 0.080970
#
# Coordination Sequence:
#
# PCOD9278131 Si02
#       7
#     8   8   8   8   4   8   8
#     4  10  21  41  65  91 123 171 218 269 315 383
#     4  11  23  43  66  96 135 174 218 265 321 389
#     4  11  22  43  63  92 128 166 220 265 315 393
#     4  11  26  39  62  99 134 169 210 271 337 373
#     4  10  20  42  66  94 120 166 224 264 312 386
#     4  11  21  40  65  93 128 173 215 261 318 390
#     4  11  22  41  64  97 131 166 215 273 318 383
#
# _framework density 19.441884000000002
#
# number of rings (size 3 to 8) (size 9 to 14) (size 15 to 20)
#    0.000    1.231    5.385    1.846    2.154    4.308 
#   11.077    0.000    0.000    0.000    0.000    0.000 
#    0.000    0.000    0.000    0.000    0.000    0.000 
#
# Total GULP energy -144889.966161 kJ/mol
# GULP energy per Si atom -5572.691006 kJ/mol
# Density = 1.939763 g / cm^3
# Si number density = 19.441884 Si / 1000 Ang^3
#
#
#
# Elastic Constant Matrix: (Units=GPa)
#
#
# Indices 1 2 3 4 5 6 
#
# 1 66.0708 27.5985 41.1717 0.0113 -6.6375 -0.0044
# 2 27.5985 135.3588 55.3435 0.0147 1.3968 -0.0057
# 3 41.1717 55.3435 118.0860 0.0194 4.1283 -0.0073
# 4 0.0113 0.0147 0.0194 679.0375 -0.0155 -270.1738
# 5 -6.6375 1.3968 4.1283 -0.0155 37.4090 0.0059
# 6 -0.0044 -0.0057 -0.0073 -270.1738 0.0059 95.2195
#
#
#
# Elastic Compliance Matrix: (Units=1/GPa)
#
#
# Indices 1 2 3 4 5 6 
#
# 1 0.020262 -0.001516 -0.006507 0.000000 0.004370 0.000000
# 2 -0.001516 0.009253 -0.003801 0.000000 -0.000195 0.000000
# 3 -0.006507 -0.003801 0.012603 0.000000 -0.002403 0.000000
# 4 0.000000 0.000000 0.000000 -0.011422 0.000000 -0.032409
# 5 0.004370 -0.000195 -0.002403 0.000000 0.027779 -0.000001
# 6 0.000000 0.000000 0.000000 -0.032409 -0.000001 -0.081455
#
#
# Mechanical properties :
#
#
# Convention : Reuss Voigt Hill
#
# Bulk Modulus (GPa) = 54.14264 63.08257 58.61260
# Shear Modulus (GPa) = 732.65085 175.35998 454.00542
#
# Velocity S-wave (km/s) = 19.43347 9.50751 15.29792
# Velocity P-wave (km/s) = 23.05331 12.37097 18.49995
#
# Compressibility (1/GPa) = 0.01846973
#
# Stress axis : x y z
#
# Youngs Moduli (GPa) = 49.35290 108.07196 79.34833
#
# Poissons Ratio (x) = 0.16383 0.51631
# Poissons Ratio (y) = 0.07482 0.30163
# Poissons Ratio (z) = 0.32113 0.41081
#
# Static dielectric constant tensor:
#      x y z
#    x 1.704560 0.000000 0.028110 
#    y 0.000000 1.737960 0.000000 
#    z 0.028110 0.000000 1.671090 
# 
# From -- ./inp_files/100623.got.cif
#   From: 2010.05.17/outbox.cif.g08.bks.cpg/sg15_51_cif.got.tgz:100623.got - 2010.06.03 18:47:42.
