data_PCOD9278701
_publ_section_title
;
Structure prediction by ZEFSAII (Michael W. Deem and Ramdas Pophale) SiO2 
 PCOD9278701
Probable space group: C 2/C
;
_chemical_formula_sum "Si O2"
_cell_formula_units_Z 28
_cell_length_a 13.629026
_cell_length_b 5.363667
_cell_length_c 18.664827
_cell_angle_alpha 90.000000
_cell_angle_beta 54.369892
_cell_angle_gamma 90.000000
_cell_volume 1108.999850
_symmetry_space_group_name_H-M "C 2/C"
_symmetry_group_IT_number 15
_symmetry_cell_setting 'monoclinic'
loop_
_space_group_symop_operation_xyz
x,y,z
-x,y,1/2-z
-x,-y,-z
x,-y,1/2+z
1/2+x,1/2+y,z
1/2-x,1/2+y,1/2-z
1/2-x,1/2-y,-z
1/2+x,1/2-y,1/2+z
loop_
_atom_site_type_symbol
_atom_site_label
_atom_site_fract_x
_atom_site_fract_y
_atom_site_fract_z
Si Si1 0.104331 0.748503 0.065514
Si Si2 0.864268 0.751189 0.007163
Si Si3 0.000000 0.958457 0.250000
Si Si4 0.271584 0.730474 0.284668
O O1 0.062392 0.785818 0.164094
O O2 0.250000 0.750000 0.000000
O O3 0.063730 0.494837 0.046081
O O4 0.066084 0.996158 0.040062
O O5 0.810033 0.743111 0.109281
O O6 0.750000 0.750000 0.000000
O O7 0.901660 0.135013 0.255164
O O8 0.227080 0.502777 0.252572
#
# Coordination Sequence:
#
# PCOD9278701 Si02
#       4
#     8   8   4   8
#     4  10  21  40  74 103 137 199 240 292 370 443
#     4  10  20  44  71  95 155 187 232 316 362 417
#     4  12  26  48  82 104 154 208 236 306 406 416
#     4  12  28  47  74 116 150 191 259 313 359 454
#
# _framework density 25.247976999999999
#
# number of rings (size 3 to 8) (size 9 to 14) (size 15 to 20)
#    0.000    1.143    5.714    1.714    4.000    4.571 
#    0.000    8.571    0.000    0.000    0.000    0.000 
#    0.000    0.000    0.000    0.000    0.000    0.000 
#
# Total GULP energy -78506.253318 kJ/mol
# GULP energy per Si atom -5607.589523 kJ/mol
# Density = 2.519051 g / cm^3
# Si number density = 25.247977 Si / 1000 Ang^3
#
#
#
# Elastic Constant Matrix: (Units=GPa)
#
#
# Indices 1 2 3 4 5 6 
#
# 1 95.4739 -13.3147 24.2482 0.0015 3.6137 0.0044
# 2 -13.3147 207.7926 72.2673 0.0051 20.0070 0.0085
# 3 24.2482 72.2673 251.6201 -0.0006 22.2224 -0.0001
# 4 0.0015 0.0051 -0.0006 47.4493 0.0000 3.9052
# 5 3.6137 20.0070 22.2224 0.0000 39.9211 0.0012
# 6 0.0044 0.0085 -0.0001 3.9052 0.0012 3.7636
#
#
#
# Elastic Compliance Matrix: (Units=1/GPa)
#
#
# Indices 1 2 3 4 5 6 
#
# 1 0.011025 0.001259 -0.001346 0.000001 -0.000880 -0.000016
# 2 0.001259 0.005634 -0.001557 0.000000 -0.002071 -0.000014
# 3 -0.001346 -0.001557 0.004703 0.000000 -0.001716 0.000006
# 4 0.000001 0.000000 0.000000 0.023043 0.000001 -0.023910
# 5 -0.000880 -0.002071 -0.001716 0.000001 0.027122 -0.000004
# 6 -0.000016 -0.000014 0.000006 -0.023910 -0.000004 0.290510
#
#
# Mechanical properties :
#
#
# Convention : Reuss Voigt Hill
#
# Bulk Modulus (GPa) = 55.32733 80.14315 67.73524
# Shear Modulus (GPa) = 13.46444 49.67252 31.56848
#
# Velocity S-wave (km/s) = 2.31181 4.44033 3.53985
# Velocity P-wave (km/s) = 5.39324 7.62234 6.60254
#
# Compressibility (1/GPa) = 0.01807425
#
# Stress axis : x y z
#
# Youngs Moduli (GPa) = 90.70315 177.49514 212.64846
#
# Poissons Ratio (x) = -0.22354 0.28633
# Poissons Ratio (y) = -0.11423 0.33100
# Poissons Ratio (z) = 0.12213 0.27629
#
# Static dielectric constant tensor:
#      x y z
#    x 1.953370 -0.000170 0.069910 
#    y -0.000170 0.133110 -0.000030 
#    z 0.069910 -0.000030 1.957820 
# 
# From -- ./inp_files/201688.got.cif
#   From: 2010.05.17/outbox.cif.g08.bks.cpg/sg15_101_cif.got.tgz:201688.got - 2010.06.03 18:47:42.
