data_PCOD9278325
_publ_section_title
;
Structure prediction by ZEFSAII (Michael W. Deem and Ramdas Pophale) SiO2 
 PCOD9278325
Probable space group: C 2/C
;
_chemical_formula_sum "Si O2"
_cell_formula_units_Z 64
_cell_length_a 24.237478
_cell_length_b 19.793338
_cell_length_c 18.176431
_cell_angle_alpha 90.000000
_cell_angle_beta 20.941191
_cell_angle_gamma 90.000000
_cell_volume 3116.600974
_symmetry_space_group_name_H-M "C 2/C"
_symmetry_group_IT_number 15
_symmetry_cell_setting 'monoclinic'
loop_
_space_group_symop_operation_xyz
x,y,z
-x,y,1/2-z
-x,-y,-z
x,-y,1/2+z
1/2+x,1/2+y,z
1/2-x,1/2+y,1/2-z
1/2-x,1/2-y,-z
1/2+x,1/2-y,1/2+z
loop_
_atom_site_type_symbol
_atom_site_label
_atom_site_fract_x
_atom_site_fract_y
_atom_site_fract_z
Si Si1 0.980950 0.513589 0.436713
Si Si2 0.585118 0.841462 0.833739
Si Si3 0.366793 0.910053 0.354793
Si Si4 0.035310 0.292943 0.062290
Si Si5 0.857063 0.042466 0.149822
Si Si6 0.670979 0.334344 0.713209
Si Si7 0.582696 0.404445 0.077777
Si Si8 0.576534 0.730929 0.732250
O O1 0.813968 0.485530 0.619676
O O2 0.000000 0.500000 0.500000
O O3 0.990367 0.594217 0.422758
O O4 0.112598 0.474972 0.224660
O O5 0.761828 0.863037 0.596856
O O6 0.526861 0.776797 0.862071
O O7 0.578633 0.824231 0.928482
O O8 0.500000 0.920196 0.250000
O O9 0.413287 0.845465 0.248146
O O10 0.220438 0.884772 0.584730
O O11 0.957615 0.219911 0.149009
O O12 0.179204 0.295000 0.939939
O O13 0.873996 0.116170 0.164414
O O14 0.871556 0.046883 0.044230
O O15 0.000000 0.000000 0.000000
O O16 0.500000 0.438214 0.250000
O O17 0.461919 0.346690 0.203357
O O18 0.500000 0.748091 0.750000
O O19 0.750000 0.750000 0.500000
#
# Coordination Sequence:
#
# PCOD9278325 Si02
#       8
#     8   8   8   8   8   8   8   8
#     4  12  22  45  72  92 134 181 228 268 329 414
#     4  12  23  40  71  97 131 183 227 271 338 408
#     4  10  20  42  70  95 132 171 219 273 333 390
#     4  11  22  40  71  98 134 172 222 275 337 395
#     4  12  26  46  64  98 140 173 222 282 331 398
#     4  11  23  44  68 102 134 175 220 279 339 400
#     4  11  22  44  66  92 137 177 216 284 340 390
#     4  11  23  41  64  98 133 167 224 280 332 399
#
# _framework density 20.535191000000001
#
# number of rings (size 3 to 8) (size 9 to 14) (size 15 to 20)
#    0.000    0.750    8.750    1.125    0.000    3.500 
#    0.000    0.000    0.000    0.000    0.000    0.000 
#    0.000    0.000    0.000    0.000    0.000    0.000 
#
# Total GULP energy -178556.365133 kJ/mol
# GULP energy per Si atom -5579.886410 kJ/mol
# Density = 2.048845 g / cm^3
# Si number density = 20.535191 Si / 1000 Ang^3
#
#
#
# Elastic Constant Matrix: (Units=GPa)
#
#
# Indices 1 2 3 4 5 6 
#
# 1 70.7936 13.8679 27.8392 -0.0049 14.1250 0.0008
# 2 13.8679 64.6021 17.4544 -0.0058 -2.9133 0.0026
# 3 27.8392 17.4544 77.4535 -0.0028 10.2319 0.0044
# 4 -0.0049 -0.0058 -0.0028 31.2781 0.0018 0.2990
# 5 14.1250 -2.9133 10.2319 0.0018 44.8198 -0.0016
# 6 0.0008 0.0026 0.0044 0.2990 -0.0016 41.8876
#
#
#
# Elastic Compliance Matrix: (Units=1/GPa)
#
#
# Indices 1 2 3 4 5 6 
#
# 1 0.017552 -0.002587 -0.005128 0.000002 -0.004529 0.000000
# 2 -0.002587 0.017036 -0.003262 0.000002 0.002667 -0.000001
# 3 -0.005128 -0.003262 0.015779 0.000000 -0.002198 -0.000001
# 4 0.000002 0.000002 0.000000 0.031973 -0.000002 -0.000228
# 5 -0.004529 0.002667 -0.002198 -0.000002 0.024414 0.000001
# 6 0.000000 -0.000001 -0.000001 -0.000228 0.000001 0.023875
#
#
# Mechanical properties :
#
#
# Convention : Reuss Voigt Hill
#
# Bulk Modulus (GPa) = 35.19169 36.79691 35.99430
# Shear Modulus (GPa) = 30.85376 33.84295 32.34835
#
# Velocity S-wave (km/s) = 3.88039 4.06402 3.97327
# Velocity P-wave (km/s) = 6.10336 6.32294 6.21412
#
# Compressibility (1/GPa) = 0.02841580
#
# Stress axis : x y z
#
# Youngs Moduli (GPa) = 56.97237 58.69849 63.37359
#
# Poissons Ratio (x) = 0.15184 0.32496
# Poissons Ratio (y) = 0.14737 0.20671
# Poissons Ratio (z) = 0.29213 0.19146
#
# Static dielectric constant tensor:
#      x y z
#    x 1.757400 0.000000 0.035880 
#    y 0.000000 1.746400 0.000000 
#    z 0.035880 0.000000 1.778380 
# 
# From -- ./inp_files/220262.got.cif
#   From: 2010.05.17/outbox.cif.g08.bks.cpg/sg15_111_cif.got.tgz:220262.got - 2010.06.03 18:47:42.
