data_PCOD9278405
_publ_section_title
;
Structure prediction by ZEFSAII (Michael W. Deem and Ramdas Pophale) SiO2 
 PCOD9278405
Probable space group: C 2/C
;
_chemical_formula_sum "Si O2"
_cell_formula_units_Z 20
_cell_length_a 7.361641
_cell_length_b 11.876635
_cell_length_c 8.931588
_cell_angle_alpha 90.000000
_cell_angle_beta 79.011176
_cell_angle_gamma 90.000000
_cell_volume 766.584017
_symmetry_space_group_name_H-M "C 2/C"
_symmetry_group_IT_number 15
_symmetry_cell_setting 'monoclinic'
loop_
_space_group_symop_operation_xyz
x,y,z
-x,y,1/2-z
-x,-y,-z
x,-y,1/2+z
1/2+x,1/2+y,z
1/2-x,1/2+y,1/2-z
1/2-x,1/2-y,-z
1/2+x,1/2-y,1/2+z
loop_
_atom_site_type_symbol
_atom_site_label
_atom_site_fract_x
_atom_site_fract_y
_atom_site_fract_z
Si Si1 0.244029 0.580614 0.039021
Si Si2 0.580767 0.171282 0.573778
Si Si3 0.000000 0.015790 0.250000
O O1 0.382683 0.562757 0.878794
O O2 0.084492 0.668296 0.022600
O O3 0.152492 0.457173 0.069910
O O4 0.363646 0.590751 0.170035
O O5 0.500000 0.193513 0.750000
O O6 0.750000 0.250000 0.500000
#
# Coordination Sequence:
#
# PCOD9278405 Si02
#       3
#     8   8   4
#     4  10  22  44  77 108 153 201 260 306 405 449
#     4  11  24  45  74 114 153 202 265 318 378 469
#     4  10  20  42  78 108 142 212 244 314 384 464
#
# _framework density 26.089769
#
# number of rings (size 3 to 8) (size 9 to 14) (size 15 to 20)
#    0.000    1.600    4.000    0.000    2.800    0.000 
#    0.000   12.000    0.000    0.000    0.000    0.000 
#    0.000    0.000    0.000    0.000    0.000    0.000 
#
# Total GULP energy -56143.853404 kJ/mol
# GULP energy per Si atom -5614.385340 kJ/mol
# Density = 2.603039 g / cm^3
# Si number density = 26.089769 Si / 1000 Ang^3
#
#
#
# Elastic Constant Matrix: (Units=GPa)
#
#
# Indices 1 2 3 4 5 6 
#
# 1 236.9041 85.8977 116.2093 0.0000 43.2866 0.0000
# 2 85.8977 116.1338 60.9053 0.0000 2.7426 0.0000
# 3 116.2093 60.9053 170.9269 0.0000 20.8062 0.0000
# 4 0.0000 0.0000 0.0000 8.6187 0.0000 22.2620
# 5 43.2866 2.7426 20.8062 0.0000 75.4648 0.0000
# 6 0.0000 0.0000 0.0000 22.2620 0.0000 55.7444
#
#
#
# Elastic Compliance Matrix: (Units=1/GPa)
#
#
# Indices 1 2 3 4 5 6 
#
# 1 0.008102 -0.003990 -0.003662 0.000000 -0.003493 0.000000
# 2 -0.003990 0.012588 -0.002065 0.000000 0.002400 0.000000
# 3 -0.003662 -0.002065 0.009117 0.000000 -0.000338 0.000000
# 4 0.000000 0.000000 0.000000 -3.679933 0.000000 1.469609
# 5 -0.003493 0.002400 -0.000338 0.000000 0.015261 0.000000
# 6 0.000000 0.000000 0.000000 1.469609 0.000000 -0.568961
#
#
# Mechanical properties :
#
#
# Convention : Reuss Voigt Hill
#
# Bulk Modulus (GPa) = 96.39346 116.66550 106.52948
# Shear Modulus (GPa) = -1.19590 45.36242 22.08326
#
# Velocity S-wave (km/s) = -0.67777 4.17430 2.91251
# Velocity P-wave (km/s) = 6.03445 8.24907 7.22709
#
# Compressibility (1/GPa) = 0.01037415
#
# Stress axis : x y z
#
# Youngs Moduli (GPa) = 123.42423 79.43965 109.68687
#
# Poissons Ratio (x) = 0.31696 0.40163
# Poissons Ratio (y) = 0.49245 0.22650
# Poissons Ratio (z) = 0.45193 0.16404
#
# Static dielectric constant tensor:
#      x y z
#    x 2.104220 0.000000 0.044310 
#    y 0.000000 2.069590 0.000000 
#    z 0.044310 0.000000 1.974140 
# 
# From -- ./inp_files/20708.got.cif
#   From: 2010.05.17/outbox.cif.g08.bks.cpg/sg15_11_cif.got.tgz:20708.got - 2010.06.03 18:47:42.
