data_PCOD9278425
_publ_section_title
;
Structure prediction by ZEFSAII (Michael W. Deem and Ramdas Pophale) SiO2 
 PCOD9278425
Probable space group: C 2/C
;
_chemical_formula_sum "Si O2"
_cell_formula_units_Z 52
_cell_length_a 26.674710
_cell_length_b 9.559881
_cell_length_c 13.861745
_cell_angle_alpha 90.000000
_cell_angle_beta 42.435959
_cell_angle_gamma 90.000000
_cell_volume 2385.190681
_symmetry_space_group_name_H-M "C 2/C"
_symmetry_group_IT_number 15
_symmetry_cell_setting 'monoclinic'
loop_
_space_group_symop_operation_xyz
x,y,z
-x,y,1/2-z
-x,-y,-z
x,-y,1/2+z
1/2+x,1/2+y,z
1/2-x,1/2+y,1/2-z
1/2-x,1/2-y,-z
1/2+x,1/2-y,1/2+z
loop_
_atom_site_type_symbol
_atom_site_label
_atom_site_fract_x
_atom_site_fract_y
_atom_site_fract_z
Si Si1 0.684153 0.651544 0.665948
Si Si2 0.569299 0.422926 0.849035
Si Si3 0.179318 0.324010 0.157855
Si Si4 0.129255 0.811418 0.025537
Si Si5 0.000000 0.992591 0.750000
Si Si6 0.783826 0.582335 0.261261
Si Si7 0.843292 0.485935 0.981677
O O1 0.630899 0.538113 0.785189
O O2 0.658714 0.660446 0.592227
O O3 0.679572 0.800693 0.722793
O O4 0.766001 0.589554 0.561053
O O5 0.617237 0.278944 0.792738
O O6 0.544054 0.413631 0.771784
O O7 0.500000 0.500000 0.000000
O O8 0.212321 0.432232 0.190488
O O9 0.250000 0.250000 0.000000
O O10 0.137676 0.417664 0.135529
O O11 0.058406 0.907320 0.112340
O O12 0.200026 0.862304 0.864168
O O13 0.108807 0.647819 0.053437
O O14 0.825864 0.575005 0.100826
#
# Coordination Sequence:
#
# PCOD9278425 Si02
#       7
#     8   8   8   8   4   8   8
#     4  10  20  44  61  90 129 171 213 271 329 382
#     4  11  26  42  68  92 135 175 212 267 336 410
#     4  12  23  42  64 103 132 166 225 286 333 386
#     4  10  20  43  63  90 131 172 221 265 332 395
#     4  10  24  42  62  88 128 182 208 256 332 412
#     4  11  23  37  69  96 126 168 223 283 323 389
#     4  11  22  36  68  99 126 165 223 282 327 383
#
# _framework density 21.801192
#
# number of rings (size 3 to 8) (size 9 to 14) (size 15 to 20)
#    0.000    1.231    4.615    1.846    8.615    1.231 
#    0.000    3.077    0.000    0.000    0.000    0.000 
#    0.000    0.000    0.000    0.000    0.000    0.000 
#
# Total GULP energy -144996.229389 kJ/mol
# GULP energy per Si atom -5576.778053 kJ/mol
# Density = 2.175157 g / cm^3
# Si number density = 21.801192 Si / 1000 Ang^3
#
#
#
# Elastic Constant Matrix: (Units=GPa)
#
#
# Indices 1 2 3 4 5 6 
#
# 1 66.8558 31.1262 1.0076 0.0000 9.2403 0.0000
# 2 31.1262 119.0475 33.9050 0.0000 -6.3266 0.0000
# 3 1.0076 33.9050 48.0481 0.0000 7.3361 0.0000
# 4 0.0000 0.0000 0.0000 28.4785 0.0000 10.5044
# 5 9.2403 -6.3266 7.3361 0.0000 26.2271 0.0000
# 6 0.0000 0.0000 0.0000 10.5044 0.0000 25.0265
#
#
#
# Elastic Compliance Matrix: (Units=1/GPa)
#
#
# Indices 1 2 3 4 5 6 
#
# 1 0.019905 -0.007660 0.006624 0.000000 -0.010713 0.000000
# 2 -0.007660 0.014077 -0.011181 0.000000 0.009222 0.000000
# 3 0.006624 -0.011181 0.030640 0.000000 -0.013601 0.000000
# 4 0.000000 0.000000 0.000000 0.041546 0.000000 -0.017438
# 5 -0.010713 0.009222 -0.013601 0.000000 0.047932 0.000000
# 6 0.000000 0.000000 0.000000 -0.017438 0.000000 0.047277
#
#
# Mechanical properties :
#
#
# Convention : Reuss Voigt Hill
#
# Bulk Modulus (GPa) = 24.88349 40.66987 32.77668
# Shear Modulus (GPa) = 20.90230 27.14061 24.02145
#
# Velocity S-wave (km/s) = 3.09976 3.53216 3.32300
# Velocity P-wave (km/s) = 4.92442 5.94393 5.45803
#
# Compressibility (1/GPa) = 0.04018728
#
# Stress axis : x y z
#
# Youngs Moduli (GPa) = 50.23917 71.03645 32.63700
#
# Poissons Ratio (x) = 0.54415 -0.21618
# Poissons Ratio (y) = 0.38484 0.36491
# Poissons Ratio (z) = -0.33277 0.79426
#
# Static dielectric constant tensor:
#      x y z
#    x 1.842390 0.000000 -0.029280 
#    y 0.000000 1.858140 0.000000 
#    z -0.029280 0.000000 1.926620 
# 
# From -- ./inp_files/181065.got.cif
#   From: 2010.05.17/outbox.cif.g08.bks.cpg/sg15_91_cif.got.tgz:181065.got - 2010.06.03 18:47:42.
