data_PCOD9278342
_publ_section_title
;
Structure prediction by ZEFSAII (Michael W. Deem and Ramdas Pophale) SiO2 
 PCOD9278342
Probable space group: C 2/C
;
_chemical_formula_sum "Si O2"
_cell_formula_units_Z 32
_cell_length_a 4.895059
_cell_length_b 25.195006
_cell_length_c 11.690740
_cell_angle_alpha 90.000000
_cell_angle_beta 74.004767
_cell_angle_gamma 90.000000
_cell_volume 1386.010101
_symmetry_space_group_name_H-M "C 2/C"
_symmetry_group_IT_number 15
_symmetry_cell_setting 'monoclinic'
loop_
_space_group_symop_operation_xyz
x,y,z
-x,y,1/2-z
-x,-y,-z
x,-y,1/2+z
1/2+x,1/2+y,z
1/2-x,1/2+y,1/2-z
1/2-x,1/2-y,-z
1/2+x,1/2-y,1/2+z
loop_
_atom_site_type_symbol
_atom_site_label
_atom_site_fract_x
_atom_site_fract_y
_atom_site_fract_z
Si Si1 0.313110 0.037682 0.668852
Si Si2 0.404664 0.640672 0.892649
Si Si3 0.000000 0.560607 0.250000
Si Si4 0.828688 0.689447 0.013286
Si Si5 0.000000 0.134341 0.250000
O O1 0.500000 0.063654 0.750000
O O2 0.241508 0.082460 0.585277
O O3 0.000000 0.023349 0.750000
O O4 0.464499 0.980293 0.646214
O O5 0.500000 0.648129 0.750000
O O6 0.675578 0.651252 0.939073
O O7 0.163222 0.680967 0.961949
O O8 0.278294 0.596640 0.208709
O O9 0.697993 0.670183 0.147577
O O10 0.750000 0.750000 0.000000
#
# Coordination Sequence:
#
# PCOD9278342 Si02
#       5
#     8   8   4   8   4
#     4   9  17  36  69 101 137 176 222 281 332 417
#     4  11  23  44  77 102 136 175 242 290 335 411
#     4  10  20  42  71 100 145 186 216 284 358 418
#     4  12  28  47  69 104 134 193 234 290 357 392
#     4  12  26  46  69  96 155 178 230 288 348 440
#
# _framework density 23.087855000000001
#
# number of rings (size 3 to 8) (size 9 to 14) (size 15 to 20)
#    0.750    0.500    1.250    6.000    3.500    0.000 
#    0.000    7.500    0.000    0.000    0.000    0.000 
#    0.000    0.000    0.000    0.000    0.000    0.000 
#
# Total GULP energy -89309.812622 kJ/mol
# GULP energy per Si atom -5581.863289 kJ/mol
# Density = 2.303531 g / cm^3
# Si number density = 23.087855 Si / 1000 Ang^3
#
#
#
# Elastic Constant Matrix: (Units=GPa)
#
#
# Indices 1 2 3 4 5 6 
#
# 1 107.8092 12.2304 1.3187 0.0000 -6.4327 0.0000
# 2 12.2304 135.0278 21.6498 0.0000 -14.7419 0.0000
# 3 1.3187 21.6498 82.8969 0.0000 -17.4956 0.0000
# 4 0.0000 0.0000 0.0000 10.0710 0.0000 7.2426
# 5 -6.4327 -14.7419 -17.4956 0.0000 35.8415 0.0000
# 6 0.0000 0.0000 0.0000 7.2426 0.0000 -25.4398
#
#
#
# Elastic Compliance Matrix: (Units=1/GPa)
#
#
# Indices 1 2 3 4 5 6 
#
# 1 0.009449 -0.000744 0.000376 0.000000 0.001573 0.000000
# 2 -0.000744 0.007985 -0.001570 0.000000 0.002384 0.000000
# 3 0.000376 -0.001570 0.013763 0.000000 0.006140 0.000000
# 4 0.000000 0.000000 0.000000 0.082421 0.000000 0.023465
# 5 0.001573 0.002384 0.006140 0.000000 0.032161 0.000000
# 6 0.000000 0.000000 0.000000 0.023465 0.000000 -0.032628
#
#
# Mechanical properties :
#
#
# Convention : Reuss Voigt Hill
#
# Bulk Modulus (GPa) = 36.60252 44.01463 40.30857
# Shear Modulus (GPa) = 39.63990 23.46354 31.55172
#
# Velocity S-wave (km/s) = 4.14806 3.19136 3.70076
# Velocity P-wave (km/s) = 6.23136 5.71709 5.97976
#
# Compressibility (1/GPa) = 0.02732052
#
# Stress axis : x y z
#
# Youngs Moduli (GPa) = 105.82711 125.22827 72.65754
#
# Poissons Ratio (x) = 0.09322 -0.02733
# Poissons Ratio (y) = 0.07878 0.11411
# Poissons Ratio (z) = -0.03981 0.19667
#
# Static dielectric constant tensor:
#      x y z
#    x 1.840100 0.000000 -0.023380 
#    y 0.000000 1.884460 0.000000 
#    z -0.023380 0.000000 1.913230 
# 
# From -- ./inp_files/72201.got.cif
#   From: 2010.05.17/outbox.cif.g08.bks.cpg/sg15_37_cif.got.tgz:72201.got - 2010.06.03 18:47:42.
