data_PCOD9278684
_publ_section_title
;
Structure prediction by ZEFSAII (Michael W. Deem and Ramdas Pophale) SiO2 
 PCOD9278684
Probable space group: C 2/C
;
_chemical_formula_sum "Si O2"
_cell_formula_units_Z 40
_cell_length_a 6.595522
_cell_length_b 12.777880
_cell_length_c 20.484477
_cell_angle_alpha 90.000000
_cell_angle_beta 114.363999
_cell_angle_gamma 90.000000
_cell_volume 1572.621053
_symmetry_space_group_name_H-M "C 2/C"
_symmetry_group_IT_number 15
_symmetry_cell_setting 'monoclinic'
loop_
_space_group_symop_operation_xyz
x,y,z
-x,y,1/2-z
-x,-y,-z
x,-y,1/2+z
1/2+x,1/2+y,z
1/2-x,1/2+y,1/2-z
1/2-x,1/2-y,-z
1/2+x,1/2-y,1/2+z
loop_
_atom_site_type_symbol
_atom_site_label
_atom_site_fract_x
_atom_site_fract_y
_atom_site_fract_z
Si Si1 0.098370 0.041162 0.668050
Si Si2 0.319027 0.136003 0.940064
Si Si3 0.500000 0.840702 0.250000
Si Si4 0.882659 0.455076 0.586710
Si Si5 0.250000 0.250000 0.500000
Si Si6 0.699957 0.344754 0.855702
O O1 0.291433 0.086278 0.739744
O O2 0.918333 0.130284 0.626833
O O3 0.217167 0.004904 0.616632
O O4 0.971384 0.939028 0.675659
O O5 0.473872 0.237076 0.956583
O O6 0.470257 0.049596 0.923275
O O7 0.277267 0.097863 0.008661
O O8 0.405148 0.762925 0.182850
O O9 0.062125 0.376685 0.642982
O O10 0.245778 0.330675 0.560823
#
# Coordination Sequence:
#
# PCOD9278684 Si02
#       6
#     8   8   4   8   4   8
#     4  11  24  44  69 101 138 198 239 295 369 439
#     4   9  19  38  68 105 140 181 229 304 360 429
#     4  12  28  46  68 106 144 192 248 290 366 452
#     4   9  19  40  69  98 136 178 239 296 359 426
#     4  10  20  44  70 106 142 182 242 304 370 430
#     4  10  25  46  70 100 146 185 239 313 359 436
#
# _framework density 25.435244000000001
#
# number of rings (size 3 to 8) (size 9 to 14) (size 15 to 20)
#    0.000    2.000    0.000    3.000    2.800    3.200 
#    0.000   11.000    0.000    0.000    0.000    0.000 
#    0.000    0.000    0.000    0.000    0.000    0.000 
#
# Total GULP energy -111504.940479 kJ/mol
# GULP energy per Si atom -5575.247024 kJ/mol
# Density = 2.537735 g / cm^3
# Si number density = 25.435244 Si / 1000 Ang^3
#
#
#
# Elastic Constant Matrix: (Units=GPa)
#
#
# Indices 1 2 3 4 5 6 
#
# 1 101.4475 27.5532 31.6176 0.0000 12.8626 0.0000
# 2 27.5532 73.7377 15.2382 0.0000 3.3642 0.0000
# 3 31.6176 15.2382 73.6173 0.0000 13.1132 0.0000
# 4 0.0000 0.0000 0.0000 28.6059 0.0000 -1.8957
# 5 12.8626 3.3642 13.1132 0.0000 46.2818 0.0000
# 6 0.0000 0.0000 0.0000 -1.8957 0.0000 42.4431
#
#
#
# Elastic Compliance Matrix: (Units=1/GPa)
#
#
# Indices 1 2 3 4 5 6 
#
# 1 0.012424 -0.003680 -0.004220 0.000000 -0.001990 0.000000
# 2 -0.003680 0.015259 -0.001646 0.000000 0.000380 0.000000
# 3 -0.004220 -0.001646 0.016331 0.000000 -0.003335 0.000000
# 4 0.000000 0.000000 0.000000 0.035062 0.000000 0.001566
# 5 -0.001990 0.000380 -0.003335 0.000000 0.023077 0.000000
# 6 0.000000 0.000000 0.000000 0.001566 0.000000 0.023631
#
#
# Mechanical properties :
#
#
# Convention : Reuss Voigt Hill
#
# Bulk Modulus (GPa) = 40.12275 44.18005 42.15140
# Shear Modulus (GPa) = 32.64080 35.09239 33.86659
#
# Velocity S-wave (km/s) = 3.58619 3.71843 3.65291
# Velocity P-wave (km/s) = 5.74077 5.98690 5.86512
#
# Compressibility (1/GPa) = 0.02492352
#
# Stress axis : x y z
#
# Youngs Moduli (GPa) = 80.48804 65.53363 61.23392
#
# Poissons Ratio (x) = 0.24114 0.25840
# Poissons Ratio (y) = 0.29617 0.10078
# Poissons Ratio (z) = 0.33965 0.10786
#
# Static dielectric constant tensor:
#      x y z
#    x 1.951390 0.000000 0.034870 
#    y 0.000000 2.032990 0.000000 
#    z 0.034870 0.000000 2.046340 
# 
# From -- ./inp_files/260494.got.cif
#   From: 2010.05.17/outbox.cif.g08.bks.cpg/sg15_131_cif.got.tgz:260494.got - 2010.06.03 18:47:42.
