data_PCOD9278484
_publ_section_title
;
Structure prediction by ZEFSAII (Michael W. Deem and Ramdas Pophale) SiO2 
 PCOD9278484
Probable space group: C 2/C
;
_chemical_formula_sum "Si O2"
_cell_formula_units_Z 52
_cell_length_a 11.514108
_cell_length_b 16.453840
_cell_length_c 14.788166
_cell_angle_alpha 90.000000
_cell_angle_beta 60.964420
_cell_angle_gamma 90.000000
_cell_volume 2449.523116
_symmetry_space_group_name_H-M "C 2/C"
_symmetry_group_IT_number 15
_symmetry_cell_setting 'monoclinic'
loop_
_space_group_symop_operation_xyz
x,y,z
-x,y,1/2-z
-x,-y,-z
x,-y,1/2+z
1/2+x,1/2+y,z
1/2-x,1/2+y,1/2-z
1/2-x,1/2-y,-z
1/2+x,1/2-y,1/2+z
loop_
_atom_site_type_symbol
_atom_site_label
_atom_site_fract_x
_atom_site_fract_y
_atom_site_fract_z
Si Si1 0.233201 0.346716 0.171376
Si Si2 0.358368 0.389335 0.934372
Si Si3 0.886845 0.545673 0.647550
Si Si4 0.986693 0.774497 0.152570
Si Si5 0.079878 0.375469 0.944235
Si Si6 0.119909 0.065546 0.632293
Si Si7 0.000000 0.217329 0.250000
O O1 0.161604 0.427235 0.235959
O O2 0.344791 0.319311 0.199973
O O3 0.125252 0.276469 0.206952
O O4 0.309918 0.358663 0.049076
O O5 0.234521 0.372057 0.913074
O O6 0.387094 0.485406 0.926960
O O7 0.480183 0.340317 0.844651
O O8 0.934509 0.453734 0.615602
O O9 0.761731 0.558723 0.627670
O O10 0.001646 0.604148 0.566016
O O11 0.978089 0.703308 0.082683
O O12 0.000000 0.742930 0.250000
O O13 0.094126 0.846522 0.097313
O O14 0.000000 0.056489 0.750000
#
# Coordination Sequence:
#
# PCOD9278484 Si02
#       7
#     8   8   8   8   8   8   4
#     4  12  24  41  68 102 136 169 238 286 344 417
#     4  11  24  43  70 100 132 180 234 287 347 416
#     4  10  22  44  68  93 139 184 221 289 350 409
#     4  11  23  44  66  98 141 175 225 285 339 420
#     4  10  23  45  68  96 137 183 231 282 350 415
#     4  10  20  43  67  93 136 179 221 285 346 409
#     4  12  24  40  70 100 132 180 224 298 348 402
#
# _framework density 21.228622000000001
#
# number of rings (size 3 to 8) (size 9 to 14) (size 15 to 20)
#    0.000    1.231    5.385    1.385    2.154    1.231 
#    9.692    0.000    0.000    0.000    0.000    0.000 
#    0.000    0.000    0.000    0.000    0.000    0.000 
#
# Total GULP energy -145259.884511 kJ/mol
# GULP energy per Si atom -5586.918635 kJ/mol
# Density = 2.118030 g / cm^3
# Si number density = 21.228622 Si / 1000 Ang^3
#
#
#
# Elastic Constant Matrix: (Units=GPa)
#
#
# Indices 1 2 3 4 5 6 
#
# 1 32.8067 23.3023 -10.9263 0.0000 -1.9726 0.0000
# 2 23.3023 129.0224 46.1788 0.0000 3.8294 0.0000
# 3 -10.9263 46.1788 112.4880 0.0000 0.3512 0.0000
# 4 0.0000 0.0000 0.0000 32.4545 0.0000 -6.4374
# 5 -1.9726 3.8294 0.3512 0.0000 27.4476 0.0000
# 6 0.0000 0.0000 0.0000 -6.4374 0.0000 26.3906
#
#
#
# Elastic Compliance Matrix: (Units=1/GPa)
#
#
# Indices 1 2 3 4 5 6 
#
# 1 0.040935 -0.010479 0.008265 0.000000 0.004298 0.000000
# 2 -0.010479 0.011809 -0.005858 0.000000 -0.002326 0.000000
# 3 0.008265 -0.005858 0.012094 0.000000 0.001257 0.000000
# 4 0.000000 0.000000 0.000000 0.032379 0.000000 0.007898
# 5 0.004298 -0.002326 0.001257 0.000000 0.037050 0.000000
# 6 0.000000 0.000000 0.000000 0.007898 0.000000 0.039819
#
#
# Mechanical properties :
#
#
# Convention : Reuss Voigt Hill
#
# Bulk Modulus (GPa) = 20.53691 43.49185 32.01438
# Shear Modulus (GPa) = 24.21749 31.64271 27.93010
#
# Velocity S-wave (km/s) = 3.38123 3.86498 3.63117
# Velocity P-wave (km/s) = 4.99387 6.35997 5.71787
#
# Compressibility (1/GPa) = 0.04869281
#
# Stress axis : x y z
#
# Youngs Moduli (GPa) = 24.42870 84.68157 82.68788
#
# Poissons Ratio (x) = 0.88736 -0.68338
# Poissons Ratio (y) = 0.25598 0.48442
# Poissons Ratio (z) = -0.20189 0.49610
#
# Static dielectric constant tensor:
#      x y z
#    x 1.784860 0.000000 0.005490 
#    y 0.000000 1.803890 0.000000 
#    z 0.005490 0.000000 1.753950 
# 
# From -- ./inp_files/145487.got.cif
#   From: 2010.05.17/outbox.cif.g08.bks.cpg/sg15_73_cif.got.tgz:145487.got - 2010.06.03 18:47:42.
