data_PCOD9278541
_publ_section_title
;
Structure prediction by ZEFSAII (Michael W. Deem and Ramdas Pophale) SiO2 
 PCOD9278541
Probable space group: C 2/C
;
_chemical_formula_sum "Si O2"
_cell_formula_units_Z 52
_cell_length_a 8.567668
_cell_length_b 29.144760
_cell_length_c 10.100262
_cell_angle_alpha 90.000000
_cell_angle_beta 63.986397
_cell_angle_gamma 90.000000
_cell_volume 2266.551723
_symmetry_space_group_name_H-M "C 2/C"
_symmetry_group_IT_number 15
_symmetry_cell_setting 'monoclinic'
loop_
_space_group_symop_operation_xyz
x,y,z
-x,y,1/2-z
-x,-y,-z
x,-y,1/2+z
1/2+x,1/2+y,z
1/2-x,1/2+y,1/2-z
1/2-x,1/2-y,-z
1/2+x,1/2-y,1/2+z
loop_
_atom_site_type_symbol
_atom_site_label
_atom_site_fract_x
_atom_site_fract_y
_atom_site_fract_z
Si Si1 0.316559 0.699766 0.510098
Si Si2 0.500000 0.853790 0.750000
Si Si3 0.500000 0.146413 0.750000
Si Si4 0.781312 0.394113 0.108434
Si Si5 0.126649 0.486073 0.327732
Si Si6 0.691402 0.696974 0.511015
Si Si7 0.500000 0.361006 0.750000
Si Si8 0.736612 0.419822 0.818772
O O1 0.250000 0.750000 0.500000
O O2 0.167526 0.676131 0.650624
O O3 0.502635 0.699053 0.514172
O O4 0.352261 0.671834 0.362294
O O5 0.648033 0.823013 0.633094
O O6 0.267411 0.913613 0.963373
O O7 0.551211 0.119595 0.864826
O O8 0.746648 0.442451 0.196741
O O9 0.688385 0.343699 0.124826
O O10 0.108440 0.388890 0.801125
O O11 0.240878 0.529953 0.244798
O O12 0.000000 0.477615 0.250000
O O13 0.000000 0.500000 0.500000
O O14 0.750000 0.750000 0.500000
O O15 0.562244 0.394368 0.842981
#
# Coordination Sequence:
#
# PCOD9278541 Si02
#       8
#     8   4   4   8   8   8   4   8
#     4  12  28  48  76 116 156 208 273 334 408 497
#     4  10  20  43  72 105 147 198 257 314 384 478
#     4  12  29  45  78 114 164 208 261 341 412 478
#     4  11  24  47  70 116 152 207 263 331 402 490
#     4  12  22  40  78 115 154 206 269 333 407 492
#     4  11  25  44  72 108 154 201 256 325 397 478
#     4  12  27  50  80 109 157 214 270 339 400 506
#     4  11  24  46  76 111 154 209 272 324 410 488
#
# _framework density 22.942340000000002
#
# number of rings (size 3 to 8) (size 9 to 14) (size 15 to 20)
#    0.000    0.615    6.154    2.308    8.615    3.077 
#    0.000    2.308    0.000    0.000    0.000    0.000 
#    0.000    0.000    0.000    0.000    0.000    0.000 
#
# Total GULP energy -144738.966776 kJ/mol
# GULP energy per Si atom -5566.883338 kJ/mol
# Density = 2.289012 g / cm^3
# Si number density = 22.942340 Si / 1000 Ang^3
#
#
#
# Elastic Constant Matrix: (Units=GPa)
#
#
# Indices 1 2 3 4 5 6 
#
# 1 116.0809 56.7859 31.5026 0.0000 13.9536 0.0000
# 2 56.7859 224.2902 33.9807 0.0000 6.3886 0.0000
# 3 31.5026 33.9807 97.0566 0.0000 8.5373 0.0000
# 4 0.0000 0.0000 0.0000 7.7406 0.0000 -18.9749
# 5 13.9536 6.3886 8.5373 0.0000 43.5225 0.0000
# 6 0.0000 0.0000 0.0000 -18.9749 0.0000 -2.0336
#
#
#
# Elastic Compliance Matrix: (Units=1/GPa)
#
#
# Indices 1 2 3 4 5 6 
#
# 1 0.010702 -0.002264 -0.002451 0.000000 -0.002618 0.000000
# 2 -0.002264 0.005193 -0.001099 0.000000 0.000179 0.000000
# 3 -0.002451 -0.001099 0.011600 0.000000 -0.001328 0.000000
# 4 0.000000 0.000000 0.000000 0.005412 0.000000 -0.050494
# 5 -0.002618 0.000179 -0.001328 0.000000 0.024050 0.000000
# 6 0.000000 0.000000 0.000000 -0.050494 0.000000 -0.020599
#
#
# Mechanical properties :
#
#
# Convention : Reuss Voigt Hill
#
# Bulk Modulus (GPa) = 63.01933 75.77401 69.39667
# Shear Modulus (GPa) = 93.85229 30.85648 62.35439
#
# Velocity S-wave (km/s) = 6.40287 3.67135 5.21898
# Velocity P-wave (km/s) = 9.06590 7.14643 8.16278
#
# Compressibility (1/GPa) = 0.01586815
#
# Stress axis : x y z
#
# Youngs Moduli (GPa) = 93.44182 192.56530 86.20373
#
# Poissons Ratio (x) = 0.43590 0.21127
# Poissons Ratio (y) = 0.21152 0.09475
# Poissons Ratio (z) = 0.22901 0.21166
#
# Static dielectric constant tensor:
#      x y z
#    x 1.816320 0.000000 -0.014500 
#    y 0.000000 1.918250 0.000000 
#    z -0.014500 0.000000 1.956410 
# 
# From -- ./inp_files/82112.got.cif
#   From: 2010.05.17/outbox.cif.g08.bks.cpg/sg15_42_cif.got.tgz:82112.got - 2010.06.03 18:47:42.
