data_PCOD9278956
_publ_section_title
;
Structure prediction by ZEFSAII (Michael W. Deem and Ramdas Pophale) SiO2 
 PCOD9278956
Probable space group: C 2/C
;
_chemical_formula_sum "Si O2"
_cell_formula_units_Z 48
_cell_length_a 16.602301
_cell_length_b 6.126862
_cell_length_c 22.763698
_cell_angle_alpha 90.000000
_cell_angle_beta 75.034533
_cell_angle_gamma 90.000000
_cell_volume 2236.984773
_symmetry_space_group_name_H-M "C 2/C"
_symmetry_group_IT_number 15
_symmetry_cell_setting 'monoclinic'
loop_
_space_group_symop_operation_xyz
x,y,z
-x,y,1/2-z
-x,-y,-z
x,-y,1/2+z
1/2+x,1/2+y,z
1/2-x,1/2+y,1/2-z
1/2-x,1/2-y,-z
1/2+x,1/2-y,1/2+z
loop_
_atom_site_type_symbol
_atom_site_label
_atom_site_fract_x
_atom_site_fract_y
_atom_site_fract_z
Si Si1 0.582972 0.017375 0.702092
Si Si2 0.985978 0.813746 0.954405
Si Si3 0.003532 0.850459 0.358538
Si Si4 0.271902 0.677700 0.341894
Si Si5 0.158286 0.158676 0.762178
Si Si6 0.608496 0.066629 0.434145
O O1 0.500000 0.106198 0.750000
O O2 0.554645 0.822903 0.663539
O O3 0.633068 0.898144 0.745004
O O4 0.645796 0.183847 0.659639
O O5 0.071291 0.675234 0.931497
O O6 0.919506 0.648794 0.996008
O O7 0.963359 0.948325 0.900632
O O8 0.000000 0.000000 0.000000
O O9 0.070954 0.942558 0.299806
O O10 0.057364 0.711960 0.396106
O O11 0.218174 0.823393 0.306396
O O12 0.301451 0.471592 0.298340
O O13 0.205966 0.601917 0.403370
#
# Coordination Sequence:
#
# PCOD9278956 Si02
#       6
#     8   8   8   8   8   8
#     4  10  22  38  53  86 124 157 201 242 304 371
#     4   9  18  36  60  84 115 153 204 250 299 357
#     4   9  20  35  57  82 117 157 201 248 298 365
#     4  11  21  35  58  85 122 155 197 249 299 362
#     4  10  21  33  55  85 115 159 196 239 300 361
#     4   9  20  35  59  89 111 153 206 248 301 366
#
# _framework density 21.457453999999998
#
# number of rings (size 3 to 8) (size 9 to 14) (size 15 to 20)
#    0.000    2.333    1.667    0.000    2.333    4.667 
#    0.000    0.833    0.000   10.000    0.000    0.000 
#    0.000    0.000    0.000    0.000    0.000    0.000 
#
# Total GULP energy -133904.937096 kJ/mol
# GULP energy per Si atom -5579.372379 kJ/mol
# Density = 2.140862 g / cm^3
# Si number density = 21.457454 Si / 1000 Ang^3
#
#
#
# Elastic Constant Matrix: (Units=GPa)
#
#
# Indices 1 2 3 4 5 6 
#
# 1 96.5161 46.9389 49.7073 -0.0001 -22.8167 -0.0001
# 2 46.9389 80.6765 37.9753 -0.0002 -21.0972 -0.0003
# 3 49.7073 37.9753 102.4572 0.0000 -38.3303 0.0000
# 4 -0.0001 -0.0002 0.0000 31.7493 0.0000 -2.9466
# 5 -22.8167 -21.0972 -38.3303 0.0000 30.5091 0.0000
# 6 -0.0001 -0.0003 0.0000 -2.9466 0.0000 24.5666
#
#
#
# Elastic Compliance Matrix: (Units=1/GPa)
#
#
# Indices 1 2 3 4 5 6 
#
# 1 0.016642 -0.006984 -0.004974 0.000000 0.001368 0.000000
# 2 -0.006984 0.018638 -0.001231 0.000000 0.006119 0.000000
# 3 -0.004974 -0.001231 0.020603 0.000000 0.021314 0.000000
# 4 0.000000 0.000000 0.000000 0.031851 0.000000 0.003820
# 5 0.001368 0.006119 0.021314 0.000000 0.064810 0.000000
# 6 0.000000 0.000000 0.000000 0.003820 0.000000 0.041164
#
#
# Mechanical properties :
#
#
# Convention : Reuss Voigt Hill
#
# Bulk Modulus (GPa) = 33.89002 60.98807 47.43905
# Shear Modulus (GPa) = 21.74659 27.03355 24.39007
#
# Velocity S-wave (km/s) = 3.18697 3.55331 3.37511
# Velocity P-wave (km/s) = 5.41947 6.73195 6.11105
#
# Compressibility (1/GPa) = 0.02950721
#
# Stress axis : x y z
#
# Youngs Moduli (GPa) = 60.08744 53.65401 48.53611
#
# Poissons Ratio (x) = 0.37471 0.24141
# Poissons Ratio (y) = 0.41964 0.05973
# Poissons Ratio (z) = 0.29886 0.06603
#
# Static dielectric constant tensor:
#      x y z
#    x 1.810710 0.000000 -0.005560 
#    y 0.000000 1.798240 0.000000 
#    z -0.005560 0.000000 1.815100 
# 
# From -- ./inp_files/297427.got.cif
#   From: 2010.05.17/outbox.cif.g08.bks.cpg/sg15_149_cif.got.tgz:297427.got - 2010.06.03 18:47:42.
