data_PCOD9278670
_publ_section_title
;
Structure prediction by ZEFSAII (Michael W. Deem and Ramdas Pophale) SiO2 
 PCOD9278670
Probable space group: C 2/C
;
_chemical_formula_sum "Si O2"
_cell_formula_units_Z 40
_cell_length_a 17.215161
_cell_length_b 6.704279
_cell_length_c 18.063374
_cell_angle_alpha 90.000000
_cell_angle_beta 54.851530
_cell_angle_gamma 90.000000
_cell_volume 1704.654558
_symmetry_space_group_name_H-M "C 2/C"
_symmetry_group_IT_number 15
_symmetry_cell_setting 'monoclinic'
loop_
_space_group_symop_operation_xyz
x,y,z
-x,y,1/2-z
-x,-y,-z
x,-y,1/2+z
1/2+x,1/2+y,z
1/2-x,1/2+y,1/2-z
1/2-x,1/2-y,-z
1/2+x,1/2-y,1/2+z
loop_
_atom_site_type_symbol
_atom_site_label
_atom_site_fract_x
_atom_site_fract_y
_atom_site_fract_z
Si Si1 0.903695 0.055359 0.597832
Si Si2 0.412767 0.822208 0.742130
Si Si3 0.867146 0.111701 0.388835
Si Si4 0.756190 0.502484 0.424341
Si Si5 0.418020 0.289286 0.705146
O O1 0.587551 0.706659 0.836844
O O2 0.818454 0.109105 0.589647
O O3 0.871750 0.848039 0.653913
O O4 0.000000 0.000000 0.500000
O O5 0.500000 0.767504 0.750000
O O6 0.316592 0.839812 0.844358
O O7 0.424711 0.056892 0.715818
O O8 0.826984 0.336880 0.419206
O O9 0.811299 0.952502 0.468715
O O10 0.867414 0.094823 0.300122
O O11 0.975368 0.126905 0.354447
#
# Coordination Sequence:
#
# PCOD9278670 Si02
#       5
#     8   8   8   8   8
#     4  12  27  42  66 103 138 172 230 287 339 400
#     4  11  25  45  70  97 136 183 232 273 339 416
#     4   9  18  39  72  91 136 179 222 269 337 403
#     4  10  21  42  67 102 129 177 229 274 340 402
#     4  10  20  44  68  95 139 185 214 283 339 389
#
# _framework density 23.465164999999999
#
# number of rings (size 3 to 8) (size 9 to 14) (size 15 to 20)
#    0.000    1.600    6.000    0.000    8.400    0.800 
#    0.000    4.000    0.000    0.000    0.000    0.000 
#    0.000    0.000    0.000    0.000    0.000    0.000 
#
# Total GULP energy -111492.819463 kJ/mol
# GULP energy per Si atom -5574.640973 kJ/mol
# Density = 2.341176 g / cm^3
# Si number density = 23.465165 Si / 1000 Ang^3
#
#
#
# Elastic Constant Matrix: (Units=GPa)
#
#
# Indices 1 2 3 4 5 6 
#
# 1 103.3748 39.9228 56.7875 0.0000 12.7748 0.0005
# 2 39.9228 96.6274 54.2404 0.0000 8.5018 0.0010
# 3 56.7875 54.2404 204.4949 0.0000 9.2538 0.0000
# 4 0.0000 0.0000 0.0000 45.6468 0.0000 13.4532
# 5 12.7748 8.5018 9.2538 0.0000 38.9724 0.0000
# 6 0.0005 0.0010 0.0000 13.4532 0.0000 26.0253
#
#
#
# Elastic Compliance Matrix: (Units=1/GPa)
#
#
# Indices 1 2 3 4 5 6 
#
# 1 0.012780 -0.003657 -0.002452 0.000000 -0.002809 0.000000
# 2 -0.003657 0.013348 -0.002474 0.000000 -0.001126 0.000000
# 3 -0.002452 -0.002474 0.006233 0.000000 -0.000137 0.000000
# 4 0.000000 0.000000 0.000000 0.025845 0.000000 -0.013360
# 5 -0.002809 -0.001126 -0.000137 0.000000 0.026858 0.000000
# 6 0.000000 0.000000 0.000000 -0.013360 0.000000 0.045330
#
#
# Mechanical properties :
#
#
# Convention : Reuss Voigt Hill
#
# Bulk Modulus (GPa) = 65.80773 78.48873 72.14823
# Shear Modulus (GPa) = 32.76020 39.03198 35.89609
#
# Velocity S-wave (km/s) = 3.74052 4.08291 3.91546
# Velocity P-wave (km/s) = 6.83821 7.46649 7.15925
#
# Compressibility (1/GPa) = 0.01519578
#
# Stress axis : x y z
#
# Youngs Moduli (GPa) = 78.24868 74.91995 160.42724
#
# Poissons Ratio (x) = 0.27395 0.39335
# Poissons Ratio (y) = 0.28613 0.39689
# Poissons Ratio (z) = 0.19186 0.18535
#
# Static dielectric constant tensor:
#      x y z
#    x 1.825680 0.000000 -0.006760 
#    y 0.000000 1.966480 0.000000 
#    z -0.006760 0.000000 1.994010 
# 
# From -- ./inp_files/152863.got.cif
#   From: 2010.05.17/outbox.cif.g08.bks.cpg/sg15_77_cif.got.tgz:152863.got - 2010.06.03 18:47:42.
