data_PCOD9278455
_publ_section_title
;
Structure prediction by ZEFSAII (Michael W. Deem and Ramdas Pophale) SiO2 
 PCOD9278455
Probable space group: C 2/C
;
_chemical_formula_sum "Si O2"
_cell_formula_units_Z 48
_cell_length_a 12.179173
_cell_length_b 8.721702
_cell_length_c 22.217245
_cell_angle_alpha 90.000000
_cell_angle_beta 118.811776
_cell_angle_gamma 90.000000
_cell_volume 2067.836926
_symmetry_space_group_name_H-M "C 2/C"
_symmetry_group_IT_number 15
_symmetry_cell_setting 'monoclinic'
loop_
_space_group_symop_operation_xyz
x,y,z
-x,y,1/2-z
-x,-y,-z
x,-y,1/2+z
1/2+x,1/2+y,z
1/2-x,1/2+y,1/2-z
1/2-x,1/2-y,-z
1/2+x,1/2-y,1/2+z
loop_
_atom_site_type_symbol
_atom_site_label
_atom_site_fract_x
_atom_site_fract_y
_atom_site_fract_z
Si Si1 0.589136 0.266133 0.850587
Si Si2 0.645310 0.752530 0.783425
Si Si3 0.498431 0.526974 0.903901
Si Si4 0.661518 0.792927 0.921503
Si Si5 0.649625 0.893059 0.242120
Si Si6 0.796727 0.914118 0.445256
O O1 0.526212 0.427074 0.852136
O O2 0.471859 0.149925 0.830143
O O3 0.631555 0.221365 0.794290
O O4 0.722518 0.245005 0.920567
O O5 0.500000 0.710454 0.750000
O O6 0.700929 0.738346 0.865485
O O7 0.725186 0.649693 0.759791
O O8 0.646702 0.930451 0.761968
O O9 0.534848 0.703663 0.902314
O O10 0.365075 0.534565 0.901244
O O11 0.595905 0.447554 0.977356
O O12 0.679327 0.973180 0.924011
O O13 0.750000 0.750000 0.000000
#
# Coordination Sequence:
#
# PCOD9278455 Si02
#       6
#     8   8   8   8   8   8
#     4  11  22  43  64  97 134 171 222 276 336 402
#     4  12  25  46  68  97 133 177 225 280 340 408
#     4  10  23  38  68  98 129 181 219 274 338 398
#     4  10  22  42  67  97 132 172 223 277 332 398
#     4  11  26  43  68  95 134 177 219 283 339 404
#     4  10  20  43  65  94 139 173 223 276 328 403
#
# _framework density 23.212662999999999
#
# number of rings (size 3 to 8) (size 9 to 14) (size 15 to 20)
#    0.000    1.333    3.333    1.500    4.667    0.000 
#    0.000    0.000    0.000   11.000    0.000    0.000 
#    0.000    0.000    0.000    0.000    0.000    0.000 
#
# Total GULP energy -133841.766406 kJ/mol
# GULP energy per Si atom -5576.740267 kJ/mol
# Density = 2.315983 g / cm^3
# Si number density = 23.212663 Si / 1000 Ang^3
#
#
#
# Elastic Constant Matrix: (Units=GPa)
#
#
# Indices 1 2 3 4 5 6 
#
# 1 151.1886 47.6452 53.2231 0.0000 6.7512 0.0000
# 2 47.6452 57.8508 25.9363 0.0000 4.4389 0.0000
# 3 53.2231 25.9363 69.9088 0.0000 -2.6886 0.0000
# 4 0.0000 0.0000 0.0000 19.0635 0.0000 0.9844
# 5 6.7512 4.4389 -2.6886 0.0000 32.1550 0.0000
# 6 0.0000 0.0000 0.0000 0.9844 0.0000 43.8166
#
#
#
# Elastic Compliance Matrix: (Units=1/GPa)
#
#
# Indices 1 2 3 4 5 6 
#
# 1 0.010694 -0.005969 -0.006001 0.000000 -0.001923 0.000000
# 2 -0.005969 0.024471 -0.004631 0.000000 -0.002512 0.000000
# 3 -0.006001 -0.004631 0.020731 0.000000 0.003633 0.000000
# 4 0.000000 0.000000 0.000000 0.052517 0.000000 -0.001180
# 5 -0.001923 -0.002512 0.003633 0.000000 0.032154 0.000000
# 6 0.000000 0.000000 0.000000 -0.001180 0.000000 0.022849
#
#
# Mechanical properties :
#
#
# Convention : Reuss Voigt Hill
#
# Bulk Modulus (GPa) = 44.06533 59.17308 51.61920
# Shear Modulus (GPa) = 24.48804 29.14991 26.81898
#
# Velocity S-wave (km/s) = 3.25151 3.54754 3.40275
# Velocity P-wave (km/s) = 5.75508 6.50593 6.14199
#
# Compressibility (1/GPa) = 0.02269358
#
# Stress axis : x y z
#
# Youngs Moduli (GPa) = 93.51288 40.86465 48.23808
#
# Poissons Ratio (x) = 0.24394 0.28946
# Poissons Ratio (y) = 0.55821 0.22338
# Poissons Ratio (z) = 0.56114 0.18924
#
# Static dielectric constant tensor:
#      x y z
#    x 1.847140 0.000000 0.063170 
#    y 0.000000 1.926010 0.000000 
#    z 0.063170 0.000000 2.068420 
# 
# From -- ./inp_files/268080.got.cif
#   From: 2010.05.17/outbox.cif.g08.bks.cpg/sg15_135_cif.got.tgz:268080.got - 2010.06.03 18:47:42.
