data_PCOD9278096
_publ_section_title
;
Structure prediction by ZEFSAII (Michael W. Deem and Ramdas Pophale) SiO2 
 PCOD9278096
Probable space group: C 2/C
;
_chemical_formula_sum "Si O2"
_cell_formula_units_Z 48
_cell_length_a 12.172051
_cell_length_b 8.366036
_cell_length_c 23.144337
_cell_angle_alpha 90.000000
_cell_angle_beta 92.459446
_cell_angle_gamma 90.000000
_cell_volume 2354.658881
_symmetry_space_group_name_H-M "C 2/C"
_symmetry_group_IT_number 15
_symmetry_cell_setting 'monoclinic'
loop_
_space_group_symop_operation_xyz
x,y,z
-x,y,1/2-z
-x,-y,-z
x,-y,1/2+z
1/2+x,1/2+y,z
1/2-x,1/2+y,1/2-z
1/2-x,1/2-y,-z
1/2+x,1/2-y,1/2+z
loop_
_atom_site_type_symbol
_atom_site_label
_atom_site_fract_x
_atom_site_fract_y
_atom_site_fract_z
Si Si1 0.708511 0.230144 0.179188
Si Si2 0.592265 0.371742 0.480969
Si Si3 0.989161 0.324574 0.631449
Si Si4 0.026373 0.614930 0.555122
Si Si5 0.625682 0.001979 0.773080
Si Si6 0.807503 0.825489 0.556674
O O1 0.581074 0.280715 0.166175
O O2 0.691155 0.086045 0.223432
O O3 0.797829 0.353399 0.205080
O O4 0.747004 0.189490 0.115628
O O5 0.500000 0.500000 0.500000
O O6 0.550873 0.271829 0.425038
O O7 0.612845 0.246284 0.533127
O O8 0.684365 0.489479 0.460207
O O9 0.895922 0.379671 0.674136
O O10 0.040830 0.492334 0.608182
O O11 0.000000 0.500000 0.500000
O O12 0.920830 0.726532 0.565827
O O13 0.500000 0.044299 0.750000
O O14 0.750000 0.750000 0.500000
#
# Coordination Sequence:
#
# PCOD9278096 Si02
#       6
#     8   8   8   8   8   8
#     4  11  23  43  67  93 129 169 223 260 332 388
#     4   9  19  34  60  94 128 169 209 257 326 381
#     4  10  20  42  66  88 131 168 209 276 321 382
#     4   9  17  35  59  86 127 165 203 262 319 377
#     4  10  24  45  66  96 127 172 219 274 322 384
#     4  11  21  37  62  96 132 165 215 266 321 396
#
# _framework density 20.385119
#
# number of rings (size 3 to 8) (size 9 to 14) (size 15 to 20)
#    0.000    2.000    1.667    3.000    2.333    0.000 
#    3.000   10.833    3.667    0.000    0.000    0.000 
#    0.000    0.000    0.000    0.000    0.000    0.000 
#
# Total GULP energy -133705.374842 kJ/mol
# GULP energy per Si atom -5571.057285 kJ/mol
# Density = 2.033872 g / cm^3
# Si number density = 20.385119 Si / 1000 Ang^3
#
#
#
# Elastic Constant Matrix: (Units=GPa)
#
#
# Indices 1 2 3 4 5 6 
#
# 1 83.7843 59.6201 45.0260 0.0000 -2.5198 0.0000
# 2 59.6201 116.3981 58.3521 0.0000 -0.4980 0.0000
# 3 45.0260 58.3521 130.5776 0.0000 -18.8195 0.0000
# 4 0.0000 0.0000 0.0000 38.6296 0.0000 -0.4630
# 5 -2.5198 -0.4980 -18.8195 0.0000 31.3303 0.0000
# 6 0.0000 0.0000 0.0000 -0.4630 0.0000 31.8075
#
#
#
# Elastic Compliance Matrix: (Units=1/GPa)
#
#
# Indices 1 2 3 4 5 6 
#
# 1 0.019617 -0.008548 -0.002996 0.000000 -0.000358 0.000000
# 2 -0.008548 0.015071 -0.004217 0.000000 -0.002981 0.000000
# 3 -0.002996 -0.004217 0.011530 0.000000 0.006618 0.000000
# 4 0.000000 0.000000 0.000000 0.025891 0.000000 0.000377
# 5 -0.000358 -0.002981 0.006618 0.000000 0.035817 0.000000
# 6 0.000000 0.000000 0.000000 0.000377 0.000000 0.031445
#
#
# Mechanical properties :
#
#
# Convention : Reuss Voigt Hill
#
# Bulk Modulus (GPa) = 68.04627 72.97292 70.50960
# Shear Modulus (GPa) = 28.44292 31.53760 29.99026
#
# Velocity S-wave (km/s) = 3.73939 3.93757 3.83976
# Velocity P-wave (km/s) = 7.21782 7.51981 7.37036
#
# Compressibility (1/GPa) = 0.01469588
#
# Stress axis : x y z
#
# Youngs Moduli (GPa) = 50.97563 66.35440 86.73239
#
# Poissons Ratio (x) = 0.56717 0.25988
# Poissons Ratio (y) = 0.43572 0.36575
# Poissons Ratio (z) = 0.15274 0.27981
#
# Static dielectric constant tensor:
#      x y z
#    x 1.813010 0.000000 0.014700 
#    y 0.000000 1.744160 0.000000 
#    z 0.014700 0.000000 1.710900 
# 
# From -- ./inp_files/267811.got.cif
#   From: 2010.05.17/outbox.cif.g08.bks.cpg/sg15_134_cif.got.tgz:267811.got - 2010.06.03 18:47:42.
