data_PCOD9278734
_publ_section_title
;
Structure prediction by ZEFSAII (Michael W. Deem and Ramdas Pophale) SiO2 
 PCOD9278734
Probable space group: C 2/C
;
_chemical_formula_sum "Si O2"
_cell_formula_units_Z 48
_cell_length_a 9.129158
_cell_length_b 10.171514
_cell_length_c 24.447645
_cell_angle_alpha 90.000000
_cell_angle_beta 58.154223
_cell_angle_gamma 90.000000
_cell_volume 1928.422188
_symmetry_space_group_name_H-M "C 2/C"
_symmetry_group_IT_number 15
_symmetry_cell_setting 'monoclinic'
loop_
_space_group_symop_operation_xyz
x,y,z
-x,y,1/2-z
-x,-y,-z
x,-y,1/2+z
1/2+x,1/2+y,z
1/2-x,1/2+y,1/2-z
1/2-x,1/2-y,-z
1/2+x,1/2-y,1/2+z
loop_
_atom_site_type_symbol
_atom_site_label
_atom_site_fract_x
_atom_site_fract_y
_atom_site_fract_z
Si Si1 0.656615 0.947606 0.934302
Si Si2 0.527929 0.720137 0.086522
Si Si3 0.052918 0.214566 0.526487
Si Si4 0.779851 0.625241 0.867506
Si Si5 0.311558 0.587833 0.304435
Si Si6 0.181050 0.627838 0.212610
O O1 0.815527 0.886266 0.936894
O O2 0.550124 0.833195 0.925277
O O3 0.747083 0.011724 0.864756
O O4 0.500000 0.000000 0.000000
O O5 0.620257 0.848803 0.094785
O O6 0.357627 0.692154 0.155656
O O7 0.476798 0.723039 0.032945
O O8 0.250000 0.250000 0.500000
O O9 0.924945 0.102946 0.576000
O O10 0.823738 0.759865 0.824833
O O11 0.837583 0.500348 0.822116
O O12 0.500000 0.547131 0.250000
O O13 0.206117 0.586219 0.270130
O O14 0.000000 0.705199 0.250000
#
# Coordination Sequence:
#
# PCOD9278734 Si02
#       6
#     8   8   8   8   8   8
#     4  10  22  41  70  95 138 184 226 286 361 413
#     4  10  23  46  66  97 145 178 233 296 348 430
#     4  10  23  41  68 100 137 179 229 292 355 424
#     4  10  23  45  69  94 143 187 223 294 367 407
#     4  10  20  45  65  93 144 178 228 293 340 417
#     4  12  26  39  71 104 129 193 240 283 361 420
#
# _framework density 24.890813000000001
#
# number of rings (size 3 to 8) (size 9 to 14) (size 15 to 20)
#    0.000    2.000    3.333    2.500    7.000    3.333 
#    0.000    0.833    0.000    0.000    0.000    0.000 
#    0.000    0.000    0.000    0.000    0.000    0.000 
#
# Total GULP energy -133668.800325 kJ/mol
# GULP energy per Si atom -5569.533347 kJ/mol
# Density = 2.483416 g / cm^3
# Si number density = 24.890813 Si / 1000 Ang^3
#
#
#
# Elastic Constant Matrix: (Units=GPa)
#
#
# Indices 1 2 3 4 5 6 
#
# 1 202.4622 15.7666 77.0443 0.0000 -27.1242 0.0000
# 2 15.7666 45.4152 17.9204 0.0000 -9.3327 0.0000
# 3 77.0443 17.9204 173.4687 0.0000 -22.9105 0.0000
# 4 0.0000 0.0000 0.0000 26.4724 0.0000 0.7333
# 5 -27.1242 -9.3327 -22.9105 0.0000 65.0010 0.0000
# 6 0.0000 0.0000 0.0000 0.7333 0.0000 23.8290
#
#
#
# Elastic Compliance Matrix: (Units=1/GPa)
#
#
# Indices 1 2 3 4 5 6 
#
# 1 0.006143 -0.000847 -0.002431 0.000000 0.001585 0.000000
# 2 -0.000847 0.023492 -0.001732 0.000000 0.002409 0.000000
# 3 -0.002431 -0.001732 0.007191 0.000000 0.001271 0.000000
# 4 0.000000 0.000000 0.000000 0.037807 0.000000 -0.001163
# 5 0.001585 0.002409 0.001271 0.000000 0.016840 0.000000
# 6 0.000000 0.000000 0.000000 -0.001163 0.000000 0.042002
#
#
# Mechanical properties :
#
#
# Convention : Reuss Voigt Hill
#
# Bulk Modulus (GPa) = 37.30846 71.42319 54.36582
# Shear Modulus (GPa) = 32.80162 43.76812 38.28487
#
# Velocity S-wave (km/s) = 3.63412 4.19788 3.92613
# Velocity P-wave (km/s) = 5.71231 7.22864 6.51474
#
# Compressibility (1/GPa) = 0.02680358
#
# Stress axis : x y z
#
# Youngs Moduli (GPa) = 162.79436 42.56806 139.05332
#
# Poissons Ratio (x) = 0.03608 0.33809
# Poissons Ratio (y) = 0.13797 0.24089
# Poissons Ratio (z) = 0.39582 0.07374
#
# Static dielectric constant tensor:
#      x y z
#    x 1.933170 0.000000 -0.147160 
#    y 0.000000 2.270370 0.000000 
#    z -0.147160 0.000000 2.155470 
# 
# From -- ./inp_files/287538.got.cif
#   From: 2010.05.17/outbox.cif.g08.bks.cpg/sg15_144_cif.got.tgz:287538.got - 2010.06.03 18:47:42.
