data_PCOD9278168
_publ_section_title
;
Structure prediction by ZEFSAII (Michael W. Deem and Ramdas Pophale) SiO2 
 PCOD9278168
Probable space group: C 2/C
;
_chemical_formula_sum "Si O2"
_cell_formula_units_Z 40
_cell_length_a 8.980569
_cell_length_b 17.774294
_cell_length_c 11.361692
_cell_angle_alpha 90.000000
_cell_angle_beta 98.957827
_cell_angle_gamma 90.000000
_cell_volume 1791.470504
_symmetry_space_group_name_H-M "C 2/C"
_symmetry_group_IT_number 15
_symmetry_cell_setting 'monoclinic'
loop_
_space_group_symop_operation_xyz
x,y,z
-x,y,1/2-z
-x,-y,-z
x,-y,1/2+z
1/2+x,1/2+y,z
1/2-x,1/2+y,1/2-z
1/2-x,1/2-y,-z
1/2+x,1/2-y,1/2+z
loop_
_atom_site_type_symbol
_atom_site_label
_atom_site_fract_x
_atom_site_fract_y
_atom_site_fract_z
Si Si1 0.898974 0.358966 0.397396
Si Si2 0.240045 0.678962 0.851048
Si Si3 0.441780 0.180593 0.374209
Si Si4 0.652560 0.978110 0.696841
Si Si5 0.419847 0.471471 0.370028
O O1 0.790827 0.317574 0.293124
O O2 0.847922 0.446431 0.382630
O O3 0.073580 0.343921 0.377798
O O4 0.909358 0.326691 0.528053
O O5 0.325040 0.754862 0.895397
O O6 0.351226 0.610014 0.889225
O O7 0.500000 0.192179 0.250000
O O8 0.357201 0.099939 0.372205
O O9 0.500000 0.985932 0.750000
O O10 0.781106 0.976563 0.811602
O O11 0.500000 0.465697 0.250000
O O12 0.500000 0.500000 0.500000
#
# Coordination Sequence:
#
# PCOD9278168 Si02
#       5
#     8   8   8   8   8
#     4  10  20  42  67  86 125 180 224 258 324 419
#     4  10  22  43  64  90 130 176 215 272 342 392
#     4  11  24  36  63  98 126 162 222 286 327 388
#     4  10  21  43  68  93 125 181 228 262 324 410
#     4  11  25  42  67  99 135 174 221 286 338 393
#
# _framework density 22.328026000000001
#
# number of rings (size 3 to 8) (size 9 to 14) (size 15 to 20)
#    0.000    1.600    4.000    1.800    2.800    8.800 
#    3.600    0.000    0.000    0.000    0.000    0.000 
#    0.000    0.000    0.000    0.000    0.000    0.000 
#
# Total GULP energy -111565.253339 kJ/mol
# GULP energy per Si atom -5578.262667 kJ/mol
# Density = 2.227721 g / cm^3
# Si number density = 22.328026 Si / 1000 Ang^3
#
#
#
# Elastic Constant Matrix: (Units=GPa)
#
#
# Indices 1 2 3 4 5 6 
#
# 1 61.7613 8.4754 35.5613 0.0000 14.5224 0.0000
# 2 8.4754 90.4176 30.0999 0.0000 22.2214 0.0000
# 3 35.5613 30.0999 157.0534 0.0000 26.0884 0.0000
# 4 0.0000 0.0000 0.0000 4.8929 0.0000 10.4798
# 5 14.5224 22.2214 26.0884 0.0000 45.6350 0.0000
# 6 0.0000 0.0000 0.0000 10.4798 0.0000 17.6167
#
#
#
# Elastic Compliance Matrix: (Units=1/GPa)
#
#
# Indices 1 2 3 4 5 6 
#
# 1 0.019281 0.000481 -0.003757 0.000000 -0.004222 0.000000
# 2 0.000481 0.012921 -0.001674 0.000000 -0.005488 0.000000
# 3 -0.003757 -0.001674 0.007961 0.000000 -0.002541 0.000000
# 4 0.000000 0.000000 0.000000 -0.745530 0.000000 0.443502
# 5 -0.004222 -0.005488 -0.002541 0.000000 0.027381 0.000000
# 6 0.000000 0.000000 0.000000 0.443502 0.000000 -0.207066
#
#
# Mechanical properties :
#
#
# Convention : Reuss Voigt Hill
#
# Bulk Modulus (GPa) = 33.04261 50.83393 41.93827
# Shear Modulus (GPa) = -5.77990 29.30196 11.76103
#
# Velocity S-wave (km/s) = -1.61067 3.62655 2.29757
# Velocity P-wave (km/s) = 3.37222 6.35233 5.08547
#
# Compressibility (1/GPa) = 0.03026395
#
# Stress axis : x y z
#
# Youngs Moduli (GPa) = 51.86393 77.39605 125.61849
#
# Poissons Ratio (x) = -0.03722 0.47190
# Poissons Ratio (y) = -0.02494 0.21023
# Poissons Ratio (z) = 0.19483 0.12953
#
# Static dielectric constant tensor:
#      x y z
#    x 0.348690 0.000000 -4.153630 
#    y 0.000000 1.818280 0.000000 
#    z -4.153630 0.000000 -9.089850 
# 
# From -- ./inp_files/76894.got.cif
#   From: 2010.05.17/outbox.cif.g08.bks.cpg/sg15_39_cif.got.tgz:76894.got - 2010.06.03 18:47:42.
