data_PCOD9278979
_publ_section_title
;
Structure prediction by ZEFSAII (Michael W. Deem and Ramdas Pophale) SiO2 
 PCOD9278979
Probable space group: C 2/C
;
_chemical_formula_sum "Si O2"
_cell_formula_units_Z 40
_cell_length_a 23.038078
_cell_length_b 5.023077
_cell_length_c 21.761797
_cell_angle_alpha 90.000000
_cell_angle_beta 125.623753
_cell_angle_gamma 90.000000
_cell_volume 2047.039611
_symmetry_space_group_name_H-M "C 2/C"
_symmetry_group_IT_number 15
_symmetry_cell_setting 'monoclinic'
loop_
_space_group_symop_operation_xyz
x,y,z
-x,y,1/2-z
-x,-y,-z
x,-y,1/2+z
1/2+x,1/2+y,z
1/2-x,1/2+y,1/2-z
1/2-x,1/2-y,-z
1/2+x,1/2-y,1/2+z
loop_
_atom_site_type_symbol
_atom_site_label
_atom_site_fract_x
_atom_site_fract_y
_atom_site_fract_z
Si Si1 0.433008 0.797261 0.469134
Si Si2 0.041518 0.478555 0.712310
Si Si3 0.484782 0.471578 0.885682
Si Si4 0.790520 0.553705 0.350922
Si Si5 0.799894 0.550288 0.209382
O O1 0.450229 0.602722 0.536260
O O2 0.430446 0.615725 0.406171
O O3 0.361289 0.964340 0.429665
O O4 0.500000 0.000000 0.500000
O O5 0.042118 0.205012 0.674545
O O6 0.125150 0.539476 0.772688
O O7 0.000000 0.448797 0.750000
O O8 0.005125 0.709140 0.648834
O O9 0.807296 0.537019 0.288156
O O10 0.726810 0.344258 0.323312
O O11 0.762300 0.846147 0.347040
#
# Coordination Sequence:
#
# PCOD9278979 Si02
#       5
#     8   8   8   8   8
#     4  11  22  37  65  92 129 150 198 264 312 367
#     4  12  24  42  63  87 127 167 211 248 287 372
#     4  11  23  37  62  94 118 158 212 244 312 349
#     4  10  21  33  59  87 124 149 187 263 308 361
#     4  10  21  35  55  88 120 157 199 239 316 354
#
# _framework density 19.540412
#
# number of rings (size 3 to 8) (size 9 to 14) (size 15 to 20)
#    0.000    1.200    4.000    1.800   11.200    0.000 
#    0.000    0.000    0.000    7.200    0.000    0.000 
#    0.000    0.000    0.000    0.000    0.000    0.000 
#
# Total GULP energy -111758.073801 kJ/mol
# GULP energy per Si atom -5587.903690 kJ/mol
# Density = 1.949594 g / cm^3
# Si number density = 19.540412 Si / 1000 Ang^3
#
#
#
# Elastic Constant Matrix: (Units=GPa)
#
#
# Indices 1 2 3 4 5 6 
#
# 1 88.8903 13.2010 31.9988 0.0019 4.3498 0.0007
# 2 13.2010 93.0549 13.8058 0.0027 -8.0621 0.0033
# 3 31.9988 13.8058 49.7352 -0.0020 -1.3889 -0.0018
# 4 0.0019 0.0027 -0.0020 34.6647 -0.0018 -3.1778
# 5 4.3498 -8.0621 -1.3889 -0.0018 12.0177 -0.0021
# 6 0.0007 0.0033 -0.0018 -3.1778 -0.0021 4.9282
#
#
#
# Elastic Compliance Matrix: (Units=1/GPa)
#
#
# Indices 1 2 3 4 5 6 
#
# 1 0.015312 -0.001395 -0.009676 -0.000003 -0.007596 -0.000010
# 2 -0.001395 0.011989 -0.002199 -0.000001 0.008293 -0.000006
# 3 -0.009676 -0.002199 0.027087 0.000004 0.005158 0.000018
# 4 -0.000003 -0.000001 0.000004 0.030660 0.000009 0.019770
# 5 -0.007596 0.008293 0.005158 0.000009 0.092120 0.000042
# 6 -0.000010 -0.000006 0.000018 0.019770 0.000042 0.215663
#
#
# Mechanical properties :
#
#
# Convention : Reuss Voigt Hill
#
# Bulk Modulus (GPa) = 35.91028 38.85463 37.38245
# Shear Modulus (GPa) = 11.66445 21.83377 16.74911
#
# Velocity S-wave (km/s) = 2.44589 3.34633 2.93089
# Velocity P-wave (km/s) = 5.13749 5.90406 5.53407
#
# Compressibility (1/GPa) = 0.02784718
#
# Stress axis : x y z
#
# Youngs Moduli (GPa) = 65.30829 83.40997 36.91860
#
# Poissons Ratio (x) = 0.11633 0.35724
# Poissons Ratio (y) = 0.09108 0.08119
# Poissons Ratio (z) = 0.63195 0.18342
#
# Static dielectric constant tensor:
#      x y z
#    x 1.664970 0.000000 0.036440 
#    y 0.000000 1.714950 0.000000 
#    z 0.036440 0.000000 1.712010 
# 
# From -- ./inp_files/217428.got.cif
#   From: 2010.05.17/outbox.cif.g08.bks.cpg/sg15_109_cif.got.tgz:217428.got - 2010.06.03 18:47:42.
