data_PCOD9278534
_publ_section_title
;
Structure prediction by ZEFSAII (Michael W. Deem and Ramdas Pophale) SiO2 
 PCOD9278534
Probable space group: C 2/C
;
_chemical_formula_sum "Si O2"
_cell_formula_units_Z 40
_cell_length_a 7.770859
_cell_length_b 11.786598
_cell_length_c 17.060237
_cell_angle_alpha 90.000000
_cell_angle_beta 82.541743
_cell_angle_gamma 90.000000
_cell_volume 1549.361161
_symmetry_space_group_name_H-M "C 2/C"
_symmetry_group_IT_number 15
_symmetry_cell_setting 'monoclinic'
loop_
_space_group_symop_operation_xyz
x,y,z
-x,y,1/2-z
-x,-y,-z
x,-y,1/2+z
1/2+x,1/2+y,z
1/2-x,1/2+y,1/2-z
1/2-x,1/2-y,-z
1/2+x,1/2-y,1/2+z
loop_
_atom_site_type_symbol
_atom_site_label
_atom_site_fract_x
_atom_site_fract_y
_atom_site_fract_z
Si Si1 0.420351 0.512515 0.607908
Si Si2 0.840441 0.350005 0.446143
Si Si3 0.806960 0.454562 0.224769
Si Si4 0.121160 0.165602 0.168647
Si Si5 0.734985 0.156261 0.931755
O O1 0.269456 0.536190 0.555413
O O2 0.339266 0.535252 0.698961
O O3 0.497785 0.387071 0.608372
O O4 0.579082 0.593707 0.577260
O O5 0.750000 0.250000 0.500000
O O6 0.824668 0.288368 0.362328
O O7 0.034536 0.379866 0.457406
O O8 0.768485 0.570864 0.176159
O O9 0.780320 0.349670 0.165569
O O10 0.000000 0.461009 0.250000
O O11 0.000000 0.175950 0.250000
O O12 0.750000 0.250000 0.000000
#
# Coordination Sequence:
#
# PCOD9278534 Si02
#       5
#     8   8   8   8   8
#     4  10  22  45  66  94 135 179 224 293 341 399
#     4  12  24  42  67  99 139 181 226 278 356 417
#     4  10  20  43  71  94 131 179 226 287 346 399
#     4   9  23  44  65 100 131 170 237 286 340 414
#     4  11  22  40  64 100 136 173 223 275 347 417
#
# _framework density 25.817091000000001
#
# number of rings (size 3 to 8) (size 9 to 14) (size 15 to 20)
#    0.000    1.600    4.000    1.800    2.800    0.800 
#    7.200    4.000    0.000    0.000    0.000    0.000 
#    0.000    0.000    0.000    0.000    0.000    0.000 
#
# Total GULP energy -111506.452561 kJ/mol
# GULP energy per Si atom -5575.322628 kJ/mol
# Density = 2.575833 g / cm^3
# Si number density = 25.817091 Si / 1000 Ang^3
#
#
#
# Elastic Constant Matrix: (Units=GPa)
#
#
# Indices 1 2 3 4 5 6 
#
# 1 197.7414 40.9366 47.5007 0.0000 16.1468 0.0000
# 2 40.9366 88.6923 33.3867 0.0000 3.7259 0.0000
# 3 47.5007 33.3867 124.7759 0.0000 -14.2870 0.0000
# 4 0.0000 0.0000 0.0000 59.4573 0.0000 2.5897
# 5 16.1468 3.7259 -14.2870 0.0000 52.4404 0.0000
# 6 0.0000 0.0000 0.0000 2.5897 0.0000 39.2461
#
#
#
# Elastic Compliance Matrix: (Units=1/GPa)
#
#
# Indices 1 2 3 4 5 6 
#
# 1 0.006153 -0.001958 -0.002085 0.000000 -0.002323 0.000000
# 2 -0.001958 0.013339 -0.002956 0.000000 -0.001150 0.000000
# 3 -0.002085 -0.002956 0.010009 0.000000 0.003579 0.000000
# 4 0.000000 0.000000 0.000000 0.016867 0.000000 -0.001113
# 5 -0.002323 -0.001150 0.003579 0.000000 0.020841 0.000000
# 6 0.000000 0.000000 0.000000 -0.001113 0.000000 0.025554
#
#
# Mechanical properties :
#
#
# Convention : Reuss Voigt Hill
#
# Bulk Modulus (GPa) = 64.49503 72.76196 68.62849
# Shear Modulus (GPa) = 44.67186 49.52112 47.09649
#
# Velocity S-wave (km/s) = 4.16423 4.38442 4.27574
# Velocity P-wave (km/s) = 6.93951 7.34001 7.14257
#
# Compressibility (1/GPa) = 0.01550507
#
# Stress axis : x y z
#
# Youngs Moduli (GPa) = 162.52693 74.96559 99.91448
#
# Poissons Ratio (x) = 0.14675 0.20827
# Poissons Ratio (y) = 0.31816 0.29532
# Poissons Ratio (z) = 0.33879 0.22158
#
# Static dielectric constant tensor:
#      x y z
#    x 1.977920 0.000000 0.027410 
#    y 0.000000 2.008540 0.000000 
#    z 0.027410 0.000000 2.275870 
# 
# From -- ./inp_files/229859.got.cif
#   From: 2010.05.17/outbox.cif.g08.bks.cpg/sg15_115_cif.got.tgz:229859.got - 2010.06.03 18:47:42.
