data_PCOD9278854
_publ_section_title
;
Structure prediction by ZEFSAII (Michael W. Deem and Ramdas Pophale) SiO2 
 PCOD9278854
Probable space group: C 2/C
;
_chemical_formula_sum "Si O2"
_cell_formula_units_Z 52
_cell_length_a 17.468159
_cell_length_b 24.374049
_cell_length_c 8.284260
_cell_angle_alpha 90.000000
_cell_angle_beta 45.028911
_cell_angle_gamma 90.000000
_cell_volume 2495.356328
_symmetry_space_group_name_H-M "C 2/C"
_symmetry_group_IT_number 15
_symmetry_cell_setting 'monoclinic'
loop_
_space_group_symop_operation_xyz
x,y,z
-x,y,1/2-z
-x,-y,-z
x,-y,1/2+z
1/2+x,1/2+y,z
1/2-x,1/2+y,1/2-z
1/2-x,1/2-y,-z
1/2+x,1/2-y,1/2+z
loop_
_atom_site_type_symbol
_atom_site_label
_atom_site_fract_x
_atom_site_fract_y
_atom_site_fract_z
Si Si1 0.780710 0.172434 0.878408
Si Si2 0.667762 0.497144 0.507340
Si Si3 0.795361 0.083323 0.300034
Si Si4 0.500000 0.260771 0.750000
Si Si5 0.221964 0.189028 0.985563
Si Si6 0.054944 0.074478 0.910811
Si Si7 0.423127 0.781169 0.705140
O O1 0.738848 0.176757 0.754604
O O2 0.867547 0.124011 0.758240
O O3 0.670983 0.172533 0.146641
O O4 0.352682 0.274869 0.320077
O O5 0.723789 0.547670 0.331944
O O6 0.742544 0.460371 0.508939
O O7 0.578772 0.525687 0.751606
O O8 0.609904 0.450935 0.486665
O O9 0.753571 0.142682 0.418154
O O10 0.928172 0.088247 0.104813
O O11 0.404959 0.303115 0.852833
O O12 0.521264 0.225094 0.555104
O O13 0.250000 0.250000 0.000000
O O14 0.500000 0.784474 0.750000
#
# Coordination Sequence:
#
# PCOD9278854 Si02
#       7
#     8   8   8   4   8   8   8
#     4  10  22  35  55  82 115 147 190 238 283 341
#     4  10  21  31  51  80 112 153 189 224 282 350
#     4  11  19  33  52  77 115 153 189 225 281 347
#     4  10  22  38  56  78 112 154 192 236 284 334
#     4  11  22  36  56  82 117 158 194 232 286 350
#     4  11  19  33  50  78 115 148 181 229 278 342
#     4  10  21  39  57  80 112 150 192 238 287 343
#
# _framework density 20.838706999999999
#
# number of rings (size 3 to 8) (size 9 to 14) (size 15 to 20)
#    0.000    1.538    1.538    6.462    0.000    6.154 
#    0.000    0.000    0.000    0.000    0.000    1.077 
#    9.231    0.154    0.000    0.000    0.000    0.000 
#
# Total GULP energy -144830.105379 kJ/mol
# GULP energy per Si atom -5570.388668 kJ/mol
# Density = 2.079128 g / cm^3
# Si number density = 20.838707 Si / 1000 Ang^3
#
#
#
# Elastic Constant Matrix: (Units=GPa)
#
#
# Indices 1 2 3 4 5 6 
#
# 1 38.3050 7.6305 18.8006 0.0000 8.4513 0.0000
# 2 7.6305 108.6808 24.0507 0.0000 4.8481 0.0000
# 3 18.8006 24.0507 92.9479 0.0000 14.1055 0.0000
# 4 0.0000 0.0000 0.0000 34.7068 0.0000 -0.3394
# 5 8.4513 4.8481 14.1055 0.0000 16.0138 0.0000
# 6 0.0000 0.0000 0.0000 -0.3394 0.0000 11.9503
#
#
#
# Elastic Compliance Matrix: (Units=1/GPa)
#
#
# Indices 1 2 3 4 5 6 
#
# 1 0.031063 -0.000693 -0.004211 0.000000 -0.012475 0.000000
# 2 -0.000693 0.009785 -0.002306 0.000000 -0.000566 0.000000
# 3 -0.004211 -0.002306 0.013579 0.000000 -0.009041 0.000000
# 4 0.000000 0.000000 0.000000 0.028821 0.000000 0.000819
# 5 -0.012475 -0.000566 -0.009041 0.000000 0.077164 0.000000
# 6 0.000000 0.000000 0.000000 0.000819 0.000000 0.083703
#
#
# Mechanical properties :
#
#
# Convention : Reuss Voigt Hill
#
# Bulk Modulus (GPa) = 24.99449 37.87748 31.43599
# Shear Modulus (GPa) = 18.39107 25.16431 21.77769
#
# Velocity S-wave (km/s) = 2.97399 3.47879 3.23624
# Velocity P-wave (km/s) = 4.87987 5.86105 5.39282
#
# Compressibility (1/GPa) = 0.04000882
#
# Stress axis : x y z
#
# Youngs Moduli (GPa) = 32.19229 102.19253 73.64245
#
# Poissons Ratio (x) = 0.07078 0.31009
# Poissons Ratio (y) = 0.02230 0.16983
# Poissons Ratio (z) = 0.13556 0.23566
#
# Static dielectric constant tensor:
#      x y z
#    x 1.663330 0.000000 0.110130 
#    y 0.000000 1.789400 0.000000 
#    z 0.110130 0.000000 1.843220 
# 
# From -- ./inp_files/58568.got.cif
#   From: 2010.05.17/outbox.cif.g08.bks.cpg/sg15_30_cif.got.tgz:58568.got - 2010.06.03 18:47:42.
