data_PCOD9278138
_publ_section_title
;
Structure prediction by ZEFSAII (Michael W. Deem and Ramdas Pophale) SiO2 
 PCOD9278138
Probable space group: C 2/C
;
_chemical_formula_sum "Si O2"
_cell_formula_units_Z 52
_cell_length_a 26.202501
_cell_length_b 10.032682
_cell_length_c 14.177664
_cell_angle_alpha 90.000000
_cell_angle_beta 37.203573
_cell_angle_gamma 90.000000
_cell_volume 2253.552385
_symmetry_space_group_name_H-M "C 2/C"
_symmetry_group_IT_number 15
_symmetry_cell_setting 'monoclinic'
loop_
_space_group_symop_operation_xyz
x,y,z
-x,y,1/2-z
-x,-y,-z
x,-y,1/2+z
1/2+x,1/2+y,z
1/2-x,1/2+y,1/2-z
1/2-x,1/2-y,-z
1/2+x,1/2-y,1/2+z
loop_
_atom_site_type_symbol
_atom_site_label
_atom_site_fract_x
_atom_site_fract_y
_atom_site_fract_z
Si Si1 0.450101 0.824710 0.621777
Si Si2 0.135407 0.991136 0.073136
Si Si3 0.500000 0.261212 0.250000
Si Si4 0.265700 0.339193 0.200390
Si Si5 0.205342 0.145701 0.634190
Si Si6 0.594701 0.216671 0.618488
Si Si7 0.618269 0.883040 0.279090
O O1 0.489889 0.822260 0.668891
O O2 0.388032 0.700241 0.704116
O O3 0.526681 0.820830 0.436464
O O4 0.396457 0.959065 0.685950
O O5 0.079673 0.862155 0.134692
O O6 0.189906 0.977206 0.087974
O O7 0.084242 0.127396 0.161484
O O8 0.194030 0.022762 0.897723
O O9 0.246990 0.357187 0.337380
O O10 0.184939 0.321578 0.253294
O O11 0.339048 0.230416 0.066046
O O12 0.250000 0.250000 0.500000
O O13 0.500000 0.159774 0.750000
O O14 0.639298 0.144971 0.639975
#
# Coordination Sequence:
#
# PCOD9278138 Si02
#       7
#     8   8   4   8   8   8   8
#     4  10  25  40  64  95 134 180 217 269 334 410
#     4   9  21  40  65  98 123 168 223 270 332 387
#     4  10  20  42  66  94 134 172 226 270 338 386
#     4  10  23  42  66 101 129 174 219 281 330 387
#     4  11  23  44  65  96 136 172 223 275 333 397
#     4  10  21  42  69  98 131 170 222 278 326 394
#     4  11  23  44  62 101 135 176 229 262 342 403
#
# _framework density 23.074680000000001
#
# number of rings (size 3 to 8) (size 9 to 14) (size 15 to 20)
#    0.923    0.923    0.769    2.308    5.385    1.231 
#    2.769    3.846    0.000    0.000    0.000    0.000 
#    0.000    0.000    0.000    0.000    0.000    0.000 
#
# Total GULP energy -145121.593969 kJ/mol
# GULP energy per Si atom -5581.599768 kJ/mol
# Density = 2.302216 g / cm^3
# Si number density = 23.074680 Si / 1000 Ang^3
#
#
#
# Elastic Constant Matrix: (Units=GPa)
#
#
# Indices 1 2 3 4 5 6 
#
# 1 127.4152 1.9239 29.4220 0.0000 17.2355 0.0000
# 2 1.9239 21.1326 11.3819 0.0001 -5.8619 0.0000
# 3 29.4220 11.3819 82.8917 0.0000 19.2212 0.0000
# 4 0.0000 0.0001 0.0000 23.0542 0.0000 3.7906
# 5 17.2355 -5.8619 19.2212 0.0000 45.7464 0.0000
# 6 0.0000 0.0000 0.0000 3.7906 0.0000 27.6621
#
#
#
# Elastic Compliance Matrix: (Units=1/GPa)
#
#
# Indices 1 2 3 4 5 6 
#
# 1 0.008745 -0.000014 -0.002590 0.000000 -0.002208 0.000000
# 2 -0.000014 0.056118 -0.010381 0.000000 0.011558 0.000000
# 3 -0.002590 -0.010381 0.016055 0.000000 -0.007100 0.000000
# 4 0.000000 0.000000 0.000000 0.044376 0.000000 -0.006081
# 5 -0.002208 0.011558 -0.007100 0.000000 0.027156 0.000000
# 6 0.000000 0.000000 0.000000 -0.006081 0.000000 0.036984
#
#
# Mechanical properties :
#
#
# Convention : Reuss Voigt Hill
#
# Bulk Modulus (GPa) = 18.19852 35.21058 26.70455
# Shear Modulus (GPa) = 21.39306 31.87332 26.63319
#
# Velocity S-wave (km/s) = 3.04817 3.72063 3.40106
# Velocity P-wave (km/s) = 4.50471 5.80948 5.19819
#
# Compressibility (1/GPa) = 0.05494953
#
# Stress axis : x y z
#
# Youngs Moduli (GPa) = 114.34579 17.81945 62.28546
#
# Poissons Ratio (x) = 0.00024 0.16133
# Poissons Ratio (y) = 0.00157 0.64658
# Poissons Ratio (z) = 0.29618 0.18498
#
# Static dielectric constant tensor:
#      x y z
#    x 1.970810 0.000000 -0.055250 
#    y 0.000000 1.879970 0.000000 
#    z -0.055250 0.000000 1.913040 
# 
# From -- ./inp_files/117924.got.cif
#   From: 2010.05.17/outbox.cif.g08.bks.cpg/sg15_59_cif.got.tgz:117924.got - 2010.06.03 18:47:42.
