data_PCOD9278389
_publ_section_title
;
Structure prediction by ZEFSAII (Michael W. Deem and Ramdas Pophale) SiO2 
 PCOD9278389
Probable space group: C 2/C
;
_chemical_formula_sum "Si O2"
_cell_formula_units_Z 52
_cell_length_a 8.615883
_cell_length_b 29.091740
_cell_length_c 11.306284
_cell_angle_alpha 90.000000
_cell_angle_beta 57.055478
_cell_angle_gamma 90.000000
_cell_volume 2378.228503
_symmetry_space_group_name_H-M "C 2/C"
_symmetry_group_IT_number 15
_symmetry_cell_setting 'monoclinic'
loop_
_space_group_symop_operation_xyz
x,y,z
-x,y,1/2-z
-x,-y,-z
x,-y,1/2+z
1/2+x,1/2+y,z
1/2-x,1/2+y,1/2-z
1/2-x,1/2-y,-z
1/2+x,1/2-y,1/2+z
loop_
_atom_site_type_symbol
_atom_site_label
_atom_site_fract_x
_atom_site_fract_y
_atom_site_fract_z
Si Si1 0.860301 0.803129 0.194012
Si Si2 0.320508 0.897330 0.262982
Si Si3 0.221071 0.630070 0.170716
Si Si4 0.655878 0.266966 0.918681
Si Si5 0.325710 0.524397 0.510527
Si Si6 0.307081 0.430824 0.410748
Si Si7 0.500000 0.407809 0.750000
O O1 0.820900 0.855336 0.176726
O O2 0.689343 0.772656 0.309835
O O3 0.000000 0.804090 0.250000
O O4 0.949993 0.778640 0.044107
O O5 0.500000 0.878255 0.250000
O O6 0.273334 0.944564 0.350561
O O7 0.340337 0.909618 0.117940
O O8 0.245982 0.684876 0.151247
O O9 0.340860 0.617253 0.238033
O O10 0.000000 0.619507 0.250000
O O11 0.314194 0.601981 0.022383
O O12 0.750000 0.250000 0.000000
O O13 0.500000 0.500000 0.500000
O O14 0.237502 0.480601 0.482492
O O15 0.392464 0.559899 0.385567
O O16 0.500000 0.434199 0.250000
#
# Coordination Sequence:
#
# PCOD9278389 Si02
#       7
#     8   8   8   8   8   8   4
#     4  10  21  42  73  98 137 183 233 284 355 426
#     4  12  27  43  68 107 144 182 237 299 357 438
#     4  12  27  44  73 110 147 189 240 308 367 438
#     4  10  20  42  74 101 133 186 240 286 360 431
#     4  12  23  45  71  96 138 192 239 293 368 431
#     4  12  23  46  74  96 136 193 238 290 368 431
#     4  12  24  46  68 104 146 190 242 298 368 440
#
# _framework density 21.865015
#
# number of rings (size 3 to 8) (size 9 to 14) (size 15 to 20)
#    0.000    0.615    3.846    5.538    2.154    1.231 
#    1.385    0.769    0.000    0.000    0.000    0.000 
#    0.000    0.000    0.000    0.000    0.000    0.000 
#
# Total GULP energy -145093.310100 kJ/mol
# GULP energy per Si atom -5580.511927 kJ/mol
# Density = 2.181525 g / cm^3
# Si number density = 21.865015 Si / 1000 Ang^3
#
#
#
# Elastic Constant Matrix: (Units=GPa)
#
#
# Indices 1 2 3 4 5 6 
#
# 1 99.6291 41.8035 48.4337 0.0000 20.3231 0.0000
# 2 41.8035 127.9633 44.1686 0.0000 2.6118 0.0000
# 3 48.4337 44.1686 90.5017 0.0000 3.3284 0.0000
# 4 0.0000 0.0000 0.0000 9.4477 0.0000 28.2540
# 5 20.3231 2.6118 3.3284 0.0000 27.3381 0.0000
# 6 0.0000 0.0000 0.0000 28.2540 0.0000 9.9352
#
#
#
# Elastic Compliance Matrix: (Units=1/GPa)
#
#
# Indices 1 2 3 4 5 6 
#
# 1 0.017182 -0.002826 -0.007390 0.000000 -0.011604 0.000000
# 2 -0.002826 0.009866 -0.003360 0.000000 0.001567 0.000000
# 3 -0.007390 -0.003360 0.016504 0.000000 0.003805 0.000000
# 4 0.000000 0.000000 0.000000 -0.014104 0.000000 0.040109
# 5 -0.011604 0.001567 0.003805 0.000000 0.044592 0.000000
# 6 0.000000 0.000000 0.000000 0.040109 0.000000 -0.013412
#
#
# Mechanical properties :
#
#
# Convention : Reuss Voigt Hill
#
# Bulk Modulus (GPa) = 60.97183 65.21177 63.09180
# Shear Modulus (GPa) = 53.62125 21.59009 37.60567
#
# Velocity S-wave (km/s) = 4.95752 3.14574 4.15167
# Velocity P-wave (km/s) = 7.79201 6.56382 7.20414
#
# Compressibility (1/GPa) = 0.01640102
#
# Stress axis : x y z
#
# Youngs Moduli (GPa) = 58.19955 101.36110 60.59053
#
# Poissons Ratio (x) = 0.28641 0.44774
# Poissons Ratio (y) = 0.16445 0.20360
# Poissons Ratio (z) = 0.43007 0.34060
#
# Static dielectric constant tensor:
#      x y z
#    x 1.833190 0.000000 -0.087870 
#    y 0.000000 1.804600 0.000000 
#    z -0.087870 0.000000 1.737340 
# 
# From -- ./inp_files/81170.got.cif
#   From: 2010.05.17/outbox.cif.g08.bks.cpg/sg15_41_cif.got.tgz:81170.got - 2010.06.03 18:47:42.
