data_PCOD9278750
_publ_section_title
;
Structure prediction by ZEFSAII (Michael W. Deem and Ramdas Pophale) SiO2 
 PCOD9278750
Probable space group: C 2/C
;
_chemical_formula_sum "Si O2"
_cell_formula_units_Z 48
_cell_length_a 8.061210
_cell_length_b 23.998888
_cell_length_c 14.454383
_cell_angle_alpha 90.000000
_cell_angle_beta 132.871418
_cell_angle_gamma 90.000000
_cell_volume 2049.392750
_symmetry_space_group_name_H-M "C 2/C"
_symmetry_group_IT_number 15
_symmetry_cell_setting 'monoclinic'
loop_
_space_group_symop_operation_xyz
x,y,z
-x,y,1/2-z
-x,-y,-z
x,-y,1/2+z
1/2+x,1/2+y,z
1/2-x,1/2+y,1/2-z
1/2-x,1/2-y,-z
1/2+x,1/2-y,1/2+z
loop_
_atom_site_type_symbol
_atom_site_label
_atom_site_fract_x
_atom_site_fract_y
_atom_site_fract_z
Si Si1 0.277271 0.382637 0.617875
Si Si2 0.986431 0.578472 0.634791
Si Si3 0.774892 0.319671 0.228209
Si Si4 0.565480 0.950103 0.883792
Si Si5 0.667979 0.649014 0.050991
Si Si6 0.165019 0.301164 0.707096
O O1 0.500000 0.405532 0.750000
O O2 0.244319 0.318281 0.634331
O O3 0.236003 0.395278 0.495818
O O4 0.079626 0.414905 0.598313
O O5 0.177420 0.626085 0.688898
O O6 0.000000 0.575040 0.750000
O O7 0.972409 0.513886 0.601708
O O8 0.727329 0.261060 0.258814
O O9 0.000000 0.313132 0.250000
O O10 0.553930 0.328292 0.081450
O O11 0.500000 0.946043 0.750000
O O12 0.799844 0.915382 0.968763
O O13 0.691498 0.658366 0.170234
O O14 0.899056 0.683544 0.111725
#
# Coordination Sequence:
#
# PCOD9278750 Si02
#       6
#     8   8   8   8   8   8
#     4  11  23  40  69  99 127 182 235 282 347 408
#     4  10  25  42  63 101 145 177 225 293 353 405
#     4  11  25  40  63 102 143 178 224 287 358 401
#     4  10  20  45  69  95 136 181 237 283 343 419
#     4  10  21  43  71  95 130 190 234 278 346 413
#     4  10  22  42  67  95 133 180 237 280 335 422
#
# _framework density 23.421572000000001
#
# number of rings (size 3 to 8) (size 9 to 14) (size 15 to 20)
#    0.000    1.667    3.333    1.500    7.000    2.000 
#    3.000    5.833    0.000    0.000    0.000    0.000 
#    0.000    0.000    0.000    0.000    0.000    0.000 
#
# Total GULP energy -133699.540786 kJ/mol
# GULP energy per Si atom -5570.814199 kJ/mol
# Density = 2.336826 g / cm^3
# Si number density = 23.421572 Si / 1000 Ang^3
#
#
#
# Elastic Constant Matrix: (Units=GPa)
#
#
# Indices 1 2 3 4 5 6 
#
# 1 37.0686 14.7379 26.5783 0.0000 3.3490 0.0000
# 2 14.7379 177.4270 27.4059 0.0000 8.1270 0.0000
# 3 26.5783 27.4059 154.6398 0.0000 23.3765 0.0000
# 4 0.0000 0.0000 0.0000 10.7347 0.0000 5.4507
# 5 3.3490 8.1270 23.3765 0.0000 32.6020 0.0000
# 6 0.0000 0.0000 0.0000 5.4507 0.0000 12.8822
#
#
#
# Elastic Compliance Matrix: (Units=1/GPa)
#
#
# Indices 1 2 3 4 5 6 
#
# 1 0.031358 -0.001845 -0.005210 0.000000 0.000974 0.000000
# 2 -0.001845 0.005922 -0.000603 0.000000 -0.000854 0.000000
# 3 -0.005210 -0.000603 0.008261 0.000000 -0.005238 0.000000
# 4 0.000000 0.000000 0.000000 0.118647 0.000000 -0.050202
# 5 0.000974 -0.000854 -0.005238 0.000000 0.034541 0.000000
# 6 0.000000 0.000000 0.000000 -0.050202 0.000000 0.098868
#
#
# Mechanical properties :
#
#
# Convention : Reuss Voigt Hill
#
# Bulk Modulus (GPa) = 33.08562 56.28662 44.68612
# Shear Modulus (GPa) = 15.48052 31.27132 23.37592
#
# Velocity S-wave (km/s) = 2.57369 3.65794 3.16262
# Velocity P-wave (km/s) = 4.79464 6.47493 5.69708
#
# Compressibility (1/GPa) = 0.03022461
#
# Stress axis : x y z
#
# Youngs Moduli (GPa) = 31.88990 168.87178 121.05423
#
# Poissons Ratio (x) = 0.31150 0.63068
# Poissons Ratio (y) = 0.05882 0.07303
# Poissons Ratio (z) = 0.16614 0.10188
#
# Static dielectric constant tensor:
#      x y z
#    x 2.014850 0.000000 -0.031360 
#    y 0.000000 1.956310 0.000000 
#    z -0.031360 0.000000 1.849370 
# 
# From -- ./inp_files/139008.got.cif
#   From: 2010.05.17/outbox.cif.g08.bks.cpg/sg15_70_cif.got.tgz:139008.got - 2010.06.03 18:47:42.
