data_PCOD9278481
_publ_section_title
;
Structure prediction by ZEFSAII (Michael W. Deem and Ramdas Pophale) SiO2 
 PCOD9278481
Probable space group: C 2/C
;
_chemical_formula_sum "Si O2"
_cell_formula_units_Z 36
_cell_length_a 20.073939
_cell_length_b 18.062054
_cell_length_c 12.433944
_cell_angle_alpha 90.000000
_cell_angle_beta 160.463052
_cell_angle_gamma 90.000000
_cell_volume 1507.627180
_symmetry_space_group_name_H-M "C 2/C"
_symmetry_group_IT_number 15
_symmetry_cell_setting 'monoclinic'
loop_
_space_group_symop_operation_xyz
x,y,z
-x,y,1/2-z
-x,-y,-z
x,-y,1/2+z
1/2+x,1/2+y,z
1/2-x,1/2+y,1/2-z
1/2-x,1/2-y,-z
1/2+x,1/2-y,1/2+z
loop_
_atom_site_type_symbol
_atom_site_label
_atom_site_fract_x
_atom_site_fract_y
_atom_site_fract_z
Si Si1 0.679310 0.579328 0.741389
Si Si2 0.886926 0.331451 0.215134
Si Si3 0.500000 0.603636 0.250000
Si Si4 0.500000 0.042044 0.750000
Si Si5 0.000000 0.290769 0.750000
Si Si6 0.933613 0.795952 0.933490
O O1 0.593374 0.561813 0.493196
O O2 0.502219 0.618347 0.536830
O O3 0.810593 0.511317 0.978487
O O4 0.821262 0.651694 0.957041
O O5 0.008094 0.267645 0.461019
O O6 0.002843 0.405757 0.359801
O O7 0.691378 0.353116 0.990288
O O8 0.788564 0.302770 0.953910
O O9 0.996536 0.239015 0.640973
#
# Coordination Sequence:
#
# PCOD9278481 Si02
#       6
#     8   8   4   4   4   8
#     4  10  23  42  65 101 143 176 228 291 343 413
#     4  10  23  42  72  99 137 186 233 277 350 419
#     4  10  20  43  67  92 134 184 226 282 340 409
#     4  11  26  45  66 103 145 184 228 285 352 411
#     4  11  20  40  67 105 131 176 230 303 328 414
#     4  10  22  39  72 101 135 179 239 286 343 408
#
# _framework density 23.878582999999999
#
# number of rings (size 3 to 8) (size 9 to 14) (size 15 to 20)
#    0.000    1.778    2.222    0.667    3.111    6.222 
#    0.000    2.222    0.000    0.000    0.000    0.000 
#    0.000    0.000    0.000    0.000    0.000    0.000 
#
# Total GULP energy -100288.484635 kJ/mol
# GULP energy per Si atom -5571.582480 kJ/mol
# Density = 2.382423 g / cm^3
# Si number density = 23.878583 Si / 1000 Ang^3
#
#
#
# Elastic Constant Matrix: (Units=GPa)
#
#
# Indices 1 2 3 4 5 6 
#
# 1 88.5265 58.0988 38.1336 0.0000 -18.2329 0.0000
# 2 58.0988 156.4294 42.6190 0.0000 -1.2698 0.0000
# 3 38.1336 42.6190 83.7119 0.0000 -22.3232 0.0000
# 4 0.0000 0.0000 0.0000 19.3441 0.0000 12.0109
# 5 -18.2329 -1.2698 -22.3232 0.0000 50.5235 0.0000
# 6 0.0000 0.0000 0.0000 12.0109 0.0000 23.0686
#
#
#
# Elastic Compliance Matrix: (Units=1/GPa)
#
#
# Indices 1 2 3 4 5 6 
#
# 1 0.017450 -0.005338 -0.004068 0.000000 0.004366 0.000000
# 2 -0.005338 0.009183 -0.003056 0.000000 -0.003046 0.000000
# 3 -0.004068 -0.003056 0.016938 0.000000 0.005939 0.000000
# 4 0.000000 0.000000 0.000000 0.076391 0.000000 -0.039773
# 5 0.004366 -0.003046 0.005939 0.000000 0.023916 0.000000
# 6 0.000000 0.000000 0.000000 -0.039773 0.000000 0.064057
#
#
# Mechanical properties :
#
#
# Convention : Reuss Voigt Hill
#
# Bulk Modulus (GPa) = 53.62036 67.37452 60.49744
# Shear Modulus (GPa) = 20.91404 31.24169 26.07787
#
# Velocity S-wave (km/s) = 2.96269 3.62104 3.30828
# Velocity P-wave (km/s) = 5.84872 6.76456 6.32324
#
# Compressibility (1/GPa) = 0.01864963
#
# Stress axis : x y z
#
# Youngs Moduli (GPa) = 57.30532 108.89804 59.03806
#
# Poissons Ratio (x) = 0.58125 0.24014
# Poissons Ratio (y) = 0.30587 0.18041
# Poissons Ratio (z) = 0.23309 0.33278
#
# Static dielectric constant tensor:
#      x y z
#    x 2.085220 0.000000 0.162800 
#    y 0.000000 1.944290 0.000000 
#    z 0.162800 0.000000 1.968790 
# 
# From -- ./inp_files/76397.got.cif
#   From: 2010.05.17/outbox.cif.g08.bks.cpg/sg15_39_cif.got.tgz:76397.got - 2010.06.03 18:47:42.
