data_PCOD9278363
_publ_section_title
;
Structure prediction by ZEFSAII (Michael W. Deem and Ramdas Pophale) SiO2 
 PCOD9278363
Probable space group: C 2/C
;
_chemical_formula_sum "Si O2"
_cell_formula_units_Z 52
_cell_length_a 5.417725
_cell_length_b 25.668374
_cell_length_c 17.396430
_cell_angle_alpha 90.000000
_cell_angle_beta 60.786918
_cell_angle_gamma 90.000000
_cell_volume 2111.521429
_symmetry_space_group_name_H-M "C 2/C"
_symmetry_group_IT_number 15
_symmetry_cell_setting 'monoclinic'
loop_
_space_group_symop_operation_xyz
x,y,z
-x,y,1/2-z
-x,-y,-z
x,-y,1/2+z
1/2+x,1/2+y,z
1/2-x,1/2+y,1/2-z
1/2-x,1/2-y,-z
1/2+x,1/2-y,1/2+z
loop_
_atom_site_type_symbol
_atom_site_label
_atom_site_fract_x
_atom_site_fract_y
_atom_site_fract_z
Si Si1 0.851833 0.914536 0.395609
Si Si2 0.491714 0.157091 0.160893
Si Si3 0.000000 0.160716 0.750000
Si Si4 0.725678 0.265969 0.335059
Si Si5 0.337789 0.483293 0.693077
Si Si6 0.934430 0.167561 0.508320
Si Si7 0.811498 0.585892 0.058776
O O1 0.971941 0.874818 0.441412
O O2 0.568819 0.940359 0.473741
O O3 0.800253 0.882439 0.324072
O O4 0.084479 0.958798 0.347060
O O5 0.500000 0.148151 0.250000
O O6 0.284825 0.204751 0.173781
O O7 0.788399 0.178379 0.083607
O O8 0.406845 0.105469 0.128008
O O9 0.002691 0.203225 0.680495
O O10 0.693343 0.284110 0.426751
O O11 0.000000 0.288132 0.250000
O O12 0.500000 0.478405 0.750000
O O13 0.513511 0.443594 0.611280
O O14 0.000000 0.476680 0.750000
O O15 0.722764 0.139201 0.483623
#
# Coordination Sequence:
#
# PCOD9278363 Si02
#       7
#     8   8   4   8   8   8   8
#     4  10  23  47  74 107 145 198 246 321 376 455
#     4  11  26  45  70 101 146 201 247 314 376 457
#     4  10  20  42  72 106 148 186 254 306 386 436
#     4  11  23  41  69 105 141 195 248 313 374 449
#     4  12  30  48  79 113 154 200 260 320 387 467
#     4  10  25  43  72 102 146 187 253 311 380 453
#     4  11  27  46  73 105 148 197 251 312 384 461
#
# _framework density 24.626791999999998
#
# number of rings (size 3 to 8) (size 9 to 14) (size 15 to 20)
#    0.000    1.231    1.538    1.846   10.769    3.692 
#    0.000    0.000    0.000    0.000    0.000    0.000 
#    0.000    0.000    0.000    0.000    0.000    0.000 
#
# Total GULP energy -145225.042066 kJ/mol
# GULP energy per Si atom -5585.578541 kJ/mol
# Density = 2.457074 g / cm^3
# Si number density = 24.626792 Si / 1000 Ang^3
#
#
#
# Elastic Constant Matrix: (Units=GPa)
#
#
# Indices 1 2 3 4 5 6 
#
# 1 67.4068 2.9515 39.1163 0.0000 -17.1965 0.0000
# 2 2.9515 54.4410 31.4237 0.0000 -17.9146 0.0000
# 3 39.1163 31.4237 155.4301 0.0000 -15.5367 0.0000
# 4 0.0000 0.0000 0.0000 59.0216 0.0000 -24.7578
# 5 -17.1965 -17.9146 -15.5367 0.0000 45.9469 0.0000
# 6 0.0000 0.0000 0.0000 -24.7578 0.0000 9.2477
#
#
#
# Elastic Compliance Matrix: (Units=1/GPa)
#
#
# Indices 1 2 3 4 5 6 
#
# 1 0.019399 0.004214 -0.005014 0.000000 0.007208 0.000000
# 2 0.004214 0.024079 -0.005002 0.000000 0.009274 0.000000
# 3 -0.005014 -0.005002 0.008615 0.000000 -0.000913 0.000000
# 4 0.000000 0.000000 0.000000 -0.137745 0.000000 -0.368771
# 5 0.007208 0.009274 -0.000913 0.000000 0.027769 0.000000
# 6 0.000000 0.000000 0.000000 -0.368771 0.000000 -0.879134
#
#
# Mechanical properties :
#
#
# Convention : Reuss Voigt Hill
#
# Bulk Modulus (GPa) = 24.69664 47.14008 35.91836
# Shear Modulus (GPa) = -5.48295 36.42899 15.47302
#
# Velocity S-wave (km/s) = -1.49374 3.85026 2.50931
# Velocity P-wave (km/s) = 2.65991 6.24094 4.79711
#
# Compressibility (1/GPa) = 0.04049133
#
# Stress axis : x y z
#
# Youngs Moduli (GPa) = 51.54888 41.53028 116.07157
#
# Poissons Ratio (x) = -0.17501 0.58193
# Poissons Ratio (y) = -0.21723 0.58054
# Poissons Ratio (z) = 0.25844 0.20772
#
# Static dielectric constant tensor:
#      x y z
#    x 2.586490 0.000000 -0.043730 
#    y 0.000000 1.936880 0.000000 
#    z -0.043730 0.000000 2.034110 
# 
# From -- ./inp_files/186045.got.cif
#   From: 2010.05.17/outbox.cif.g08.bks.cpg/sg15_94_cif.got.tgz:186045.got - 2010.06.03 18:47:42.
