data_PCOD9278689
_publ_section_title
;
Structure prediction by ZEFSAII (Michael W. Deem and Ramdas Pophale) SiO2 
 PCOD9278689
Probable space group: C 2/C
;
_chemical_formula_sum "Si O2"
_cell_formula_units_Z 56
_cell_length_a 23.047526
_cell_length_b 9.401114
_cell_length_c 9.533611
_cell_angle_alpha 90.000000
_cell_angle_beta 104.261155
_cell_angle_gamma 90.000000
_cell_volume 2002.012723
_symmetry_space_group_name_H-M "C 2/C"
_symmetry_group_IT_number 15
_symmetry_cell_setting 'monoclinic'
loop_
_space_group_symop_operation_xyz
x,y,z
-x,y,1/2-z
-x,-y,-z
x,-y,1/2+z
1/2+x,1/2+y,z
1/2-x,1/2+y,1/2-z
1/2-x,1/2-y,-z
1/2+x,1/2-y,1/2+z
loop_
_atom_site_type_symbol
_atom_site_label
_atom_site_fract_x
_atom_site_fract_y
_atom_site_fract_z
Si Si1 0.673965 0.123796 0.564569
Si Si2 0.838518 0.338585 0.048635
Si Si3 0.148666 0.943095 0.461358
Si Si4 0.068315 0.031248 0.654096
Si Si5 0.072957 0.550539 0.728971
Si Si6 0.500000 0.265427 0.750000
Si Si7 0.730812 0.660381 0.666147
Si Si8 0.000000 0.282194 0.750000
O O1 0.657452 0.280660 0.509636
O O2 0.624575 0.061760 0.643750
O O3 0.741053 0.122751 0.668890
O O4 0.671651 0.006457 0.443543
O O5 0.819735 0.279688 0.887383
O O6 0.905153 0.326618 0.143429
O O7 0.791011 0.273559 0.128836
O O8 0.127917 0.952937 0.288343
O O9 0.092645 0.010885 0.512542
O O10 0.203889 0.031610 0.559219
O O11 0.025758 0.167184 0.653237
O O12 0.036835 0.887941 0.684413
O O13 0.015164 0.634469 0.641052
O O14 0.054631 0.398067 0.779942
#
# Coordination Sequence:
#
# PCOD9278689 Si02
#       8
#     8   8   8   8   8   4   8   4
#     4  11  23  42  67 102 135 179 228 283 342 415
#     4  10  22  42  65  98 133 182 224 281 336 425
#     4  12  26  46  71 102 140 182 226 290 337 417
#     4  11  26  46  69 103 137 179 235 280 345 405
#     4  10  21  43  65  98 132 179 224 282 347 405
#     4  10  20  44  70  88 134 178 226 278 342 406
#     4  10  24  40  71  95 140 177 229 271 355 401
#     4  10  24  44  68 100 138 176 234 290 338 406
#
# _framework density 27.97185
#
# number of rings (size 3 to 8) (size 9 to 14) (size 15 to 20)
#    0.000    1.429    1.429    2.571    8.000    2.857 
#    5.143    2.143    0.000    0.000    0.000    0.000 
#    0.000    0.000    0.000    0.000    0.000    0.000 
#
# Total GULP energy -156155.106359 kJ/mol
# GULP energy per Si atom -5576.968084 kJ/mol
# Density = 2.790818 g / cm^3
# Si number density = 27.971850 Si / 1000 Ang^3
#
#
#
# Elastic Constant Matrix: (Units=GPa)
#
#
# Indices 1 2 3 4 5 6 
#
# 1 100.0064 10.0035 4.0351 0.0000 -4.4659 0.0000
# 2 10.0035 208.7190 20.6744 0.0000 -8.2668 0.0000
# 3 4.0351 20.6744 87.6048 0.0000 7.1598 0.0000
# 4 0.0000 0.0000 0.0000 54.2602 0.0000 27.7570
# 5 -4.4659 -8.2668 7.1598 0.0000 22.4467 0.0000
# 6 0.0000 0.0000 0.0000 27.7570 0.0000 75.5488
#
#
#
# Elastic Compliance Matrix: (Units=1/GPa)
#
#
# Indices 1 2 3 4 5 6 
#
# 1 0.010149 -0.000350 -0.000554 0.000000 0.002067 0.000000
# 2 -0.000350 0.005029 -0.001352 0.000000 0.002214 0.000000
# 3 -0.000554 -0.001352 0.012125 0.000000 -0.004476 0.000000
# 4 0.000000 0.000000 0.000000 0.022695 0.000000 -0.008338
# 5 0.002067 0.002214 -0.004476 0.000000 0.047204 0.000000
# 6 0.000000 0.000000 0.000000 -0.008338 0.000000 0.016300
#
#
# Mechanical properties :
#
#
# Convention : Reuss Voigt Hill
#
# Bulk Modulus (GPa) = 43.87312 51.75069 47.81190
# Shear Modulus (GPa) = 39.80533 54.55895 47.18214
#
# Velocity S-wave (km/s) = 3.77643 4.42123 4.11149
# Velocity P-wave (km/s) = 5.89355 6.67864 6.29834
#
# Compressibility (1/GPa) = 0.02279300
#
# Stress axis : x y z
#
# Youngs Moduli (GPa) = 98.53195 198.82792 82.47288
#
# Poissons Ratio (x) = 0.06953 0.04568
# Poissons Ratio (y) = 0.03446 0.11148
# Poissons Ratio (z) = 0.05458 0.26877
#
# Static dielectric constant tensor:
#      x y z
#    x 1.879510 0.000000 -0.316480 
#    y 0.000000 2.111320 0.000000 
#    z -0.316480 0.000000 2.037220 
# 
# From -- ./inp_files/122038.got.cif
#   From: 2010.05.17/outbox.cif.g08.bks.cpg/sg15_62_cif.got.tgz:122038.got - 2010.06.03 18:47:42.
