data_PCOD9278360
_publ_section_title
;
Structure prediction by ZEFSAII (Michael W. Deem and Ramdas Pophale) SiO2 
 PCOD9278360
Probable space group: C 2/C
;
_chemical_formula_sum "Si O2"
_cell_formula_units_Z 24
_cell_length_a 9.053092
_cell_length_b 15.136593
_cell_length_c 10.557583
_cell_angle_alpha 90.000000
_cell_angle_beta 137.480963
_cell_angle_gamma 90.000000
_cell_volume 977.755660
_symmetry_space_group_name_H-M "C 2/C"
_symmetry_group_IT_number 15
_symmetry_cell_setting 'monoclinic'
loop_
_space_group_symop_operation_xyz
x,y,z
-x,y,1/2-z
-x,-y,-z
x,-y,1/2+z
1/2+x,1/2+y,z
1/2-x,1/2+y,1/2-z
1/2-x,1/2-y,-z
1/2+x,1/2-y,1/2+z
loop_
_atom_site_type_symbol
_atom_site_label
_atom_site_fract_x
_atom_site_fract_y
_atom_site_fract_z
Si Si1 0.550666 0.682745 0.414884
Si Si2 0.109507 0.626916 0.182831
Si Si3 0.836939 0.576867 0.767990
O O1 0.500000 0.632775 0.250000
O O2 0.750000 0.750000 0.500000
O O3 0.297073 0.700929 0.288905
O O4 0.628985 0.625780 0.581734
O O5 0.202619 0.526508 0.235675
O O6 0.000000 0.637253 0.250000
O O7 0.944206 0.622075 0.958933
O O8 0.000000 0.583185 0.750000
#
# Coordination Sequence:
#
# PCOD9278360 Si02
#       3
#     8   8   8
#     4  12  25  41  69 100 139 195 239 279 354 447
#     4  10  23  42  70 106 139 177 240 311 354 411
#     4  10  20  42  72 102 138 183 240 294 362 425
#
# _framework density 24.546009000000002
#
# number of rings (size 3 to 8) (size 9 to 14) (size 15 to 20)
#    0.000    1.333    3.333    2.000    0.000    1.333 
#    0.000    1.667    0.000    0.000    0.000    0.000 
#    0.000    0.000    0.000    0.000    0.000    0.000 
#
# Total GULP energy -66871.320095 kJ/mol
# GULP energy per Si atom -5572.610008 kJ/mol
# Density = 2.449014 g / cm^3
# Si number density = 24.546009 Si / 1000 Ang^3
#
#
#
# Elastic Constant Matrix: (Units=GPa)
#
#
# Indices 1 2 3 4 5 6 
#
# 1 135.8575 40.1642 71.8768 0.0000 -13.7240 0.0000
# 2 40.1642 108.0096 84.1165 0.0000 -0.2948 0.0000
# 3 71.8768 84.1165 247.0868 0.0000 -20.6957 0.0000
# 4 0.0000 0.0000 0.0000 16.2722 0.0000 -14.8625
# 5 -13.7240 -0.2948 -20.6957 0.0000 40.8552 0.0000
# 6 0.0000 0.0000 0.0000 -14.8625 0.0000 16.7295
#
#
#
# Elastic Compliance Matrix: (Units=1/GPa)
#
#
# Indices 1 2 3 4 5 6 
#
# 1 0.009114 -0.001984 -0.001797 0.000000 0.002137 0.000000
# 2 -0.001984 0.013218 -0.004147 0.000000 -0.002672 0.000000
# 3 -0.001797 -0.004147 0.006191 0.000000 0.002503 0.000000
# 4 0.000000 0.000000 0.000000 0.325913 0.000000 0.289542
# 5 0.002137 -0.002672 0.002503 0.000000 0.026443 0.000000
# 6 0.000000 0.000000 0.000000 0.289542 0.000000 0.317004
#
#
# Mechanical properties :
#
#
# Convention : Reuss Voigt Hill
#
# Bulk Modulus (GPa) = 78.93593 98.14099 88.53846
# Shear Modulus (GPa) = 6.96418 34.42448 20.69433
#
# Velocity S-wave (km/s) = 1.68622 3.74899 2.90674
# Velocity P-wave (km/s) = 6.00161 7.66871 6.88580
#
# Compressibility (1/GPa) = 0.01266850
#
# Stress axis : x y z
#
# Youngs Moduli (GPa) = 109.72596 75.65363 161.52262
#
# Poissons Ratio (x) = 0.15008 0.29022
# Poissons Ratio (y) = 0.21768 0.66976
# Poissons Ratio (z) = 0.19715 0.31370
#
# Static dielectric constant tensor:
#      x y z
#    x 2.039030 0.000000 0.081860 
#    y 0.000000 2.081910 0.000000 
#    z 0.081860 0.000000 2.010200 
# 
# From -- ./inp_files/21713.got.cif
#   From: 2010.05.17/outbox.cif.g08.bks.cpg/sg15_11_cif.got.tgz:21713.got - 2010.06.03 18:47:42.
