data_PCOD9278385
_publ_section_title
;
Structure prediction by ZEFSAII (Michael W. Deem and Ramdas Pophale) SiO2 
 PCOD9278385
Probable space group: C 2/C
;
_chemical_formula_sum "Si O2"
_cell_formula_units_Z 48
_cell_length_a 10.866707
_cell_length_b 17.115061
_cell_length_c 10.814620
_cell_angle_alpha 90.000000
_cell_angle_beta 81.692490
_cell_angle_gamma 90.000000
_cell_volume 1990.244726
_symmetry_space_group_name_H-M "C 2/C"
_symmetry_group_IT_number 15
_symmetry_cell_setting 'monoclinic'
loop_
_space_group_symop_operation_xyz
x,y,z
-x,y,1/2-z
-x,-y,-z
x,-y,1/2+z
1/2+x,1/2+y,z
1/2-x,1/2+y,1/2-z
1/2-x,1/2-y,-z
1/2+x,1/2-y,1/2+z
loop_
_atom_site_type_symbol
_atom_site_label
_atom_site_fract_x
_atom_site_fract_y
_atom_site_fract_z
Si Si1 0.500000 0.686807 0.750000
Si Si2 0.300907 0.427266 0.359346
Si Si3 0.057742 0.326399 0.370581
Si Si4 0.000000 0.545179 0.250000
Si Si5 0.253724 0.489378 0.613313
Si Si6 0.630688 0.179533 0.385698
Si Si7 0.633287 0.342427 0.773835
O O1 0.585193 0.633002 0.649882
O O2 0.410828 0.744665 0.686420
O O3 0.168657 0.383299 0.395239
O O4 0.299389 0.494307 0.465083
O O5 0.306423 0.457819 0.216912
O O6 0.113935 0.240251 0.342922
O O7 0.000000 0.352062 0.250000
O O8 0.941624 0.318758 0.477347
O O9 0.104689 0.503687 0.151565
O O10 0.077733 0.602025 0.327360
O O11 0.298347 0.402418 0.645887
O O12 0.778171 0.173351 0.356639
O O13 0.500000 0.372876 0.750000
#
# Coordination Sequence:
#
# PCOD9278385 Si02
#       7
#     4   8   8   4   8   8   8
#     4  11  24  44  76 104 135 188 238 282 357 418
#     4  12  27  47  71 103 141 190 235 292 344 429
#     4  11  24  43  71 104 140 175 236 295 353 408
#     4   9  20  40  72  94 125 180 228 290 343 402
#     4  11  26  46  70 100 144 188 235 285 353 414
#     4  10  20  42  73 103 133 174 237 290 343 411
#     4  10  23  44  69 104 139 182 228 297 354 405
#
# _framework density 24.117637999999999
#
# number of rings (size 3 to 8) (size 9 to 14) (size 15 to 20)
#    0.000    1.333    3.333    1.000    2.333    8.000 
#    9.000    0.000    0.000    0.000    0.000    0.000 
#    0.000    0.000    0.000    0.000    0.000    0.000 
#
# Total GULP energy -134307.654253 kJ/mol
# GULP energy per Si atom -5596.152261 kJ/mol
# Density = 2.406275 g / cm^3
# Si number density = 24.117638 Si / 1000 Ang^3
#
#
#
# Elastic Constant Matrix: (Units=GPa)
#
#
# Indices 1 2 3 4 5 6 
#
# 1 117.6052 23.1120 50.2905 0.0000 -28.5541 0.0000
# 2 23.1120 46.9289 5.4722 0.0000 -5.2405 0.0000
# 3 50.2905 5.4722 103.9817 0.0000 -35.1185 0.0000
# 4 0.0000 0.0000 0.0000 27.8638 0.0000 -1.4617
# 5 -28.5541 -5.2405 -35.1185 0.0000 38.5843 0.0000
# 6 0.0000 0.0000 0.0000 -1.4617 0.0000 19.9815
#
#
#
# Elastic Compliance Matrix: (Units=1/GPa)
#
#
# Indices 1 2 3 4 5 6 
#
# 1 0.012428 -0.005109 -0.004144 0.000000 0.004732 0.000000
# 2 -0.005109 0.023740 0.001492 0.000000 0.000802 0.000000
# 3 -0.004144 0.001492 0.015269 0.000000 0.011034 0.000000
# 4 0.000000 0.000000 0.000000 0.036027 0.000000 0.002635
# 5 0.004732 0.000802 0.011034 0.000000 0.039571 0.000000
# 6 0.000000 0.000000 0.000000 0.002635 0.000000 0.050239
#
#
# Mechanical properties :
#
#
# Convention : Reuss Voigt Hill
#
# Bulk Modulus (GPa) = 27.84214 47.36277 37.60246
# Shear Modulus (GPa) = 24.41798 29.92867 27.17332
#
# Velocity S-wave (km/s) = 3.18536 3.52653 3.36028
# Velocity P-wave (km/s) = 5.00980 6.02185 5.53899
#
# Compressibility (1/GPa) = 0.03591678
#
# Stress axis : x y z
#
# Youngs Moduli (GPa) = 80.46441 42.12212 65.49145
#
# Poissons Ratio (x) = 0.21520 0.27138
# Poissons Ratio (y) = 0.41109 -0.09774
# Poissons Ratio (z) = 0.33342 -0.06286
#
# Static dielectric constant tensor:
#      x y z
#    x 2.335920 0.000000 -0.064470 
#    y 0.000000 1.932600 0.000000 
#    z -0.064470 0.000000 1.988190 
# 
# From -- ./inp_files/87822.got.cif
#   From: 2010.05.17/outbox.cif.g08.bks.cpg/sg15_44_cif.got.tgz:87822.got - 2010.06.03 18:47:42.
