data_PCOD9278215
_publ_section_title
;
Structure prediction by ZEFSAII (Michael W. Deem and Ramdas Pophale) SiO2 
 PCOD9278215
Probable space group: C 2/C
;
_chemical_formula_sum "Si O2"
_cell_formula_units_Z 56
_cell_length_a 21.356594
_cell_length_b 9.273760
_cell_length_c 16.875943
_cell_angle_alpha 90.000000
_cell_angle_beta 133.951437
_cell_angle_gamma 90.000000
_cell_volume 2406.274417
_symmetry_space_group_name_H-M "C 2/C"
_symmetry_group_IT_number 15
_symmetry_cell_setting 'monoclinic'
loop_
_space_group_symop_operation_xyz
x,y,z
-x,y,1/2-z
-x,-y,-z
x,-y,1/2+z
1/2+x,1/2+y,z
1/2-x,1/2+y,1/2-z
1/2-x,1/2-y,-z
1/2+x,1/2-y,1/2+z
loop_
_atom_site_type_symbol
_atom_site_label
_atom_site_fract_x
_atom_site_fract_y
_atom_site_fract_z
Si Si1 0.612865 0.975843 0.500339
Si Si2 0.443189 0.472576 0.130844
Si Si3 0.197728 0.459243 0.749851
Si Si4 0.774151 0.908686 0.556212
Si Si5 0.174456 0.220347 0.233621
Si Si6 0.460636 0.203861 0.348836
Si Si7 0.527899 0.696137 0.468963
O O1 0.651400 0.983136 0.623021
O O2 0.686667 0.996788 0.499708
O O3 0.579393 0.812972 0.462395
O O4 0.531356 0.079729 0.424336
O O5 0.500000 0.549252 0.250000
O O6 0.343532 0.497404 0.068263
O O7 0.490173 0.318906 0.161867
O O8 0.454809 0.545238 0.055846
O O9 0.216154 0.623456 0.790399
O O10 0.277722 0.356690 0.797884
O O11 0.130145 0.377357 0.748275
O O12 0.750000 0.750000 0.500000
O O13 0.814739 0.876411 0.678762
O O14 0.073448 0.234368 0.125334
O O15 0.441294 0.285430 0.414516
#
# Coordination Sequence:
#
# PCOD9278215 Si02
#       7
#     8   8   8   8   8   8   8
#     4  10  20  42  68  89 124 165 211 265 314 380
#     4  12  26  42  62  95 133 168 212 264 308 383
#     4  10  22  39  64 100 128 158 212 270 322 374
#     4  11  24  42  62  91 126 173 219 249 313 384
#     4  11  22  38  67  94 130 163 209 270 316 377
#     4  11  23  42  67  95 129 164 213 262 328 371
#     4  11  20  42  70  89 121 170 209 260 320 372
#
# _framework density 23.272492
#
# number of rings (size 3 to 8) (size 9 to 14) (size 15 to 20)
#    0.000    1.143    5.714    1.286    2.000    1.714 
#    2.571    0.714    0.000    0.000    0.000    0.000 
#    0.000    0.000    0.000    0.000    0.000    0.000 
#
# Total GULP energy -156492.779595 kJ/mol
# GULP energy per Si atom -5589.027843 kJ/mol
# Density = 2.321952 g / cm^3
# Si number density = 23.272492 Si / 1000 Ang^3
#
#
#
# Elastic Constant Matrix: (Units=GPa)
#
#
# Indices 1 2 3 4 5 6 
#
# 1 133.6477 48.2634 5.5903 0.0000 38.7884 0.0000
# 2 48.2634 81.0604 -19.1827 0.0000 -1.9329 0.0000
# 3 5.5903 -19.1827 17.3206 0.0000 2.7726 0.0000
# 4 0.0000 0.0000 0.0000 10.4503 0.0000 -4.3118
# 5 38.7884 -1.9329 2.7726 0.0000 27.9883 0.0000
# 6 0.0000 0.0000 0.0000 -4.3118 0.0000 27.8401
#
#
#
# Elastic Compliance Matrix: (Units=1/GPa)
#
#
# Indices 1 2 3 4 5 6 
#
# 1 0.030386 -0.026889 -0.033073 0.000000 -0.040692 0.000000
# 2 -0.026889 0.040525 0.047907 0.000000 0.035318 0.000000
# 3 -0.033073 0.047907 0.115431 0.000000 0.037709 0.000000
# 4 0.000000 0.000000 0.000000 0.102224 0.000000 0.015832
# 5 -0.040692 0.035318 0.037709 0.000000 0.090827 0.000000
# 6 0.000000 0.000000 0.000000 0.015832 0.000000 0.038371
#
#
# Mechanical properties :
#
#
# Convention : Reuss Voigt Hill
#
# Bulk Modulus (GPa) = 6.16398 33.48563 19.82480
# Shear Modulus (GPa) = 10.08165 26.41292 18.24729
#
# Velocity S-wave (km/s) = 2.08360 3.37254 2.80316
# Velocity P-wave (km/s) = 2.90567 5.43922 4.36051
#
# Compressibility (1/GPa) = 0.16223291
#
# Stress axis : x y z
#
# Youngs Moduli (GPa) = 32.91004 24.67592 8.66321
#
# Poissons Ratio (x) = 0.66350 0.28652
# Poissons Ratio (y) = 0.88491 -0.41503
# Poissons Ratio (z) = 1.08844 -1.18216
#
# Static dielectric constant tensor:
#      x y z
#    x 1.879920 0.000000 -0.010620 
#    y 0.000000 1.981030 0.000000 
#    z -0.010620 0.000000 1.895380 
# 
# From -- ./inp_files/251980.got.cif
#   From: 2010.05.17/outbox.cif.g08.bks.cpg/sg15_126_cif.got.tgz:251980.got - 2010.06.03 18:47:42.
