data_PCOD9278126
_publ_section_title
;
Structure prediction by ZEFSAII (Michael W. Deem and Ramdas Pophale) SiO2 
 PCOD9278126
Probable space group: C 2/C
;
_chemical_formula_sum "Si O2"
_cell_formula_units_Z 44
_cell_length_a 8.659056
_cell_length_b 11.461614
_cell_length_c 16.744357
_cell_angle_alpha 90.000000
_cell_angle_beta 88.729633
_cell_angle_gamma 90.000000
_cell_volume 1661.414678
_symmetry_space_group_name_H-M "C 2/C"
_symmetry_group_IT_number 15
_symmetry_cell_setting 'monoclinic'
loop_
_space_group_symop_operation_xyz
x,y,z
-x,y,1/2-z
-x,-y,-z
x,-y,1/2+z
1/2+x,1/2+y,z
1/2-x,1/2+y,1/2-z
1/2-x,1/2-y,-z
1/2+x,1/2-y,1/2+z
loop_
_atom_site_type_symbol
_atom_site_label
_atom_site_fract_x
_atom_site_fract_y
_atom_site_fract_z
Si Si1 0.453621 0.919075 0.575703
Si Si2 0.019751 0.753857 0.658741
Si Si3 0.449517 0.339938 0.010066
Si Si4 0.000000 0.947607 0.250000
Si Si5 0.223881 0.113089 0.614726
Si Si6 0.762882 0.529562 0.864764
O O1 0.315246 0.989894 0.618471
O O2 0.610451 0.928978 0.625124
O O3 0.500000 0.000000 0.500000
O O4 0.419515 0.790494 0.544593
O O5 0.859155 0.704109 0.626854
O O6 0.000000 0.793104 0.750000
O O7 0.066956 0.837897 0.585162
O O8 0.139456 0.644793 0.661390
O O9 0.623693 0.369221 0.036250
O O10 0.332022 0.425931 0.056604
O O11 0.902857 0.875061 0.315097
O O12 0.865013 0.004137 0.198307
#
# Coordination Sequence:
#
# PCOD9278126 Si02
#       6
#     8   8   8   4   8   8
#     4  11  23  40  72  98 128 177 232 276 340 405
#     4  11  20  37  70  99 134 179 224 276 350 397
#     4  11  23  44  72  98 137 177 230 279 335 409
#     4  10  20  42  66  92 146 180 216 286 346 386
#     4  10  22  41  69  99 132 183 223 276 340 402
#     4  10  22  41  69  99 132 183 223 276 340 402
#
# _framework density 26.483453000000001
#
# number of rings (size 3 to 8) (size 9 to 14) (size 15 to 20)
#    0.000    1.455    5.455    1.091    0.000    0.000 
#    0.000   18.182    4.000   10.909    0.000    0.000 
#    0.000    0.000    0.000    0.000    0.000    0.000 
#
# Total GULP energy -123325.954766 kJ/mol
# GULP energy per Si atom -5605.725217 kJ/mol
# Density = 2.642318 g / cm^3
# Si number density = 26.483453 Si / 1000 Ang^3
#
#
#
# Elastic Constant Matrix: (Units=GPa)
#
#
# Indices 1 2 3 4 5 6 
#
# 1 186.9587 50.4679 69.2796 0.0000 22.5920 0.0000
# 2 50.4679 110.8320 53.0233 0.0000 -1.8073 0.0000
# 3 69.2796 53.0233 174.9172 0.0000 -2.8196 0.0000
# 4 0.0000 0.0000 0.0000 19.1196 0.0000 16.3404
# 5 22.5920 -1.8073 -2.8196 0.0000 46.0401 0.0000
# 6 0.0000 0.0000 0.0000 16.3404 0.0000 43.2751
#
#
#
# Elastic Compliance Matrix: (Units=1/GPa)
#
#
# Indices 1 2 3 4 5 6 
#
# 1 0.007256 -0.002294 -0.002239 0.000000 -0.003788 0.000000
# 2 -0.002294 0.011281 -0.002488 0.000000 0.001416 0.000000
# 3 -0.002239 -0.002488 0.007382 0.000000 0.001453 0.000000
# 4 0.000000 0.000000 0.000000 0.077223 0.000000 -0.029159
# 5 -0.003788 0.001416 0.001453 0.000000 0.023723 0.000000
# 6 0.000000 0.000000 0.000000 -0.029159 0.000000 0.034118
#
#
# Mechanical properties :
#
#
# Convention : Reuss Voigt Hill
#
# Bulk Modulus (GPa) = 84.21332 90.91661 87.56496
# Shear Modulus (GPa) = 27.93551 41.68277 34.80914
#
# Velocity S-wave (km/s) = 3.25134 3.97157 3.62936
# Velocity P-wave (km/s) = 6.77956 7.44548 7.12031
#
# Compressibility (1/GPa) = 0.01187461
#
# Stress axis : x y z
#
# Youngs Moduli (GPa) = 137.82494 88.64620 135.47301
#
# Poissons Ratio (x) = 0.20338 0.30336
# Poissons Ratio (y) = 0.31621 0.33706
# Poissons Ratio (z) = 0.30863 0.22056
#
# Static dielectric constant tensor:
#      x y z
#    x 2.072550 0.000000 0.013090 
#    y 0.000000 2.126530 0.000000 
#    z 0.013090 0.000000 2.100170 
# 
# From -- ./inp_files/134526.got.cif
#   From: 2010.05.17/outbox.cif.g08.bks.cpg/sg15_68_cif.got.tgz:134526.got - 2010.06.03 18:47:42.
