data_PCOD9278856
_publ_section_title
;
Structure prediction by ZEFSAII (Michael W. Deem and Ramdas Pophale) SiO2 
 PCOD9278856
Probable space group: C 2/C
;
_chemical_formula_sum "Si O2"
_cell_formula_units_Z 44
_cell_length_a 12.001318
_cell_length_b 21.834736
_cell_length_c 8.857649
_cell_angle_alpha 90.000000
_cell_angle_beta 120.068298
_cell_angle_gamma 90.000000
_cell_volume 2008.753688
_symmetry_space_group_name_H-M "C 2/C"
_symmetry_group_IT_number 15
_symmetry_cell_setting 'monoclinic'
loop_
_space_group_symop_operation_xyz
x,y,z
-x,y,1/2-z
-x,-y,-z
x,-y,1/2+z
1/2+x,1/2+y,z
1/2-x,1/2+y,1/2-z
1/2-x,1/2-y,-z
1/2+x,1/2-y,1/2+z
loop_
_atom_site_type_symbol
_atom_site_label
_atom_site_fract_x
_atom_site_fract_y
_atom_site_fract_z
Si Si1 0.000000 0.624758 0.250000
Si Si2 0.787031 0.168113 0.434743
Si Si3 0.039501 0.611203 0.614143
Si Si4 0.469392 0.435514 0.051240
Si Si5 0.179236 0.839717 0.192269
Si Si6 0.008240 0.753796 0.925701
O O1 0.868413 0.665343 0.173801
O O2 0.013548 0.588968 0.422339
O O3 0.829581 0.174461 0.637255
O O4 0.878786 0.218391 0.416287
O O5 0.834165 0.098402 0.427085
O O6 0.189577 0.624720 0.737476
O O7 0.984981 0.680564 0.569666
O O8 0.000000 0.581929 0.750000
O O9 0.500000 0.441052 0.250000
O O10 0.569957 0.385555 0.061964
O O11 0.500000 0.500000 0.000000
O O12 0.141919 0.778126 0.083489
O O13 0.000000 0.775461 0.750000
#
# Coordination Sequence:
#
# PCOD9278856 Si02
#       6
#     4   8   8   8   8   8
#     4  10  22  36  58  76 112 162 182 216 290 334
#     4   9  20  37  55  80 112 145 185 232 271 333
#     4  10  23  35  53  80 118 155 186 231 270 329
#     4   9  18  36  60  82 106 135 182 236 283 327
#     4   9  20  37  53  77 115 144 182 234 274 320
#     4  10  21  31  53  82 109 147 190 233 266 316
#
# _framework density 21.904129999999999
#
# number of rings (size 3 to 8) (size 9 to 14) (size 15 to 20)
#    0.000    2.545    0.000    1.636    7.636    5.818 
#    0.000    0.000    2.000    3.273    0.000    0.000 
#    0.000    0.000    0.000    0.000    0.000    0.000 
#
# Total GULP energy -122499.148207 kJ/mol
# GULP energy per Si atom -5568.143100 kJ/mol
# Density = 2.185427 g / cm^3
# Si number density = 21.904130 Si / 1000 Ang^3
#
#
#
# Elastic Constant Matrix: (Units=GPa)
#
#
# Indices 1 2 3 4 5 6 
#
# 1 69.0753 -7.2337 40.9238 0.0000 -6.4153 0.0000
# 2 -7.2337 35.1499 0.5323 0.0000 1.0520 0.0000
# 3 40.9238 0.5323 100.7926 0.0000 -0.6625 0.0000
# 4 0.0000 0.0000 0.0000 36.8451 0.0000 11.1408
# 5 -6.4153 1.0520 -0.6625 0.0000 45.5378 0.0000
# 6 0.0000 0.0000 0.0000 11.1408 0.0000 26.9327
#
#
#
# Elastic Compliance Matrix: (Units=1/GPa)
#
#
# Indices 1 2 3 4 5 6 
#
# 1 0.019956 0.004152 -0.008108 0.000000 0.002598 0.000000
# 2 0.004152 0.029335 -0.001842 0.000000 -0.000120 0.000000
# 3 -0.008108 -0.001842 0.013217 0.000000 -0.000907 0.000000
# 4 0.000000 0.000000 0.000000 0.031021 0.000000 -0.012832
# 5 0.002598 -0.000120 -0.000907 0.000000 0.022315 0.000000
# 6 0.000000 0.000000 0.000000 -0.012832 0.000000 0.042438
#
#
# Mechanical properties :
#
#
# Convention : Reuss Voigt Hill
#
# Bulk Modulus (GPa) = 19.64070 30.38474 25.01272
# Shear Modulus (GPa) = 26.75975 33.24948 30.00461
#
# Velocity S-wave (km/s) = 3.49904 3.90032 3.70512
# Velocity P-wave (km/s) = 5.03096 5.84681 5.45416
#
# Compressibility (1/GPa) = 0.05091468
#
# Stress axis : x y z
#
# Youngs Moduli (GPa) = 50.10943 34.08840 75.66048
#
# Poissons Ratio (x) = -0.14153 0.61342
# Poissons Ratio (y) = -0.20805 0.13933
# Poissons Ratio (z) = 0.40626 0.06277
#
# Static dielectric constant tensor:
#      x y z
#    x 2.002770 0.000000 0.042410 
#    y 0.000000 1.842430 0.000000 
#    z 0.042410 0.000000 1.885600 
# 
# From -- ./inp_files/31818.got.cif
#   From: 2010.05.17/outbox.cif.g08.bks.cpg/sg15_16_cif.got.tgz:31818.got - 2010.06.03 18:47:42.
