data_PCOD9278911
_publ_section_title
;
Structure prediction by ZEFSAII (Michael W. Deem and Ramdas Pophale) SiO2 
 PCOD9278911
Probable space group: C 2/C
;
_chemical_formula_sum "Si O2"
_cell_formula_units_Z 64
_cell_length_a 22.405986
_cell_length_b 12.162083
_cell_length_c 22.789033
_cell_angle_alpha 90.000000
_cell_angle_beta 25.640238
_cell_angle_gamma 90.000000
_cell_volume 2687.224011
_symmetry_space_group_name_H-M "C 2/C"
_symmetry_group_IT_number 15
_symmetry_cell_setting 'monoclinic'
loop_
_space_group_symop_operation_xyz
x,y,z
-x,y,1/2-z
-x,-y,-z
x,-y,1/2+z
1/2+x,1/2+y,z
1/2-x,1/2+y,1/2-z
1/2-x,1/2-y,-z
1/2+x,1/2-y,1/2+z
loop_
_atom_site_type_symbol
_atom_site_label
_atom_site_fract_x
_atom_site_fract_y
_atom_site_fract_z
Si Si1 0.589552 0.589431 0.362286
Si Si2 0.563472 0.073003 0.353016
Si Si3 0.973465 0.137099 0.346151
Si Si4 0.386306 0.044313 0.401495
Si Si5 0.402302 0.380880 0.388767
Si Si6 0.127020 0.890973 0.953843
Si Si7 0.383806 0.110433 0.070992
Si Si8 0.729041 0.186969 0.447952
O O1 0.535352 0.658398 0.356278
O O2 0.477951 0.492449 0.460731
O O3 0.606530 0.659136 0.406786
O O4 0.742284 0.541713 0.211995
O O5 0.573462 0.150034 0.401884
O O6 0.455733 0.097436 0.397286
O O7 0.505655 0.960425 0.433741
O O8 0.713660 0.068572 0.189618
O O9 0.952159 0.007887 0.353929
O O10 0.831618 0.201921 0.472781
O O11 0.107000 0.176484 0.192392
O O12 0.500000 0.035560 0.250000
O O13 0.253080 0.110666 0.497573
O O14 0.337681 0.922846 0.465002
O O15 0.500000 0.333317 0.250000
O O16 0.401767 0.338680 0.456855
O O17 0.322077 0.186090 0.074826
#
# Coordination Sequence:
#
# PCOD9278911 Si02
#       8
#     8   8   8   8   8   8   8   8
#     4   8  16  30  46  65  84 109 147 185 230 267
#     4   9  16  28  46  66  87 110 142 185 230 266
#     4  10  21  33  47  63  88 123 156 191 219 257
#     4  11  21  32  45  68  91 121 155 185 217 263
#     4  11  21  34  45  63  94 125 155 183 218 264
#     4   9  16  28  47  65  85 113 143 183 227 270
#     4   8  16  30  46  64  85 111 143 187 232 264
#     4  10  21  33  46  63  89 122 157 190 220 255
#
# _framework density 23.816399000000001
#
# number of rings (size 3 to 8) (size 9 to 14) (size 15 to 20)
#    0.000    2.500    2.500    0.000    3.500    2.000 
#    0.000    0.000    0.000    0.000    0.000    0.000 
#    0.000    2.000    0.000    0.125    0.000    0.000 
#
# Total GULP energy -178323.491726 kJ/mol
# GULP energy per Si atom -5572.609116 kJ/mol
# Density = 2.376219 g / cm^3
# Si number density = 23.816399 Si / 1000 Ang^3
#
#
#
# Elastic Constant Matrix: (Units=GPa)
#
#
# Indices 1 2 3 4 5 6 
#
# 1 195.9009 -2.3670 48.8013 0.0001 11.8265 0.0000
# 2 -2.3670 29.6431 23.3074 0.0005 -2.4525 -0.0002
# 3 48.8013 23.3074 152.2023 0.0005 -4.1471 -0.0001
# 4 0.0001 0.0005 0.0005 10.7383 -0.0001 2.3671
# 5 11.8265 -2.4525 -4.1471 -0.0001 49.0946 0.0000
# 6 0.0000 -0.0002 -0.0001 2.3671 0.0000 9.2495
#
#
#
# Elastic Compliance Matrix: (Units=1/GPa)
#
#
# Indices 1 2 3 4 5 6 
#
# 1 0.005768 0.002074 -0.002207 0.000000 -0.001472 0.000000
# 2 0.002074 0.039198 -0.006643 -0.000002 0.000897 0.000001
# 3 -0.002207 -0.006643 0.008320 0.000000 0.000903 0.000000
# 4 0.000000 -0.000002 0.000000 0.098692 0.000000 -0.025257
# 5 -0.001472 0.000897 0.000903 0.000000 0.020845 0.000000
# 6 0.000000 0.000001 0.000000 -0.025257 0.000000 0.114577
#
#
# Mechanical properties :
#
#
# Convention : Reuss Voigt Hill
#
# Bulk Modulus (GPa) = 25.16753 57.46998 41.31876
# Shear Modulus (GPa) = 15.91357 34.35013 25.13185
#
# Velocity S-wave (km/s) = 2.58772 3.80187 3.25196
# Velocity P-wave (km/s) = 4.41799 6.59205 5.61131
#
# Compressibility (1/GPa) = 0.03973373
#
# Stress axis : x y z
#
# Youngs Moduli (GPa) = 173.35688 25.51164 120.19456
#
# Poissons Ratio (x) = -0.05292 0.26531
# Poissons Ratio (y) = -0.35960 0.79847
# Poissons Ratio (z) = 0.38266 0.16948
#
# Static dielectric constant tensor:
#      x y z
#    x 2.111940 0.000000 0.103750 
#    y 0.000000 1.970100 0.000000 
#    z 0.103750 0.000000 1.938580 
# 
# From -- ./inp_files/282220.got.cif
#   From: 2010.05.17/outbox.cif.g08.bks.cpg/sg15_142_cif.got.tgz:282220.got - 2010.06.03 18:47:42.
