data_PCOD9278073
_publ_section_title
;
Structure prediction by ZEFSAII (Michael W. Deem and Ramdas Pophale) SiO2 
 PCOD9278073
Probable space group: C 2/C
;
_chemical_formula_sum "Si O2"
_cell_formula_units_Z 52
_cell_length_a 20.482815
_cell_length_b 12.606685
_cell_length_c 9.676272
_cell_angle_alpha 90.000000
_cell_angle_beta 68.327472
_cell_angle_gamma 90.000000
_cell_volume 2321.983371
_symmetry_space_group_name_H-M "C 2/C"
_symmetry_group_IT_number 15
_symmetry_cell_setting 'monoclinic'
loop_
_space_group_symop_operation_xyz
x,y,z
-x,y,1/2-z
-x,-y,-z
x,-y,1/2+z
1/2+x,1/2+y,z
1/2-x,1/2+y,1/2-z
1/2-x,1/2-y,-z
1/2+x,1/2-y,1/2+z
loop_
_atom_site_type_symbol
_atom_site_label
_atom_site_fract_x
_atom_site_fract_y
_atom_site_fract_z
Si Si1 0.865392 0.841404 0.849587
Si Si2 0.271136 0.902746 0.052310
Si Si3 0.500000 0.214428 0.750000
Si Si4 0.696720 0.068222 0.268093
Si Si5 0.161768 0.200161 0.839292
Si Si6 0.880029 0.356995 0.165675
Si Si7 0.050734 0.963959 0.337423
O O1 0.938236 0.789598 0.852460
O O2 0.843529 0.747409 0.761943
O O3 0.892637 0.945357 0.750019
O O4 0.819595 0.847144 0.023638
O O5 0.219464 0.830152 0.179960
O O6 0.350905 0.864791 0.031204
O O7 0.264542 0.018104 0.130282
O O8 0.257571 0.905152 0.901678
O O9 0.539785 0.153888 0.843906
O O10 0.657363 0.173240 0.346942
O O11 0.648487 0.969465 0.256165
O O12 0.092929 0.140231 0.842855
O O13 0.000000 0.944872 0.250000
O O14 0.000000 0.000000 0.500000
#
# Coordination Sequence:
#
# PCOD9278073 Si02
#       7
#     8   8   4   8   8   8   8
#     4  10  20  42  65  96 127 175 221 263 327 395
#     4  10  24  42  66  95 133 171 215 276 322 397
#     4   8  16  40  66  88 124 170 208 264 314 378
#     4  10  23  46  60 104 131 160 233 265 327 400
#     4  12  25  40  70  94 137 173 211 287 319 386
#     4   8  20  39  70  88 128 170 210 268 322 390
#     4  12  24  43  65  97 135 172 226 264 324 393
#
# _framework density 22.394646999999999
#
# number of rings (size 3 to 8) (size 9 to 14) (size 15 to 20)
#    1.846    0.000    2.308    1.385    2.154    3.077 
#    1.385    1.538    0.000    0.000    0.000    0.000 
#    0.000    0.000    0.000    0.000    0.000    0.000 
#
# Total GULP energy -144846.217997 kJ/mol
# GULP energy per Si atom -5571.008385 kJ/mol
# Density = 2.234368 g / cm^3
# Si number density = 22.394647 Si / 1000 Ang^3
#
#
#
# Elastic Constant Matrix: (Units=GPa)
#
#
# Indices 1 2 3 4 5 6 
#
# 1 81.7606 19.8483 11.0757 0.0000 7.7779 0.0000
# 2 19.8483 141.9122 25.3523 0.0000 5.7977 0.0000
# 3 11.0757 25.3523 97.4461 0.0000 18.0966 0.0000
# 4 0.0000 0.0000 0.0000 24.7342 0.0000 0.9189
# 5 7.7779 5.7977 18.0966 0.0000 27.6023 0.0000
# 6 0.0000 0.0000 0.0000 0.9189 0.0000 31.6359
#
#
#
# Elastic Compliance Matrix: (Units=1/GPa)
#
#
# Indices 1 2 3 4 5 6 
#
# 1 0.012972 -0.001602 -0.000502 0.000000 -0.002989 0.000000
# 2 -0.001602 0.007591 -0.001800 0.000000 0.000037 0.000000
# 3 -0.000502 -0.001800 0.012173 0.000000 -0.007461 0.000000
# 4 0.000000 0.000000 0.000000 0.040474 0.000000 -0.001176
# 5 -0.002989 0.000037 -0.007461 0.000000 0.041955 0.000000
# 6 0.000000 0.000000 0.000000 -0.001176 0.000000 0.031644
#
#
# Mechanical properties :
#
#
# Convention : Reuss Voigt Hill
#
# Bulk Modulus (GPa) = 40.11687 48.18572 44.15129
# Shear Modulus (GPa) = 30.68867 34.45063 32.56965
#
# Velocity S-wave (km/s) = 3.70585 3.92643 3.81773
# Velocity P-wave (km/s) = 6.02193 6.48992 6.26030
#
# Compressibility (1/GPa) = 0.02492717
#
# Stress axis : x y z
#
# Youngs Moduli (GPa) = 77.08746 131.73978 82.14894
#
# Poissons Ratio (x) = 0.21111 0.04127
# Poissons Ratio (y) = 0.12353 0.14784
# Poissons Ratio (z) = 0.03873 0.23708
#
# Static dielectric constant tensor:
#      x y z
#    x 1.915990 0.000000 -0.049120 
#    y 0.000000 1.852600 0.000000 
#    z -0.049120 0.000000 1.879030 
# 
# From -- ./inp_files/61428.got.cif
#   From: 2010.05.17/outbox.cif.g08.bks.cpg/sg15_31_cif.got.tgz:61428.got - 2010.06.03 18:47:42.
