data_PCOD9278486
_publ_section_title
;
Structure prediction by ZEFSAII (Michael W. Deem and Ramdas Pophale) SiO2 
 PCOD9278486
Probable space group: C 2/C
;
_chemical_formula_sum "Si O2"
_cell_formula_units_Z 56
_cell_length_a 28.951368
_cell_length_b 8.332924
_cell_length_c 11.877045
_cell_angle_alpha 90.000000
_cell_angle_beta 55.021944
_cell_angle_gamma 90.000000
_cell_volume 2347.771638
_symmetry_space_group_name_H-M "C 2/C"
_symmetry_group_IT_number 15
_symmetry_cell_setting 'monoclinic'
loop_
_space_group_symop_operation_xyz
x,y,z
-x,y,1/2-z
-x,-y,-z
x,-y,1/2+z
1/2+x,1/2+y,z
1/2-x,1/2+y,1/2-z
1/2-x,1/2-y,-z
1/2+x,1/2-y,1/2+z
loop_
_atom_site_type_symbol
_atom_site_label
_atom_site_fract_x
_atom_site_fract_y
_atom_site_fract_z
Si Si1 0.832413 0.335914 0.352188
Si Si2 0.307761 0.745955 0.147025
Si Si3 0.711330 0.170829 0.150596
Si Si4 0.641590 0.435559 0.536068
Si Si5 0.449307 0.350307 0.247240
Si Si6 0.397625 0.032806 0.426315
Si Si7 0.088915 0.732244 0.414855
O O1 0.835027 0.244019 0.231046
O O2 0.791896 0.483162 0.375637
O O3 0.820100 0.201078 0.461586
O O4 0.887351 0.419377 0.332393
O O5 0.240919 0.734645 0.223611
O O6 0.325378 0.585902 0.057913
O O7 0.335619 0.901824 0.049639
O O8 0.645647 0.213868 0.258785
O O9 0.750000 0.250000 0.000000
O O10 0.598817 0.513979 0.685524
O O11 0.604877 0.360192 0.487334
O O12 0.500000 0.417997 0.250000
O O13 0.430742 0.191394 0.344386
O O14 0.458039 0.289594 0.107590
O O15 0.420615 0.930682 0.499697
#
# Coordination Sequence:
#
# PCOD9278486 Si02
#       7
#     8   8   8   8   8   8   8
#     4  11  22  44  65  92 137 179 220 272 325 391
#     4  11  22  39  61  96 135 178 224 269 316 386
#     4  12  23  39  66  97 136 177 230 275 317 393
#     4  10  25  43  66  94 133 181 220 272 346 399
#     4  11  23  44  70 100 131 165 225 293 343 406
#     4  10  20  43  67  94 133 182 221 273 336 397
#     4  11  23  43  64  94 137 178 220 276 338 396
#
# _framework density 23.852405000000001
#
# number of rings (size 3 to 8) (size 9 to 14) (size 15 to 20)
#    0.000    1.143    4.286    1.714    2.000    1.714 
#    2.571    2.857    0.000    0.000    0.000    0.000 
#    0.000    0.000    0.000    0.000    0.000    0.000 
#
# Total GULP energy -156319.172010 kJ/mol
# GULP energy per Si atom -5582.827572 kJ/mol
# Density = 2.379812 g / cm^3
# Si number density = 23.852405 Si / 1000 Ang^3
#
#
#
# Elastic Constant Matrix: (Units=GPa)
#
#
# Indices 1 2 3 4 5 6 
#
# 1 65.6659 10.3116 22.2257 0.0000 36.1968 0.0000
# 2 10.3116 93.2284 20.0996 0.0000 15.5081 0.0000
# 3 22.2257 20.0996 66.5156 0.0000 36.3869 0.0000
# 4 0.0000 0.0000 0.0000 30.9371 0.0000 17.1059
# 5 36.1968 15.5081 36.3869 0.0000 35.2347 0.0000
# 6 0.0000 0.0000 0.0000 17.1059 0.0000 30.9184
#
#
#
# Elastic Compliance Matrix: (Units=1/GPa)
#
#
# Indices 1 2 3 4 5 6 
#
# 1 0.049012 0.001988 0.025386 0.000000 -0.077442 0.000000
# 2 0.001988 0.011732 -0.000615 0.000000 -0.006571 0.000000
# 3 0.025386 -0.000615 0.047937 0.000000 -0.075313 0.000000
# 4 0.000000 0.000000 0.000000 0.046570 0.000000 -0.025765
# 5 -0.077442 -0.006571 -0.075313 0.000000 0.188605 0.000000
# 6 0.000000 0.000000 0.000000 -0.025765 0.000000 0.046598
#
#
# Mechanical properties :
#
#
# Convention : Reuss Voigt Hill
#
# Bulk Modulus (GPa) = 6.16525 36.74262 21.45393
# Shear Modulus (GPa) = 12.78767 30.93625 21.86196
#
# Velocity S-wave (km/s) = 2.31793 3.60528 3.03074
# Velocity P-wave (km/s) = 3.12316 5.72436 4.61099
#
# Compressibility (1/GPa) = 0.16219933
#
# Stress axis : x y z
#
# Youngs Moduli (GPa) = 20.40317 85.23648 20.86082
#
# Poissons Ratio (x) = -0.16944 -0.52958
# Poissons Ratio (y) = -0.04056 0.01283
# Poissons Ratio (z) = -0.51796 0.05241
#
# Static dielectric constant tensor:
#      x y z
#    x 1.999360 0.000000 0.013420 
#    y 0.000000 1.904880 0.000000 
#    z 0.013420 0.000000 1.974410 
# 
# From -- ./inp_files/125537.got.cif
#   From: 2010.05.17/outbox.cif.g08.bks.cpg/sg15_63_cif.got.tgz:125537.got - 2010.06.03 18:47:42.
