data_PCOD9278106
_publ_section_title
;
Structure prediction by ZEFSAII (Michael W. Deem and Ramdas Pophale) SiO2 
 PCOD9278106
Probable space group: C 2/C
;
_chemical_formula_sum "Si O2"
_cell_formula_units_Z 36
_cell_length_a 7.052394
_cell_length_b 13.240353
_cell_length_c 15.619767
_cell_angle_alpha 90.000000
_cell_angle_beta 110.730094
_cell_angle_gamma 90.000000
_cell_volume 1364.087493
_symmetry_space_group_name_H-M "C 2/C"
_symmetry_group_IT_number 15
_symmetry_cell_setting 'monoclinic'
loop_
_space_group_symop_operation_xyz
x,y,z
-x,y,1/2-z
-x,-y,-z
x,-y,1/2+z
1/2+x,1/2+y,z
1/2-x,1/2+y,1/2-z
1/2-x,1/2-y,-z
1/2+x,1/2-y,1/2+z
loop_
_atom_site_type_symbol
_atom_site_label
_atom_site_fract_x
_atom_site_fract_y
_atom_site_fract_z
Si Si1 0.483945 0.737359 0.555882
Si Si2 0.343552 0.559527 0.296888
Si Si3 0.500000 0.500000 0.500000
Si Si4 0.000000 0.278957 0.750000
Si Si5 0.000000 0.600439 0.750000
Si Si6 0.321042 0.886624 0.044169
O O1 0.250000 0.750000 0.500000
O O2 0.524665 0.725505 0.662787
O O3 0.604207 0.826615 0.525774
O O4 0.576364 0.637617 0.523793
O O5 0.500000 0.590767 0.250000
O O6 0.480524 0.518199 0.393868
O O7 0.185897 0.470282 0.249413
O O8 0.198938 0.653072 0.294635
O O9 0.223458 0.504029 0.464156
O O10 0.930801 0.650563 0.648789
#
# Coordination Sequence:
#
# PCOD9278106 Si02
#       6
#     8   8   4   4   4   8
#     4  11  25  42  64  95 129 176 221 265 330 396
#     4  10  21  39  64  93 124 166 208 267 327 384
#     4  10  20  42  66  90 126 166 218 268 332 384
#     4  11  24  40  62  94 127 168 220 260 325 398
#     4   9  22  38  62  94 123 160 212 262 325 386
#     4  10  23  43  64  94 130 169 216 276 326 392
#
# _framework density 26.391268
#
# number of rings (size 3 to 8) (size 9 to 14) (size 15 to 20)
#    0.000    1.778    0.000    2.667    3.111    7.111 
#    2.000   10.000    0.000    0.000    0.000    0.000 
#    0.000    0.000    0.000    0.000    0.000    0.000 
#
# Total GULP energy -100423.935887 kJ/mol
# GULP energy per Si atom -5579.107549 kJ/mol
# Density = 2.633120 g / cm^3
# Si number density = 26.391268 Si / 1000 Ang^3
#
#
#
# Elastic Constant Matrix: (Units=GPa)
#
#
# Indices 1 2 3 4 5 6 
#
# 1 130.5692 41.3477 59.4206 0.0000 -16.8057 0.0000
# 2 41.3477 83.3754 39.5810 0.0000 -19.3994 0.0000
# 3 59.4206 39.5810 148.9375 0.0000 7.3863 0.0000
# 4 0.0000 0.0000 0.0000 32.6517 0.0000 4.1236
# 5 -16.8057 -19.3994 7.3863 0.0000 47.0015 0.0000
# 6 0.0000 0.0000 0.0000 4.1236 0.0000 36.2281
#
#
#
# Elastic Compliance Matrix: (Units=1/GPa)
#
#
# Indices 1 2 3 4 5 6 
#
# 1 0.010618 -0.002779 -0.003658 0.000000 0.003224 0.000000
# 2 -0.002779 0.016583 -0.003616 0.000000 0.006419 0.000000
# 3 -0.003658 -0.003616 0.009346 0.000000 -0.004269 0.000000
# 4 0.000000 0.000000 0.000000 0.031073 0.000000 -0.003537
# 5 0.003224 0.006419 -0.004269 0.000000 0.025749 0.000000
# 6 0.000000 0.000000 0.000000 -0.003537 0.000000 0.028005
#
#
# Mechanical properties :
#
#
# Convention : Reuss Voigt Hill
#
# Bulk Modulus (GPa) = 60.82495 71.50895 66.16695
# Shear Modulus (GPa) = 34.02245 38.01178 36.01711
#
# Velocity S-wave (km/s) = 3.59438 3.79927 3.69824
# Velocity P-wave (km/s) = 6.35008 6.81179 6.58498
#
# Compressibility (1/GPa) = 0.01644062
#
# Stress axis : x y z
#
# Youngs Moduli (GPa) = 94.17550 60.30420 106.99401
#
# Poissons Ratio (x) = 0.16760 0.39135
# Poissons Ratio (y) = 0.26174 0.38694
# Poissons Ratio (z) = 0.34446 0.21809
#
# Static dielectric constant tensor:
#      x y z
#    x 2.285390 0.000000 0.083830 
#    y 0.000000 2.287380 0.000000 
#    z 0.083830 0.000000 2.237210 
# 
# From -- ./inp_files/128758.got.cif
#   From: 2010.05.17/outbox.cif.g08.bks.cpg/sg15_65_cif.got.tgz:128758.got - 2010.06.03 18:47:42.
