data_PCOD9278561
_publ_section_title
;
Structure prediction by ZEFSAII (Michael W. Deem and Ramdas Pophale) SiO2 
 PCOD9278561
Probable space group: C 2/C
;
_chemical_formula_sum "Si O2"
_cell_formula_units_Z 40
_cell_length_a 23.119136
_cell_length_b 7.234299
_cell_length_c 21.047454
_cell_angle_alpha 90.000000
_cell_angle_beta 156.155792
_cell_angle_gamma 90.000000
_cell_volume 1423.045783
_symmetry_space_group_name_H-M "C 2/C"
_symmetry_group_IT_number 15
_symmetry_cell_setting 'monoclinic'
loop_
_space_group_symop_operation_xyz
x,y,z
-x,y,1/2-z
-x,-y,-z
x,-y,1/2+z
1/2+x,1/2+y,z
1/2-x,1/2+y,1/2-z
1/2-x,1/2-y,-z
1/2+x,1/2-y,1/2+z
loop_
_atom_site_type_symbol
_atom_site_label
_atom_site_fract_x
_atom_site_fract_y
_atom_site_fract_z
Si Si1 0.152908 0.963482 0.883323
Si Si2 0.603746 0.126428 0.294542
Si Si3 0.798794 0.804423 0.691072
Si Si4 0.581779 0.485305 0.015854
Si Si5 0.931827 0.420844 0.497409
O O1 0.121573 0.152220 0.811392
O O2 0.000000 0.888161 0.750000
O O3 0.233822 0.827663 0.916828
O O4 0.243994 0.043102 0.033141
O O5 0.500000 0.088417 0.250000
O O6 0.535705 0.048363 0.162414
O O7 0.966375 0.855429 0.863229
O O8 0.714460 0.970312 0.640453
O O9 0.772221 0.128667 0.845850
O O10 0.604143 0.703600 0.028318
O O11 0.500000 0.500000 0.000000
O O12 0.000000 0.500000 0.500000
#
# Coordination Sequence:
#
# PCOD9278561 Si02
#       5
#     8   8   8   8   8
#     4  10  22  45  82 123 171 231 296 363 452 526
#     4  10  20  43  85 125 169 233 296 369 449 534
#     4  12  28  55  82 127 174 233 290 376 444 535
#     4  12  30  53  83 127 179 230 299 362 455 547
#     4  12  26  51  92 125 174 234 297 372 457 540
#
# _framework density 28.108723000000001
#
# number of rings (size 3 to 8) (size 9 to 14) (size 15 to 20)
#    0.000    0.800    6.000    0.000    2.800    1.600 
#    7.200    1.000    4.400    1.200    0.000    0.000 
#    0.000    0.000    0.000    0.000    0.000    0.000 
#
# Total GULP energy -112147.705314 kJ/mol
# GULP energy per Si atom -5607.385266 kJ/mol
# Density = 2.804475 g / cm^3
# Si number density = 28.108723 Si / 1000 Ang^3
#
#
#
# Elastic Constant Matrix: (Units=GPa)
#
#
# Indices 1 2 3 4 5 6 
#
# 1 171.1928 68.4895 39.3614 0.0000 0.3752 0.0000
# 2 68.4895 223.1800 50.5726 0.0000 19.3662 0.0000
# 3 39.3614 50.5726 130.6357 0.0000 10.0836 0.0000
# 4 0.0000 0.0000 0.0000 21.2371 0.0000 7.2964
# 5 0.3752 19.3662 10.0836 0.0000 61.2587 0.0000
# 6 0.0000 0.0000 0.0000 7.2964 0.0000 57.5885
#
#
#
# Elastic Compliance Matrix: (Units=1/GPa)
#
#
# Indices 1 2 3 4 5 6 
#
# 1 0.006913 -0.001868 -0.001420 0.000000 0.000782 0.000000
# 2 -0.001868 0.005513 -0.001456 0.000000 -0.001492 0.000000
# 3 -0.001420 -0.001456 0.008721 0.000000 -0.000966 0.000000
# 4 0.000000 0.000000 0.000000 0.049230 0.000000 -0.006237
# 5 0.000782 -0.001492 -0.000966 0.000000 0.016950 0.000000
# 6 0.000000 0.000000 0.000000 -0.006237 0.000000 0.018155
#
#
# Mechanical properties :
#
#
# Convention : Reuss Voigt Hill
#
# Bulk Modulus (GPa) = 85.77027 93.53949 89.65488
# Shear Modulus (GPa) = 42.06683 52.45588 47.26135
#
# Velocity S-wave (km/s) = 3.87276 4.32461 4.10491
# Velocity P-wave (km/s) = 7.11180 7.63455 7.37781
#
# Compressibility (1/GPa) = 0.01165905
#
# Stress axis : x y z
#
# Youngs Moduli (GPa) = 144.64662 181.37979 114.66184
#
# Poissons Ratio (x) = 0.33874 0.16287
# Poissons Ratio (y) = 0.27014 0.16700
# Poissons Ratio (z) = 0.20546 0.26418
#
# Static dielectric constant tensor:
#      x y z
#    x 2.227920 0.000000 -0.179870 
#    y 0.000000 2.418250 0.000000 
#    z -0.179870 0.000000 2.349640 
# 
# From -- ./inp_files/103319.got.cif
#   From: 2010.05.17/outbox.cif.g08.bks.cpg/sg15_52_cif.got.tgz:103319.got - 2010.06.03 18:47:42.
