data_PCOD9278401
_publ_section_title
;
Structure prediction by ZEFSAII (Michael W. Deem and Ramdas Pophale) SiO2 
 PCOD9278401
Probable space group: C 2/C
;
_chemical_formula_sum "Si O2"
_cell_formula_units_Z 64
_cell_length_a 24.672890
_cell_length_b 7.621300
_cell_length_c 19.464842
_cell_angle_alpha 90.000000
_cell_angle_beta 130.554758
_cell_angle_gamma 90.000000
_cell_volume 2780.933741
_symmetry_space_group_name_H-M "C 2/C"
_symmetry_group_IT_number 15
_symmetry_cell_setting 'monoclinic'
loop_
_space_group_symop_operation_xyz
x,y,z
-x,y,1/2-z
-x,-y,-z
x,-y,1/2+z
1/2+x,1/2+y,z
1/2-x,1/2+y,1/2-z
1/2-x,1/2-y,-z
1/2+x,1/2-y,1/2+z
loop_
_atom_site_type_symbol
_atom_site_label
_atom_site_fract_x
_atom_site_fract_y
_atom_site_fract_z
Si Si1 0.964146 0.811218 0.297177
Si Si2 0.298898 0.497119 0.487708
Si Si3 0.669631 0.702282 0.111125
Si Si4 0.366182 0.988556 0.197350
Si Si5 0.125993 0.367220 0.438069
Si Si6 0.763776 0.924009 0.100930
Si Si7 0.626042 0.365724 0.725207
Si Si8 0.043906 0.443303 0.970872
O O1 0.894687 0.683050 0.235368
O O2 0.937486 0.998475 0.306618
O O3 0.000000 0.829669 0.250000
O O4 0.012004 0.700115 0.390950
O O5 0.344757 0.570239 0.463002
O O6 0.218079 0.478666 0.391987
O O7 0.333815 0.314709 0.536437
O O8 0.300442 0.617585 0.557342
O O9 0.658241 0.614496 0.175187
O O10 0.743930 0.788744 0.145563
O O11 0.613140 0.856027 0.061165
O O12 0.404722 0.926800 0.159554
O O13 0.385246 0.841271 0.269366
O O14 0.188045 0.501130 0.512731
O O15 0.065961 0.385751 0.445569
O O16 0.810543 0.075870 0.172045
O O17 0.000000 0.500000 0.000000
#
# Coordination Sequence:
#
# PCOD9278401 Si02
#       8
#     8   8   8   8   8   8   8   8
#     4  12  28  47  72 101 141 194 244 293 342 425
#     4  11  21  42  75 106 134 182 235 292 360 429
#     4  11  27  42  69 103 141 184 227 297 355 419
#     4  11  22  47  71 105 143 178 233 301 357 411
#     4  10  20  42  76  99 135 185 231 290 356 415
#     4  10  21  42  70 101 141 177 228 284 362 421
#     4  12  26  44  69 111 141 182 237 296 356 422
#     4  11  26  50  69  94 143 195 237 284 360 421
#
# _framework density 23.013853999999998
#
# number of rings (size 3 to 8) (size 9 to 14) (size 15 to 20)
#    0.000    1.000    3.750    2.625    5.250    1.000 
#    6.750    0.000    0.000    0.000    0.000    0.000 
#    0.000    0.000    0.000    0.000    0.000    0.000 
#
# Total GULP energy -178565.630759 kJ/mol
# GULP energy per Si atom -5580.175961 kJ/mol
# Density = 2.296147 g / cm^3
# Si number density = 23.013854 Si / 1000 Ang^3
#
#
#
# Elastic Constant Matrix: (Units=GPa)
#
#
# Indices 1 2 3 4 5 6 
#
# 1 156.1301 47.7615 53.1605 0.0000 -45.7323 0.0000
# 2 47.7615 90.9491 15.3267 0.0000 -10.7655 0.0000
# 3 53.1605 15.3267 72.9816 0.0000 -25.8869 0.0000
# 4 0.0000 0.0000 0.0000 31.1949 0.0000 -3.9531
# 5 -45.7323 -10.7655 -25.8869 0.0000 48.8144 0.0000
# 6 0.0000 0.0000 0.0000 -3.9531 0.0000 38.1612
#
#
#
# Elastic Compliance Matrix: (Units=1/GPa)
#
#
# Indices 1 2 3 4 5 6 
#
# 1 0.011537 -0.004373 -0.004919 0.000000 0.007236 0.000000
# 2 -0.004373 0.013150 -0.000001 0.000000 -0.001197 0.000000
# 3 -0.004919 -0.000001 0.019276 0.000000 0.005614 0.000000
# 4 0.000000 0.000000 0.000000 0.032483 0.000000 0.003365
# 5 0.007236 -0.001197 0.005614 0.000000 0.029978 0.000000
# 6 0.000000 0.000000 0.000000 0.003365 0.000000 0.026553
#
#
# Mechanical properties :
#
#
# Convention : Reuss Voigt Hill
#
# Bulk Modulus (GPa) = 39.40424 61.39535 50.39980
# Shear Modulus (GPa) = 31.24570 37.22157 34.23364
#
# Velocity S-wave (km/s) = 3.68868 4.02600 3.86103
# Velocity P-wave (km/s) = 5.94146 6.95320 6.46715
#
# Compressibility (1/GPa) = 0.02537798
#
# Stress axis : x y z
#
# Youngs Moduli (GPa) = 86.67900 76.04486 51.87669
#
# Poissons Ratio (x) = 0.33256 0.25516
# Poissons Ratio (y) = 0.37906 0.00005
# Poissons Ratio (z) = 0.42634 0.00007
#
# Static dielectric constant tensor:
#      x y z
#    x 1.959790 0.000000 0.005830 
#    y 0.000000 1.931810 0.000000 
#    z 0.005830 0.000000 1.882470 
# 
# From -- ./inp_files/254857.got.cif
#   From: 2010.05.17/outbox.cif.g08.bks.cpg/sg15_128_cif.got.tgz:254857.got - 2010.06.03 18:47:42.
