data_PCOD9278067
_publ_section_title
;
Structure prediction by ZEFSAII (Michael W. Deem and Ramdas Pophale) SiO2 
 PCOD9278067
Probable space group: C 2/C
;
_chemical_formula_sum "Si O2"
_cell_formula_units_Z 56
_cell_length_a 18.734446
_cell_length_b 8.515213
_cell_length_c 13.713443
_cell_angle_alpha 90.000000
_cell_angle_beta 78.238664
_cell_angle_gamma 90.000000
_cell_volume 2141.745478
_symmetry_space_group_name_H-M "C 2/C"
_symmetry_group_IT_number 15
_symmetry_cell_setting 'monoclinic'
loop_
_space_group_symop_operation_xyz
x,y,z
-x,y,1/2-z
-x,-y,-z
x,-y,1/2+z
1/2+x,1/2+y,z
1/2-x,1/2+y,1/2-z
1/2-x,1/2-y,-z
1/2+x,1/2-y,1/2+z
loop_
_atom_site_type_symbol
_atom_site_label
_atom_site_fract_x
_atom_site_fract_y
_atom_site_fract_z
Si Si1 0.000000 0.290647 0.750000
Si Si2 0.295673 0.697272 0.623192
Si Si3 0.321751 0.775672 0.046101
Si Si4 0.489345 0.947145 0.115369
Si Si5 0.101080 0.054059 0.609961
Si Si6 0.352991 0.113446 0.947102
Si Si7 0.500000 0.304760 0.750000
Si Si8 0.761210 0.021192 0.803130
O O1 0.036132 0.399026 0.822158
O O2 0.936054 0.195999 0.819760
O O3 0.353513 0.742447 0.524135
O O4 0.219678 0.643853 0.593951
O O5 0.308601 0.559591 0.695156
O O6 0.284226 0.862529 0.681720
O O7 0.290155 0.827636 0.159994
O O8 0.250000 0.750000 0.000000
O O9 0.379159 0.639025 0.000019
O O10 0.348663 0.946501 0.002680
O O11 0.571698 0.905821 0.128183
O O12 0.454390 0.795616 0.178447
O O13 0.500000 0.000000 0.000000
O O14 0.180241 0.006614 0.627353
O O15 0.048091 0.916012 0.663692
#
# Coordination Sequence:
#
# PCOD9278067 Si02
#       8
#     4   8   8   8   8   8   4   8
#     4  10  22  40  68  92 124 176 222 268 338 382
#     4  10  23  39  64  98 132 171 217 270 341 394
#     4   9  19  37  65  94 129 170 212 261 333 395
#     4  11  24  44  67  96 126 178 228 273 331 397
#     4  10  20  42  65  94 136 172 214 278 331 389
#     4  10  21  43  64  91 134 175 215 274 329 400
#     4  10  24  46  68  98 136 172 226 282 330 390
#     4  10  22  38  61 102 129 172 218 267 332 402
#
# _framework density 26.146899999999999
#
# number of rings (size 3 to 8) (size 9 to 14) (size 15 to 20)
#    0.000    2.000    1.429    0.857    6.000    1.143 
#   12.857    2.857    0.000    0.000    0.000    0.000 
#    0.000    0.000    0.000    0.000    0.000    0.000 
#
# Total GULP energy -156027.910343 kJ/mol
# GULP energy per Si atom -5572.425369 kJ/mol
# Density = 2.608739 g / cm^3
# Si number density = 26.146900 Si / 1000 Ang^3
#
#
#
# Elastic Constant Matrix: (Units=GPa)
#
#
# Indices 1 2 3 4 5 6 
#
# 1 54.3590 0.6584 0.5439 0.0000 -17.2623 0.0000
# 2 0.6584 125.0388 49.8619 0.0000 2.7218 0.0000
# 3 0.5439 49.8619 142.6548 0.0000 -0.2746 0.0000
# 4 0.0000 0.0000 0.0000 50.7944 0.0000 -4.6664
# 5 -17.2623 2.7218 -0.2746 0.0000 32.2377 0.0000
# 6 0.0000 0.0000 0.0000 -4.6664 0.0000 18.8899
#
#
#
# Elastic Compliance Matrix: (Units=1/GPa)
#
#
# Indices 1 2 3 4 5 6 
#
# 1 0.022184 -0.000409 0.000081 0.000000 0.011914 0.000000
# 2 -0.000409 0.009322 -0.003259 0.000000 -0.001034 0.000000
# 3 0.000081 -0.003259 0.008149 0.000000 0.000388 0.000000
# 4 0.000000 0.000000 0.000000 0.020144 0.000000 0.004976
# 5 0.011914 -0.001034 0.000388 0.000000 0.037490 0.000000
# 6 0.000000 0.000000 0.000000 0.004976 0.000000 0.054168
#
#
# Mechanical properties :
#
#
# Convention : Reuss Voigt Hill
#
# Bulk Modulus (GPa) = 30.78560 47.13123 38.95842
# Shear Modulus (GPa) = 29.50622 38.45029 33.97826
#
# Velocity S-wave (km/s) = 3.36293 3.83893 3.60879
# Velocity P-wave (km/s) = 5.18447 6.14122 5.68301
#
# Compressibility (1/GPa) = 0.03248272
#
# Stress axis : x y z
#
# Youngs Moduli (GPa) = 45.07812 107.27767 122.70936
#
# Poissons Ratio (x) = 0.04382 -0.00996
# Poissons Ratio (y) = 0.01841 0.39986
# Poissons Ratio (z) = -0.00366 0.34957
#
# Static dielectric constant tensor:
#      x y z
#    x 1.956870 0.000000 -0.063190 
#    y 0.000000 2.110210 0.000000 
#    z -0.063190 0.000000 2.164230 
# 
# From -- ./inp_files/172316.got.cif
#   From: 2010.05.17/outbox.cif.g08.bks.cpg/sg15_87_cif.got.tgz:172316.got - 2010.06.03 18:47:42.
