data_PCOD9278344
_publ_section_title
;
Structure prediction by ZEFSAII (Michael W. Deem and Ramdas Pophale) SiO2 
 PCOD9278344
Probable space group: C 2/C
;
_chemical_formula_sum "Si O2"
_cell_formula_units_Z 48
_cell_length_a 17.151966
_cell_length_b 15.140310
_cell_length_c 19.911536
_cell_angle_alpha 90.000000
_cell_angle_beta 24.489811
_cell_angle_gamma 90.000000
_cell_volume 2143.437814
_symmetry_space_group_name_H-M "C 2/C"
_symmetry_group_IT_number 15
_symmetry_cell_setting 'monoclinic'
loop_
_space_group_symop_operation_xyz
x,y,z
-x,y,1/2-z
-x,-y,-z
x,-y,1/2+z
1/2+x,1/2+y,z
1/2-x,1/2+y,1/2-z
1/2-x,1/2-y,-z
1/2+x,1/2-y,1/2+z
loop_
_atom_site_type_symbol
_atom_site_label
_atom_site_fract_x
_atom_site_fract_y
_atom_site_fract_z
Si Si1 0.012935 0.905398 0.454013
Si Si2 0.391605 0.482792 0.405272
Si Si3 0.381242 0.832049 0.908927
Si Si4 0.944434 0.404172 0.116461
Si Si5 0.675799 0.848545 0.063876
Si Si6 0.867218 0.616445 0.173540
O O1 0.838595 0.860532 0.632150
O O2 0.227117 0.868087 0.291136
O O3 0.975298 0.929899 0.404166
O O4 0.000000 0.000000 0.500000
O O5 0.500000 0.486660 0.250000
O O6 0.213995 0.426586 0.521746
O O7 0.331248 0.582438 0.469203
O O8 0.500000 0.829424 0.750000
O O9 0.492248 0.827704 0.890620
O O10 0.250000 0.750000 0.000000
O O11 0.086379 0.379470 0.064124
O O12 0.906171 0.510334 0.150834
O O13 0.060370 0.373492 0.959487
O O14 0.500000 0.850762 0.250000
O O15 0.750000 0.750000 0.000000
#
# Coordination Sequence:
#
# PCOD9278344 Si02
#       6
#     8   8   8   8   8   8
#     4  10  21  38  70 105 134 186 241 293 368 432
#     4  12  24  43  75 103 143 192 241 303 373 440
#     4  12  24  43  67 104 146 187 240 296 361 434
#     4  10  22  42  75 104 139 183 247 303 364 435
#     4  12  26  49  72 107 148 194 248 302 365 437
#     4  10  20  42  71 105 139 188 238 300 369 433
#
# _framework density 22.393933000000001
#
# number of rings (size 3 to 8) (size 9 to 14) (size 15 to 20)
#    0.000    1.000    3.333    4.500    4.667    0.000 
#    3.000    5.000    0.000    0.000    0.000    0.000 
#    0.000    0.000    0.000    0.000    0.000    0.000 
#
# Total GULP energy -133818.633256 kJ/mol
# GULP energy per Si atom -5575.776386 kJ/mol
# Density = 2.234296 g / cm^3
# Si number density = 22.393933 Si / 1000 Ang^3
#
#
#
# Elastic Constant Matrix: (Units=GPa)
#
#
# Indices 1 2 3 4 5 6 
#
# 1 86.8901 9.6461 30.0339 0.0021 7.8074 0.0011
# 2 9.6461 45.5895 35.9132 0.0149 10.5512 -0.0018
# 3 30.0339 35.9132 120.4652 0.0185 29.1971 0.0027
# 4 0.0021 0.0149 0.0185 27.3125 -0.0014 -13.1011
# 5 7.8074 10.5512 29.1971 -0.0014 40.0445 -0.0015
# 6 0.0011 -0.0018 0.0027 -13.1011 -0.0015 23.1559
#
#
#
# Elastic Compliance Matrix: (Units=1/GPa)
#
#
# Indices 1 2 3 4 5 6 
#
# 1 0.012597 -0.000240 -0.003024 0.000001 -0.000188 0.000001
# 2 -0.000240 0.028757 -0.008124 -0.000012 -0.001607 -0.000004
# 3 -0.003024 -0.008124 0.013137 -0.000008 -0.006848 -0.000007
# 4 0.000001 -0.000012 -0.000008 0.050251 0.000011 0.028431
# 5 -0.000188 -0.001607 -0.006848 0.000011 0.030425 0.000009
# 6 0.000001 -0.000004 -0.000007 0.028431 0.000009 0.059271
#
#
# Mechanical properties :
#
#
# Convention : Reuss Voigt Hill
#
# Bulk Modulus (GPa) = 31.52928 44.90346 38.21637
# Shear Modulus (GPa) = 21.95049 29.92603 25.93826
#
# Velocity S-wave (km/s) = 3.13421 3.65957 3.40703
# Velocity P-wave (km/s) = 5.21609 6.16050 5.70786
#
# Compressibility (1/GPa) = 0.03171655
#
# Stress axis : x y z
#
# Youngs Moduli (GPa) = 79.38113 34.77401 76.12321
#
# Poissons Ratio (x) = 0.00835 0.23016
# Poissons Ratio (y) = 0.01906 0.61840
# Poissons Ratio (z) = 0.24001 0.28249
#
# Static dielectric constant tensor:
#      x y z
#    x 1.814780 -0.000010 -0.019800 
#    y -0.000010 1.833030 0.000000 
#    z -0.019800 0.000000 1.894550 
# 
# From -- ./inp_files/249704.got.cif
#   From: 2010.05.17/outbox.cif.g08.bks.cpg/sg15_125_cif.got.tgz:249704.got - 2010.06.03 18:47:42.
