data_PCOD9278946
_publ_section_title
;
Structure prediction by ZEFSAII (Michael W. Deem and Ramdas Pophale) SiO2 
 PCOD9278946
Probable space group: C 2/C
;
_chemical_formula_sum "Si O2"
_cell_formula_units_Z 64
_cell_length_a 20.660881
_cell_length_b 17.840546
_cell_length_c 26.335497
_cell_angle_alpha 90.000000
_cell_angle_beta 21.672246
_cell_angle_gamma 90.000000
_cell_volume 3584.873678
_symmetry_space_group_name_H-M "C 2/C"
_symmetry_group_IT_number 15
_symmetry_cell_setting 'monoclinic'
loop_
_space_group_symop_operation_xyz
x,y,z
-x,y,1/2-z
-x,-y,-z
x,-y,1/2+z
1/2+x,1/2+y,z
1/2-x,1/2+y,1/2-z
1/2-x,1/2-y,-z
1/2+x,1/2-y,1/2+z
loop_
_atom_site_type_symbol
_atom_site_label
_atom_site_fract_x
_atom_site_fract_y
_atom_site_fract_z
Si Si1 0.760761 0.476489 0.782948
Si Si2 0.481433 0.762198 0.654063
Si Si3 0.885588 0.424865 0.583965
Si Si4 0.570925 0.228047 0.970475
Si Si5 0.910659 0.103592 0.921294
Si Si6 0.407436 0.925072 0.906809
Si Si7 0.344786 0.503777 0.825727
Si Si8 0.461973 0.612485 0.557078
O O1 0.802703 0.432777 0.700378
O O2 0.712783 0.563429 0.810185
O O3 0.918217 0.471179 0.708393
O O4 0.593407 0.432894 0.925842
O O5 0.549600 0.776557 0.547049
O O6 0.578057 0.689440 0.606566
O O7 0.523575 0.840386 0.649519
O O8 0.273180 0.743800 0.807890
O O9 0.753256 0.438368 0.633609
O O10 0.000000 0.500000 0.500000
O O11 0.995689 0.348347 0.501763
O O12 0.456656 0.302411 0.041673
O O13 0.950229 0.110925 0.951440
O O14 0.063423 0.056993 0.782686
O O15 0.726966 0.064892 0.041542
O O16 0.286332 0.945729 0.044343
O O17 0.500000 0.477305 0.750000
#
# Coordination Sequence:
#
# PCOD9278946 Si02
#       8
#     8   8   8   8   8   8   8   8
#     4  11  21  37  56  78 112 143 191 227 279 327
#     4  11  20  35  49  82 117 153 178 224 267 338
#     4  12  20  35  60  83 107 148 186 240 279 329
#     4  11  22  34  58  83 113 143 195 230 279 329
#     4  10  21  33  54  77 114 152 183 218 274 337
#     4  11  20  35  51  82 114 148 185 223 271 335
#     4  10  21  36  55  82 109 144 190 236 280 328
#     4  10  22  38  54  81 110 150 184 233 276 339
#
# _framework density 17.852789999999999
#
# number of rings (size 3 to 8) (size 9 to 14) (size 15 to 20)
#    0.000    1.250    5.000    1.875    1.750    0.500 
#    0.000    1.250    0.000    0.000    6.500    3.500 
#    0.000    0.000    0.000    0.000    0.000    0.000 
#
# Total GULP energy -178384.746318 kJ/mol
# GULP energy per Si atom -5574.523322 kJ/mol
# Density = 1.781216 g / cm^3
# Si number density = 17.852790 Si / 1000 Ang^3
#
#
#
# Elastic Constant Matrix: (Units=GPa)
#
#
# Indices 1 2 3 4 5 6 
#
# 1 54.9517 26.8817 14.9796 -0.0063 -13.5095 -0.0024
# 2 26.8817 92.9648 19.0745 -0.0158 -20.2842 0.0050
# 3 14.9796 19.0745 45.8800 -0.0539 -11.6449 0.0079
# 4 -0.0063 -0.0158 -0.0539 28.7640 0.0086 -8.5352
# 5 -13.5095 -20.2842 -11.6449 0.0086 27.5709 -0.0018
# 6 -0.0024 0.0050 0.0079 -8.5352 -0.0018 24.1479
#
#
#
# Elastic Compliance Matrix: (Units=1/GPa)
#
#
# Indices 1 2 3 4 5 6 
#
# 1 0.023032 -0.004452 -0.004073 -0.000006 0.006290 0.000003
# 2 -0.004452 0.014133 -0.002617 -0.000001 0.007111 -0.000002
# 3 -0.004073 -0.002617 0.026007 0.000047 0.007063 0.000009
# 4 -0.000006 -0.000001 0.000047 0.038839 0.000005 0.013728
# 5 0.006290 0.007111 0.007063 0.000005 0.047567 0.000002
# 6 0.000003 -0.000002 0.000009 0.013728 0.000002 0.046264
#
#
# Mechanical properties :
#
#
# Convention : Reuss Voigt Hill
#
# Bulk Modulus (GPa) = 24.45716 35.07422 29.76569
# Shear Modulus (GPa) = 21.57462 24.95395 23.26429
#
# Velocity S-wave (km/s) = 3.48008 3.74272 3.61379
# Velocity P-wave (km/s) = 5.46599 6.19405 5.84138
#
# Compressibility (1/GPa) = 0.04088783
#
# Stress axis : x y z
#
# Youngs Moduli (GPa) = 43.41753 70.75857 38.45189
#
# Poissons Ratio (x) = 0.31501 0.15660
# Poissons Ratio (y) = 0.19329 0.10064
# Poissons Ratio (z) = 0.17682 0.18520
#
# Static dielectric constant tensor:
#      x y z
#    x 1.702510 0.000040 0.043060 
#    y 0.000040 1.638650 0.000060 
#    z 0.043060 0.000060 1.689490 
# 
# From -- ./inp_files/301331.got.cif
#   From: 2010.05.17/outbox.cif.g08.bks.cpg/sg15_151_cif.got.tgz:301331.got - 2010.06.03 18:47:42.
