data_PCOD9278226
_publ_section_title
;
Structure prediction by ZEFSAII (Michael W. Deem and Ramdas Pophale) SiO2 
 PCOD9278226
Probable space group: C 2/C
;
_chemical_formula_sum "Si O2"
_cell_formula_units_Z 52
_cell_length_a 17.123895
_cell_length_b 6.989749
_cell_length_c 19.976955
_cell_angle_alpha 90.000000
_cell_angle_beta 98.340963
_cell_angle_gamma 90.000000
_cell_volume 2365.784248
_symmetry_space_group_name_H-M "C 2/C"
_symmetry_group_IT_number 15
_symmetry_cell_setting 'monoclinic'
loop_
_space_group_symop_operation_xyz
x,y,z
-x,y,1/2-z
-x,-y,-z
x,-y,1/2+z
1/2+x,1/2+y,z
1/2-x,1/2+y,1/2-z
1/2-x,1/2-y,-z
1/2+x,1/2-y,1/2+z
loop_
_atom_site_type_symbol
_atom_site_label
_atom_site_fract_x
_atom_site_fract_y
_atom_site_fract_z
Si Si1 0.367882 0.195260 0.370912
Si Si2 0.136715 0.364920 0.210552
Si Si3 0.219276 0.765482 0.921843
Si Si4 0.233829 0.978213 0.674796
Si Si5 0.000000 0.897981 0.750000
Si Si6 0.945717 0.980540 0.599520
Si Si7 0.499800 0.227247 0.489591
O O1 0.284616 0.117023 0.388327
O O2 0.418029 0.267182 0.439672
O O3 0.500000 0.000000 0.500000
O O4 0.409237 0.022577 0.338562
O O5 0.135912 0.133976 0.405363
O O6 0.197432 0.485357 0.263540
O O7 0.192386 0.223782 0.174910
O O8 0.075435 0.237081 0.244043
O O9 0.227848 0.555389 0.889235
O O10 0.250000 0.750000 0.000000
O O11 0.161554 0.128550 0.677318
O O12 0.019616 0.008673 0.821714
O O13 0.939075 0.174768 0.554712
O O14 0.999858 0.841191 0.559529
#
# Coordination Sequence:
#
# PCOD9278226 Si02
#       7
#     8   8   8   8   4   8   8
#     4  10  22  40  65  95 128 176 224 274 342 406
#     4  12  22  42  65  95 135 179 221 278 351 406
#     4  10  20  42  68  92 127 174 228 275 326 407
#     4  10  21  40  66  89 133 177 216 275 345 404
#     4  12  24  40  72 104 134 176 228 284 344 408
#     4  11  23  45  66  97 137 174 221 287 340 399
#     4  11  24  44  67  93 135 180 221 276 352 404
#
# _framework density 21.980025999999999
#
# number of rings (size 3 to 8) (size 9 to 14) (size 15 to 20)
#    0.923    0.308    4.615    1.846    0.000    2.462 
#    2.769    8.462    0.000    0.000    0.000    0.000 
#    0.000    0.000    0.000    0.000    0.000    0.000 
#
# Total GULP energy -144939.271751 kJ/mol
# GULP energy per Si atom -5574.587375 kJ/mol
# Density = 2.193000 g / cm^3
# Si number density = 21.980026 Si / 1000 Ang^3
#
#
#
# Elastic Constant Matrix: (Units=GPa)
#
#
# Indices 1 2 3 4 5 6 
#
# 1 61.0868 -0.5149 5.5942 0.0000 4.4233 0.0000
# 2 -0.5149 93.5703 30.5173 0.0000 -8.1758 0.0000
# 3 5.5942 30.5173 119.8577 0.0000 -3.9119 0.0000
# 4 0.0000 0.0000 0.0000 22.2691 0.0000 -3.4885
# 5 4.4233 -8.1758 -3.9119 0.0000 28.8520 0.0000
# 6 0.0000 0.0000 0.0000 -3.4885 0.0000 22.0024
#
#
#
# Elastic Compliance Matrix: (Units=1/GPa)
#
#
# Indices 1 2 3 4 5 6 
#
# 1 0.016645 0.000156 -0.000902 0.000000 -0.002630 0.000000
# 2 0.000156 0.011905 -0.002942 0.000000 0.002951 0.000000
# 3 -0.000902 -0.002942 0.009152 0.000000 0.000546 0.000000
# 4 0.000000 0.000000 0.000000 0.046049 0.000000 0.007301
# 5 -0.002630 0.002951 0.000546 0.000000 0.035973 0.000000
# 6 0.000000 0.000000 0.000000 0.007301 0.000000 0.046607
#
#
# Mechanical properties :
#
#
# Convention : Reuss Voigt Hill
#
# Bulk Modulus (GPa) = 32.97598 38.41202 35.69400
# Shear Modulus (GPa) = 27.20101 30.55259 28.87680
#
# Velocity S-wave (km/s) = 3.52168 3.73234 3.62853
# Velocity P-wave (km/s) = 5.61886 6.00730 5.81632
#
# Compressibility (1/GPa) = 0.03032510
#
# Stress axis : x y z
#
# Youngs Moduli (GPa) = 60.07979 83.99530 109.26232
#
# Poissons Ratio (x) = -0.01311 0.09860
# Poissons Ratio (y) = -0.00938 0.32148
# Poissons Ratio (z) = 0.05422 0.24714
#
# Static dielectric constant tensor:
#      x y z
#    x 1.890850 0.000000 -0.054160 
#    y 0.000000 1.835140 0.000000 
#    z -0.054160 0.000000 1.856030 
# 
# From -- ./inp_files/247060.got.cif
#   From: 2010.05.17/outbox.cif.g08.bks.cpg/sg15_124_cif.got.tgz:247060.got - 2010.06.03 18:47:42.
