data_PCOD9278485
_publ_section_title
;
Structure prediction by ZEFSAII (Michael W. Deem and Ramdas Pophale) SiO2 
 PCOD9278485
Probable space group: C 2/C
;
_chemical_formula_sum "Si O2"
_cell_formula_units_Z 44
_cell_length_a 10.651160
_cell_length_b 15.547296
_cell_length_c 12.662742
_cell_angle_alpha 90.000000
_cell_angle_beta 102.156256
_cell_angle_gamma 90.000000
_cell_volume 2049.889672
_symmetry_space_group_name_H-M "C 2/C"
_symmetry_group_IT_number 15
_symmetry_cell_setting 'monoclinic'
loop_
_space_group_symop_operation_xyz
x,y,z
-x,y,1/2-z
-x,-y,-z
x,-y,1/2+z
1/2+x,1/2+y,z
1/2-x,1/2+y,1/2-z
1/2-x,1/2-y,-z
1/2+x,1/2-y,1/2+z
loop_
_atom_site_type_symbol
_atom_site_label
_atom_site_fract_x
_atom_site_fract_y
_atom_site_fract_z
Si Si1 0.911711 0.155002 0.840661
Si Si2 0.500000 0.417516 0.750000
Si Si3 0.095338 0.346716 0.670119
Si Si4 0.616105 0.666857 0.064146
Si Si5 0.364636 0.865301 0.480232
Si Si6 0.740168 0.513178 0.791560
O O1 0.848362 0.250691 0.838001
O O2 0.810489 0.077341 0.809261
O O3 0.000000 0.154237 0.750000
O O4 0.007736 0.147408 0.956447
O O5 0.435375 0.364516 0.832666
O O6 0.608374 0.478525 0.819885
O O7 0.185659 0.425106 0.716246
O O8 0.000000 0.334231 0.750000
O O9 0.004593 0.373414 0.556288
O O10 0.640460 0.769045 0.067435
O O11 0.750784 0.628225 0.046842
O O12 0.328550 0.931612 0.383758
#
# Coordination Sequence:
#
# PCOD9278485 Si02
#       6
#     8   4   8   8   8   8
#     4  10  20  43  67  94 124 174 220 257 320 393
#     4  12  26  38  64 106 128 164 224 280 316 372
#     4  10  23  40  65  95 129 171 218 262 324 396
#     4  10  22  42  70  95 129 175 217 266 322 390
#     4  10  21  42  69  92 129 180 215 257 329 398
#     4  12  23  39  65 100 130 168 217 276 320 383
#
# _framework density 21.464569000000001
#
# number of rings (size 3 to 8) (size 9 to 14) (size 15 to 20)
#    0.000    1.455    2.727    1.636    5.091    4.364 
#    1.636    3.636    4.000    0.000    0.000    0.000 
#    0.000    0.000    0.000    0.000    0.000    0.000 
#
# Total GULP energy -122823.592997 kJ/mol
# GULP energy per Si atom -5582.890591 kJ/mol
# Density = 2.141571 g / cm^3
# Si number density = 21.464569 Si / 1000 Ang^3
#
#
#
# Elastic Constant Matrix: (Units=GPa)
#
#
# Indices 1 2 3 4 5 6 
#
# 1 55.7758 67.3701 22.2146 0.0000 16.5753 0.0000
# 2 67.3701 145.9257 47.1886 0.0000 17.6033 0.0000
# 3 22.2146 47.1886 98.4338 0.0000 11.8466 0.0000
# 4 0.0000 0.0000 0.0000 33.1463 0.0000 24.3933
# 5 16.5753 17.6033 11.8466 0.0000 27.8617 0.0000
# 6 0.0000 0.0000 0.0000 24.3933 0.0000 68.5902
#
#
#
# Elastic Compliance Matrix: (Units=1/GPa)
#
#
# Indices 1 2 3 4 5 6 
#
# 1 0.045728 -0.019563 0.000891 0.000000 -0.015223 0.000000
# 2 -0.019563 0.016849 -0.003986 0.000000 0.002688 0.000000
# 3 0.000891 -0.003986 0.012257 0.000000 -0.003223 0.000000
# 4 0.000000 0.000000 0.000000 0.040864 0.000000 -0.014533
# 5 -0.015223 0.002688 -0.003223 0.000000 0.044620 0.000000
# 6 0.000000 0.000000 0.000000 -0.014533 0.000000 0.019748
#
#
# Mechanical properties :
#
#
# Convention : Reuss Voigt Hill
#
# Bulk Modulus (GPa) = 33.87852 63.74244 48.81048
# Shear Modulus (GPa) = 21.25656 36.81045 29.03350
#
# Velocity S-wave (km/s) = 3.15033 4.14568 3.68179
# Velocity P-wave (km/s) = 5.38985 7.25786 6.39246
#
# Compressibility (1/GPa) = 0.02951723
#
# Stress axis : x y z
#
# Youngs Moduli (GPa) = 21.86863 59.34991 81.58710
#
# Poissons Ratio (x) = 1.16106 -0.07266
# Poissons Ratio (y) = 0.42781 0.32520
# Poissons Ratio (z) = -0.01948 0.23656
#
# Static dielectric constant tensor:
#      x y z
#    x 1.804240 0.000000 0.046900 
#    y 0.000000 1.824440 0.000000 
#    z 0.046900 0.000000 1.788060 
# 
# From -- ./inp_files/86193.got.cif
#   From: 2010.05.17/outbox.cif.g08.bks.cpg/sg15_44_cif.got.tgz:86193.got - 2010.06.03 18:47:42.
