data_PCOD9278883
_publ_section_title
;
Structure prediction by ZEFSAII (Michael W. Deem and Ramdas Pophale) SiO2 
 PCOD9278883
Probable space group: C 2/C
;
_chemical_formula_sum "Si O2"
_cell_formula_units_Z 56
_cell_length_a 24.078566
_cell_length_b 5.331246
_cell_length_c 23.689969
_cell_angle_alpha 90.000000
_cell_angle_beta 72.264674
_cell_angle_gamma 90.000000
_cell_volume 2896.522415
_symmetry_space_group_name_H-M "C 2/C"
_symmetry_group_IT_number 15
_symmetry_cell_setting 'monoclinic'
loop_
_space_group_symop_operation_xyz
x,y,z
-x,y,1/2-z
-x,-y,-z
x,-y,1/2+z
1/2+x,1/2+y,z
1/2-x,1/2+y,1/2-z
1/2-x,1/2-y,-z
1/2+x,1/2-y,1/2+z
loop_
_atom_site_type_symbol
_atom_site_label
_atom_site_fract_x
_atom_site_fract_y
_atom_site_fract_z
Si Si1 0.201682 0.907886 0.825189
Si Si2 0.795438 0.542899 0.505092
Si Si3 0.722932 0.592606 0.187471
Si Si4 0.074295 0.016655 0.415178
Si Si5 0.399147 0.317733 0.472617
Si Si6 0.491294 0.982417 0.570035
Si Si7 0.180527 0.155065 0.085491
O O1 0.237512 0.657384 0.830877
O O2 0.197056 0.908056 0.758473
O O3 0.138660 0.928385 0.872552
O O4 0.238843 0.154710 0.829188
O O5 0.750000 0.750000 0.500000
O O6 0.850488 0.650279 0.520045
O O7 0.825078 0.426795 0.440280
O O8 0.751406 0.372147 0.553503
O O9 0.674868 0.604664 0.152905
O O10 0.073664 0.023210 0.484373
O O11 0.031779 0.241708 0.406625
O O12 0.054475 0.739388 0.403335
O O13 0.447232 0.138218 0.429807
O O14 0.361643 0.483488 0.440195
O O15 0.500000 0.000000 0.500000
#
# Coordination Sequence:
#
# PCOD9278883 Si02
#       7
#     8   8   8   8   8   8   8
#     4  10  22  39  59  83 111 151 188 236 282 328
#     4   9  20  32  47  82 112 147 174 214 280 346
#     4  10  22  38  58  85 114 146 191 229 281 351
#     4  11  22  36  58  81 112 148 190 237 276 335
#     4  10  21  32  53  79 112 145 176 227 284 331
#     4  10  22  37  54  82 111 148 191 232 279 334
#     4  10  21  32  53  81 115 148 179 226 281 349
#
# _framework density 19.333528000000001
#
# number of rings (size 3 to 8) (size 9 to 14) (size 15 to 20)
#    0.000    2.000    0.000    3.429   16.000    0.000 
#    0.000    0.000    0.000    0.857    0.000    0.000 
#    0.000    0.000    0.000    0.000    0.000    0.000 
#
# Total GULP energy -155947.831962 kJ/mol
# GULP energy per Si atom -5569.565427 kJ/mol
# Density = 1.928952 g / cm^3
# Si number density = 19.333528 Si / 1000 Ang^3
#
#
#
# Elastic Constant Matrix: (Units=GPa)
#
#
# Indices 1 2 3 4 5 6 
#
# 1 88.4806 33.9720 35.6466 0.0004 4.6825 0.0008
# 2 33.9720 117.0085 30.5563 0.0002 1.1168 0.0049
# 3 35.6466 30.5563 69.6603 0.0003 7.6099 0.0004
# 4 0.0004 0.0002 0.0003 14.4659 -0.0010 -6.7553
# 5 4.6825 1.1168 7.6099 -0.0010 28.6280 0.0000
# 6 0.0008 0.0049 0.0004 -6.7553 0.0000 30.6499
#
#
#
# Elastic Compliance Matrix: (Units=1/GPa)
#
#
# Indices 1 2 3 4 5 6 
#
# 1 0.014938 -0.002657 -0.006409 0.000000 -0.000636 0.000000
# 2 -0.002657 0.010141 -0.003185 -0.000001 0.000886 -0.000002
# 3 -0.006409 -0.003185 0.019469 0.000000 -0.004003 0.000000
# 4 0.000000 -0.000001 0.000000 0.077059 0.000003 0.016984
# 5 -0.000636 0.000886 -0.004003 0.000003 0.036064 0.000001
# 6 0.000000 -0.000002 0.000000 0.016984 0.000001 0.036370
#
#
# Mechanical properties :
#
#
# Convention : Reuss Voigt Hill
#
# Bulk Modulus (GPa) = 49.88676 52.83325 51.36001
# Shear Modulus (GPa) = 22.19981 26.41373 24.30677
#
# Velocity S-wave (km/s) = 3.39227 3.70024 3.54960
# Velocity P-wave (km/s) = 6.41892 6.75591 6.58957
#
# Compressibility (1/GPa) = 0.02004540
#
# Stress axis : x y z
#
# Youngs Moduli (GPa) = 66.94423 98.60668 51.36246
#
# Poissons Ratio (x) = 0.26203 0.32918
# Poissons Ratio (y) = 0.17789 0.16361
# Poissons Ratio (z) = 0.42904 0.31410
#
# Static dielectric constant tensor:
#      x y z
#    x 1.755150 0.000000 0.036690 
#    y 0.000000 1.788950 0.000000 
#    z 0.036690 0.000000 1.727880 
# 
# From -- ./inp_files/278916.got.cif
#   From: 2010.05.17/outbox.cif.g08.bks.cpg/sg15_140_cif.got.tgz:278916.got - 2010.06.03 18:47:42.
