data_PCOD9278274
_publ_section_title
;
Structure prediction by ZEFSAII (Michael W. Deem and Ramdas Pophale) SiO2 
 PCOD9278274
Probable space group: C 2/C
;
_chemical_formula_sum "Si O2"
_cell_formula_units_Z 56
_cell_length_a 9.458502
_cell_length_b 19.975732
_cell_length_c 17.066829
_cell_angle_alpha 90.000000
_cell_angle_beta 53.180572
_cell_angle_gamma 90.000000
_cell_volume 2581.395441
_symmetry_space_group_name_H-M "C 2/C"
_symmetry_group_IT_number 15
_symmetry_cell_setting 'monoclinic'
loop_
_space_group_symop_operation_xyz
x,y,z
-x,y,1/2-z
-x,-y,-z
x,-y,1/2+z
1/2+x,1/2+y,z
1/2-x,1/2+y,1/2-z
1/2-x,1/2-y,-z
1/2+x,1/2-y,1/2+z
loop_
_atom_site_type_symbol
_atom_site_label
_atom_site_fract_x
_atom_site_fract_y
_atom_site_fract_z
Si Si1 0.705579 0.673040 0.527975
Si Si2 0.523612 0.920434 0.652612
Si Si3 0.894163 0.833044 0.014584
Si Si4 0.321753 0.124041 0.654061
Si Si5 0.681786 0.953548 0.025631
Si Si6 0.520947 0.757198 0.157661
Si Si7 0.799868 0.015674 0.316928
O O1 0.750000 0.750000 0.500000
O O2 0.519591 0.660528 0.547535
O O3 0.717443 0.653840 0.615047
O O4 0.856708 0.631201 0.433618
O O5 0.500000 0.901761 0.750000
O O6 0.620141 0.992369 0.609633
O O7 0.332247 0.932139 0.678382
O O8 0.835402 0.905766 0.004456
O O9 0.989556 0.793257 0.911892
O O10 0.714842 0.791526 0.090590
O O11 0.512951 0.093864 0.564150
O O12 0.377011 0.183441 0.693994
O O13 0.221583 0.057406 0.716124
O O14 0.736882 0.990709 0.927952
O O15 0.500000 0.725308 0.250000
O O16 0.000000 0.037560 0.250000
#
# Coordination Sequence:
#
# PCOD9278274 Si02
#       7
#     8   8   8   8   8   8   8
#     4  12  23  44  68  95 137 176 221 278 340 403
#     4  11  25  45  70 100 136 175 222 284 345 397
#     4  10  24  39  69  99 130 186 227 270 342 404
#     4  10  20  42  69  91 133 180 219 273 346 387
#     4  10  21  44  68  92 134 178 216 281 336 398
#     4  10  22  44  65  96 139 181 233 278 325 399
#     4  11  23  40  69 100 133 178 227 278 335 409
#
# _framework density 21.693693
#
# number of rings (size 3 to 8) (size 9 to 14) (size 15 to 20)
#    0.000    1.429    4.286    0.857    2.000    8.571 
#    2.571    0.714    0.000    0.000    0.000    0.000 
#    0.000    0.000    0.000    0.000    0.000    0.000 
#
# Total GULP energy -156580.831367 kJ/mol
# GULP energy per Si atom -5592.172549 kJ/mol
# Density = 2.164432 g / cm^3
# Si number density = 21.693693 Si / 1000 Ang^3
#
#
#
# Elastic Constant Matrix: (Units=GPa)
#
#
# Indices 1 2 3 4 5 6 
#
# 1 130.5929 35.1648 1.3437 0.0000 -4.6188 0.0000
# 2 35.1648 74.5167 -12.4138 0.0000 -9.1989 0.0000
# 3 1.3437 -12.4138 40.0507 0.0000 8.8532 0.0000
# 4 0.0000 0.0000 0.0000 9.3555 0.0000 1.4189
# 5 -4.6188 -9.1989 8.8532 0.0000 24.2297 0.0000
# 6 0.0000 0.0000 0.0000 1.4189 0.0000 31.3063
#
#
#
# Elastic Compliance Matrix: (Units=1/GPa)
#
#
# Indices 1 2 3 4 5 6 
#
# 1 0.008889 -0.004413 -0.001817 0.000000 0.000683 0.000000
# 2 -0.004413 0.016726 0.004476 0.000000 0.003873 0.000000
# 3 -0.001817 0.004476 0.028412 0.000000 -0.009029 0.000000
# 4 0.000000 0.000000 0.000000 0.107629 0.000000 -0.004878
# 5 0.000683 0.003873 -0.009029 0.000000 0.046171 0.000000
# 6 0.000000 0.000000 0.000000 -0.004878 0.000000 0.032164
#
#
# Mechanical properties :
#
#
# Convention : Reuss Voigt Hill
#
# Bulk Modulus (GPa) = 19.79426 32.59439 26.19433
# Shear Modulus (GPa) = 19.20577 27.71600 23.46088
#
# Velocity S-wave (km/s) = 2.97865 3.57824 3.29213
# Velocity P-wave (km/s) = 4.57975 5.66826 5.15283
#
# Compressibility (1/GPa) = 0.05051969
#
# Stress axis : x y z
#
# Youngs Moduli (GPa) = 112.50491 59.78667 35.19579
#
# Poissons Ratio (x) = 0.26383 0.06395
# Poissons Ratio (y) = 0.49647 -0.15754
# Poissons Ratio (z) = 0.20442 -0.26761
#
# Static dielectric constant tensor:
#      x y z
#    x 1.797760 0.000000 0.007890 
#    y 0.000000 1.797950 0.000000 
#    z 0.007890 0.000000 1.774970 
# 
# From -- ./inp_files/192036.got.cif
#   From: 2010.05.17/outbox.cif.g08.bks.cpg/sg15_97_cif.got.tgz:192036.got - 2010.06.03 18:47:42.
