data_PCOD9278796
_publ_section_title
;
Structure prediction by ZEFSAII (Michael W. Deem and Ramdas Pophale) SiO2 
 PCOD9278796
Probable space group: C 2/C
;
_chemical_formula_sum "Si O2"
_cell_formula_units_Z 44
_cell_length_a 20.883400
_cell_length_b 7.121256
_cell_length_c 21.899777
_cell_angle_alpha 90.000000
_cell_angle_beta 37.239248
_cell_angle_gamma 90.000000
_cell_volume 1970.864020
_symmetry_space_group_name_H-M "C 2/C"
_symmetry_group_IT_number 15
_symmetry_cell_setting 'monoclinic'
loop_
_space_group_symop_operation_xyz
x,y,z
-x,y,1/2-z
-x,-y,-z
x,-y,1/2+z
1/2+x,1/2+y,z
1/2-x,1/2+y,1/2-z
1/2-x,1/2-y,-z
1/2+x,1/2-y,1/2+z
loop_
_atom_site_type_symbol
_atom_site_label
_atom_site_fract_x
_atom_site_fract_y
_atom_site_fract_z
Si Si1 0.168347 0.140656 0.017959
Si Si2 0.500000 0.947594 0.750000
Si Si3 0.277112 0.078218 0.121594
Si Si4 0.574216 0.053669 0.386944
Si Si5 0.101079 0.727156 0.053767
Si Si6 0.069173 0.741029 0.783652
O O1 0.050278 0.189745 0.129829
O O2 0.250000 0.250000 0.000000
O O3 0.182050 0.231325 0.941007
O O4 0.165694 0.917551 0.013609
O O5 0.436469 0.840365 0.850899
O O6 0.582519 0.082768 0.721991
O O7 0.151169 0.091485 0.214538
O O8 0.315472 0.082899 0.162385
O O9 0.326522 0.917012 0.040690
O O10 0.510760 0.218931 0.399575
O O11 0.581821 0.876590 0.336192
O O12 0.500000 0.000000 0.500000
#
# Coordination Sequence:
#
# PCOD9278796 Si02
#       6
#     8   4   8   8   8   8
#     4  12  26  47  70 103 142 191 239 300 360 418
#     4  10  20  46  72 102 140 184 242 284 360 426
#     4  11  24  47  72 105 150 183 241 298 362 433
#     4   9  19  47  70 100 145 181 237 293 355 428
#     4  10  24  45  73 104 143 193 235 299 358 433
#     4  11  23  45  73 103 143 187 237 303 348 429
#
# _framework density 22.325233000000001
#
# number of rings (size 3 to 8) (size 9 to 14) (size 15 to 20)
#    0.000    1.455    5.455    1.091    0.000    5.091 
#   16.364    0.000    0.000    0.000    0.000    0.000 
#    0.000    0.000    0.000    0.000    0.000    0.000 
#
# Total GULP energy -122843.218226 kJ/mol
# GULP energy per Si atom -5583.782647 kJ/mol
# Density = 2.227442 g / cm^3
# Si number density = 22.325233 Si / 1000 Ang^3
#
#
#
# Elastic Constant Matrix: (Units=GPa)
#
#
# Indices 1 2 3 4 5 6 
#
# 1 150.2976 71.1795 64.4745 -0.0009 3.1853 0.0010
# 2 71.1795 111.9756 47.1990 0.0014 -8.4406 0.0005
# 3 64.4745 47.1990 108.8246 0.0010 -19.4217 0.0005
# 4 -0.0009 0.0014 0.0010 20.9621 -0.0003 -11.8794
# 5 3.1853 -8.4406 -19.4217 -0.0003 45.6973 -0.0005
# 6 0.0010 0.0005 0.0005 -11.8794 -0.0005 17.8600
#
#
#
# Elastic Compliance Matrix: (Units=1/GPa)
#
#
# Indices 1 2 3 4 5 6 
#
# 1 0.011551 -0.005456 -0.005195 0.000001 -0.004021 0.000000
# 2 -0.005456 0.013506 -0.002285 -0.000002 0.001904 -0.000001
# 3 -0.005195 -0.002285 0.014335 -0.000001 0.006032 0.000000
# 4 0.000001 -0.000002 -0.000001 0.076566 0.000000 0.050927
# 5 -0.004021 0.001904 0.006032 0.000000 0.025079 0.000001
# 6 0.000000 -0.000001 0.000000 0.050927 0.000001 0.089864
#
#
# Mechanical properties :
#
#
# Convention : Reuss Voigt Hill
#
# Bulk Modulus (GPa) = 73.97084 81.86712 77.91898
# Shear Modulus (GPa) = 19.13664 29.45353 24.29509
#
# Velocity S-wave (km/s) = 2.93093 3.63615 3.30242
# Velocity P-wave (km/s) = 6.68274 7.37418 7.03696
#
# Compressibility (1/GPa) = 0.01351884
#
# Stress axis : x y z
#
# Youngs Moduli (GPa) = 86.57203 74.04349 69.76158
#
# Poissons Ratio (x) = 0.40399 0.36239
# Poissons Ratio (y) = 0.47235 0.15943
# Poissons Ratio (z) = 0.44972 0.16921
#
# Static dielectric constant tensor:
#      x y z
#    x 1.919230 0.000000 -0.045400 
#    y 0.000000 1.831340 0.000000 
#    z -0.045400 0.000000 1.883310 
# 
# From -- ./inp_files/244139.got.cif
#   From: 2010.05.17/outbox.cif.g08.bks.cpg/sg15_123_cif.got.tgz:244139.got - 2010.06.03 18:47:42.
