data_PCOD9278364
_publ_section_title
;
Structure prediction by ZEFSAII (Michael W. Deem and Ramdas Pophale) SiO2 
 PCOD9278364
Probable space group: C 2/C
;
_chemical_formula_sum "Si O2"
_cell_formula_units_Z 40
_cell_length_a 18.720999
_cell_length_b 11.119200
_cell_length_c 9.347175
_cell_angle_alpha 90.000000
_cell_angle_beta 108.835380
_cell_angle_gamma 90.000000
_cell_volume 1841.537846
_symmetry_space_group_name_H-M "C 2/C"
_symmetry_group_IT_number 15
_symmetry_cell_setting 'monoclinic'
loop_
_space_group_symop_operation_xyz
x,y,z
-x,y,1/2-z
-x,-y,-z
x,-y,1/2+z
1/2+x,1/2+y,z
1/2-x,1/2+y,1/2-z
1/2-x,1/2-y,-z
1/2+x,1/2-y,1/2+z
loop_
_atom_site_type_symbol
_atom_site_label
_atom_site_fract_x
_atom_site_fract_y
_atom_site_fract_z
Si Si1 0.199874 0.631783 0.980781
Si Si2 0.614144 0.455741 0.386169
Si Si3 0.778608 0.014639 0.784080
Si Si4 0.966213 0.366223 0.001920
Si Si5 0.000000 0.235781 0.750000
Si Si6 0.000000 0.824299 0.750000
O O1 0.240105 0.565656 0.139155
O O2 0.250000 0.750000 0.000000
O O3 0.212400 0.573851 0.833262
O O4 0.112997 0.635573 0.965996
O O5 0.668921 0.461651 0.556760
O O6 0.661250 0.415093 0.276228
O O7 0.552640 0.354669 0.371155
O O8 0.570254 0.583174 0.328321
O O9 0.013119 0.267876 0.126113
O O10 0.956526 0.315613 0.835994
O O11 0.000000 0.500000 0.000000
#
# Coordination Sequence:
#
# PCOD9278364 Si02
#       6
#     8   8   8   8   4   4
#     4  11  25  46  69  96 139 185 228 281 346 415
#     4  10  20  42  72 107 122 167 237 297 358 387
#     4  10  22  42  68  99 132 166 228 285 336 406
#     4  12  27  43  64  97 144 187 229 271 355 437
#     4  11  23  40  68  98 133 171 228 292 338 423
#     4  11  23  42  74  96 141 177 220 300 350 415
#
# _framework density 21.720977000000001
#
# number of rings (size 3 to 8) (size 9 to 14) (size 15 to 20)
#    0.000    1.200    0.000    6.600    5.600    3.200 
#    0.000    3.000    0.000    0.000    0.000    0.000 
#    0.000    0.000    0.000    0.000    0.000    0.000 
#
# Total GULP energy -111521.116406 kJ/mol
# GULP energy per Si atom -5576.055820 kJ/mol
# Density = 2.167154 g / cm^3
# Si number density = 21.720977 Si / 1000 Ang^3
#
#
#
# Elastic Constant Matrix: (Units=GPa)
#
#
# Indices 1 2 3 4 5 6 
#
# 1 115.2105 46.6139 17.5706 0.0000 -26.0987 0.0000
# 2 46.6139 129.0279 36.2790 0.0000 -17.9035 0.0000
# 3 17.5706 36.2790 102.7993 0.0000 -31.5559 0.0000
# 4 0.0000 0.0000 0.0000 3.3757 0.0000 -19.0516
# 5 -26.0987 -17.9035 -31.5559 0.0000 40.2925 0.0000
# 6 0.0000 0.0000 0.0000 -19.0516 0.0000 12.2208
#
#
#
# Elastic Compliance Matrix: (Units=1/GPa)
#
#
# Indices 1 2 3 4 5 6 
#
# 1 0.011493 -0.003590 0.001446 0.000000 0.006982 0.000000
# 2 -0.003590 0.009838 -0.002936 0.000000 -0.000253 0.000000
# 3 0.001446 -0.002936 0.013696 0.000000 0.010358 0.000000
# 4 0.000000 0.000000 0.000000 -0.037987 0.000000 -0.059220
# 5 0.006982 -0.000253 0.010358 0.000000 0.037340 0.000000
# 6 0.000000 0.000000 0.000000 -0.059220 0.000000 -0.010493
#
#
# Mechanical properties :
#
#
# Convention : Reuss Voigt Hill
#
# Bulk Modulus (GPa) = 40.21455 60.88496 50.54975
# Shear Modulus (GPa) = 118.09892 27.61608 72.85750
#
# Velocity S-wave (km/s) = 7.38166 3.56954 5.79787
# Velocity P-wave (km/s) = 9.55020 6.71418 8.25489
#
# Compressibility (1/GPa) = 0.02486662
#
# Stress axis : x y z
#
# Youngs Moduli (GPa) = 87.00720 101.65158 73.01175
#
# Poissons Ratio (x) = 0.36492 -0.10554
# Poissons Ratio (y) = 0.31235 0.21436
# Poissons Ratio (z) = -0.12577 0.29845
#
# Static dielectric constant tensor:
#      x y z
#    x 1.785710 0.000000 -0.024980 
#    y 0.000000 1.808490 0.000000 
#    z -0.024980 0.000000 1.742420 
# 
# From -- ./inp_files/46296.got.cif
#   From: 2010.05.17/outbox.cif.g08.bks.cpg/sg15_24_cif.got.tgz:46296.got - 2010.06.03 18:47:42.
