data_PCOD9278069
_publ_section_title
;
Structure prediction by ZEFSAII (Michael W. Deem and Ramdas Pophale) SiO2 
 PCOD9278069
Probable space group: C 2/C
;
_chemical_formula_sum "Si O2"
_cell_formula_units_Z 52
_cell_length_a 30.303092
_cell_length_b 18.284809
_cell_length_c 14.688630
_cell_angle_alpha 90.000000
_cell_angle_beta 161.079964
_cell_angle_gamma 90.000000
_cell_volume 2638.981160
_symmetry_space_group_name_H-M "C 2/C"
_symmetry_group_IT_number 15
_symmetry_cell_setting 'monoclinic'
loop_
_space_group_symop_operation_xyz
x,y,z
-x,y,1/2-z
-x,-y,-z
x,-y,1/2+z
1/2+x,1/2+y,z
1/2-x,1/2+y,1/2-z
1/2-x,1/2-y,-z
1/2+x,1/2-y,1/2+z
loop_
_atom_site_type_symbol
_atom_site_label
_atom_site_fract_x
_atom_site_fract_y
_atom_site_fract_z
Si Si1 0.644717 0.530636 0.806663
Si Si2 0.097299 0.836117 0.353285
Si Si3 0.396218 0.767968 0.967906
Si Si4 0.597578 0.048437 0.627121
Si Si5 0.964167 0.704568 0.394825
Si Si6 0.749019 0.632545 0.862189
Si Si7 0.000000 0.431443 0.750000
O O1 0.500000 0.500000 0.500000
O O2 0.626841 0.594298 0.846916
O O3 0.701048 0.561082 0.820429
O O4 0.749733 0.471160 0.049643
O O5 0.246233 0.805947 0.676308
O O6 0.020597 0.775157 0.140096
O O7 0.000000 0.850942 0.250000
O O8 0.463589 0.781161 0.000699
O O9 0.362543 0.681273 0.904425
O O10 0.500000 0.789514 0.250000
O O11 0.560107 0.134419 0.562035
O O12 0.559071 0.024726 0.449857
O O13 0.500000 0.000000 0.500000
O O14 0.812780 0.678710 0.070257
O O15 0.874817 0.616745 0.041797
#
# Coordination Sequence:
#
# PCOD9278069 Si02
#       7
#     8   8   8   8   8   8   4
#     4  12  25  45  67  97 147 186 219 294 364 410
#     4  11  24  46  70  99 139 188 229 283 362 417
#     4  11  22  39  70 100 130 169 228 295 348 405
#     4  11  22  43  69 101 132 181 239 280 342 425
#     4  10  20  43  73  93 128 179 233 287 335 410
#     4  10  20  42  65  95 129 181 221 276 347 408
#     4  10  22  38  74  94 130 180 242 278 328 424
#
# _framework density 19.704573
#
# number of rings (size 3 to 8) (size 9 to 14) (size 15 to 20)
#    0.000    1.231    6.154    0.923    9.692    3.692 
#    5.538    1.538    0.000    0.000    0.000    0.000 
#    0.000    0.000    0.000    0.000    0.000    0.000 
#
# Total GULP energy -145031.119065 kJ/mol
# GULP energy per Si atom -5578.119964 kJ/mol
# Density = 1.965972 g / cm^3
# Si number density = 19.704573 Si / 1000 Ang^3
#
#
#
# Elastic Constant Matrix: (Units=GPa)
#
#
# Indices 1 2 3 4 5 6 
#
# 1 138.6416 26.0769 57.1866 0.0000 -1.1390 0.0000
# 2 26.0769 66.9740 50.4695 0.0000 2.7529 0.0000
# 3 57.1866 50.4695 136.1808 0.0000 -16.0225 0.0000
# 4 0.0000 0.0000 0.0000 31.3527 0.0000 3.1393
# 5 -1.1390 2.7529 -16.0225 0.0000 29.2912 0.0000
# 6 0.0000 0.0000 0.0000 3.1393 0.0000 21.8021
#
#
#
# Elastic Compliance Matrix: (Units=1/GPa)
#
#
# Indices 1 2 3 4 5 6 
#
# 1 0.008828 -0.000603 -0.003673 0.000000 -0.001609 0.000000
# 2 -0.000603 0.022013 -0.008712 0.000000 -0.006858 0.000000
# 3 -0.003673 -0.008712 0.013032 0.000000 0.007805 0.000000
# 4 0.000000 0.000000 0.000000 0.032362 0.000000 -0.004660
# 5 -0.001609 -0.006858 0.007805 0.000000 0.038991 0.000000
# 6 0.000000 0.000000 0.000000 -0.004660 0.000000 0.046538
#
#
# Mechanical properties :
#
#
# Convention : Reuss Voigt Hill
#
# Bulk Modulus (GPa) = 55.87343 67.69581 61.78462
# Shear Modulus (GPa) = 25.81236 30.36008 28.08622
#
# Velocity S-wave (km/s) = 3.62327 3.92951 3.77950
# Velocity P-wave (km/s) = 6.77652 7.41742 7.10420
#
# Compressibility (1/GPa) = 0.01789760
#
# Stress axis : x y z
#
# Youngs Moduli (GPa) = 113.27455 45.42831 76.73201
#
# Poissons Ratio (x) = 0.02741 0.28183
# Poissons Ratio (y) = 0.06835 0.66845
# Poissons Ratio (z) = 0.41605 0.39575
#
# Static dielectric constant tensor:
#      x y z
#    x 1.722880 0.000000 0.002200 
#    y 0.000000 1.767940 0.000000 
#    z 0.002200 0.000000 1.675180 
# 
# From -- ./inp_files/182914.got.cif
#   From: 2010.05.17/outbox.cif.g08.bks.cpg/sg15_92_cif.got.tgz:182914.got - 2010.06.03 18:47:42.
