data_PCOD9278981
_publ_section_title
;
Structure prediction by ZEFSAII (Michael W. Deem and Ramdas Pophale) SiO2 
 PCOD9278981
Probable space group: C 2/C
;
_chemical_formula_sum "Si O2"
_cell_formula_units_Z 52
_cell_length_a 20.125077
_cell_length_b 9.379390
_cell_length_c 13.707946
_cell_angle_alpha 90.000000
_cell_angle_beta 72.354510
_cell_angle_gamma 90.000000
_cell_volume 2465.782588
_symmetry_space_group_name_H-M "C 2/C"
_symmetry_group_IT_number 15
_symmetry_cell_setting 'monoclinic'
loop_
_space_group_symop_operation_xyz
x,y,z
-x,y,1/2-z
-x,-y,-z
x,-y,1/2+z
1/2+x,1/2+y,z
1/2-x,1/2+y,1/2-z
1/2-x,1/2-y,-z
1/2+x,1/2-y,1/2+z
loop_
_atom_site_type_symbol
_atom_site_label
_atom_site_fract_x
_atom_site_fract_y
_atom_site_fract_z
Si Si1 0.644938 0.814726 0.710583
Si Si2 0.795783 0.467217 0.450930
Si Si3 0.416400 0.380730 0.110941
Si Si4 0.644228 0.345527 0.552910
Si Si5 0.000000 0.799430 0.250000
Si Si6 0.828644 0.121679 0.241124
Si Si7 0.271837 0.115431 0.649034
O O1 0.628988 0.756013 0.827573
O O2 0.568945 0.791811 0.697977
O O3 0.702069 0.701235 0.649532
O O4 0.674209 0.964055 0.660584
O O5 0.712430 0.436069 0.487055
O O6 0.830840 0.317445 0.458226
O O7 0.811321 0.574487 0.533102
O O8 0.480266 0.380254 0.158571
O O9 0.374041 0.524325 0.150645
O O10 0.418936 0.365276 0.994158
O O11 0.632971 0.377114 0.671510
O O12 0.810507 0.274805 0.203798
O O13 0.757539 0.032656 0.293764
#
# Coordination Sequence:
#
# PCOD9278981 Si02
#       7
#     8   8   8   8   4   8   8
#     4   9  19  35  58  83 113 160 201 234 286 364
#     4  10  21  34  58  91 126 147 196 242 312 357
#     4   9  20  39  58  79 116 153 201 241 288 349
#     4  10  22  35  55  94 121 150 187 257 304 346
#     4   8  20  38  64  80 110 172 204 232 290 350
#     4  10  22  35  60  89 122 152 193 242 307 355
#     4  10  21  33  59  88 121 157 186 249 304 357
#
# _framework density 21.088638
#
# number of rings (size 3 to 8) (size 9 to 14) (size 15 to 20)
#    0.923    1.538    0.000    1.385   15.077    2.462 
#    0.000    1.538    0.000    0.923    0.000    0.000 
#    0.000    0.000    0.000    0.000    0.000    0.000 
#
# Total GULP energy -144774.009301 kJ/mol
# GULP energy per Si atom -5568.231127 kJ/mol
# Density = 2.104064 g / cm^3
# Si number density = 21.088638 Si / 1000 Ang^3
#
#
#
# Elastic Constant Matrix: (Units=GPa)
#
#
# Indices 1 2 3 4 5 6 
#
# 1 44.2118 14.6013 34.0477 0.0000 24.6253 0.0000
# 2 14.6013 78.2548 51.8204 0.0000 18.1515 0.0000
# 3 34.0477 51.8204 94.2515 0.0000 40.7839 0.0000
# 4 0.0000 0.0000 0.0000 32.1176 0.0000 8.6711
# 5 24.6253 18.1515 40.7839 0.0000 37.7733 0.0000
# 6 0.0000 0.0000 0.0000 8.6711 0.0000 1.1144
#
#
#
# Elastic Compliance Matrix: (Units=1/GPa)
#
#
# Indices 1 2 3 4 5 6 
#
# 1 0.037083 0.001532 -0.006492 0.000000 -0.017902 0.000000
# 2 0.001532 0.020531 -0.013402 0.000000 0.003605 0.000000
# 3 -0.006492 -0.013402 0.029477 0.000000 -0.021155 0.000000
# 4 0.000000 0.000000 0.000000 -0.028289 0.000000 0.220108
# 5 -0.017902 0.003605 -0.021155 0.000000 0.059253 0.000000
# 6 0.000000 0.000000 0.000000 0.220108 0.000000 -0.815278
#
#
# Mechanical properties :
#
#
# Convention : Reuss Voigt Hill
#
# Bulk Modulus (GPa) = 19.85350 46.40631 33.12990
# Shear Modulus (GPa) = -7.76747 21.95099 7.09176
#
# Velocity S-wave (km/s) = -1.92126 3.22979 1.83579
# Velocity P-wave (km/s) = 2.12440 5.99682 4.49861
#
# Compressibility (1/GPa) = 0.05036896
#
# Stress axis : x y z
#
# Youngs Moduli (GPa) = 26.96648 48.70601 33.92441
#
# Poissons Ratio (x) = -0.07463 0.22023
# Poissons Ratio (y) = -0.04132 0.45465
# Poissons Ratio (z) = 0.17506 0.65275
#
# Static dielectric constant tensor:
#      x y z
#    x 1.800740 0.000000 0.048970 
#    y 0.000000 1.766400 0.000000 
#    z 0.048970 0.000000 1.814470 
# 
# From -- ./inp_files/171348.got.cif
#   From: 2010.05.17/outbox.cif.g08.bks.cpg/sg15_86_cif.got.tgz:171348.got - 2010.06.03 18:47:42.
