data_PCOD9278628
_publ_section_title
;
Structure prediction by ZEFSAII (Michael W. Deem and Ramdas Pophale) SiO2 
 PCOD9278628
Probable space group: C 2/C
;
_chemical_formula_sum "Si O2"
_cell_formula_units_Z 44
_cell_length_a 12.442982
_cell_length_b 7.788194
_cell_length_c 21.821642
_cell_angle_alpha 90.000000
_cell_angle_beta 122.446334
_cell_angle_gamma 90.000000
_cell_volume 1784.582923
_symmetry_space_group_name_H-M "C 2/C"
_symmetry_group_IT_number 15
_symmetry_cell_setting 'monoclinic'
loop_
_space_group_symop_operation_xyz
x,y,z
-x,y,1/2-z
-x,-y,-z
x,-y,1/2+z
1/2+x,1/2+y,z
1/2-x,1/2+y,1/2-z
1/2-x,1/2-y,-z
1/2+x,1/2-y,1/2+z
loop_
_atom_site_type_symbol
_atom_site_label
_atom_site_fract_x
_atom_site_fract_y
_atom_site_fract_z
Si Si1 0.722223 0.861895 0.257648
Si Si2 0.000000 0.582022 0.250000
Si Si3 0.688230 0.480634 0.465164
Si Si4 0.918973 0.616795 0.092816
Si Si5 0.660685 0.080701 0.609719
Si Si6 0.587498 0.588473 0.136439
O O1 0.750155 0.926711 0.196914
O O2 0.643889 0.693049 0.212504
O O3 0.618378 0.972593 0.261798
O O4 0.848852 0.899880 0.336134
O O5 0.953892 0.668016 0.173159
O O6 0.793270 0.504750 0.550248
O O7 0.625132 0.291828 0.452143
O O8 0.773026 0.489311 0.429638
O O9 0.563290 0.592689 0.416813
O O10 0.033915 0.519835 0.093265
O O11 0.634060 0.285138 0.596542
#
# Coordination Sequence:
#
# PCOD9278628 Si02
#       6
#     8   4   8   8   8   8
#     4   9  22  39  60  96 127 172 217 268 324 377
#     4  10  20  44  66  88 136 168 214 278 316 390
#     4  11  23  43  69  97 133 178 212 273 335 382
#     4  10  23  42  70  98 131 176 219 263 336 393
#     4   9  22  43  63  97 136 169 220 273 315 393
#     4  10  23  40  64  97 132 173 225 268 325 389
#
# _framework density 24.655619999999999
#
# number of rings (size 3 to 8) (size 9 to 14) (size 15 to 20)
#    1.091    1.091    0.000    1.636    5.091    2.909 
#    0.000    8.182    0.000    0.000    0.000    0.000 
#    0.000    0.000    0.000    0.000    0.000    0.000 
#
# Total GULP energy -122474.818718 kJ/mol
# GULP energy per Si atom -5567.037214 kJ/mol
# Density = 2.459950 g / cm^3
# Si number density = 24.655620 Si / 1000 Ang^3
#
#
#
# Elastic Constant Matrix: (Units=GPa)
#
#
# Indices 1 2 3 4 5 6 
#
# 1 87.8184 3.2517 35.9004 0.0000 -3.0610 0.0000
# 2 3.2517 40.5816 13.9489 0.0000 6.2381 0.0000
# 3 35.9004 13.9489 102.2321 0.0000 7.1583 0.0000
# 4 0.0000 0.0000 0.0000 -29.6158 0.0000 2.8871
# 5 -3.0610 6.2381 7.1583 0.0000 41.3181 0.0000
# 6 0.0000 0.0000 0.0000 2.8871 0.0000 21.6776
#
#
#
# Elastic Compliance Matrix: (Units=1/GPa)
#
#
# Indices 1 2 3 4 5 6 
#
# 1 0.013436 0.000328 -0.004889 0.000000 0.001793 0.000000
# 2 0.000328 0.026324 -0.003472 0.000000 -0.003348 0.000000
# 3 -0.004889 -0.003472 0.012108 0.000000 -0.001936 0.000000
# 4 0.000000 0.000000 0.000000 -0.033333 0.000000 0.004439
# 5 0.001793 -0.003348 -0.001936 0.000000 0.025176 0.000000
# 6 0.000000 0.000000 0.000000 0.004439 0.000000 0.045539
#
#
# Mechanical properties :
#
#
# Convention : Reuss Voigt Hill
#
# Bulk Modulus (GPa) = 27.93173 37.42600 32.67887
# Shear Modulus (GPa) = 42.64412 18.51137 30.57774
#
# Velocity S-wave (km/s) = 4.16335 2.74304 3.52546
# Velocity P-wave (km/s) = 5.87066 5.02442 5.46395
#
# Compressibility (1/GPa) = 0.03580158
#
# Stress axis : x y z
#
# Youngs Moduli (GPa) = 74.42729 37.98856 82.59224
#
# Poissons Ratio (x) = -0.01247 0.40376
# Poissons Ratio (y) = -0.02442 0.28680
# Poissons Ratio (z) = 0.36384 0.13191
#
# Static dielectric constant tensor:
#      x y z
#    x 1.976040 0.000000 0.022670 
#    y 0.000000 2.164140 0.000000 
#    z 0.022670 0.000000 2.074000 
# 
# From -- ./inp_files/268128.got.cif
#   From: 2010.05.17/outbox.cif.g08.bks.cpg/sg15_135_cif.got.tgz:268128.got - 2010.06.03 18:47:42.
