data_PCOD9278811
_publ_section_title
;
Structure prediction by ZEFSAII (Michael W. Deem and Ramdas Pophale) SiO2 
 PCOD9278811
Probable space group: C 2/C
;
_chemical_formula_sum "Si O2"
_cell_formula_units_Z 52
_cell_length_a 8.273204
_cell_length_b 12.256541
_cell_length_c 25.793131
_cell_angle_alpha 90.000000
_cell_angle_beta 43.438577
_cell_angle_gamma 90.000000
_cell_volume 1798.319191
_symmetry_space_group_name_H-M "C 2/C"
_symmetry_group_IT_number 15
_symmetry_cell_setting 'monoclinic'
loop_
_space_group_symop_operation_xyz
x,y,z
-x,y,1/2-z
-x,-y,-z
x,-y,1/2+z
1/2+x,1/2+y,z
1/2-x,1/2+y,1/2-z
1/2-x,1/2-y,-z
1/2+x,1/2-y,1/2+z
loop_
_atom_site_type_symbol
_atom_site_label
_atom_site_fract_x
_atom_site_fract_y
_atom_site_fract_z
Si Si1 0.264665 0.656825 0.040875
Si Si2 0.241783 0.021738 0.040717
Si Si3 0.800105 0.103912 0.663115
Si Si4 0.000000 0.589549 0.250000
Si Si5 0.764677 0.724985 0.928743
Si Si6 0.239017 0.632060 0.291744
Si Si7 0.760595 0.372770 0.204250
O O1 0.275842 0.536417 0.011995
O O2 0.018591 0.669658 0.127921
O O3 0.250000 0.750000 0.000000
O O4 0.514788 0.681743 0.010195
O O5 0.212626 0.147999 0.063262
O O6 0.057053 0.944788 0.113571
O O7 0.500000 0.000000 0.000000
O O8 0.775293 0.187210 0.621798
O O9 0.715646 0.145165 0.738729
O O10 0.657184 0.994957 0.679629
O O11 0.196314 0.643929 0.239954
O O12 0.019199 0.672099 0.879670
O O13 0.500000 0.664467 0.250000
O O14 0.238172 0.502823 0.303604
O O15 0.500000 0.335227 0.250000
#
# Coordination Sequence:
#
# PCOD9278811 Si02
#       7
#     8   8   8   4   8   8   8
#     4  11  25  47  79 121 165 225 285 353 439 524
#     4  11  25  43  78 112 160 211 289 339 427 528
#     4  10  21  45  77 113 164 210 279 350 426 516
#     4  10  20  46  80 118 160 210 282 358 422 526
#     4  11  22  47  78 116 162 224 267 351 439 512
#     4  10  23  45  87 122 163 222 291 359 437 519
#     4  10  22  44  77 116 167 213 286 348 427 528
#
# _framework density 28.915890000000001
#
# number of rings (size 3 to 8) (size 9 to 14) (size 15 to 20)
#    0.000    1.538    4.615    0.000    6.462    0.615 
#    1.385   14.615    0.000    0.923    4.000    0.000 
#    0.000    0.000    0.000    0.000    0.000    0.000 
#
# Total GULP energy -145562.032780 kJ/mol
# GULP energy per Si atom -5598.539722 kJ/mol
# Density = 2.885008 g / cm^3
# Si number density = 28.915890 Si / 1000 Ang^3
#
#
#
# Elastic Constant Matrix: (Units=GPa)
#
#
# Indices 1 2 3 4 5 6 
#
# 1 177.6698 92.7468 90.5678 -0.0009 -39.7416 0.0005
# 2 92.7468 170.9096 63.3341 -0.0005 -29.1280 0.0002
# 3 90.5678 63.3341 197.6034 -0.0028 -49.4703 0.0012
# 4 -0.0009 -0.0005 -0.0028 61.1290 0.0015 -13.3487
# 5 -39.7416 -29.1280 -49.4703 0.0015 65.8734 -0.0009
# 6 0.0005 0.0002 0.0012 -13.3487 -0.0009 60.9545
#
#
#
# Elastic Compliance Matrix: (Units=1/GPa)
#
#
# Indices 1 2 3 4 5 6 
#
# 1 0.009372 -0.003784 -0.002569 0.000000 0.002052 0.000000
# 2 -0.003784 0.008316 -0.000717 0.000000 0.000856 0.000000
# 3 -0.002569 -0.000717 0.007390 0.000000 0.003683 0.000000
# 4 0.000000 0.000000 0.000000 0.017180 0.000000 0.003762
# 5 0.002052 0.000856 0.003683 0.000000 0.019563 0.000000
# 6 0.000000 0.000000 0.000000 0.003762 0.000000 0.017230
#
#
# Mechanical properties :
#
#
# Convention : Reuss Voigt Hill
#
# Bulk Modulus (GPa) = 91.42294 115.49781 103.46038
# Shear Modulus (GPa) = 51.63281 57.56032 54.59656
#
# Velocity S-wave (km/s) = 4.23024 4.46647 4.34996
# Velocity P-wave (km/s) = 7.45288 8.16263 7.81582
#
# Compressibility (1/GPa) = 0.01093817
#
# Stress axis : x y z
#
# Youngs Moduli (GPa) = 106.69514 120.24780 135.32086
#
# Poissons Ratio (x) = 0.45507 0.34765
# Poissons Ratio (y) = 0.40378 0.09697
# Poissons Ratio (z) = 0.27411 0.08617
#
# Static dielectric constant tensor:
#      x y z
#    x 2.315310 0.000000 0.080080 
#    y 0.000000 2.388180 0.000000 
#    z 0.080080 0.000000 2.330950 
# 
# From -- ./inp_files/308494.got.cif
#   From: 2010.05.17/outbox.cif.g08.bks.cpg/sg15_155_cif.got.tgz:308494.got - 2010.06.03 18:47:42.
