data_PCOD9278089
_publ_section_title
;
Structure prediction by ZEFSAII (Michael W. Deem and Ramdas Pophale) SiO2 
 PCOD9278089
Probable space group: C 2/C
;
_chemical_formula_sum "Si O2"
_cell_formula_units_Z 32
_cell_length_a 18.755989
_cell_length_b 4.987456
_cell_length_c 13.130913
_cell_angle_alpha 90.000000
_cell_angle_beta 91.995726
_cell_angle_gamma 90.000000
_cell_volume 1227.581852
_symmetry_space_group_name_H-M "C 2/C"
_symmetry_group_IT_number 15
_symmetry_cell_setting 'monoclinic'
loop_
_space_group_symop_operation_xyz
x,y,z
-x,y,1/2-z
-x,-y,-z
x,-y,1/2+z
1/2+x,1/2+y,z
1/2-x,1/2+y,1/2-z
1/2-x,1/2-y,-z
1/2+x,1/2-y,1/2+z
loop_
_atom_site_type_symbol
_atom_site_label
_atom_site_fract_x
_atom_site_fract_y
_atom_site_fract_z
Si Si1 0.371132 0.763616 0.013313
Si Si2 0.571565 0.040375 0.305101
Si Si3 0.313620 0.735792 0.421173
Si Si4 0.338320 0.571103 0.217558
O O1 0.318245 0.699918 0.107319
O O2 0.431928 0.921881 0.079575
O O3 0.374092 0.474576 0.962026
O O4 0.343321 0.965091 0.927628
O O5 0.500000 0.139831 0.250000
O O6 0.629203 0.279366 0.300910
O O7 0.596731 0.771710 0.248646
O O8 0.250000 0.750000 0.500000
O O9 0.287775 0.628106 0.310269
#
# Coordination Sequence:
#
# PCOD9278089 Si02
#       4
#     8   8   8   8
#     4  10  22  42  60  91 130 153 213 255 297 376
#     4  10  20  42  66  86 125 169 199 258 314 356
#     4  12  24  40  65  92 124 166 206 255 308 366
#     4  10  22  40  64  89 130 156 210 253 306 373
#
# _framework density 26.067509000000001
#
# number of rings (size 3 to 8) (size 9 to 14) (size 15 to 20)
#    1.500    0.000    2.500    3.000    0.000    2.000 
#    0.000    7.500    0.000    0.000    0.000    0.000 
#    0.000    0.000    0.000    0.000    0.000    0.000 
#
# Total GULP energy -89148.511196 kJ/mol
# GULP energy per Si atom -5571.781950 kJ/mol
# Density = 2.600818 g / cm^3
# Si number density = 26.067509 Si / 1000 Ang^3
#
#
#
# Elastic Constant Matrix: (Units=GPa)
#
#
# Indices 1 2 3 4 5 6 
#
# 1 66.5923 36.8117 2.7786 0.0000 14.8967 0.0000
# 2 36.8117 179.4707 38.7001 0.0000 11.2875 0.0000
# 3 2.7786 38.7001 130.7894 0.0000 17.4407 0.0000
# 4 0.0000 0.0000 0.0000 49.7907 0.0000 11.3721
# 5 14.8967 11.2875 17.4407 0.0000 24.6399 0.0000
# 6 0.0000 0.0000 0.0000 11.3721 0.0000 19.3141
#
#
#
# Elastic Compliance Matrix: (Units=1/GPa)
#
#
# Indices 1 2 3 4 5 6 
#
# 1 0.019638 -0.003778 0.002267 0.000000 -0.011747 0.000000
# 2 -0.003778 0.006739 -0.001995 0.000000 0.000609 0.000000
# 3 0.002267 -0.001995 0.009109 0.000000 -0.006904 0.000000
# 4 0.000000 0.000000 0.000000 0.023205 0.000000 -0.013663
# 5 -0.011747 0.000609 -0.006904 0.000000 0.052294 0.000000
# 6 0.000000 0.000000 0.000000 -0.013663 0.000000 0.059820
#
#
# Mechanical properties :
#
#
# Convention : Reuss Voigt Hill
#
# Bulk Modulus (GPa) = 35.11972 59.27036 47.19504
# Shear Modulus (GPa) = 26.69390 38.65305 32.67348
#
# Velocity S-wave (km/s) = 3.20352 3.85490 3.54420
# Velocity P-wave (km/s) = 5.21394 6.52689 5.90701
#
# Compressibility (1/GPa) = 0.02847403
#
# Stress axis : x y z
#
# Youngs Moduli (GPa) = 50.92041 148.39536 109.78543
#
# Poissons Ratio (x) = 0.56066 -0.24890
# Poissons Ratio (y) = 0.19239 0.21902
# Poissons Ratio (z) = -0.11545 0.29604
#
# Static dielectric constant tensor:
#      x y z
#    x 2.094280 0.000000 -0.053960 
#    y 0.000000 2.001220 0.000000 
#    z -0.053960 0.000000 2.222790 
# 
# From -- ./inp_files/164741.got.cif
#   From: 2010.05.17/outbox.cif.g08.bks.cpg/sg15_83_cif.got.tgz:164741.got - 2010.06.03 18:47:42.
