data_PCOD9278288
_publ_section_title
;
Structure prediction by ZEFSAII (Michael W. Deem and Ramdas Pophale) SiO2 
 PCOD9278288
Probable space group: C 2/C
;
_chemical_formula_sum "Si O2"
_cell_formula_units_Z 56
_cell_length_a 9.113138
_cell_length_b 27.914134
_cell_length_c 11.542503
_cell_angle_alpha 90.000000
_cell_angle_beta 55.212001
_cell_angle_gamma 90.000000
_cell_volume 2411.445159
_symmetry_space_group_name_H-M "C 2/C"
_symmetry_group_IT_number 15
_symmetry_cell_setting 'monoclinic'
loop_
_space_group_symop_operation_xyz
x,y,z
-x,y,1/2-z
-x,-y,-z
x,-y,1/2+z
1/2+x,1/2+y,z
1/2-x,1/2+y,1/2-z
1/2-x,1/2-y,-z
1/2+x,1/2-y,1/2+z
loop_
_atom_site_type_symbol
_atom_site_label
_atom_site_fract_x
_atom_site_fract_y
_atom_site_fract_z
Si Si1 0.797458 0.980612 0.380216
Si Si2 0.416334 0.610722 0.918324
Si Si3 0.219802 0.146374 0.952651
Si Si4 0.051347 0.657987 0.041612
Si Si5 0.546922 0.070625 0.539813
Si Si6 0.000000 0.736716 0.250000
Si Si7 0.000000 0.807073 0.750000
Si Si8 0.671558 0.780974 0.290597
O O1 0.838904 0.942929 0.464116
O O2 0.657709 0.949870 0.360301
O O3 0.000000 0.993533 0.250000
O O4 0.681182 0.026547 0.463817
O O5 0.500000 0.612913 0.750000
O O6 0.560409 0.624107 0.947733
O O7 0.249064 0.645898 0.997517
O O8 0.365690 0.104690 0.903112
O O9 0.140081 0.162085 0.113201
O O10 0.274952 0.193147 0.852835
O O11 0.984090 0.700559 0.150511
O O12 0.958802 0.606424 0.069445
O O13 0.054065 0.680905 0.912638
O O14 0.167700 0.770765 0.193220
O O15 0.086094 0.770045 0.802445
#
# Coordination Sequence:
#
# PCOD9278288 Si02
#       8
#     8   8   8   8   8   4   4   8
#     4   9  21  45  73 102 143 180 232 293 357 436
#     4  10  20  42  69  99 133 183 237 282 348 427
#     4  12  24  41  69 100 142 187 241 290 359 421
#     4  11  22  42  67  97 141 184 239 290 346 427
#     4  10  23  42  72 105 143 183 232 294 361 425
#     4  12  24  40  68 100 136 190 240 294 352 408
#     4  12  26  40  60 102 144 186 232 304 360 408
#     4  12  23  42  64  95 141 187 243 292 348 422
#
# _framework density 23.222591000000001
#
# number of rings (size 3 to 8) (size 9 to 14) (size 15 to 20)
#    0.000    1.143    1.429    5.143    1.000    0.571 
#    0.000    0.000    6.286    0.000    0.000    0.000 
#    0.000    0.000    0.000    0.000    0.000    0.000 
#
# Total GULP energy -156363.477203 kJ/mol
# GULP energy per Si atom -5584.409900 kJ/mol
# Density = 2.316974 g / cm^3
# Si number density = 23.222591 Si / 1000 Ang^3
#
#
#
# Elastic Constant Matrix: (Units=GPa)
#
#
# Indices 1 2 3 4 5 6 
#
# 1 136.6849 51.1513 -2.6050 0.0000 -13.7593 0.0000
# 2 51.1513 132.2714 32.0441 0.0000 -15.2895 0.0000
# 3 -2.6050 32.0441 58.1851 0.0000 -13.3027 0.0000
# 4 0.0000 0.0000 0.0000 26.0508 0.0000 -12.8313
# 5 -13.7593 -15.2895 -13.3027 0.0000 31.6855 0.0000
# 6 0.0000 0.0000 0.0000 -12.8313 0.0000 54.5776
#
#
#
# Elastic Compliance Matrix: (Units=1/GPa)
#
#
# Indices 1 2 3 4 5 6 
#
# 1 0.009228 -0.003989 0.003414 0.000000 0.003515 0.000000
# 2 -0.003989 0.010621 -0.005810 0.000000 0.000953 0.000000
# 3 0.003414 -0.005810 0.022386 0.000000 0.008077 0.000000
# 4 0.000000 0.000000 0.000000 0.043414 0.000000 0.010207
# 5 0.003515 0.000953 0.008077 0.000000 0.036938 0.000000
# 6 0.000000 0.000000 0.000000 0.010207 0.000000 0.020722
#
#
# Mechanical properties :
#
#
# Convention : Reuss Voigt Hill
#
# Bulk Modulus (GPa) = 33.93972 54.25803 44.09887
# Shear Modulus (GPa) = 30.13874 38.89951 34.51913
#
# Velocity S-wave (km/s) = 3.60643 4.09720 3.85963
# Velocity P-wave (km/s) = 5.65584 6.76741 6.23644
#
# Compressibility (1/GPa) = 0.02946401
#
# Stress axis : x y z
#
# Youngs Moduli (GPa) = 108.36651 94.15685 44.67160
#
# Poissons Ratio (x) = 0.37562 -0.15250
# Poissons Ratio (y) = 0.43230 0.25953
# Poissons Ratio (z) = -0.36995 0.54702
#
# Static dielectric constant tensor:
#      x y z
#    x 1.866120 0.000000 -0.031710 
#    y 0.000000 1.829440 0.000000 
#    z -0.031710 0.000000 1.896620 
# 
# From -- ./inp_files/81313.got.cif
#   From: 2010.05.17/outbox.cif.g08.bks.cpg/sg15_41_cif.got.tgz:81313.got - 2010.06.03 18:47:42.
