data_PCOD9278400
_publ_section_title
;
Structure prediction by ZEFSAII (Michael W. Deem and Ramdas Pophale) SiO2 
 PCOD9278400
Probable space group: C 2/C
;
_chemical_formula_sum "Si O2"
_cell_formula_units_Z 60
_cell_length_a 18.173500
_cell_length_b 23.622321
_cell_length_c 9.304693
_cell_angle_alpha 90.000000
_cell_angle_beta 37.303599
_cell_angle_gamma 90.000000
_cell_volume 2420.824519
_symmetry_space_group_name_H-M "C 2/C"
_symmetry_group_IT_number 15
_symmetry_cell_setting 'monoclinic'
loop_
_space_group_symop_operation_xyz
x,y,z
-x,y,1/2-z
-x,-y,-z
x,-y,1/2+z
1/2+x,1/2+y,z
1/2-x,1/2+y,1/2-z
1/2-x,1/2-y,-z
1/2+x,1/2-y,1/2+z
loop_
_atom_site_type_symbol
_atom_site_label
_atom_site_fract_x
_atom_site_fract_y
_atom_site_fract_z
Si Si1 0.172154 0.533611 0.471823
Si Si2 0.000000 0.694659 0.250000
Si Si3 0.158795 0.339150 0.928896
Si Si4 0.071608 0.130354 0.003163
Si Si5 0.555616 0.550719 0.506483
Si Si6 0.253482 0.816951 0.997722
Si Si7 0.411084 0.811608 0.170296
Si Si8 0.189171 0.567111 0.765986
O O1 0.120842 0.595324 0.511908
O O2 0.185405 0.533383 0.621927
O O3 0.127196 0.474603 0.477363
O O4 0.304445 0.538236 0.197368
O O5 0.886376 0.663921 0.349296
O O6 0.930176 0.724580 0.494102
O O7 0.258298 0.337958 0.647969
O O8 0.181371 0.309833 0.049374
O O9 0.041721 0.308878 0.042882
O O10 0.154092 0.166123 0.768030
O O11 0.172277 0.085490 0.908568
O O12 0.971371 0.103343 0.054789
O O13 0.000000 0.156165 0.250000
O O14 0.500000 0.556157 0.750000
O O15 0.500000 0.500000 0.500000
O O16 0.250000 0.750000 0.000000
O O17 0.380570 0.873985 0.153939
#
# Coordination Sequence:
#
# PCOD9278400 Si02
#       8
#     8   4   8   8   8   8   8   8
#     4  11  22  34  56  91 131 176 222 260 326 392
#     4  10  20  42  76  94 124 172 208 276 340 396
#     4   9  21  41  64  90 131 171 217 288 333 384
#     4  12  24  44  65  95 137 177 222 279 333 400
#     4  12  22  34  56  89 131 181 217 259 322 401
#     4  11  25  48  70  99 130 167 230 282 345 402
#     4   9  19  39  65  93 125 172 223 266 333 391
#     4  11  22  36  60  91 135 178 222 263 322 405
#
# _framework density 24.784942999999998
#
# number of rings (size 3 to 8) (size 9 to 14) (size 15 to 20)
#    0.000    1.333    4.000    2.000    1.867    0.533 
#    8.400    2.000    0.000    0.000    0.000    0.000 
#    0.000    0.000    0.000    0.000    0.000    0.000 
#
# Total GULP energy -167351.699883 kJ/mol
# GULP energy per Si atom -5578.389996 kJ/mol
# Density = 2.472853 g / cm^3
# Si number density = 24.784943 Si / 1000 Ang^3
#
#
#
# Elastic Constant Matrix: (Units=GPa)
#
#
# Indices 1 2 3 4 5 6 
#
# 1 60.7904 20.3358 47.6329 0.0001 36.1511 -0.0001
# 2 20.3358 53.6980 31.9192 0.0000 15.8438 0.0000
# 3 47.6329 31.9192 220.0174 0.0001 46.6333 -0.0001
# 4 0.0001 0.0000 0.0001 6.6488 -0.0001 6.0475
# 5 36.1511 15.8438 46.6333 -0.0001 61.9332 0.0000
# 6 -0.0001 0.0000 -0.0001 6.0475 0.0000 15.8470
#
#
#
# Elastic Compliance Matrix: (Units=1/GPa)
#
#
# Indices 1 2 3 4 5 6 
#
# 1 0.027953 -0.005228 -0.002521 -0.000001 -0.013081 0.000000
# 2 -0.005228 0.022038 -0.001805 0.000000 -0.001227 0.000000
# 3 -0.002521 -0.001805 0.005882 0.000000 -0.002495 0.000000
# 4 -0.000001 0.000000 0.000000 0.230365 0.000001 -0.087912
# 5 -0.013081 -0.001227 -0.002495 0.000001 0.025975 -0.000001
# 6 0.000000 0.000000 0.000000 -0.087912 -0.000001 0.096652
#
#
# Mechanical properties :
#
#
# Convention : Reuss Voigt Hill
#
# Bulk Modulus (GPa) = 27.20032 59.36464 43.28248
# Shear Modulus (GPa) = 11.35779 32.52700 21.94239
#
# Velocity S-wave (km/s) = 2.14301 3.62659 2.97865
# Velocity P-wave (km/s) = 4.13783 6.44516 5.41580
#
# Compressibility (1/GPa) = 0.03676428
#
# Stress axis : x y z
#
# Youngs Moduli (GPa) = 35.77424 45.37701 170.02071
#
# Poissons Ratio (x) = 0.23723 0.42857
# Poissons Ratio (y) = 0.18703 0.30693
# Poissons Ratio (z) = 0.09018 0.08192
#
# Static dielectric constant tensor:
#      x y z
#    x 2.012610 -0.000010 -0.025760 
#    y -0.000010 -6.948780 0.000010 
#    z -0.025760 0.000010 2.048920 
# 
# From -- ./inp_files/59118.got.cif
#   From: 2010.05.17/outbox.cif.g08.bks.cpg/sg15_30_cif.got.tgz:59118.got - 2010.06.03 18:47:42.
