data_PCOD9278323
_publ_section_title
;
Structure prediction by ZEFSAII (Michael W. Deem and Ramdas Pophale) SiO2 
 PCOD9278323
Probable space group: C 2/C
;
_chemical_formula_sum "Si O2"
_cell_formula_units_Z 36
_cell_length_a 16.951161
_cell_length_b 7.121567
_cell_length_c 15.200102
_cell_angle_alpha 90.000000
_cell_angle_beta 63.524842
_cell_angle_gamma 90.000000
_cell_volume 1642.504358
_symmetry_space_group_name_H-M "C 2/C"
_symmetry_group_IT_number 15
_symmetry_cell_setting 'monoclinic'
loop_
_space_group_symop_operation_xyz
x,y,z
-x,y,1/2-z
-x,-y,-z
x,-y,1/2+z
1/2+x,1/2+y,z
1/2-x,1/2+y,1/2-z
1/2-x,1/2-y,-z
1/2+x,1/2-y,1/2+z
loop_
_atom_site_type_symbol
_atom_site_label
_atom_site_fract_x
_atom_site_fract_y
_atom_site_fract_z
Si Si1 0.885986 0.457140 0.653900
Si Si2 0.404929 0.537766 0.327598
Si Si3 0.695917 0.642599 0.296827
Si Si4 0.000000 0.334331 0.750000
Si Si5 0.089715 0.882738 0.475512
O O1 0.800695 0.356429 0.740029
O O2 0.850784 0.664110 0.651939
O O3 0.962066 0.452092 0.688830
O O4 0.916488 0.328583 0.557723
O O5 0.500000 0.616243 0.250000
O O6 0.337462 0.591940 0.285020
O O7 0.425134 0.313707 0.320142
O O8 0.386589 0.608110 0.434118
O O9 0.663173 0.486928 0.381113
O O10 0.000000 0.000000 0.500000
#
# Coordination Sequence:
#
# PCOD9278323 Si02
#       5
#     8   8   8   4   8
#     4  12  25  45  73 100 144 184 234 288 353 412
#     4  10  21  44  73  95 143 179 226 290 344 407
#     4  12  25  47  70 104 144 185 230 296 349 409
#     4  10  20  42  70  94 134 186 224 276 352 402
#     4  12  22  46  74 102 140 188 232 289 349 420
#
# _framework density 21.917749000000001
#
# number of rings (size 3 to 8) (size 9 to 14) (size 15 to 20)
#    0.667    0.000    8.889    0.000    1.556    1.778 
#    4.000    2.222    0.000    0.000    0.000    0.000 
#    0.000    0.000    0.000    0.000    0.000    0.000 
#
# Total GULP energy -100624.452016 kJ/mol
# GULP energy per Si atom -5590.247334 kJ/mol
# Density = 2.186786 g / cm^3
# Si number density = 21.917749 Si / 1000 Ang^3
#
#
#
# Elastic Constant Matrix: (Units=GPa)
#
#
# Indices 1 2 3 4 5 6 
#
# 1 82.5671 0.6782 28.5314 0.0000 16.9500 0.0000
# 2 0.6782 102.3818 17.1693 -0.0001 7.6774 0.0000
# 3 28.5314 17.1693 131.9796 0.0000 33.5088 0.0000
# 4 0.0000 -0.0001 0.0000 65.5909 0.0000 -7.2279
# 5 16.9500 7.6774 33.5088 0.0000 34.6727 0.0000
# 6 0.0000 0.0000 0.0000 -7.2279 0.0000 32.4497
#
#
#
# Elastic Compliance Matrix: (Units=1/GPa)
#
#
# Indices 1 2 3 4 5 6 
#
# 1 0.013771 0.000589 -0.001738 0.000000 -0.005183 0.000000
# 2 0.000589 0.010053 -0.001056 0.000000 -0.001493 0.000000
# 3 -0.001738 -0.001056 0.010356 0.000000 -0.008925 0.000000
# 4 0.000000 0.000000 0.000000 0.015630 0.000000 0.003481
# 5 -0.005183 -0.001493 -0.008925 0.000000 0.040331 0.000000
# 6 0.000000 0.000000 0.000000 0.003481 0.000000 0.031592
#
#
# Mechanical properties :
#
#
# Convention : Reuss Voigt Hill
#
# Bulk Modulus (GPa) = 33.59080 45.52069 39.55575
# Shear Modulus (GPa) = 36.74708 44.57932 40.66320
#
# Velocity S-wave (km/s) = 4.09906 4.51481 4.31195
# Velocity P-wave (km/s) = 6.14509 6.92763 6.54806
#
# Compressibility (1/GPa) = 0.02977005
#
# Stress axis : x y z
#
# Youngs Moduli (GPa) = 72.61631 99.47766 96.56277
#
# Poissons Ratio (x) = -0.05858 0.16779
# Poissons Ratio (y) = -0.04276 0.10196
# Poissons Ratio (z) = 0.12618 0.10504
#
# Static dielectric constant tensor:
#      x y z
#    x 1.791550 0.000000 -0.033870 
#    y 0.000000 1.851080 0.000000 
#    z -0.033870 0.000000 1.779670 
# 
# From -- ./inp_files/158722.got.cif
#   From: 2010.05.17/outbox.cif.g08.bks.cpg/sg15_80_cif.got.tgz:158722.got - 2010.06.03 18:47:42.
