data_PCOD9278748
_publ_section_title
;
Structure prediction by ZEFSAII (Michael W. Deem and Ramdas Pophale) SiO2 
 PCOD9278748
Probable space group: C 2/C
;
_chemical_formula_sum "Si O2"
_cell_formula_units_Z 48
_cell_length_a 6.517998
_cell_length_b 30.555136
_cell_length_c 14.070579
_cell_angle_alpha 90.000000
_cell_angle_beta 53.323634
_cell_angle_gamma 90.000000
_cell_volume 2247.484698
_symmetry_space_group_name_H-M "C 2/C"
_symmetry_group_IT_number 15
_symmetry_cell_setting 'monoclinic'
loop_
_space_group_symop_operation_xyz
x,y,z
-x,y,1/2-z
-x,-y,-z
x,-y,1/2+z
1/2+x,1/2+y,z
1/2-x,1/2+y,1/2-z
1/2-x,1/2-y,-z
1/2+x,1/2-y,1/2+z
loop_
_atom_site_type_symbol
_atom_site_label
_atom_site_fract_x
_atom_site_fract_y
_atom_site_fract_z
Si Si1 0.865705 0.071069 0.938129
Si Si2 0.500000 0.500247 0.250000
Si Si3 0.000000 0.652713 0.250000
Si Si4 0.138458 0.076391 0.329316
Si Si5 0.279364 0.801415 0.981103
Si Si6 0.131550 0.628076 0.467740
Si Si7 0.221679 0.146513 0.859008
O O1 0.875870 0.028886 0.867981
O O2 0.125515 0.099264 0.847983
O O3 0.845395 0.067697 0.059931
O O4 0.627543 0.100042 0.969298
O O5 0.687889 0.532067 0.258031
O O6 0.180451 0.616951 0.250401
O O7 0.186394 0.682551 0.136838
O O8 0.857880 0.094047 0.380954
O O9 0.533799 0.825203 0.952134
O O10 0.250000 0.750000 0.000000
O O11 0.018418 0.822192 0.094166
O O12 0.235419 0.641462 0.541651
O O13 0.500000 0.161187 0.750000
#
# Coordination Sequence:
#
# PCOD9278748 Si02
#       7
#     8   4   4   8   8   8   8
#     4  10  22  43  62 102 135 179 236 285 330 409
#     4  12  24  38  67 102 138 182 229 294 336 388
#     4  12  22  52  67  92 144 176 221 282 340 416
#     4  11  24  44  67  96 136 191 228 276 346 416
#     4  11  25  43  70 105 131 170 230 286 331 417
#     4  10  20  45  69  89 136 182 224 267 358 399
#     4  10  21  42  67  96 140 177 218 275 353 405
#
# _framework density 21.357208
#
# number of rings (size 3 to 8) (size 9 to 14) (size 15 to 20)
#    0.000    1.333    5.000    2.500    0.000    4.667 
#   10.500    0.000    0.000    0.000    0.000    0.000 
#    0.000    0.000    0.000    0.000    0.000    0.000 
#
# Total GULP energy -133612.582852 kJ/mol
# GULP energy per Si atom -5567.190952 kJ/mol
# Density = 2.130860 g / cm^3
# Si number density = 21.357208 Si / 1000 Ang^3
#
#
#
# Elastic Constant Matrix: (Units=GPa)
#
#
# Indices 1 2 3 4 5 6 
#
# 1 106.5308 39.9686 13.6367 0.0000 -6.1351 0.0000
# 2 39.9686 161.6775 50.1683 0.0000 7.1731 0.0000
# 3 13.6367 50.1683 71.1985 0.0000 -11.2377 0.0000
# 4 0.0000 0.0000 0.0000 105.7527 0.0000 66.3669
# 5 -6.1351 7.1731 -11.2377 0.0000 37.8566 0.0000
# 6 0.0000 0.0000 0.0000 66.3669 0.0000 73.1332
#
#
#
# Elastic Compliance Matrix: (Units=1/GPa)
#
#
# Indices 1 2 3 4 5 6 
#
# 1 0.010534 -0.002811 0.000332 0.000000 0.002338 0.000000
# 2 -0.002811 0.009082 -0.006510 0.000000 -0.004109 0.000000
# 3 0.000332 -0.006510 0.019695 0.000000 0.007134 0.000000
# 4 0.000000 0.000000 0.000000 0.021965 0.000000 -0.019933
# 5 0.002338 -0.004109 0.007134 0.000000 0.029691 0.000000
# 6 0.000000 0.000000 0.000000 -0.019933 0.000000 0.031763
#
#
# Mechanical properties :
#
#
# Convention : Reuss Voigt Hill
#
# Bulk Modulus (GPa) = 46.87457 60.77266 53.82362
# Shear Modulus (GPa) = 33.82550 59.05739 46.44145
#
# Velocity S-wave (km/s) = 3.98401 5.26424 4.66822
# Velocity P-wave (km/s) = 6.56953 8.09115 7.36972
#
# Compressibility (1/GPa) = 0.02133353
#
# Stress axis : x y z
#
# Youngs Moduli (GPa) = 94.93353 110.10407 50.77543
#
# Poissons Ratio (x) = 0.30949 -0.01687
# Poissons Ratio (y) = 0.26684 0.33054
# Poissons Ratio (z) = -0.03153 0.71676
#
# Static dielectric constant tensor:
#      x y z
#    x 1.795090 0.000000 0.330460 
#    y 0.000000 1.770240 0.000000 
#    z 0.330460 0.000000 -2.232010 
# 
# From -- ./inp_files/130614.got.cif
#   From: 2010.05.17/outbox.cif.g08.bks.cpg/sg15_66_cif.got.tgz:130614.got - 2010.06.03 18:47:42.
