data_PCOD9278075
_publ_section_title
;
Structure prediction by ZEFSAII (Michael W. Deem and Ramdas Pophale) SiO2 
 PCOD9278075
Probable space group: C 2/C
;
_chemical_formula_sum "Si O2"
_cell_formula_units_Z 64
_cell_length_a 11.969104
_cell_length_b 15.002327
_cell_length_c 26.831129
_cell_angle_alpha 90.000000
_cell_angle_beta 135.169546
_cell_angle_gamma 90.000000
_cell_volume 3396.684979
_symmetry_space_group_name_H-M "C 2/C"
_symmetry_group_IT_number 15
_symmetry_cell_setting 'monoclinic'
loop_
_space_group_symop_operation_xyz
x,y,z
-x,y,1/2-z
-x,-y,-z
x,-y,1/2+z
1/2+x,1/2+y,z
1/2-x,1/2+y,1/2-z
1/2-x,1/2-y,-z
1/2+x,1/2-y,1/2+z
loop_
_atom_site_type_symbol
_atom_site_label
_atom_site_fract_x
_atom_site_fract_y
_atom_site_fract_z
Si Si1 0.010450 0.340398 0.693531
Si Si2 0.173005 0.114632 0.941940
Si Si3 0.351160 0.651424 0.796569
Si Si4 0.665174 0.242101 0.025518
Si Si5 0.359367 0.167122 0.673786
Si Si6 0.663894 0.288488 0.542593
Si Si7 0.935493 0.463206 0.328538
Si Si8 0.599780 0.042846 0.987805
O O1 0.114939 0.253233 0.710861
O O2 0.075148 0.432669 0.690254
O O3 0.000000 0.346713 0.750000
O O4 0.829808 0.325175 0.616740
O O5 0.298694 0.185823 0.959783
O O6 0.025130 0.110512 0.858083
O O7 0.126586 0.158378 0.980093
O O8 0.249885 0.019623 0.974400
O O9 0.271975 0.647636 0.826265
O O10 0.228559 0.592702 0.725813
O O11 0.776531 0.278527 0.104141
O O12 0.750000 0.250000 0.000000
O O13 0.492874 0.289231 0.973393
O O14 0.642551 0.137793 0.022931
O O15 0.500000 0.213492 0.750000
O O16 0.445299 0.083482 0.673871
O O17 0.006576 0.452416 0.406133
O O18 0.500000 0.000000 0.000000
#
# Coordination Sequence:
#
# PCOD9278075 Si02
#       8
#     8   8   8   8   8   8   8   8
#     4  11  24  41  70  98 127 175 225 269 332 396
#     4  10  20  42  65  97 121 174 217 273 320 395
#     4  10  23  42  71  93 131 171 223 275 327 394
#     4  12  24  42  64 100 134 176 219 278 338 392
#     4  10  22  43  66  89 136 176 213 270 335 398
#     4  10  21  39  69  92 128 167 227 263 327 393
#     4  11  24  46  63  99 136 178 215 271 340 397
#     4  12  25  41  68  95 136 171 220 275 337 391
#
# _framework density 18.841899999999999
#
# number of rings (size 3 to 8) (size 9 to 14) (size 15 to 20)
#    0.000    1.250    5.000    1.125    3.500    0.000 
#    9.000    1.875    0.000    0.000    0.000    0.000 
#    0.000    0.000    0.000    0.000    0.000    0.000 
#
# Total GULP energy -178509.401300 kJ/mol
# GULP energy per Si atom -5578.418791 kJ/mol
# Density = 1.879901 g / cm^3
# Si number density = 18.841900 Si / 1000 Ang^3
#
#
#
# Elastic Constant Matrix: (Units=GPa)
#
#
# Indices 1 2 3 4 5 6 
#
# 1 82.8813 16.3747 20.5980 0.0000 10.7032 0.0000
# 2 16.3747 113.3041 62.4012 0.0000 19.6194 0.0000
# 3 20.5980 62.4012 113.2492 0.0000 5.9554 0.0000
# 4 0.0000 0.0000 0.0000 32.5781 0.0000 1.9292
# 5 10.7032 19.6194 5.9554 0.0000 30.8797 0.0000
# 6 0.0000 0.0000 0.0000 1.9292 0.0000 29.4488
#
#
#
# Elastic Compliance Matrix: (Units=1/GPa)
#
#
# Indices 1 2 3 4 5 6 
#
# 1 0.013139 0.000022 -0.002184 0.000000 -0.004147 0.000000
# 2 0.000022 0.014248 -0.007454 0.000000 -0.007622 0.000000
# 3 -0.002184 -0.007454 0.013179 0.000000 0.002951 0.000000
# 4 0.000000 0.000000 0.000000 0.030815 0.000000 -0.002019
# 5 -0.004147 -0.007622 0.002951 0.000000 0.038095 0.000000
# 6 0.000000 0.000000 0.000000 -0.002019 0.000000 0.034089
#
#
# Mechanical properties :
#
#
# Convention : Reuss Voigt Hill
#
# Bulk Modulus (GPa) = 46.87159 56.46471 51.66815
# Shear Modulus (GPa) = 29.42769 32.58538 31.00653
#
# Velocity S-wave (km/s) = 3.95628 4.16313 4.06102
# Velocity P-wave (km/s) = 6.76755 7.28983 7.03354
#
# Compressibility (1/GPa) = 0.02133488
#
# Stress axis : x y z
#
# Youngs Moduli (GPa) = 76.10704 70.18767 75.87761
#
# Poissons Ratio (x) = -0.00154 0.16570
# Poissons Ratio (y) = -0.00167 0.56556
# Poissons Ratio (z) = 0.16620 0.52315
#
# Static dielectric constant tensor:
#      x y z
#    x 1.677710 0.000000 0.024030 
#    y 0.000000 1.656280 0.000000 
#    z 0.024030 0.000000 1.660480 
# 
# From -- ./inp_files/293086.got.cif
#   From: 2010.05.17/outbox.cif.g08.bks.cpg/sg15_147_cif.got.tgz:293086.got - 2010.06.03 18:47:42.
