data_PCOD9278554
_publ_section_title
;
Structure prediction by ZEFSAII (Michael W. Deem and Ramdas Pophale) SiO2 
 PCOD9278554
Probable space group: C 2/C
;
_chemical_formula_sum "Si O2"
_cell_formula_units_Z 36
_cell_length_a 14.627149
_cell_length_b 9.203406
_cell_length_c 11.326970
_cell_angle_alpha 90.000000
_cell_angle_beta 121.458585
_cell_angle_gamma 90.000000
_cell_volume 1300.708618
_symmetry_space_group_name_H-M "C 2/C"
_symmetry_group_IT_number 15
_symmetry_cell_setting 'monoclinic'
loop_
_space_group_symop_operation_xyz
x,y,z
-x,y,1/2-z
-x,-y,-z
x,-y,1/2+z
1/2+x,1/2+y,z
1/2-x,1/2+y,1/2-z
1/2-x,1/2-y,-z
1/2+x,1/2-y,1/2+z
loop_
_atom_site_type_symbol
_atom_site_label
_atom_site_fract_x
_atom_site_fract_y
_atom_site_fract_z
Si Si1 0.577464 0.720666 0.128537
Si Si2 0.500000 0.953569 0.250000
Si Si3 0.301245 0.779951 0.903436
Si Si4 0.328925 0.905432 0.490846
Si Si5 0.093917 0.106658 0.726631
O O1 0.505988 0.838739 0.147238
O O2 0.696854 0.748267 0.257254
O O3 0.562198 0.557181 0.163346
O O4 0.598824 0.777863 0.012381
O O5 0.609642 0.044560 0.346935
O O6 0.386344 0.682358 0.888610
O O7 0.250000 0.750000 0.000000
O O8 0.334968 0.947123 0.916935
O O9 0.298219 0.621414 0.617021
O O10 0.000000 0.152183 0.750000
#
# Coordination Sequence:
#
# PCOD9278554 Si02
#       5
#     8   4   8   8   8
#     4  10  21  41  69 104 140 198 249 300 368 434
#     4  12  20  40  72 100 148 194 250 298 370 438
#     4  10  20  43  74 102 148 193 245 309 368 445
#     4  10  23  41  73 103 144 198 244 304 370 447
#     4  10  22  44  75 109 144 192 245 312 375 437
#
# _framework density 27.677220999999999
#
# number of rings (size 3 to 8) (size 9 to 14) (size 15 to 20)
#    0.000    1.778    3.333    0.667    0.000    0.000 
#    2.000   11.111    9.778    1.333    0.000    0.000 
#    0.000    0.000    0.000    0.000    0.000    0.000 
#
# Total GULP energy -100441.146685 kJ/mol
# GULP energy per Si atom -5580.063705 kJ/mol
# Density = 2.761423 g / cm^3
# Si number density = 27.677221 Si / 1000 Ang^3
#
#
#
# Elastic Constant Matrix: (Units=GPa)
#
#
# Indices 1 2 3 4 5 6 
#
# 1 154.1401 78.2823 74.8738 0.0000 -5.6578 0.0000
# 2 78.2823 93.3198 69.3182 0.0000 -36.1069 0.0000
# 3 74.8738 69.3182 158.1837 0.0000 -26.9419 0.0000
# 4 0.0000 0.0000 0.0000 34.7681 0.0000 -2.5456
# 5 -5.6578 -36.1069 -26.9419 0.0000 43.5038 0.0000
# 6 0.0000 0.0000 0.0000 -2.5456 0.0000 38.2938
#
#
#
# Elastic Compliance Matrix: (Units=1/GPa)
#
#
# Indices 1 2 3 4 5 6 
#
# 1 0.015319 -0.016003 -0.002416 0.000000 -0.012786 0.000000
# 2 -0.016003 0.037652 -0.004423 0.000000 0.026430 0.000000
# 3 -0.002416 -0.004423 0.009754 0.000000 0.002055 0.000000
# 4 0.000000 0.000000 0.000000 0.028903 0.000000 0.001921
# 5 -0.012786 0.026430 0.002055 0.000000 0.044532 0.000000
# 6 0.000000 0.000000 0.000000 0.001921 0.000000 0.026242
#
#
# Mechanical properties :
#
#
# Convention : Reuss Voigt Hill
#
# Bulk Modulus (GPa) = 58.68607 94.51025 76.59816
# Shear Modulus (GPa) = 23.38997 35.52443 29.45720
#
# Velocity S-wave (km/s) = 2.91021 3.58652 3.26592
# Velocity P-wave (km/s) = 5.70458 7.16744 6.47744
#
# Compressibility (1/GPa) = 0.01703982
#
# Stress axis : x y z
#
# Youngs Moduli (GPa) = 65.27636 26.55902 102.52517
#
# Poissons Ratio (x) = 0.42504 0.24771
# Poissons Ratio (y) = 1.04465 0.45348
# Poissons Ratio (z) = 0.15771 0.11747
#
# Static dielectric constant tensor:
#      x y z
#    x 4.256850 0.000000 0.281720 
#    y 0.000000 2.131360 0.000000 
#    z 0.281720 0.000000 2.289830 
# 
# From -- ./inp_files/102526.got.cif
#   From: 2010.05.17/outbox.cif.g08.bks.cpg/sg15_52_cif.got.tgz:102526.got - 2010.06.03 18:47:42.
