data_PCOD9278582
_publ_section_title
;
Structure prediction by ZEFSAII (Michael W. Deem and Ramdas Pophale) SiO2 
 PCOD9278582
Probable space group: C 2/C
;
_chemical_formula_sum "Si O2"
_cell_formula_units_Z 44
_cell_length_a 20.215437
_cell_length_b 10.841156
_cell_length_c 12.315129
_cell_angle_alpha 90.000000
_cell_angle_beta 124.617629
_cell_angle_gamma 90.000000
_cell_volume 2221.146843
_symmetry_space_group_name_H-M "C 2/C"
_symmetry_group_IT_number 15
_symmetry_cell_setting 'monoclinic'
loop_
_space_group_symop_operation_xyz
x,y,z
-x,y,1/2-z
-x,-y,-z
x,-y,1/2+z
1/2+x,1/2+y,z
1/2-x,1/2+y,1/2-z
1/2-x,1/2-y,-z
1/2+x,1/2-y,1/2+z
loop_
_atom_site_type_symbol
_atom_site_label
_atom_site_fract_x
_atom_site_fract_y
_atom_site_fract_z
Si Si1 0.500000 0.284080 0.750000
Si Si2 0.826132 0.084153 0.093353
Si Si3 0.244158 0.716281 0.821781
Si Si4 0.814955 0.799344 0.147134
Si Si5 0.037187 0.376024 0.675885
Si Si6 0.563177 0.137293 0.613087
O O1 0.582661 0.362320 0.822802
O O2 0.504216 0.198407 0.646982
O O3 0.765952 0.155878 0.120763
O O4 0.828273 0.941965 0.128766
O O5 0.788901 0.118261 0.941252
O O6 0.283934 0.718716 0.741326
O O7 0.152180 0.681146 0.718112
O O8 0.896901 0.720965 0.224426
O O9 0.750000 0.750000 0.000000
O O10 0.068734 0.489920 0.633834
O O11 0.000000 0.430714 0.750000
O O12 0.968400 0.322300 0.533882
#
# Coordination Sequence:
#
# PCOD9278582 Si02
#       6
#     4   8   8   8   8   8
#     4  10  20  44  62  94 118 172 214 248 332 378
#     4  10  24  42  70  90 132 171 213 274 317 398
#     4  10  23  45  64  95 124 172 219 256 334 381
#     4  12  26  41  66  98 130 169 215 275 325 385
#     4  11  23  39  61  95 125 161 210 265 319 373
#     4  10  21  40  67  87 124 166 209 264 311 390
#
# _framework density 19.809587000000001
#
# number of rings (size 3 to 8) (size 9 to 14) (size 15 to 20)
#    0.000    1.455    0.909    3.273    6.364    0.000 
#    0.000    2.727    0.000    0.000    0.000    0.000 
#    0.000    0.000    0.000    0.000    0.000    0.000 
#
# Total GULP energy -122759.055215 kJ/mol
# GULP energy per Si atom -5579.957055 kJ/mol
# Density = 1.976450 g / cm^3
# Si number density = 19.809587 Si / 1000 Ang^3
#
#
#
# Elastic Constant Matrix: (Units=GPa)
#
#
# Indices 1 2 3 4 5 6 
#
# 1 67.5240 23.2711 34.2802 0.0000 -8.6291 0.0000
# 2 23.2711 102.3126 40.1320 0.0000 9.5647 0.0000
# 3 34.2802 40.1320 159.9997 0.0000 -5.2196 0.0000
# 4 0.0000 0.0000 0.0000 15.7263 0.0000 1.6468
# 5 -8.6291 9.5647 -5.2196 0.0000 35.0115 0.0000
# 6 0.0000 0.0000 0.0000 1.6468 0.0000 13.0306
#
#
#
# Elastic Compliance Matrix: (Units=1/GPa)
#
#
# Indices 1 2 3 4 5 6 
#
# 1 0.018083 -0.003463 -0.002843 0.000000 0.004979 0.000000
# 2 -0.003463 0.011918 -0.002393 0.000000 -0.004466 0.000000
# 3 -0.002843 -0.002393 0.007494 0.000000 0.001070 0.000000
# 4 0.000000 0.000000 0.000000 0.064440 0.000000 -0.008144
# 5 0.004979 -0.004466 0.001070 0.000000 0.031169 0.000000
# 6 0.000000 0.000000 0.000000 -0.008144 0.000000 0.077772
#
#
# Mechanical properties :
#
#
# Convention : Reuss Voigt Hill
#
# Bulk Modulus (GPa) = 49.76066 58.35589 54.05828
# Shear Modulus (GPa) = 21.27903 28.23055 24.75479
#
# Velocity S-wave (km/s) = 3.28102 3.77914 3.53886
# Velocity P-wave (km/s) = 6.28709 6.96885 6.63673
#
# Compressibility (1/GPa) = 0.02009620
#
# Stress axis : x y z
#
# Youngs Moduli (GPa) = 55.30127 83.90782 133.43452
#
# Poissons Ratio (x) = 0.29059 0.37938
# Poissons Ratio (y) = 0.19152 0.31931
# Poissons Ratio (z) = 0.15723 0.20079
#
# Static dielectric constant tensor:
#      x y z
#    x 1.742420 0.000000 0.009370 
#    y 0.000000 1.710510 0.000000 
#    z 0.009370 0.000000 1.725130 
# 
# From -- ./inp_files/104341.got.cif
#   From: 2010.05.17/outbox.cif.g08.bks.cpg/sg15_53_cif.got.tgz:104341.got - 2010.06.03 18:47:42.
