data_PCOD9278029
_publ_section_title
;
Structure prediction by ZEFSAII (Michael W. Deem and Ramdas Pophale) SiO2 
 PCOD9278029
Probable space group: C 2/C
;
_chemical_formula_sum "Si O2"
_cell_formula_units_Z 52
_cell_length_a 18.276877
_cell_length_b 13.226825
_cell_length_c 18.096341
_cell_angle_alpha 90.000000
_cell_angle_beta 37.216006
_cell_angle_gamma 90.000000
_cell_volume 2645.913647
_symmetry_space_group_name_H-M "C 2/C"
_symmetry_group_IT_number 15
_symmetry_cell_setting 'monoclinic'
loop_
_space_group_symop_operation_xyz
x,y,z
-x,y,1/2-z
-x,-y,-z
x,-y,1/2+z
1/2+x,1/2+y,z
1/2-x,1/2+y,1/2-z
1/2-x,1/2-y,-z
1/2+x,1/2-y,1/2+z
loop_
_atom_site_type_symbol
_atom_site_label
_atom_site_fract_x
_atom_site_fract_y
_atom_site_fract_z
Si Si1 0.000000 0.529642 0.750000
Si Si2 0.962705 0.093744 0.474684
Si Si3 0.311630 0.576748 0.312251
Si Si4 0.834067 0.594103 0.641274
Si Si5 0.241766 0.131215 0.982944
Si Si6 0.827632 0.739994 0.163599
Si Si7 0.046443 0.417234 0.860160
O O1 0.992031 0.456228 0.687005
O O2 0.121405 0.595594 0.643437
O O3 0.840768 0.097270 0.520997
O O4 0.936451 0.189912 0.547789
O O5 0.069029 0.105851 0.329228
O O6 0.000000 0.000000 0.500000
O O7 0.272078 0.467378 0.314269
O O8 0.313826 0.579669 0.398639
O O9 0.209754 0.657977 0.368111
O O10 0.782212 0.687181 0.727863
O O11 0.894266 0.514282 0.648263
O O12 0.933612 0.617369 0.500162
O O13 0.250000 0.250000 0.000000
O O14 0.860509 0.674518 0.208954
#
# Coordination Sequence:
#
# PCOD9278029 Si02
#       7
#     4   8   8   8   8   8   8
#     4  12  26  46  66  98 140 176 232 284 338 414
#     4  12  25  43  68 102 140 177 224 285 346 411
#     4  11  23  41  66  99 137 169 220 280 345 403
#     4  10  20  42  64  96 131 175 221 278 330 405
#     4  12  27  42  69 103 136 178 221 290 349 404
#     4  11  22  40  69  97 128 182 226 272 341 415
#     4  10  23  40  66  93 132 177 225 274 334 402
#
# _framework density 19.652947000000001
#
# number of rings (size 3 to 8) (size 9 to 14) (size 15 to 20)
#    0.000    0.923    4.615    2.308    4.308    0.000 
#    0.000    2.308    0.000    0.000    0.000    0.000 
#    0.000    0.000    0.000    0.000    0.000    0.000 
#
# Total GULP energy -145090.811868 kJ/mol
# GULP energy per Si atom -5580.415841 kJ/mol
# Density = 1.960822 g / cm^3
# Si number density = 19.652947 Si / 1000 Ang^3
#
#
#
# Elastic Constant Matrix: (Units=GPa)
#
#
# Indices 1 2 3 4 5 6 
#
# 1 119.8613 46.6190 16.0960 0.0000 2.4490 0.0000
# 2 46.6190 75.1466 29.4401 0.0000 0.2057 0.0000
# 3 16.0960 29.4401 69.9369 0.0000 -17.3461 0.0000
# 4 0.0000 0.0000 0.0000 17.4145 0.0000 -8.9024
# 5 2.4490 0.2057 -17.3461 0.0000 21.9910 0.0000
# 6 0.0000 0.0000 0.0000 -8.9024 0.0000 17.0074
#
#
#
# Elastic Compliance Matrix: (Units=1/GPa)
#
#
# Indices 1 2 3 4 5 6 
#
# 1 0.011026 -0.006869 0.000081 0.000000 -0.001100 0.000000
# 2 -0.006869 0.021067 -0.008885 0.000000 -0.006440 0.000000
# 3 0.000081 -0.008885 0.022426 0.000000 0.017763 0.000000
# 4 0.000000 0.000000 0.000000 0.078403 0.000000 0.041040
# 5 -0.001100 -0.006440 0.017763 0.000000 0.059667 0.000000
# 6 0.000000 0.000000 0.000000 0.041040 0.000000 0.080280
#
#
# Mechanical properties :
#
#
# Convention : Reuss Voigt Hill
#
# Bulk Modulus (GPa) = 43.15242 49.91724 46.53483
# Shear Modulus (GPa) = 16.02879 22.80190 19.41535
#
# Velocity S-wave (km/s) = 2.85896 3.40991 3.14651
# Velocity P-wave (km/s) = 5.73612 6.39983 6.07704
#
# Compressibility (1/GPa) = 0.02317367
#
# Stress axis : x y z
#
# Youngs Moduli (GPa) = 90.69261 47.46723 44.59186
#
# Poissons Ratio (x) = 0.32606 -0.00362
# Poissons Ratio (y) = 0.62299 0.39618
# Poissons Ratio (z) = -0.00736 0.42173
#
# Static dielectric constant tensor:
#      x y z
#    x 1.749160 0.000000 -0.021970 
#    y 0.000000 1.678490 0.000000 
#    z -0.021970 0.000000 1.716090 
# 
# From -- ./inp_files/252730.got.cif
#   From: 2010.05.17/outbox.cif.g08.bks.cpg/sg15_127_cif.got.tgz:252730.got - 2010.06.03 18:47:42.
