data_PCOD9278688
_publ_section_title
;
Structure prediction by ZEFSAII (Michael W. Deem and Ramdas Pophale) SiO2 
 PCOD9278688
Probable space group: C 2/C
;
_chemical_formula_sum "Si O2"
_cell_formula_units_Z 60
_cell_length_a 10.674041
_cell_length_b 19.629547
_cell_length_c 14.426094
_cell_angle_alpha 90.000000
_cell_angle_beta 103.195346
_cell_angle_gamma 90.000000
_cell_volume 2942.844595
_symmetry_space_group_name_H-M "C 2/C"
_symmetry_group_IT_number 15
_symmetry_cell_setting 'monoclinic'
loop_
_space_group_symop_operation_xyz
x,y,z
-x,y,1/2-z
-x,-y,-z
x,-y,1/2+z
1/2+x,1/2+y,z
1/2-x,1/2+y,1/2-z
1/2-x,1/2-y,-z
1/2+x,1/2-y,1/2+z
loop_
_atom_site_type_symbol
_atom_site_label
_atom_site_fract_x
_atom_site_fract_y
_atom_site_fract_z
Si Si1 0.773559 0.686274 0.066951
Si Si2 0.866525 0.493515 0.920977
Si Si3 0.543744 0.855979 0.650878
Si Si4 0.312858 0.536837 0.939118
Si Si5 0.540482 0.403538 0.567811
Si Si6 0.500000 0.324433 0.750000
Si Si7 0.148790 0.399708 0.249873
Si Si8 0.742245 0.749464 0.730906
O O1 0.910357 0.650901 0.072863
O O2 0.654915 0.635953 0.036898
O O3 0.772967 0.716262 0.170780
O O4 0.750000 0.750000 0.000000
O O5 0.755456 0.490335 0.979366
O O6 0.850028 0.553025 0.841895
O O7 0.874503 0.420297 0.869869
O O8 0.000000 0.500000 0.000000
O O9 0.500000 0.868719 0.750000
O O10 0.622614 0.784902 0.657738
O O11 0.408983 0.596271 0.988101
O O12 0.405628 0.479667 0.911842
O O13 0.208447 0.558962 0.846435
O O14 0.521053 0.370165 0.663828
O O15 0.374706 0.278618 0.712304
O O16 0.235059 0.331172 0.255816
O O17 0.000000 0.383244 0.250000
#
# Coordination Sequence:
#
# PCOD9278688 Si02
#       8
#     8   8   8   8   8   4   8   8
#     4  10  23  39  67  92 132 172 223 279 335 403
#     4  12  25  42  72 100 135 181 228 284 346 406
#     4  10  23  43  68  97 130 180 231 273 338 416
#     4  11  26  44  65  99 134 171 230 274 345 414
#     4  10  24  44  65  96 129 175 227 275 335 410
#     4  10  20  44  70  88 132 178 218 270 330 406
#     4  12  26  44  67  99 142 174 222 294 342 407
#     4  10  23  42  64  97 132 175 225 271 349 402
#
# _framework density 20.388438000000001
#
# number of rings (size 3 to 8) (size 9 to 14) (size 15 to 20)
#    0.000    1.333    2.000    2.000   13.067    0.000 
#    0.000    1.333    0.000    0.000    0.000    0.000 
#    0.000    0.000    0.000    0.000    0.000    0.000 
#
# Total GULP energy -167564.165422 kJ/mol
# GULP energy per Si atom -5585.472181 kJ/mol
# Density = 2.034203 g / cm^3
# Si number density = 20.388438 Si / 1000 Ang^3
#
#
#
# Elastic Constant Matrix: (Units=GPa)
#
#
# Indices 1 2 3 4 5 6 
#
# 1 91.6257 26.7024 38.4502 0.0000 6.3049 0.0000
# 2 26.7024 107.6611 41.5868 0.0000 -5.8578 0.0000
# 3 38.4502 41.5868 75.6038 0.0000 9.3624 0.0000
# 4 0.0000 0.0000 0.0000 24.1283 0.0000 -2.3392
# 5 6.3049 -5.8578 9.3624 0.0000 25.9248 0.0000
# 6 0.0000 0.0000 0.0000 -2.3392 0.0000 32.2247
#
#
#
# Elastic Compliance Matrix: (Units=1/GPa)
#
#
# Indices 1 2 3 4 5 6 
#
# 1 0.013988 -0.001092 -0.006345 0.000000 -0.001357 0.000000
# 2 -0.001092 0.012602 -0.007078 0.000000 0.005669 0.000000
# 3 -0.006345 -0.007078 0.021307 0.000000 -0.007751 0.000000
# 4 0.000000 0.000000 0.000000 0.041739 0.000000 0.003030
# 5 -0.001357 0.005669 -0.007751 0.000000 0.042983 0.000000
# 6 0.000000 0.000000 0.000000 0.003030 0.000000 0.031252
#
#
# Mechanical properties :
#
#
# Convention : Reuss Voigt Hill
#
# Bulk Modulus (GPa) = 53.00601 54.26327 53.63464
# Shear Modulus (GPa) = 25.10130 27.66563 26.38347
#
# Velocity S-wave (km/s) = 3.51259 3.68765 3.60118
# Velocity P-wave (km/s) = 6.51963 6.69359 6.60718
#
# Compressibility (1/GPa) = 0.01886578
#
# Stress axis : x y z
#
# Youngs Moduli (GPa) = 71.48763 79.35239 46.93221
#
# Poissons Ratio (x) = 0.08667 0.29780
# Poissons Ratio (y) = 0.07808 0.33221
# Poissons Ratio (z) = 0.45361 0.56169
#
# Static dielectric constant tensor:
#      x y z
#    x 1.735140 0.000000 0.014660 
#    y 0.000000 1.901150 0.000000 
#    z 0.014660 0.000000 1.734310 
# 
# From -- ./inp_files/146104.got.cif
#   From: 2010.05.17/outbox.cif.g08.bks.cpg/sg15_74_cif.got.tgz:146104.got - 2010.06.03 18:47:42.
