data_PCOD9278147
_publ_section_title
;
Structure prediction by ZEFSAII (Michael W. Deem and Ramdas Pophale) SiO2 
 PCOD9278147
Probable space group: C 2/C
;
_chemical_formula_sum "Si O2"
_cell_formula_units_Z 44
_cell_length_a 20.198950
_cell_length_b 13.728432
_cell_length_c 12.839080
_cell_angle_alpha 90.000000
_cell_angle_beta 32.561561
_cell_angle_gamma 90.000000
_cell_volume 1916.159894
_symmetry_space_group_name_H-M "C 2/C"
_symmetry_group_IT_number 15
_symmetry_cell_setting 'monoclinic'
loop_
_space_group_symop_operation_xyz
x,y,z
-x,y,1/2-z
-x,-y,-z
x,-y,1/2+z
1/2+x,1/2+y,z
1/2-x,1/2+y,1/2-z
1/2-x,1/2-y,-z
1/2+x,1/2-y,1/2+z
loop_
_atom_site_type_symbol
_atom_site_label
_atom_site_fract_x
_atom_site_fract_y
_atom_site_fract_z
Si Si1 0.852692 0.166718 0.634033
Si Si2 0.673022 0.155006 0.699445
Si Si3 0.500000 0.964986 0.750000
Si Si4 0.078134 0.370397 0.861565
Si Si5 0.886353 0.858236 0.783699
Si Si6 0.266550 0.037007 0.171456
O O1 0.746727 0.203425 0.697433
O O2 0.896085 0.254894 0.650725
O O3 0.968478 0.128514 0.412047
O O4 0.790009 0.070947 0.763356
O O5 0.782437 0.097197 0.497232
O O6 0.627237 0.241659 0.686012
O O7 0.551036 0.107058 0.907194
O O8 0.553487 0.900469 0.774959
O O9 0.608912 0.032300 0.561568
O O10 0.187232 0.427455 0.776649
O O11 0.837796 0.894548 0.736889
#
# Coordination Sequence:
#
# PCOD9278147 Si02
#       6
#     8   8   4   8   8   8
#     4  11  23  42  68  95 137 174 214 278 334 387
#     4  10  20  42  66  96 129 174 216 272 330 391
#     4  12  26  42  70  92 132 186 222 266 332 398
#     4  11  25  46  68  97 134 175 227 275 325 399
#     4  10  22  38  67  98 133 168 214 271 339 390
#     4  12  24  42  67 102 132 172 223 278 327 399
#
# _framework density 22.962592000000001
#
# number of rings (size 3 to 8) (size 9 to 14) (size 15 to 20)
#    0.000    1.091    3.636    2.727    2.545    0.727 
#    0.000    0.000    4.000    0.000    0.000    0.000 
#    0.000    0.000    0.000    0.000    0.000    0.000 
#
# Total GULP energy -122705.019828 kJ/mol
# GULP energy per Si atom -5577.500901 kJ/mol
# Density = 2.291033 g / cm^3
# Si number density = 22.962592 Si / 1000 Ang^3
#
#
#
# Elastic Constant Matrix: (Units=GPa)
#
#
# Indices 1 2 3 4 5 6 
#
# 1 109.9988 32.6681 12.5623 0.0000 -20.5106 0.0000
# 2 32.6681 86.7506 12.9074 0.0000 -8.9123 0.0000
# 3 12.5623 12.9074 94.7016 0.0000 -18.2992 0.0000
# 4 0.0000 0.0000 0.0000 19.0358 0.0000 -5.1521
# 5 -20.5106 -8.9123 -18.2992 0.0000 38.1676 0.0000
# 6 0.0000 0.0000 0.0000 -5.1521 0.0000 43.9401
#
#
#
# Elastic Compliance Matrix: (Units=1/GPa)
#
#
# Indices 1 2 3 4 5 6 
#
# 1 0.011136 -0.003668 0.000015 0.000000 0.005135 0.000000
# 2 -0.003668 0.013141 -0.001204 0.000000 0.000520 0.000000
# 3 0.000015 -0.001204 0.011758 0.000000 0.005364 0.000000
# 4 0.000000 0.000000 0.000000 0.054254 0.000000 0.006361
# 5 0.005135 0.000520 0.005364 0.000000 0.031653 0.000000
# 6 0.000000 0.000000 0.000000 0.006361 0.000000 0.023504
#
#
# Mechanical properties :
#
#
# Convention : Reuss Voigt Hill
#
# Bulk Modulus (GPa) = 37.99256 45.30296 41.64776
# Shear Modulus (GPa) = 30.49981 35.78290 33.14135
#
# Velocity S-wave (km/s) = 3.64845 3.95183 3.80317
# Velocity P-wave (km/s) = 5.85915 6.37138 6.12062
#
# Compressibility (1/GPa) = 0.02632094
#
# Stress axis : x y z
#
# Youngs Moduli (GPa) = 89.79701 76.09620 85.04743
#
# Poissons Ratio (x) = 0.27914 -0.00127
# Poissons Ratio (y) = 0.32940 0.10240
# Poissons Ratio (z) = -0.00135 0.09162
#
# Static dielectric constant tensor:
#      x y z
#    x 1.922190 0.000000 0.052850 
#    y 0.000000 1.922550 0.000000 
#    z 0.052850 0.000000 1.868840 
# 
# From -- ./inp_files/96610.got.cif
#   From: 2010.05.17/outbox.cif.g08.bks.cpg/sg15_49_cif.got.tgz:96610.got - 2010.06.03 18:47:42.
