data_PCOD9278845
_publ_section_title
;
Structure prediction by ZEFSAII (Michael W. Deem and Ramdas Pophale) SiO2 
 PCOD9278845
Probable space group: C 2/C
;
_chemical_formula_sum "Si O2"
_cell_formula_units_Z 40
_cell_length_a 25.190995
_cell_length_b 14.520940
_cell_length_c 9.234098
_cell_angle_alpha 90.000000
_cell_angle_beta 147.187354
_cell_angle_gamma 90.000000
_cell_volume 1830.411146
_symmetry_space_group_name_H-M "C 2/C"
_symmetry_group_IT_number 15
_symmetry_cell_setting 'monoclinic'
loop_
_space_group_symop_operation_xyz
x,y,z
-x,y,1/2-z
-x,-y,-z
x,-y,1/2+z
1/2+x,1/2+y,z
1/2-x,1/2+y,1/2-z
1/2-x,1/2-y,-z
1/2+x,1/2-y,1/2+z
loop_
_atom_site_type_symbol
_atom_site_label
_atom_site_fract_x
_atom_site_fract_y
_atom_site_fract_z
Si Si1 0.129569 0.938245 0.801188
Si Si2 0.500000 0.466130 0.250000
Si Si3 0.803105 0.558230 0.097925
Si Si4 0.709564 0.295298 0.191400
Si Si5 0.639519 0.888693 0.467612
Si Si6 0.500000 0.239447 0.750000
O O1 0.068199 0.911391 0.518728
O O2 0.197395 0.023223 0.910777
O O3 0.195604 0.857267 0.017023
O O4 0.062967 0.972050 0.782583
O O5 0.785026 0.651697 0.966713
O O6 0.841582 0.473249 0.091722
O O7 0.867885 0.572293 0.387355
O O8 0.724787 0.189281 0.180107
O O9 0.600360 0.292150 0.017061
O O10 0.544203 0.825170 0.223785
#
# Coordination Sequence:
#
# PCOD9278845 Si02
#       6
#     8   4   8   8   8   4
#     4  11  20  35  59  91 127 163 204 253 308 373
#     4  10  21  30  58  91 128 166 199 244 326 365
#     4  12  21  41  64  95 122 166 213 253 315 367
#     4  10  21  41  63  90 128 164 205 260 313 371
#     4  10  24  40  67  89 126 168 208 259 308 378
#     4   8  23  42  60  91 126 168 203 252 324 361
#
# _framework density 21.853014000000002
#
# number of rings (size 3 to 8) (size 9 to 14) (size 15 to 20)
#    1.200    0.400    4.000    1.200    2.800    1.600 
#    0.000    0.000    0.000    0.000    0.000    0.000 
#    0.000    0.000    0.000    0.000    0.000    0.000 
#
# Total GULP energy -111362.706592 kJ/mol
# GULP energy per Si atom -5568.135330 kJ/mol
# Density = 2.180328 g / cm^3
# Si number density = 21.853014 Si / 1000 Ang^3
#
#
#
# Elastic Constant Matrix: (Units=GPa)
#
#
# Indices 1 2 3 4 5 6 
#
# 1 43.9310 4.6244 10.5620 0.0000 -10.5207 0.0000
# 2 4.6244 88.6657 1.9890 0.0000 -17.9781 0.0000
# 3 10.5620 1.9890 69.8606 0.0000 -32.2295 0.0000
# 4 0.0000 0.0000 0.0000 -23.0215 0.0000 -25.0614
# 5 -10.5207 -17.9781 -32.2295 0.0000 33.0210 0.0000
# 6 0.0000 0.0000 0.0000 -25.0614 0.0000 17.1658
#
#
#
# Elastic Compliance Matrix: (Units=1/GPa)
#
#
# Indices 1 2 3 4 5 6 
#
# 1 0.024653 0.000334 -0.000053 0.000000 0.007985 0.000000
# 2 0.000334 0.013783 0.005581 0.000000 0.013059 0.000000
# 3 -0.000053 0.005581 0.028301 0.000000 0.030644 0.000000
# 4 0.000000 0.000000 0.000000 -0.016776 0.000000 -0.024492
# 5 0.007985 0.013059 0.030644 0.000000 0.069847 0.000000
# 6 0.000000 0.000000 0.000000 -0.024492 0.000000 0.022498
#
#
# Mechanical properties :
#
#
# Convention : Reuss Voigt Hill
#
# Bulk Modulus (GPa) = 12.74486 26.31199 19.52842
# Shear Modulus (GPa) = 31.90098 17.78520 24.84309
#
# Velocity S-wave (km/s) = 3.82487 2.85591 3.37534
# Velocity P-wave (km/s) = 5.03497 4.78973 4.91388
#
# Compressibility (1/GPa) = 0.07846302
#
# Stress axis : x y z
#
# Youngs Moduli (GPa) = 40.56341 72.55072 35.33477
#
# Poissons Ratio (x) = -0.02427 0.00187
# Poissons Ratio (y) = -0.01357 -0.19722
# Poissons Ratio (z) = 0.00215 -0.40494
#
# Static dielectric constant tensor:
#      x y z
#    x 1.840460 0.000000 0.056580 
#    y 0.000000 1.877400 0.000000 
#    z 0.056580 0.000000 1.870980 
# 
# From -- ./inp_files/65851.got.cif
#   From: 2010.05.17/outbox.cif.g08.bks.cpg/sg15_33_cif.got.tgz:65851.got - 2010.06.03 18:47:42.
