data_PCOD9278603
_publ_section_title
;
Structure prediction by ZEFSAII (Michael W. Deem and Ramdas Pophale) SiO2 
 PCOD9278603
Probable space group: C 2/C
;
_chemical_formula_sum "Si O2"
_cell_formula_units_Z 48
_cell_length_a 11.834964
_cell_length_b 11.564278
_cell_length_c 18.474261
_cell_angle_alpha 90.000000
_cell_angle_beta 130.225685
_cell_angle_gamma 90.000000
_cell_volume 1930.480129
_symmetry_space_group_name_H-M "C 2/C"
_symmetry_group_IT_number 15
_symmetry_cell_setting 'monoclinic'
loop_
_space_group_symop_operation_xyz
x,y,z
-x,y,1/2-z
-x,-y,-z
x,-y,1/2+z
1/2+x,1/2+y,z
1/2-x,1/2+y,1/2-z
1/2-x,1/2-y,-z
1/2+x,1/2-y,1/2+z
loop_
_atom_site_type_symbol
_atom_site_label
_atom_site_fract_x
_atom_site_fract_y
_atom_site_fract_z
Si Si1 0.567043 0.368231 0.856383
Si Si2 0.500000 0.500000 0.500000
Si Si3 0.168069 0.893175 0.443833
Si Si4 0.000000 0.250608 0.750000
Si Si5 0.300845 0.726678 0.311287
Si Si6 0.727394 0.698417 0.620700
Si Si7 0.955104 0.369704 0.496239
O O1 0.500000 0.391761 0.750000
O O2 0.671518 0.473268 0.918523
O O3 0.432456 0.369109 0.859087
O O4 0.647391 0.244970 0.883354
O O5 0.586848 0.401855 0.486189
O O6 0.656370 0.576468 0.573527
O O7 0.338103 0.854147 0.513524
O O8 0.066413 0.828803 0.342119
O O9 0.141794 0.315141 0.774029
O O10 0.288079 0.785221 0.227175
O O11 0.360947 0.822737 0.389956
O O12 0.601703 0.796170 0.564694
O O13 0.000000 0.500000 0.500000
#
# Coordination Sequence:
#
# PCOD9278603 Si02
#       7
#     8   4   8   4   8   8   8
#     4  10  21  40  73  99 129 181 234 291 342 411
#     4  12  26  40  68 100 146 176 224 298 356 408
#     4  11  22  41  69  97 137 183 228 288 352 419
#     4  10  20  44  64  92 140 186 228 276 356 438
#     4  10  23  41  68 101 135 183 236 279 352 415
#     4  11  24  46  67 105 144 181 234 294 350 419
#     4  11  24  43  73 102 136 189 237 284 345 428
#
# _framework density 24.864280000000001
#
# number of rings (size 3 to 8) (size 9 to 14) (size 15 to 20)
#    0.000    1.333    4.167    1.000    2.333    2.000 
#    6.000    0.000    0.000    0.000    0.000    0.000 
#    0.000    0.000    0.000    0.000    0.000    0.000 
#
# Total GULP energy -133974.240327 kJ/mol
# GULP energy per Si atom -5582.260014 kJ/mol
# Density = 2.480769 g / cm^3
# Si number density = 24.864280 Si / 1000 Ang^3
#
#
#
# Elastic Constant Matrix: (Units=GPa)
#
#
# Indices 1 2 3 4 5 6 
#
# 1 181.8098 14.6261 22.8169 0.0000 22.5014 0.0000
# 2 14.6261 83.7552 20.0782 0.0000 9.8698 0.0000
# 3 22.8169 20.0782 94.5888 0.0000 -0.1339 0.0000
# 4 0.0000 0.0000 0.0000 21.6509 0.0000 13.7584
# 5 22.5014 9.8698 -0.1339 0.0000 44.7397 0.0000
# 6 0.0000 0.0000 0.0000 13.7584 0.0000 45.7940
#
#
#
# Elastic Compliance Matrix: (Units=1/GPa)
#
#
# Indices 1 2 3 4 5 6 
#
# 1 0.006073 -0.000377 -0.001389 0.000000 -0.002975 0.000000
# 2 -0.000377 0.012959 -0.002664 0.000000 -0.002677 0.000000
# 3 -0.001389 -0.002664 0.011474 0.000000 0.001321 0.000000
# 4 0.000000 0.000000 0.000000 0.057086 0.000000 -0.017151
# 5 -0.002975 -0.002677 0.001321 0.000000 0.024443 0.000000
# 6 0.000000 0.000000 0.000000 -0.017151 0.000000 0.026990
#
#
# Mechanical properties :
#
#
# Convention : Reuss Voigt Hill
#
# Bulk Modulus (GPa) = 46.19491 52.79958 49.49724
# Shear Modulus (GPa) = 32.23701 42.61243 37.42472
#
# Velocity S-wave (km/s) = 3.60463 4.14430 3.88385
# Velocity P-wave (km/s) = 5.99530 6.64692 6.32950
#
# Compressibility (1/GPa) = 0.02164740
#
# Stress axis : x y z
#
# Youngs Moduli (GPa) = 164.65878 77.16380 87.14989
#
# Poissons Ratio (x) = 0.02908 0.12107
# Poissons Ratio (y) = 0.06206 0.23215
# Poissons Ratio (z) = 0.22874 0.20555
#
# Static dielectric constant tensor:
#      x y z
#    x 2.076700 0.000000 0.034320 
#    y 0.000000 1.825480 0.000000 
#    z 0.034320 0.000000 1.819920 
# 
# From -- ./inp_files/237790.got.cif
#   From: 2010.05.17/outbox.cif.g08.bks.cpg/sg15_119_cif.got.tgz:237790.got - 2010.06.03 18:47:42.
