data_PCOD9278814
_publ_section_title
;
Structure prediction by ZEFSAII (Michael W. Deem and Ramdas Pophale) SiO2 
 PCOD9278814
Probable space group: C 2/C
;
_chemical_formula_sum "Si O2"
_cell_formula_units_Z 52
_cell_length_a 9.331497
_cell_length_b 15.953580
_cell_length_c 14.946323
_cell_angle_alpha 90.000000
_cell_angle_beta 98.913787
_cell_angle_gamma 90.000000
_cell_volume 2198.197772
_symmetry_space_group_name_H-M "C 2/C"
_symmetry_group_IT_number 15
_symmetry_cell_setting 'monoclinic'
loop_
_space_group_symop_operation_xyz
x,y,z
-x,y,1/2-z
-x,-y,-z
x,-y,1/2+z
1/2+x,1/2+y,z
1/2-x,1/2+y,1/2-z
1/2-x,1/2-y,-z
1/2+x,1/2-y,1/2+z
loop_
_atom_site_type_symbol
_atom_site_label
_atom_site_fract_x
_atom_site_fract_y
_atom_site_fract_z
Si Si1 0.500000 0.333081 0.750000
Si Si2 0.305045 0.804970 0.144931
Si Si3 0.607279 0.411176 0.594429
Si Si4 0.047484 0.403319 0.493426
Si Si5 0.478128 0.267875 0.052923
Si Si6 0.296495 0.507081 0.053412
Si Si7 0.847607 0.130157 0.695453
O O1 0.595176 0.274618 0.824157
O O2 0.613299 0.383705 0.698063
O O3 0.403346 0.869355 0.098276
O O4 0.151553 0.785132 0.080563
O O5 0.254164 0.842685 0.234342
O O6 0.582210 0.330273 0.528685
O O7 0.717612 0.469413 0.548914
O O8 0.461194 0.465885 0.579739
O O9 0.955044 0.328760 0.526521
O O10 0.200363 0.411930 0.559736
O O11 0.000000 0.500000 0.500000
O O12 0.400045 0.293609 0.137357
O O13 0.269739 0.435589 0.123367
O O14 0.000000 0.095414 0.750000
#
# Coordination Sequence:
#
# PCOD9278814 Si02
#       7
#     4   8   8   8   8   8   8
#     4  12  24  34  64  96 122 166 218 270 306 376
#     4  11  23  42  65  89 129 173 213 261 320 379
#     4  10  21  39  66  91 121 165 225 264 310 371
#     4  12  25  40  65  94 131 175 206 256 332 394
#     4  10  20  47  68  85 122 180 215 250 323 401
#     4  10  22  39  63  96 126 168 211 265 317 380
#     4   9  22  40  67  91 124 165 219 272 312 366
#
# _framework density 23.655742
#
# number of rings (size 3 to 8) (size 9 to 14) (size 15 to 20)
#    0.000    1.538    3.077    1.385    5.385    1.231 
#    0.000    7.692    0.000    0.000    0.000    0.000 
#    0.000    0.000    0.000    0.000    0.000    0.000 
#
# Total GULP energy -145286.338163 kJ/mol
# GULP energy per Si atom -5587.936083 kJ/mol
# Density = 2.360190 g / cm^3
# Si number density = 23.655742 Si / 1000 Ang^3
#
#
#
# Elastic Constant Matrix: (Units=GPa)
#
#
# Indices 1 2 3 4 5 6 
#
# 1 52.7769 21.8056 20.2830 0.0000 -13.1966 0.0000
# 2 21.8056 129.0789 47.6808 0.0000 -20.6992 0.0000
# 3 20.2830 47.6808 90.0344 0.0000 -27.0165 0.0000
# 4 0.0000 0.0000 0.0000 42.4503 0.0000 2.7910
# 5 -13.1966 -20.6992 -27.0165 0.0000 26.8394 0.0000
# 6 0.0000 0.0000 0.0000 2.7910 0.0000 36.0603
#
#
#
# Elastic Compliance Matrix: (Units=1/GPa)
#
#
# Indices 1 2 3 4 5 6 
#
# 1 0.022334 -0.001898 -0.001677 0.000000 0.007830 0.000000
# 2 -0.001898 0.009999 -0.004060 0.000000 0.002691 0.000000
# 3 -0.001677 -0.004060 0.017835 0.000000 0.013997 0.000000
# 4 0.000000 0.000000 0.000000 0.023677 0.000000 -0.001833
# 5 0.007830 0.002691 0.013997 0.000000 0.057273 0.000000
# 6 0.000000 0.000000 0.000000 -0.001833 0.000000 0.027873
#
#
# Mechanical properties :
#
#
# Convention : Reuss Voigt Hill
#
# Bulk Modulus (GPa) = 28.65495 50.15877 39.40686
# Shear Modulus (GPa) = 26.89697 33.21140 30.05419
#
# Velocity S-wave (km/s) = 3.37563 3.75099 3.56825
# Velocity P-wave (km/s) = 5.22807 6.32531 5.80269
#
# Compressibility (1/GPa) = 0.03489798
#
# Stress axis : x y z
#
# Youngs Moduli (GPa) = 44.77469 100.00741 56.07007
#
# Poissons Ratio (x) = 0.18981 0.09402
# Poissons Ratio (y) = 0.08498 0.22766
# Poissons Ratio (z) = 0.07508 0.40606
#
# Static dielectric constant tensor:
#      x y z
#    x 2.062440 0.000000 0.041150 
#    y 0.000000 1.897350 0.000000 
#    z 0.041150 0.000000 1.926830 
# 
# From -- ./inp_files/144336.got.cif
#   From: 2010.05.17/outbox.cif.g08.bks.cpg/sg15_73_cif.got.tgz:144336.got - 2010.06.03 18:47:42.
