data_PCOD9278943
_publ_section_title
;
Structure prediction by ZEFSAII (Michael W. Deem and Ramdas Pophale) SiO2 
 PCOD9278943
Probable space group: C 2/C
;
_chemical_formula_sum "Si O2"
_cell_formula_units_Z 56
_cell_length_a 13.877739
_cell_length_b 7.758965
_cell_length_c 23.754670
_cell_angle_alpha 90.000000
_cell_angle_beta 58.575962
_cell_angle_gamma 90.000000
_cell_volume 2182.677700
_symmetry_space_group_name_H-M "C 2/C"
_symmetry_group_IT_number 15
_symmetry_cell_setting 'monoclinic'
loop_
_space_group_symop_operation_xyz
x,y,z
-x,y,1/2-z
-x,-y,-z
x,-y,1/2+z
1/2+x,1/2+y,z
1/2-x,1/2+y,1/2-z
1/2-x,1/2-y,-z
1/2+x,1/2-y,1/2+z
loop_
_atom_site_type_symbol
_atom_site_label
_atom_site_fract_x
_atom_site_fract_y
_atom_site_fract_z
Si Si1 0.426665 0.140497 0.554701
Si Si2 0.435522 0.310986 0.721650
Si Si3 0.279496 0.399014 0.188261
Si Si4 0.827076 0.800204 0.407869
Si Si5 0.651608 0.249788 0.224028
Si Si6 0.000245 0.522845 0.147072
Si Si7 0.509288 0.489384 0.912785
O O1 0.306597 0.171447 0.560204
O O2 0.428210 0.053370 0.616820
O O3 0.500000 0.000000 0.500000
O O4 0.482327 0.332337 0.545805
O O5 0.500000 0.410399 0.750000
O O6 0.317200 0.245761 0.782762
O O7 0.509915 0.139506 0.685152
O O8 0.446040 0.405983 0.659342
O O9 0.297167 0.392979 0.250798
O O10 0.229748 0.584126 0.186371
O O11 0.389013 0.369652 0.115100
O O12 0.889681 0.926916 0.433139
O O13 0.869038 0.824946 0.330854
O O14 0.881666 0.612363 0.405948
O O15 0.564840 0.161030 0.294179
#
# Coordination Sequence:
#
# PCOD9278943 Si02
#       7
#     8   8   8   8   8   8   8
#     4  11  27  52  68  90 135 183 236 292 324 369
#     4  10  21  33  53  92 139 173 202 261 331 406
#     4  11  19  35  55  90 141 174 212 251 323 413
#     4  12  23  41  71  98 132 179 214 275 351 396
#     4  11  20  35  63  98 145 169 201 267 341 412
#     4  10  22  39  63 101 129 170 222 266 330 413
#     4  11  24  40  62  99 127 174 232 260 334 408
#
# _framework density 25.656559999999999
#
# number of rings (size 3 to 8) (size 9 to 14) (size 15 to 20)
#    0.000    1.143    4.286    3.857    2.000    2.286 
#    0.000    0.714    0.000    0.000    0.000    0.000 
#    0.000    0.000    0.000    0.000    0.000    0.000 
#
# Total GULP energy -156149.846201 kJ/mol
# GULP energy per Si atom -5576.780221 kJ/mol
# Density = 2.559816 g / cm^3
# Si number density = 25.656560 Si / 1000 Ang^3
#
#
#
# Elastic Constant Matrix: (Units=GPa)
#
#
# Indices 1 2 3 4 5 6 
#
# 1 136.9224 24.9241 20.9853 0.0000 -21.3044 0.0000
# 2 24.9241 96.4025 13.1078 0.0000 -11.9535 0.0000
# 3 20.9853 13.1078 77.5698 0.0000 1.7920 0.0000
# 4 0.0000 0.0000 0.0000 26.1121 0.0000 8.5848
# 5 -21.3044 -11.9535 1.7920 0.0000 14.3364 0.0000
# 6 0.0000 0.0000 0.0000 8.5848 0.0000 25.1876
#
#
#
# Elastic Compliance Matrix: (Units=1/GPa)
#
#
# Indices 1 2 3 4 5 6 
#
# 1 0.010210 -0.000329 -0.003059 0.000000 0.015280 0.000000
# 2 -0.000329 0.011961 -0.002158 0.000000 0.009754 0.000000
# 3 -0.003059 -0.002158 0.014272 0.000000 -0.008129 0.000000
# 4 0.000000 0.000000 0.000000 0.043129 0.000000 -0.014700
# 5 0.015280 0.009754 -0.008129 0.000000 0.101608 0.000000
# 6 0.000000 0.000000 0.000000 -0.014700 0.000000 0.044712
#
#
# Mechanical properties :
#
#
# Convention : Reuss Voigt Hill
#
# Bulk Modulus (GPa) = 39.44696 47.65879 43.55288
# Shear Modulus (GPa) = 20.37207 29.91906 25.14557
#
# Velocity S-wave (km/s) = 2.82091 3.41858 3.13402
# Velocity P-wave (km/s) = 5.10083 5.84793 5.48711
#
# Compressibility (1/GPa) = 0.02535049
#
# Stress axis : x y z
#
# Youngs Moduli (GPa) = 97.94598 83.60495 70.06885
#
# Poissons Ratio (x) = 0.02750 0.21437
# Poissons Ratio (y) = 0.03222 0.15117
# Poissons Ratio (z) = 0.29966 0.18038
#
# Static dielectric constant tensor:
#      x y z
#    x 2.274750 0.000000 -0.055750 
#    y 0.000000 2.125000 0.000000 
#    z -0.055750 0.000000 2.061130 
# 
# From -- ./inp_files/295079.got.cif
#   From: 2010.05.17/outbox.cif.g08.bks.cpg/sg15_148_cif.got.tgz:295079.got - 2010.06.03 18:47:42.
