data_PCOD9278585
_publ_section_title
;
Structure prediction by ZEFSAII (Michael W. Deem and Ramdas Pophale) SiO2 
 PCOD9278585
Probable space group: C 2/C
;
_chemical_formula_sum "Si O2"
_cell_formula_units_Z 36
_cell_length_a 20.705575
_cell_length_b 10.091476
_cell_length_c 11.237732
_cell_angle_alpha 90.000000
_cell_angle_beta 40.689325
_cell_angle_gamma 90.000000
_cell_volume 1530.874908
_symmetry_space_group_name_H-M "C 2/C"
_symmetry_group_IT_number 15
_symmetry_cell_setting 'monoclinic'
loop_
_space_group_symop_operation_xyz
x,y,z
-x,y,1/2-z
-x,-y,-z
x,-y,1/2+z
1/2+x,1/2+y,z
1/2-x,1/2+y,1/2-z
1/2-x,1/2-y,-z
1/2+x,1/2-y,1/2+z
loop_
_atom_site_type_symbol
_atom_site_label
_atom_site_fract_x
_atom_site_fract_y
_atom_site_fract_z
Si Si1 0.730177 0.174756 0.149541
Si Si2 0.361321 0.886897 0.267574
Si Si3 0.500000 0.502043 0.250000
Si Si4 0.847114 0.229815 0.507921
Si Si5 0.050436 0.761586 0.064801
O O1 0.656951 0.242403 0.346784
O O2 0.679478 0.034065 0.193757
O O3 0.750000 0.250000 0.000000
O O4 0.839831 0.182307 0.055532
O O5 0.265965 0.798268 0.367871
O O6 0.385112 0.848548 0.370246
O O7 0.441136 0.833344 0.060175
O O8 0.408641 0.599809 0.390970
O O9 0.489843 0.400605 0.152412
O O10 0.000000 0.690182 0.250000
#
# Coordination Sequence:
#
# PCOD9278585 Si02
#       5
#     8   8   4   8   8
#     4  11  24  41  66  93 130 169 208 264 319 383
#     4  10  21  41  64  92 127 167 211 259 319 376
#     4  10  20  44  62  96 126 158 224 256 318 374
#     4  10  23  38  65  95 122 169 210 264 311 382
#     4   9  21  41  67  91 124 168 211 266 307 375
#
# _framework density 23.515964
#
# number of rings (size 3 to 8) (size 9 to 14) (size 15 to 20)
#    0.667    1.333    2.222    0.000    6.222    4.444 
#    2.000    2.222    0.000    0.000    0.000    0.000 
#    0.000    0.000    0.000    0.000    0.000    0.000 
#
# Total GULP energy -100342.504070 kJ/mol
# GULP energy per Si atom -5574.583559 kJ/mol
# Density = 2.346244 g / cm^3
# Si number density = 23.515964 Si / 1000 Ang^3
#
#
#
# Elastic Constant Matrix: (Units=GPa)
#
#
# Indices 1 2 3 4 5 6 
#
# 1 49.8905 25.2840 46.1025 0.0000 1.5070 0.0000
# 2 25.2840 116.7572 88.3580 0.0000 29.2186 0.0000
# 3 46.1025 88.3580 212.2152 0.0000 28.1967 0.0000
# 4 0.0000 0.0000 0.0000 54.3943 0.0000 -5.9494
# 5 1.5070 29.2186 28.1967 0.0000 38.9352 0.0000
# 6 0.0000 0.0000 0.0000 -5.9494 0.0000 21.4200
#
#
#
# Elastic Compliance Matrix: (Units=1/GPa)
#
#
# Indices 1 2 3 4 5 6 
#
# 1 0.026121 -0.003072 -0.005054 0.000000 0.004954 0.000000
# 2 -0.003072 0.014389 -0.004321 0.000000 -0.007550 0.000000
# 3 -0.005054 -0.004321 0.007914 0.000000 -0.002293 0.000000
# 4 0.000000 0.000000 0.000000 0.018960 0.000000 0.005266
# 5 0.004954 -0.007550 -0.002293 0.000000 0.032819 0.000000
# 6 0.000000 0.000000 0.000000 0.005266 0.000000 0.048148
#
#
# Mechanical properties :
#
#
# Convention : Reuss Voigt Hill
#
# Bulk Modulus (GPa) = 42.49606 77.59467 60.04537
# Shear Modulus (GPa) = 27.61095 37.55777 32.58436
#
# Velocity S-wave (km/s) = 3.43029 4.00073 3.72644
# Velocity P-wave (km/s) = 5.81374 7.37627 6.64112
#
# Compressibility (1/GPa) = 0.02353159
#
# Stress axis : x y z
#
# Youngs Moduli (GPa) = 38.28301 69.49714 126.36243
#
# Poissons Ratio (x) = 0.21347 0.63864
# Poissons Ratio (y) = 0.11759 0.54595
# Poissons Ratio (z) = 0.19348 0.30026
#
# Static dielectric constant tensor:
#      x y z
#    x 1.989950 0.000000 -0.003770 
#    y 0.000000 1.858110 0.000000 
#    z -0.003770 0.000000 1.978230 
# 
# From -- ./inp_files/121294.got.cif
#   From: 2010.05.17/outbox.cif.g08.bks.cpg/sg15_61_cif.got.tgz:121294.got - 2010.06.03 18:47:42.
