data_PCOD9278817
_publ_section_title
;
Structure prediction by ZEFSAII (Michael W. Deem and Ramdas Pophale) SiO2 
 PCOD9278817
Probable space group: C 2/C
;
_chemical_formula_sum "Si O2"
_cell_formula_units_Z 48
_cell_length_a 10.111375
_cell_length_b 27.196062
_cell_length_c 16.862568
_cell_angle_alpha 90.000000
_cell_angle_beta 30.193983
_cell_angle_gamma 90.000000
_cell_volume 2332.097959
_symmetry_space_group_name_H-M "C 2/C"
_symmetry_group_IT_number 15
_symmetry_cell_setting 'monoclinic'
loop_
_space_group_symop_operation_xyz
x,y,z
-x,y,1/2-z
-x,-y,-z
x,-y,1/2+z
1/2+x,1/2+y,z
1/2-x,1/2+y,1/2-z
1/2-x,1/2-y,-z
1/2+x,1/2-y,1/2+z
loop_
_atom_site_type_symbol
_atom_site_label
_atom_site_fract_x
_atom_site_fract_y
_atom_site_fract_z
Si Si1 0.251054 0.349467 0.666646
Si Si2 0.796916 0.493600 0.427214
Si Si3 0.506640 0.923915 0.579192
Si Si4 0.117947 0.401435 0.032203
Si Si5 0.899527 0.797753 0.892059
Si Si6 0.016980 0.089364 0.895621
O O1 0.369233 0.310900 0.666455
O O2 0.450584 0.371327 0.498217
O O3 0.000000 0.328992 0.750000
O O4 0.143540 0.395566 0.773234
O O5 0.961183 0.519307 0.414139
O O6 0.428924 0.465532 0.470212
O O7 0.000000 0.489883 0.250000
O O8 0.718443 0.440404 0.500007
O O9 0.374117 0.914646 0.564559
O O10 0.806949 0.903488 0.432598
O O11 0.816531 0.407203 0.215826
O O12 0.218138 0.346347 0.989811
O O13 0.000000 0.791823 0.750000
O O14 0.750000 0.750000 0.000000
#
# Coordination Sequence:
#
# PCOD9278817 Si02
#       6
#     8   8   8   8   8   8
#     4  10  20  47  75  95 140 185 219 278 347 407
#     4  10  21  37  59 102 144 189 231 270 328 419
#     4   9  18  43  60  99 139 185 220 280 327 416
#     4  12  24  39  68  98 139 182 225 291 350 384
#     4  12  30  51  73 101 136 172 233 293 348 406
#     4   9  21  38  65 100 140 180 232 268 328 417
#
# _framework density 20.582326999999999
#
# number of rings (size 3 to 8) (size 9 to 14) (size 15 to 20)
#    1.000    0.667    3.333    1.000    4.667    2.000 
#    3.000    2.500    0.000    0.000    0.000    0.000 
#    0.000    0.000    0.000    0.000    0.000    0.000 
#
# Total GULP energy -134058.459743 kJ/mol
# GULP energy per Si atom -5585.769156 kJ/mol
# Density = 2.053548 g / cm^3
# Si number density = 20.582327 Si / 1000 Ang^3
#
#
#
# Elastic Constant Matrix: (Units=GPa)
#
#
# Indices 1 2 3 4 5 6 
#
# 1 120.3122 48.1994 36.0506 0.0001 5.9563 0.0000
# 2 48.1994 135.4423 35.4497 0.0000 6.0262 0.0000
# 3 36.0506 35.4497 71.6701 0.0004 6.7756 -0.0004
# 4 0.0001 0.0000 0.0004 20.4313 -0.0002 -1.7133
# 5 5.9563 6.0262 6.7756 -0.0002 27.7566 0.0001
# 6 0.0000 0.0000 -0.0004 -1.7133 0.0001 12.8921
#
#
#
# Elastic Compliance Matrix: (Units=1/GPa)
#
#
# Indices 1 2 3 4 5 6 
#
# 1 0.010612 -0.002717 -0.003925 0.000000 -0.000729 0.000000
# 2 -0.002717 0.009196 -0.003120 0.000000 -0.000652 0.000000
# 3 -0.003925 -0.003120 0.017736 0.000000 -0.002810 0.000001
# 4 0.000000 0.000000 0.000000 0.049496 0.000000 0.006578
# 5 -0.000729 -0.000652 -0.002810 0.000000 0.037011 0.000000
# 6 0.000000 0.000000 0.000001 0.006578 0.000000 0.078441
#
#
# Mechanical properties :
#
#
# Convention : Reuss Voigt Hill
#
# Bulk Modulus (GPa) = 55.49510 62.98046 59.23778
# Shear Modulus (GPa) = 21.92749 26.06432 23.99591
#
# Velocity S-wave (km/s) = 3.26752 3.56243 3.41816
# Velocity P-wave (km/s) = 6.42313 6.89833 6.66497
#
# Compressibility (1/GPa) = 0.01801961
#
# Stress axis : x y z
#
# Youngs Moduli (GPa) = 94.22926 108.74663 56.38154
#
# Poissons Ratio (x) = 0.29544 0.22132
# Poissons Ratio (y) = 0.25600 0.17592
# Poissons Ratio (z) = 0.36989 0.33932
#
# Static dielectric constant tensor:
#      x y z
#    x 1.803670 0.000000 -0.032140 
#    y 0.000000 1.703420 0.000000 
#    z -0.032140 0.000000 1.732860 
# 
# From -- ./inp_files/138888.got.cif
#   From: 2010.05.17/outbox.cif.g08.bks.cpg/sg15_70_cif.got.tgz:138888.got - 2010.06.03 18:47:42.
