data_PCOD9278649
_publ_section_title
;
Structure prediction by ZEFSAII (Michael W. Deem and Ramdas Pophale) SiO2 
 PCOD9278649
Probable space group: C 2/C
;
_chemical_formula_sum "Si O2"
_cell_formula_units_Z 48
_cell_length_a 9.616451
_cell_length_b 21.487939
_cell_length_c 10.702874
_cell_angle_alpha 90.000000
_cell_angle_beta 103.108660
_cell_angle_gamma 90.000000
_cell_volume 2153.986408
_symmetry_space_group_name_H-M "C 2/C"
_symmetry_group_IT_number 15
_symmetry_cell_setting 'monoclinic'
loop_
_space_group_symop_operation_xyz
x,y,z
-x,y,1/2-z
-x,-y,-z
x,-y,1/2+z
1/2+x,1/2+y,z
1/2-x,1/2+y,1/2-z
1/2-x,1/2-y,-z
1/2+x,1/2-y,1/2+z
loop_
_atom_site_type_symbol
_atom_site_label
_atom_site_fract_x
_atom_site_fract_y
_atom_site_fract_z
Si Si1 0.945005 0.836349 0.871543
Si Si2 0.833245 0.023247 0.705512
Si Si3 0.788998 0.873807 0.411196
Si Si4 0.908209 0.558238 0.424354
Si Si5 0.372904 0.805363 0.303311
Si Si6 0.299048 0.110444 0.024052
O O1 0.926500 0.762050 0.854286
O O2 0.000000 0.859351 0.750000
O O3 0.795409 0.861911 0.886622
O O4 0.063119 0.858707 0.992726
O O5 0.805898 0.073194 0.809200
O O6 0.790842 0.054898 0.563032
O O7 0.000000 0.005767 0.750000
O O8 0.714334 0.969491 0.689470
O O9 0.675966 0.900573 0.489268
O O10 0.747017 0.810862 0.327688
O O11 0.000000 0.500000 0.500000
O O12 0.041560 0.595917 0.398786
O O13 0.500000 0.838283 0.250000
O O14 0.322219 0.841256 0.414763
#
# Coordination Sequence:
#
# PCOD9278649 Si02
#       6
#     8   8   8   8   8   8
#     4  11  25  43  69 102 142 188 233 284 350 421
#     4  10  21  41  73 103 135 188 229 289 358 418
#     4  11  23  46  71 100 141 182 229 292 347 418
#     4  10  23  42  71 100 134 183 233 289 350 415
#     4  10  21  40  77 100 136 181 234 286 358 416
#     4  10  20  44  67 104 141 180 232 296 345 423
#
# _framework density 22.284261999999998
#
# number of rings (size 3 to 8) (size 9 to 14) (size 15 to 20)
#    0.000    1.667    3.333    0.500    0.000    4.000 
#    9.000    0.000    0.000    0.000    0.000    0.000 
#    0.000    0.000    0.000    0.000    0.000    0.000 
#
# Total GULP energy -134000.902926 kJ/mol
# GULP energy per Si atom -5583.370955 kJ/mol
# Density = 2.223354 g / cm^3
# Si number density = 22.284262 Si / 1000 Ang^3
#
#
#
# Elastic Constant Matrix: (Units=GPa)
#
#
# Indices 1 2 3 4 5 6 
#
# 1 187.6963 45.9315 51.6431 0.0000 10.2419 0.0000
# 2 45.9315 71.1722 41.6928 0.0000 7.1547 0.0000
# 3 51.6431 41.6928 94.0198 0.0000 14.5973 0.0000
# 4 0.0000 0.0000 0.0000 32.5395 0.0000 5.5282
# 5 10.2419 7.1547 14.5973 0.0000 41.3410 0.0000
# 6 0.0000 0.0000 0.0000 5.5282 0.0000 31.6643
#
#
#
# Elastic Compliance Matrix: (Units=1/GPa)
#
#
# Indices 1 2 3 4 5 6 
#
# 1 0.006704 -0.002926 -0.002333 0.000000 -0.000330 0.000000
# 2 -0.002926 0.020263 -0.007349 0.000000 -0.000187 0.000000
# 3 -0.002333 -0.007349 0.015753 0.000000 -0.003712 0.000000
# 4 0.000000 0.000000 0.000000 0.031671 0.000000 -0.005529
# 5 -0.000330 -0.000187 -0.003712 0.000000 0.025614 0.000000
# 6 0.000000 0.000000 0.000000 -0.005529 0.000000 0.032547
#
#
# Mechanical properties :
#
#
# Convention : Reuss Voigt Hill
#
# Bulk Modulus (GPa) = 57.13554 70.15814 63.64684
# Shear Modulus (GPa) = 30.56169 35.35035 32.95602
#
# Velocity S-wave (km/s) = 3.70732 3.98721 3.84981
# Velocity P-wave (km/s) = 6.63481 7.26283 6.95591
#
# Compressibility (1/GPa) = 0.01750224
#
# Stress axis : x y z
#
# Youngs Moduli (GPa) = 149.16718 49.35132 63.47978
#
# Poissons Ratio (x) = 0.14442 0.14812
# Poissons Ratio (y) = 0.43651 0.46652
# Poissons Ratio (z) = 0.34806 0.36269
#
# Static dielectric constant tensor:
#      x y z
#    x 1.851450 0.000000 -0.016620 
#    y 0.000000 1.962760 0.000000 
#    z -0.016620 0.000000 1.892460 
# 
# From -- ./inp_files/79877.got.cif
#   From: 2010.05.17/outbox.cif.g08.bks.cpg/sg15_40_cif.got.tgz:79877.got - 2010.06.03 18:47:42.
