data_PCOD9278863
_publ_section_title
;
Structure prediction by ZEFSAII (Michael W. Deem and Ramdas Pophale) SiO2 
 PCOD9278863
Probable space group: C 2/C
;
_chemical_formula_sum "Si O2"
_cell_formula_units_Z 64
_cell_length_a 9.128256
_cell_length_b 31.180710
_cell_length_c 23.255465
_cell_angle_alpha 90.000000
_cell_angle_beta 26.678209
_cell_angle_gamma 90.000000
_cell_volume 2971.837483
_symmetry_space_group_name_H-M "C 2/C"
_symmetry_group_IT_number 15
_symmetry_cell_setting 'monoclinic'
loop_
_space_group_symop_operation_xyz
x,y,z
-x,y,1/2-z
-x,-y,-z
x,-y,1/2+z
1/2+x,1/2+y,z
1/2-x,1/2+y,1/2-z
1/2-x,1/2-y,-z
1/2+x,1/2-y,1/2+z
loop_
_atom_site_type_symbol
_atom_site_label
_atom_site_fract_x
_atom_site_fract_y
_atom_site_fract_z
Si Si1 0.852874 0.906876 0.658464
Si Si2 0.116148 0.907232 0.367236
Si Si3 0.040463 0.352104 0.624459
Si Si4 0.787978 0.676213 0.765932
Si Si5 0.700328 0.277148 0.885506
Si Si6 0.412494 0.798118 0.000215
Si Si7 0.608210 0.499407 0.894337
Si Si8 0.804905 0.330249 0.487387
O O1 0.500000 0.905612 0.750000
O O2 0.745271 0.884425 0.755967
O O3 0.984258 0.955125 0.604879
O O4 0.129755 0.875364 0.537709
O O5 0.500000 0.911205 0.250000
O O6 0.149892 0.872475 0.305202
O O7 0.859021 0.881407 0.497751
O O8 0.992473 0.955845 0.406742
O O9 0.154696 0.318943 0.633449
O O10 0.937412 0.321341 0.607765
O O11 0.469453 0.704916 0.881846
O O12 0.000000 0.678098 0.750000
O O13 0.997829 0.684508 0.637020
O O14 0.518233 0.248232 0.996494
O O15 0.000000 0.252807 0.750000
O O16 0.479210 0.294762 0.911644
O O17 0.488443 0.828906 0.027513
O O18 0.000000 0.499468 0.750000
O O19 0.500000 0.500000 0.000000
#
# Coordination Sequence:
#
# PCOD9278863 Si02
#       8
#     8   8   8   8   8   8   8   8
#     4  11  22  38  62  92 130 171 206 263 333 385
#     4   9  18  32  58  89 121 158 205 263 316 371
#     4  11  21  42  61  87 132 169 213 265 326 394
#     4  10  22  39  65  88 124 165 213 272 326 386
#     4  12  22  40  63  90 128 167 217 276 325 379
#     4  11  26  40  62  92 123 171 224 268 319 393
#     4  10  21  31  58  97 134 162 212 277 323 391
#     4  12  22  40  63  89 129 171 215 270 331 383
#
# _framework density 21.535496999999999
#
# number of rings (size 3 to 8) (size 9 to 14) (size 15 to 20)
#    0.000    1.250    2.500    5.625    5.250    0.500 
#    0.000    0.000    5.500    3.000    6.500    0.000 
#    0.000    0.000    0.000    0.000    0.000    0.000 
#
# Total GULP energy -178292.666296 kJ/mol
# GULP energy per Si atom -5571.645822 kJ/mol
# Density = 2.148648 g / cm^3
# Si number density = 21.535497 Si / 1000 Ang^3
#
#
#
# Elastic Constant Matrix: (Units=GPa)
#
#
# Indices 1 2 3 4 5 6 
#
# 1 93.3914 18.6476 10.0997 0.0012 2.4131 0.0001
# 2 18.6476 135.4702 11.3901 0.0004 -0.8984 0.0001
# 3 10.0997 11.3901 72.2413 -0.0064 14.0783 -0.0039
# 4 0.0012 0.0004 -0.0064 25.5546 -0.0012 12.1095
# 5 2.4131 -0.8984 14.0783 -0.0012 25.3371 0.0011
# 6 0.0001 0.0001 -0.0039 12.1095 0.0011 15.1590
#
#
#
# Elastic Compliance Matrix: (Units=1/GPa)
#
#
# Indices 1 2 3 4 5 6 
#
# 1 0.011139 -0.001431 -0.001250 -0.000001 -0.000417 0.000001
# 2 -0.001431 0.007689 -0.001225 0.000000 0.001089 0.000000
# 3 -0.001250 -0.001225 0.015919 0.000002 -0.008770 0.000003
# 4 -0.000001 0.000000 0.000002 0.062968 0.000004 -0.050301
# 5 -0.000417 0.001089 -0.008770 0.000004 0.044419 -0.000009
# 6 0.000001 0.000000 0.000003 -0.050301 -0.000009 0.106149
#
#
# Mechanical properties :
#
#
# Convention : Reuss Voigt Hill
#
# Bulk Modulus (GPa) = 37.12542 42.37529 39.75036
# Shear Modulus (GPa) = 18.86264 30.60785 24.73525
#
# Velocity S-wave (km/s) = 2.96275 3.77407 3.39275
# Velocity P-wave (km/s) = 5.38335 6.22183 5.81771
#
# Compressibility (1/GPa) = 0.02693572
#
# Stress axis : x y z
#
# Youngs Moduli (GPa) = 89.77187 130.05852 62.81629
#
# Poissons Ratio (x) = 0.18611 0.07855
# Poissons Ratio (y) = 0.12846 0.07692
# Poissons Ratio (z) = 0.11226 0.15926
#
# Static dielectric constant tensor:
#      x y z
#    x 1.787930 0.000000 0.020510 
#    y 0.000000 1.840430 0.000000 
#    z 0.020510 0.000000 1.838650 
# 
# From -- ./inp_files/266736.got.cif
#   From: 2010.05.17/outbox.cif.g08.bks.cpg/sg15_134_cif.got.tgz:266736.got - 2010.06.03 18:47:42.
