data_PCOD9278636
_publ_section_title
;
Structure prediction by ZEFSAII (Michael W. Deem and Ramdas Pophale) SiO2 
 PCOD9278636
Probable space group: C 2/C
;
_chemical_formula_sum "Si O2"
_cell_formula_units_Z 44
_cell_length_a 28.706192
_cell_length_b 12.192727
_cell_length_c 15.667832
_cell_angle_alpha 90.000000
_cell_angle_beta 161.710618
_cell_angle_gamma 90.000000
_cell_volume 1720.921741
_symmetry_space_group_name_H-M "C 2/C"
_symmetry_group_IT_number 15
_symmetry_cell_setting 'monoclinic'
loop_
_space_group_symop_operation_xyz
x,y,z
-x,y,1/2-z
-x,-y,-z
x,-y,1/2+z
1/2+x,1/2+y,z
1/2-x,1/2+y,1/2-z
1/2-x,1/2-y,-z
1/2+x,1/2-y,1/2+z
loop_
_atom_site_type_symbol
_atom_site_label
_atom_site_fract_x
_atom_site_fract_y
_atom_site_fract_z
Si Si1 0.286394 0.261033 0.660362
Si Si2 0.000000 0.099404 0.750000
Si Si3 0.907555 0.806639 0.268677
Si Si4 0.255028 0.983015 0.418408
Si Si5 0.000000 0.500000 0.500000
Si Si6 0.182402 0.481303 0.651383
Si Si7 0.500000 0.212392 0.750000
O O1 0.250000 0.250000 0.500000
O O2 0.290782 0.392405 0.683874
O O3 0.140570 0.221793 0.457537
O O4 0.457859 0.228095 0.968760
O O5 0.941594 0.165538 0.730281
O O6 0.857476 0.036049 0.468175
O O7 0.880307 0.908187 0.285393
O O8 0.750000 0.750000 0.000000
O O9 0.327719 0.947118 0.453801
O O10 0.370082 0.990005 0.696576
O O11 0.872598 0.483996 0.351965
O O12 0.082543 0.370468 0.459948
#
# Coordination Sequence:
#
# PCOD9278636 Si02
#       7
#     8   4   8   8   4   8   4
#     4  11  25  44  73 101 140 186 240 298 359 433
#     4  12  24  46  72 100 152 194 238 308 382 434
#     4  12  28  46  72 107 148 193 245 297 373 445
#     4  11  24  46  73 104 148 190 242 305 360 438
#     4  12  20  38  76 106 136 184 254 286 368 428
#     4  11  22  41  73 104 138 195 239 301 362 438
#     4  10  20  44  66  94 144 182 232 286 364 416
#
# _framework density 25.567693999999999
#
# number of rings (size 3 to 8) (size 9 to 14) (size 15 to 20)
#    0.000    0.727    9.091    0.545    5.091    0.000 
#    3.273    2.727    0.000    0.000    0.000    0.000 
#    0.000    0.000    0.000    0.000    0.000    0.000 
#
# Total GULP energy -122474.388717 kJ/mol
# GULP energy per Si atom -5567.017669 kJ/mol
# Density = 2.550950 g / cm^3
# Si number density = 25.567694 Si / 1000 Ang^3
#
#
#
# Elastic Constant Matrix: (Units=GPa)
#
#
# Indices 1 2 3 4 5 6 
#
# 1 290.8798 25.9444 91.0329 0.0000 15.7754 0.0000
# 2 25.9444 8.4234 15.9053 0.0000 5.8264 0.0000
# 3 91.0329 15.9053 229.5762 0.0000 19.8927 0.0000
# 4 0.0000 0.0000 0.0000 26.0438 0.0000 7.0204
# 5 15.7754 5.8264 19.8927 0.0000 70.5492 0.0000
# 6 0.0000 0.0000 0.0000 7.0204 0.0000 23.0437
#
#
#
# Elastic Compliance Matrix: (Units=1/GPa)
#
#
# Indices 1 2 3 4 5 6 
#
# 1 0.004954 -0.013471 -0.001057 0.000000 0.000303 0.000000
# 2 -0.013471 0.178799 -0.006178 0.000000 -0.010012 0.000000
# 3 -0.001057 -0.006178 0.005267 0.000000 -0.000739 0.000000
# 4 0.000000 0.000000 0.000000 0.041832 0.000000 -0.012744
# 5 0.000303 -0.010012 -0.000739 0.000000 0.015142 0.000000
# 6 0.000000 0.000000 0.000000 -0.012744 0.000000 0.047278
#
#
# Mechanical properties :
#
#
# Convention : Reuss Voigt Hill
#
# Bulk Modulus (GPa) = 6.77476 88.29383 47.53430
# Shear Modulus (GPa) = 13.02465 50.32714 31.67589
#
# Velocity S-wave (km/s) = 2.25948 4.44146 3.52362
# Velocity P-wave (km/s) = 3.07611 7.80452 5.93182
#
# Compressibility (1/GPa) = 0.14760665
#
# Stress axis : x y z
#
# Youngs Moduli (GPa) = 201.86431 5.59288 189.85732
#
# Poissons Ratio (x) = 0.07534 0.20073
# Poissons Ratio (y) = 2.71933 1.17298
# Poissons Ratio (z) = 0.21343 0.03455
#
# Static dielectric constant tensor:
#      x y z
#    x 1.991460 0.000000 0.017510 
#    y 0.000000 2.268800 0.000000 
#    z 0.017510 0.000000 2.079440 
# 
# From -- ./inp_files/178823.got.cif
#   From: 2010.05.17/outbox.cif.g08.bks.cpg/sg15_90_cif.got.tgz:178823.got - 2010.06.03 18:47:42.
