data_PCOD9278244
_publ_section_title
;
Structure prediction by ZEFSAII (Michael W. Deem and Ramdas Pophale) SiO2 
 PCOD9278244
Probable space group: C 2/C
;
_chemical_formula_sum "Si O2"
_cell_formula_units_Z 52
_cell_length_a 11.026156
_cell_length_b 7.802775
_cell_length_c 24.259969
_cell_angle_alpha 90.000000
_cell_angle_beta 85.682251
_cell_angle_gamma 90.000000
_cell_volume 2081.273318
_symmetry_space_group_name_H-M "C 2/C"
_symmetry_group_IT_number 15
_symmetry_cell_setting 'monoclinic'
loop_
_space_group_symop_operation_xyz
x,y,z
-x,y,1/2-z
-x,-y,-z
x,-y,1/2+z
1/2+x,1/2+y,z
1/2-x,1/2+y,1/2-z
1/2-x,1/2-y,-z
1/2+x,1/2-y,1/2+z
loop_
_atom_site_type_symbol
_atom_site_label
_atom_site_fract_x
_atom_site_fract_y
_atom_site_fract_z
Si Si1 0.809663 0.539966 0.332071
Si Si2 0.751047 0.900257 0.277228
Si Si3 0.372030 0.084888 0.017852
Si Si4 0.111926 0.054188 0.034726
Si Si5 0.069778 0.376665 0.857679
Si Si6 0.500000 0.396072 0.750000
Si Si7 0.450408 0.511837 0.143089
O O1 0.790072 0.718082 0.299981
O O2 0.807932 0.400022 0.282375
O O3 0.935168 0.542548 0.359884
O O4 0.688331 0.529065 0.373515
O O5 0.662087 0.009267 0.319373
O O6 0.876765 0.001390 0.266940
O O7 0.246030 0.978369 0.018911
O O8 0.383112 0.140744 0.081515
O O9 0.367250 0.245443 0.976921
O O10 0.500000 0.000000 0.000000
O O11 0.059611 0.020865 0.096834
O O12 0.000000 0.000000 0.000000
O O13 0.053550 0.184109 0.834839
O O14 0.531839 0.340841 0.811184
#
# Coordination Sequence:
#
# PCOD9278244 Si02
#       7
#     8   8   8   8   8   4   8
#     4  11  26  43  70 102 139 187 232 290 352 424
#     4  11  23  44  67 100 138 180 233 285 346 425
#     4  11  28  45  73 105 141 184 241 299 353 428
#     4  11  25  49  71 105 141 185 240 295 359 422
#     4  12  25  45  69 100 142 183 231 293 352 422
#     4  10  20  42  68  94 134 180 218 274 354 402
#     4  11  24  45  72  97 142 186 226 292 352 421
#
# _framework density 24.984704000000001
#
# number of rings (size 3 to 8) (size 9 to 14) (size 15 to 20)
#    0.000    0.923    3.077    3.231    4.308    0.615 
#   16.615    0.000    0.000    0.000    0.000    0.000 
#    0.000    0.000    0.000    0.000    0.000    0.000 
#
# Total GULP energy -145286.381596 kJ/mol
# GULP energy per Si atom -5587.937754 kJ/mol
# Density = 2.492784 g / cm^3
# Si number density = 24.984704 Si / 1000 Ang^3
#
#
#
# Elastic Constant Matrix: (Units=GPa)
#
#
# Indices 1 2 3 4 5 6 
#
# 1 198.8265 21.5394 27.8310 0.0000 -22.7644 0.0000
# 2 21.5394 81.1672 15.0726 0.0000 -12.6033 0.0000
# 3 27.8310 15.0726 87.0304 0.0000 -12.6331 0.0000
# 4 0.0000 0.0000 0.0000 26.9465 0.0000 3.5245
# 5 -22.7644 -12.6033 -12.6331 0.0000 51.9148 0.0000
# 6 0.0000 0.0000 0.0000 3.5245 0.0000 30.1424
#
#
#
# Elastic Compliance Matrix: (Units=1/GPa)
#
#
# Indices 1 2 3 4 5 6 
#
# 1 0.005532 -0.000929 -0.001336 0.000000 0.001875 0.000000
# 2 -0.000929 0.013247 -0.001648 0.000000 0.002408 0.000000
# 3 -0.001336 -0.001648 0.012501 0.000000 0.002056 0.000000
# 4 0.000000 0.000000 0.000000 0.037687 0.000000 -0.004407
# 5 0.001875 0.002408 0.002056 0.000000 0.021169 0.000000
# 6 0.000000 0.000000 0.000000 -0.004407 0.000000 0.033691
#
#
# Mechanical properties :
#
#
# Convention : Reuss Voigt Hill
#
# Bulk Modulus (GPa) = 42.63491 55.10110 48.86801
# Shear Modulus (GPa) = 35.84997 41.97283 38.91140
#
# Velocity S-wave (km/s) = 3.79209 4.10315 3.95068
# Velocity P-wave (km/s) = 6.02285 6.67455 6.35706
#
# Compressibility (1/GPa) = 0.02345496
#
# Stress axis : x y z
#
# Youngs Moduli (GPa) = 180.77249 75.49147 79.99171
#
# Poissons Ratio (x) = 0.07011 0.10687
# Poissons Ratio (y) = 0.16789 0.13180
# Poissons Ratio (z) = 0.24151 0.12438
#
# Static dielectric constant tensor:
#      x y z
#    x 2.053490 0.000000 0.023650 
#    y 0.000000 2.029160 0.000000 
#    z 0.023650 0.000000 2.077340 
# 
# From -- ./inp_files/291161.got.cif
#   From: 2010.05.17/outbox.cif.g08.bks.cpg/sg15_146_cif.got.tgz:291161.got - 2010.06.03 18:47:42.
