data_PCOD9278187
_publ_section_title
;
Structure prediction by ZEFSAII (Michael W. Deem and Ramdas Pophale) SiO2 
 PCOD9278187
Probable space group: C 2/C
;
_chemical_formula_sum "Si O2"
_cell_formula_units_Z 40
_cell_length_a 16.628696
_cell_length_b 5.240017
_cell_length_c 25.410256
_cell_angle_alpha 90.000000
_cell_angle_beta 42.272857
_cell_angle_gamma 90.000000
_cell_volume 1489.350296
_symmetry_space_group_name_H-M "C 2/C"
_symmetry_group_IT_number 15
_symmetry_cell_setting 'monoclinic'
loop_
_space_group_symop_operation_xyz
x,y,z
-x,y,1/2-z
-x,-y,-z
x,-y,1/2+z
1/2+x,1/2+y,z
1/2-x,1/2+y,1/2-z
1/2-x,1/2-y,-z
1/2+x,1/2-y,1/2+z
loop_
_atom_site_type_symbol
_atom_site_label
_atom_site_fract_x
_atom_site_fract_y
_atom_site_fract_z
Si Si1 0.594366 0.901295 0.808176
Si Si2 0.836664 0.979989 0.519706
Si Si3 0.078578 0.304319 0.928848
Si Si4 0.936543 0.900473 0.867160
Si Si5 0.138222 0.519337 0.678163
O O1 0.642535 0.894634 0.844687
O O2 0.531289 0.630609 0.825055
O O3 0.501080 0.137972 0.855885
O O4 0.679891 0.973814 0.718112
O O5 0.838004 0.181176 0.567577
O O6 0.834101 0.047055 0.460153
O O7 0.714444 0.852192 0.599171
O O8 0.969895 0.872701 0.461342
O O9 0.000000 0.500000 0.000000
O O10 0.887071 0.799271 0.835410
O O11 0.000000 0.424413 0.750000
#
# Coordination Sequence:
#
# PCOD9278187 Si02
#       5
#     8   8   8   8   8
#     4  10  22  42  66  96 133 174 216 277 335 393
#     4  10  21  42  68  97 128 179 224 274 332 396
#     4  10  20  42  67  93 129 171 231 272 321 401
#     4  10  21  42  68  93 132 175 225 267 327 405
#     4  10  23  43  61  98 136 172 213 278 337 395
#
# _framework density 26.857346
#
# number of rings (size 3 to 8) (size 9 to 14) (size 15 to 20)
#    0.000    2.000    2.000    0.600    0.000    7.200 
#   18.000    9.000    0.000    0.000    0.000    0.000 
#    0.000    0.000    0.000    0.000    0.000    0.000 
#
# Total GULP energy -111438.006613 kJ/mol
# GULP energy per Si atom -5571.900331 kJ/mol
# Density = 2.679622 g / cm^3
# Si number density = 26.857346 Si / 1000 Ang^3
#
#
#
# Elastic Constant Matrix: (Units=GPa)
#
#
# Indices 1 2 3 4 5 6 
#
# 1 58.0615 53.0524 48.3376 -0.0568 30.6973 -0.0192
# 2 53.0524 105.5522 25.1628 -0.0884 28.4375 -0.0739
# 3 48.3376 25.1628 207.0336 0.0705 60.6662 0.0389
# 4 -0.0568 -0.0884 0.0705 25.1163 0.0015 6.2247
# 5 30.6973 28.4375 60.6662 0.0015 65.1830 0.0060
# 6 -0.0192 -0.0739 0.0389 6.2247 0.0060 32.1455
#
#
#
# Elastic Compliance Matrix: (Units=1/GPa)
#
#
# Indices 1 2 3 4 5 6 
#
# 1 0.041710 -0.017838 -0.005630 0.000052 -0.006620 -0.000018
# 2 -0.017838 0.018366 0.002501 0.000011 -0.001940 0.000027
# 3 -0.005630 0.002501 0.007402 -0.000024 -0.005329 -0.000001
# 4 0.000052 0.000011 -0.000024 0.041822 -0.000007 -0.008098
# 5 -0.006620 -0.001940 -0.005329 -0.000007 0.024265 -0.000005
# 6 -0.000018 0.000027 -0.000001 -0.008098 -0.000005 0.032677
#
#
# Mechanical properties :
#
#
# Convention : Reuss Voigt Hill
#
# Bulk Modulus (GPa) = 39.14962 69.30589 54.22776
# Shear Modulus (GPa) = 23.07421 40.76193 31.91807
#
# Velocity S-wave (km/s) = 2.93429 3.90002 3.45110
# Velocity P-wave (km/s) = 5.10770 6.79275 6.00958
#
# Compressibility (1/GPa) = 0.02554303
#
# Stress axis : x y z
#
# Youngs Moduli (GPa) = 23.97500 54.44787 135.09460
#
# Poissons Ratio (x) = 0.97126 0.76063
# Poissons Ratio (y) = 0.42767 -0.33786
# Poissons Ratio (z) = 0.13499 -0.13617
#
# Static dielectric constant tensor:
#      x y z
#    x 1.490100 -0.000120 0.908970 
#    y -0.000120 2.290070 -0.001430 
#    z 0.908970 -0.001430 0.286780 
# 
# From -- ./inp_files/299839.got.cif
#   From: 2010.05.17/outbox.cif.g08.bks.cpg/sg15_150_cif.got.tgz:299839.got - 2010.06.03 18:47:42.
