data_PCOD9278104
_publ_section_title
;
Structure prediction by ZEFSAII (Michael W. Deem and Ramdas Pophale) SiO2 
 PCOD9278104
Probable space group: C 2/C
;
_chemical_formula_sum "Si O2"
_cell_formula_units_Z 48
_cell_length_a 10.047378
_cell_length_b 15.365401
_cell_length_c 27.518710
_cell_angle_alpha 90.000000
_cell_angle_beta 146.615507
_cell_angle_gamma 90.000000
_cell_volume 2337.698659
_symmetry_space_group_name_H-M "C 2/C"
_symmetry_group_IT_number 15
_symmetry_cell_setting 'monoclinic'
loop_
_space_group_symop_operation_xyz
x,y,z
-x,y,1/2-z
-x,-y,-z
x,-y,1/2+z
1/2+x,1/2+y,z
1/2-x,1/2+y,1/2-z
1/2-x,1/2-y,-z
1/2+x,1/2-y,1/2+z
loop_
_atom_site_type_symbol
_atom_site_label
_atom_site_fract_x
_atom_site_fract_y
_atom_site_fract_z
Si Si1 0.694439 0.589072 0.347138
Si Si2 0.501273 0.936343 0.392977
Si Si3 0.001274 0.063657 0.392978
Si Si4 0.040575 0.250000 0.976024
Si Si5 0.194439 0.589072 0.847138
Si Si6 0.545438 0.750000 0.088949
O O1 0.500000 0.625628 0.250000
O O2 0.833138 0.511461 0.362474
O O3 0.568089 0.553255 0.357150
O O4 0.877634 0.664409 0.419201
O O5 0.749999 0.938978 0.500000
O O6 0.568090 0.946745 0.357150
O O7 0.386006 0.840468 0.365011
O O8 0.886007 0.159531 0.365011
O O9 0.833140 0.988539 0.362475
O O10 0.877634 0.164410 0.919201
O O11 0.250000 0.250000 0.000000
O O12 0.128745 0.250000 0.058544
O O13 0.000000 0.625628 0.750000
O O14 0.250000 0.750000 0.000000
#
# Coordination Sequence:
#
# PCOD9278104 Si02
#       6
#     8   8   8   8   8   8
#     4  12  25  42  64  98 133 164 204 269 324 368
#     4  11  22  42  68  91 128 171 216 252 311 383
#     4  11  22  42  68  91 128 171 216 252 311 383
#     4  12  25  42  68  96 123 168 225 256 306 384
#     4  12  25  42  64  98 133 164 204 269 324 368
#     4  10  20  42  66  90 121 169 214 262 305 357
#
# _framework density 20.533014999999999
#
# number of rings (size 3 to 8) (size 9 to 14) (size 15 to 20)
#    0.000    0.667    6.667    3.500    4.667    0.000 
#    0.000    0.833    0.000    0.000    0.000    0.000 
#    0.000    0.000    0.000    0.000    0.000    0.000 
#
# Total GULP energy -134267.638440 kJ/mol
# GULP energy per Si atom -5594.484935 kJ/mol
# Density = 2.048628 g / cm^3
# Si number density = 20.533015 Si / 1000 Ang^3
#
#
#
# Elastic Constant Matrix: (Units=GPa)
#
#
# Indices 1 2 3 4 5 6 
#
# 1 210.8299 57.5711 19.2964 0.0000 -22.1057 0.0000
# 2 57.5711 134.3562 -8.8909 0.0000 16.0223 0.0001
# 3 19.2964 -8.8909 33.1709 0.0000 -14.8172 0.0001
# 4 0.0000 0.0000 0.0000 18.1876 0.0000 -19.8294
# 5 -22.1057 16.0223 -14.8172 0.0000 22.0138 0.0000
# 6 0.0000 0.0001 0.0001 -19.8294 0.0000 34.6983
#
#
#
# Elastic Compliance Matrix: (Units=1/GPa)
#
#
# Indices 1 2 3 4 5 6 
#
# 1 0.006947 -0.004156 -0.000984 0.000000 0.009339 0.000000
# 2 -0.004156 0.010646 -0.000078 0.000000 -0.011974 0.000000
# 3 -0.000984 -0.000078 0.043301 0.000000 0.028214 0.000000
# 4 0.000000 0.000000 0.000000 0.145868 0.000000 0.083361
# 5 0.009339 -0.011974 0.028214 0.000000 0.082509 0.000000
# 6 0.000000 0.000000 0.000000 0.083361 0.000000 0.076459
#
#
# Mechanical properties :
#
#
# Convention : Reuss Voigt Hill
#
# Bulk Modulus (GPa) = 19.81726 57.14559 38.48142
# Shear Modulus (GPa) = 12.72313 35.67196 24.19755
#
# Velocity S-wave (km/s) = 2.49196 4.17261 3.43661
# Velocity P-wave (km/s) = 4.23700 7.14883 5.87614
#
# Compressibility (1/GPa) = 0.05046106
#
# Stress axis : x y z
#
# Youngs Moduli (GPa) = 143.94508 93.92934 23.09389
#
# Poissons Ratio (x) = 0.39033 0.02272
# Poissons Ratio (y) = 0.59817 0.00179
# Poissons Ratio (z) = 0.14160 0.00730
#
# Static dielectric constant tensor:
#      x y z
#    x 1.698300 0.000000 -0.001390 
#    y 0.000000 1.723640 0.000000 
#    z -0.001390 0.000000 1.749030 
# 
# From -- ./inp_files/289128.got.cif
#   From: 2010.05.17/outbox.cif.g08.bks.cpg/sg15_145_cif.got.tgz:289128.got - 2010.06.03 18:47:42.
