data_PCOD9278848
_publ_section_title
;
Structure prediction by ZEFSAII (Michael W. Deem and Ramdas Pophale) SiO2 
 PCOD9278848
Probable space group: C 2/C
;
_chemical_formula_sum "Si O2"
_cell_formula_units_Z 60
_cell_length_a 18.699923
_cell_length_b 22.426948
_cell_length_c 16.630216
_cell_angle_alpha 90.000000
_cell_angle_beta 152.360487
_cell_angle_gamma 90.000000
_cell_volume 3235.481227
_symmetry_space_group_name_H-M "C 2/C"
_symmetry_group_IT_number 15
_symmetry_cell_setting 'monoclinic'
loop_
_space_group_symop_operation_xyz
x,y,z
-x,y,1/2-z
-x,-y,-z
x,-y,1/2+z
1/2+x,1/2+y,z
1/2-x,1/2+y,1/2-z
1/2-x,1/2-y,-z
1/2+x,1/2-y,1/2+z
loop_
_atom_site_type_symbol
_atom_site_label
_atom_site_fract_x
_atom_site_fract_y
_atom_site_fract_z
Si Si1 0.214333 0.130437 0.742207
Si Si2 0.626979 0.366224 0.524830
Si Si3 0.409074 0.965128 0.529598
Si Si4 0.232459 0.268679 0.098367
Si Si5 0.000000 0.268893 0.750000
Si Si6 0.718107 0.449709 0.745867
Si Si7 0.605957 0.551424 0.506817
Si Si8 0.261516 0.965093 0.555434
O O1 0.249987 0.198243 0.800425
O O2 0.183197 0.110799 0.620024
O O3 0.049291 0.121795 0.623566
O O4 0.345823 0.088682 0.911656
O O5 0.673622 0.298579 0.552514
O O6 0.726565 0.391012 0.699696
O O7 0.664852 0.407594 0.486582
O O8 0.306917 0.964094 0.508475
O O9 0.582881 0.963226 0.734795
O O10 0.368408 0.025002 0.439078
O O11 0.382482 0.266572 0.190712
O O12 0.106688 0.303429 0.918633
O O13 0.659209 0.500832 0.624978
O O14 0.577582 0.443204 0.668692
O O15 0.668770 0.524520 0.487362
#
# Coordination Sequence:
#
# PCOD9278848 Si02
#       8
#     8   8   8   8   4   8   8   8
#     4  10  21  34  49  67  96 130 163 196 231 276
#     4  10  21  34  49  67  96 130 163 196 231 276
#     4  10  21  31  47  72  98 123 156 196 241 283
#     4  11  22  36  48  70  99 132 164 198 231 278
#     4  10  24  34  48  66 104 130 166 198 232 264
#     4   8  16  33  49  66  90 122 159 196 234 281
#     4   8  16  33  49  66  90 122 159 196 234 281
#     4  10  21  31  47  72  98 123 156 196 241 283
#
# _framework density 18.544381999999999
#
# number of rings (size 3 to 8) (size 9 to 14) (size 15 to 20)
#    0.000    2.400    1.333    2.400    5.600    6.933 
#    0.000    0.000    0.000    0.000    0.000    0.933 
#    0.000    0.000    0.000    0.000    0.000    0.000 
#
# Total GULP energy -167230.694712 kJ/mol
# GULP energy per Si atom -5574.356490 kJ/mol
# Density = 1.850217 g / cm^3
# Si number density = 18.544382 Si / 1000 Ang^3
#
#
#
# Elastic Constant Matrix: (Units=GPa)
#
#
# Indices 1 2 3 4 5 6 
#
# 1 51.9292 14.5461 -9.0085 0.0000 11.8072 0.0000
# 2 14.5461 68.8075 10.9808 0.0000 -3.1761 0.0000
# 3 -9.0085 10.9808 43.3694 0.0000 2.0324 0.0000
# 4 0.0000 0.0000 0.0000 15.8338 0.0000 -3.3598
# 5 11.8072 -3.1761 2.0324 0.0000 12.7634 0.0000
# 6 0.0000 0.0000 0.0000 -3.3598 0.0000 15.5519
#
#
#
# Elastic Compliance Matrix: (Units=1/GPa)
#
#
# Indices 1 2 3 4 5 6 
#
# 1 0.031396 -0.009856 0.010572 0.000000 -0.033180 0.000000
# 2 -0.009856 0.018490 -0.007427 0.000000 0.014901 0.000000
# 3 0.010572 -0.007427 0.027887 0.000000 -0.016069 0.000000
# 4 0.000000 0.000000 0.000000 0.066190 0.000000 0.014300
# 5 -0.033180 0.014901 -0.016069 0.000000 0.115310 0.000000
# 6 0.000000 0.000000 0.000000 0.014300 0.000000 0.067390
#
#
# Mechanical properties :
#
#
# Convention : Reuss Voigt Hill
#
# Bulk Modulus (GPa) = 15.53985 21.90475 18.72230
# Shear Modulus (GPa) = 13.82989 18.66899 16.24944
#
# Velocity S-wave (km/s) = 2.73385 3.17633 2.96336
# Velocity P-wave (km/s) = 4.28523 5.02889 4.67188
#
# Compressibility (1/GPa) = 0.06435067
#
# Stress axis : x y z
#
# Youngs Moduli (GPa) = 31.85130 54.08346 35.85881
#
# Poissons Ratio (x) = 0.53304 -0.37909
# Poissons Ratio (y) = 0.31392 0.26632
# Poissons Ratio (z) = -0.33672 0.40168
#
# Static dielectric constant tensor:
#      x y z
#    x 1.657020 0.000000 0.021530 
#    y 0.000000 1.669510 0.000000 
#    z 0.021530 0.000000 1.714590 
# 
# From -- ./inp_files/164398.got.cif
#   From: 2010.05.17/outbox.cif.g08.bks.cpg/sg15_83_cif.got.tgz:164398.got - 2010.06.03 18:47:42.
