data_PCOD9278567
_publ_section_title
;
Structure prediction by ZEFSAII (Michael W. Deem and Ramdas Pophale) SiO2 
 PCOD9278567
Probable space group: C 2/C
;
_chemical_formula_sum "Si O2"
_cell_formula_units_Z 44
_cell_length_a 9.622730
_cell_length_b 11.483260
_cell_length_c 20.986733
_cell_angle_alpha 90.000000
_cell_angle_beta 58.232572
_cell_angle_gamma 90.000000
_cell_volume 1971.629979
_symmetry_space_group_name_H-M "C 2/C"
_symmetry_group_IT_number 15
_symmetry_cell_setting 'monoclinic'
loop_
_space_group_symop_operation_xyz
x,y,z
-x,y,1/2-z
-x,-y,-z
x,-y,1/2+z
1/2+x,1/2+y,z
1/2-x,1/2+y,1/2-z
1/2-x,1/2-y,-z
1/2+x,1/2-y,1/2+z
loop_
_atom_site_type_symbol
_atom_site_label
_atom_site_fract_x
_atom_site_fract_y
_atom_site_fract_z
Si Si1 0.587826 0.341397 0.336696
Si Si2 0.406805 0.860411 0.336744
Si Si3 0.500000 0.501548 0.250000
Si Si4 0.771470 0.871605 0.908276
Si Si5 0.644138 0.449091 0.009119
Si Si6 0.988839 0.598823 0.381456
O O1 0.730310 0.385208 0.348793
O O2 0.602036 0.417630 0.270883
O O3 0.428636 0.368837 0.417459
O O4 0.574398 0.204954 0.322605
O O5 0.500000 0.820766 0.250000
O O6 0.358619 0.753798 0.394387
O O7 0.495437 0.970741 0.347443
O O8 0.617399 0.571754 0.174644
O O9 0.588458 0.883245 0.923803
O O10 0.781249 0.941963 0.970627
O O11 0.500000 0.500000 0.000000
O O12 0.793811 0.387916 0.937175
#
# Coordination Sequence:
#
# PCOD9278567 Si02
#       6
#     8   8   4   8   8   8
#     4  10  23  41  65  93 129 168 217 269 320 396
#     4  11  22  41  64  96 129 166 217 267 325 391
#     4  10  20  44  60  92 126 168 204 268 332 372
#     4  10  23  42  67  90 131 167 214 265 322 391
#     4  11  22  45  64  91 131 171 215 267 323 380
#     4  11  23  41  64  98 124 169 215 266 323 392
#
# _framework density 22.316559999999999
#
# number of rings (size 3 to 8) (size 9 to 14) (size 15 to 20)
#    0.000    1.455    2.727    2.182    1.273    0.727 
#   13.091    0.000    0.000    0.000    0.000    0.000 
#    0.000    0.000    0.000    0.000    0.000    0.000 
#
# Total GULP energy -122637.180422 kJ/mol
# GULP energy per Si atom -5574.417292 kJ/mol
# Density = 2.226577 g / cm^3
# Si number density = 22.316560 Si / 1000 Ang^3
#
#
#
# Elastic Constant Matrix: (Units=GPa)
#
#
# Indices 1 2 3 4 5 6 
#
# 1 81.8923 33.6807 2.6228 0.0000 -11.7139 0.0000
# 2 33.6807 126.0090 6.7046 0.0000 16.5176 0.0000
# 3 2.6228 6.7046 35.4160 0.0000 -6.8648 0.0000
# 4 0.0000 0.0000 0.0000 18.3409 0.0000 6.2130
# 5 -11.7139 16.5176 -6.8648 0.0000 22.1796 0.0000
# 6 0.0000 0.0000 0.0000 6.2130 0.0000 21.0065
#
#
#
# Elastic Compliance Matrix: (Units=1/GPa)
#
#
# Indices 1 2 3 4 5 6 
#
# 1 0.016955 -0.006620 0.002861 0.000000 0.014770 0.000000
# 2 -0.006620 0.011716 -0.004358 0.000000 -0.013571 0.000000
# 3 0.002861 -0.004358 0.031671 0.000000 0.014559 0.000000
# 4 0.000000 0.000000 0.000000 0.060594 0.000000 -0.017922
# 5 0.014770 -0.013571 0.014559 0.000000 0.067500 0.000000
# 6 0.000000 0.000000 0.000000 -0.017922 0.000000 0.052905
#
#
# Mechanical properties :
#
#
# Convention : Reuss Voigt Hill
#
# Bulk Modulus (GPa) = 22.67227 36.59262 29.63244
# Shear Modulus (GPa) = 18.36357 25.65935 22.01146
#
# Velocity S-wave (km/s) = 2.87168 3.39453 3.14399
# Velocity P-wave (km/s) = 4.60183 5.63884 5.14652
#
# Compressibility (1/GPa) = 0.04410675
#
# Stress axis : x y z
#
# Youngs Moduli (GPa) = 58.97959 85.35202 31.57456
#
# Poissons Ratio (x) = 0.56505 -0.09032
# Poissons Ratio (y) = 0.39046 0.13761
# Poissons Ratio (z) = -0.16872 0.37198
#
# Static dielectric constant tensor:
#      x y z
#    x 1.860920 0.000000 -0.068710 
#    y 0.000000 1.897920 0.000000 
#    z -0.068710 0.000000 1.892770 
# 
# From -- ./inp_files/230143.got.cif
#   From: 2010.05.17/outbox.cif.g08.bks.cpg/sg15_116_cif.got.tgz:230143.got - 2010.06.03 18:47:42.
