data_PCOD9278193
_publ_section_title
;
Structure prediction by ZEFSAII (Michael W. Deem and Ramdas Pophale) SiO2 
 PCOD9278193
Probable space group: C 2/C
;
_chemical_formula_sum "Si O2"
_cell_formula_units_Z 64
_cell_length_a 27.116310
_cell_length_b 11.876383
_cell_length_c 18.468519
_cell_angle_alpha 90.000000
_cell_angle_beta 151.477903
_cell_angle_gamma 90.000000
_cell_volume 2839.998415
_symmetry_space_group_name_H-M "C 2/C"
_symmetry_group_IT_number 15
_symmetry_cell_setting 'monoclinic'
loop_
_space_group_symop_operation_xyz
x,y,z
-x,y,1/2-z
-x,-y,-z
x,-y,1/2+z
1/2+x,1/2+y,z
1/2-x,1/2+y,1/2-z
1/2-x,1/2-y,-z
1/2+x,1/2-y,1/2+z
loop_
_atom_site_type_symbol
_atom_site_label
_atom_site_fract_x
_atom_site_fract_y
_atom_site_fract_z
Si Si1 0.065879 0.524969 0.740292
Si Si2 0.870831 0.232967 0.168766
Si Si3 0.412721 0.518742 0.976024
Si Si4 0.683473 0.660696 0.249405
Si Si5 0.914546 0.985780 0.193243
Si Si6 0.240462 0.438597 0.870813
Si Si7 0.153307 0.527422 0.504168
Si Si8 0.208951 0.785964 0.241266
O O1 0.066767 0.654907 0.766123
O O2 0.141896 0.508670 0.770699
O O3 0.113433 0.459192 0.870784
O O4 0.948952 0.486421 0.578964
O O5 0.876441 0.213486 0.261619
O O6 0.898609 0.119974 0.161604
O O7 0.750000 0.250000 0.000000
O O8 0.388027 0.426195 0.884894
O O9 0.322404 0.497517 0.921185
O O10 0.389360 0.642397 0.913782
O O11 0.525157 0.488445 0.153143
O O12 0.777631 0.585063 0.402042
O O13 0.729840 0.747184 0.251553
O O14 0.000000 0.937373 0.250000
O O15 0.809540 0.925580 0.033805
O O16 0.199832 0.326038 0.778771
O O17 0.222570 0.627546 0.623729
#
# Coordination Sequence:
#
# PCOD9278193 Si02
#       8
#     8   8   8   8   8   8   8   8
#     4  11  23  40  64  98 122 164 214 272 309 381
#     4  12  22  36  66  92 126 160 210 267 323 368
#     4   9  21  40  62  92 127 166 214 263 324 388
#     4  10  21  41  62  89 125 165 205 267 320 387
#     4  10  22  37  63  95 121 165 219 266 312 390
#     4  10  20  42  67  96 129 167 219 272 316 389
#     4  10  23  42  63  92 131 161 215 264 320 385
#     4  10  22  41  64  88 129 180 199 265 338 382
#
# _framework density 22.535222999999998
#
# number of rings (size 3 to 8) (size 9 to 14) (size 15 to 20)
#    0.000    1.750    2.500    0.750    5.250    1.000 
#   13.500    6.250    0.000    0.000    0.000    0.000 
#    0.000    0.000    0.000    0.000    0.000    0.000 
#
# Total GULP energy -178665.284481 kJ/mol
# GULP energy per Si atom -5583.290140 kJ/mol
# Density = 2.248393 g / cm^3
# Si number density = 22.535223 Si / 1000 Ang^3
#
#
#
# Elastic Constant Matrix: (Units=GPa)
#
#
# Indices 1 2 3 4 5 6 
#
# 1 85.3746 19.0095 15.8196 0.0000 2.8466 0.0000
# 2 19.0095 68.4680 24.1085 0.0000 -15.4417 0.0000
# 3 15.8196 24.1085 103.8663 0.0000 -5.5054 0.0000
# 4 0.0000 0.0000 0.0000 23.4440 0.0000 -7.2705
# 5 2.8466 -15.4417 -5.5054 0.0000 28.2615 0.0000
# 6 0.0000 0.0000 0.0000 -7.2705 0.0000 26.7600
#
#
#
# Elastic Compliance Matrix: (Units=1/GPa)
#
#
# Indices 1 2 3 4 5 6 
#
# 1 0.012959 -0.004003 -0.001243 0.000000 -0.003734 0.000000
# 2 -0.004003 0.019190 -0.003301 0.000000 0.010245 0.000000
# 3 -0.001243 -0.003301 0.010604 0.000000 0.000387 0.000000
# 4 0.000000 0.000000 0.000000 0.046579 0.000000 0.012655
# 5 -0.003734 0.010245 0.000387 0.000000 0.041433 0.000000
# 6 0.000000 0.000000 0.000000 0.012655 0.000000 0.040808
#
#
# Mechanical properties :
#
#
# Convention : Reuss Voigt Hill
#
# Bulk Modulus (GPa) = 38.97245 41.73156 40.35201
# Shear Modulus (GPa) = 25.35250 28.94453 27.14852
#
# Velocity S-wave (km/s) = 3.35777 3.58776 3.47467
# Velocity P-wave (km/s) = 5.68897 5.97673 5.83462
#
# Compressibility (1/GPa) = 0.02565915
#
# Stress axis : x y z
#
# Youngs Moduli (GPa) = 77.16593 52.11123 94.30538
#
# Poissons Ratio (x) = 0.20858 0.11719
# Poissons Ratio (y) = 0.30887 0.31135
# Poissons Ratio (z) = 0.09589 0.17204
#
# Static dielectric constant tensor:
#      x y z
#    x 1.866920 0.000000 -0.007850 
#    y 0.000000 1.818480 0.000000 
#    z -0.007850 0.000000 1.880490 
# 
# From -- ./inp_files/225181.got.cif
#   From: 2010.05.17/outbox.cif.g08.bks.cpg/sg15_113_cif.got.tgz:225181.got - 2010.06.03 18:47:42.
