data_PCOD9278103
_publ_section_title
;
Structure prediction by ZEFSAII (Michael W. Deem and Ramdas Pophale) SiO2 
 PCOD9278103
Probable space group: C 2/C
;
_chemical_formula_sum "Si O2"
_cell_formula_units_Z 52
_cell_length_a 8.663767
_cell_length_b 20.447961
_cell_length_c 20.042650
_cell_angle_alpha 90.000000
_cell_angle_beta 136.611545
_cell_angle_gamma 90.000000
_cell_volume 2439.110140
_symmetry_space_group_name_H-M "C 2/C"
_symmetry_group_IT_number 15
_symmetry_cell_setting 'monoclinic'
loop_
_space_group_symop_operation_xyz
x,y,z
-x,y,1/2-z
-x,-y,-z
x,-y,1/2+z
1/2+x,1/2+y,z
1/2-x,1/2+y,1/2-z
1/2-x,1/2-y,-z
1/2+x,1/2-y,1/2+z
loop_
_atom_site_type_symbol
_atom_site_label
_atom_site_fract_x
_atom_site_fract_y
_atom_site_fract_z
Si Si1 0.500000 0.583465 0.250000
Si Si2 0.603657 0.746546 0.887980
Si Si3 0.007867 0.446758 0.561688
Si Si4 0.537617 0.160912 0.563280
Si Si5 0.518657 0.322429 0.882762
Si Si6 0.646826 0.887025 0.857554
Si Si7 0.137486 0.316836 0.228262
O O1 0.503329 0.627469 0.185225
O O2 0.739044 0.547853 0.330189
O O3 0.525889 0.819517 0.844341
O O4 0.393382 0.698681 0.827188
O O5 0.776142 0.716874 0.889077
O O6 0.750000 0.750000 0.000000
O O7 0.852236 0.436182 0.578978
O O8 0.000000 0.500000 0.500000
O O9 0.955344 0.382740 0.500543
O O10 0.278475 0.181193 0.485497
O O11 0.605521 0.132997 0.656908
O O12 0.374800 0.356377 0.897429
O O13 0.456363 0.252584 0.829952
O O14 0.500000 0.913931 0.750000
O O15 0.000000 0.335747 0.250000
#
# Coordination Sequence:
#
# PCOD9278103 Si02
#       7
#     4   8   8   8   8   8   8
#     4  10  20  42  66  90 120 164 216 270 324 396
#     4  12  22  37  60  98 136 173 210 266 343 417
#     4  11  25  46  66  91 125 173 229 285 338 388
#     4  11  24  40  61  92 134 171 213 275 345 406
#     4  11  21  36  67  97 126 169 217 265 331 407
#     4  12  21  39  68  98 127 169 226 273 327 414
#     4  12  23  35  57  96 139 172 209 264 340 413
#
# _framework density 21.319251999999999
#
# number of rings (size 3 to 8) (size 9 to 14) (size 15 to 20)
#    0.000    0.615    6.923    1.846    2.154    0.000 
#    2.769    3.846    0.000    0.000    0.000    0.000 
#    0.000    0.000    0.000    0.000    0.000    0.000 
#
# Total GULP energy -144917.872396 kJ/mol
# GULP energy per Si atom -5573.764323 kJ/mol
# Density = 2.127073 g / cm^3
# Si number density = 21.319252 Si / 1000 Ang^3
#
#
#
# Elastic Constant Matrix: (Units=GPa)
#
#
# Indices 1 2 3 4 5 6 
#
# 1 131.2902 8.7554 38.1631 0.0000 -22.3393 0.0000
# 2 8.7554 27.8431 2.1074 0.0000 -6.6928 0.0000
# 3 38.1631 2.1074 127.6715 0.0000 -8.2205 0.0000
# 4 0.0000 0.0000 0.0000 28.2393 0.0000 -16.6130
# 5 -22.3393 -6.6928 -8.2205 0.0000 47.2967 0.0000
# 6 0.0000 0.0000 0.0000 -16.6130 0.0000 19.8585
#
#
#
# Elastic Compliance Matrix: (Units=1/GPa)
#
#
# Indices 1 2 3 4 5 6 
#
# 1 0.009060 -0.001799 -0.002447 0.000000 0.003600 0.000000
# 2 -0.001799 0.037547 0.000208 0.000000 0.004500 0.000000
# 3 -0.002447 0.000208 0.008584 0.000000 0.000366 0.000000
# 4 0.000000 0.000000 0.000000 0.069728 0.000000 0.058332
# 5 0.003600 0.004500 0.000366 0.000000 0.023544 0.000000
# 6 0.000000 0.000000 0.000000 0.058332 0.000000 0.099155
#
#
# Mechanical properties :
#
#
# Convention : Reuss Voigt Hill
#
# Bulk Modulus (GPa) = 21.22429 42.76186 31.99307
# Shear Modulus (GPa) = 18.42309 34.93084 26.67696
#
# Velocity S-wave (km/s) = 2.94284 4.05219 3.54122
# Velocity P-wave (km/s) = 4.63941 6.48036 5.63556
#
# Compressibility (1/GPa) = 0.04711584
#
# Stress axis : x y z
#
# Youngs Moduli (GPa) = 110.37062 26.63323 116.49416
#
# Poissons Ratio (x) = 0.04790 0.28504
# Poissons Ratio (y) = 0.19852 -0.02418
# Poissons Ratio (z) = 0.27006 -0.00553
#
# Static dielectric constant tensor:
#      x y z
#    x 1.870350 0.000000 -0.027180 
#    y 0.000000 1.867130 0.000000 
#    z -0.027180 0.000000 1.796990 
# 
# From -- ./inp_files/234492.got.cif
#   From: 2010.05.17/outbox.cif.g08.bks.cpg/sg15_118_cif.got.tgz:234492.got - 2010.06.03 18:47:42.
