data_PCOD9278441
_publ_section_title
;
Structure prediction by ZEFSAII (Michael W. Deem and Ramdas Pophale) SiO2 
 PCOD9278441
Probable space group: C 2/C
;
_chemical_formula_sum "Si O2"
_cell_formula_units_Z 40
_cell_length_a 20.461937
_cell_length_b 6.941841
_cell_length_c 16.564837
_cell_angle_alpha 90.000000
_cell_angle_beta 123.284800
_cell_angle_gamma 90.000000
_cell_volume 1966.936880
_symmetry_space_group_name_H-M "C 2/C"
_symmetry_group_IT_number 15
_symmetry_cell_setting 'monoclinic'
loop_
_space_group_symop_operation_xyz
x,y,z
-x,y,1/2-z
-x,-y,-z
x,-y,1/2+z
1/2+x,1/2+y,z
1/2-x,1/2+y,1/2-z
1/2-x,1/2-y,-z
1/2+x,1/2-y,1/2+z
loop_
_atom_site_type_symbol
_atom_site_label
_atom_site_fract_x
_atom_site_fract_y
_atom_site_fract_z
Si Si1 0.888259 0.535701 0.475035
Si Si2 0.430148 0.397326 0.000613
Si Si3 0.212804 0.088975 0.342263
Si Si4 0.175587 0.157793 0.671076
Si Si5 0.070767 0.829813 0.859362
O O1 0.795575 0.516662 0.434169
O O2 0.881504 0.663181 0.388564
O O3 0.926687 0.664752 0.570616
O O4 0.073230 0.669527 0.509909
O O5 0.436696 0.470545 0.096444
O O6 0.500000 0.500000 0.000000
O O7 0.352379 0.489998 0.908276
O O8 0.240639 0.260849 0.300812
O O9 0.151768 0.162029 0.365707
O O10 0.176558 0.923665 0.261083
O O11 0.000000 0.803604 0.750000
#
# Coordination Sequence:
#
# PCOD9278441 Si02
#       5
#     8   8   8   8   8
#     4   9  23  41  65  96 128 174 221 275 333 395
#     4  11  23  43  63  94 129 170 220 275 340 394
#     4  10  20  43  64  97 129 175 222 274 333 397
#     4   9  21  38  63  93 129 166 223 270 325 398
#     4  11  24  42  63  95 137 171 221 280 330 400
#
# _framework density 20.336189999999998
#
# number of rings (size 3 to 8) (size 9 to 14) (size 15 to 20)
#    1.200    0.800    0.000    3.000    0.000    4.800 
#    7.200    0.000    0.000    0.000    0.000    0.000 
#    0.000    0.000    0.000    0.000    0.000    0.000 
#
# Total GULP energy -111540.189553 kJ/mol
# GULP energy per Si atom -5577.009478 kJ/mol
# Density = 2.028990 g / cm^3
# Si number density = 20.336190 Si / 1000 Ang^3
#
#
#
# Elastic Constant Matrix: (Units=GPa)
#
#
# Indices 1 2 3 4 5 6 
#
# 1 67.7159 18.4917 0.5550 0.0000 3.6779 0.0000
# 2 18.4917 120.5822 35.6812 0.0000 -8.7703 0.0000
# 3 0.5550 35.6812 107.3697 0.0000 10.8137 0.0000
# 4 0.0000 0.0000 0.0000 17.6663 0.0000 -4.4975
# 5 3.6779 -8.7703 10.8137 0.0000 23.3475 0.0000
# 6 0.0000 0.0000 0.0000 -4.4975 0.0000 13.6545
#
#
#
# Elastic Compliance Matrix: (Units=1/GPa)
#
#
# Indices 1 2 3 4 5 6 
#
# 1 0.015855 -0.003163 0.001406 0.000000 -0.004337 0.000000
# 2 -0.003163 0.010449 -0.004092 0.000000 0.006319 0.000000
# 3 0.001406 -0.004092 0.011374 0.000000 -0.007027 0.000000
# 4 0.000000 0.000000 0.000000 0.061786 0.000000 0.020351
# 5 -0.004337 0.006319 -0.007027 0.000000 0.049142 0.000000
# 6 0.000000 0.000000 0.000000 0.020351 0.000000 0.079939
#
#
# Mechanical properties :
#
#
# Convention : Reuss Voigt Hill
#
# Bulk Modulus (GPa) = 38.49213 45.01375 41.75294
# Shear Modulus (GPa) = 20.08804 26.99631 23.54218
#
# Velocity S-wave (km/s) = 3.14633 3.64744 3.40612
# Velocity P-wave (km/s) = 5.67170 6.31833 6.00373
#
# Compressibility (1/GPa) = 0.02597934
#
# Stress axis : x y z
#
# Youngs Moduli (GPa) = 63.07027 95.70599 87.91980
#
# Poissons Ratio (x) = 0.30271 -0.12361
# Poissons Ratio (y) = 0.19949 0.35980
# Poissons Ratio (z) = -0.08867 0.39166
#
# Static dielectric constant tensor:
#      x y z
#    x 1.746740 0.000000 0.033350 
#    y 0.000000 1.728050 0.000000 
#    z 0.033350 0.000000 1.729250 
# 
# From -- ./inp_files/160096.got.cif
#   From: 2010.05.17/outbox.cif.g08.bks.cpg/sg15_81_cif.got.tgz:160096.got - 2010.06.03 18:47:42.
