data_PCOD9278957
_publ_section_title
;
Structure prediction by ZEFSAII (Michael W. Deem and Ramdas Pophale) SiO2 
 PCOD9278957
Probable space group: C 2/C
;
_chemical_formula_sum "Si O2"
_cell_formula_units_Z 64
_cell_length_a 15.633798
_cell_length_b 17.258275
_cell_length_c 15.124572
_cell_angle_alpha 90.000000
_cell_angle_beta 45.102746
_cell_angle_gamma 90.000000
_cell_volume 2890.729026
_symmetry_space_group_name_H-M "C 2/C"
_symmetry_group_IT_number 15
_symmetry_cell_setting 'monoclinic'
loop_
_space_group_symop_operation_xyz
x,y,z
-x,y,1/2-z
-x,-y,-z
x,-y,1/2+z
1/2+x,1/2+y,z
1/2-x,1/2+y,1/2-z
1/2-x,1/2-y,-z
1/2+x,1/2-y,1/2+z
loop_
_atom_site_type_symbol
_atom_site_label
_atom_site_fract_x
_atom_site_fract_y
_atom_site_fract_z
Si Si1 0.487588 0.792421 0.660525
Si Si2 0.996324 0.173616 0.492947
Si Si3 0.392339 0.681762 0.380347
Si Si4 0.651871 0.149155 0.638451
Si Si5 0.865772 0.586902 0.539015
Si Si6 0.261346 0.116723 0.260853
Si Si7 0.411488 0.912148 0.485337
Si Si8 0.288412 0.565990 0.692824
O O1 0.500000 0.760332 0.750000
O O2 0.478450 0.729957 0.588915
O O3 0.602510 0.846528 0.552767
O O4 0.369607 0.847593 0.739641
O O5 0.136409 0.159066 0.371865
O O6 0.939364 0.206289 0.443592
O O7 0.920654 0.095363 0.568774
O O8 0.500000 0.639691 0.250000
O O9 0.361046 0.758252 0.346735
O O10 0.272749 0.635009 0.488877
O O11 0.556282 0.124253 0.632939
O O12 0.695041 0.108353 0.695124
O O13 0.877003 0.501230 0.491340
O O14 0.743909 0.593047 0.684192
O O15 0.972783 0.589960 0.534420
O O16 0.309301 0.123353 0.124973
O O17 0.237743 0.025358 0.293550
#
# Coordination Sequence:
#
# PCOD9278957 Si02
#       8
#     8   8   8   8   8   8   8   8
#     4  11  26  43  66  95 123 171 224 268 323 374
#     4  11  24  42  66  89 133 169 214 260 319 389
#     4  10  21  35  55  89 122 163 197 248 311 381
#     4  10  21  33  55  91 124 149 208 246 309 384
#     4   9  20  38  59  85 125 158 208 261 315 369
#     4  10  22  44  67  89 127 167 213 269 318 374
#     4   9  18  36  58  90 120 163 198 256 320 372
#     4  10  23  40  64  97 124 170 208 261 326 381
#
# _framework density 22.139744
#
# number of rings (size 3 to 8) (size 9 to 14) (size 15 to 20)
#    0.000    2.000    0.000    3.375    7.000    1.500 
#    0.000    0.000    0.000    1.500    0.000    0.000 
#    0.000    0.000    0.000    0.000    0.000    0.000 
#
# Total GULP energy -178661.317156 kJ/mol
# GULP energy per Si atom -5583.166161 kJ/mol
# Density = 2.208935 g / cm^3
# Si number density = 22.139744 Si / 1000 Ang^3
#
#
#
# Elastic Constant Matrix: (Units=GPa)
#
#
# Indices 1 2 3 4 5 6 
#
# 1 41.1662 11.3036 2.5463 0.0000 19.0984 0.0000
# 2 11.3036 60.3478 9.7427 0.0000 18.1357 0.0000
# 3 2.5463 9.7427 54.2684 0.0000 7.0728 0.0000
# 4 0.0000 0.0000 0.0000 28.3169 0.0000 -1.0922
# 5 19.0984 18.1357 7.0728 0.0000 45.1907 0.0000
# 6 0.0000 0.0000 0.0000 -1.0922 0.0000 15.1546
#
#
#
# Elastic Compliance Matrix: (Units=1/GPa)
#
#
# Indices 1 2 3 4 5 6 
#
# 1 0.030461 -0.002158 0.000534 0.000000 -0.012091 0.000000
# 2 -0.002158 0.019320 -0.002527 0.000000 -0.006446 0.000000
# 3 0.000534 -0.002527 0.019143 0.000000 -0.002208 0.000000
# 4 0.000000 0.000000 0.000000 0.035413 0.000000 0.002552
# 5 -0.012091 -0.006446 -0.002208 0.000000 0.030171 0.000000
# 6 0.000000 0.000000 0.000000 0.002552 0.000000 0.066170
#
#
# Mechanical properties :
#
#
# Convention : Reuss Voigt Hill
#
# Bulk Modulus (GPa) = 16.49588 22.55196 19.52392
# Shear Modulus (GPa) = 21.81619 26.54509 24.18064
#
# Velocity S-wave (km/s) = 3.14249 3.46638 3.30840
# Velocity P-wave (km/s) = 4.54246 5.12146 4.84063
#
# Compressibility (1/GPa) = 0.06062120
#
# Stress axis : x y z
#
# Youngs Moduli (GPa) = 32.82923 51.76007 52.23762
#
# Poissons Ratio (x) = 0.11171 -0.02790
# Poissons Ratio (y) = 0.07085 0.13201
# Poissons Ratio (z) = -0.01753 0.13080
#
# Static dielectric constant tensor:
#      x y z
#    x 1.887680 0.000000 -0.050990 
#    y 0.000000 1.803010 0.000000 
#    z -0.050990 0.000000 1.891130 
# 
# From -- ./inp_files/155480.got.cif
#   From: 2010.05.17/outbox.cif.g08.bks.cpg/sg15_78_cif.got.tgz:155480.got - 2010.06.03 18:47:42.
