data_PCOD9278685
_publ_section_title
;
Structure prediction by ZEFSAII (Michael W. Deem and Ramdas Pophale) SiO2 
 PCOD9278685
Probable space group: C 2/C
;
_chemical_formula_sum "Si O2"
_cell_formula_units_Z 48
_cell_length_a 14.429401
_cell_length_b 8.197035
_cell_length_c 23.805432
_cell_angle_alpha 90.000000
_cell_angle_beta 138.820268
_cell_angle_gamma 90.000000
_cell_volume 1853.900076
_symmetry_space_group_name_H-M "C 2/C"
_symmetry_group_IT_number 15
_symmetry_cell_setting 'monoclinic'
loop_
_space_group_symop_operation_xyz
x,y,z
-x,y,1/2-z
-x,-y,-z
x,-y,1/2+z
1/2+x,1/2+y,z
1/2-x,1/2+y,1/2-z
1/2-x,1/2-y,-z
1/2+x,1/2-y,1/2+z
loop_
_atom_site_type_symbol
_atom_site_label
_atom_site_fract_x
_atom_site_fract_y
_atom_site_fract_z
Si Si1 0.330783 0.104067 0.479933
Si Si2 0.791484 0.420216 0.737367
Si Si3 0.842622 0.941739 0.419594
Si Si4 0.893795 0.393785 0.618488
Si Si5 0.671261 0.082873 0.635008
Si Si6 0.599604 0.526697 0.849308
O O1 0.317160 0.272886 0.437676
O O2 0.507411 0.105678 0.553865
O O3 0.345844 0.971364 0.538821
O O4 0.141955 0.117076 0.408927
O O5 0.690907 0.550617 0.661769
O O6 0.743319 0.244320 0.692826
O O7 0.787038 0.442318 0.802196
O O8 0.952690 0.461130 0.795300
O O9 0.729636 0.068038 0.394323
O O10 0.000000 0.000000 0.500000
O O11 0.922541 0.199296 0.632506
O O12 0.736083 0.032535 0.603110
O O13 0.500000 0.505601 0.750000
#
# Coordination Sequence:
#
# PCOD9278685 Si02
#       6
#     8   8   8   8   8   8
#     4  10  25  44  68 110 145 195 246 307 375 441
#     4  12  25  48  75 102 149 193 254 301 379 454
#     4  12  27  48  70 109 156 192 253 315 376 445
#     4  12  23  47  77 103 145 202 248 311 376 459
#     4  10  24  46  70 108 142 192 243 303 372 441
#     4  10  20  44  70 106 142 193 252 298 376 450
#
# _framework density 25.891362999999998
#
# number of rings (size 3 to 8) (size 9 to 14) (size 15 to 20)
#    1.000    0.000    3.333    2.500    2.333    3.333 
#   12.000    0.000    0.000    0.000    0.000    0.000 
#    0.000    0.000    0.000    0.000    0.000    0.000 
#
# Total GULP energy -133801.220841 kJ/mol
# GULP energy per Si atom -5575.050868 kJ/mol
# Density = 2.583243 g / cm^3
# Si number density = 25.891363 Si / 1000 Ang^3
#
#
#
# Elastic Constant Matrix: (Units=GPa)
#
#
# Indices 1 2 3 4 5 6 
#
# 1 81.4203 3.2377 26.9095 0.0000 0.1777 0.0000
# 2 3.2377 101.1823 53.3029 0.0000 -8.6542 0.0000
# 3 26.9095 53.3029 200.0584 0.0000 32.7579 0.0000
# 4 0.0000 0.0000 0.0000 38.4387 0.0000 5.7978
# 5 0.1777 -8.6542 32.7579 0.0000 25.7342 0.0000
# 6 0.0000 0.0000 0.0000 5.7978 0.0000 14.9340
#
#
#
# Elastic Compliance Matrix: (Units=1/GPa)
#
#
# Indices 1 2 3 4 5 6 
#
# 1 0.013135 0.001373 -0.002771 0.000000 0.003898 0.000000
# 2 0.001373 0.014004 -0.005919 0.000000 0.012234 0.000000
# 3 -0.002771 -0.005919 0.009186 0.000000 -0.013664 0.000000
# 4 0.000000 0.000000 0.000000 0.027634 0.000000 -0.010728
# 5 0.003898 0.012234 -0.013664 0.000000 0.060340 0.000000
# 6 0.000000 0.000000 0.000000 -0.010728 0.000000 0.071126
#
#
# Mechanical properties :
#
#
# Convention : Reuss Voigt Hill
#
# Bulk Modulus (GPa) = 46.10433 61.06237 53.58335
# Shear Modulus (GPa) = 23.01100 35.76878 29.38989
#
# Velocity S-wave (km/s) = 2.98443 3.72088 3.37281
# Velocity P-wave (km/s) = 5.45172 6.48808 5.99235
#
# Compressibility (1/GPa) = 0.02168994
#
# Stress axis : x y z
#
# Youngs Moduli (GPa) = 76.13503 71.40922 108.86550
#
# Poissons Ratio (x) = -0.09802 0.30163
# Poissons Ratio (y) = -0.10451 0.64438
# Poissons Ratio (z) = 0.21094 0.42267
#
# Static dielectric constant tensor:
#      x y z
#    x 2.310780 0.000000 0.021590 
#    y 0.000000 2.016950 0.000000 
#    z 0.021590 0.000000 2.039860 
# 
# From -- ./inp_files/295451.got.cif
#   From: 2010.05.17/outbox.cif.g08.bks.cpg/sg15_148_cif.got.tgz:295451.got - 2010.06.03 18:47:42.
