data_PCOD9278434
_publ_section_title
;
Structure prediction by ZEFSAII (Michael W. Deem and Ramdas Pophale) SiO2 
 PCOD9278434
Probable space group: C 2/C
;
_chemical_formula_sum "Si O2"
_cell_formula_units_Z 44
_cell_length_a 12.902530
_cell_length_b 13.675696
_cell_length_c 11.206997
_cell_angle_alpha 90.000000
_cell_angle_beta 102.085243
_cell_angle_gamma 90.000000
_cell_volume 1933.660045
_symmetry_space_group_name_H-M "C 2/C"
_symmetry_group_IT_number 15
_symmetry_cell_setting 'monoclinic'
loop_
_space_group_symop_operation_xyz
x,y,z
-x,y,1/2-z
-x,-y,-z
x,-y,1/2+z
1/2+x,1/2+y,z
1/2-x,1/2+y,1/2-z
1/2-x,1/2-y,-z
1/2+x,1/2-y,1/2+z
loop_
_atom_site_type_symbol
_atom_site_label
_atom_site_fract_x
_atom_site_fract_y
_atom_site_fract_z
Si Si1 0.383517 0.690783 0.426581
Si Si2 0.404279 0.105038 0.314374
Si Si3 0.500000 0.212715 0.750000
Si Si4 0.665116 0.303586 0.320881
Si Si5 0.292776 0.513550 0.829116
Si Si6 0.821849 0.347804 0.043386
O O1 0.475158 0.727020 0.362918
O O2 0.399210 0.690028 0.571509
O O3 0.284427 0.765833 0.381936
O O4 0.359592 0.581459 0.377886
O O5 0.500000 0.073852 0.250000
O O6 0.377756 0.214352 0.266132
O O7 0.400860 0.116839 0.456813
O O8 0.308853 0.033261 0.259909
O O9 0.607235 0.161036 0.819617
O O10 0.662008 0.403400 0.246724
O O11 0.259880 0.566435 0.944188
O O12 0.750000 0.250000 0.000000
#
# Coordination Sequence:
#
# PCOD9278434 Si02
#       6
#     8   8   4   8   8   8
#     4  10  22  39  66  97 131 173 228 275 326 409
#     4  11  24  40  66 101 133 170 226 284 333 395
#     4  12  24  44  70 104 132 182 228 280 338 394
#     4  10  20  43  64  89 136 183 212 270 348 393
#     4  11  22  42  68  98 132 181 225 268 347 404
#     4  12  24  46  71  96 142 181 220 280 342 399
#
# _framework density 22.754774000000001
#
# number of rings (size 3 to 8) (size 9 to 14) (size 15 to 20)
#    0.000    1.091    3.636    3.273    1.273    0.727 
#    1.636    1.818    0.000    0.000    0.000    0.000 
#    0.000    0.000    0.000    0.000    0.000    0.000 
#
# Total GULP energy -122850.270260 kJ/mol
# GULP energy per Si atom -5584.103194 kJ/mol
# Density = 2.270298 g / cm^3
# Si number density = 22.754774 Si / 1000 Ang^3
#
#
#
# Elastic Constant Matrix: (Units=GPa)
#
#
# Indices 1 2 3 4 5 6 
#
# 1 26.3535 6.7289 0.4086 0.0000 -17.1585 0.0000
# 2 6.7289 116.1146 27.6571 0.0000 -9.1325 0.0000
# 3 0.4086 27.6571 101.8301 0.0000 -34.9490 0.0000
# 4 0.0000 0.0000 0.0000 20.2552 0.0000 -19.7356
# 5 -17.1585 -9.1325 -34.9490 0.0000 49.9689 0.0000
# 6 0.0000 0.0000 0.0000 -19.7356 0.0000 35.3916
#
#
#
# Elastic Compliance Matrix: (Units=1/GPa)
#
#
# Indices 1 2 3 4 5 6 
#
# 1 0.054639 -0.003411 0.009122 0.000000 0.024519 0.000000
# 2 -0.003411 0.009421 -0.003100 0.000000 -0.001618 0.000000
# 3 0.009122 -0.003100 0.015141 0.000000 0.013156 0.000000
# 4 0.000000 0.000000 0.000000 0.108109 0.000000 0.060286
# 5 0.024519 -0.001618 0.013156 0.000000 0.037337 0.000000
# 6 0.000000 0.000000 0.000000 0.060286 0.000000 0.061873
#
#
# Mechanical properties :
#
#
# Convention : Reuss Voigt Hill
#
# Bulk Modulus (GPa) = 11.84504 34.87637 23.36071
# Shear Modulus (GPa) = 16.15828 35.09004 25.62416
#
# Velocity S-wave (km/s) = 2.66767 3.93121 3.35938
# Velocity P-wave (km/s) = 3.83477 5.99719 5.03347
#
# Compressibility (1/GPa) = 0.08442350
#
# Stress axis : x y z
#
# Youngs Moduli (GPa) = 18.30192 106.14526 66.04654
#
# Poissons Ratio (x) = 0.36203 -0.60250
# Poissons Ratio (y) = 0.06242 0.20476
# Poissons Ratio (z) = -0.16696 0.32908
#
# Static dielectric constant tensor:
#      x y z
#    x 1.890420 0.000000 -0.023740 
#    y 0.000000 1.841140 0.000000 
#    z -0.023740 0.000000 1.844490 
# 
# From -- ./inp_files/95094.got.cif
#   From: 2010.05.17/outbox.cif.g08.bks.cpg/sg15_48_cif.got.tgz:95094.got - 2010.06.03 18:47:42.
