data_PCOD9278304
_publ_section_title
;
Structure prediction by ZEFSAII (Michael W. Deem and Ramdas Pophale) SiO2 
 PCOD9278304
Probable space group: C 2/C
;
_chemical_formula_sum "Si O2"
_cell_formula_units_Z 32
_cell_length_a 24.950474
_cell_length_b 15.201570
_cell_length_c 9.142763
_cell_angle_alpha 90.000000
_cell_angle_beta 29.453907
_cell_angle_gamma 90.000000
_cell_volume 1705.161133
_symmetry_space_group_name_H-M "C 2/C"
_symmetry_group_IT_number 15
_symmetry_cell_setting 'monoclinic'
loop_
_space_group_symop_operation_xyz
x,y,z
-x,y,1/2-z
-x,-y,-z
x,-y,1/2+z
1/2+x,1/2+y,z
1/2-x,1/2+y,1/2-z
1/2-x,1/2-y,-z
1/2+x,1/2-y,1/2+z
loop_
_atom_site_type_symbol
_atom_site_label
_atom_site_fract_x
_atom_site_fract_y
_atom_site_fract_z
Si Si1 0.068049 0.750653 0.237150
Si Si2 0.951924 0.419319 0.026778
Si Si3 0.252907 0.167622 0.885268
Si Si4 0.013157 0.094279 0.392308
O O1 0.000000 0.773954 0.250000
O O2 0.998315 0.672765 0.478466
O O3 0.069433 0.835433 0.336309
O O4 0.179087 0.704871 0.916134
O O5 0.000000 0.425553 0.750000
O O6 0.824034 0.406636 0.301121
O O7 0.000000 0.500000 0.000000
O O8 0.250000 0.250000 0.000000
O O9 0.134126 0.132248 0.133538
O O10 0.000000 0.086942 0.250000
O O11 0.000000 0.000000 0.500000
#
# Coordination Sequence:
#
# PCOD9278304 Si02
#       4
#     8   8   8   8
#     4   9  19  41  63  91 126 167 218 263 323 391
#     4   9  19  36  62  92 121 154 210 260 315 378
#     4  10  20  42  70  84 128 180 201 269 341 366
#     4  12  26  41  65 100 136 172 221 275 329 400
#
# _framework density 18.766553999999999
#
# number of rings (size 3 to 8) (size 9 to 14) (size 15 to 20)
#    0.000    2.500    5.000    0.750    0.000    6.000 
#    0.000    0.000    0.000    0.000    0.000    0.000 
#    0.000    0.000    0.000    0.000    0.000    0.000 
#
# Total GULP energy -89143.266081 kJ/mol
# GULP energy per Si atom -5571.454130 kJ/mol
# Density = 1.872384 g / cm^3
# Si number density = 18.766554 Si / 1000 Ang^3
#
#
#
# Elastic Constant Matrix: (Units=GPa)
#
#
# Indices 1 2 3 4 5 6 
#
# 1 91.0941 69.9071 34.9485 0.0000 -3.0997 0.0000
# 2 69.9071 141.6103 34.6697 0.0000 9.3505 0.0000
# 3 34.9485 34.6697 86.5189 0.0000 -19.2502 0.0000
# 4 0.0000 0.0000 0.0000 27.1166 0.0000 1.6491
# 5 -3.0997 9.3505 -19.2502 0.0000 28.0155 0.0000
# 6 0.0000 0.0000 0.0000 1.6491 0.0000 37.6260
#
#
#
# Elastic Compliance Matrix: (Units=1/GPa)
#
#
# Indices 1 2 3 4 5 6 
#
# 1 0.019177 -0.008728 -0.003694 0.000000 0.002497 0.000000
# 2 -0.008728 0.012634 -0.003176 0.000000 -0.007365 0.000000
# 3 -0.003694 -0.003176 0.017079 0.000000 0.012387 0.000000
# 4 0.000000 0.000000 0.000000 0.036976 0.000000 -0.001621
# 5 0.002497 -0.007365 0.012387 0.000000 0.046940 0.000000
# 6 0.000000 0.000000 0.000000 -0.001621 0.000000 0.026648
#
#
# Mechanical properties :
#
#
# Convention : Reuss Voigt Hill
#
# Bulk Modulus (GPa) = 56.51035 66.47488 61.49261
# Shear Modulus (GPa) = 25.43912 30.53150 27.98531
#
# Velocity S-wave (km/s) = 3.68578 4.03787 3.86584
# Velocity P-wave (km/s) = 6.94917 7.56559 7.26392
#
# Compressibility (1/GPa) = 0.01769587
#
# Stress axis : x y z
#
# Youngs Moduli (GPa) = 52.14449 79.15205 58.55222
#
# Poissons Ratio (x) = 0.69081 0.21628
# Poissons Ratio (y) = 0.45510 0.18595
# Poissons Ratio (z) = 0.19261 0.25137
#
# Static dielectric constant tensor:
#      x y z
#    x 1.646020 0.000000 -0.016020 
#    y 0.000000 1.690950 0.000000 
#    z -0.016020 0.000000 1.704860 
# 
# From -- ./inp_files/28471.got.cif
#   From: 2010.05.17/outbox.cif.g08.bks.cpg/sg15_15_cif.got.tgz:28471.got - 2010.06.03 18:47:42.
