data_PCOD9278277
_publ_section_title
;
Structure prediction by ZEFSAII (Michael W. Deem and Ramdas Pophale) SiO2 
 PCOD9278277
Probable space group: C 2/C
;
_chemical_formula_sum "Si O2"
_cell_formula_units_Z 36
_cell_length_a 12.556865
_cell_length_b 10.658912
_cell_length_c 13.174762
_cell_angle_alpha 90.000000
_cell_angle_beta 67.424864
_cell_angle_gamma 90.000000
_cell_volume 1628.230498
_symmetry_space_group_name_H-M "C 2/C"
_symmetry_group_IT_number 15
_symmetry_cell_setting 'monoclinic'
loop_
_space_group_symop_operation_xyz
x,y,z
-x,y,1/2-z
-x,-y,-z
x,-y,1/2+z
1/2+x,1/2+y,z
1/2-x,1/2+y,1/2-z
1/2-x,1/2-y,-z
1/2+x,1/2-y,1/2+z
loop_
_atom_site_type_symbol
_atom_site_label
_atom_site_fract_x
_atom_site_fract_y
_atom_site_fract_z
Si Si1 0.875109 0.821033 0.758807
Si Si2 0.951226 0.586307 0.631720
Si Si3 0.311453 0.941374 0.525729
Si Si4 0.500000 0.142976 0.250000
Si Si5 0.256277 0.842896 0.901720
O O1 0.894243 0.671691 0.737877
O O2 0.779993 0.863921 0.874746
O O3 0.835168 0.850554 0.657324
O O4 0.000000 0.871605 0.750000
O O5 0.859361 0.553663 0.579953
O O6 0.072805 0.637602 0.544537
O O7 0.984931 0.450745 0.661669
O O8 0.263200 0.016364 0.446380
O O9 0.623326 0.204507 0.193011
O O10 0.250000 0.750000 0.000000
#
# Coordination Sequence:
#
# PCOD9278277 Si02
#       5
#     8   8   8   4   8
#     4  12  25  41  65 101 135 167 213 275 335 383
#     4  10  20  42  69  94 123 175 225 263 315 391
#     4  10  23  43  67  95 130 173 224 265 320 393
#     4  10  20  42  72  90 124 176 224 264 312 396
#     4  11  23  42  70  96 127 171 223 268 323 390
#
# _framework density 22.10989
#
# number of rings (size 3 to 8) (size 9 to 14) (size 15 to 20)
#    0.000    1.333    5.556    0.000    0.000    1.778 
#    2.000    2.222    0.000    0.000    0.000    0.000 
#    0.000    0.000    0.000    0.000    0.000    0.000 
#
# Total GULP energy -100267.258412 kJ/mol
# GULP energy per Si atom -5570.403245 kJ/mol
# Density = 2.205957 g / cm^3
# Si number density = 22.109890 Si / 1000 Ang^3
#
#
#
# Elastic Constant Matrix: (Units=GPa)
#
#
# Indices 1 2 3 4 5 6 
#
# 1 164.1855 25.6890 67.2529 0.0000 10.4664 0.0000
# 2 25.6890 43.6063 40.9707 0.0000 -9.5145 0.0000
# 3 67.2529 40.9707 143.8789 0.0000 -27.9370 0.0000
# 4 0.0000 0.0000 0.0000 46.2393 0.0000 7.6167
# 5 10.4664 -9.5145 -27.9370 0.0000 52.4820 0.0000
# 6 0.0000 0.0000 0.0000 7.6167 0.0000 17.4595
#
#
#
# Elastic Compliance Matrix: (Units=1/GPa)
#
#
# Indices 1 2 3 4 5 6 
#
# 1 0.008382 -0.001923 -0.004196 0.000000 -0.004254 0.000000
# 2 -0.001923 0.031801 -0.007765 0.000000 0.002015 0.000000
# 3 -0.004196 -0.007765 0.012281 0.000000 0.005967 0.000000
# 4 0.000000 0.000000 0.000000 0.023301 0.000000 -0.010165
# 5 -0.004254 0.002015 0.005967 0.000000 0.023444 0.000000
# 6 0.000000 0.000000 0.000000 -0.010165 0.000000 0.061710
#
#
# Mechanical properties :
#
#
# Convention : Reuss Voigt Hill
#
# Bulk Modulus (GPa) = 40.49446 68.83287 54.66367
# Shear Modulus (GPa) = 25.39099 37.75336 31.57218
#
# Velocity S-wave (km/s) = 3.39248 4.13671 3.78294
# Velocity P-wave (km/s) = 5.80518 7.34958 6.62255
#
# Compressibility (1/GPa) = 0.02469473
#
# Stress axis : x y z
#
# Youngs Moduli (GPa) = 119.30983 31.44527 81.42387
#
# Poissons Ratio (x) = 0.06048 0.34166
# Poissons Ratio (y) = 0.22948 0.63228
# Poissons Ratio (z) = 0.50063 0.24418
#
# Static dielectric constant tensor:
#      x y z
#    x 1.946860 0.000000 0.008150 
#    y 0.000000 1.862100 0.000000 
#    z 0.008150 0.000000 1.883240 
# 
# From -- ./inp_files/141603.got.cif
#   From: 2010.05.17/outbox.cif.g08.bks.cpg/sg15_71_cif.got.tgz:141603.got - 2010.06.03 18:47:42.
