data_PCOD9278671
_publ_section_title
;
Structure prediction by ZEFSAII (Michael W. Deem and Ramdas Pophale) SiO2 
 PCOD9278671
Probable space group: C 2/C
;
_chemical_formula_sum "Si O2"
_cell_formula_units_Z 60
_cell_length_a 8.466660
_cell_length_b 22.194192
_cell_length_c 21.908158
_cell_angle_alpha 90.000000
_cell_angle_beta 44.715249
_cell_angle_gamma 90.000000
_cell_volume 2896.497697
_symmetry_space_group_name_H-M "C 2/C"
_symmetry_group_IT_number 15
_symmetry_cell_setting 'monoclinic'
loop_
_space_group_symop_operation_xyz
x,y,z
-x,y,1/2-z
-x,-y,-z
x,-y,1/2+z
1/2+x,1/2+y,z
1/2-x,1/2+y,1/2-z
1/2-x,1/2-y,-z
1/2+x,1/2-y,1/2+z
loop_
_atom_site_type_symbol
_atom_site_label
_atom_site_fract_x
_atom_site_fract_y
_atom_site_fract_z
Si Si1 0.740304 0.694240 0.836817
Si Si2 0.469527 0.193759 0.549814
Si Si3 0.396616 0.003922 0.709520
Si Si4 0.874758 0.665462 0.115686
Si Si5 0.000000 0.930541 0.750000
Si Si6 0.368511 0.106385 0.350318
Si Si7 0.211577 0.871975 0.225733
Si Si8 0.563879 0.670865 0.014957
O O1 0.712557 0.765659 0.856656
O O2 0.629810 0.665465 0.807135
O O3 0.655429 0.662144 0.921367
O O4 0.000000 0.683727 0.750000
O O5 0.455490 0.161933 0.488222
O O6 0.326090 0.171816 0.645792
O O7 0.438212 0.264771 0.549918
O O8 0.727000 0.180277 0.498065
O O9 0.500000 0.008773 0.750000
O O10 0.372407 0.072219 0.695789
O O11 0.580109 0.957892 0.632143
O O12 0.159674 0.969831 0.753442
O O13 0.675742 0.615675 0.168737
O O14 0.014172 0.654180 0.138289
O O15 0.500000 0.109055 0.250000
O O16 0.108588 0.120688 0.416006
O O17 0.000000 0.899721 0.250000
#
# Coordination Sequence:
#
# PCOD9278671 Si02
#       8
#     8   8   8   8   4   8   8   8
#     4  11  22  40  64  97 131 183 213 269 351 411
#     4  10  24  39  61  98 137 173 212 279 341 406
#     4  10  23  45  68  96 130 181 237 281 330 403
#     4  10  23  37  66  96 135 166 221 273 344 400
#     4  10  20  44  68  96 130 176 226 282 338 394
#     4  10  24  40  68  94 127 176 229 280 326 399
#     4  12  26  43  68  95 137 180 228 280 343 409
#     4  10  23  41  62  96 140 169 225 276 329 416
#
# _framework density 20.714672
#
# number of rings (size 3 to 8) (size 9 to 14) (size 15 to 20)
#    0.000    1.600    2.667    0.400   11.200    1.067 
#    0.000    4.667    0.000    0.000    0.000    0.000 
#    0.000    0.000    0.000    0.000    0.000    0.000 
#
# Total GULP energy -167123.564410 kJ/mol
# GULP energy per Si atom -5570.785480 kJ/mol
# Density = 2.066752 g / cm^3
# Si number density = 20.714672 Si / 1000 Ang^3
#
#
#
# Elastic Constant Matrix: (Units=GPa)
#
#
# Indices 1 2 3 4 5 6 
#
# 1 90.4379 25.5745 20.4621 0.0002 10.7527 -0.0001
# 2 25.5745 68.6142 34.6634 0.0000 3.8301 0.0000
# 3 20.4621 34.6634 79.3487 0.0000 20.8469 0.0000
# 4 0.0002 0.0000 0.0000 -5.4527 -0.0001 -9.5506
# 5 10.7527 3.8301 20.8469 -0.0001 35.1277 0.0000
# 6 -0.0001 0.0000 0.0000 -9.5506 0.0000 24.8615
#
#
#
# Elastic Compliance Matrix: (Units=1/GPa)
#
#
# Indices 1 2 3 4 5 6 
#
# 1 0.012772 -0.004277 -0.000617 0.000000 -0.003077 0.000000
# 2 -0.004277 0.020468 -0.008999 0.000000 0.004418 0.000000
# 3 -0.000617 -0.008999 0.019412 0.000000 -0.010350 0.000000
# 4 0.000000 0.000000 0.000000 -0.109630 0.000000 -0.042114
# 5 -0.003077 0.004418 -0.010350 0.000000 0.035070 0.000000
# 6 0.000000 0.000000 0.000000 -0.042114 0.000000 0.024044
#
#
# Mechanical properties :
#
#
# Convention : Reuss Voigt Hill
#
# Bulk Modulus (GPa) = 40.21509 44.42230 42.31869
# Shear Modulus (GPa) = 130.84502 21.42069 76.13286
#
# Velocity S-wave (km/s) = 7.95629 3.21920 6.06901
# Velocity P-wave (km/s) = 10.19114 5.94215 8.34172
#
# Compressibility (1/GPa) = 0.02486629
#
# Stress axis : x y z
#
# Youngs Moduli (GPa) = 78.29463 48.85612 51.51372
#
# Poissons Ratio (x) = 0.20897 0.03177
# Poissons Ratio (y) = 0.33489 0.46359
# Poissons Ratio (z) = 0.04828 0.43967
#
# Static dielectric constant tensor:
#      x y z
#    x 1.850830 0.000000 -0.014030 
#    y 0.000000 1.742560 0.000000 
#    z -0.014030 0.000000 1.738850 
# 
# From -- ./inp_files/266231.got.cif
#   From: 2010.05.17/outbox.cif.g08.bks.cpg/sg15_134_cif.got.tgz:266231.got - 2010.06.03 18:47:42.
