data_PCOD9278188
_publ_section_title
;
Structure prediction by ZEFSAII (Michael W. Deem and Ramdas Pophale) SiO2 
 PCOD9278188
Probable space group: C 2/C
;
_chemical_formula_sum "Si O2"
_cell_formula_units_Z 48
_cell_length_a 13.690265
_cell_length_b 10.965829
_cell_length_c 15.257739
_cell_angle_alpha 90.000000
_cell_angle_beta 104.564072
_cell_angle_gamma 90.000000
_cell_volume 2216.966893
_symmetry_space_group_name_H-M "C 2/C"
_symmetry_group_IT_number 15
_symmetry_cell_setting 'monoclinic'
loop_
_space_group_symop_operation_xyz
x,y,z
-x,y,1/2-z
-x,-y,-z
x,-y,1/2+z
1/2+x,1/2+y,z
1/2-x,1/2+y,1/2-z
1/2-x,1/2-y,-z
1/2+x,1/2-y,1/2+z
loop_
_atom_site_type_symbol
_atom_site_label
_atom_site_fract_x
_atom_site_fract_y
_atom_site_fract_z
Si Si1 0.350087 0.138818 0.521603
Si Si2 0.939348 0.459583 0.657762
Si Si3 0.166865 0.120290 0.379742
Si Si4 0.756941 0.875038 0.792666
Si Si5 0.405816 0.743512 0.846836
Si Si6 0.041859 0.970626 0.605646
O O1 0.244764 0.074237 0.471625
O O2 0.334758 0.234742 0.597266
O O3 0.378991 0.212586 0.439907
O O4 0.431776 0.041761 0.570522
O O5 0.825645 0.444629 0.667795
O O6 0.000000 0.523656 0.750000
O O7 0.001050 0.333992 0.656101
O O8 0.209785 0.078536 0.296238
O O9 0.052906 0.080429 0.363551
O O10 0.686953 0.763822 0.741854
O O11 0.862802 0.878594 0.868080
O O12 0.428690 0.602228 0.851004
O O13 0.000000 0.000000 0.500000
#
# Coordination Sequence:
#
# PCOD9278188 Si02
#       6
#     8   8   8   8   8   8
#     4  10  20  42  67  93 133 172 224 278 329 400
#     4  10  22  40  63  95 131 177 216 274 336 395
#     4  10  22  39  66  96 127 177 218 277 335 391
#     4  10  24  39  61 101 131 171 219 267 338 386
#     4  10  23  45  67  92 136 175 221 278 334 399
#     4  12  23  44  69  99 132 174 225 279 331 399
#
# _framework density 21.651202000000001
#
# number of rings (size 3 to 8) (size 9 to 14) (size 15 to 20)
#    0.000    1.667    1.667    2.000    4.667    5.333 
#    3.000    5.000    0.000    0.000    0.000    0.000 
#    0.000    0.000    0.000    0.000    0.000    0.000 
#
# Total GULP energy -133708.772917 kJ/mol
# GULP energy per Si atom -5571.198872 kJ/mol
# Density = 2.160192 g / cm^3
# Si number density = 21.651202 Si / 1000 Ang^3
#
#
#
# Elastic Constant Matrix: (Units=GPa)
#
#
# Indices 1 2 3 4 5 6 
#
# 1 151.2032 32.9546 36.2032 0.0000 9.0029 0.0000
# 2 32.9546 57.0117 35.0404 0.0000 14.4431 0.0000
# 3 36.2032 35.0404 87.3330 0.0000 13.7468 0.0000
# 4 0.0000 0.0000 0.0000 24.6154 0.0000 8.2517
# 5 9.0029 14.4431 13.7468 0.0000 47.4848 0.0000
# 6 0.0000 0.0000 0.0000 8.2517 0.0000 19.8106
#
#
#
# Elastic Compliance Matrix: (Units=1/GPa)
#
#
# Indices 1 2 3 4 5 6 
#
# 1 0.007795 -0.003364 -0.001897 0.000000 0.000094 0.000000
# 2 -0.003364 0.025727 -0.008169 0.000000 -0.004823 0.000000
# 3 -0.001897 -0.008169 0.015786 0.000000 -0.001726 0.000000
# 4 0.000000 0.000000 0.000000 0.047218 0.000000 -0.019668
# 5 0.000094 -0.004823 -0.001726 0.000000 0.023008 0.000000
# 6 0.000000 0.000000 0.000000 -0.019668 0.000000 0.058670
#
#
# Mechanical properties :
#
#
# Convention : Reuss Voigt Hill
#
# Bulk Modulus (GPa) = 44.54467 55.99381 50.26924
# Shear Modulus (GPa) = 23.52422 31.13881 27.33152
#
# Velocity S-wave (km/s) = 3.29980 3.79648 3.55682
# Velocity P-wave (km/s) = 5.92762 6.71830 6.33531
#
# Compressibility (1/GPa) = 0.02244938
#
# Stress axis : x y z
#
# Youngs Moduli (GPa) = 128.28214 38.86922 63.34803
#
# Poissons Ratio (x) = 0.13076 0.12014
# Poissons Ratio (y) = 0.43157 0.51748
# Poissons Ratio (z) = 0.24329 0.31751
#
# Static dielectric constant tensor:
#      x y z
#    x 1.864600 0.000000 -0.020750 
#    y 0.000000 1.783330 0.000000 
#    z -0.020750 0.000000 1.847980 
# 
# From -- ./inp_files/196240.got.cif
#   From: 2010.05.17/outbox.cif.g08.bks.cpg/sg15_99_cif.got.tgz:196240.got - 2010.06.03 18:47:42.
