data_PCOD9278838
_publ_section_title
;
Structure prediction by ZEFSAII (Michael W. Deem and Ramdas Pophale) SiO2 
 PCOD9278838
Probable space group: C 2/C
;
_chemical_formula_sum "Si O2"
_cell_formula_units_Z 48
_cell_length_a 24.609845
_cell_length_b 20.625098
_cell_length_c 5.146859
_cell_angle_alpha 90.000000
_cell_angle_beta 91.173656
_cell_angle_gamma 90.000000
_cell_volume 2611.897011
_symmetry_space_group_name_H-M "C 2/C"
_symmetry_group_IT_number 15
_symmetry_cell_setting 'monoclinic'
loop_
_space_group_symop_operation_xyz
x,y,z
-x,y,1/2-z
-x,-y,-z
x,-y,1/2+z
1/2+x,1/2+y,z
1/2-x,1/2+y,1/2-z
1/2-x,1/2-y,-z
1/2+x,1/2-y,1/2+z
loop_
_atom_site_type_symbol
_atom_site_label
_atom_site_fract_x
_atom_site_fract_y
_atom_site_fract_z
Si Si1 0.104393 0.974865 0.566294
Si Si2 0.059335 0.767902 0.308159
Si Si3 0.717266 0.671394 0.230058
Si Si4 0.176911 0.758517 0.231556
Si Si5 0.274203 0.473782 0.558733
Si Si6 0.058924 0.853679 0.805645
O O1 0.101671 0.906066 0.708262
O O2 0.078522 0.977058 0.277715
O O3 0.165322 0.998687 0.503647
O O4 0.116174 0.732203 0.266524
O O5 0.059920 0.794650 0.600981
O O6 0.000000 0.737365 0.250000
O O7 0.062875 0.826972 0.097098
O O8 0.776689 0.704771 0.228481
O O9 0.683929 0.709861 0.448881
O O10 0.723587 0.597887 0.324736
O O11 0.689683 0.685997 0.949293
O O12 0.247775 0.520173 0.772635
O O13 0.000000 0.885331 0.750000
#
# Coordination Sequence:
#
# PCOD9278838 Si02
#       6
#     8   8   8   8   8   8
#     4  10  21  30  43  64  83 129 163 202 246 272
#     4  10  21  34  52  72  94 130 167 209 251 286
#     4  10  21  36  51  80  97 127 173 201 266 292
#     4  10  21  34  57  71 100 131 160 225 243 306
#     4  10  21  32  48  72  98 128 161 205 244 308
#     4  10  21  34  46  65  94 126 170 211 239 279
#
# _framework density 18.377447
#
# number of rings (size 3 to 8) (size 9 to 14) (size 15 to 20)
#    0.000    2.000    0.000    3.000   14.000    0.667 
#    0.000    0.000    0.000    0.000    0.000    0.000 
#    0.000    1.333    0.000    0.000    0.000    4.000 
#
# Total GULP energy -133779.411371 kJ/mol
# GULP energy per Si atom -5574.142140 kJ/mol
# Density = 1.833562 g / cm^3
# Si number density = 18.377447 Si / 1000 Ang^3
#
#
#
# Elastic Constant Matrix: (Units=GPa)
#
#
# Indices 1 2 3 4 5 6 
#
# 1 84.7797 10.4933 5.9490 0.0000 -17.5127 0.0000
# 2 10.4933 35.4629 5.9131 0.0000 -9.2082 0.0000
# 3 5.9490 5.9131 127.5510 0.0000 -3.2983 0.0000
# 4 0.0000 0.0000 0.0000 20.9447 0.0000 -8.7569
# 5 -17.5127 -9.2082 -3.2983 0.0000 20.1299 0.0000
# 6 0.0000 0.0000 0.0000 -8.7569 0.0000 19.4204
#
#
#
# Elastic Compliance Matrix: (Units=1/GPa)
#
#
# Indices 1 2 3 4 5 6 
#
# 1 0.014433 -0.001102 -0.000312 0.000000 0.012001 0.000000
# 2 -0.001102 0.032241 -0.001091 0.000000 0.013610 0.000000
# 3 -0.000312 -0.001091 0.007919 0.000000 0.000527 0.000000
# 4 0.000000 0.000000 0.000000 0.058837 0.000000 0.026530
# 5 0.012001 0.013610 0.000527 0.000000 0.066430 0.000000
# 6 0.000000 0.000000 0.000000 0.026530 0.000000 0.063455
#
#
# Mechanical properties :
#
#
# Convention : Reuss Voigt Hill
#
# Bulk Modulus (GPa) = 20.16902 32.50048 26.33475
# Shear Modulus (GPa) = 18.87847 27.12823 23.00335
#
# Velocity S-wave (km/s) = 3.20857 3.84626 3.54180
# Velocity P-wave (km/s) = 4.97245 6.11951 5.57556
#
# Compressibility (1/GPa) = 0.04958099
#
# Stress axis : x y z
#
# Youngs Moduli (GPa) = 69.28773 31.01680 126.28240
#
# Poissons Ratio (x) = 0.03420 0.03936
# Poissons Ratio (y) = 0.07639 0.13781
# Poissons Ratio (z) = 0.02160 0.03385
#
# Static dielectric constant tensor:
#      x y z
#    x 1.753320 0.000000 0.075640 
#    y 0.000000 1.645120 0.000000 
#    z 0.075640 0.000000 1.770880 
# 
# From -- ./inp_files/15543.got.cif
#   From: 2010.05.17/outbox.cif.g08.bks.cpg/sg15_8_cif.got.tgz:15543.got - 2010.06.03 18:47:42.
