data_PCOD9278394
_publ_section_title
;
Structure prediction by ZEFSAII (Michael W. Deem and Ramdas Pophale) SiO2 
 PCOD9278394
Probable space group: C 2/C
;
_chemical_formula_sum "Si O2"
_cell_formula_units_Z 36
_cell_length_a 12.172009
_cell_length_b 13.283365
_cell_length_c 14.311192
_cell_angle_alpha 90.000000
_cell_angle_beta 40.250926
_cell_angle_gamma 90.000000
_cell_volume 1495.100304
_symmetry_space_group_name_H-M "C 2/C"
_symmetry_group_IT_number 15
_symmetry_cell_setting 'monoclinic'
loop_
_space_group_symop_operation_xyz
x,y,z
-x,y,1/2-z
-x,-y,-z
x,-y,1/2+z
1/2+x,1/2+y,z
1/2-x,1/2+y,1/2-z
1/2-x,1/2-y,-z
1/2+x,1/2-y,1/2+z
loop_
_atom_site_type_symbol
_atom_site_label
_atom_site_fract_x
_atom_site_fract_y
_atom_site_fract_z
Si Si1 0.500000 0.500000 0.000000
Si Si2 0.379397 0.357820 0.750881
Si Si3 0.172883 0.547106 0.923651
Si Si4 0.362400 0.722636 0.705744
Si Si5 0.239502 0.871595 0.938809
O O1 0.467396 0.594017 0.101020
O O2 0.687118 0.474393 0.921982
O O3 0.500000 0.308042 0.750000
O O4 0.303915 0.456502 0.849753
O O5 0.223528 0.285443 0.821723
O O6 0.249523 0.623792 0.798359
O O7 0.167601 0.605227 0.024934
O O8 0.000000 0.500000 0.000000
O O9 0.551250 0.677612 0.576498
O O10 0.337530 0.795687 0.809393
#
# Coordination Sequence:
#
# PCOD9278394 Si02
#       5
#     4   8   8   8   8
#     4  10  20  42  74  94 132 196 230 282 368 422
#     4  11  22  44  71 101 145 192 236 298 366 432
#     4  12  24  44  70 102 145 192 240 299 359 432
#     4  11  24  43  74 112 139 191 249 303 365 441
#     4  11  23  45  75 104 146 187 247 300 365 432
#
# _framework density 24.07865
#
# number of rings (size 3 to 8) (size 9 to 14) (size 15 to 20)
#    0.000    0.889    4.444    2.667    0.000    1.778 
#    4.000    6.667    0.000    0.000    0.000    0.000 
#    0.000    0.000    0.000    0.000    0.000    0.000 
#
# Total GULP energy -100226.910691 kJ/mol
# GULP energy per Si atom -5568.161705 kJ/mol
# Density = 2.402385 g / cm^3
# Si number density = 24.078650 Si / 1000 Ang^3
#
#
#
# Elastic Constant Matrix: (Units=GPa)
#
#
# Indices 1 2 3 4 5 6 
#
# 1 163.0436 39.0294 50.3907 0.0000 1.2503 0.0000
# 2 39.0294 73.2689 29.5610 0.0000 -5.5626 0.0000
# 3 50.3907 29.5610 97.4335 0.0000 -16.5491 0.0000
# 4 0.0000 0.0000 0.0000 45.3610 0.0000 -14.2142
# 5 1.2503 -5.5626 -16.5491 0.0000 35.3573 0.0000
# 6 0.0000 0.0000 0.0000 -14.2142 0.0000 37.2951
#
#
#
# Elastic Compliance Matrix: (Units=1/GPa)
#
#
# Indices 1 2 3 4 5 6 
#
# 1 0.007991 -0.002971 -0.003649 0.000000 -0.002458 0.000000
# 2 -0.002971 0.016659 -0.003318 0.000000 0.001173 0.000000
# 3 -0.003649 -0.003318 0.014221 0.000000 0.006263 0.000000
# 4 0.000000 0.000000 0.000000 0.025035 0.000000 0.009542
# 5 -0.002458 0.001173 0.006263 0.000000 0.031486 0.000000
# 6 0.000000 0.000000 0.000000 0.009542 0.000000 0.030450
#
#
# Mechanical properties :
#
#
# Convention : Reuss Voigt Hill
#
# Bulk Modulus (GPa) = 52.64760 63.52312 58.08536
# Shear Modulus (GPa) = 32.88379 37.92032 35.40206
#
# Velocity S-wave (km/s) = 3.69952 3.97275 3.83857
# Velocity P-wave (km/s) = 6.33727 6.89075 6.61979
#
# Compressibility (1/GPa) = 0.01899422
#
# Stress axis : x y z
#
# Youngs Moduli (GPa) = 125.13813 60.02771 70.31777
#
# Poissons Ratio (x) = 0.17836 0.25658
# Poissons Ratio (y) = 0.37181 0.23334
# Poissons Ratio (z) = 0.45662 0.19920
#
# Static dielectric constant tensor:
#      x y z
#    x 1.999420 0.000000 0.061690 
#    y 0.000000 2.089800 0.000000 
#    z 0.061690 0.000000 2.016790 
# 
# From -- ./inp_files/144023.got.cif
#   From: 2010.05.17/outbox.cif.g08.bks.cpg/sg15_73_cif.got.tgz:144023.got - 2010.06.03 18:47:42.
