data_PCOD9278612
_publ_section_title
;
Structure prediction by ZEFSAII (Michael W. Deem and Ramdas Pophale) SiO2 
 PCOD9278612
Probable space group: C 2/C
;
_chemical_formula_sum "Si O2"
_cell_formula_units_Z 52
_cell_length_a 19.616173
_cell_length_b 9.924629
_cell_length_c 23.332324
_cell_angle_alpha 90.000000
_cell_angle_beta 38.933101
_cell_angle_gamma 90.000000
_cell_volume 2854.509020
_symmetry_space_group_name_H-M "C 2/C"
_symmetry_group_IT_number 15
_symmetry_cell_setting 'monoclinic'
loop_
_space_group_symop_operation_xyz
x,y,z
-x,y,1/2-z
-x,-y,-z
x,-y,1/2+z
1/2+x,1/2+y,z
1/2-x,1/2+y,1/2-z
1/2-x,1/2-y,-z
1/2+x,1/2-y,1/2+z
loop_
_atom_site_type_symbol
_atom_site_label
_atom_site_fract_x
_atom_site_fract_y
_atom_site_fract_z
Si Si1 0.452929 0.525620 0.593855
Si Si2 0.326568 0.199167 0.002048
Si Si3 0.685685 0.627547 0.466250
Si Si4 0.000000 0.014151 0.250000
Si Si5 0.766228 0.111987 0.646377
Si Si6 0.231327 0.085158 0.567337
Si Si7 0.942362 0.216507 0.184630
O O1 0.500000 0.500000 0.500000
O O2 0.556311 0.597130 0.555873
O O3 0.344223 0.607830 0.650864
O O4 0.422815 0.386646 0.644873
O O5 0.448753 0.201442 0.899930
O O6 0.250000 0.250000 0.000000
O O7 0.316992 0.299936 0.061632
O O8 0.287306 0.053880 0.047898
O O9 0.735266 0.535936 0.382754
O O10 0.712287 0.784752 0.442401
O O11 0.737151 0.590047 0.494167
O O12 0.968262 0.114258 0.219393
O O13 0.894960 0.926131 0.333610
O O14 0.654043 0.182722 0.736393
#
# Coordination Sequence:
#
# PCOD9278612 Si02
#       7
#     8   8   8   4   8   8   8
#     4  10  20  44  65  82 128 176 205 258 329 374
#     4  12  19  39  65  95 124 164 218 257 311 386
#     4  10  21  43  62  89 128 172 201 266 329 373
#     4  12  20  38  64  92 126 162 208 272 318 374
#     4  11  22  41  68  91 121 173 217 261 309 384
#     4  11  22  38  64  94 129 162 209 262 328 376
#     4  12  22  39  67  95 123 169 217 264 317 374
#
# _framework density 18.216792000000002
#
# number of rings (size 3 to 8) (size 9 to 14) (size 15 to 20)
#    0.000    0.923    9.231    0.000    0.000    0.000 
#   13.846    0.769    0.000    0.000    0.000    0.000 
#    0.000    0.000    0.000    0.000    0.000    0.000 
#
# Total GULP energy -145017.449417 kJ/mol
# GULP energy per Si atom -5577.594208 kJ/mol
# Density = 1.817533 g / cm^3
# Si number density = 18.216792 Si / 1000 Ang^3
#
#
#
# Elastic Constant Matrix: (Units=GPa)
#
#
# Indices 1 2 3 4 5 6 
#
# 1 66.6887 37.3341 22.0058 0.0000 -8.0020 0.0000
# 2 37.3341 123.2632 30.6653 0.0000 -12.3507 0.0000
# 3 22.0058 30.6653 100.1860 0.0000 -23.6453 0.0000
# 4 0.0000 0.0000 0.0000 34.3273 0.0000 -1.2563
# 5 -8.0020 -12.3507 -23.6453 0.0000 35.4495 0.0000
# 6 0.0000 0.0000 0.0000 -1.2563 0.0000 23.3391
#
#
#
# Elastic Compliance Matrix: (Units=1/GPa)
#
#
# Indices 1 2 3 4 5 6 
#
# 1 0.018669 -0.004976 -0.002364 0.000000 0.000903 0.000000
# 2 -0.004976 0.010176 -0.001721 0.000000 0.001274 0.000000
# 3 -0.002364 -0.001721 0.012770 0.000000 0.007385 0.000000
# 4 0.000000 0.000000 0.000000 0.029189 0.000000 0.001571
# 5 0.000903 0.001274 0.007385 0.000000 0.033783 0.000000
# 6 0.000000 0.000000 0.000000 0.001571 0.000000 0.042931
#
#
# Mechanical properties :
#
#
# Convention : Reuss Voigt Hill
#
# Bulk Modulus (GPa) = 42.56603 52.23870 47.40237
# Shear Modulus (GPa) = 28.82323 31.96538 30.39430
#
# Velocity S-wave (km/s) = 3.98205 4.19348 4.08913
# Velocity P-wave (km/s) = 6.67528 7.22395 6.95503
#
# Compressibility (1/GPa) = 0.02349291
#
# Stress axis : x y z
#
# Youngs Moduli (GPa) = 53.56402 98.27432 78.30589
#
# Poissons Ratio (x) = 0.48899 0.18515
# Poissons Ratio (y) = 0.26652 0.13476
# Poissons Ratio (z) = 0.12665 0.16912
#
# Static dielectric constant tensor:
#      x y z
#    x 1.697080 0.000000 -0.025440 
#    y 0.000000 1.634720 0.000000 
#    z -0.025440 0.000000 1.647710 
# 
# From -- ./inp_files/166243.got.cif
#   From: 2010.05.17/outbox.cif.g08.bks.cpg/sg15_84_cif.got.tgz:166243.got - 2010.06.03 18:47:42.
