data_PCOD9278353
_publ_section_title
;
Structure prediction by ZEFSAII (Michael W. Deem and Ramdas Pophale) SiO2 
 PCOD9278353
Probable space group: C 2/C
;
_chemical_formula_sum "Si O2"
_cell_formula_units_Z 64
_cell_length_a 27.435567
_cell_length_b 15.056159
_cell_length_c 10.702536
_cell_angle_alpha 90.000000
_cell_angle_beta 138.448251
_cell_angle_gamma 90.000000
_cell_volume 2932.394235
_symmetry_space_group_name_H-M "C 2/C"
_symmetry_group_IT_number 15
_symmetry_cell_setting 'monoclinic'
loop_
_space_group_symop_operation_xyz
x,y,z
-x,y,1/2-z
-x,-y,-z
x,-y,1/2+z
1/2+x,1/2+y,z
1/2-x,1/2+y,1/2-z
1/2-x,1/2-y,-z
1/2+x,1/2-y,1/2+z
loop_
_atom_site_type_symbol
_atom_site_label
_atom_site_fract_x
_atom_site_fract_y
_atom_site_fract_z
Si Si1 0.704281 0.695573 0.015202
Si Si2 0.735497 0.957701 0.701710
Si Si3 0.828972 0.878801 0.657360
Si Si4 0.789854 0.346375 0.265722
Si Si5 0.974789 0.056975 0.334277
Si Si6 0.581337 0.787167 0.123747
Si Si7 0.935793 0.773238 0.407651
Si Si8 0.915571 0.358886 0.093429
O O1 0.625330 0.685726 0.798594
O O2 0.750000 0.750000 0.000000
O O3 0.734011 0.602026 0.124455
O O4 0.706176 0.764317 0.133660
O O5 0.783727 0.933973 0.672482
O O6 0.650517 0.928061 0.527257
O O7 0.735885 0.062438 0.722168
O O8 0.769380 0.830377 0.456523
O O9 0.887487 0.929770 0.682055
O O10 0.880071 0.807363 0.825487
O O11 0.870417 0.356937 0.359217
O O12 0.000000 0.018454 0.250000
O O13 0.018173 0.150385 0.433269
O O14 0.000000 0.000000 0.500000
O O15 0.589268 0.805422 0.286469
O O16 0.494878 0.780119 0.936863
O O17 0.905233 0.706802 0.455182
O O18 0.000000 0.393379 0.250000
#
# Coordination Sequence:
#
# PCOD9278353 Si02
#       8
#     8   8   8   8   8   8   8   8
#     4  12  27  43  69 102 149 186 233 304 369 432
#     4  12  26  44  71 109 138 186 243 295 370 434
#     4  11  24  45  72  97 138 180 244 292 353 432
#     4  12  27  43  71 103 139 184 237 299 362 424
#     4  11  27  45  71 107 147 196 241 300 373 448
#     4  10  20  45  70  97 127 189 235 286 341 425
#     4  10  23  43  72  98 142 187 237 291 367 429
#     4  10  20  42  71  98 130 183 238 280 343 424
#
# _framework density 21.825168999999999
#
# number of rings (size 3 to 8) (size 9 to 14) (size 15 to 20)
#    0.000    1.000    3.750    3.000    7.000    0.500 
#    2.250    1.250    0.000    0.000    0.000    0.000 
#    0.000    0.000    0.000    0.000    0.000    0.000 
#
# Total GULP energy -178876.582706 kJ/mol
# GULP energy per Si atom -5589.893210 kJ/mol
# Density = 2.177549 g / cm^3
# Si number density = 21.825169 Si / 1000 Ang^3
#
#
#
# Elastic Constant Matrix: (Units=GPa)
#
#
# Indices 1 2 3 4 5 6 
#
# 1 143.6222 9.9982 9.3870 0.0000 5.8912 0.0000
# 2 9.9982 46.5505 -10.5297 0.0000 -0.8618 0.0000
# 3 9.3870 -10.5297 55.5826 0.0000 11.7764 0.0000
# 4 0.0000 0.0000 0.0000 23.5217 0.0000 -7.0780
# 5 5.8912 -0.8618 11.7764 0.0000 28.7080 0.0000
# 6 0.0000 0.0000 0.0000 -7.0780 0.0000 22.6033
#
#
#
# Elastic Compliance Matrix: (Units=1/GPa)
#
#
# Indices 1 2 3 4 5 6 
#
# 1 0.007223 -0.001879 -0.001369 0.000000 -0.000977 0.000000
# 2 -0.001879 0.022969 0.004864 0.000000 -0.000920 0.000000
# 3 -0.001369 0.004864 0.020867 0.000000 -0.008133 0.000000
# 4 0.000000 0.000000 0.000000 0.046937 0.000000 0.014698
# 5 -0.000977 -0.000920 -0.008133 0.000000 0.038343 0.000000
# 6 0.000000 0.000000 0.000000 0.014698 0.000000 0.048844
#
#
# Mechanical properties :
#
#
# Convention : Reuss Voigt Hill
#
# Bulk Modulus (GPa) = 18.41960 29.27404 23.84682
# Shear Modulus (GPa) = 24.99410 30.75992 27.87701
#
# Velocity S-wave (km/s) = 3.38775 3.75824 3.57779
# Velocity P-wave (km/s) = 4.87446 5.68107 5.29315
#
# Compressibility (1/GPa) = 0.05428999
#
# Stress axis : x y z
#
# Youngs Moduli (GPa) = 138.44520 43.53744 47.92268
#
# Poissons Ratio (x) = 0.08181 0.06560
# Poissons Ratio (y) = 0.26015 -0.23307
# Poissons Ratio (z) = 0.18951 -0.21175
#
# Static dielectric constant tensor:
#      x y z
#    x 1.849890 0.000000 0.025270 
#    y 0.000000 1.797460 0.000000 
#    z 0.025270 0.000000 1.827610 
# 
# From -- ./inp_files/123561.got.cif
#   From: 2010.05.17/outbox.cif.g08.bks.cpg/sg15_62_cif.got.tgz:123561.got - 2010.06.03 18:47:42.
