data_PCOD9278451
_publ_section_title
;
Structure prediction by ZEFSAII (Michael W. Deem and Ramdas Pophale) SiO2 
 PCOD9278451
Probable space group: C 2/C
;
_chemical_formula_sum "Si O2"
_cell_formula_units_Z 48
_cell_length_a 10.811685
_cell_length_b 16.413228
_cell_length_c 18.213008
_cell_angle_alpha 90.000000
_cell_angle_beta 44.049229
_cell_angle_gamma 90.000000
_cell_volume 2247.120768
_symmetry_space_group_name_H-M "C 2/C"
_symmetry_group_IT_number 15
_symmetry_cell_setting 'monoclinic'
loop_
_space_group_symop_operation_xyz
x,y,z
-x,y,1/2-z
-x,-y,-z
x,-y,1/2+z
1/2+x,1/2+y,z
1/2-x,1/2+y,1/2-z
1/2-x,1/2-y,-z
1/2+x,1/2-y,1/2+z
loop_
_atom_site_type_symbol
_atom_site_label
_atom_site_fract_x
_atom_site_fract_y
_atom_site_fract_z
Si Si1 0.686526 0.876627 0.190027
Si Si2 0.203543 0.357148 0.594256
Si Si3 0.749963 0.456663 0.784126
Si Si4 0.206839 0.123875 0.147711
Si Si5 0.535710 0.252263 0.407719
Si Si6 0.669467 0.531376 0.013353
O O1 0.500000 0.835615 0.250000
O O2 0.821720 0.820556 0.177675
O O3 0.644009 0.959790 0.251432
O O4 0.776703 0.908907 0.076283
O O5 0.186352 0.389115 0.684898
O O6 0.377168 0.300041 0.514910
O O7 0.244260 0.442307 0.534489
O O8 0.054091 0.303640 0.616586
O O9 0.756102 0.427494 0.698820
O O10 0.545007 0.475992 0.893013
O O11 0.345214 0.197796 0.088805
O O12 0.220816 0.071913 0.068232
O O13 0.000000 0.147245 0.250000
#
# Coordination Sequence:
#
# PCOD9278451 Si02
#       6
#     8   8   8   8   8   8
#     4  11  22  39  68  95 123 166 218 258 314 378
#     4  10  21  40  69  88 124 171 207 259 321 367
#     4  10  20  43  65  94 123 170 213 255 306 388
#     4  10  24  40  64  92 132 164 208 261 317 366
#     4  11  22  40  60  96 127 156 212 263 319 366
#     4  10  20  44  67  88 125 171 210 257 308 383
#
# _framework density 21.360668
#
# number of rings (size 3 to 8) (size 9 to 14) (size 15 to 20)
#    0.000    1.667    3.333    1.500    4.667    1.333 
#    3.000    3.333    0.000    0.000    0.000    0.000 
#    0.000    0.000    0.000    0.000    0.000    0.000 
#
# Total GULP energy -134088.582304 kJ/mol
# GULP energy per Si atom -5587.024263 kJ/mol
# Density = 2.131205 g / cm^3
# Si number density = 21.360668 Si / 1000 Ang^3
#
#
#
# Elastic Constant Matrix: (Units=GPa)
#
#
# Indices 1 2 3 4 5 6 
#
# 1 144.8286 75.4435 36.9240 0.0002 -6.0447 0.0001
# 2 75.4435 129.4205 42.6738 0.0007 3.0297 0.0000
# 3 36.9240 42.6738 50.1001 0.0013 -4.1986 -0.0001
# 4 0.0002 0.0007 0.0013 -5.1546 -0.0002 -25.3707
# 5 -6.0447 3.0297 -4.1986 -0.0002 39.5569 -0.0001
# 6 0.0001 0.0000 -0.0001 -25.3707 -0.0001 48.3198
#
#
#
# Elastic Compliance Matrix: (Units=1/GPa)
#
#
# Indices 1 2 3 4 5 6 
#
# 1 0.010431 -0.005046 -0.003252 0.000000 0.001635 0.000000
# 2 -0.005046 0.013316 -0.007843 0.000000 -0.002623 0.000000
# 3 -0.003252 -0.007843 0.029306 0.000002 0.003214 0.000001
# 4 0.000000 0.000000 0.000002 -0.054125 0.000000 -0.028419
# 5 0.001635 -0.002623 0.003214 0.000000 0.026072 0.000000
# 6 0.000000 0.000000 0.000001 -0.028419 0.000000 0.005774
#
#
# Mechanical properties :
#
#
# Convention : Reuss Voigt Hill
#
# Bulk Modulus (GPa) = 48.14484 70.49241 59.31863
# Shear Modulus (GPa) = 71.44904 27.83162 49.64033
#
# Velocity S-wave (km/s) = 5.78977 3.61354 4.82593
# Velocity P-wave (km/s) = 8.20264 7.10513 7.67353
#
# Compressibility (1/GPa) = 0.02077066
#
# Stress axis : x y z
#
# Youngs Moduli (GPa) = 95.86926 75.09828 34.12221
#
# Poissons Ratio (x) = 0.37898 0.11097
# Poissons Ratio (y) = 0.48380 0.26761
# Poissons Ratio (z) = 0.31178 0.58897
#
# Static dielectric constant tensor:
#      x y z
#    x 1.765690 0.000000 -0.057670 
#    y 0.000000 1.793800 0.000000 
#    z -0.057670 0.000000 1.791800 
# 
# From -- ./inp_files/238955.got.cif
#   From: 2010.05.17/outbox.cif.g08.bks.cpg/sg15_120_cif.got.tgz:238955.got - 2010.06.03 18:47:42.
