data_PCOD9278435
_publ_section_title
;
Structure prediction by ZEFSAII (Michael W. Deem and Ramdas Pophale) SiO2 
 PCOD9278435
Probable space group: C 2/C
;
_chemical_formula_sum "Si O2"
_cell_formula_units_Z 52
_cell_length_a 13.561350
_cell_length_b 8.298131
_cell_length_c 27.862157
_cell_angle_alpha 90.000000
_cell_angle_beta 138.412498
_cell_angle_gamma 90.000000
_cell_volume 2081.186681
_symmetry_space_group_name_H-M "C 2/C"
_symmetry_group_IT_number 15
_symmetry_cell_setting 'monoclinic'
loop_
_space_group_symop_operation_xyz
x,y,z
-x,y,1/2-z
-x,-y,-z
x,-y,1/2+z
1/2+x,1/2+y,z
1/2-x,1/2+y,1/2-z
1/2-x,1/2-y,-z
1/2+x,1/2-y,1/2+z
loop_
_atom_site_type_symbol
_atom_site_label
_atom_site_fract_x
_atom_site_fract_y
_atom_site_fract_z
Si Si1 0.000000 0.860216 0.750000
Si Si2 0.026992 0.395399 0.058041
Si Si3 0.074752 0.121961 0.373124
Si Si4 0.269589 0.066876 0.019324
Si Si5 0.834347 0.132243 0.939821
Si Si6 0.253355 0.895418 0.194431
Si Si7 0.238686 0.252691 0.202388
O O1 0.043004 0.964672 0.811376
O O2 0.124330 0.737759 0.775004
O O3 0.190013 0.366838 0.140175
O O4 0.928328 0.488059 0.062610
O O5 0.960200 0.224543 0.015744
O O6 0.000000 0.500000 0.000000
O O7 0.188811 0.260031 0.397870
O O8 0.925783 0.192295 0.341069
O O9 0.159426 0.023883 0.443387
O O10 0.250000 0.250000 0.000000
O O11 0.213718 0.032744 0.052634
O O12 0.858182 0.117375 0.891650
O O13 0.199147 0.843758 0.227842
O O14 0.313200 0.079896 0.218002
#
# Coordination Sequence:
#
# PCOD9278435 Si02
#       7
#     4   8   8   8   8   8   8
#     4   8  18  40  66  84 116 174 208 242 320 372
#     4  11  24  40  67  91 130 166 210 259 321 374
#     4   9  17  40  64  84 120 166 199 249 315 375
#     4  11  22  39  65  97 123 161 213 260 305 380
#     4  10  20  43  64  91 124 172 203 255 320 379
#     4  10  24  38  66  88 127 164 210 257 315 380
#     4  11  22  43  61  93 125 165 205 260 318 365
#
# _framework density 24.985745000000001
#
# number of rings (size 3 to 8) (size 9 to 14) (size 15 to 20)
#    0.000    1.846    3.077    0.923    4.308    1.846 
#    0.000    0.000    0.000    0.000    0.000    0.000 
#    0.000    0.000    0.000    0.000    0.000    0.000 
#
# Total GULP energy -145230.076155 kJ/mol
# GULP energy per Si atom -5585.772160 kJ/mol
# Density = 2.492888 g / cm^3
# Si number density = 24.985745 Si / 1000 Ang^3
#
#
#
# Elastic Constant Matrix: (Units=GPa)
#
#
# Indices 1 2 3 4 5 6 
#
# 1 66.7020 19.7625 13.0211 0.0000 -4.8166 0.0000
# 2 19.7625 96.3924 14.9414 0.0000 -16.0535 0.0000
# 3 13.0211 14.9414 79.9492 0.0000 -40.9649 0.0000
# 4 0.0000 0.0000 0.0000 10.8654 0.0000 -4.1286
# 5 -4.8166 -16.0535 -40.9649 0.0000 32.2886 0.0000
# 6 0.0000 0.0000 0.0000 -4.1286 0.0000 40.1771
#
#
#
# Elastic Compliance Matrix: (Units=1/GPa)
#
#
# Indices 1 2 3 4 5 6 
#
# 1 0.016592 -0.003553 -0.004787 0.000000 -0.005365 0.000000
# 2 -0.003553 0.012208 0.003245 0.000000 0.009657 0.000000
# 3 -0.004787 0.003245 0.037556 0.000000 0.048547 0.000000
# 4 0.000000 0.000000 0.000000 0.095775 0.000000 0.009842
# 5 -0.005365 0.009657 0.048547 0.000000 0.096564 0.000000
# 6 0.000000 0.000000 0.000000 0.009842 0.000000 0.025901
#
#
# Mechanical properties :
#
#
# Convention : Reuss Voigt Hill
#
# Bulk Modulus (GPa) = 17.80455 37.61039 27.70747
# Shear Modulus (GPa) = 15.94854 29.68745 22.81799
#
# Velocity S-wave (km/s) = 2.52921 3.45073 3.02527
# Velocity P-wave (km/s) = 3.95861 5.56436 4.82870
#
# Compressibility (1/GPa) = 0.05616542
#
# Stress axis : x y z
#
# Youngs Moduli (GPa) = 60.27036 81.91354 26.62692
#
# Poissons Ratio (x) = 0.29105 0.12747
# Poissons Ratio (y) = 0.21415 -0.08641
# Poissons Ratio (z) = 0.28853 -0.26583
#
# Static dielectric constant tensor:
#      x y z
#    x 1.995520 0.000000 -0.016520 
#    y 0.000000 1.549520 0.000000 
#    z -0.016520 0.000000 2.023720 
# 
# From -- ./inp_files/295296.got.cif
#   From: 2010.05.17/outbox.cif.g08.bks.cpg/sg15_148_cif.got.tgz:295296.got - 2010.06.03 18:47:42.
