data_PCOD9278875
_publ_section_title
;
Structure prediction by ZEFSAII (Michael W. Deem and Ramdas Pophale) SiO2 
 PCOD9278875
Probable space group: C 2/C
;
_chemical_formula_sum "Si O2"
_cell_formula_units_Z 56
_cell_length_a 19.797345
_cell_length_b 17.430247
_cell_length_c 9.743612
_cell_angle_alpha 90.000000
_cell_angle_beta 119.483565
_cell_angle_gamma 90.000000
_cell_volume 2926.831416
_symmetry_space_group_name_H-M "C 2/C"
_symmetry_group_IT_number 15
_symmetry_cell_setting 'monoclinic'
loop_
_space_group_symop_operation_xyz
x,y,z
-x,y,1/2-z
-x,-y,-z
x,-y,1/2+z
1/2+x,1/2+y,z
1/2-x,1/2+y,1/2-z
1/2-x,1/2-y,-z
1/2+x,1/2-y,1/2+z
loop_
_atom_site_type_symbol
_atom_site_label
_atom_site_fract_x
_atom_site_fract_y
_atom_site_fract_z
Si Si1 0.247379 0.360141 0.402708
Si Si2 0.858737 0.792290 0.711013
Si Si3 0.500000 0.199330 0.250000
Si Si4 0.115649 0.429930 0.456774
Si Si5 0.500000 0.199332 0.750000
Si Si6 0.358736 0.292290 0.006463
Si Si7 0.384351 0.070068 0.225477
Si Si8 0.252621 0.860142 0.407948
O O1 0.201177 0.279359 0.345151
O O2 0.329949 0.343216 0.555372
O O3 0.194833 0.407020 0.457413
O O4 0.251629 0.391444 0.251630
O O5 0.942361 0.753742 0.776332
O O6 0.853145 0.832226 0.853146
O O7 0.442360 0.253741 0.108393
O O8 0.443024 0.142143 0.275584
O O9 0.084629 0.499998 0.334627
O O10 0.126595 0.450724 0.626594
O O11 0.056977 0.357854 0.389536
O O12 0.329948 0.343217 0.104526
O O13 0.298822 0.220641 0.942797
O O14 0.305168 0.092978 0.067744
#
# Coordination Sequence:
#
# PCOD9278875 Si02
#       8
#     8   8   4   8   4   8   8   8
#     4   9  18  32  49  69  94 128 170 211 251 296
#     4   9  17  30  48  70  97 129 166 208 252 298
#     4  10  21  32  50  76 107 138 168 204 252 304
#     4  11  22  35  51  72 102 139 175 210 249 298
#     4  10  21  32  50  76 107 138 168 204 252 304
#     4   9  17  30  48  70  97 129 166 208 252 298
#     4  11  22  35  51  72 102 139 175 210 249 298
#     4   9  18  32  49  69  94 128 170 211 251 296
#
# _framework density 19.133319
#
# number of rings (size 3 to 8) (size 9 to 14) (size 15 to 20)
#    0.000    2.286    0.000    3.000    0.000   12.571 
#    0.000    0.000    0.000    0.000    0.000    1.000 
#    0.000    6.857    0.000    0.000    0.000    0.000 
#
# Total GULP energy -155991.856367 kJ/mol
# GULP energy per Si atom -5571.137727 kJ/mol
# Density = 1.908977 g / cm^3
# Si number density = 19.133319 Si / 1000 Ang^3
#
#
#
# Elastic Constant Matrix: (Units=GPa)
#
#
# Indices 1 2 3 4 5 6 
#
# 1 76.6093 31.5483 96.0056 0.0000 -5.9934 0.0000
# 2 31.5483 25.4819 32.8870 0.0000 -1.3753 0.0000
# 3 96.0056 32.8870 125.8958 0.0000 -44.5366 0.0000
# 4 0.0000 0.0000 0.0000 17.2818 0.0000 -0.5391
# 5 -5.9934 -1.3753 -44.5366 0.0000 32.7351 0.0000
# 6 0.0000 0.0000 0.0000 -0.5391 0.0000 16.7559
#
#
#
# Elastic Compliance Matrix: (Units=1/GPa)
#
#
# Indices 1 2 3 4 5 6 
#
# 1 -0.018923 -0.018456 0.034223 0.000000 0.042321 0.000000
# 2 -0.018456 0.075519 -0.011039 0.000000 -0.015226 0.000000
# 3 0.034223 -0.011039 -0.025483 0.000000 -0.028868 0.000000
# 4 0.000000 0.000000 0.000000 0.057923 0.000000 0.001864
# 5 0.042321 -0.015226 -0.028868 0.000000 -0.001619 0.000000
# 6 0.000000 0.000000 0.000000 0.001864 0.000000 0.059741
#
#
# Mechanical properties :
#
#
# Convention : Reuss Voigt Hill
#
# Bulk Modulus (GPa) = 24.65023 60.98541 42.81782
# Shear Modulus (GPa) = 33.06334 17.85761 25.46048
#
# Velocity S-wave (km/s) = 4.16149 3.05835 3.65182
# Velocity P-wave (km/s) = 6.00017 6.66442 6.34100
#
# Compressibility (1/GPa) = 0.04056758
#
# Stress axis : x y z
#
# Youngs Moduli (GPa) = -52.84549 13.24167 -39.24155
#
# Poissons Ratio (x) = 0.24439 1.34296
# Poissons Ratio (y) = -0.97532 -0.43321
# Poissons Ratio (z) = 1.80852 0.14618
#
# Static dielectric constant tensor:
#      x y z
#    x 1.683910 0.000000 -0.002420 
#    y 0.000000 1.710490 0.000000 
#    z -0.002420 0.000000 1.686280 
# 
# From -- ./inp_files/57946.got.cif
#   From: 2010.05.17/outbox.cif.g08.bks.cpg/sg15_29_cif.got.tgz:57946.got - 2010.06.03 18:47:42.
