data_PCOD9278915
_publ_section_title
;
Structure prediction by ZEFSAII (Michael W. Deem and Ramdas Pophale) SiO2 
 PCOD9278915
Probable space group: C 2/C
;
_chemical_formula_sum "Si O2"
_cell_formula_units_Z 64
_cell_length_a 12.852424
_cell_length_b 30.444819
_cell_length_c 9.125633
_cell_angle_alpha 90.000000
_cell_angle_beta 69.947994
_cell_angle_gamma 90.000000
_cell_volume 3354.312937
_symmetry_space_group_name_H-M "C 2/C"
_symmetry_group_IT_number 15
_symmetry_cell_setting 'monoclinic'
loop_
_space_group_symop_operation_xyz
x,y,z
-x,y,1/2-z
-x,-y,-z
x,-y,1/2+z
1/2+x,1/2+y,z
1/2-x,1/2+y,1/2-z
1/2-x,1/2-y,-z
1/2+x,1/2-y,1/2+z
loop_
_atom_site_type_symbol
_atom_site_label
_atom_site_fract_x
_atom_site_fract_y
_atom_site_fract_z
Si Si1 0.279636 0.236056 0.322727
Si Si2 0.438541 0.559913 0.039751
Si Si3 0.149176 0.156176 0.361408
Si Si4 0.117200 0.276504 0.153775
Si Si5 0.793740 0.941265 0.074885
Si Si6 0.056747 0.209309 0.930243
Si Si7 0.711545 0.652650 0.005132
Si Si8 0.665201 0.492178 0.174295
O O1 0.250000 0.250000 0.500000
O O2 0.264212 0.183168 0.324679
O O3 0.188859 0.257043 0.253468
O O4 0.395502 0.258328 0.217123
O O5 0.375714 0.606667 0.075533
O O6 0.395451 0.527227 0.188544
O O7 0.570886 0.565033 0.994980
O O8 0.410074 0.536154 0.900605
O O9 0.062999 0.187966 0.488959
O O10 0.139857 0.152822 0.188724
O O11 0.193581 0.310913 0.032979
O O12 0.000000 0.297573 0.250000
O O13 0.916646 0.236991 0.436245
O O14 0.743880 0.895291 0.050917
O O15 0.771872 0.959332 0.247212
O O16 0.764356 0.978071 0.970229
O O17 0.137125 0.167312 0.902911
#
# Coordination Sequence:
#
# PCOD9278915 Si02
#       8
#     8   8   8   8   8   8   8   8
#     4  11  24  38  53  82 114 142 191 242 280 323
#     4  11  20  31  51  73 111 151 182 218 271 339
#     4  12  21  35  58  81 111 153 195 223 279 335
#     4  11  20  39  62  76 103 148 187 237 286 331
#     4  11  19  32  49  75 109 143 182 220 274 330
#     4  11  20  37  57  76 106 149 191 228 270 327
#     4  11  20  32  57  83 103 136 197 236 259 337
#     4  10  21  33  47  74 114 152 178 220 278 338
#
# _framework density 19.079913999999999
#
# number of rings (size 3 to 8) (size 9 to 14) (size 15 to 20)
#    0.000    1.000    6.250    4.125    0.000    2.500 
#    2.250    0.000    0.000    0.000    0.000    0.875 
#    0.000    0.000    0.000    0.000    0.000    0.000 
#
# Total GULP energy -178377.645293 kJ/mol
# GULP energy per Si atom -5574.301415 kJ/mol
# Density = 1.903649 g / cm^3
# Si number density = 19.079914 Si / 1000 Ang^3
#
#
#
# Elastic Constant Matrix: (Units=GPa)
#
#
# Indices 1 2 3 4 5 6 
#
# 1 36.6113 18.1767 22.6550 0.0000 -3.4991 0.0000
# 2 18.1767 135.7740 42.7540 0.0000 3.3036 0.0000
# 3 22.6550 42.7540 104.0374 0.0000 13.4148 0.0000
# 4 0.0000 0.0000 0.0000 25.1984 0.0000 -1.5781
# 5 -3.4991 3.3036 13.4148 0.0000 28.2654 0.0000
# 6 0.0000 0.0000 0.0000 -1.5781 0.0000 15.2574
#
#
#
# Elastic Compliance Matrix: (Units=1/GPa)
#
#
# Indices 1 2 3 4 5 6 
#
# 1 0.033857 -0.002390 -0.007421 0.000000 0.007993 0.000000
# 2 -0.002390 0.008642 -0.003049 0.000000 0.000141 0.000000
# 3 -0.007421 -0.003049 0.013372 0.000000 -0.006908 0.000000
# 4 0.000000 0.000000 0.000000 0.039944 0.000000 0.004131
# 5 0.007993 0.000141 -0.006908 0.000000 0.039631 0.000000
# 6 0.000000 0.000000 0.000000 0.004131 0.000000 0.065969
#
#
# Mechanical properties :
#
#
# Convention : Reuss Voigt Hill
#
# Bulk Modulus (GPa) = 33.16774 49.28824 41.22799
# Shear Modulus (GPa) = 21.08067 26.60003 23.84035
#
# Velocity S-wave (km/s) = 3.32755 3.73787 3.53866
# Velocity P-wave (km/s) = 5.67316 6.67214 6.19283
#
# Compressibility (1/GPa) = 0.03014977
#
# Stress axis : x y z
#
# Youngs Moduli (GPa) = 29.53637 115.71585 74.78494
#
# Poissons Ratio (x) = 0.27659 0.55497
# Poissons Ratio (y) = 0.07060 0.22802
# Poissons Ratio (z) = 0.21918 0.35282
#
# Static dielectric constant tensor:
#      x y z
#    x 1.705150 0.000000 -0.011890 
#    y 0.000000 1.704900 0.000000 
#    z -0.011890 0.000000 1.730910 
# 
# From -- ./inp_files/44545.got.cif
#   From: 2010.05.17/outbox.cif.g08.bks.cpg/sg15_23_cif.got.tgz:44545.got - 2010.06.03 18:47:42.
