data_PCOD9278802
_publ_section_title
;
Structure prediction by ZEFSAII (Michael W. Deem and Ramdas Pophale) SiO2 
 PCOD9278802
Probable space group: C 2/C
;
_chemical_formula_sum "Si O2"
_cell_formula_units_Z 52
_cell_length_a 15.234671
_cell_length_b 18.212352
_cell_length_c 9.054700
_cell_angle_alpha 90.000000
_cell_angle_beta 65.759343
_cell_angle_gamma 90.000000
_cell_volume 2290.796888
_symmetry_space_group_name_H-M "C 2/C"
_symmetry_group_IT_number 15
_symmetry_cell_setting 'monoclinic'
loop_
_space_group_symop_operation_xyz
x,y,z
-x,y,1/2-z
-x,-y,-z
x,-y,1/2+z
1/2+x,1/2+y,z
1/2-x,1/2+y,1/2-z
1/2-x,1/2-y,-z
1/2+x,1/2-y,1/2+z
loop_
_atom_site_type_symbol
_atom_site_label
_atom_site_fract_x
_atom_site_fract_y
_atom_site_fract_z
Si Si1 0.000000 0.165289 0.250000
Si Si2 0.237534 0.937066 0.384180
Si Si3 0.328700 0.286112 0.548765
Si Si4 0.677136 0.425457 0.758018
Si Si5 0.019697 0.272835 0.962387
Si Si6 0.281318 0.273762 0.140145
Si Si7 0.044891 0.569157 0.881466
O O1 0.918209 0.111431 0.244278
O O2 0.970787 0.221551 0.398526
O O3 0.240564 0.937494 0.563139
O O4 0.193974 0.858654 0.372163
O O5 0.342012 0.941561 0.233849
O O6 0.173706 0.999599 0.351841
O O7 0.250000 0.250000 0.500000
O O8 0.299725 0.366390 0.627644
O O9 0.438242 0.271205 0.426347
O O10 0.317502 0.237931 0.704275
O O11 0.983394 0.355699 0.013731
O O12 0.133074 0.273297 0.846199
O O13 0.250000 0.250000 0.000000
O O14 0.000000 0.575258 0.750000
O O15 0.000000 0.500000 0.000000
#
# Coordination Sequence:
#
# PCOD9278802 Si02
#       7
#     4   8   8   8   8   8   8
#     4  10  20  46  74 108 132 188 248 308 360 442
#     4  12  25  45  69 107 144 191 238 307 375 446
#     4  11  26  45  70 105 143 187 248 309 361 435
#     4  11  26  44  74 103 149 189 243 302 379 442
#     4  11  22  44  74 102 138 188 246 300 364 443
#     4  12  22  44  76 100 137 196 246 293 366 451
#     4  12  26  43  69 103 144 187 242 301 366 437
#
# _framework density 22.699525000000001
#
# number of rings (size 3 to 8) (size 9 to 14) (size 15 to 20)
#    0.000    0.615    5.385    2.769    4.308    2.462 
#    0.000    0.000    0.000    0.000    0.000    0.000 
#    0.000    0.000    0.000    0.000    0.000    0.000 
#
# Total GULP energy -144997.977242 kJ/mol
# GULP energy per Si atom -5576.845279 kJ/mol
# Density = 2.264786 g / cm^3
# Si number density = 22.699525 Si / 1000 Ang^3
#
#
#
# Elastic Constant Matrix: (Units=GPa)
#
#
# Indices 1 2 3 4 5 6 
#
# 1 94.5154 22.1161 21.9733 0.0000 -6.6694 0.0000
# 2 22.1161 180.0189 33.7556 0.0000 -8.6998 0.0000
# 3 21.9733 33.7556 93.1782 0.0000 -20.5675 0.0000
# 4 0.0000 0.0000 0.0000 34.7525 0.0000 3.6063
# 5 -6.6694 -8.6998 -20.5675 0.0000 29.5482 0.0000
# 6 0.0000 0.0000 0.0000 3.6063 0.0000 31.4394
#
#
#
# Elastic Compliance Matrix: (Units=1/GPa)
#
#
# Indices 1 2 3 4 5 6 
#
# 1 0.011361 -0.000953 -0.002162 0.000000 0.000779 0.000000
# 2 -0.000953 0.006042 -0.001913 0.000000 0.000232 0.000000
# 3 -0.002162 -0.001913 0.013827 0.000000 0.008574 0.000000
# 4 0.000000 0.000000 0.000000 0.029122 0.000000 -0.003340
# 5 0.000779 0.000232 0.008574 0.000000 0.040055 0.000000
# 6 0.000000 0.000000 0.000000 -0.003340 0.000000 0.032190
#
#
# Mechanical properties :
#
#
# Convention : Reuss Voigt Hill
#
# Bulk Modulus (GPa) = 47.22551 58.15583 52.69067
# Shear Modulus (GPa) = 33.39777 38.47251 35.93514
#
# Velocity S-wave (km/s) = 3.83991 4.12133 3.98311
# Velocity P-wave (km/s) = 6.36472 6.95145 6.66455
#
# Compressibility (1/GPa) = 0.02117500
#
# Stress axis : x y z
#
# Youngs Moduli (GPa) = 88.02186 165.51023 72.32009
#
# Poissons Ratio (x) = 0.15768 0.15636
# Poissons Ratio (y) = 0.08386 0.13834
# Poissons Ratio (z) = 0.19031 0.31659
#
# Static dielectric constant tensor:
#      x y z
#    x 1.933720 0.000000 -0.081840 
#    y 0.000000 1.807750 0.000000 
#    z -0.081840 0.000000 1.942620 
# 
# From -- ./inp_files/48453.got.cif
#   From: 2010.05.17/outbox.cif.g08.bks.cpg/sg15_25_cif.got.tgz:48453.got - 2010.06.03 18:47:42.
