data_PCOD9278807
_publ_section_title
;
Structure prediction by ZEFSAII (Michael W. Deem and Ramdas Pophale) SiO2 
 PCOD9278807
Probable space group: C 2/C
;
_chemical_formula_sum "Si O2"
_cell_formula_units_Z 44
_cell_length_a 17.900391
_cell_length_b 11.375268
_cell_length_c 9.160160
_cell_angle_alpha 90.000000
_cell_angle_beta 70.769420
_cell_angle_gamma 90.000000
_cell_volume 1761.130499
_symmetry_space_group_name_H-M "C 2/C"
_symmetry_group_IT_number 15
_symmetry_cell_setting 'monoclinic'
loop_
_space_group_symop_operation_xyz
x,y,z
-x,y,1/2-z
-x,-y,-z
x,-y,1/2+z
1/2+x,1/2+y,z
1/2-x,1/2+y,1/2-z
1/2-x,1/2-y,-z
1/2+x,1/2-y,1/2+z
loop_
_atom_site_type_symbol
_atom_site_label
_atom_site_fract_x
_atom_site_fract_y
_atom_site_fract_z
Si Si1 0.614537 0.413861 0.200944
Si Si2 0.345926 0.888882 0.438707
Si Si3 0.289722 0.922877 0.178820
Si Si4 0.500000 0.037043 0.250000
Si Si5 0.442246 0.225654 0.495940
Si Si6 0.073981 0.147804 0.057685
O O1 0.708869 0.398237 0.147955
O O2 0.578516 0.315910 0.118609
O O3 0.589253 0.539057 0.153035
O O4 0.586287 0.399037 0.384714
O O5 0.280085 0.913567 0.358270
O O6 0.366430 0.754074 0.446804
O O7 0.319508 0.950226 0.605003
O O8 0.422966 0.957328 0.323888
O O9 0.360139 0.833308 0.095060
O O10 0.498613 0.123794 0.391335
O O11 0.487828 0.290326 0.596819
#
# Coordination Sequence:
#
# PCOD9278807 Si02
#       6
#     8   8   8   4   8   8
#     4  12  27  47  71 108 151 199 238 306 369 451
#     4  11  25  47  77 108 142 191 245 310 362 442
#     4  11  26  45  75 110 147 188 250 303 380 430
#     4  10  20  46  76 108 132 186 246 308 360 422
#     4  11  23  47  76 107 147 193 245 307 363 446
#     4  12  27  49  76 106 151 194 254 298 374 441
#
# _framework density 24.983953
#
# number of rings (size 3 to 8) (size 9 to 14) (size 15 to 20)
#    0.000    0.727    1.818    4.364    5.091    5.818 
#    3.273    0.000    0.000    0.000    0.000    0.000 
#    0.000    0.000    0.000    0.000    0.000    0.000 
#
# Total GULP energy -123474.550496 kJ/mol
# GULP energy per Si atom -5612.479568 kJ/mol
# Density = 2.492709 g / cm^3
# Si number density = 24.983953 Si / 1000 Ang^3
#
#
#
# Elastic Constant Matrix: (Units=GPa)
#
#
# Indices 1 2 3 4 5 6 
#
# 1 137.6456 49.1936 36.9451 0.0000 14.1393 0.0000
# 2 49.1936 175.5184 73.0150 0.0000 25.5582 0.0000
# 3 36.9451 73.0150 108.2733 0.0000 27.0530 0.0000
# 4 0.0000 0.0000 0.0000 58.6770 0.0000 -10.7393
# 5 14.1393 25.5582 27.0530 0.0000 45.8909 0.0000
# 6 0.0000 0.0000 0.0000 -10.7393 0.0000 81.1046
#
#
#
# Elastic Compliance Matrix: (Units=1/GPa)
#
#
# Indices 1 2 3 4 5 6 
#
# 1 0.008330 -0.001558 -0.001603 0.000000 -0.000754 0.000000
# 2 -0.001558 0.008297 -0.004725 0.000000 -0.001356 0.000000
# 3 -0.001603 -0.004725 0.014294 0.000000 -0.005301 0.000000
# 4 0.000000 0.000000 0.000000 0.017466 0.000000 0.002313
# 5 -0.000754 -0.001356 -0.005301 0.000000 0.025903 0.000000
# 6 0.000000 0.000000 0.000000 0.002313 0.000000 0.012636
#
#
# Mechanical properties :
#
#
# Convention : Reuss Voigt Hill
#
# Bulk Modulus (GPa) = 66.01520 82.19385 74.10453
# Shear Modulus (GPa) = 46.40535 54.62007 50.51271
#
# Velocity S-wave (km/s) = 4.31444 4.68076 4.50133
# Velocity P-wave (km/s) = 7.16237 7.88561 7.53267
#
# Compressibility (1/GPa) = 0.01514803
#
# Stress axis : x y z
#
# Youngs Moduli (GPa) = 120.05421 120.52632 69.96098
#
# Poissons Ratio (x) = 0.18776 0.11218
# Poissons Ratio (y) = 0.18703 0.33055
# Poissons Ratio (z) = 0.19249 0.56947
#
# Static dielectric constant tensor:
#      x y z
#    x 1.969970 0.000000 -0.028680 
#    y 0.000000 1.911560 0.000000 
#    z -0.028680 0.000000 2.021390 
# 
# From -- ./inp_files/60493.got.cif
#   From: 2010.05.17/outbox.cif.g08.bks.cpg/sg15_31_cif.got.tgz:60493.got - 2010.06.03 18:47:42.
