data_PCOD9278268
_publ_section_title
;
Structure prediction by ZEFSAII (Michael W. Deem and Ramdas Pophale) SiO2 
 PCOD9278268
Probable space group: C 2/C
;
_chemical_formula_sum "Si O2"
_cell_formula_units_Z 44
_cell_length_a 16.662328
_cell_length_b 16.761457
_cell_length_c 8.175023
_cell_angle_alpha 90.000000
_cell_angle_beta 52.050072
_cell_angle_gamma 90.000000
_cell_volume 1800.382718
_symmetry_space_group_name_H-M "C 2/C"
_symmetry_group_IT_number 15
_symmetry_cell_setting 'monoclinic'
loop_
_space_group_symop_operation_xyz
x,y,z
-x,y,1/2-z
-x,-y,-z
x,-y,1/2+z
1/2+x,1/2+y,z
1/2-x,1/2+y,1/2-z
1/2-x,1/2-y,-z
1/2+x,1/2-y,1/2+z
loop_
_atom_site_type_symbol
_atom_site_label
_atom_site_fract_x
_atom_site_fract_y
_atom_site_fract_z
Si Si1 0.924556 0.568874 0.714477
Si Si2 0.884399 0.016002 0.592808
Si Si3 0.141356 0.266117 0.064727
Si Si4 0.434907 0.815410 0.678493
Si Si5 0.000000 0.858877 0.750000
Si Si6 0.740995 0.065220 0.066399
O O1 0.834620 0.507970 0.787910
O O2 0.000000 0.527204 0.750000
O O3 0.990420 0.615722 0.494823
O O4 0.879268 0.641972 0.872989
O O5 0.909938 0.084684 0.429097
O O6 0.828688 0.937545 0.593974
O O7 0.808054 0.048712 0.823239
O O8 0.000000 0.000000 0.500000
O O9 0.112191 0.259739 0.908354
O O10 0.250000 0.250000 0.000000
O O11 0.068352 0.206877 0.258517
O O12 0.500000 0.781211 0.750000
O O13 0.333005 0.860884 0.864917
#
# Coordination Sequence:
#
# PCOD9278268 Si02
#       6
#     8   8   8   8   4   8
#     4  10  20  42  69 104 139 182 235 280 360 431
#     4  12  25  43  65 102 139 184 241 293 348 420
#     4  11  24  45  74  97 138 202 238 276 358 450
#     4  11  23  42  70 113 145 173 240 307 361 417
#     4  12  24  48  72  90 142 184 248 294 344 434
#     4  12  23  41  71 105 143 183 231 301 358 411
#
# _framework density 24.439249
#
# number of rings (size 3 to 8) (size 9 to 14) (size 15 to 20)
#    0.000    0.727    4.545    5.455    2.545    0.000 
#    0.000    5.455    0.000    0.000    0.000    0.000 
#    0.000    0.000    0.000    0.000    0.000    0.000 
#
# Total GULP energy -122614.041366 kJ/mol
# GULP energy per Si atom -5573.365517 kJ/mol
# Density = 2.438362 g / cm^3
# Si number density = 24.439249 Si / 1000 Ang^3
#
#
#
# Elastic Constant Matrix: (Units=GPa)
#
#
# Indices 1 2 3 4 5 6 
#
# 1 204.1067 27.5741 44.8081 0.0000 -17.6321 0.0000
# 2 27.5741 42.6245 -11.3076 0.0000 -3.6058 0.0000
# 3 44.8081 -11.3076 108.0485 0.0000 -14.2468 0.0000
# 4 0.0000 0.0000 0.0000 16.7120 0.0000 -2.1279
# 5 -17.6321 -3.6058 -14.2468 0.0000 42.1247 0.0000
# 6 0.0000 0.0000 0.0000 -2.1279 0.0000 25.9258
#
#
#
# Elastic Compliance Matrix: (Units=1/GPa)
#
#
# Indices 1 2 3 4 5 6 
#
# 1 0.006294 -0.004748 -0.002945 0.000000 0.001232 0.000000
# 2 -0.004748 0.028095 0.005196 0.000000 0.002175 0.000000
# 3 -0.002945 0.005196 0.011426 0.000000 0.003077 0.000000
# 4 0.000000 0.000000 0.000000 0.060469 0.000000 0.004963
# 5 0.001232 0.002175 0.003077 0.000000 0.025481 0.000000
# 6 0.000000 0.000000 0.000000 0.004963 0.000000 0.038979
#
#
# Mechanical properties :
#
#
# Convention : Reuss Voigt Hill
#
# Bulk Modulus (GPa) = 24.49733 52.99210 38.74472
# Shear Modulus (GPa) = 26.40694 36.53284 31.46989
#
# Velocity S-wave (km/s) = 3.29068 3.87051 3.59232
# Velocity P-wave (km/s) = 4.94810 6.45792 5.75276
#
# Compressibility (1/GPa) = 0.04082077
#
# Stress axis : x y z
#
# Youngs Moduli (GPa) = 158.88805 35.59365 87.52233
#
# Poissons Ratio (x) = 0.16901 0.25771
# Poissons Ratio (y) = 0.75446 -0.45478
# Poissons Ratio (z) = 0.46785 -0.18495
#
# Static dielectric constant tensor:
#      x y z
#    x 1.911470 0.000000 -0.021160 
#    y 0.000000 2.043790 0.000000 
#    z -0.021160 0.000000 2.023290 
# 
# From -- ./inp_files/48881.got.cif
#   From: 2010.05.17/outbox.cif.g08.bks.cpg/sg15_25_cif.got.tgz:48881.got - 2010.06.03 18:47:42.
