data_PCOD9278083
_publ_section_title
;
Structure prediction by ZEFSAII (Michael W. Deem and Ramdas Pophale) SiO2 
 PCOD9278083
Probable space group: C 2/C
;
_chemical_formula_sum "Si O2"
_cell_formula_units_Z 40
_cell_length_a 12.013522
_cell_length_b 17.582640
_cell_length_c 11.577466
_cell_angle_alpha 90.000000
_cell_angle_beta 142.142467
_cell_angle_gamma 90.000000
_cell_volume 1500.804733
_symmetry_space_group_name_H-M "C 2/C"
_symmetry_group_IT_number 15
_symmetry_cell_setting 'monoclinic'
loop_
_space_group_symop_operation_xyz
x,y,z
-x,y,1/2-z
-x,-y,-z
x,-y,1/2+z
1/2+x,1/2+y,z
1/2-x,1/2+y,1/2-z
1/2-x,1/2-y,-z
1/2+x,1/2-y,1/2+z
loop_
_atom_site_type_symbol
_atom_site_label
_atom_site_fract_x
_atom_site_fract_y
_atom_site_fract_z
Si Si1 0.516976 0.331567 0.393063
Si Si2 0.380298 0.833547 0.468397
Si Si3 0.500000 0.766727 0.250000
Si Si4 0.764857 0.351191 0.894615
Si Si5 0.000000 0.456527 0.750000
Si Si6 0.694450 0.462443 0.668513
O O1 0.500000 0.363208 0.250000
O O2 0.594762 0.247250 0.450213
O O3 0.654643 0.379922 0.580462
O O4 0.306256 0.335263 0.256276
O O5 0.554673 0.837115 0.530867
O O6 0.396771 0.901256 0.574380
O O7 0.406020 0.705903 0.261399
O O8 0.660865 0.822948 0.421288
O O9 0.727022 0.438886 0.829303
O O10 0.145360 0.496376 0.780877
O O11 0.500000 0.500000 0.500000
#
# Coordination Sequence:
#
# PCOD9278083 Si02
#       6
#     8   8   4   8   4   8
#     4  12  21  35  64 101 138 166 208 282 346 403
#     4  11  20  36  67 105 131 164 213 292 360 395
#     4  10  20  42  66 104 138 176 228 294 348 408
#     4  10  22  39  68  98 138 178 228 281 347 408
#     4  10  20  42  70  98 132 172 228 288 344 396
#     4  11  25  45  65  97 138 188 232 273 334 420
#
# _framework density 26.652370000000001
#
# number of rings (size 3 to 8) (size 9 to 14) (size 15 to 20)
#    0.000    1.200    3.000    5.400    0.000    1.600 
#    1.800    6.000    0.000    2.400    0.000    4.200 
#    0.000    0.000    0.000    0.000    0.000    0.000 
#
# Total GULP energy -111696.913796 kJ/mol
# GULP energy per Si atom -5584.845690 kJ/mol
# Density = 2.659171 g / cm^3
# Si number density = 26.652370 Si / 1000 Ang^3
#
#
#
# Elastic Constant Matrix: (Units=GPa)
#
#
# Indices 1 2 3 4 5 6 
#
# 1 149.3303 29.3270 11.2569 0.0000 34.9084 0.0000
# 2 29.3270 57.7621 9.6293 0.0000 6.1127 0.0000
# 3 11.2569 9.6293 84.1591 0.0000 33.5446 0.0000
# 4 0.0000 0.0000 0.0000 50.9150 0.0000 13.6629
# 5 34.9084 6.1127 33.5446 0.0000 48.8499 0.0000
# 6 0.0000 0.0000 0.0000 13.6629 0.0000 11.2339
#
#
#
# Elastic Compliance Matrix: (Units=1/GPa)
#
#
# Indices 1 2 3 4 5 6 
#
# 1 0.009116 -0.004208 0.002270 0.000000 -0.007547 0.000000
# 2 -0.004208 0.019637 -0.002620 0.000000 0.002349 0.000000
# 3 0.002270 -0.002620 0.017065 0.000000 -0.013013 0.000000
# 4 0.000000 0.000000 0.000000 0.029156 0.000000 -0.035461
# 5 -0.007547 0.002349 -0.013013 0.000000 0.034506 0.000000
# 6 0.000000 0.000000 0.000000 -0.035461 0.000000 0.132145
#
#
# Mechanical properties :
#
#
# Convention : Reuss Voigt Hill
#
# Bulk Modulus (GPa) = 27.24682 43.51975 35.38329
# Shear Modulus (GPa) = 19.01317 38.26897 28.64107
#
# Velocity S-wave (km/s) = 2.67381 3.79338 3.28169
# Velocity P-wave (km/s) = 4.44720 5.96242 5.25966
#
# Compressibility (1/GPa) = 0.03670153
#
# Stress axis : x y z
#
# Youngs Moduli (GPa) = 109.69653 50.92378 58.59895
#
# Poissons Ratio (x) = 0.21430 -0.13303
# Poissons Ratio (y) = 0.46163 0.15355
# Poissons Ratio (z) = -0.24903 0.13344
#
# Static dielectric constant tensor:
#      x y z
#    x 2.201530 0.000000 -0.077930 
#    y 0.000000 2.148400 0.000000 
#    z -0.077930 0.000000 2.207530 
# 
# From -- ./inp_files/29175.got.cif
#   From: 2010.05.17/outbox.cif.g08.bks.cpg/sg15_15_cif.got.tgz:29175.got - 2010.06.03 18:47:42.
