data_PCOD9278950
_publ_section_title
;
Structure prediction by ZEFSAII (Michael W. Deem and Ramdas Pophale) SiO2 
 PCOD9278950
Probable space group: C 2/C
;
_chemical_formula_sum "Si O2"
_cell_formula_units_Z 56
_cell_length_a 17.219489
_cell_length_b 8.844487
_cell_length_c 31.464630
_cell_angle_alpha 90.000000
_cell_angle_beta 140.449480
_cell_angle_gamma 90.000000
_cell_volume 3051.337047
_symmetry_space_group_name_H-M "C 2/C"
_symmetry_group_IT_number 15
_symmetry_cell_setting 'monoclinic'
loop_
_space_group_symop_operation_xyz
x,y,z
-x,y,1/2-z
-x,-y,-z
x,-y,1/2+z
1/2+x,1/2+y,z
1/2-x,1/2+y,1/2-z
1/2-x,1/2-y,-z
1/2+x,1/2-y,1/2+z
loop_
_atom_site_type_symbol
_atom_site_label
_atom_site_fract_x
_atom_site_fract_y
_atom_site_fract_z
Si Si1 0.433414 0.349126 0.528345
Si Si2 0.957617 0.279804 0.278189
Si Si3 0.291534 0.124407 0.350984
Si Si4 0.786095 0.143776 0.088035
Si Si5 0.512347 0.684348 0.965443
Si Si6 0.535302 0.913791 0.130819
Si Si7 0.316354 0.106335 0.009063
O O1 0.297477 0.283084 0.463480
O O2 0.440125 0.529698 0.535759
O O3 0.499655 0.328298 0.510656
O O4 0.496662 0.242091 0.590290
O O5 0.840698 0.173665 0.221511
O O6 0.927214 0.388691 0.304661
O O7 0.000000 0.345402 0.250000
O O8 0.077259 0.191329 0.344558
O O9 0.272997 0.085004 0.392816
O O10 0.381603 0.269632 0.390681
O O11 0.360101 0.997711 0.352398
O O12 0.775488 0.015292 0.048562
O O13 0.600269 0.823759 0.992931
O O14 0.414494 0.019054 0.079365
O O15 0.250000 0.250000 0.000000
#
# Coordination Sequence:
#
# PCOD9278950 Si02
#       7
#     8   8   8   8   8   8   8
#     4   9  18  32  59  87 109 140 182 230 285 335
#     4  10  22  38  59  80 111 153 194 231 270 330
#     4   9  19  39  57  78 109 152 189 222 270 337
#     4   9  19  36  59  80 112 146 182 224 284 337
#     4   9  18  33  54  86 116 139 176 233 282 326
#     4  10  21  36  58  81 108 147 188 229 278 331
#     4  10  21  33  54  84 116 137 174 233 285 332
#
# _framework density 18.352609999999999
#
# number of rings (size 3 to 8) (size 9 to 14) (size 15 to 20)
#    0.000    2.571    0.000    0.857    4.000    5.714 
#    2.571    0.000    3.143    0.000    0.000    0.000 
#    0.000    0.000    0.000    0.000    0.000    0.000 
#
# Total GULP energy -156067.505216 kJ/mol
# GULP energy per Si atom -5573.839472 kJ/mol
# Density = 1.831084 g / cm^3
# Si number density = 18.352610 Si / 1000 Ang^3
#
#
#
# Elastic Constant Matrix: (Units=GPa)
#
#
# Indices 1 2 3 4 5 6 
#
# 1 87.6753 25.2505 38.1939 0.0000 -9.1784 0.0000
# 2 25.2505 70.6700 30.2689 0.0000 -8.8633 0.0000
# 3 38.1939 30.2689 81.9654 0.0000 -4.6924 0.0000
# 4 0.0000 0.0000 0.0000 13.4399 0.0000 -4.2426
# 5 -9.1784 -8.8633 -4.6924 0.0000 22.7375 0.0000
# 6 0.0000 0.0000 0.0000 -4.2426 0.0000 35.9830
#
#
#
# Elastic Compliance Matrix: (Units=1/GPa)
#
#
# Indices 1 2 3 4 5 6 
#
# 1 0.015081 -0.002352 -0.005933 0.000000 0.003946 0.000000
# 2 -0.002352 0.017841 -0.005210 0.000000 0.004930 0.000000
# 3 -0.005933 -0.005210 0.016834 0.000000 -0.000952 0.000000
# 4 0.000000 0.000000 0.000000 0.077282 0.000000 0.009112
# 5 0.003946 0.004930 -0.000952 0.000000 0.047298 0.000000
# 6 0.000000 0.000000 0.000000 0.009112 0.000000 0.028865
#
#
# Mechanical properties :
#
#
# Convention : Reuss Voigt Hill
#
# Bulk Modulus (GPa) = 43.92598 47.52638 45.72618
# Shear Modulus (GPa) = 21.02791 24.20524 22.61658
#
# Velocity S-wave (km/s) = 3.38860 3.63560 3.51427
# Velocity P-wave (km/s) = 6.26870 6.60121 6.43710
#
# Compressibility (1/GPa) = 0.02276557
#
# Stress axis : x y z
#
# Youngs Moduli (GPa) = 66.30961 56.05209 59.40283
#
# Poissons Ratio (x) = 0.13186 0.35241
# Poissons Ratio (y) = 0.15599 0.30948
# Poissons Ratio (z) = 0.39339 0.29203
#
# Static dielectric constant tensor:
#      x y z
#    x 1.690550 0.000000 -0.006530 
#    y 0.000000 1.623190 0.000000 
#    z -0.006530 0.000000 1.614500 
# 
# From -- ./inp_files/247585.got.cif
#   From: 2010.05.17/outbox.cif.g08.bks.cpg/sg15_124_cif.got.tgz:247585.got - 2010.06.03 18:47:42.
