data_PCOD9278132
_publ_section_title
;
Structure prediction by ZEFSAII (Michael W. Deem and Ramdas Pophale) SiO2 
 PCOD9278132
Probable space group: C 2/C
;
_chemical_formula_sum "Si O2"
_cell_formula_units_Z 48
_cell_length_a 25.488649
_cell_length_b 8.918492
_cell_length_c 10.296442
_cell_angle_alpha 90.000000
_cell_angle_beta 75.074831
_cell_angle_gamma 90.000000
_cell_volume 2261.625987
_symmetry_space_group_name_H-M "C 2/C"
_symmetry_group_IT_number 15
_symmetry_cell_setting 'monoclinic'
loop_
_space_group_symop_operation_xyz
x,y,z
-x,y,1/2-z
-x,-y,-z
x,-y,1/2+z
1/2+x,1/2+y,z
1/2-x,1/2+y,1/2-z
1/2-x,1/2-y,-z
1/2+x,1/2-y,1/2+z
loop_
_atom_site_type_symbol
_atom_site_label
_atom_site_fract_x
_atom_site_fract_y
_atom_site_fract_z
Si Si1 0.634162 0.948298 0.944586
Si Si2 0.088293 0.255946 0.398957
Si Si3 0.679564 0.396563 0.008357
Si Si4 0.000000 0.000000 0.500000
Si Si5 0.698362 0.905003 0.641579
Si Si6 0.902434 0.837554 0.898700
Si Si7 0.000000 0.987192 0.250000
O O1 0.674491 0.943508 0.796644
O O2 0.588591 0.072711 0.944279
O O3 0.609945 0.785828 0.987572
O O4 0.666516 0.001780 0.051793
O O5 0.143298 0.185225 0.422507
O O6 0.039634 0.154499 0.480104
O O7 0.090011 0.243779 0.243078
O O8 0.689437 0.271033 0.112806
O O9 0.644540 0.538882 0.075597
O O10 0.737991 0.438849 0.914108
O O11 0.036947 0.930782 0.340634
O O12 0.961003 0.922659 0.879750
#
# Coordination Sequence:
#
# PCOD9278132 Si02
#       7
#     8   8   8   4   8   8   4
#     4  11  23  44  63  98 136 179 209 293 333 405
#     4  10  22  42  65  96 131 172 227 280 328 407
#     4  10  23  40  65  97 131 182 224 281 321 414
#     4  10  20  42  66  94 122 164 220 276 324 394
#     4  10  24  41  64  96 139 173 232 267 346 388
#     4  11  23  40  69  94 132 173 223 273 341 398
#     4  10  22  40  64  98 122 164 220 272 320 408
#
# _framework density 21.223671
#
# number of rings (size 3 to 8) (size 9 to 14) (size 15 to 20)
#    0.000    1.667    3.333    0.000    4.667    3.333 
#    0.000    4.167    0.000    0.000    0.000    0.000 
#    0.000    0.000    0.000    0.000    0.000    0.000 
#
# Total GULP energy -133658.223515 kJ/mol
# GULP energy per Si atom -5569.092646 kJ/mol
# Density = 2.117536 g / cm^3
# Si number density = 21.223671 Si / 1000 Ang^3
#
#
#
# Elastic Constant Matrix: (Units=GPa)
#
#
# Indices 1 2 3 4 5 6 
#
# 1 88.4897 44.9976 27.0098 0.0000 -20.7040 0.0000
# 2 44.9976 105.6639 40.9107 0.0000 -25.5374 0.0000
# 3 27.0098 40.9107 129.2629 0.0000 1.2731 0.0000
# 4 0.0000 0.0000 0.0000 25.8865 0.0000 -0.0094
# 5 -20.7040 -25.5374 1.2731 0.0000 38.3444 0.0000
# 6 0.0000 0.0000 0.0000 -0.0094 0.0000 20.5303
#
#
#
# Elastic Compliance Matrix: (Units=1/GPa)
#
#
# Indices 1 2 3 4 5 6 
#
# 1 0.015436 -0.004571 -0.001831 0.000000 0.005351 0.000000
# 2 -0.004571 0.014658 -0.003757 0.000000 0.007419 0.000000
# 3 -0.001831 -0.003757 0.009345 0.000000 -0.003801 0.000000
# 4 0.000000 0.000000 0.000000 0.038630 0.000000 0.000018
# 5 0.005351 0.007419 -0.003801 0.000000 0.034036 0.000000
# 6 0.000000 0.000000 0.000000 0.000018 0.000000 0.048709
#
#
# Mechanical properties :
#
#
# Convention : Reuss Voigt Hill
#
# Bulk Modulus (GPa) = 52.30002 61.02808 56.66405
# Shear Modulus (GPa) = 26.66554 30.98546 28.82550
#
# Velocity S-wave (km/s) = 3.54843 3.82507 3.68934
# Velocity P-wave (km/s) = 6.44083 6.95165 6.70111
#
# Compressibility (1/GPa) = 0.01912045
#
# Stress axis : x y z
#
# Youngs Moduli (GPa) = 64.78252 68.22016 107.00454
#
# Poissons Ratio (x) = 0.31185 0.19597
# Poissons Ratio (y) = 0.29614 0.40203
# Poissons Ratio (z) = 0.11864 0.25631
#
# Static dielectric constant tensor:
#      x y z
#    x 1.831340 0.000000 0.042790 
#    y 0.000000 1.838040 0.000000 
#    z 0.042790 0.000000 1.845690 
# 
# From -- ./inp_files/121391.got.cif
#   From: 2010.05.17/outbox.cif.g08.bks.cpg/sg15_61_cif.got.tgz:121391.got - 2010.06.03 18:47:42.
