data_PCOD9278281
_publ_section_title
;
Structure prediction by ZEFSAII (Michael W. Deem and Ramdas Pophale) SiO2 
 PCOD9278281
Probable space group: C 2/C
;
_chemical_formula_sum "Si O2"
_cell_formula_units_Z 40
_cell_length_a 9.459556
_cell_length_b 19.711950
_cell_length_c 17.450735
_cell_angle_alpha 90.000000
_cell_angle_beta 146.540555
_cell_angle_gamma 90.000000
_cell_volume 1794.067470
_symmetry_space_group_name_H-M "C 2/C"
_symmetry_group_IT_number 15
_symmetry_cell_setting 'monoclinic'
loop_
_space_group_symop_operation_xyz
x,y,z
-x,y,1/2-z
-x,-y,-z
x,-y,1/2+z
1/2+x,1/2+y,z
1/2-x,1/2+y,1/2-z
1/2-x,1/2-y,-z
1/2+x,1/2-y,1/2+z
loop_
_atom_site_type_symbol
_atom_site_label
_atom_site_fract_x
_atom_site_fract_y
_atom_site_fract_z
Si Si1 0.000000 0.138668 0.750000
Si Si2 0.233101 0.741488 0.084070
Si Si3 0.307279 0.979173 0.533597
Si Si4 0.440902 0.649965 0.885931
Si Si5 0.500000 0.931108 0.250000
Si Si6 0.433380 0.087928 0.470193
O O1 0.981212 0.181011 0.819825
O O2 0.740237 0.093413 0.629725
O O3 0.500000 0.750875 0.250000
O O4 0.043169 0.796209 0.038323
O O5 0.250000 0.750000 0.000000
O O6 0.154075 0.664602 0.064885
O O7 0.561758 0.943065 0.613196
O O8 0.120954 0.916261 0.465501
O O9 0.330392 0.020528 0.621572
O O10 0.276320 0.038517 0.455279
O O11 0.161460 0.616480 0.767367
#
# Coordination Sequence:
#
# PCOD9278281 Si02
#       6
#     4   8   8   8   4   8
#     4  10  20  42  69  95 140 186 236 292 374 422
#     4  12  26  46  72 102 149 192 241 293 370 436
#     4  10  23  38  66 100 134 172 239 293 354 417
#     4  11  23  41  69  99 135 187 232 301 354 433
#     4  12  20  40  65  95 132 176 230 286 362 412
#     4  10  22  43  65 101 136 188 232 296 359 431
#
# _framework density 22.295705000000002
#
# number of rings (size 3 to 8) (size 9 to 14) (size 15 to 20)
#    0.000    1.200    3.000    3.000    0.000    6.400 
#    3.600    2.000    0.000    0.000    0.000    0.000 
#    0.000    0.000    0.000    0.000    0.000    0.000 
#
# Total GULP energy -111488.890648 kJ/mol
# GULP energy per Si atom -5574.444532 kJ/mol
# Density = 2.224496 g / cm^3
# Si number density = 22.295705 Si / 1000 Ang^3
#
#
#
# Elastic Constant Matrix: (Units=GPa)
#
#
# Indices 1 2 3 4 5 6 
#
# 1 164.4715 67.8255 33.9624 0.0034 -28.3993 0.0046
# 2 67.8255 167.4970 23.4432 0.0094 2.5389 0.0110
# 3 33.9624 23.4432 48.8919 0.0213 -3.3576 0.0179
# 4 0.0034 0.0094 0.0213 -1.3995 -0.0024 3.5111
# 5 -28.3993 2.5389 -3.3576 -0.0024 30.9341 -0.0035
# 6 0.0046 0.0110 0.0179 3.5111 -0.0035 40.2228
#
#
#
# Elastic Compliance Matrix: (Units=1/GPa)
#
#
# Indices 1 2 3 4 5 6 
#
# 1 0.010073 -0.003562 -0.004669 -0.000065 0.009033 0.000008
# 2 -0.003562 0.007683 -0.001488 0.000020 -0.004063 -0.000003
# 3 -0.004669 -0.001488 0.024305 0.000268 -0.001526 -0.000033
# 4 -0.000065 0.000020 0.000268 -0.586183 -0.000072 0.051168
# 5 0.009033 -0.004063 -0.001526 -0.000072 0.040788 0.000011
# 6 0.000008 -0.000003 -0.000033 0.051168 0.000011 0.020395
#
#
# Mechanical properties :
#
#
# Convention : Reuss Voigt Hill
#
# Bulk Modulus (GPa) = 44.20426 70.14694 57.17560
# Shear Modulus (GPa) = -10.96585 30.99344 10.01380
#
# Velocity S-wave (km/s) = -2.22015 3.73246 2.12158
# Velocity P-wave (km/s) = 3.64655 7.07852 5.63040
#
# Compressibility (1/GPa) = 0.02262226
#
# Stress axis : x y z
#
# Youngs Moduli (GPa) = 99.27565 130.16315 41.14386
#
# Poissons Ratio (x) = 0.46369 0.19208
# Poissons Ratio (y) = 0.35366 0.06123
# Poissons Ratio (z) = 0.46348 0.19370
#
# Static dielectric constant tensor:
#      x y z
#    x 1.873130 0.000000 0.009030 
#    y 0.000000 1.827740 0.000000 
#    z 0.009030 0.000000 1.917440 
# 
# From -- ./inp_files/191904.got.cif
#   From: 2010.05.17/outbox.cif.g08.bks.cpg/sg15_96_cif.got.tgz:191904.got - 2010.06.03 18:47:42.
