data_PCOD9278609
_publ_section_title
;
Structure prediction by ZEFSAII (Michael W. Deem and Ramdas Pophale) SiO2 
 PCOD9278609
Probable space group: C 2/C
;
_chemical_formula_sum "Si O2"
_cell_formula_units_Z 56
_cell_length_a 8.848243
_cell_length_b 23.840412
_cell_length_c 13.810344
_cell_angle_alpha 90.000000
_cell_angle_beta 113.493500
_cell_angle_gamma 90.000000
_cell_volume 2671.741890
_symmetry_space_group_name_H-M "C 2/C"
_symmetry_group_IT_number 15
_symmetry_cell_setting 'monoclinic'
loop_
_space_group_symop_operation_xyz
x,y,z
-x,y,1/2-z
-x,-y,-z
x,-y,1/2+z
1/2+x,1/2+y,z
1/2-x,1/2+y,1/2-z
1/2-x,1/2-y,-z
1/2+x,1/2-y,1/2+z
loop_
_atom_site_type_symbol
_atom_site_label
_atom_site_fract_x
_atom_site_fract_y
_atom_site_fract_z
Si Si1 0.421025 0.934542 0.538520
Si Si2 0.771225 0.038547 0.025308
Si Si3 0.158004 0.129815 0.849436
Si Si4 0.659917 0.673238 0.206404
Si Si5 0.430584 0.648315 0.974586
Si Si6 0.000000 0.364561 0.750000
Si Si7 0.500000 0.433222 0.750000
Si Si8 0.319218 0.796311 0.222474
O O1 0.598093 0.948607 0.535679
O O2 0.313451 0.906435 0.424866
O O3 0.473212 0.900210 0.646190
O O4 0.290208 0.982074 0.542531
O O5 0.914746 0.031720 0.142956
O O6 0.844255 0.088461 0.977727
O O7 0.232414 0.177497 0.796508
O O8 0.000000 0.104746 0.750000
O O9 0.072260 0.146054 0.929086
O O10 0.839213 0.673023 0.207919
O O11 0.637086 0.612387 0.250814
O O12 0.661895 0.729709 0.267132
O O13 0.514871 0.672455 0.091494
O O14 0.291964 0.687696 0.896286
O O15 0.500000 0.821393 0.250000
#
# Coordination Sequence:
#
# PCOD9278609 Si02
#       8
#     8   8   8   8   8   4   4   8
#     4  11  23  44  64  98 127 177 216 274 332 383
#     4  10  23  42  68  92 131 171 222 271 330 387
#     4  10  23  42  63  96 135 167 219 266 329 392
#     4  11  23  41  67  92 131 175 217 271 332 385
#     4  10  23  44  63  96 130 169 219 271 323 398
#     4  12  24  42  66  96 138 164 222 278 322 400
#     4  10  20  44  64  98 128 170 226 270 318 402
#     4  11  24  42  66  97 130 175 218 269 329 389
#
# _framework density 20.96011
#
# number of rings (size 3 to 8) (size 9 to 14) (size 15 to 20)
#    0.000    1.429    3.571    0.857    4.000    2.857 
#   11.571    0.000    0.000    0.000    0.000    0.000 
#    0.000    0.000    0.000    0.000    0.000    0.000 
#
# Total GULP energy -155927.446908 kJ/mol
# GULP energy per Si atom -5568.837390 kJ/mol
# Density = 2.091240 g / cm^3
# Si number density = 20.960110 Si / 1000 Ang^3
#
#
#
# Elastic Constant Matrix: (Units=GPa)
#
#
# Indices 1 2 3 4 5 6 
#
# 1 103.7554 17.5836 15.8517 0.0000 16.8604 0.0000
# 2 17.5836 46.7785 32.5073 0.0000 13.8901 0.0000
# 3 15.8517 32.5073 101.4014 0.0000 20.8956 0.0000
# 4 0.0000 0.0000 0.0000 9.8395 0.0000 -15.4476
# 5 16.8604 13.8901 20.8956 0.0000 37.5019 0.0000
# 6 0.0000 0.0000 0.0000 -15.4476 0.0000 5.5429
#
#
#
# Elastic Compliance Matrix: (Units=1/GPa)
#
#
# Indices 1 2 3 4 5 6 
#
# 1 0.010743 -0.002950 0.000041 0.000000 -0.003760 0.000000
# 2 -0.002950 0.029546 -0.007941 0.000000 -0.005193 0.000000
# 3 0.000041 -0.007941 0.013329 0.000000 -0.004504 0.000000
# 4 0.000000 0.000000 0.000000 -0.030110 0.000000 -0.083914
# 5 -0.003760 -0.005193 -0.004504 0.000000 0.032789 0.000000
# 6 0.000000 0.000000 0.000000 -0.083914 0.000000 -0.053450
#
#
# Mechanical properties :
#
#
# Convention : Reuss Voigt Hill
#
# Bulk Modulus (GPa) = 31.32952 42.64673 36.98812
# Shear Modulus (GPa) = 142.10309 22.97640 82.53975
#
# Velocity S-wave (km/s) = 8.24282 3.31448 6.28211
# Velocity P-wave (km/s) = 10.27481 5.91933 8.38482
#
# Compressibility (1/GPa) = 0.03191878
#
# Stress axis : x y z
#
# Youngs Moduli (GPa) = 93.08604 33.84511 75.02342
#
# Poissons Ratio (x) = 0.09985 -0.00310
# Poissons Ratio (y) = 0.27463 0.59574
# Poissons Ratio (z) = -0.00384 0.26875
#
# Static dielectric constant tensor:
#      x y z
#    x 1.823920 0.000000 -0.033460 
#    y 0.000000 1.803830 0.000000 
#    z -0.033460 0.000000 1.748260 
# 
# From -- ./inp_files/137998.got.cif
#   From: 2010.05.17/outbox.cif.g08.bks.cpg/sg15_69_cif.got.tgz:137998.got - 2010.06.03 18:47:42.
