data_PCOD9278584
_publ_section_title
;
Structure prediction by ZEFSAII (Michael W. Deem and Ramdas Pophale) SiO2 
 PCOD9278584
Probable space group: C 2/C
;
_chemical_formula_sum "Si O2"
_cell_formula_units_Z 52
_cell_length_a 4.986208
_cell_length_b 29.398856
_cell_length_c 13.791108
_cell_angle_alpha 90.000000
_cell_angle_beta 98.785271
_cell_angle_gamma 90.000000
_cell_volume 1997.903800
_symmetry_space_group_name_H-M "C 2/C"
_symmetry_group_IT_number 15
_symmetry_cell_setting 'monoclinic'
loop_
_space_group_symop_operation_xyz
x,y,z
-x,y,1/2-z
-x,-y,-z
x,-y,1/2+z
1/2+x,1/2+y,z
1/2-x,1/2+y,1/2-z
1/2-x,1/2-y,-z
1/2+x,1/2-y,1/2+z
loop_
_atom_site_type_symbol
_atom_site_label
_atom_site_fract_x
_atom_site_fract_y
_atom_site_fract_z
Si Si1 0.502098 0.863031 0.034187
Si Si2 0.385861 0.436598 0.134961
Si Si3 0.008797 0.198214 0.969128
Si Si4 0.388352 0.016228 0.632503
Si Si5 0.000000 0.851451 0.750000
Si Si6 0.676461 0.914360 0.856818
Si Si7 0.302886 0.734081 0.161680
O O1 0.697037 0.892197 0.116553
O O2 0.212143 0.843224 0.049916
O O3 0.687642 0.819321 0.020308
O O4 0.517918 0.893370 0.938096
O O5 0.500000 0.439874 0.250000
O O6 0.664629 0.445871 0.092688
O O7 0.172714 0.476273 0.094737
O O8 0.940913 0.233738 0.880596
O O9 0.951753 0.221605 0.069330
O O10 0.500000 0.021579 0.750000
O O11 0.257426 0.966714 0.619694
O O12 0.921662 0.882153 0.837013
O O13 0.764033 0.815636 0.707786
O O14 0.500000 0.915008 0.750000
O O15 0.500000 0.758065 0.250000
#
# Coordination Sequence:
#
# PCOD9278584 Si02
#       7
#     8   8   8   8   4   8   8
#     4  12  25  41  67  93 131 168 217 257 315 381
#     4  10  22  42  61  92 128 173 211 261 307 377
#     4  11  24  43  63  97 126 169 210 265 316 378
#     4   9  21  38  64  90 127 167 211 260 321 363
#     4  10  20  44  62  96 120 168 204 264 322 378
#     4  11  24  38  67  95 129 164 212 268 320 384
#     4   9  21  43  67  92 132 163 212 265 325 379
#
# _framework density 26.027280999999999
#
# number of rings (size 3 to 8) (size 9 to 14) (size 15 to 20)
#    0.462    1.231    1.538    1.846    5.385    4.923 
#    2.769    1.538    0.000    0.000    0.000    0.000 
#    0.000    0.000    0.000    0.000    0.000    0.000 
#
# Total GULP energy -145353.965417 kJ/mol
# GULP energy per Si atom -5590.537131 kJ/mol
# Density = 2.596804 g / cm^3
# Si number density = 26.027281 Si / 1000 Ang^3
#
#
#
# Elastic Constant Matrix: (Units=GPa)
#
#
# Indices 1 2 3 4 5 6 
#
# 1 114.2091 30.7192 19.1227 0.0000 5.4148 0.0000
# 2 30.7192 114.3202 24.4436 0.0000 10.1189 0.0000
# 3 19.1227 24.4436 93.9953 0.0000 19.1233 0.0000
# 4 0.0000 0.0000 0.0000 28.2810 0.0000 13.4556
# 5 5.4148 10.1189 19.1233 0.0000 21.0579 0.0000
# 6 0.0000 0.0000 0.0000 13.4556 0.0000 33.8938
#
#
#
# Elastic Compliance Matrix: (Units=1/GPa)
#
#
# Indices 1 2 3 4 5 6 
#
# 1 0.009599 -0.002281 -0.001325 0.000000 -0.000169 0.000000
# 2 -0.002281 0.009939 -0.001556 0.000000 -0.002777 0.000000
# 3 -0.001325 -0.001556 0.013605 0.000000 -0.011267 0.000000
# 4 0.000000 0.000000 0.000000 0.043593 0.000000 -0.017306
# 5 -0.000169 -0.002777 -0.011267 0.000000 0.059097 0.000000
# 6 0.000000 0.000000 0.000000 -0.017306 0.000000 0.036374
#
#
# Mechanical properties :
#
#
# Convention : Reuss Voigt Hill
#
# Bulk Modulus (GPa) = 43.82312 52.34396 48.08354
# Shear Modulus (GPa) = 26.29654 33.19583 29.74619
#
# Velocity S-wave (km/s) = 3.18204 3.57518 3.38433
# Velocity P-wave (km/s) = 5.51130 6.09897 5.81257
#
# Compressibility (1/GPa) = 0.02281900
#
# Stress axis : x y z
#
# Youngs Moduli (GPa) = 104.17368 100.61670 73.50100
#
# Poissons Ratio (x) = 0.22952 0.09742
# Poissons Ratio (y) = 0.23764 0.11434
# Poissons Ratio (z) = 0.13807 0.15652
#
# Static dielectric constant tensor:
#      x y z
#    x 2.043850 0.000000 0.003920 
#    y 0.000000 2.082650 0.000000 
#    z 0.003920 0.000000 2.069450 
# 
# From -- ./inp_files/130878.got.cif
#   From: 2010.05.17/outbox.cif.g08.bks.cpg/sg15_66_cif.got.tgz:130878.got - 2010.06.03 18:47:42.
