data_PCOD9278803
_publ_section_title
;
Structure prediction by ZEFSAII (Michael W. Deem and Ramdas Pophale) SiO2 
 PCOD9278803
Probable space group: C 2/C
;
_chemical_formula_sum "Si O2"
_cell_formula_units_Z 60
_cell_length_a 20.588574
_cell_length_b 8.155770
_cell_length_c 17.867268
_cell_angle_alpha 90.000000
_cell_angle_beta 122.800677
_cell_angle_gamma 90.000000
_cell_volume 2521.843972
_symmetry_space_group_name_H-M "C 2/C"
_symmetry_group_IT_number 15
_symmetry_cell_setting 'monoclinic'
loop_
_space_group_symop_operation_xyz
x,y,z
-x,y,1/2-z
-x,-y,-z
x,-y,1/2+z
1/2+x,1/2+y,z
1/2-x,1/2+y,1/2-z
1/2-x,1/2-y,-z
1/2+x,1/2-y,1/2+z
loop_
_atom_site_type_symbol
_atom_site_label
_atom_site_fract_x
_atom_site_fract_y
_atom_site_fract_z
Si Si1 0.183846 0.314090 0.220761
Si Si2 0.232792 0.002573 0.348468
Si Si3 0.014736 0.141755 0.909362
Si Si4 0.987014 0.762131 0.931541
Si Si5 0.681382 0.563624 0.979008
Si Si6 0.166091 0.513496 0.354723
Si Si7 0.000000 0.682633 0.250000
Si Si8 0.855872 0.308362 0.021758
O O1 0.199037 0.146077 0.275041
O O2 0.243793 0.355824 0.192378
O O3 0.097885 0.303731 0.134153
O O4 0.185167 0.459306 0.282972
O O5 0.181661 0.955619 0.389074
O O6 0.309109 0.078806 0.435550
O O7 0.984207 0.207561 0.812797
O O8 0.107694 0.162019 0.961408
O O9 0.988895 0.237461 0.966655
O O10 0.991932 0.952054 0.907638
O O11 0.053041 0.666609 0.929096
O O12 0.664750 0.381507 0.002508
O O13 0.764042 0.615990 0.063896
O O14 0.079980 0.583404 0.308594
O O15 0.167286 0.353247 0.408682
#
# Coordination Sequence:
#
# PCOD9278803 Si02
#       8
#     8   8   8   8   8   8   4   8
#     4  12  26  42  69 105 139 179 232 288 346 413
#     4  11  25  41  69 103 134 183 231 288 344 409
#     4  10  26  46  65  99 138 186 228 289 341 415
#     4  10  25  44  69  96 139 181 232 281 356 403
#     4  10  21  47  72  90 134 188 232 274 348 419
#     4  11  23  43  67 104 136 175 232 286 340 411
#     4  12  28  40  68 106 142 180 230 290 348 406
#     4  10  20  46  74  91 133 182 232 282 343 422
#
# _framework density 23.792116
#
# number of rings (size 3 to 8) (size 9 to 14) (size 15 to 20)
#    0.000    1.333    2.667    1.600    9.333    3.200 
#    0.000    0.000    0.000    0.000    0.000    0.000 
#    0.000    0.000    0.000    0.000    0.000    0.000 
#
# Total GULP energy -167954.856827 kJ/mol
# GULP energy per Si atom -5598.495228 kJ/mol
# Density = 2.373796 g / cm^3
# Si number density = 23.792116 Si / 1000 Ang^3
#
#
#
# Elastic Constant Matrix: (Units=GPa)
#
#
# Indices 1 2 3 4 5 6 
#
# 1 80.7931 4.9313 8.6818 0.0000 -14.1261 0.0000
# 2 4.9313 39.8983 19.5875 0.0000 -7.4559 0.0000
# 3 8.6818 19.5875 96.2500 0.0000 -17.5353 0.0000
# 4 0.0000 0.0000 0.0000 26.0255 0.0000 -1.2426
# 5 -14.1261 -7.4559 -17.5353 0.0000 44.5190 0.0000
# 6 0.0000 0.0000 0.0000 -1.2426 0.0000 25.1094
#
#
#
# Elastic Compliance Matrix: (Units=1/GPa)
#
#
# Indices 1 2 3 4 5 6 
#
# 1 0.013142 -0.000734 -0.000322 0.000000 0.003920 0.000000
# 2 -0.000734 0.028173 -0.005225 0.000000 0.002428 0.000000
# 3 -0.000322 -0.005225 0.012178 0.000000 0.003819 0.000000
# 4 0.000000 0.000000 0.000000 0.038515 0.000000 0.001906
# 5 0.003920 0.002428 0.003819 0.000000 0.025617 0.000000
# 6 0.000000 0.000000 0.000000 0.001906 0.000000 0.039920
#
#
# Mechanical properties :
#
#
# Convention : Reuss Voigt Hill
#
# Bulk Modulus (GPa) = 24.43076 31.48250 27.95663
# Shear Modulus (GPa) = 27.21083 31.38017 29.29550
#
# Velocity S-wave (km/s) = 3.38552 3.63565 3.51281
# Velocity P-wave (km/s) = 5.05698 5.55743 5.31310
#
# Compressibility (1/GPa) = 0.04093201
#
# Stress axis : x y z
#
# Youngs Moduli (GPa) = 76.09124 35.49474 82.11662
#
# Poissons Ratio (x) = 0.02604 0.02643
# Poissons Ratio (y) = 0.05583 0.42906
# Poissons Ratio (z) = 0.02449 0.18546
#
# Static dielectric constant tensor:
#      x y z
#    x 1.857650 0.000000 0.016410 
#    y 0.000000 1.940560 0.000000 
#    z 0.016410 0.000000 1.873290 
# 
# From -- ./inp_files/214317.got.cif
#   From: 2010.05.17/outbox.cif.g08.bks.cpg/sg15_108_cif.got.tgz:214317.got - 2010.06.03 18:47:42.
