data_PCOD9278413
_publ_section_title
;
Structure prediction by ZEFSAII (Michael W. Deem and Ramdas Pophale) SiO2 
 PCOD9278413
Probable space group: C 2/C
;
_chemical_formula_sum "Si O2"
_cell_formula_units_Z 48
_cell_length_a 23.471771
_cell_length_b 10.016437
_cell_length_c 26.332361
_cell_angle_alpha 90.000000
_cell_angle_beta 160.247829
_cell_angle_gamma 90.000000
_cell_volume 2092.205950
_symmetry_space_group_name_H-M "C 2/C"
_symmetry_group_IT_number 15
_symmetry_cell_setting 'monoclinic'
loop_
_space_group_symop_operation_xyz
x,y,z
-x,y,1/2-z
-x,-y,-z
x,-y,1/2+z
1/2+x,1/2+y,z
1/2-x,1/2+y,1/2-z
1/2-x,1/2-y,-z
1/2+x,1/2-y,1/2+z
loop_
_atom_site_type_symbol
_atom_site_label
_atom_site_fract_x
_atom_site_fract_y
_atom_site_fract_z
Si Si1 0.626874 0.395739 0.435711
Si Si2 0.000000 0.104533 0.250000
Si Si3 0.299480 0.183375 0.431483
Si Si4 0.000000 0.317174 0.750000
Si Si5 0.577776 0.539112 0.487263
Si Si6 0.880791 0.478655 0.317006
Si Si7 0.265416 0.308837 0.744032
O O1 0.602059 0.511520 0.374152
O O2 0.824690 0.389148 0.614390
O O3 0.551290 0.269433 0.342668
O O4 0.531156 0.426832 0.407739
O O5 0.136886 0.175910 0.330032
O O6 0.378630 0.327534 0.507957
O O7 0.440318 0.068343 0.556125
O O8 0.260205 0.180038 0.338179
O O9 0.742211 0.503294 0.656955
O O10 0.423871 0.595827 0.391055
O O11 0.884636 0.614544 0.353013
O O12 0.815061 0.346257 0.293449
#
# Coordination Sequence:
#
# PCOD9278413 Si02
#       7
#     8   4   8   4   8   8   8
#     4  10  21  41  61  85 126 166 214 266 323 381
#     4  11  22  39  64  94 126 171 206 265 330 388
#     4  10  22  39  63  95 132 165 215 268 325 386
#     4   9  22  41  60  84 126 171 214 275 308 390
#     4  10  21  39  62  92 128 162 211 273 325 386
#     4  10  22  39  65  93 130 170 218 271 325 387
#     4  10  20  43  61  93 129 171 216 275 321 389
#
# _framework density 22.942292999999999
#
# number of rings (size 3 to 8) (size 9 to 14) (size 15 to 20)
#    0.000    2.000    1.667    1.000    2.333    1.333 
#    3.000    0.000    0.000    0.000    0.000    0.000 
#    0.000    0.000    0.000    0.000    0.000    0.000 
#
# Total GULP energy -133937.792519 kJ/mol
# GULP energy per Si atom -5580.741355 kJ/mol
# Density = 2.289008 g / cm^3
# Si number density = 22.942293 Si / 1000 Ang^3
#
#
#
# Elastic Constant Matrix: (Units=GPa)
#
#
# Indices 1 2 3 4 5 6 
#
# 1 68.9268 30.6922 18.0988 0.0185 11.8939 -0.0034
# 2 30.6922 44.3163 6.1652 -0.0475 8.3661 0.0158
# 3 18.0988 6.1652 93.6478 -0.0276 -2.9904 0.0065
# 4 0.0185 -0.0475 -0.0276 31.0374 -0.0042 5.2635
# 5 11.8939 8.3661 -2.9904 -0.0042 38.2203 0.0016
# 6 -0.0034 0.0158 0.0065 5.2635 0.0016 21.0035
#
#
#
# Elastic Compliance Matrix: (Units=1/GPa)
#
#
# Indices 1 2 3 4 5 6 
#
# 1 0.022537 -0.014331 -0.003545 -0.000044 -0.004154 0.000027
# 2 -0.014331 0.032930 0.000515 0.000066 -0.002708 -0.000044
# 3 -0.003545 0.000515 0.011390 0.000015 0.001881 -0.000008
# 4 -0.000044 0.000066 0.000015 0.033649 0.000004 -0.008433
# 5 -0.004154 -0.002708 0.001881 0.000004 0.028197 -0.000002
# 6 0.000027 -0.000044 -0.000008 -0.008433 -0.000002 0.049724
#
#
# Mechanical properties :
#
#
# Convention : Reuss Voigt Hill
#
# Bulk Modulus (GPa) = 31.11842 35.20036 33.15939
# Shear Modulus (GPa) = 22.33529 28.18122 25.25825
#
# Velocity S-wave (km/s) = 3.12355 3.50859 3.32165
# Velocity P-wave (km/s) = 5.15771 5.63825 5.40333
#
# Compressibility (1/GPa) = 0.03213531
#
# Stress axis : x y z
#
# Youngs Moduli (GPa) = 44.37082 30.36729 87.79970
#
# Poissons Ratio (x) = 0.43521 0.31124
# Poissons Ratio (y) = 0.63590 -0.04525
# Poissons Ratio (z) = 0.15729 -0.01565
#
# Static dielectric constant tensor:
#      x y z
#    x 1.995050 -0.000020 0.156560 
#    y -0.000020 1.880460 -0.000040 
#    z 0.156560 -0.000040 2.080400 
# 
# From -- ./inp_files/60560.got.cif
#   From: 2010.05.17/outbox.cif.g08.bks.cpg/sg15_31_cif.got.tgz:60560.got - 2010.06.03 18:47:42.
