data_PCOD9278562
_publ_section_title
;
Structure prediction by ZEFSAII (Michael W. Deem and Ramdas Pophale) SiO2 
 PCOD9278562
Probable space group: C 2/C
;
_chemical_formula_sum "Si O2"
_cell_formula_units_Z 48
_cell_length_a 12.623413
_cell_length_b 30.266143
_cell_length_c 16.273416
_cell_angle_alpha 90.000000
_cell_angle_beta 25.849173
_cell_angle_gamma 90.000000
_cell_volume 2710.832557
_symmetry_space_group_name_H-M "C 2/C"
_symmetry_group_IT_number 15
_symmetry_cell_setting 'monoclinic'
loop_
_space_group_symop_operation_xyz
x,y,z
-x,y,1/2-z
-x,-y,-z
x,-y,1/2+z
1/2+x,1/2+y,z
1/2-x,1/2+y,1/2-z
1/2-x,1/2-y,-z
1/2+x,1/2-y,1/2+z
loop_
_atom_site_type_symbol
_atom_site_label
_atom_site_fract_x
_atom_site_fract_y
_atom_site_fract_z
Si Si1 0.982285 0.369790 0.596535
Si Si2 0.238954 0.298564 0.643629
Si Si3 0.000000 0.414157 0.750000
Si Si4 0.500000 0.479334 0.750000
Si Si5 0.982855 0.550180 0.976443
Si Si6 0.653389 0.698679 0.726868
Si Si7 0.989561 0.032610 0.929503
O O1 0.090933 0.386880 0.607373
O O2 0.922333 0.413692 0.587911
O O3 0.156892 0.340079 0.419102
O O4 0.787706 0.334516 0.766224
O O5 0.469841 0.309551 0.428161
O O6 0.258336 0.248228 0.661414
O O7 0.000000 0.299249 0.750000
O O8 0.237634 0.440887 0.612135
O O9 0.480899 0.508439 0.846402
O O10 0.749615 0.451775 0.580367
O O11 0.252486 0.558666 0.752174
O O12 0.000000 0.500000 0.000000
O O13 0.500000 0.699791 0.750000
O O14 0.000000 0.000000 0.000000
#
# Coordination Sequence:
#
# PCOD9278562 Si02
#       7
#     8   8   4   4   8   8   8
#     4  12  23  34  54  85 114 158 198 238 300 371
#     4  11  19  33  51  77 116 158 189 240 304 363
#     4  12  22  32  52  84 121 148 199 252 286 358
#     4  10  20  44  58  76 119 152 191 268 304 334
#     4  10  23  39  57  81 114 153 200 244 293 349
#     4  11  19  33  51  76 118 156 191 240 303 363
#     4  11  22  38  60  83 111 163 208 248 302 353
#
# _framework density 17.706737
#
# number of rings (size 3 to 8) (size 9 to 14) (size 15 to 20)
#    0.000    1.000    4.167    6.000    4.667    0.000 
#    0.000    0.000    0.000    0.000    0.000    1.167 
#    0.000    0.000    0.000    0.000    0.000    0.000 
#
# Total GULP energy -133767.370847 kJ/mol
# GULP energy per Si atom -5573.640452 kJ/mol
# Density = 1.766644 g / cm^3
# Si number density = 17.706737 Si / 1000 Ang^3
#
#
#
# Elastic Constant Matrix: (Units=GPa)
#
#
# Indices 1 2 3 4 5 6 
#
# 1 64.1591 34.8733 36.8688 0.0000 -1.3083 0.0001
# 2 34.8733 111.0740 46.5766 0.0000 3.5089 0.0000
# 3 36.8688 46.5766 151.8291 0.0003 3.9164 -0.0002
# 4 0.0000 0.0000 0.0003 33.7612 -0.0001 13.8272
# 5 -1.3083 3.5089 3.9164 -0.0001 31.6063 0.0000
# 6 0.0001 0.0000 -0.0002 13.8272 0.0000 25.9201
#
#
#
# Elastic Compliance Matrix: (Units=1/GPa)
#
#
# Indices 1 2 3 4 5 6 
#
# 1 0.020318 -0.004990 -0.003450 0.000000 0.001823 0.000000
# 2 -0.004990 0.011576 -0.002308 0.000000 -0.001206 0.000000
# 3 -0.003450 -0.002308 0.008155 0.000000 -0.000897 0.000000
# 4 0.000000 0.000000 0.000000 0.037900 0.000000 -0.020218
# 5 0.001823 -0.001206 -0.000897 0.000000 0.031960 0.000000
# 6 0.000000 0.000000 0.000000 -0.020218 0.000000 0.049366
#
#
# Mechanical properties :
#
#
# Convention : Reuss Voigt Hill
#
# Bulk Modulus (GPa) = 53.90087 62.63327 58.26707
# Shear Modulus (GPa) = 26.74427 32.17376 29.45902
#
# Velocity S-wave (km/s) = 3.89060 4.26729 4.08330
# Velocity P-wave (km/s) = 7.11965 7.72846 7.43029
#
# Compressibility (1/GPa) = 0.01855258
#
# Stress axis : x y z
#
# Youngs Moduli (GPa) = 49.21657 86.38780 122.61835
#
# Poissons Ratio (x) = 0.43108 0.42305
# Poissons Ratio (y) = 0.24559 0.28303
# Poissons Ratio (z) = 0.16980 0.19940
#
# Static dielectric constant tensor:
#      x y z
#    x 1.595900 0.000000 -0.005950 
#    y 0.000000 1.666310 0.000000 
#    z -0.005950 0.000000 1.655250 
# 
# From -- ./inp_files/149120.got.cif
#   From: 2010.05.17/outbox.cif.g08.bks.cpg/sg15_75_cif.got.tgz:149120.got - 2010.06.03 18:47:42.
