data_PCOD9278046
_publ_section_title
;
Structure prediction by ZEFSAII (Michael W. Deem and Ramdas Pophale) SiO2 
 PCOD9278046
Probable space group: C 2/C
;
_chemical_formula_sum "Si O2"
_cell_formula_units_Z 60
_cell_length_a 21.302860
_cell_length_b 12.559996
_cell_length_c 23.960680
_cell_angle_alpha 90.000000
_cell_angle_beta 152.076664
_cell_angle_gamma 90.000000
_cell_volume 3002.210791
_symmetry_space_group_name_H-M "C 2/C"
_symmetry_group_IT_number 15
_symmetry_cell_setting 'monoclinic'
loop_
_space_group_symop_operation_xyz
x,y,z
-x,y,1/2-z
-x,-y,-z
x,-y,1/2+z
1/2+x,1/2+y,z
1/2-x,1/2+y,1/2-z
1/2-x,1/2-y,-z
1/2+x,1/2-y,1/2+z
loop_
_atom_site_type_symbol
_atom_site_label
_atom_site_fract_x
_atom_site_fract_y
_atom_site_fract_z
Si Si1 0.708755 0.354356 0.934172
Si Si2 0.384147 0.058639 0.073150
Si Si3 0.919107 0.667068 0.931352
Si Si4 0.421378 0.592066 0.403903
Si Si5 0.500000 0.192575 0.250000
Si Si6 0.559144 0.417746 0.713853
Si Si7 0.108949 0.465031 0.664711
Si Si8 0.319872 0.649926 0.674051
O O1 0.659409 0.344910 0.830731
O O2 0.584044 0.402369 0.870303
O O3 0.750000 0.250000 0.000000
O O4 0.825582 0.440790 0.027456
O O5 0.391167 0.115468 0.137504
O O6 0.530591 0.051539 0.160694
O O7 0.287485 0.130760 0.959352
O O8 0.958825 0.788931 0.953017
O O9 0.906001 0.587160 0.868452
O O10 0.772309 0.671922 0.844915
O O11 0.026264 0.608076 0.055654
O O12 0.500000 0.500000 0.500000
O O13 0.444622 0.596004 0.355335
O O14 0.263103 0.568593 0.287648
O O15 0.570532 0.265319 0.258895
O O16 0.608414 0.537464 0.761923
#
# Coordination Sequence:
#
# PCOD9278046 Si02
#       8
#     8   8   8   8   4   8   8   8
#     4  10  23  43  65  93 127 180 225 273 341 404
#     4  10  23  39  62  95 126 165 220 265 327 404
#     4  10  23  42  70  93 132 181 225 282 347 415
#     4  12  27  42  68 106 135 177 233 288 346 424
#     4  12  22  34  64  98 130 162 204 282 326 390
#     4  10  23  44  64  92 133 176 223 278 336 420
#     4  10  23  45  67  96 135 179 225 274 354 415
#     4  10  20  42  65  88 127 175 212 261 342 406
#
# _framework density 19.985272999999999
#
# number of rings (size 3 to 8) (size 9 to 14) (size 15 to 20)
#    0.000    1.600    1.333    2.800    5.600    5.333 
#    0.000    0.000    0.000    0.000    0.000    0.000 
#    0.000    0.000    0.000    0.000    0.000    0.000 
#
# Total GULP energy -167471.028316 kJ/mol
# GULP energy per Si atom -5582.367611 kJ/mol
# Density = 1.993979 g / cm^3
# Si number density = 19.985273 Si / 1000 Ang^3
#
#
#
# Elastic Constant Matrix: (Units=GPa)
#
#
# Indices 1 2 3 4 5 6 
#
# 1 73.2992 42.1893 41.4918 -0.0001 -0.0105 0.0000
# 2 42.1893 98.6901 32.0958 -0.0002 -16.2577 -0.0001
# 3 41.4918 32.0958 61.3464 -0.0005 6.0700 -0.0001
# 4 -0.0001 -0.0002 -0.0005 7.6297 -0.0002 -1.4333
# 5 -0.0105 -16.2577 6.0700 -0.0002 31.5187 -0.0001
# 6 0.0000 -0.0001 -0.0001 -1.4333 -0.0001 17.5749
#
#
#
# Elastic Compliance Matrix: (Units=1/GPa)
#
#
# Indices 1 2 3 4 5 6 
#
# 1 0.024942 -0.006405 -0.013449 -0.000001 -0.000705 0.000000
# 2 -0.006405 0.015995 -0.004947 0.000000 0.009201 0.000000
# 3 -0.013449 -0.004947 0.028787 0.000002 -0.008100 0.000000
# 4 -0.000001 0.000000 0.000002 0.133106 0.000001 0.010855
# 5 -0.000705 0.009201 -0.008100 0.000001 0.038033 0.000000
# 6 0.000000 0.000000 0.000000 0.010855 0.000000 0.057784
#
#
# Mechanical properties :
#
#
# Convention : Reuss Voigt Hill
#
# Bulk Modulus (GPa) = 49.69545 51.65437 50.67491
# Shear Modulus (GPa) = 14.08623 19.18192 16.63407
#
# Velocity S-wave (km/s) = 2.65774 3.10143 2.88812
# Velocity P-wave (km/s) = 5.85988 6.22314 6.04424
#
# Compressibility (1/GPa) = 0.02012257
#
# Stress axis : x y z
#
# Youngs Moduli (GPa) = 40.09310 62.51788 34.73821
#
# Poissons Ratio (x) = 0.40042 0.46719
# Poissons Ratio (y) = 0.25679 0.17185
# Poissons Ratio (z) = 0.53920 0.30928
#
# Static dielectric constant tensor:
#      x y z
#    x 1.693030 0.000000 0.004730 
#    y 0.000000 1.697460 0.000000 
#    z 0.004730 0.000000 1.703760 
# 
# From -- ./inp_files/280090.got.cif
#   From: 2010.05.17/outbox.cif.g08.bks.cpg/sg15_141_cif.got.tgz:280090.got - 2010.06.03 18:47:42.
