data_PCOD9278113
_publ_section_title
;
Structure prediction by ZEFSAII (Michael W. Deem and Ramdas Pophale) SiO2 
 PCOD9278113
Probable space group: C 2/C
;
_chemical_formula_sum "Si O2"
_cell_formula_units_Z 56
_cell_length_a 15.446711
_cell_length_b 20.385920
_cell_length_c 9.196318
_cell_angle_alpha 90.000000
_cell_angle_beta 86.609404
_cell_angle_gamma 90.000000
_cell_volume 2890.809276
_symmetry_space_group_name_H-M "C 2/C"
_symmetry_group_IT_number 15
_symmetry_cell_setting 'monoclinic'
loop_
_space_group_symop_operation_xyz
x,y,z
-x,y,1/2-z
-x,-y,-z
x,-y,1/2+z
1/2+x,1/2+y,z
1/2-x,1/2+y,1/2-z
1/2-x,1/2-y,-z
1/2+x,1/2-y,1/2+z
loop_
_atom_site_type_symbol
_atom_site_label
_atom_site_fract_x
_atom_site_fract_y
_atom_site_fract_z
Si Si1 0.093732 0.726090 0.658051
Si Si2 0.443833 0.456129 0.111612
Si Si3 0.284191 0.556517 0.152519
Si Si4 0.907965 0.576064 0.838539
Si Si5 0.823772 0.792096 0.581555
Si Si6 0.323744 0.993615 0.594476
Si Si7 0.485742 0.307283 0.079786
O O1 0.118749 0.650761 0.637500
O O2 0.160273 0.759969 0.761891
O O3 0.000000 0.728438 0.750000
O O4 0.077422 0.759724 0.504475
O O5 0.500000 0.451922 0.250000
O O6 0.357802 0.499282 0.149275
O O7 0.445258 0.380471 0.058423
O O8 0.500000 0.500000 0.000000
O O9 0.306793 0.630888 0.109828
O O10 0.238765 0.556745 0.315180
O O11 0.224436 0.533865 0.024849
O O12 0.849503 0.540435 0.724239
O O13 0.000000 0.574260 0.750000
O O14 0.900336 0.541187 0.996061
O O15 0.750000 0.750000 0.500000
O O16 0.917498 0.794484 0.492522
O O17 0.500000 0.296748 0.250000
#
# Coordination Sequence:
#
# PCOD9278113 Si02
#       7
#     8   8   8   8   8   8   8
#     4   9  21  40  64  87 125 166 210 261 315 388
#     4  11  22  36  62  90 124 169 216 261 310 380
#     4  11  23  38  59  89 130 165 205 268 323 372
#     4  10  20  42  66  91 119 164 210 265 322 380
#     4  11  23  40  62  90 129 172 211 263 326 381
#     4  10  23  38  61  93 125 155 212 264 319 381
#     4  10  23  41  62  94 126 169 221 264 314 386
#
# _framework density 19.371739000000002
#
# number of rings (size 3 to 8) (size 9 to 14) (size 15 to 20)
#    0.000    1.714    1.429    2.143    6.000    1.143 
#    0.000    5.000    0.000    0.000    0.000    0.000 
#    0.000    0.000    0.000    0.000    0.000    0.000 
#
# Total GULP energy -155928.809133 kJ/mol
# GULP energy per Si atom -5568.886040 kJ/mol
# Density = 1.932765 g / cm^3
# Si number density = 19.371739 Si / 1000 Ang^3
#
#
#
# Elastic Constant Matrix: (Units=GPa)
#
#
# Indices 1 2 3 4 5 6 
#
# 1 59.0743 40.4190 28.1854 0.0000 -0.8642 0.0000
# 2 40.4190 142.1129 69.1603 0.0000 11.4327 0.0000
# 3 28.1854 69.1603 124.9137 0.0000 -2.3759 0.0000
# 4 0.0000 0.0000 0.0000 32.6497 0.0000 8.6107
# 5 -0.8642 11.4327 -2.3759 0.0000 32.8252 0.0000
# 6 0.0000 0.0000 0.0000 8.6107 0.0000 18.7088
#
#
#
# Elastic Compliance Matrix: (Units=1/GPa)
#
#
# Indices 1 2 3 4 5 6 
#
# 1 0.021543 -0.005435 -0.001808 0.000000 0.002329 0.000000
# 2 -0.005435 0.011486 -0.005219 0.000000 -0.004521 0.000000
# 3 -0.001808 -0.005219 0.011352 0.000000 0.002592 0.000000
# 4 0.000000 0.000000 0.000000 0.034859 0.000000 -0.016044
# 5 0.002329 -0.004521 0.002592 0.000000 0.032288 0.000000
# 6 0.000000 0.000000 0.000000 -0.016044 0.000000 0.060835
#
#
# Mechanical properties :
#
#
# Convention : Reuss Voigt Hill
#
# Bulk Modulus (GPa) = 51.39198 66.84780 59.11989
# Shear Modulus (GPa) = 24.53714 29.39248 26.96481
#
# Velocity S-wave (km/s) = 3.56286 3.89946 3.73495
# Velocity P-wave (km/s) = 6.59638 7.40657 7.01318
#
# Compressibility (1/GPa) = 0.01945829
#
# Stress axis : x y z
#
# Youngs Moduli (GPa) = 46.41905 87.06200 88.08772
#
# Poissons Ratio (x) = 0.47317 0.15922
# Poissons Ratio (y) = 0.25228 0.45974
# Poissons Ratio (z) = 0.08390 0.45439
#
# Static dielectric constant tensor:
#      x y z
#    x 1.740000 0.000000 -0.042760 
#    y 0.000000 1.698160 0.000000 
#    z -0.042760 0.000000 1.553790 
# 
# From -- ./inp_files/41266.got.cif
#   From: 2010.05.17/outbox.cif.g08.bks.cpg/sg15_21_cif.got.tgz:41266.got - 2010.06.03 18:47:42.
