data_PCOD9278175
_publ_section_title
;
Structure prediction by ZEFSAII (Michael W. Deem and Ramdas Pophale) SiO2 
 PCOD9278175
Probable space group: C 2/C
;
_chemical_formula_sum "Si O2"
_cell_formula_units_Z 60
_cell_length_a 18.307491
_cell_length_b 24.776511
_cell_length_c 12.496620
_cell_angle_alpha 90.000000
_cell_angle_beta 149.404976
_cell_angle_gamma 90.000000
_cell_volume 2885.033616
_symmetry_space_group_name_H-M "C 2/C"
_symmetry_group_IT_number 15
_symmetry_cell_setting 'monoclinic'
loop_
_space_group_symop_operation_xyz
x,y,z
-x,y,1/2-z
-x,-y,-z
x,-y,1/2+z
1/2+x,1/2+y,z
1/2-x,1/2+y,1/2-z
1/2-x,1/2-y,-z
1/2+x,1/2-y,1/2+z
loop_
_atom_site_type_symbol
_atom_site_label
_atom_site_fract_x
_atom_site_fract_y
_atom_site_fract_z
Si Si1 0.631423 0.021758 0.833874
Si Si2 0.404810 0.194127 0.362482
Si Si3 0.919922 0.841611 0.758340
Si Si4 0.387674 0.454668 0.817692
Si Si5 0.273276 0.921812 0.666692
Si Si6 0.083666 0.785055 0.524511
Si Si7 0.397192 0.140600 0.720816
Si Si8 0.500000 0.625266 0.750000
O O1 0.500000 0.015478 0.750000
O O2 0.639465 0.972888 0.762270
O O3 0.619935 0.079310 0.758918
O O4 0.775080 0.023952 0.087758
O O5 0.359158 0.134060 0.270106
O O6 0.253991 0.219791 0.213928
O O7 0.484384 0.233040 0.379337
O O8 0.525969 0.181501 0.603459
O O9 0.958095 0.901671 0.851163
O O10 0.939960 0.801411 0.882013
O O11 0.753993 0.841377 0.515785
O O12 0.000000 0.828578 0.750000
O O13 0.293873 0.432803 0.800413
O O14 0.500000 0.500000 0.000000
O O15 0.138411 0.912094 0.418197
O O16 0.026284 0.834962 0.382195
O O17 0.500000 0.134556 0.750000
#
# Coordination Sequence:
#
# PCOD9278175 Si02
#       8
#     8   8   8   8   8   8   8   4
#     4  10  23  39  63 100 131 174 220 267 333 412
#     4  11  24  44  67  94 131 178 225 276 333 402
#     4  11  24  42  64 105 134 164 225 282 335 397
#     4  11  23  40  67  97 134 177 223 269 334 406
#     4  11  22  44  66  96 136 181 218 269 344 391
#     4  11  25  45  68  98 125 179 231 276 342 386
#     4  10  20  42  67  90 139 173 206 282 340 399
#     4  10  22  46  72  86 136 178 222 282 322 402
#
# _framework density 20.796984999999999
#
# number of rings (size 3 to 8) (size 9 to 14) (size 15 to 20)
#    0.000    1.333    4.000    2.400    5.600    5.333 
#    3.600    0.000    0.000    0.000    0.000    0.000 
#    0.000    0.000    0.000    0.000    0.000    0.000 
#
# Total GULP energy -167542.489559 kJ/mol
# GULP energy per Si atom -5584.749652 kJ/mol
# Density = 2.074965 g / cm^3
# Si number density = 20.796985 Si / 1000 Ang^3
#
#
#
# Elastic Constant Matrix: (Units=GPa)
#
#
# Indices 1 2 3 4 5 6 
#
# 1 70.8769 31.7505 18.5721 0.0000 4.1021 0.0000
# 2 31.7505 87.8102 19.6698 0.0000 8.2754 0.0000
# 3 18.5721 19.6698 71.9580 0.0000 7.7495 0.0000
# 4 0.0000 0.0000 0.0000 14.7470 0.0000 -1.2596
# 5 4.1021 8.2754 7.7495 0.0000 14.7657 0.0000
# 6 0.0000 0.0000 0.0000 -1.2596 0.0000 28.6464
#
#
#
# Elastic Compliance Matrix: (Units=1/GPa)
#
#
# Indices 1 2 3 4 5 6 
#
# 1 0.017406 -0.005622 -0.002940 0.000000 -0.000142 0.000000
# 2 -0.005622 0.014361 -0.001882 0.000000 -0.005499 0.000000
# 3 -0.002940 -0.001882 0.015866 0.000000 -0.006455 0.000000
# 4 0.000000 0.000000 0.000000 0.068066 0.000000 0.002993
# 5 -0.000142 -0.005499 -0.006455 0.000000 0.074233 0.000000
# 6 0.000000 0.000000 0.000000 0.002993 0.000000 0.035040
#
#
# Mechanical properties :
#
#
# Convention : Reuss Voigt Hill
#
# Bulk Modulus (GPa) = 37.39251 41.18110 39.28681
# Shear Modulus (GPa) = 19.62514 22.34200 20.98357
#
# Velocity S-wave (km/s) = 3.07523 3.28119 3.17988
# Velocity P-wave (km/s) = 5.53427 5.84803 5.69331
#
# Compressibility (1/GPa) = 0.02674332
#
# Stress axis : x y z
#
# Youngs Moduli (GPa) = 57.45157 69.63421 63.02926
#
# Poissons Ratio (x) = 0.39146 0.18534
# Poissons Ratio (y) = 0.32297 0.11865
# Poissons Ratio (z) = 0.16893 0.13108
#
# Static dielectric constant tensor:
#      x y z
#    x 1.721100 0.000000 -0.008500 
#    y 0.000000 1.782540 0.000000 
#    z -0.008500 0.000000 1.767670 
# 
# From -- ./inp_files/108452.got.cif
#   From: 2010.05.17/outbox.cif.g08.bks.cpg/sg15_55_cif.got.tgz:108452.got - 2010.06.03 18:47:42.
