data_PCOD9278974
_publ_section_title
;
Structure prediction by ZEFSAII (Michael W. Deem and Ramdas Pophale) SiO2 
 PCOD9278974
Probable space group: C 2/C
;
_chemical_formula_sum "Si O2"
_cell_formula_units_Z 60
_cell_length_a 19.046898
_cell_length_b 13.034059
_cell_length_c 28.894953
_cell_angle_alpha 90.000000
_cell_angle_beta 26.532468
_cell_angle_gamma 90.000000
_cell_volume 3204.399277
_symmetry_space_group_name_H-M "C 2/C"
_symmetry_group_IT_number 15
_symmetry_cell_setting 'monoclinic'
loop_
_space_group_symop_operation_xyz
x,y,z
-x,y,1/2-z
-x,-y,-z
x,-y,1/2+z
1/2+x,1/2+y,z
1/2-x,1/2+y,1/2-z
1/2-x,1/2-y,-z
1/2+x,1/2-y,1/2+z
loop_
_atom_site_type_symbol
_atom_site_label
_atom_site_fract_x
_atom_site_fract_y
_atom_site_fract_z
Si Si1 0.668947 0.213004 0.346973
Si Si2 0.281314 0.849221 0.202519
Si Si3 0.500000 0.583399 0.750000
Si Si4 0.687850 0.764752 0.144269
Si Si5 0.623775 0.072357 0.510022
Si Si6 0.708622 0.363562 0.504665
Si Si7 0.169428 0.644709 0.936214
Si Si8 0.397557 0.466219 0.717603
O O1 0.726918 0.251729 0.263253
O O2 0.751038 0.278877 0.339549
O O3 0.480539 0.211148 0.460586
O O4 0.739456 0.100114 0.314890
O O5 0.309198 0.838448 0.131180
O O6 0.147672 0.935858 0.286214
O O7 0.448952 0.887762 0.121321
O O8 0.346860 0.652062 0.851186
O O9 0.457519 0.510596 0.731464
O O10 0.500000 0.751753 0.250000
O O11 0.775287 0.661370 0.074770
O O12 0.741218 0.854810 0.078012
O O13 0.699810 0.058303 0.515813
O O14 0.625939 0.971382 0.477436
O O15 0.750000 0.250000 0.500000
O O16 0.528178 0.392364 0.618866
#
# Coordination Sequence:
#
# PCOD9278974 Si02
#       8
#     8   8   4   8   8   8   8   8
#     4  12  23  37  60  87 128 161 196 244 305 362
#     4  11  23  38  58  91 120 161 201 245 302 360
#     4  10  22  36  64  90 112 148 202 264 306 336
#     4  11  21  33  55  93 124 157 187 242 312 371
#     4  11  18  36  57  90 122 149 193 254 304 349
#     4  10  21  33  58  88 122 149 191 247 308 361
#     4  11  22  37  60  86 117 155 205 255 295 349
#     4  11  22  37  59  91 119 155 198 250 302 353
#
# _framework density 18.724259
#
# number of rings (size 3 to 8) (size 9 to 14) (size 15 to 20)
#    0.000    1.067    4.000    6.000    3.733    0.000 
#    0.000    3.333    0.000    0.000    0.000    0.000 
#    0.000    0.000    0.000    0.000    0.000    0.000 
#
# Total GULP energy -167307.151068 kJ/mol
# GULP energy per Si atom -5576.905036 kJ/mol
# Density = 1.868164 g / cm^3
# Si number density = 18.724259 Si / 1000 Ang^3
#
#
#
# Elastic Constant Matrix: (Units=GPa)
#
#
# Indices 1 2 3 4 5 6 
#
# 1 71.0073 31.0635 41.6788 -0.0017 0.1548 0.0007
# 2 31.0635 28.2563 26.9911 0.0002 1.5118 -0.0003
# 3 41.6788 26.9911 114.4373 0.0011 -26.2076 0.0016
# 4 -0.0017 0.0002 0.0011 32.5499 0.0015 -1.2454
# 5 0.1548 1.5118 -26.2076 0.0015 41.7548 -0.0008
# 6 0.0007 -0.0003 0.0016 -1.2454 -0.0008 18.6271
#
#
#
# Elastic Compliance Matrix: (Units=1/GPa)
#
#
# Indices 1 2 3 4 5 6 
#
# 1 0.028506 -0.026972 -0.004462 0.000002 -0.001930 -0.000001
# 2 -0.026972 0.074940 -0.009869 -0.000001 -0.008808 0.000002
# 3 -0.004462 -0.009869 0.014922 -0.000001 0.009740 -0.000001
# 4 0.000002 -0.000001 -0.000001 0.030801 -0.000002 0.002059
# 5 -0.001930 -0.008808 0.009740 -0.000002 0.030389 0.000000
# 6 -0.000001 0.000002 -0.000001 0.002059 0.000000 0.053823
#
#
# Mechanical properties :
#
#
# Convention : Reuss Voigt Hill
#
# Bulk Modulus (GPa) = 27.96336 45.90752 36.93544
# Shear Modulus (GPa) = 15.24817 26.18418 20.71618
#
# Velocity S-wave (km/s) = 2.85678 3.74359 3.32984
# Velocity P-wave (km/s) = 5.08413 6.57699 5.87814
#
# Compressibility (1/GPa) = 0.03576108
#
# Stress axis : x y z
#
# Youngs Moduli (GPa) = 35.08028 13.34394 67.01566
#
# Poissons Ratio (x) = 0.35991 0.29905
# Poissons Ratio (y) = 0.94619 0.66138
# Poissons Ratio (z) = 0.15654 0.13169
#
# Static dielectric constant tensor:
#      x y z
#    x 1.711530 0.000000 -0.009340 
#    y 0.000000 1.645880 0.000000 
#    z -0.009340 0.000000 1.689690 
# 
# From -- ./inp_files/299094.got.cif
#   From: 2010.05.17/outbox.cif.g08.bks.cpg/sg15_150_cif.got.tgz:299094.got - 2010.06.03 18:47:42.
