data_PCOD9278813
_publ_section_title
;
Structure prediction by ZEFSAII (Michael W. Deem and Ramdas Pophale) SiO2 
 PCOD9278813
Probable space group: C 2/C
;
_chemical_formula_sum "Si O2"
_cell_formula_units_Z 40
_cell_length_a 23.599869
_cell_length_b 4.685733
_cell_length_c 22.299968
_cell_angle_alpha 90.000000
_cell_angle_beta 33.563884
_cell_angle_gamma 90.000000
_cell_volume 1363.363232
_symmetry_space_group_name_H-M "C 2/C"
_symmetry_group_IT_number 15
_symmetry_cell_setting 'monoclinic'
loop_
_space_group_symop_operation_xyz
x,y,z
-x,y,1/2-z
-x,-y,-z
x,-y,1/2+z
1/2+x,1/2+y,z
1/2-x,1/2+y,1/2-z
1/2-x,1/2-y,-z
1/2+x,1/2-y,1/2+z
loop_
_atom_site_type_symbol
_atom_site_label
_atom_site_fract_x
_atom_site_fract_y
_atom_site_fract_z
Si Si1 0.545833 0.267654 0.650533
Si Si2 0.356358 0.365575 0.531919
Si Si3 0.754420 0.965955 0.953166
Si Si4 0.874899 0.326793 0.762417
Si Si5 0.323829 0.609653 0.683012
O O1 0.500000 0.409587 0.750000
O O2 0.561864 0.472602 0.580622
O O3 0.467490 0.009687 0.706872
O O4 0.666808 0.240920 0.567285
O O5 0.340688 0.057250 0.514351
O O6 0.237657 0.484050 0.631589
O O7 0.379018 0.437274 0.581118
O O8 0.750000 0.250000 0.000000
O O9 0.844128 0.044790 0.825748
O O10 0.886103 0.249537 0.682571
O O11 0.244390 0.376384 0.779650
#
# Coordination Sequence:
#
# PCOD9278813 Si02
#       5
#     8   8   8   8   8
#     4  12  27  45  75 114 170 224 297 347 434 511
#     4   9  24  47  77 119 160 221 286 355 427 516
#     4  10  25  49  76 112 167 221 286 353 427 515
#     4   9  24  49  76 124 165 225 277 363 430 514
#     4  10  20  46  84 120 166 224 287 355 438 514
#
# _framework density 29.339207999999999
#
# number of rings (size 3 to 8) (size 9 to 14) (size 15 to 20)
#    1.200    0.800    0.000    1.200    2.800    6.400 
#    7.200    1.000    0.000    0.000    0.000    0.000 
#    0.000    0.000    0.000    0.000    0.000    0.000 
#
# Total GULP energy -111665.179028 kJ/mol
# GULP energy per Si atom -5583.258951 kJ/mol
# Density = 2.927243 g / cm^3
# Si number density = 29.339208 Si / 1000 Ang^3
#
#
#
# Elastic Constant Matrix: (Units=GPa)
#
#
# Indices 1 2 3 4 5 6 
#
# 1 146.0642 32.6185 70.4060 -0.0042 25.5956 0.0746
# 2 32.6185 166.2548 40.4785 0.1414 5.3747 0.1323
# 3 70.4060 40.4785 194.4352 0.3456 20.4998 0.0251
# 4 -0.0042 0.1414 0.3456 55.6075 -0.0878 -4.3977
# 5 25.5956 5.3747 20.4998 -0.0878 82.9555 -0.0100
# 6 0.0746 0.1323 0.0251 -4.3977 -0.0100 72.4703
#
#
#
# Elastic Compliance Matrix: (Units=1/GPa)
#
#
# Indices 1 2 3 4 5 6 
#
# 1 0.008734 -0.000980 -0.002753 0.000017 -0.001951 -0.000006
# 2 -0.000980 0.006447 -0.001001 -0.000011 0.000132 -0.000011
# 3 -0.002753 -0.001001 0.006419 -0.000039 -0.000672 0.000000
# 4 0.000017 -0.000011 -0.000039 0.018070 0.000024 0.001097
# 5 -0.001951 0.000132 -0.000672 0.000024 0.012814 0.000005
# 6 -0.000006 -0.000011 0.000000 0.001097 0.000005 0.013865
#
#
# Mechanical properties :
#
#
# Convention : Reuss Voigt Hill
#
# Bulk Modulus (GPa) = 82.42957 88.19556 85.31257
# Shear Modulus (GPa) = 62.60801 66.42343 64.51572
#
# Velocity S-wave (km/s) = 4.62447 4.76329 4.69439
# Velocity P-wave (km/s) = 7.52799 7.77032 7.65011
#
# Compressibility (1/GPa) = 0.01213157
#
# Stress axis : x y z
#
# Youngs Moduli (GPa) = 114.49433 155.11901 155.78091
#
# Poissons Ratio (x) = 0.15206 0.42885
# Poissons Ratio (y) = 0.11223 0.15594
# Poissons Ratio (z) = 0.31519 0.15528
#
# Static dielectric constant tensor:
#      x y z
#    x 2.382000 -0.000320 -0.147230 
#    y -0.000320 2.305630 0.000280 
#    z -0.147230 0.000280 2.545950 
# 
# From -- ./inp_files/283067.got.cif
#   From: 2010.05.17/outbox.cif.g08.bks.cpg/sg15_142_cif.got.tgz:283067.got - 2010.06.03 18:47:42.
