data_PCOD9278608
_publ_section_title
;
Structure prediction by ZEFSAII (Michael W. Deem and Ramdas Pophale) SiO2 
 PCOD9278608
Probable space group: C 2/C
;
_chemical_formula_sum "Si O2"
_cell_formula_units_Z 52
_cell_length_a 28.129417
_cell_length_b 13.099574
_cell_length_c 9.446052
_cell_angle_alpha 90.000000
_cell_angle_beta 138.621362
_cell_angle_gamma 90.000000
_cell_volume 2300.863307
_symmetry_space_group_name_H-M "C 2/C"
_symmetry_group_IT_number 15
_symmetry_cell_setting 'monoclinic'
loop_
_space_group_symop_operation_xyz
x,y,z
-x,y,1/2-z
-x,-y,-z
x,-y,1/2+z
1/2+x,1/2+y,z
1/2-x,1/2+y,1/2-z
1/2-x,1/2-y,-z
1/2+x,1/2-y,1/2+z
loop_
_atom_site_type_symbol
_atom_site_label
_atom_site_fract_x
_atom_site_fract_y
_atom_site_fract_z
Si Si1 0.000000 0.360919 0.250000
Si Si2 0.274674 0.805211 0.914116
Si Si3 0.111647 0.799664 0.021349
Si Si4 0.551071 0.491599 0.250919
Si Si5 0.926865 0.445413 0.640065
Si Si6 0.308155 0.368127 0.025597
Si Si7 0.828629 0.513631 0.160151
O O1 0.957925 0.441538 0.253456
O O2 0.054320 0.283898 0.444363
O O3 0.344609 0.750381 0.008691
O O4 0.214129 0.799830 0.657542
O O5 0.250000 0.750000 0.000000
O O6 0.292577 0.922497 0.989757
O O7 0.164660 0.818720 0.269191
O O8 0.074862 0.902292 0.879820
O O9 0.500000 0.434973 0.250000
O O10 0.625317 0.438026 0.375378
O O11 0.500000 0.500000 0.000000
O O12 0.878587 0.465804 0.394040
O O13 0.876269 0.418180 0.658453
O O14 0.000000 0.389487 0.750000
O O15 0.235467 0.427241 0.905776
#
# Coordination Sequence:
#
# PCOD9278608 Si02
#       7
#     4   8   8   8   8   8   8
#     4  10  20  44  64  96 136 170 228 272 342 396
#     4  12  27  43  67 104 138 174 228 296 340 401
#     4  12  23  45  70  98 139 183 224 294 348 402
#     4  12  25  44  73 102 138 190 238 285 348 423
#     4  10  23  40  70  97 133 177 226 269 339 410
#     4  12  26  46  68 103 136 186 236 277 349 424
#     4  12  22  46  68  99 136 182 227 280 333 416
#
# _framework density 22.600213
#
# number of rings (size 3 to 8) (size 9 to 14) (size 15 to 20)
#    0.462    0.000    5.385    2.769    4.308    0.000 
#    0.000    0.000    0.000    0.000    0.000    0.000 
#    0.000    0.000    0.000    0.000    0.000    0.000 
#
# Total GULP energy -145320.681281 kJ/mol
# GULP energy per Si atom -5589.256972 kJ/mol
# Density = 2.254877 g / cm^3
# Si number density = 22.600213 Si / 1000 Ang^3
#
#
#
# Elastic Constant Matrix: (Units=GPa)
#
#
# Indices 1 2 3 4 5 6 
#
# 1 154.1134 13.1638 46.9249 0.0000 -3.6859 0.0000
# 2 13.1638 42.4852 9.4605 0.0000 -1.0878 0.0000
# 3 46.9249 9.4605 141.1877 0.0000 -6.8903 0.0000
# 4 0.0000 0.0000 0.0000 25.1775 0.0000 -6.2628
# 5 -3.6859 -1.0878 -6.8903 0.0000 42.2253 0.0000
# 6 0.0000 0.0000 0.0000 -6.2628 0.0000 24.3531
#
#
#
# Elastic Compliance Matrix: (Units=1/GPa)
#
#
# Indices 1 2 3 4 5 6 
#
# 1 0.007349 -0.001756 -0.002314 0.000000 0.000219 0.000000
# 2 -0.001756 0.024319 -0.001031 0.000000 0.000305 0.000000
# 3 -0.002314 -0.001031 0.007973 0.000000 0.001073 0.000000
# 4 0.000000 0.000000 0.000000 0.042432 0.000000 0.010912
# 5 0.000219 0.000305 0.001073 0.000000 0.023884 0.000000
# 6 0.000000 0.000000 0.000000 0.010912 0.000000 0.043869
#
#
# Mechanical properties :
#
#
# Convention : Reuss Voigt Hill
#
# Bulk Modulus (GPa) = 33.96882 52.98722 43.47802
# Shear Modulus (GPa) = 29.43919 36.23364 32.83641
#
# Velocity S-wave (km/s) = 3.61308 4.00840 3.81586
# Velocity P-wave (km/s) = 5.69813 6.70219 6.22045
#
# Compressibility (1/GPa) = 0.02943877
#
# Stress axis : x y z
#
# Youngs Moduli (GPa) = 136.08162 41.11994 125.41893
#
# Poissons Ratio (x) = 0.07221 0.29022
# Poissons Ratio (y) = 0.23896 0.12931
# Poissons Ratio (z) = 0.31489 0.04240
#
# Static dielectric constant tensor:
#      x y z
#    x 1.960930 0.000000 0.066540 
#    y 0.000000 1.847200 0.000000 
#    z 0.066540 0.000000 1.874380 
# 
# From -- ./inp_files/67052.got.cif
#   From: 2010.05.17/outbox.cif.g08.bks.cpg/sg15_34_cif.got.tgz:67052.got - 2010.06.03 18:47:42.
