data_PCOD9278538
_publ_section_title
;
Structure prediction by ZEFSAII (Michael W. Deem and Ramdas Pophale) SiO2 
 PCOD9278538
Probable space group: C 2/C
;
_chemical_formula_sum "Si O2"
_cell_formula_units_Z 48
_cell_length_a 9.370602
_cell_length_b 16.534118
_cell_length_c 19.622013
_cell_angle_alpha 90.000000
_cell_angle_beta 139.076828
_cell_angle_gamma 90.000000
_cell_volume 1991.426034
_symmetry_space_group_name_H-M "C 2/C"
_symmetry_group_IT_number 15
_symmetry_cell_setting 'monoclinic'
loop_
_space_group_symop_operation_xyz
x,y,z
-x,y,1/2-z
-x,-y,-z
x,-y,1/2+z
1/2+x,1/2+y,z
1/2-x,1/2+y,1/2-z
1/2-x,1/2-y,-z
1/2+x,1/2-y,1/2+z
loop_
_atom_site_type_symbol
_atom_site_label
_atom_site_fract_x
_atom_site_fract_y
_atom_site_fract_z
Si Si1 0.347372 0.344853 0.804388
Si Si2 0.957920 0.585653 0.806688
Si Si3 0.327479 0.169884 0.488416
Si Si4 0.597418 0.684919 0.711204
Si Si5 0.444248 0.172353 0.069927
Si Si6 0.212822 0.943195 0.578463
O O1 0.596306 0.362835 0.876436
O O2 0.299924 0.248258 0.791823
O O3 0.164079 0.367772 0.683513
O O4 0.301653 0.384498 0.861344
O O5 0.081274 0.501901 0.841159
O O6 0.000000 0.632378 0.750000
O O7 0.700878 0.601205 0.722931
O O8 0.071506 0.614311 0.917064
O O9 0.250000 0.250000 0.500000
O O10 0.495195 0.181514 0.487108
O O11 0.500000 0.673752 0.750000
O O12 0.442391 0.740103 0.607556
O O13 0.256640 0.112285 0.028254
O O14 0.000000 0.000000 0.500000
#
# Coordination Sequence:
#
# PCOD9278538 Si02
#       6
#     8   8   8   8   8   8
#     4  10  20  43  71  98 134 195 237 281 363 443
#     4  12  26  43  67 101 147 180 237 310 357 414
#     4  12  22  40  70 108 140 181 247 300 357 433
#     4  10  21  43  72  99 138 187 242 282 362 433
#     4  10  22  42  74  99 145 193 239 287 371 445
#     4  12  24  47  71 104 144 198 238 293 368 439
#
# _framework density 24.103331000000001
#
# number of rings (size 3 to 8) (size 9 to 14) (size 15 to 20)
#    1.000    0.000    5.000    3.000    0.000    0.667 
#    3.000    3.333    0.000    0.000    0.000    0.000 
#    0.000    0.000    0.000    0.000    0.000    0.000 
#
# Total GULP energy -133952.891072 kJ/mol
# GULP energy per Si atom -5581.370461 kJ/mol
# Density = 2.404847 g / cm^3
# Si number density = 24.103331 Si / 1000 Ang^3
#
#
#
# Elastic Constant Matrix: (Units=GPa)
#
#
# Indices 1 2 3 4 5 6 
#
# 1 187.9752 54.1440 33.6040 0.0000 -23.8368 0.0000
# 2 54.1440 82.5611 34.8499 0.0000 7.4170 0.0000
# 3 33.6040 34.8499 83.2360 0.0001 -1.8930 0.0000
# 4 0.0000 0.0000 0.0001 30.9041 0.0000 7.9355
# 5 -23.8368 7.4170 -1.8930 0.0000 45.4135 0.0000
# 6 0.0000 0.0000 0.0000 7.9355 0.0000 39.4822
#
#
#
# Elastic Compliance Matrix: (Units=1/GPa)
#
#
# Indices 1 2 3 4 5 6 
#
# 1 0.007506 -0.004996 -0.000831 0.000000 0.004721 0.000000
# 2 -0.004996 0.018366 -0.005806 0.000000 -0.005864 0.000000
# 3 -0.000831 -0.005806 0.014806 0.000000 0.001129 0.000000
# 4 0.000000 0.000000 0.000000 0.034119 0.000000 -0.006858
# 5 0.004721 -0.005864 0.001129 0.000000 0.025503 0.000000
# 6 0.000000 0.000000 0.000000 -0.006858 0.000000 0.026706
#
#
# Mechanical properties :
#
#
# Convention : Reuss Voigt Hill
#
# Bulk Modulus (GPa) = 57.43148 66.55201 61.99175
# Shear Modulus (GPa) = 32.03549 38.57158 35.30353
#
# Velocity S-wave (km/s) = 3.64962 4.00466 3.83126
# Velocity P-wave (km/s) = 6.45280 7.00387 6.73397
#
# Compressibility (1/GPa) = 0.01741205
#
# Stress axis : x y z
#
# Youngs Moduli (GPa) = 133.22485 54.44811 67.53879
#
# Poissons Ratio (x) = 0.27201 0.05615
# Poissons Ratio (y) = 0.66556 0.39214
# Poissons Ratio (z) = 0.11075 0.31613
#
# Static dielectric constant tensor:
#      x y z
#    x 1.901610 0.000000 0.060940 
#    y 0.000000 2.050750 0.000000 
#    z 0.060940 0.000000 1.995360 
# 
# From -- ./inp_files/232877.got.cif
#   From: 2010.05.17/outbox.cif.g08.bks.cpg/sg15_117_cif.got.tgz:232877.got - 2010.06.03 18:47:42.
