data_PCOD9278663
_publ_section_title
;
Structure prediction by ZEFSAII (Michael W. Deem and Ramdas Pophale) SiO2 
 PCOD9278663
Probable space group: C 2/C
;
_chemical_formula_sum "Si O2"
_cell_formula_units_Z 60
_cell_length_a 23.426003
_cell_length_b 8.366390
_cell_length_c 15.264564
_cell_angle_alpha 90.000000
_cell_angle_beta 111.029945
_cell_angle_gamma 90.000000
_cell_volume 2792.448964
_symmetry_space_group_name_H-M "C 2/C"
_symmetry_group_IT_number 15
_symmetry_cell_setting 'monoclinic'
loop_
_space_group_symop_operation_xyz
x,y,z
-x,y,1/2-z
-x,-y,-z
x,-y,1/2+z
1/2+x,1/2+y,z
1/2-x,1/2+y,1/2-z
1/2-x,1/2-y,-z
1/2+x,1/2-y,1/2+z
loop_
_atom_site_type_symbol
_atom_site_label
_atom_site_fract_x
_atom_site_fract_y
_atom_site_fract_z
Si Si1 0.000000 0.644933 0.250000
Si Si2 0.286842 0.596030 0.486171
Si Si3 0.785218 0.565754 0.712638
Si Si4 0.578109 0.930273 0.170783
Si Si5 0.588649 0.775455 0.925677
Si Si6 0.243305 0.398111 0.623773
Si Si7 0.892059 0.607678 0.494571
Si Si8 0.992914 0.818958 0.961948
O O1 0.974516 0.525141 0.308887
O O2 0.943987 0.751587 0.184799
O O3 0.250000 0.750000 0.500000
O O4 0.255384 0.534039 0.379384
O O5 0.356609 0.657865 0.517647
O O6 0.278491 0.468686 0.559919
O O7 0.858041 0.545277 0.744543
O O8 0.767622 0.525038 0.803649
O O9 0.774962 0.749781 0.686205
O O10 0.555910 0.748800 0.137036
O O11 0.589395 0.019818 0.085321
O O12 0.534322 0.760433 0.965618
O O13 0.610073 0.960111 0.939010
O O14 0.177135 0.336104 0.554474
O O15 0.942345 0.744985 0.533430
O O16 0.000000 0.000000 0.000000
#
# Coordination Sequence:
#
# PCOD9278663 Si02
#       8
#     4   8   8   8   8   8   8   8
#     4  12  20  42  68  96 128 180 232 280 348 432
#     4  12  24  45  69 103 139 184 237 294 362 434
#     4  11  26  44  69 101 139 187 237 295 359 434
#     4  10  22  41  66  92 127 176 229 275 342 428
#     4  11  23  42  70  95 135 175 232 280 353 425
#     4  11  25  43  69 101 141 183 239 296 362 433
#     4  10  20  44  68  91 127 180 229 270 350 432
#     4  11  23  42  67  98 131 175 229 292 350 411
#
# _framework density 21.486516000000002
#
# number of rings (size 3 to 8) (size 9 to 14) (size 15 to 20)
#    0.000    1.067    4.000    2.800    5.600    1.067 
#    4.800    0.000    0.000    0.000    0.000    0.000 
#    0.000    0.000    0.000    0.000    0.000    0.000 
#
# Total GULP energy -167383.244703 kJ/mol
# GULP energy per Si atom -5579.441490 kJ/mol
# Density = 2.143761 g / cm^3
# Si number density = 21.486516 Si / 1000 Ang^3
#
#
#
# Elastic Constant Matrix: (Units=GPa)
#
#
# Indices 1 2 3 4 5 6 
#
# 1 86.1063 28.2394 41.2144 0.0000 18.4717 0.0000
# 2 28.2394 69.3864 27.6951 0.0000 19.5909 0.0000
# 3 41.2144 27.6951 105.5730 0.0000 20.4377 0.0000
# 4 0.0000 0.0000 0.0000 40.1835 0.0000 7.0719
# 5 18.4717 19.5909 20.4377 0.0000 35.1719 0.0000
# 6 0.0000 0.0000 0.0000 7.0719 0.0000 32.5116
#
#
#
# Elastic Compliance Matrix: (Units=1/GPa)
#
#
# Indices 1 2 3 4 5 6 
#
# 1 0.015719 -0.003573 -0.004492 0.000000 -0.003656 0.000000
# 2 -0.003573 0.018786 -0.002108 0.000000 -0.007363 0.000000
# 3 -0.004492 -0.002108 0.012501 0.000000 -0.003731 0.000000
# 4 0.000000 0.000000 0.000000 0.025876 0.000000 -0.005629
# 5 -0.003656 -0.007363 -0.003731 0.000000 0.036621 0.000000
# 6 0.000000 0.000000 0.000000 -0.005629 0.000000 0.031983
#
#
# Mechanical properties :
#
#
# Convention : Reuss Voigt Hill
#
# Bulk Modulus (GPa) = 37.50731 50.59595 44.05163
# Shear Modulus (GPa) = 29.28797 32.50119 30.89458
#
# Velocity S-wave (km/s) = 3.69600 3.89348 3.79602
# Velocity P-wave (km/s) = 5.97562 6.61900 6.30552
#
# Compressibility (1/GPa) = 0.02666147
#
# Stress axis : x y z
#
# Youngs Moduli (GPa) = 63.61567 53.23016 79.99398
#
# Poissons Ratio (x) = 0.19017 0.35932
# Poissons Ratio (y) = 0.22727 0.16864
# Poissons Ratio (z) = 0.28575 0.11222
#
# Static dielectric constant tensor:
#      x y z
#    x 1.825500 0.000000 0.043000 
#    y 0.000000 1.812980 0.000000 
#    z 0.043000 0.000000 1.838310 
# 
# From -- ./inp_files/172418.got.cif
#   From: 2010.05.17/outbox.cif.g08.bks.cpg/sg15_87_cif.got.tgz:172418.got - 2010.06.03 18:47:42.
