data_PCOD9278306
_publ_section_title
;
Structure prediction by ZEFSAII (Michael W. Deem and Ramdas Pophale) SiO2 
 PCOD9278306
Probable space group: C 2/C
;
_chemical_formula_sum "Si O2"
_cell_formula_units_Z 44
_cell_length_a 9.864466
_cell_length_b 19.981102
_cell_length_c 10.619484
_cell_angle_alpha 90.000000
_cell_angle_beta 88.095820
_cell_angle_gamma 90.000000
_cell_volume 2091.975268
_symmetry_space_group_name_H-M "C 2/C"
_symmetry_group_IT_number 15
_symmetry_cell_setting 'monoclinic'
loop_
_space_group_symop_operation_xyz
x,y,z
-x,y,1/2-z
-x,-y,-z
x,-y,1/2+z
1/2+x,1/2+y,z
1/2-x,1/2+y,1/2-z
1/2-x,1/2-y,-z
1/2+x,1/2-y,1/2+z
loop_
_atom_site_type_symbol
_atom_site_label
_atom_site_fract_x
_atom_site_fract_y
_atom_site_fract_z
Si Si1 0.205375 0.675032 0.039799
Si Si2 0.882081 0.009725 0.844021
Si Si3 0.470734 0.607700 0.055917
Si Si4 0.318919 0.300540 0.096207
Si Si5 0.844269 0.400655 0.224230
Si Si6 0.000000 0.707018 0.250000
O O1 0.337106 0.645267 0.108577
O O2 0.072616 0.670095 0.131726
O O3 0.250000 0.750000 0.000000
O O4 0.176394 0.637357 0.908609
O O5 0.741085 0.030738 0.787179
O O6 0.000000 0.037362 0.750000
O O7 0.919576 0.932580 0.864756
O O8 0.902737 0.049619 0.972643
O O9 0.556914 0.660141 0.972449
O O10 0.220526 0.354421 0.164401
O O11 0.381990 0.254470 0.201833
O O12 0.250000 0.250000 0.000000
O O13 0.000000 0.412093 0.250000
#
# Coordination Sequence:
#
# PCOD9278306 Si02
#       6
#     8   8   8   8   8   4
#     4  11  21  39  67  97 141 178 218 280 348 413
#     4  10  20  42  70  87 124 181 233 281 326 397
#     4  10  22  39  66  98 121 173 238 275 326 411
#     4  12  23  37  67  98 139 182 225 275 350 430
#     4  11  23  41  66  98 138 183 228 284 351 404
#     4  12  22  40  62 100 148 182 208 276 358 412
#
# _framework density 21.032754000000001
#
# number of rings (size 3 to 8) (size 9 to 14) (size 15 to 20)
#    0.000    1.091    5.455    2.182    0.000    1.455 
#    0.000    0.909    8.000    0.000    0.000    0.000 
#    0.000    0.000    0.000    0.000    0.000    0.000 
#
# Total GULP energy -122784.476610 kJ/mol
# GULP energy per Si atom -5581.112573 kJ/mol
# Density = 2.098488 g / cm^3
# Si number density = 21.032754 Si / 1000 Ang^3
#
#
#
# Elastic Constant Matrix: (Units=GPa)
#
#
# Indices 1 2 3 4 5 6 
#
# 1 144.4487 32.8264 25.5751 0.0000 0.9887 0.0000
# 2 32.8264 63.5826 18.1633 0.0000 8.7591 0.0000
# 3 25.5751 18.1633 59.3848 0.0000 -6.9241 0.0000
# 4 0.0000 0.0000 0.0000 10.8934 0.0000 2.9432
# 5 0.9887 8.7591 -6.9241 0.0000 48.3578 0.0000
# 6 0.0000 0.0000 0.0000 2.9432 0.0000 20.9114
#
#
#
# Elastic Compliance Matrix: (Units=1/GPa)
#
#
# Indices 1 2 3 4 5 6 
#
# 1 0.008153 -0.003537 -0.002415 0.000000 0.000128 0.000000
# 2 -0.003537 0.019540 -0.004940 0.000000 -0.004174 0.000000
# 3 -0.002415 -0.004940 0.019831 0.000000 0.003784 0.000000
# 4 0.000000 0.000000 0.000000 0.095428 0.000000 -0.013431
# 5 0.000128 -0.004174 0.003784 0.000000 0.021974 0.000000
# 6 0.000000 0.000000 0.000000 -0.013431 0.000000 0.049711
#
#
# Mechanical properties :
#
#
# Convention : Reuss Voigt Hill
#
# Bulk Modulus (GPa) = 38.84798 46.72728 42.78763
# Shear Modulus (GPa) = 20.40802 28.75593 24.58197
#
# Velocity S-wave (km/s) = 3.11834 3.70157 3.42240
# Velocity P-wave (km/s) = 5.61032 6.36660 6.00039
#
# Compressibility (1/GPa) = 0.02574137
#
# Stress axis : x y z
#
# Youngs Moduli (GPa) = 122.64875 51.17707 50.42563
#
# Poissons Ratio (x) = 0.18103 0.12175
# Poissons Ratio (y) = 0.43385 0.24909
# Poissons Ratio (z) = 0.29614 0.25280
#
# Static dielectric constant tensor:
#      x y z
#    x 1.739730 0.000000 0.019450 
#    y 0.000000 1.756090 0.000000 
#    z 0.019450 0.000000 1.880040 
# 
# From -- ./inp_files/78203.got.cif
#   From: 2010.05.17/outbox.cif.g08.bks.cpg/sg15_40_cif.got.tgz:78203.got - 2010.06.03 18:47:42.
