data_PCOD9278812
_publ_section_title
;
Structure prediction by ZEFSAII (Michael W. Deem and Ramdas Pophale) SiO2 
 PCOD9278812
Probable space group: C 2/C
;
_chemical_formula_sum "Si O2"
_cell_formula_units_Z 28
_cell_length_a 10.327479
_cell_length_b 8.708388
_cell_length_c 15.042910
_cell_angle_alpha 90.000000
_cell_angle_beta 41.942880
_cell_angle_gamma 90.000000
_cell_volume 904.260391
_symmetry_space_group_name_H-M "C 2/C"
_symmetry_group_IT_number 15
_symmetry_cell_setting 'monoclinic'
loop_
_space_group_symop_operation_xyz
x,y,z
-x,y,1/2-z
-x,-y,-z
x,-y,1/2+z
1/2+x,1/2+y,z
1/2-x,1/2+y,1/2-z
1/2-x,1/2-y,-z
1/2+x,1/2-y,1/2+z
loop_
_atom_site_type_symbol
_atom_site_label
_atom_site_fract_x
_atom_site_fract_y
_atom_site_fract_z
Si Si1 0.000000 0.049649 0.750000
Si Si2 0.209982 0.615589 0.741095
Si Si3 0.375090 0.108425 0.475362
Si Si4 0.926071 0.802048 0.968475
O O1 0.122718 0.123207 0.769864
O O2 0.193171 0.002979 0.598148
O O3 0.514606 0.818121 0.496298
O O4 0.322804 0.582018 0.591540
O O5 0.102825 0.783167 0.805493
O O6 0.250000 0.250000 0.500000
O O7 0.539726 0.012335 0.338933
O O8 0.750000 0.750000 0.000000
#
# Coordination Sequence:
#
# PCOD9278812 Si02
#       4
#     4   8   8   8
#     4  10  20  46  80 118 166 220 278 340 406 506
#     4  11  25  49  85 119 168 225 282 344 426 494
#     4  11  24  52  82 116 166 224 278 343 423 505
#     4  11  24  51  80 120 169 216 278 348 414 503
#
# _framework density 30.964535000000001
#
# number of rings (size 3 to 8) (size 9 to 14) (size 15 to 20)
#    0.000    1.143    2.857    4.286    0.000    0.000 
#   25.714    5.714    0.000    0.000    0.000    0.000 
#    0.000    0.000    0.000    0.000    0.000    0.000 
#
# Total GULP energy -77997.972984 kJ/mol
# GULP energy per Si atom -5571.283785 kJ/mol
# Density = 3.089406 g / cm^3
# Si number density = 30.964535 Si / 1000 Ang^3
#
#
#
# Elastic Constant Matrix: (Units=GPa)
#
#
# Indices 1 2 3 4 5 6 
#
# 1 229.4753 24.3546 77.5834 0.0000 -59.2823 0.0000
# 2 24.3546 132.5644 87.2298 0.0000 -25.7953 0.0000
# 3 77.5834 87.2298 321.5576 0.0000 -43.4580 0.0000
# 4 0.0000 0.0000 0.0000 89.4873 0.0000 -8.8769
# 5 -59.2823 -25.7953 -43.4580 0.0000 92.4240 0.0000
# 6 0.0000 0.0000 0.0000 -8.8769 0.0000 14.4140
#
#
#
# Elastic Compliance Matrix: (Units=1/GPa)
#
#
# Indices 1 2 3 4 5 6 
#
# 1 0.005463 0.000235 -0.000960 0.000000 0.003118 0.000000
# 2 0.000235 0.009388 -0.002380 0.000000 0.001652 0.000000
# 3 -0.000960 -0.002380 0.004073 0.000000 0.000635 0.000000
# 4 0.000000 0.000000 0.000000 0.011902 0.000000 0.007330
# 5 0.003118 0.001652 0.000635 0.000000 0.013579 0.000000
# 6 0.000000 0.000000 0.000000 0.007330 0.000000 0.073891
#
#
# Mechanical properties :
#
#
# Convention : Reuss Voigt Hill
#
# Bulk Modulus (GPa) = 78.66003 117.99256 98.32629
# Shear Modulus (GPa) = 38.83656 72.22703 55.53180
#
# Velocity S-wave (km/s) = 3.54535 4.83491 4.23945
# Velocity P-wave (km/s) = 6.49752 8.32808 7.46909
#
# Compressibility (1/GPa) = 0.01271294
#
# Stress axis : x y z
#
# Youngs Moduli (GPa) = 183.04748 106.51987 245.51539
#
# Poissons Ratio (x) = -0.02504 0.23581
# Poissons Ratio (y) = -0.04303 0.58437
# Poissons Ratio (z) = 0.17581 0.25354
#
# Static dielectric constant tensor:
#      x y z
#    x 2.348800 0.000000 0.205000 
#    y 0.000000 3.102990 0.000000 
#    z 0.205000 0.000000 2.837640 
# 
# From -- ./inp_files/141484.got.cif
#   From: 2010.05.17/outbox.cif.g08.bks.cpg/sg15_71_cif.got.tgz:141484.got - 2010.06.03 18:47:42.
