data_PCOD9278654
_publ_section_title
;
Structure prediction by ZEFSAII (Michael W. Deem and Ramdas Pophale) SiO2 
 PCOD9278654
Probable space group: C 2/C
;
_chemical_formula_sum "Si O2"
_cell_formula_units_Z 44
_cell_length_a 20.738509
_cell_length_b 11.521755
_cell_length_c 11.738524
_cell_angle_alpha 90.000000
_cell_angle_beta 39.249948
_cell_angle_gamma 90.000000
_cell_volume 1774.641640
_symmetry_space_group_name_H-M "C 2/C"
_symmetry_group_IT_number 15
_symmetry_cell_setting 'monoclinic'
loop_
_space_group_symop_operation_xyz
x,y,z
-x,y,1/2-z
-x,-y,-z
x,-y,1/2+z
1/2+x,1/2+y,z
1/2-x,1/2+y,1/2-z
1/2-x,1/2-y,-z
1/2+x,1/2-y,1/2+z
loop_
_atom_site_type_symbol
_atom_site_label
_atom_site_fract_x
_atom_site_fract_y
_atom_site_fract_z
Si Si1 0.000000 0.538639 0.250000
Si Si2 0.679187 0.630340 0.977348
Si Si3 0.910145 0.849405 0.567853
Si Si4 0.608239 0.166342 0.707811
Si Si5 0.379334 0.442171 0.289928
Si Si6 0.204949 0.323163 0.410855
O O1 0.959032 0.447340 0.212248
O O2 0.903073 0.612992 0.421861
O O3 0.774647 0.629195 0.933799
O O4 0.729960 0.630299 0.785994
O O5 0.615031 0.747088 0.089572
O O6 0.618063 0.517987 0.098605
O O7 0.919898 0.745358 0.646702
O O8 0.826620 0.804416 0.591674
O O9 0.019964 0.866926 0.362752
O O10 0.883356 0.960593 0.682590
O O11 0.280968 0.360285 0.408062
#
# Coordination Sequence:
#
# PCOD9278654 Si02
#       6
#     4   8   8   8   8   8
#     4  12  24  38  60  96 130 168 216 258 326 376
#     4   9  19  40  64  91 120 165 218 256 313 379
#     4   9  22  41  65  97 130 163 223 258 320 387
#     4   9  19  37  64  88 122 161 216 263 295 387
#     4  10  20  44  67  94 133 168 205 279 313 377
#     4  11  24  40  65  96 128 174 211 267 324 379
#
# _framework density 24.793737
#
# number of rings (size 3 to 8) (size 9 to 14) (size 15 to 20)
#    0.000    2.182    1.818    1.091    2.545    2.909 
#    3.273    0.909    0.000    0.000    0.000    0.000 
#    0.000    0.000    0.000    0.000    0.000    0.000 
#
# Total GULP energy -123075.190507 kJ/mol
# GULP energy per Si atom -5594.326841 kJ/mol
# Density = 2.473731 g / cm^3
# Si number density = 24.793737 Si / 1000 Ang^3
#
#
#
# Elastic Constant Matrix: (Units=GPa)
#
#
# Indices 1 2 3 4 5 6 
#
# 1 69.2884 16.9132 22.3197 0.0000 -3.0980 0.0000
# 2 16.9132 84.9193 45.7923 0.0000 -1.0563 0.0000
# 3 22.3197 45.7923 142.2541 0.0000 -1.4830 0.0000
# 4 0.0000 0.0000 0.0000 37.1983 0.0000 3.2279
# 5 -3.0980 -1.0563 -1.4830 0.0000 37.5942 0.0000
# 6 0.0000 0.0000 0.0000 3.2279 0.0000 41.4505
#
#
#
# Elastic Compliance Matrix: (Units=1/GPa)
#
#
# Indices 1 2 3 4 5 6 
#
# 1 0.015569 -0.002149 -0.001739 0.000000 0.001154 0.000000
# 2 -0.002149 0.014548 -0.004345 0.000000 0.000060 0.000000
# 3 -0.001739 -0.004345 0.008702 0.000000 0.000078 0.000000
# 4 0.000000 0.000000 0.000000 0.027066 0.000000 -0.002108
# 5 0.001154 0.000060 0.000078 0.000000 0.026700 0.000000
# 6 0.000000 0.000000 0.000000 -0.002108 0.000000 0.024289
#
#
# Mechanical properties :
#
#
# Convention : Reuss Voigt Hill
#
# Bulk Modulus (GPa) = 44.73744 51.83471 48.28608
# Shear Modulus (GPa) = 35.51384 37.34436 36.42910
#
# Velocity S-wave (km/s) = 3.78877 3.88519 3.83729
# Velocity P-wave (km/s) = 6.10105 6.40922 6.25703
#
# Compressibility (1/GPa) = 0.02235264
#
# Stress axis : x y z
#
# Youngs Moduli (GPa) = 64.23143 68.73927 114.91483
#
# Poissons Ratio (x) = 0.14770 0.19984
# Poissons Ratio (y) = 0.13801 0.49933
# Poissons Ratio (z) = 0.11170 0.29869
#
# Static dielectric constant tensor:
#      x y z
#    x 2.061040 0.000000 0.057630 
#    y 0.000000 1.960790 0.000000 
#    z 0.057630 0.000000 1.917290 
# 
# From -- ./inp_files/117907.got.cif
#   From: 2010.05.17/outbox.cif.g08.bks.cpg/sg15_59_cif.got.tgz:117907.got - 2010.06.03 18:47:42.
