data_PCOD9278124
_publ_section_title
;
Structure prediction by ZEFSAII (Michael W. Deem and Ramdas Pophale) SiO2 
 PCOD9278124
Probable space group: C 2/C
;
_chemical_formula_sum "Si O2"
_cell_formula_units_Z 36
_cell_length_a 21.562589
_cell_length_b 9.996845
_cell_length_c 13.829523
_cell_angle_alpha 90.000000
_cell_angle_beta 143.185965
_cell_angle_gamma 90.000000
_cell_volume 1786.311382
_symmetry_space_group_name_H-M "C 2/C"
_symmetry_group_IT_number 15
_symmetry_cell_setting 'monoclinic'
loop_
_space_group_symop_operation_xyz
x,y,z
-x,y,1/2-z
-x,-y,-z
x,-y,1/2+z
1/2+x,1/2+y,z
1/2-x,1/2+y,1/2-z
1/2-x,1/2-y,-z
1/2+x,1/2-y,1/2+z
loop_
_atom_site_type_symbol
_atom_site_label
_atom_site_fract_x
_atom_site_fract_y
_atom_site_fract_z
Si Si1 0.400961 0.902545 0.871963
Si Si2 0.000000 0.064195 0.250000
Si Si3 0.275963 0.536438 0.971032
Si Si4 0.023745 0.148581 0.062851
Si Si5 0.758094 0.332308 0.867055
O O1 0.337909 0.896695 0.893276
O O2 0.316195 0.950651 0.688891
O O3 0.446946 0.754000 0.918864
O O4 0.500000 0.000000 0.000000
O O5 0.106936 0.981338 0.390506
O O6 0.014659 0.150313 0.169402
O O7 0.285088 0.680077 0.928323
O O8 0.248769 0.576834 0.046192
O O9 0.141704 0.177335 0.181800
O O10 0.000000 0.000000 0.000000
#
# Coordination Sequence:
#
# PCOD9278124 Si02
#       5
#     8   4   8   8   8
#     4  12  24  40  68 103 132 171 232 284 333 399
#     4  10  20  42  66  92 132 182 224 258 344 412
#     4  10  21  40  66 100 129 180 225 278 327 407
#     4  11  23  40  65  94 134 180 217 279 342 405
#     4  10  22  39  65  95 135 172 229 273 339 403
#
# _framework density 20.153262000000002
#
# number of rings (size 3 to 8) (size 9 to 14) (size 15 to 20)
#    0.000    1.333    4.444    1.333    0.000    0.889 
#    0.000    6.667    0.000    0.000    0.000    0.000 
#    0.000    0.000    0.000    0.000    0.000    0.000 
#
# Total GULP energy -100501.582595 kJ/mol
# GULP energy per Si atom -5583.421255 kJ/mol
# Density = 2.010739 g / cm^3
# Si number density = 20.153262 Si / 1000 Ang^3
#
#
#
# Elastic Constant Matrix: (Units=GPa)
#
#
# Indices 1 2 3 4 5 6 
#
# 1 105.7710 43.2997 58.3209 0.0000 33.2637 0.0000
# 2 43.2997 86.6682 60.4606 0.0000 9.5042 0.0000
# 3 58.3209 60.4606 164.0277 0.0000 35.3150 0.0000
# 4 0.0000 0.0000 0.0000 49.7619 0.0000 5.6795
# 5 33.2637 9.5042 35.3150 0.0000 36.6120 0.0000
# 6 0.0000 0.0000 0.0000 5.6795 0.0000 19.7457
#
#
#
# Elastic Compliance Matrix: (Units=1/GPa)
#
#
# Indices 1 2 3 4 5 6 
#
# 1 0.016390 -0.006230 -0.000850 0.000000 -0.012454 0.000000
# 2 -0.006230 0.018004 -0.005848 0.000000 0.006627 0.000000
# 3 -0.000850 -0.005848 0.010174 0.000000 -0.007523 0.000000
# 4 0.000000 0.000000 0.000000 0.020778 0.000000 -0.005976
# 5 -0.012454 0.006627 -0.007523 0.000000 0.044165 0.000000
# 6 0.000000 0.000000 0.000000 -0.005976 0.000000 0.052363
#
#
# Mechanical properties :
#
#
# Convention : Reuss Voigt Hill
#
# Bulk Modulus (GPa) = 53.44083 75.62548 64.53315
# Shear Modulus (GPa) = 25.77773 34.18297 29.98035
#
# Velocity S-wave (km/s) = 3.58031 4.12290 3.86115
# Velocity P-wave (km/s) = 6.60805 7.76345 7.20893
#
# Compressibility (1/GPa) = 0.01871229
#
# Stress axis : x y z
#
# Youngs Moduli (GPa) = 61.01283 55.54474 98.28970
#
# Poissons Ratio (x) = 0.34604 0.08353
# Poissons Ratio (y) = 0.38010 0.57479
# Poissons Ratio (z) = 0.05185 0.32482
#
# Static dielectric constant tensor:
#      x y z
#    x 1.724950 0.000000 0.008460 
#    y 0.000000 1.736610 0.000000 
#    z 0.008460 0.000000 1.803950 
# 
# From -- ./inp_files/159046.got.cif
#   From: 2010.05.17/outbox.cif.g08.bks.cpg/sg15_80_cif.got.tgz:159046.got - 2010.06.03 18:47:42.
