data_PCOD9278423
_publ_section_title
;
Structure prediction by ZEFSAII (Michael W. Deem and Ramdas Pophale) SiO2 
 PCOD9278423
Probable space group: C 2/C
;
_chemical_formula_sum "Si O2"
_cell_formula_units_Z 56
_cell_length_a 9.281863
_cell_length_b 23.303973
_cell_length_c 18.304177
_cell_angle_alpha 90.000000
_cell_angle_beta 130.207366
_cell_angle_gamma 90.000000
_cell_volume 3023.747596
_symmetry_space_group_name_H-M "C 2/C"
_symmetry_group_IT_number 15
_symmetry_cell_setting 'monoclinic'
loop_
_space_group_symop_operation_xyz
x,y,z
-x,y,1/2-z
-x,-y,-z
x,-y,1/2+z
1/2+x,1/2+y,z
1/2-x,1/2+y,1/2-z
1/2-x,1/2-y,-z
1/2+x,1/2-y,1/2+z
loop_
_atom_site_type_symbol
_atom_site_label
_atom_site_fract_x
_atom_site_fract_y
_atom_site_fract_z
Si Si1 0.589952 0.115814 0.947873
Si Si2 0.649259 0.009802 0.483813
Si Si3 0.748529 0.218665 0.921178
Si Si4 0.849745 0.809962 0.013407
Si Si5 0.207032 0.837219 0.838335
Si Si6 0.972776 0.613284 0.156492
Si Si7 0.339777 0.400079 0.137133
O O1 0.623803 0.162243 0.895288
O O2 0.368134 0.110521 0.895523
O O3 0.674785 0.053035 0.958416
O O4 0.700685 0.136726 0.057416
O O5 0.561861 0.054295 0.398059
O O6 0.819899 0.043388 0.579267
O O7 0.500000 0.000000 0.500000
O O8 0.692837 0.268843 0.846918
O O9 0.956710 0.199991 0.965461
O O10 0.750000 0.250000 0.000000
O O11 0.880205 0.846482 0.097208
O O12 0.750000 0.750000 0.000000
O O13 0.707433 0.846970 0.917968
O O14 0.350539 0.854066 0.821552
O O15 0.000000 0.859498 0.750000
O O16 0.000000 0.603168 0.250000
O O17 0.500000 0.406366 0.250000
#
# Coordination Sequence:
#
# PCOD9278423 Si02
#       7
#     8   8   8   8   8   8   8
#     4  10  20  43  63  87 127 164 207 262 310 379
#     4   9  18  42  66  85 128 169 206 265 316 373
#     4  10  22  38  60  86 120 161 203 251 320 376
#     4  11  20  41  62  85 126 167 203 264 318 375
#     4  11  22  39  61  93 124 164 207 255 322 380
#     4  11  23  39  62  99 125 159 224 264 309 376
#     4  10  21  38  63  91 117 167 217 255 314 378
#
# _framework density 18.520064999999999
#
# number of rings (size 3 to 8) (size 9 to 14) (size 15 to 20)
#    0.000    1.714    5.714    0.857    4.000    2.286 
#    0.000    6.429    0.000    0.000    0.000    0.000 
#    0.000    0.000    0.000    0.000    0.000    0.000 
#
# Total GULP energy -156163.862158 kJ/mol
# GULP energy per Si atom -5577.280791 kJ/mol
# Density = 1.847791 g / cm^3
# Si number density = 18.520065 Si / 1000 Ang^3
#
#
#
# Elastic Constant Matrix: (Units=GPa)
#
#
# Indices 1 2 3 4 5 6 
#
# 1 105.6114 47.0288 49.6965 0.0000 6.1525 0.0000
# 2 47.0288 149.7287 49.2721 0.0000 -10.8719 0.0000
# 3 49.6965 49.2721 137.5249 0.0000 0.2576 0.0000
# 4 0.0000 0.0000 0.0000 2.6262 0.0000 -4.6885
# 5 6.1525 -10.8719 0.2576 0.0000 33.0136 0.0000
# 6 0.0000 0.0000 0.0000 -4.6885 0.0000 32.1925
#
#
#
# Elastic Compliance Matrix: (Units=1/GPa)
#
#
# Indices 1 2 3 4 5 6 
#
# 1 0.012667 -0.003081 -0.003467 0.000000 -0.003348 0.000000
# 2 -0.003081 0.008535 -0.001951 0.000000 0.003400 0.000000
# 3 -0.003467 -0.001951 0.009224 0.000000 -0.000068 0.000000
# 4 0.000000 0.000000 0.000000 0.514572 0.000000 0.074942
# 5 -0.003348 0.003400 -0.000068 0.000000 0.032035 0.000000
# 6 0.000000 0.000000 0.000000 0.074942 0.000000 0.041978
#
#
# Mechanical properties :
#
#
# Convention : Reuss Voigt Hill
#
# Bulk Modulus (GPa) = 74.47383 76.09552 75.28467
# Shear Modulus (GPa) = 7.80659 30.02431 18.91545
#
# Velocity S-wave (km/s) = 2.05532 4.03075 3.19932
# Velocity P-wave (km/s) = 6.77734 7.92717 7.37469
#
# Compressibility (1/GPa) = 0.01342754
#
# Stress axis : x y z
#
# Youngs Moduli (GPa) = 78.94391 117.15988 108.41773
#
# Poissons Ratio (x) = 0.36094 0.37593
# Poissons Ratio (y) = 0.24321 0.21154
# Poissons Ratio (z) = 0.27373 0.22859
#
# Static dielectric constant tensor:
#      x y z
#    x 1.627760 0.000000 -0.002680 
#    y 0.000000 1.647670 0.000000 
#    z -0.002680 0.000000 1.630960 
# 
# From -- ./inp_files/193318.got.cif
#   From: 2010.05.17/outbox.cif.g08.bks.cpg/sg15_97_cif.got.tgz:193318.got - 2010.06.03 18:47:42.
