data_PCOD9278768
_publ_section_title
;
Structure prediction by ZEFSAII (Michael W. Deem and Ramdas Pophale) SiO2 
 PCOD9278768
Probable space group: C 2/C
;
_chemical_formula_sum "Si O2"
_cell_formula_units_Z 36
_cell_length_a 12.474261
_cell_length_b 12.660489
_cell_length_c 10.089753
_cell_angle_alpha 90.000000
_cell_angle_beta 71.062380
_cell_angle_gamma 90.000000
_cell_volume 1507.226177
_symmetry_space_group_name_H-M "C 2/C"
_symmetry_group_IT_number 15
_symmetry_cell_setting 'monoclinic'
loop_
_space_group_symop_operation_xyz
x,y,z
-x,y,1/2-z
-x,-y,-z
x,-y,1/2+z
1/2+x,1/2+y,z
1/2-x,1/2+y,1/2-z
1/2-x,1/2-y,-z
1/2+x,1/2-y,1/2+z
loop_
_atom_site_type_symbol
_atom_site_label
_atom_site_fract_x
_atom_site_fract_y
_atom_site_fract_z
Si Si1 0.155227 0.334072 0.364143
Si Si2 0.796979 0.894451 0.049934
Si Si3 0.094622 0.671237 0.469166
Si Si4 0.000000 0.746028 0.250000
Si Si5 0.165484 0.126731 0.490892
O O1 0.225777 0.376748 0.213242
O O2 0.215213 0.366926 0.478029
O O3 0.796702 0.392724 0.528455
O O4 0.023341 0.363933 0.417533
O O5 0.877244 0.792862 0.001705
O O6 0.858126 0.006020 0.030893
O O7 0.072171 0.675640 0.321750
O O8 0.663240 0.706135 0.367812
O O9 0.077083 0.821359 0.128897
#
# Coordination Sequence:
#
# PCOD9278768 Si02
#       5
#     8   8   8   4   8
#     4  10  22  45  66  97 136 178 212 281 327 399
#     4  11  23  43  67 108 125 174 227 279 319 395
#     4  10  23  42  67  96 138 171 220 270 335 378
#     4  10  20  46  64  96 134 182 212 278 328 400
#     4  10  23  43  71  96 134 175 224 266 345 381
#
# _framework density 23.884937000000001
#
# number of rings (size 3 to 8) (size 9 to 14) (size 15 to 20)
#    0.000    1.778    2.222    0.667    0.000    8.000 
#    8.000    2.222    0.000    0.000    0.000    0.000 
#    0.000    0.000    0.000    0.000    0.000    0.000 
#
# Total GULP energy -100772.340483 kJ/mol
# GULP energy per Si atom -5598.463360 kJ/mol
# Density = 2.383057 g / cm^3
# Si number density = 23.884937 Si / 1000 Ang^3
#
#
#
# Elastic Constant Matrix: (Units=GPa)
#
#
# Indices 1 2 3 4 5 6 
#
# 1 112.6455 -17.8141 15.8066 0.0000 8.1002 0.0000
# 2 -17.8141 86.7172 8.6023 0.0000 11.9940 0.0000
# 3 15.8066 8.6023 111.8829 0.0000 -2.5422 0.0000
# 4 0.0000 0.0000 0.0000 24.1516 0.0000 3.4303
# 5 8.1002 11.9940 -2.5422 0.0000 38.2930 0.0000
# 6 0.0000 0.0000 0.0000 3.4303 0.0000 0.3943
#
#
#
# Elastic Compliance Matrix: (Units=1/GPa)
#
#
# Indices 1 2 3 4 5 6 
#
# 1 0.009728 0.002572 -0.001640 0.000000 -0.002972 0.000000
# 2 0.002572 0.012850 -0.001457 0.000000 -0.004666 0.000000
# 3 -0.001640 -0.001457 0.009314 0.000000 0.001422 0.000000
# 4 0.000000 0.000000 0.000000 -0.175789 0.000000 1.529206
# 5 -0.002972 -0.004666 0.001422 0.000000 0.028299 0.000000
# 6 0.000000 0.000000 0.000000 1.529206 0.000000-10.766721
#
#
# Mechanical properties :
#
#
# Convention : Reuss Voigt Hill
#
# Bulk Modulus (GPa) = 32.42320 36.04836 34.23578
# Shear Modulus (GPa) = -0.45994 32.87784 16.20895
#
# Velocity S-wave (km/s) = -0.43930 3.71416 2.60787
# Velocity P-wave (km/s) = 3.65334 5.78952 4.84074
#
# Compressibility (1/GPa) = 0.03084211
#
# Stress axis : x y z
#
# Youngs Moduli (GPa) = 102.79621 77.82098 107.36622
#
# Poissons Ratio (x) = -0.20017 0.17604
# Poissons Ratio (y) = -0.26441 0.15647
# Poissons Ratio (z) = 0.16855 0.11342
#
# Static dielectric constant tensor:
#      x y z
#    x 1.952660 0.000000 0.003790 
#    y 0.000000 1.915350 0.000000 
#    z 0.003790 0.000000 1.909820 
# 
# From -- ./inp_files/141611.got.cif
#   From: 2010.05.17/outbox.cif.g08.bks.cpg/sg15_71_cif.got.tgz:141611.got - 2010.06.03 18:47:42.
