data_PCOD9278374
_publ_section_title
;
Structure prediction by ZEFSAII (Michael W. Deem and Ramdas Pophale) SiO2 
 PCOD9278374
Probable space group: C 2/C
;
_chemical_formula_sum "Si O2"
_cell_formula_units_Z 56
_cell_length_a 7.615390
_cell_length_b 23.035137
_cell_length_c 16.220121
_cell_angle_alpha 90.000000
_cell_angle_beta 54.889785
_cell_angle_gamma 90.000000
_cell_volume 2327.637768
_symmetry_space_group_name_H-M "C 2/C"
_symmetry_group_IT_number 15
_symmetry_cell_setting 'monoclinic'
loop_
_space_group_symop_operation_xyz
x,y,z
-x,y,1/2-z
-x,-y,-z
x,-y,1/2+z
1/2+x,1/2+y,z
1/2-x,1/2+y,1/2-z
1/2-x,1/2-y,-z
1/2+x,1/2-y,1/2+z
loop_
_atom_site_type_symbol
_atom_site_label
_atom_site_fract_x
_atom_site_fract_y
_atom_site_fract_z
Si Si1 0.071070 0.174418 0.445410
Si Si2 0.106936 0.158975 0.832228
Si Si3 0.961232 0.619737 0.435120
Si Si4 0.395349 0.988688 0.411541
Si Si5 0.166948 0.027131 0.797422
Si Si6 0.864123 0.918358 0.885635
Si Si7 0.834661 0.696354 0.620048
O O1 0.308481 0.157219 0.416069
O O2 0.002319 0.130037 0.393890
O O3 0.070304 0.240036 0.414634
O O4 0.904340 0.167479 0.566976
O O5 0.065613 0.091063 0.824503
O O6 0.309874 0.176052 0.721318
O O7 0.906741 0.195910 0.852467
O O8 0.870073 0.554501 0.450311
O O9 0.946203 0.651860 0.527263
O O10 0.216762 0.610080 0.353905
O O11 0.640387 0.976153 0.320351
O O12 0.265934 0.980925 0.361847
O O13 0.304618 0.945676 0.503614
O O14 0.008811 0.973946 0.829065
#
# Coordination Sequence:
#
# PCOD9278374 Si02
#       7
#     8   8   8   8   8   8   8
#     4  11  23  46  69 100 146 185 246 300 362 424
#     4  10  20  42  72  95 137 191 243 296 355 428
#     4  11  23  41  67 100 141 183 233 291 360 425
#     4  11  23  42  66 105 145 187 234 298 374 431
#     4  11  23  41  71 106 141 187 245 292 370 443
#     4  12  23  42  73 104 142 188 230 309 366 428
#     4  10  23  42  67 104 132 197 244 294 356 433
#
# _framework density 24.058727000000001
#
# number of rings (size 3 to 8) (size 9 to 14) (size 15 to 20)
#    0.000    1.143    2.857    5.143    0.000    3.429 
#    7.714    0.000    0.000    0.000    0.000    0.000 
#    0.000    0.000    0.000    0.000    0.000    0.000 
#
# Total GULP energy -156710.752133 kJ/mol
# GULP energy per Si atom -5596.812576 kJ/mol
# Density = 2.400397 g / cm^3
# Si number density = 24.058727 Si / 1000 Ang^3
#
#
#
# Elastic Constant Matrix: (Units=GPa)
#
#
# Indices 1 2 3 4 5 6 
#
# 1 91.1971 23.9594 26.3970 0.0000 5.1131 0.0000
# 2 23.9594 190.3945 66.0082 0.0000 7.2763 0.0000
# 3 26.3970 66.0082 104.3638 0.0000 6.0067 0.0000
# 4 0.0000 0.0000 0.0000 25.7578 0.0000 -5.3946
# 5 5.1131 7.2763 6.0067 0.0000 24.8028 0.0000
# 6 0.0000 0.0000 0.0000 -5.3946 0.0000 26.9449
#
#
#
# Elastic Compliance Matrix: (Units=1/GPa)
#
#
# Indices 1 2 3 4 5 6 
#
# 1 0.011950 -0.000545 -0.002581 0.000000 -0.001678 0.000000
# 2 -0.000545 0.006775 -0.004096 0.000000 -0.000883 0.000000
# 3 -0.002581 -0.004096 0.012906 0.000000 -0.001392 0.000000
# 4 0.000000 0.000000 0.000000 0.040522 0.000000 0.008113
# 5 -0.001678 -0.000883 -0.001392 0.000000 0.041260 0.000000
# 6 0.000000 0.000000 0.000000 0.008113 0.000000 0.038737
#
#
# Mechanical properties :
#
#
# Convention : Reuss Voigt Hill
#
# Bulk Modulus (GPa) = 58.18889 68.74276 63.46582
# Shear Modulus (GPa) = 29.01534 33.47382 31.24458
#
# Velocity S-wave (km/s) = 3.47655 3.73411 3.60763
# Velocity P-wave (km/s) = 6.35247 6.87214 6.61741
#
# Compressibility (1/GPa) = 0.01718541
#
# Stress axis : x y z
#
# Youngs Moduli (GPa) = 83.68456 147.60824 77.48525
#
# Poissons Ratio (x) = 0.08040 0.20002
# Poissons Ratio (y) = 0.04558 0.31740
# Poissons Ratio (z) = 0.21602 0.60464
#
# Static dielectric constant tensor:
#      x y z
#    x 1.950320 0.000000 -0.003950 
#    y 0.000000 1.828530 0.000000 
#    z -0.003950 0.000000 1.992670 
# 
# From -- ./inp_files/240207.got.cif
#   From: 2010.05.17/outbox.cif.g08.bks.cpg/sg15_121_cif.got.tgz:240207.got - 2010.06.03 18:47:42.
