data_PCOD9278745
_publ_section_title
;
Structure prediction by ZEFSAII (Michael W. Deem and Ramdas Pophale) SiO2 
 PCOD9278745
Probable space group: C 2/C
;
_chemical_formula_sum "Si O2"
_cell_formula_units_Z 40
_cell_length_a 8.227970
_cell_length_b 18.289253
_cell_length_c 11.082015
_cell_angle_alpha 90.000000
_cell_angle_beta 74.463747
_cell_angle_gamma 90.000000
_cell_volume 1606.725243
_symmetry_space_group_name_H-M "C 2/C"
_symmetry_group_IT_number 15
_symmetry_cell_setting 'monoclinic'
loop_
_space_group_symop_operation_xyz
x,y,z
-x,y,1/2-z
-x,-y,-z
x,-y,1/2+z
1/2+x,1/2+y,z
1/2-x,1/2+y,1/2-z
1/2-x,1/2-y,-z
1/2+x,1/2-y,1/2+z
loop_
_atom_site_type_symbol
_atom_site_label
_atom_site_fract_x
_atom_site_fract_y
_atom_site_fract_z
Si Si1 0.279797 0.364440 0.394500
Si Si2 0.742991 0.027595 0.328695
Si Si3 0.321666 0.251859 0.757347
Si Si4 0.442983 0.601085 0.096502
Si Si5 0.533385 0.160200 0.385063
O O1 0.228996 0.442304 0.350023
O O2 0.296887 0.305351 0.287405
O O3 0.428973 0.384920 0.457626
O O4 0.131483 0.328196 0.504637
O O5 0.799341 0.047709 0.180592
O O6 0.581388 0.075485 0.390526
O O7 0.888821 0.063621 0.385430
O O8 0.500000 0.212521 0.750000
O O9 0.394106 0.321097 0.666312
O O10 0.197575 0.289992 0.879559
O O11 0.500000 0.170973 0.250000
#
# Coordination Sequence:
#
# PCOD9278745 Si02
#       5
#     8   8   8   8   8
#     4  12  24  40  72 102 126 179 235 277 335 402
#     4  10  21  42  67  97 135 179 220 275 342 402
#     4  11  23  46  67  95 140 181 228 280 341 406
#     4  10  20  45  68  90 142 183 215 272 342 414
#     4  11  22  42  68  92 134 179 220 283 337 405
#
# _framework density 24.895358999999999
#
# number of rings (size 3 to 8) (size 9 to 14) (size 15 to 20)
#    0.000    1.200    8.000    1.800    0.000    1.600 
#    7.200    0.000    0.000    0.000    0.000    0.000 
#    0.000    0.000    0.000    0.000    0.000    0.000 
#
# Total GULP energy -111763.291208 kJ/mol
# GULP energy per Si atom -5588.164560 kJ/mol
# Density = 2.483870 g / cm^3
# Si number density = 24.895359 Si / 1000 Ang^3
#
#
#
# Elastic Constant Matrix: (Units=GPa)
#
#
# Indices 1 2 3 4 5 6 
#
# 1 83.4817 31.9045 8.2651 0.0000 -3.8972 0.0000
# 2 31.9045 156.1428 44.4073 0.0000 12.3302 0.0000
# 3 8.2651 44.4073 39.3885 0.0000 4.0936 0.0000
# 4 0.0000 0.0000 0.0000 21.0834 0.0000 8.0031
# 5 -3.8972 12.3302 4.0936 0.0000 26.0397 0.0000
# 6 0.0000 0.0000 0.0000 8.0031 0.0000 22.9391
#
#
#
# Elastic Compliance Matrix: (Units=1/GPa)
#
#
# Indices 1 2 3 4 5 6 
#
# 1 0.013280 -0.003074 0.000327 0.000000 0.003392 0.000000
# 2 -0.003074 0.010350 -0.010640 0.000000 -0.003688 0.000000
# 3 0.000327 -0.010640 0.037398 0.000000 -0.000792 0.000000
# 4 0.000000 0.000000 0.000000 0.054671 0.000000 -0.019074
# 5 0.003392 -0.003688 -0.000792 0.000000 0.040781 0.000000
# 6 0.000000 0.000000 0.000000 -0.019074 0.000000 0.050248
#
#
# Mechanical properties :
#
#
# Convention : Reuss Voigt Hill
#
# Bulk Modulus (GPa) = 29.19523 49.79631 39.49577
# Shear Modulus (GPa) = 20.41477 26.97485 23.69481
#
# Velocity S-wave (km/s) = 2.86671 3.29527 3.08843
# Velocity P-wave (km/s) = 4.76550 5.87572 5.34949
#
# Compressibility (1/GPa) = 0.03425217
#
# Stress axis : x y z
#
# Youngs Moduli (GPa) = 75.30391 96.61916 26.73946
#
# Poissons Ratio (x) = 0.29703 -0.00874
# Poissons Ratio (y) = 0.23150 0.28452
# Poissons Ratio (z) = -0.02462 1.02806
#
# Static dielectric constant tensor:
#      x y z
#    x 2.103070 0.000000 0.062020 
#    y 0.000000 1.901710 0.000000 
#    z 0.062020 0.000000 2.030610 
# 
# From -- ./inp_files/76666.got.cif
#   From: 2010.05.17/outbox.cif.g08.bks.cpg/sg15_39_cif.got.tgz:76666.got - 2010.06.03 18:47:42.
