data_PCOD9278774
_publ_section_title
;
Structure prediction by ZEFSAII (Michael W. Deem and Ramdas Pophale) SiO2 
 PCOD9278774
Probable space group: C 2/C
;
_chemical_formula_sum "Si O2"
_cell_formula_units_Z 44
_cell_length_a 10.826058
_cell_length_b 20.632139
_cell_length_c 8.551570
_cell_angle_alpha 90.000000
_cell_angle_beta 84.101985
_cell_angle_gamma 90.000000
_cell_volume 1900.007705
_symmetry_space_group_name_H-M "C 2/C"
_symmetry_group_IT_number 15
_symmetry_cell_setting 'monoclinic'
loop_
_space_group_symop_operation_xyz
x,y,z
-x,y,1/2-z
-x,-y,-z
x,-y,1/2+z
1/2+x,1/2+y,z
1/2-x,1/2+y,1/2-z
1/2-x,1/2-y,-z
1/2+x,1/2-y,1/2+z
loop_
_atom_site_type_symbol
_atom_site_label
_atom_site_fract_x
_atom_site_fract_y
_atom_site_fract_z
Si Si1 0.323561 0.448374 0.517242
Si Si2 0.789384 0.648344 0.268576
Si Si3 0.500000 0.152952 0.750000
Si Si4 0.500000 0.255407 0.250000
Si Si5 0.620324 0.733596 0.429275
Si Si6 0.615470 0.050929 0.506025
Si Si7 0.500000 0.502911 0.750000
O O1 0.234573 0.387907 0.562905
O O2 0.233629 0.509499 0.538461
O O3 0.427450 0.457856 0.636853
O O4 0.398013 0.452740 0.347620
O O5 0.656523 0.685531 0.281846
O O6 0.887421 0.705513 0.235535
O O7 0.840040 0.591138 0.152062
O O8 0.433715 0.201216 0.637437
O O9 0.584850 0.104510 0.639295
O O10 0.467700 0.291005 0.417188
O O11 0.750000 0.750000 0.500000
O O12 0.500000 0.000000 0.500000
#
# Coordination Sequence:
#
# PCOD9278774 Si02
#       7
#     8   8   4   4   8   8   4
#     4  11  23  43  68 104 139 195 235 301 375 440
#     4  11  22  42  71  99 147 181 248 298 375 440
#     4  12  26  48  74 112 146 192 258 308 394 446
#     4  10  20  46  66 104 135 183 246 310 364 432
#     4  10  25  44  72  99 143 197 237 308 363 448
#     4  12  25  44  78 116 145 184 246 334 382 439
#     4  10  24  42  60  92 149 185 242 272 362 460
#
# _framework density 23.157800000000002
#
# number of rings (size 3 to 8) (size 9 to 14) (size 15 to 20)
#    0.000    1.091    3.636    2.182    2.545    2.182 
#    0.000    0.000    0.000    0.000    0.000    0.000 
#    0.000    0.000    0.000    0.000    0.000    0.000 
#
# Total GULP energy -122712.102462 kJ/mol
# GULP energy per Si atom -5577.822839 kJ/mol
# Density = 2.310509 g / cm^3
# Si number density = 23.157800 Si / 1000 Ang^3
#
#
#
# Elastic Constant Matrix: (Units=GPa)
#
#
# Indices 1 2 3 4 5 6 
#
# 1 86.9036 24.2952 40.3720 0.0000 -21.7722 0.0000
# 2 24.2952 78.7428 26.0935 0.0000 -28.4847 0.0000
# 3 40.3720 26.0935 106.6166 0.0000 -43.2830 0.0000
# 4 0.0000 0.0000 0.0000 36.9672 0.0000 -7.4774
# 5 -21.7722 -28.4847 -43.2830 0.0000 52.3005 0.0000
# 6 0.0000 0.0000 0.0000 -7.4774 0.0000 21.9945
#
#
#
# Elastic Compliance Matrix: (Units=1/GPa)
#
#
# Indices 1 2 3 4 5 6 
#
# 1 0.014570 -0.002686 -0.004505 0.000000 0.000874 0.000000
# 2 -0.002686 0.016333 0.000267 0.000000 0.007998 0.000000
# 3 -0.004505 0.000267 0.015538 0.000000 0.011129 0.000000
# 4 0.000000 0.000000 0.000000 0.029049 0.000000 0.009876
# 5 0.000874 0.007998 0.011129 0.000000 0.033050 0.000000
# 6 0.000000 0.000000 0.000000 0.009876 0.000000 0.048823
#
#
# Mechanical properties :
#
#
# Convention : Reuss Voigt Hill
#
# Bulk Modulus (GPa) = 30.68203 50.42049 40.55126
# Shear Modulus (GPa) = 27.46109 34.35258 30.90684
#
# Velocity S-wave (km/s) = 3.44732 3.85569 3.65721
# Velocity P-wave (km/s) = 5.39659 6.45303 5.94831
#
# Compressibility (1/GPa) = 0.03259237
#
# Stress axis : x y z
#
# Youngs Moduli (GPa) = 68.63539 61.22463 64.35887
#
# Poissons Ratio (x) = 0.16447 0.28992
# Poissons Ratio (y) = 0.18438 -0.01717
# Poissons Ratio (z) = 0.30918 -0.01634
#
# Static dielectric constant tensor:
#      x y z
#    x 1.877750 0.000000 0.001990 
#    y 0.000000 1.951520 0.000000 
#    z 0.001990 0.000000 1.961280 
# 
# From -- ./inp_files/30890.got.cif
#   From: 2010.05.17/outbox.cif.g08.bks.cpg/sg15_16_cif.got.tgz:30890.got - 2010.06.03 18:47:42.
