data_PCOD9278399
_publ_section_title
;
Structure prediction by ZEFSAII (Michael W. Deem and Ramdas Pophale) SiO2 
 PCOD9278399
Probable space group: C 2/C
;
_chemical_formula_sum "Si O2"
_cell_formula_units_Z 44
_cell_length_a 12.090466
_cell_length_b 24.079500
_cell_length_c 9.632823
_cell_angle_alpha 90.000000
_cell_angle_beta 35.048736
_cell_angle_gamma 90.000000
_cell_volume 1610.506511
_symmetry_space_group_name_H-M "C 2/C"
_symmetry_group_IT_number 15
_symmetry_cell_setting 'monoclinic'
loop_
_space_group_symop_operation_xyz
x,y,z
-x,y,1/2-z
-x,-y,-z
x,-y,1/2+z
1/2+x,1/2+y,z
1/2-x,1/2+y,1/2-z
1/2-x,1/2-y,-z
1/2+x,1/2-y,1/2+z
loop_
_atom_site_type_symbol
_atom_site_label
_atom_site_fract_x
_atom_site_fract_y
_atom_site_fract_z
Si Si1 0.629725 0.240576 0.014443
Si Si2 0.415806 0.111733 0.519827
Si Si3 0.695122 0.024621 0.230869
Si Si4 0.109856 0.189059 0.256921
Si Si5 0.935016 0.929903 0.003415
Si Si6 0.000000 0.639916 0.750000
O O1 0.613150 0.174890 0.996146
O O2 0.636690 0.278622 0.870773
O O3 0.877027 0.247506 0.803797
O O4 0.603773 0.081193 0.263122
O O5 0.213072 0.079212 0.715812
O O6 0.452092 0.111093 0.650906
O O7 0.500000 0.000000 0.500000
O O8 0.813497 0.974459 0.035095
O O9 0.861310 0.044891 0.163375
O O10 0.000000 0.221838 0.250000
O O11 0.986578 0.132534 0.406740
O O12 0.311381 0.172138 0.987170
#
# Coordination Sequence:
#
# PCOD9278399 Si02
#       6
#     8   8   8   8   8   4
#     4  12  29  52  77 114 169 225 275 338 423 512
#     4  11  23  44  75 111 162 212 271 345 414 502
#     4   9  20  40  77 107 155 210 272 337 419 489
#     4  12  26  48  82 120 165 215 279 348 419 499
#     4  10  20  42  75 111 156 207 274 343 412 491
#     4  12  24  40  76 116 160 204 270 348 420 478
#
# _framework density 27.320599999999999
#
# number of rings (size 3 to 8) (size 9 to 14) (size 15 to 20)
#    0.000    1.091    3.636    2.182    1.273    0.727 
#    0.000    0.000   30.000    7.636    0.000    0.000 
#    0.000    0.000    0.000    0.000    0.000    0.000 
#
# Total GULP energy -122903.209768 kJ/mol
# GULP energy per Si atom -5586.509535 kJ/mol
# Density = 2.725842 g / cm^3
# Si number density = 27.320600 Si / 1000 Ang^3
#
#
#
# Elastic Constant Matrix: (Units=GPa)
#
#
# Indices 1 2 3 4 5 6 
#
# 1 202.6850 78.3547 77.0123 0.0000 -15.8521 0.0000
# 2 78.3547 212.8344 69.2437 0.0000 -30.2761 0.0000
# 3 77.0123 69.2437 233.8494 0.0000 -27.8909 0.0000
# 4 0.0000 0.0000 0.0000 37.4635 0.0000 -21.8285
# 5 -15.8521 -30.2761 -27.8909 0.0000 52.4280 0.0000
# 6 0.0000 0.0000 0.0000 -21.8285 0.0000 3.6061
#
#
#
# Elastic Compliance Matrix: (Units=1/GPa)
#
#
# Indices 1 2 3 4 5 6 
#
# 1 0.006201 -0.001786 -0.001508 0.000000 0.000041 0.000000
# 2 -0.001786 0.005995 -0.000895 0.000000 0.002446 0.000000
# 3 -0.001508 -0.000895 0.005255 0.000000 0.001823 0.000000
# 4 0.000000 0.000000 0.000000 -0.010563 0.000000 -0.063941
# 5 0.000041 0.002446 0.001823 0.000000 0.021468 0.000000
# 6 0.000000 0.000000 0.000000 -0.063941 0.000000 -0.109739
#
#
# Mechanical properties :
#
#
# Convention : Reuss Voigt Hill
#
# Bulk Modulus (GPa) = 110.23082 122.06560 116.14821
# Shear Modulus (GPa) = -71.44933 47.01671 -12.21631
#
# Velocity S-wave (km/s) = -5.11947 4.15290 -2.11688
# Velocity P-wave (km/s) = 2.34296 8.23234 6.05231
#
# Compressibility (1/GPa) = 0.00907187
#
# Stress axis : x y z
#
# Youngs Moduli (GPa) = 161.27604 166.79817 190.27900
#
# Poissons Ratio (x) = 0.29794 0.28698
# Poissons Ratio (y) = 0.28807 0.17035
# Poissons Ratio (z) = 0.24324 0.14933
#
# Static dielectric constant tensor:
#      x y z
#    x 2.298620 0.000000 -0.084370 
#    y 0.000000 2.229980 0.000000 
#    z -0.084370 0.000000 2.302880 
# 
# From -- ./inp_files/216737.got.cif
#   From: 2010.05.17/outbox.cif.g08.bks.cpg/sg15_109_cif.got.tgz:216737.got - 2010.06.03 18:47:42.
