data_PCOD9278071
_publ_section_title
;
Structure prediction by ZEFSAII (Michael W. Deem and Ramdas Pophale) SiO2 
 PCOD9278071
Probable space group: C 2/C
;
_chemical_formula_sum "Si O2"
_cell_formula_units_Z 48
_cell_length_a 17.071606
_cell_length_b 9.360421
_cell_length_c 20.699771
_cell_angle_alpha 90.000000
_cell_angle_beta 39.441239
_cell_angle_gamma 90.000000
_cell_volume 2101.381712
_symmetry_space_group_name_H-M "C 2/C"
_symmetry_group_IT_number 15
_symmetry_cell_setting 'monoclinic'
loop_
_space_group_symop_operation_xyz
x,y,z
-x,y,1/2-z
-x,-y,-z
x,-y,1/2+z
1/2+x,1/2+y,z
1/2-x,1/2+y,1/2-z
1/2-x,1/2-y,-z
1/2+x,1/2-y,1/2+z
loop_
_atom_site_type_symbol
_atom_site_label
_atom_site_fract_x
_atom_site_fract_y
_atom_site_fract_z
Si Si1 0.866036 0.447657 0.820508
Si Si2 0.441707 0.047014 0.126485
Si Si3 0.605535 0.681325 0.484191
Si Si4 0.615690 0.263931 0.633752
Si Si5 0.526755 0.368932 0.551607
Si Si6 0.337195 0.136351 0.069536
O O1 0.882723 0.481006 0.733505
O O2 0.749374 0.346072 0.907841
O O3 0.857459 0.595215 0.868228
O O4 0.000000 0.380641 0.750000
O O5 0.334612 0.062059 0.140525
O O6 0.532413 0.186333 0.062153
O O7 0.539118 0.928074 0.041214
O O8 0.536395 0.537181 0.549520
O O9 0.591926 0.679375 0.414063
O O10 0.500000 0.298174 0.750000
O O11 0.570453 0.306177 0.591863
O O12 0.725565 0.362038 0.591108
O O13 0.634286 0.303789 0.436695
#
# Coordination Sequence:
#
# PCOD9278071 Si02
#       6
#     8   8   8   8   8   8
#     4  11  24  43  68  97 131 184 225 279 344 404
#     4  10  24  43  65  96 140 182 221 281 354 406
#     4  10  23  44  67  99 138 178 219 284 350 402
#     4  11  23  38  69 103 129 175 236 280 324 403
#     4  10  21  42  69  96 132 175 228 280 336 406
#     4  10  20  42  65  95 134 181 227 279 338 405
#
# _framework density 22.842116000000001
#
# number of rings (size 3 to 8) (size 9 to 14) (size 15 to 20)
#    0.000    1.667    1.667    2.500    4.667    0.667 
#    3.000    0.000    0.000    0.000    0.000    0.000 
#    0.000    0.000    0.000    0.000    0.000    0.000 
#
# Total GULP energy -133669.258579 kJ/mol
# GULP energy per Si atom -5569.552441 kJ/mol
# Density = 2.279013 g / cm^3
# Si number density = 22.842116 Si / 1000 Ang^3
#
#
#
# Elastic Constant Matrix: (Units=GPa)
#
#
# Indices 1 2 3 4 5 6 
#
# 1 147.1092 46.9668 26.4202 0.0000 17.8577 0.0000
# 2 46.9668 109.6012 20.1245 0.0000 4.9282 0.0000
# 3 26.4202 20.1245 66.8342 0.0000 11.0049 0.0000
# 4 0.0000 0.0000 0.0000 24.5280 0.0000 6.2683
# 5 17.8577 4.9282 11.0049 0.0000 37.9678 0.0000
# 6 0.0000 0.0000 0.0000 6.2683 0.0000 36.7005
#
#
#
# Elastic Compliance Matrix: (Units=1/GPa)
#
#
# Indices 1 2 3 4 5 6 
#
# 1 0.008521 -0.003163 -0.001915 0.000000 -0.003042 0.000000
# 2 -0.003163 0.010839 -0.002128 0.000000 0.000698 0.000000
# 3 -0.001915 -0.002128 0.016977 0.000000 -0.003744 0.000000
# 4 0.000000 0.000000 0.000000 0.042630 0.000000 -0.007281
# 5 -0.003042 0.000698 -0.003744 0.000000 0.028763 0.000000
# 6 0.000000 0.000000 0.000000 -0.007281 0.000000 0.028491
#
#
# Mechanical properties :
#
#
# Convention : Reuss Voigt Hill
#
# Bulk Modulus (GPa) = 45.61241 56.72971 51.17106
# Shear Modulus (GPa) = 31.65732 35.17481 33.41606
#
# Velocity S-wave (km/s) = 3.72683 3.92843 3.82896
# Velocity P-wave (km/s) = 6.20733 6.74286 6.48063
#
# Compressibility (1/GPa) = 0.02192386
#
# Stress axis : x y z
#
# Youngs Moduli (GPa) = 117.36156 92.26131 58.90429
#
# Poissons Ratio (x) = 0.29181 0.11280
# Poissons Ratio (y) = 0.37120 0.12536
# Poissons Ratio (z) = 0.22475 0.19635
#
# Static dielectric constant tensor:
#      x y z
#    x 2.035290 0.000000 0.035740 
#    y 0.000000 1.902870 0.000000 
#    z 0.035740 0.000000 1.878020 
# 
# From -- ./inp_files/247295.got.cif
#   From: 2010.05.17/outbox.cif.g08.bks.cpg/sg15_124_cif.got.tgz:247295.got - 2010.06.03 18:47:42.
