data_PCOD9278348
_publ_section_title
;
Structure prediction by ZEFSAII (Michael W. Deem and Ramdas Pophale) SiO2 
 PCOD9278348
Probable space group: C 2/C
;
_chemical_formula_sum "Si O2"
_cell_formula_units_Z 56
_cell_length_a 13.422897
_cell_length_b 11.253798
_cell_length_c 18.082996
_cell_angle_alpha 90.000000
_cell_angle_beta 109.592968
_cell_angle_gamma 90.000000
_cell_volume 2573.428612
_symmetry_space_group_name_H-M "C 2/C"
_symmetry_group_IT_number 15
_symmetry_cell_setting 'monoclinic'
loop_
_space_group_symop_operation_xyz
x,y,z
-x,y,1/2-z
-x,-y,-z
x,-y,1/2+z
1/2+x,1/2+y,z
1/2-x,1/2+y,1/2-z
1/2-x,1/2-y,-z
1/2+x,1/2-y,1/2+z
loop_
_atom_site_type_symbol
_atom_site_label
_atom_site_fract_x
_atom_site_fract_y
_atom_site_fract_z
Si Si1 0.151504 0.229194 0.920303
Si Si2 0.999122 0.360769 0.987866
Si Si3 0.647470 0.871087 0.308637
Si Si4 0.715919 0.820907 0.629422
Si Si5 0.375098 0.854881 0.730349
Si Si6 0.957950 0.256691 0.350468
Si Si7 0.428047 0.518444 0.160251
O O1 0.059391 0.313377 0.930699
O O2 0.180147 0.273892 0.845160
O O3 0.105533 0.095556 0.896894
O O4 0.250000 0.250000 0.000000
O O5 0.874512 0.337130 0.953227
O O6 0.000000 0.500000 0.000000
O O7 0.056385 0.297247 0.070301
O O8 0.749212 0.815220 0.370330
O O9 0.551777 0.837364 0.338879
O O10 0.632482 0.792636 0.229968
O O11 0.648730 0.008068 0.293007
O O12 0.661526 0.835895 0.695468
O O13 0.817609 0.909628 0.649665
O O14 0.500000 0.834810 0.750000
O O15 0.996713 0.120901 0.356032
O O16 0.500000 0.481173 0.250000
#
# Coordination Sequence:
#
# PCOD9278348 Si02
#       7
#     8   8   8   8   8   8   8
#     4  12  29  44  65 103 144 189 231 297 359 417
#     4  12  25  43  69 103 145 183 237 292 356 421
#     4  10  21  42  69 101 127 179 240 282 344 419
#     4  11  25  41  70 105 129 189 233 290 356 412
#     4  12  23  44  70  95 141 183 240 292 345 429
#     4  10  20  42  71  94 137 182 228 284 348 418
#     4  11  24  47  71  99 146 184 235 295 358 430
#
# _framework density 21.760853000000001
#
# number of rings (size 3 to 8) (size 9 to 14) (size 15 to 20)
#    0.000    0.857    5.714    3.000    4.000    4.000 
#    0.000    0.000    0.000    0.000    0.000    0.000 
#    0.000    0.000    0.000    0.000    0.000    0.000 
#
# Total GULP energy -156356.107497 kJ/mol
# GULP energy per Si atom -5584.146696 kJ/mol
# Density = 2.171132 g / cm^3
# Si number density = 21.760853 Si / 1000 Ang^3
#
#
#
# Elastic Constant Matrix: (Units=GPa)
#
#
# Indices 1 2 3 4 5 6 
#
# 1 49.0236 6.3438 8.9648 0.0000 11.5714 0.0000
# 2 6.3438 88.1423 -0.5981 0.0000 1.0903 0.0000
# 3 8.9648 -0.5981 65.0886 0.0000 12.8516 0.0000
# 4 0.0000 0.0000 0.0000 33.9065 0.0000 -4.5307
# 5 11.5714 1.0903 12.8516 0.0000 47.6595 0.0000
# 6 0.0000 0.0000 0.0000 -4.5307 0.0000 5.7124
#
#
#
# Elastic Compliance Matrix: (Units=1/GPa)
#
#
# Indices 1 2 3 4 5 6 
#
# 1 0.022110 -0.001547 -0.002119 0.000000 -0.004761 0.000000
# 2 -0.001547 0.011458 0.000313 0.000000 0.000029 0.000000
# 3 -0.002119 0.000313 0.016433 0.000000 -0.003924 0.000000
# 4 0.000000 0.000000 0.000000 0.032989 0.000000 0.026164
# 5 -0.004761 0.000029 -0.003924 0.000000 0.023196 0.000000
# 6 0.000000 0.000000 0.000000 0.026164 0.000000 0.195809
#
#
# Mechanical properties :
#
#
# Convention : Reuss Voigt Hill
#
# Bulk Modulus (GPa) = 23.09769 25.74172 24.41971
# Shear Modulus (GPa) = 15.47348 29.95861 22.71605
#
# Velocity S-wave (km/s) = 2.66948 3.71444 3.23444
# Velocity P-wave (km/s) = 4.48764 5.50011 5.01947
#
# Compressibility (1/GPa) = 0.04329437
#
# Stress axis : x y z
#
# Youngs Moduli (GPa) = 45.22865 87.27240 60.85234
#
# Poissons Ratio (x) = 0.13499 0.12897
# Poissons Ratio (y) = 0.06996 -0.01902
# Poissons Ratio (z) = 0.09586 -0.02728
#
# Static dielectric constant tensor:
#      x y z
#    x 1.842100 0.000000 0.056590 
#    y 0.000000 1.714840 0.000000 
#    z 0.056590 0.000000 1.777170 
# 
# From -- ./inp_files/204557.got.cif
#   From: 2010.05.17/outbox.cif.g08.bks.cpg/sg15_103_cif.got.tgz:204557.got - 2010.06.03 18:47:42.
