data_PCOD9278873
_publ_section_title
;
Structure prediction by ZEFSAII (Michael W. Deem and Ramdas Pophale) SiO2 
 PCOD9278873
Probable space group: C 2/C
;
_chemical_formula_sum "Si O2"
_cell_formula_units_Z 44
_cell_length_a 10.430437
_cell_length_b 12.549981
_cell_length_c 13.710327
_cell_angle_alpha 90.000000
_cell_angle_beta 78.892838
_cell_angle_gamma 90.000000
_cell_volume 1761.088916
_symmetry_space_group_name_H-M "C 2/C"
_symmetry_group_IT_number 15
_symmetry_cell_setting 'monoclinic'
loop_
_space_group_symop_operation_xyz
x,y,z
-x,y,1/2-z
-x,-y,-z
x,-y,1/2+z
1/2+x,1/2+y,z
1/2-x,1/2+y,1/2-z
1/2-x,1/2-y,-z
1/2+x,1/2-y,1/2+z
loop_
_atom_site_type_symbol
_atom_site_label
_atom_site_fract_x
_atom_site_fract_y
_atom_site_fract_z
Si Si1 0.500000 0.339046 0.750000
Si Si2 0.178825 0.444979 0.350691
Si Si3 0.892833 0.043081 0.690594
Si Si4 0.248769 0.990374 0.463916
Si Si5 0.983112 0.644055 0.361650
Si Si6 0.949612 0.294782 0.445745
O O1 0.391364 0.418149 0.722025
O O2 0.562115 0.282530 0.645568
O O3 0.253738 0.410988 0.244021
O O4 0.279106 0.470547 0.422838
O O5 0.086759 0.546730 0.350929
O O6 0.083970 0.353554 0.398902
O O7 0.879887 0.037578 0.577379
O O8 0.000000 0.086205 0.750000
O O9 0.344474 0.082937 0.403938
O O10 0.334880 0.882717 0.459516
O O11 0.024020 0.725951 0.442230
O O12 0.000000 0.685982 0.250000
#
# Coordination Sequence:
#
# PCOD9278873 Si02
#       6
#     4   8   8   8   8   8
#     4  10  22  34  46  80 118 144 176 202 282 322
#     4   9  17  32  57  84  97 131 185 230 259 303
#     4  10  21  32  49  76 112 150 170 212 267 324
#     4   9  17  32  57  84  97 131 185 230 259 303
#     4   9  15  28  58  86 104 117 180 238 274 284
#     4   9  18  33  60  88  97 134 181 236 261 312
#
# _framework density 24.984542000000001
#
# number of rings (size 3 to 8) (size 9 to 14) (size 15 to 20)
#    0.545    2.182    1.818    3.273    2.545    0.727 
#    0.000    7.273    0.000    0.000   37.818    0.000 
#    0.000    0.000    0.000    0.000    0.000    0.000 
#
# Total GULP energy -122596.114427 kJ/mol
# GULP energy per Si atom -5572.550656 kJ/mol
# Density = 2.492768 g / cm^3
# Si number density = 24.984542 Si / 1000 Ang^3
#
#
#
# Elastic Constant Matrix: (Units=GPa)
#
#
# Indices 1 2 3 4 5 6 
#
# 1 71.5725 -1.8999 21.4136 0.0000 24.8197 0.0000
# 2 -1.8999 57.6768 23.2882 0.0000 14.3798 0.0000
# 3 21.4136 23.2882 135.0561 0.0000 20.8824 0.0000
# 4 0.0000 0.0000 0.0000 4.9084 0.0000 3.5176
# 5 24.8197 14.3798 20.8824 0.0000 52.4279 0.0000
# 6 0.0000 0.0000 0.0000 3.5176 0.0000 4.8028
#
#
#
# Elastic Compliance Matrix: (Units=1/GPa)
#
#
# Indices 1 2 3 4 5 6 
#
# 1 0.017635 0.003542 -0.002095 0.000000 -0.008486 0.000000
# 2 0.003542 0.020205 -0.003122 0.000000 -0.005975 0.000000
# 3 -0.002095 -0.003122 0.008513 0.000000 -0.001543 0.000000
# 4 0.000000 0.000000 0.000000 0.428803 0.000000 -0.314058
# 5 -0.008486 -0.005975 -0.001543 0.000000 0.025345 0.000000
# 6 0.000000 0.000000 0.000000 -0.314058 0.000000 0.438231
#
#
# Mechanical properties :
#
#
# Convention : Reuss Voigt Hill
#
# Bulk Modulus (GPa) = 23.25299 38.87880 31.06590
# Shear Modulus (GPa) = 5.22785 27.19470 16.21128
#
# Velocity S-wave (km/s) = 1.44809 3.30276 2.55002
# Velocity P-wave (km/s) = 3.48183 5.48992 4.59687
#
# Compressibility (1/GPa) = 0.04300522
#
# Stress axis : x y z
#
# Youngs Moduli (GPa) = 56.70419 49.49297 117.46255
#
# Poissons Ratio (x) = -0.17533 0.24607
# Poissons Ratio (y) = -0.20087 0.36669
# Poissons Ratio (z) = 0.11879 0.15450
#
# Static dielectric constant tensor:
#      x y z
#    x 1.985300 0.000000 0.019160 
#    y 0.000000 1.980930 0.000000 
#    z 0.019160 0.000000 2.088930 
# 
# From -- ./inp_files/142908.got.cif
#   From: 2010.05.17/outbox.cif.g08.bks.cpg/sg15_72_cif.got.tgz:142908.got - 2010.06.03 18:47:42.
