data_PCOD9278791
_publ_section_title
;
Structure prediction by ZEFSAII (Michael W. Deem and Ramdas Pophale) SiO2 
 PCOD9278791
Probable space group: C 2/C
;
_chemical_formula_sum "Si O2"
_cell_formula_units_Z 56
_cell_length_a 33.205752
_cell_length_b 8.414763
_cell_length_c 23.297314
_cell_angle_alpha 90.000000
_cell_angle_beta 157.858789
_cell_angle_gamma 90.000000
_cell_volume 2453.445153
_symmetry_space_group_name_H-M "C 2/C"
_symmetry_group_IT_number 15
_symmetry_cell_setting 'monoclinic'
loop_
_space_group_symop_operation_xyz
x,y,z
-x,y,1/2-z
-x,-y,-z
x,-y,1/2+z
1/2+x,1/2+y,z
1/2-x,1/2+y,1/2-z
1/2-x,1/2-y,-z
1/2+x,1/2-y,1/2+z
loop_
_atom_site_type_symbol
_atom_site_label
_atom_site_fract_x
_atom_site_fract_y
_atom_site_fract_z
Si Si1 0.794059 0.906485 0.253518
Si Si2 0.000000 0.528263 0.250000
Si Si3 0.675691 0.245924 0.087745
Si Si4 0.036027 0.262192 0.589236
Si Si5 0.366136 0.887892 0.270902
Si Si6 0.500000 0.480566 0.750000
Si Si7 0.427414 0.782431 0.228134
Si Si8 0.914366 0.223210 0.547013
O O1 0.835358 0.853356 0.370080
O O2 0.888343 0.879866 0.332571
O O3 0.736392 0.077275 0.178552
O O4 0.706385 0.772234 0.123290
O O5 0.093004 0.421022 0.344923
O O6 0.962508 0.633305 0.147860
O O7 0.752753 0.344820 0.148100
O O8 0.555778 0.210720 0.909248
O O9 0.102864 0.424927 0.689951
O O10 0.953576 0.309528 0.429669
O O11 0.973116 0.214096 0.563521
O O12 0.373424 0.812458 0.217217
O O13 0.582438 0.378807 0.820288
O O14 0.436011 0.579029 0.618117
#
# Coordination Sequence:
#
# PCOD9278791 Si02
#       8
#     8   4   8   8   8   4   8   8
#     4  12  25  41  69 103 136 172 219 280 340 396
#     4  10  20  46  70  82 128 204 212 256 318 410
#     4  12  25  41  69 103 136 172 219 280 340 396
#     4  11  23  41  69 102 135 173 218 277 343 398
#     4  11  23  41  69 102 135 173 218 277 343 398
#     4  10  28  42  74  94 132 188 228 276 314 394
#     4  11  23  47  68  95 138 177 228 266 335 394
#     4  11  23  47  68  95 138 177 228 266 335 394
#
# _framework density 22.825047000000001
#
# number of rings (size 3 to 8) (size 9 to 14) (size 15 to 20)
#    0.000    0.857    5.714    0.857    6.000    0.571 
#    0.000    8.571    0.000    0.000    0.000    0.000 
#    0.000    0.000    0.000    0.000    0.000    0.000 
#
# Total GULP energy -156675.167390 kJ/mol
# GULP energy per Si atom -5595.541692 kJ/mol
# Density = 2.277310 g / cm^3
# Si number density = 22.825047 Si / 1000 Ang^3
#
#
#
# Elastic Constant Matrix: (Units=GPa)
#
#
# Indices 1 2 3 4 5 6 
#
# 1 175.8405 34.2138 25.9123 0.0000 -15.7925 0.0000
# 2 34.2138 97.6866 11.2249 0.0000 -6.0136 0.0000
# 3 25.9123 11.2249 38.3207 0.0000 5.8988 0.0000
# 4 0.0000 0.0000 0.0000 -4.9641 0.0000 -33.5510
# 5 -15.7925 -6.0136 5.8988 0.0000 37.5530 0.0000
# 6 0.0000 0.0000 0.0000 -33.5510 0.0000 11.7696
#
#
#
# Elastic Compliance Matrix: (Units=1/GPa)
#
#
# Indices 1 2 3 4 5 6 
#
# 1 0.007032 -0.001701 -0.004786 0.000000 0.003436 0.000000
# 2 -0.001701 0.011192 -0.002350 0.000000 0.001446 0.000000
# 3 -0.004786 -0.002350 0.031141 0.000000 -0.007280 0.000000
# 4 0.000000 0.000000 0.000000 -0.009940 0.000000 -0.028335
# 5 0.003436 0.001446 -0.007280 0.000000 0.029449 0.000000
# 6 0.000000 0.000000 0.000000 -0.028335 0.000000 0.004192
#
#
# Mechanical properties :
#
#
# Convention : Reuss Voigt Hill
#
# Bulk Modulus (GPa) = 31.55598 50.50554 41.03076
# Shear Modulus (GPa) = 49.35633 24.90480 37.13057
#
# Velocity S-wave (km/s) = 4.65518 3.30679 4.03767
# Velocity P-wave (km/s) = 6.53831 6.06260 6.30494
#
# Compressibility (1/GPa) = 0.03168971
#
# Stress axis : x y z
#
# Youngs Moduli (GPa) = 142.21004 89.35101 32.11235
#
# Poissons Ratio (x) = 0.15202 0.15367
# Poissons Ratio (y) = 0.24196 0.07548
# Poissons Ratio (z) = 0.68055 0.21001
#
# Static dielectric constant tensor:
#      x y z
#    x 2.006510 0.000000 -0.531110 
#    y 0.000000 1.923470 0.000000 
#    z -0.531110 0.000000 3.112430 
# 
# From -- ./inp_files/259047.got.cif
#   From: 2010.05.17/outbox.cif.g08.bks.cpg/sg15_130_cif.got.tgz:259047.got - 2010.06.03 18:47:42.
