data_PCOD9278828
_publ_section_title
;
Structure prediction by ZEFSAII (Michael W. Deem and Ramdas Pophale) SiO2 
 PCOD9278828
Probable space group: C 2/C
;
_chemical_formula_sum "Si O2"
_cell_formula_units_Z 36
_cell_length_a 9.787921
_cell_length_b 22.226278
_cell_length_c 11.037726
_cell_angle_alpha 90.000000
_cell_angle_beta 40.407787
_cell_angle_gamma 90.000000
_cell_volume 1556.544379
_symmetry_space_group_name_H-M "C 2/C"
_symmetry_group_IT_number 15
_symmetry_cell_setting 'monoclinic'
loop_
_space_group_symop_operation_xyz
x,y,z
-x,y,1/2-z
-x,-y,-z
x,-y,1/2+z
1/2+x,1/2+y,z
1/2-x,1/2+y,1/2-z
1/2-x,1/2-y,-z
1/2+x,1/2-y,1/2+z
loop_
_atom_site_type_symbol
_atom_site_label
_atom_site_fract_x
_atom_site_fract_y
_atom_site_fract_z
Si Si1 0.000000 0.528120 0.750000
Si Si2 0.206046 0.256508 0.150346
Si Si3 0.862200 0.948344 0.528570
Si Si4 0.765124 0.619857 0.733911
Si Si5 0.410037 0.843386 0.681587
O O1 0.185863 0.485199 0.574469
O O2 0.097842 0.570065 0.787030
O O3 0.255930 0.323524 0.161840
O O4 0.282609 0.205847 0.191981
O O5 0.923869 0.253249 0.393434
O O6 0.730381 0.903170 0.703260
O O7 0.039411 0.906409 0.353457
O O8 0.000000 0.000000 0.500000
O O9 0.889370 0.639980 0.533213
O O10 0.500000 0.822124 0.750000
#
# Coordination Sequence:
#
# PCOD9278828 Si02
#       5
#     4   8   8   8   8
#     4  10  20  48  76 104 150 196 266 312 374 460
#     4  12  23  47  79 109 147 201 258 314 384 463
#     4  10  24  46  72 110 147 203 257 313 384 451
#     4  11  24  46  74 108 152 198 252 320 381 449
#     4  12  27  48  71 113 158 199 256 314 386 464
#
# _framework density 23.128155
#
# number of rings (size 3 to 8) (size 9 to 14) (size 15 to 20)
#    0.000    0.889    4.444    1.333    0.000    7.111 
#    4.000    0.000    0.000    0.000    0.000    0.000 
#    0.000    0.000    0.000    0.000    0.000    0.000 
#
# Total GULP energy -100544.564948 kJ/mol
# GULP energy per Si atom -5585.809164 kJ/mol
# Density = 2.307551 g / cm^3
# Si number density = 23.128155 Si / 1000 Ang^3
#
#
#
# Elastic Constant Matrix: (Units=GPa)
#
#
# Indices 1 2 3 4 5 6 
#
# 1 125.2787 87.6933 84.0355 0.0000 12.6631 0.0000
# 2 87.6933 171.7405 61.5719 0.0000 -3.3867 0.0000
# 3 84.0355 61.5719 141.2711 0.0000 -5.0430 0.0000
# 4 0.0000 0.0000 0.0000 38.3006 0.0000 -33.9201
# 5 12.6631 -3.3867 -5.0430 0.0000 40.3906 0.0000
# 6 0.0000 0.0000 0.0000 -33.9201 0.0000 27.3932
#
#
#
# Elastic Compliance Matrix: (Units=1/GPa)
#
#
# Indices 1 2 3 4 5 6 
#
# 1 0.019662 -0.006994 -0.008929 0.000000 -0.007866 0.000000
# 2 -0.006994 0.009390 0.000175 0.000000 0.003002 0.000000
# 3 -0.008929 0.000175 0.012470 0.000000 0.004371 0.000000
# 4 0.000000 0.000000 0.000000 -0.270156 0.000000 -0.334525
# 5 -0.007866 0.003002 0.004371 0.000000 0.028022 0.000000
# 6 0.000000 0.000000 0.000000 -0.334525 0.000000 -0.377727
#
#
# Mechanical properties :
#
#
# Convention : Reuss Voigt Hill
#
# Bulk Modulus (GPa) = 99.73334 100.54351 100.13843
# Shear Modulus (GPa) = -9.19961 34.88287 12.84163
#
# Velocity S-wave (km/s) = -1.99657 3.88782 2.35890
# Velocity P-wave (km/s) = 6.15635 7.98250 7.12814
#
# Compressibility (1/GPa) = 0.01002674
#
# Stress axis : x y z
#
# Youngs Moduli (GPa) = 50.85964 106.49137 80.19453
#
# Poissons Ratio (x) = 0.74477 0.71602
# Poissons Ratio (y) = 0.35570 -0.01401
# Poissons Ratio (z) = 0.45410 -0.01860
#
# Static dielectric constant tensor:
#      x y z
#    x 1.914210 0.000000 -0.493620 
#    y 0.000000 1.816510 0.000000 
#    z -0.493620 0.000000 4.419610 
# 
# From -- ./inp_files/4362.got.cif
#   From: 2010.05.17/outbox.cif.g08.bks.cpg/sg15_3_cif.got.tgz:4362.got - 2010.06.03 18:47:42.
