data_PCOD9278639
_publ_section_title
;
Structure prediction by ZEFSAII (Michael W. Deem and Ramdas Pophale) SiO2 
 PCOD9278639
Probable space group: C 2/C
;
_chemical_formula_sum "Si O2"
_cell_formula_units_Z 52
_cell_length_a 23.805518
_cell_length_b 4.782310
_cell_length_c 17.276100
_cell_angle_alpha 90.000000
_cell_angle_beta 113.340800
_cell_angle_gamma 90.000000
_cell_volume 1805.849523
_symmetry_space_group_name_H-M "C 2/C"
_symmetry_group_IT_number 15
_symmetry_cell_setting 'monoclinic'
loop_
_space_group_symop_operation_xyz
x,y,z
-x,y,1/2-z
-x,-y,-z
x,-y,1/2+z
1/2+x,1/2+y,z
1/2-x,1/2+y,1/2-z
1/2-x,1/2-y,-z
1/2+x,1/2-y,1/2+z
loop_
_atom_site_type_symbol
_atom_site_label
_atom_site_fract_x
_atom_site_fract_y
_atom_site_fract_z
Si Si1 0.869279 0.130990 0.002546
Si Si2 0.740817 0.945968 0.920731
Si Si3 0.500000 0.978627 0.750000
Si Si4 0.876288 0.836665 0.671299
Si Si5 0.778368 0.547899 0.802311
Si Si6 0.897006 0.866389 0.850115
Si Si7 0.515559 0.038970 0.919140
O O1 0.877743 0.985987 0.092245
O O2 0.912701 0.395807 0.038069
O O3 0.797199 0.164760 0.956281
O O4 0.889882 0.005819 0.930929
O O5 0.755040 0.716522 0.863059
O O6 0.678564 0.114563 0.871733
O O7 0.750000 0.750000 0.000000
O O8 0.439337 0.165979 0.710697
O O9 0.499677 0.845049 0.836078
O O10 0.873540 0.987746 0.754018
O O11 0.756400 0.233353 0.782021
O O12 0.850977 0.597536 0.832664
O O13 0.967820 0.791739 0.878857
O O14 0.500000 0.000000 0.000000
#
# Coordination Sequence:
#
# PCOD9278639 Si02
#       7
#     8   8   4   8   8   8   8
#     4  10  23  40  65  99 136 186 244 305 365 458
#     4  11  25  41  69 102 145 197 246 313 388 448
#     4   8  20  38  64  92 126 192 240 314 364 454
#     4  10  20  44  66  95 145 186 247 308 378 451
#     4  11  25  45  71 107 146 189 252 308 374 468
#     4  10  22  41  67 100 139 196 238 308 384 436
#     4  10  21  42  67  94 140 192 247 306 378 452
#
# _framework density 28.795310000000001
#
# number of rings (size 3 to 8) (size 9 to 14) (size 15 to 20)
#    0.000    1.846    1.538    0.923    2.154    9.846 
#    0.000    1.538    0.000    0.000    0.000    0.000 
#    0.000    0.000    0.000    0.000    0.000    0.000 
#
# Total GULP energy -145309.814635 kJ/mol
# GULP energy per Si atom -5588.839024 kJ/mol
# Density = 2.872977 g / cm^3
# Si number density = 28.795310 Si / 1000 Ang^3
#
#
#
# Elastic Constant Matrix: (Units=GPa)
#
#
# Indices 1 2 3 4 5 6 
#
# 1 169.6271 53.0356 69.5860 0.0000 26.9027 -0.0001
# 2 53.0356 105.5771 61.2903 -0.0012 5.0633 0.0010
# 3 69.5860 61.2903 314.4903 0.0001 -43.7127 0.0000
# 4 0.0000 -0.0012 0.0001 39.0459 0.0001 5.1694
# 5 26.9027 5.0633 -43.7127 0.0001 88.7979 0.0000
# 6 -0.0001 0.0010 0.0000 5.1694 0.0000 35.4820
#
#
#
# Elastic Compliance Matrix: (Units=1/GPa)
#
#
# Indices 1 2 3 4 5 6 
#
# 1 0.007949 -0.002911 -0.001614 0.000000 -0.003037 0.000000
# 2 -0.002911 0.012006 -0.001791 0.000000 -0.000684 0.000000
# 3 -0.001614 -0.001791 0.004259 0.000000 0.002688 0.000000
# 4 0.000000 0.000000 0.000000 0.026115 0.000000 -0.003805
# 5 -0.003037 -0.000684 0.002688 0.000000 0.013544 0.000000
# 6 0.000000 0.000000 0.000000 -0.003805 0.000000 0.028738
#
#
# Mechanical properties :
#
#
# Convention : Reuss Voigt Hill
#
# Bulk Modulus (GPa) = 86.32490 106.39094 96.35792
# Shear Modulus (GPa) = 45.82837 59.71732 52.77285
#
# Velocity S-wave (km/s) = 3.99372 4.55890 4.28564
# Velocity P-wave (km/s) = 7.16312 8.04605 7.61739
#
# Compressibility (1/GPa) = 0.01158414
#
# Stress axis : x y z
#
# Youngs Moduli (GPa) = 125.80352 83.28857 234.77313
#
# Poissons Ratio (x) = 0.24242 0.37884
# Poissons Ratio (y) = 0.36617 0.42048
# Poissons Ratio (z) = 0.20300 0.14917
#
# Static dielectric constant tensor:
#      x y z
#    x 2.381310 0.000000 -0.262350 
#    y 0.000000 2.237910 0.000000 
#    z -0.262350 0.000000 2.480600 
# 
# From -- ./inp_files/221369.got.cif
#   From: 2010.05.17/outbox.cif.g08.bks.cpg/sg15_111_cif.got.tgz:221369.got - 2010.06.03 18:47:42.
