data_PCOD9278539
_publ_section_title
;
Structure prediction by ZEFSAII (Michael W. Deem and Ramdas Pophale) SiO2 
 PCOD9278539
Probable space group: C 2/C
;
_chemical_formula_sum "Si O2"
_cell_formula_units_Z 56
_cell_length_a 7.569754
_cell_length_b 26.842802
_cell_length_c 14.035615
_cell_angle_alpha 90.000000
_cell_angle_beta 64.832475
_cell_angle_gamma 90.000000
_cell_volume 2581.204329
_symmetry_space_group_name_H-M "C 2/C"
_symmetry_group_IT_number 15
_symmetry_cell_setting 'monoclinic'
loop_
_space_group_symop_operation_xyz
x,y,z
-x,y,1/2-z
-x,-y,-z
x,-y,1/2+z
1/2+x,1/2+y,z
1/2-x,1/2+y,1/2-z
1/2-x,1/2-y,-z
1/2+x,1/2-y,1/2+z
loop_
_atom_site_type_symbol
_atom_site_label
_atom_site_fract_x
_atom_site_fract_y
_atom_site_fract_z
Si Si1 0.216774 0.895563 0.230837
Si Si2 0.100879 0.714280 0.328463
Si Si3 0.798470 0.688797 0.852545
Si Si4 0.000000 0.000000 0.500000
Si Si5 0.000000 0.151030 0.250000
Si Si6 0.298547 0.995332 0.753399
Si Si7 0.489106 0.848305 0.019843
Si Si8 0.710582 0.570235 0.089138
O O1 0.225531 0.863267 0.324898
O O2 0.329024 0.947104 0.216754
O O3 0.306652 0.860630 0.128077
O O4 0.000000 0.909089 0.250000
O O5 0.150272 0.767452 0.363320
O O6 0.306928 0.683971 0.275023
O O7 0.962005 0.683351 0.431391
O O8 0.000000 0.719963 0.250000
O O9 0.857040 0.681280 0.948346
O O10 0.000000 0.700273 0.750000
O O11 0.868933 0.993441 0.628568
O O12 0.841174 0.039361 0.492124
O O13 0.055613 0.113871 0.150705
O O14 0.500000 0.974823 0.750000
O O15 0.235386 0.965140 0.674707
O O16 0.586840 0.900487 0.970677
#
# Coordination Sequence:
#
# PCOD9278539 Si02
#       8
#     8   8   8   4   4   8   8   8
#     4  11  23  43  65  98 137 180 236 293 343 415
#     4  11  23  44  71 104 139 179 232 284 352 424
#     4  10  20  43  71  98 139 181 226 291 355 414
#     4  12  22  42  68  94 128 182 224 284 348 408
#     4  10  22  46  64  98 146 182 214 294 346 402
#     4  12  26  43  67 100 139 183 239 292 348 418
#     4  10  24  43  68  98 137 185 227 283 356 419
#     4  11  23  44  66  99 138 180 235 282 347 415
#
# _framework density 21.695298999999999
#
# number of rings (size 3 to 8) (size 9 to 14) (size 15 to 20)
#    0.000    1.143    2.143    4.714    0.000    5.714 
#   10.286    3.571    0.000    0.000    0.000    0.000 
#    0.000    0.000    0.000    0.000    0.000    0.000 
#
# Total GULP energy -156098.991421 kJ/mol
# GULP energy per Si atom -5574.963979 kJ/mol
# Density = 2.164592 g / cm^3
# Si number density = 21.695299 Si / 1000 Ang^3
#
#
#
# Elastic Constant Matrix: (Units=GPa)
#
#
# Indices 1 2 3 4 5 6 
#
# 1 53.8255 19.6937 15.1969 0.0000 11.9943 0.0000
# 2 19.6937 95.8634 26.3192 0.0000 21.9591 0.0000
# 3 15.1969 26.3192 93.8790 0.0000 18.2067 0.0000
# 4 0.0000 0.0000 0.0000 26.9135 0.0000 13.4861
# 5 11.9943 21.9591 18.2067 0.0000 23.4253 0.0000
# 6 0.0000 0.0000 0.0000 13.4861 0.0000 36.3410
#
#
#
# Elastic Compliance Matrix: (Units=1/GPa)
#
#
# Indices 1 2 3 4 5 6 
#
# 1 0.021534 -0.002254 -0.001325 0.000000 -0.007883 0.000000
# 2 -0.002254 0.013712 -0.001425 0.000000 -0.010592 0.000000
# 3 -0.001325 -0.001425 0.012806 0.000000 -0.007938 0.000000
# 4 0.000000 0.000000 0.000000 0.045644 0.000000 -0.016938
# 5 -0.007883 -0.010592 -0.007938 0.000000 0.062824 0.000000
# 6 0.000000 0.000000 0.000000 -0.016938 0.000000 0.033803
#
#
# Mechanical properties :
#
#
# Convention : Reuss Voigt Hill
#
# Bulk Modulus (GPa) = 26.28626 40.66525 33.47576
# Shear Modulus (GPa) = 23.47280 29.49317 26.48298
#
# Velocity S-wave (km/s) = 3.29284 3.69104 3.49761
# Velocity P-wave (km/s) = 5.15747 6.07861 5.63689
#
# Compressibility (1/GPa) = 0.03804269
#
# Stress axis : x y z
#
# Youngs Moduli (GPa) = 46.43802 72.92786 78.09082
#
# Poissons Ratio (x) = 0.16441 0.10348
# Poissons Ratio (y) = 0.10469 0.11129
# Poissons Ratio (z) = 0.06154 0.10393
#
# Static dielectric constant tensor:
#      x y z
#    x 1.808800 0.000000 -0.018400 
#    y 0.000000 1.798720 0.000000 
#    z -0.018400 0.000000 1.767930 
# 
# From -- ./inp_files/81322.got.cif
#   From: 2010.05.17/outbox.cif.g08.bks.cpg/sg15_41_cif.got.tgz:81322.got - 2010.06.03 18:47:42.
