data_PCOD9278491
_publ_section_title
;
Structure prediction by ZEFSAII (Michael W. Deem and Ramdas Pophale) SiO2 
 PCOD9278491
Probable space group: C 2/C
;
_chemical_formula_sum "Si O2"
_cell_formula_units_Z 64
_cell_length_a 7.988507
_cell_length_b 18.286804
_cell_length_c 26.776247
_cell_angle_alpha 90.000000
_cell_angle_beta 133.804067
_cell_angle_gamma 90.000000
_cell_volume 2823.036662
_symmetry_space_group_name_H-M "C 2/C"
_symmetry_group_IT_number 15
_symmetry_cell_setting 'monoclinic'
loop_
_space_group_symop_operation_xyz
x,y,z
-x,y,1/2-z
-x,-y,-z
x,-y,1/2+z
1/2+x,1/2+y,z
1/2-x,1/2+y,1/2-z
1/2-x,1/2-y,-z
1/2+x,1/2-y,1/2+z
loop_
_atom_site_type_symbol
_atom_site_label
_atom_site_fract_x
_atom_site_fract_y
_atom_site_fract_z
Si Si1 0.881120 0.452434 0.896583
Si Si2 0.847963 0.293149 0.903826
Si Si3 0.073135 0.303540 0.206225
Si Si4 0.577498 0.574122 0.990385
Si Si5 0.025871 0.936556 0.367306
Si Si6 0.957280 0.231950 0.659191
Si Si7 0.996633 0.226113 0.029433
Si Si8 0.754866 0.540360 0.778474
O O1 0.757490 0.375559 0.881297
O O2 0.753376 0.514599 0.902770
O O3 0.865442 0.478592 0.835772
O O4 0.147266 0.433690 0.961738
O O5 0.630936 0.239132 0.862537
O O6 0.018820 0.279244 0.985513
O O7 0.969923 0.272004 0.877226
O O8 0.322170 0.262321 0.258628
O O9 0.108267 0.383851 0.191089
O O10 0.000000 0.310364 0.250000
O O11 0.469051 0.575575 0.913036
O O12 0.513725 0.644413 0.010497
O O13 0.500000 0.500000 0.000000
O O14 0.059862 0.855218 0.352772
O O15 0.812557 0.973196 0.292983
O O16 0.697812 0.261145 0.611680
O O17 0.750000 0.250000 0.000000
O O18 0.500000 0.551230 0.750000
#
# Coordination Sequence:
#
# PCOD9278491 Si02
#       8
#     8   8   8   8   8   8   8   8
#     4  11  24  41  69 103 140 178 232 292 354 426
#     4  11  22  42  69  99 135 181 232 288 355 413
#     4   9  21  37  70  99 127 176 231 275 344 418
#     4  12  27  43  66 100 141 182 236 292 354 422
#     4  10  22  42  69  96 133 182 226 279 352 427
#     4  10  20  43  67  96 128 176 227 284 341 421
#     4  12  27  43  68  99 141 182 236 296 352 412
#     4   9  21  40  66 101 134 177 225 281 342 420
#
# _framework density 22.670624
#
# number of rings (size 3 to 8) (size 9 to 14) (size 15 to 20)
#    0.000    1.500    2.500    1.500    5.250    6.500 
#    0.000    0.000    0.000    1.500    0.000    0.000 
#    0.000    0.000    0.000    0.000    0.000    0.000 
#
# Total GULP energy -178865.568944 kJ/mol
# GULP energy per Si atom -5589.549030 kJ/mol
# Density = 2.261902 g / cm^3
# Si number density = 22.670624 Si / 1000 Ang^3
#
#
#
# Elastic Constant Matrix: (Units=GPa)
#
#
# Indices 1 2 3 4 5 6 
#
# 1 53.1039 12.2296 15.8752 0.0000 17.2955 0.0000
# 2 12.2296 102.2664 27.2821 0.0000 0.1689 0.0000
# 3 15.8752 27.2821 102.8088 -0.0006 3.3880 -0.0001
# 4 0.0000 0.0000 -0.0006 26.6305 -0.0002 4.5949
# 5 17.2955 0.1689 3.3880 -0.0002 37.6793 0.0000
# 6 0.0000 0.0000 -0.0001 4.5949 0.0000 41.8313
#
#
#
# Elastic Compliance Matrix: (Units=1/GPa)
#
#
# Indices 1 2 3 4 5 6 
#
# 1 0.023567 -0.002069 -0.002742 0.000000 -0.010562 0.000000
# 2 -0.002069 0.010707 -0.002559 0.000000 0.001132 0.000000
# 3 -0.002742 -0.002559 0.010819 0.000000 0.000297 0.000000
# 4 0.000000 0.000000 0.000000 0.038276 0.000000 -0.004204
# 5 -0.010562 0.001132 0.000297 0.000000 0.031356 0.000000
# 6 0.000000 0.000000 0.000000 -0.004204 0.000000 0.024367
#
#
# Mechanical properties :
#
#
# Convention : Reuss Voigt Hill
#
# Bulk Modulus (GPa) = 32.94591 40.99476 36.97033
# Shear Modulus (GPa) = 30.49688 34.74770 32.62229
#
# Velocity S-wave (km/s) = 3.67170 3.91924 3.79749
# Velocity P-wave (km/s) = 5.70431 6.21310 5.96413
#
# Compressibility (1/GPa) = 0.03035279
#
# Stress axis : x y z
#
# Youngs Moduli (GPa) = 42.43188 93.39994 92.42607
#
# Poissons Ratio (x) = 0.19328 0.25342
# Poissons Ratio (y) = 0.08781 0.23651
# Poissons Ratio (z) = 0.11634 0.23901
#
# Static dielectric constant tensor:
#      x y z
#    x 1.924990 0.000000 -0.007410 
#    y 0.000000 1.809650 0.000000 
#    z -0.007410 0.000000 1.906860 
# 
# From -- ./inp_files/308813.got.cif
#   From: 2010.05.17/outbox.cif.g08.bks.cpg/sg15_155_cif.got.tgz:308813.got - 2010.06.03 18:47:42.
