data_PCOD9278871
_publ_section_title
;
Structure prediction by ZEFSAII (Michael W. Deem and Ramdas Pophale) SiO2 
 PCOD9278871
Probable space group: C 2/C
;
_chemical_formula_sum "Si O2"
_cell_formula_units_Z 48
_cell_length_a 30.455703
_cell_length_b 14.554691
_cell_length_c 9.489576
_cell_angle_alpha 90.000000
_cell_angle_beta 144.696217
_cell_angle_gamma 90.000000
_cell_volume 2430.970957
_symmetry_space_group_name_H-M "C 2/C"
_symmetry_group_IT_number 15
_symmetry_cell_setting 'monoclinic'
loop_
_space_group_symop_operation_xyz
x,y,z
-x,y,1/2-z
-x,-y,-z
x,-y,1/2+z
1/2+x,1/2+y,z
1/2-x,1/2+y,1/2-z
1/2-x,1/2-y,-z
1/2+x,1/2-y,1/2+z
loop_
_atom_site_type_symbol
_atom_site_label
_atom_site_fract_x
_atom_site_fract_y
_atom_site_fract_z
Si Si1 0.247900 0.571032 0.391253
Si Si2 0.266545 0.607603 0.752885
Si Si3 0.870196 0.184727 0.353334
Si Si4 0.582170 0.623809 0.742324
Si Si5 0.432823 0.586473 0.252455
Si Si6 0.215389 0.697578 0.077162
O O1 0.230150 0.579594 0.509210
O O2 0.250516 0.471146 0.326067
O O3 0.333114 0.613317 0.595123
O O4 0.194599 0.633895 0.153072
O O5 0.248421 0.708056 0.765506
O O6 0.358136 0.614532 0.972211
O O7 0.915519 0.192055 0.618070
O O8 0.908416 0.111714 0.349568
O O9 0.785773 0.151359 0.178908
O O10 0.850466 0.272098 0.202974
O O11 0.514221 0.635450 0.452916
O O12 0.562773 0.522615 0.754317
#
# Coordination Sequence:
#
# PCOD9278871 Si02
#       6
#     8   8   8   8   8   8
#     4  10  21  32  49  72 100 139 173 207 259 303
#     4  10  21  32  49  72 100 139 173 207 259 303
#     4   9  17  30  46  66  91 137 172 205 248 285
#     4   9  18  27  43  68 102 134 164 196 235 299
#     4   9  18  27  43  68 102 134 164 196 235 299
#     4   9  19  32  50  64  98 134 174 222 248 292
#
# _framework density 19.745197000000001
#
# number of rings (size 3 to 8) (size 9 to 14) (size 15 to 20)
#    0.000    2.667    0.000    1.000   23.333    0.667 
#    0.000    0.000    0.000    0.000    0.000    0.000 
#    0.000   33.333    1.333    0.000    0.000    0.000 
#
# Total GULP energy -133630.138393 kJ/mol
# GULP energy per Si atom -5567.922433 kJ/mol
# Density = 1.970026 g / cm^3
# Si number density = 19.745197 Si / 1000 Ang^3
#
#
#
# Elastic Constant Matrix: (Units=GPa)
#
#
# Indices 1 2 3 4 5 6 
#
# 1 48.3915 16.7907 11.6246 0.0000 -16.9231 0.0000
# 2 16.7907 58.7578 17.0853 0.0000 -9.9282 0.0000
# 3 11.6246 17.0853 79.6652 0.0000 -19.5761 0.0000
# 4 0.0000 0.0000 0.0000 30.7202 0.0000 -4.8792
# 5 -16.9231 -9.9282 -19.5761 0.0000 33.9639 0.0000
# 6 0.0000 0.0000 0.0000 -4.8792 0.0000 18.4882
#
#
#
# Elastic Compliance Matrix: (Units=1/GPa)
#
#
# Indices 1 2 3 4 5 6 
#
# 1 0.026707 -0.005707 0.000218 0.000000 0.011764 0.000000
# 2 -0.005707 0.019749 -0.003126 0.000000 0.001128 0.000000
# 3 0.000218 -0.003126 0.015137 0.000000 0.007920 0.000000
# 4 0.000000 0.000000 0.000000 0.033976 0.000000 0.008967
# 5 0.011764 0.001128 0.007920 0.000000 0.040199 0.000000
# 6 0.000000 0.000000 0.000000 0.008967 0.000000 0.056455
#
#
# Mechanical properties :
#
#
# Convention : Reuss Voigt Hill
#
# Bulk Modulus (GPa) = 22.54116 30.86841 26.70478
# Shear Modulus (GPa) = 22.29738 26.05538 24.17638
#
# Velocity S-wave (km/s) = 3.36409 3.63654 3.50297
# Velocity P-wave (km/s) = 5.15075 5.77061 5.46947
#
# Compressibility (1/GPa) = 0.04436330
#
# Stress axis : x y z
#
# Youngs Moduli (GPa) = 37.44347 50.63460 66.06260
#
# Poissons Ratio (x) = 0.28899 -0.01439
# Poissons Ratio (y) = 0.21370 0.20649
# Poissons Ratio (z) = -0.00816 0.15826
#
# Static dielectric constant tensor:
#      x y z
#    x 1.789990 0.000000 -0.020050 
#    y 0.000000 1.713170 0.000000 
#    z -0.020050 0.000000 1.781060 
# 
# From -- ./inp_files/56025.got.cif
#   From: 2010.05.17/outbox.cif.g08.bks.cpg/sg15_29_cif.got.tgz:56025.got - 2010.06.03 18:47:42.
