data_PCOD9278256
_publ_section_title
;
Structure prediction by ZEFSAII (Michael W. Deem and Ramdas Pophale) SiO2 
 PCOD9278256
Probable space group: C 2/C
;
_chemical_formula_sum "Si O2"
_cell_formula_units_Z 36
_cell_length_a 21.612677
_cell_length_b 4.787592
_cell_length_c 13.250377
_cell_angle_alpha 90.000000
_cell_angle_beta 68.578933
_cell_angle_gamma 90.000000
_cell_volume 1276.341922
_symmetry_space_group_name_H-M "C 2/C"
_symmetry_group_IT_number 15
_symmetry_cell_setting 'monoclinic'
loop_
_space_group_symop_operation_xyz
x,y,z
-x,y,1/2-z
-x,-y,-z
x,-y,1/2+z
1/2+x,1/2+y,z
1/2-x,1/2+y,1/2-z
1/2-x,1/2-y,-z
1/2+x,1/2-y,1/2+z
loop_
_atom_site_type_symbol
_atom_site_label
_atom_site_fract_x
_atom_site_fract_y
_atom_site_fract_z
Si Si1 0.807216 0.817202 0.779818
Si Si2 0.894715 0.663420 0.213249
Si Si3 0.500000 0.572553 0.250000
Si Si4 0.208456 0.088681 0.437740
Si Si5 0.062185 0.155080 0.017549
O O1 0.871590 0.630272 0.768588
O O2 0.795627 0.753348 0.668015
O O3 0.749583 0.693150 0.884150
O O4 0.831261 0.133613 0.764614
O O5 0.948715 0.849542 0.234807
O O6 0.913878 0.636481 0.083915
O O7 0.529110 0.752626 0.140691
O O8 0.250000 0.250000 0.500000
O O9 0.130573 0.013349 0.505747
O O10 0.000000 0.000000 0.000000
#
# Coordination Sequence:
#
# PCOD9278256 Si02
#       5
#     8   8   4   8   8
#     4  11  24  44  67 101 141 175 229 298 350 415
#     4  10  23  43  69  99 136 179 226 288 354 415
#     4  10  20  42  68  96 134 182 232 280 342 424
#     4  11  23  42  71 105 140 187 235 290 358 424
#     4   9  20  39  62  92 130 174 222 277 340 406
#
# _framework density 28.205608000000002
#
# number of rings (size 3 to 8) (size 9 to 14) (size 15 to 20)
#    0.000    1.778    0.000    4.000    0.000    4.444 
#    0.000   40.000    0.000    0.000    0.000    0.000 
#    0.000    0.000    0.000    0.000    0.000    0.000 
#
# Total GULP energy -100757.540964 kJ/mol
# GULP energy per Si atom -5597.641165 kJ/mol
# Density = 2.814141 g / cm^3
# Si number density = 28.205608 Si / 1000 Ang^3
#
#
#
# Elastic Constant Matrix: (Units=GPa)
#
#
# Indices 1 2 3 4 5 6 
#
# 1 175.2322 14.1647 52.0021 0.0000 -2.9686 0.0000
# 2 14.1647 105.2208 36.6475 0.0000 -1.8033 0.0000
# 3 52.0021 36.6475 189.9537 0.0000 -11.2411 0.0000
# 4 0.0000 0.0000 0.0000 33.4645 0.0000 7.2867
# 5 -2.9686 -1.8033 -11.2411 0.0000 60.5690 0.0000
# 6 0.0000 0.0000 0.0000 7.2867 0.0000 27.8622
#
#
#
# Elastic Compliance Matrix: (Units=1/GPa)
#
#
# Indices 1 2 3 4 5 6 
#
# 1 0.006218 -0.000262 -0.001652 0.000000 -0.000010 0.000000
# 2 -0.000262 0.010200 -0.001900 0.000000 -0.000062 0.000000
# 3 -0.001652 -0.001900 0.006143 0.000000 0.001002 0.000000
# 4 0.000000 0.000000 0.000000 0.031687 0.000000 -0.008287
# 5 -0.000010 -0.000062 0.001002 0.000000 0.016694 0.000000
# 6 0.000000 0.000000 0.000000 -0.008287 0.000000 0.038058
#
#
# Mechanical properties :
#
#
# Convention : Reuss Voigt Hill
#
# Bulk Modulus (GPa) = 66.96755 75.11502 71.04128
# Shear Modulus (GPa) = 41.11685 48.88529 45.00107
#
# Velocity S-wave (km/s) = 3.82220 4.16766 3.99866
# Velocity P-wave (km/s) = 6.57823 7.06033 6.82354
#
# Compressibility (1/GPa) = 0.01493261
#
# Stress axis : x y z
#
# Youngs Moduli (GPa) = 160.82191 98.04219 162.79639
#
# Poissons Ratio (x) = 0.02566 0.26900
# Poissons Ratio (y) = 0.04209 0.30928
# Poissons Ratio (z) = 0.26573 0.18626
#
# Static dielectric constant tensor:
#      x y z
#    x 2.312130 0.000000 -0.013170 
#    y 0.000000 2.183060 0.000000 
#    z -0.013170 0.000000 2.208060 
# 
# From -- ./inp_files/170230.got.cif
#   From: 2010.05.17/outbox.cif.g08.bks.cpg/sg15_86_cif.got.tgz:170230.got - 2010.06.03 18:47:42.
