data_PCOD9278655
_publ_section_title
;
Structure prediction by ZEFSAII (Michael W. Deem and Ramdas Pophale) SiO2 
 PCOD9278655
Probable space group: C 2/C
;
_chemical_formula_sum "Si O2"
_cell_formula_units_Z 52
_cell_length_a 16.228163
_cell_length_b 8.827168
_cell_length_c 15.172702
_cell_angle_alpha 90.000000
_cell_angle_beta 85.406327
_cell_angle_gamma 90.000000
_cell_volume 2166.488381
_symmetry_space_group_name_H-M "C 2/C"
_symmetry_group_IT_number 15
_symmetry_cell_setting 'monoclinic'
loop_
_space_group_symop_operation_xyz
x,y,z
-x,y,1/2-z
-x,-y,-z
x,-y,1/2+z
1/2+x,1/2+y,z
1/2-x,1/2+y,1/2-z
1/2-x,1/2-y,-z
1/2+x,1/2-y,1/2+z
loop_
_atom_site_type_symbol
_atom_site_label
_atom_site_fract_x
_atom_site_fract_y
_atom_site_fract_z
Si Si1 0.000000 0.626747 0.250000
Si Si2 0.703609 0.451640 0.716748
Si Si3 0.882905 0.665158 0.999345
Si Si4 0.244979 0.856515 0.372520
Si Si5 0.558365 0.392793 0.121624
Si Si6 0.952868 0.156808 0.072773
Si Si7 0.377966 0.061428 0.648826
O O1 0.031756 0.737974 0.170386
O O2 0.074867 0.522636 0.276305
O O3 0.720329 0.276348 0.694334
O O4 0.712637 0.506702 0.816201
O O5 0.622436 0.516997 0.676972
O O6 0.781260 0.532820 0.662266
O O7 0.827750 0.780258 0.063507
O O8 0.908739 0.526179 0.058684
O O9 0.820901 0.605584 0.929807
O O10 0.960514 0.755492 0.954506
O O11 0.478889 0.499653 0.114076
O O12 0.589291 0.366323 0.018961
O O13 0.902361 0.265383 0.140019
#
# Coordination Sequence:
#
# PCOD9278655 Si02
#       7
#     4   8   8   8   8   8   8
#     4  12  26  44  68 102 134 180 216 290 330 396
#     4  11  24  44  63 103 127 179 218 281 329 397
#     4  10  20  44  67  97 128 182 216 272 328 401
#     4  10  23  41  71  93 138 171 225 270 340 391
#     4  11  25  44  69  97 142 169 228 270 348 387
#     4  11  24  45  70  99 133 184 220 277 330 412
#     4  11  26  42  70  99 136 173 233 267 339 391
#
# _framework density 24.001975000000002
#
# number of rings (size 3 to 8) (size 9 to 14) (size 15 to 20)
#    0.000    1.231    3.077    2.308    2.154    3.692 
#    2.769    0.000    0.000    0.000    0.000    0.000 
#    0.000    0.000    0.000    0.000    0.000    0.000 
#
# Total GULP energy -145779.775302 kJ/mol
# GULP energy per Si atom -5606.914435 kJ/mol
# Density = 2.394734 g / cm^3
# Si number density = 24.001975 Si / 1000 Ang^3
#
#
#
# Elastic Constant Matrix: (Units=GPa)
#
#
# Indices 1 2 3 4 5 6 
#
# 1 48.4278 4.7221 33.7263 0.0000 8.9430 0.0000
# 2 4.7221 98.2967 41.0775 0.0000 13.3669 0.0000
# 3 33.7263 41.0775 110.3946 0.0000 23.8130 0.0000
# 4 0.0000 0.0000 0.0000 38.0181 0.0000 -12.3330
# 5 8.9430 13.3669 23.8130 0.0000 44.4387 0.0000
# 6 0.0000 0.0000 0.0000 -12.3330 0.0000 12.2469
#
#
#
# Elastic Compliance Matrix: (Units=1/GPa)
#
#
# Indices 1 2 3 4 5 6 
#
# 1 0.026828 0.002608 -0.008857 0.000000 -0.001438 0.000000
# 2 0.002608 0.012375 -0.005072 0.000000 -0.001530 0.000000
# 3 -0.008857 -0.005072 0.014629 0.000000 -0.004531 0.000000
# 4 0.000000 0.000000 0.000000 0.039065 0.000000 0.039340
# 5 -0.001438 -0.001530 -0.004531 0.000000 0.025680 0.000000
# 6 0.000000 0.000000 0.000000 0.039340 0.000000 0.121270
#
#
# Mechanical properties :
#
#
# Convention : Reuss Voigt Hill
#
# Bulk Modulus (GPa) = 32.05974 46.24121 39.15047
# Shear Modulus (GPa) = 18.32268 30.78027 24.55147
#
# Velocity S-wave (km/s) = 2.76593 3.58495 3.20174
# Velocity P-wave (km/s) = 4.85661 6.03683 5.47859
#
# Compressibility (1/GPa) = 0.03119177
#
# Stress axis : x y z
#
# Youngs Moduli (GPa) = 37.27390 80.80553 68.35885
#
# Poissons Ratio (x) = -0.21072 0.60542
# Poissons Ratio (y) = -0.09720 0.34669
# Poissons Ratio (z) = 0.33012 0.40981
#
# Static dielectric constant tensor:
#      x y z
#    x 1.875120 0.000000 -0.048850 
#    y 0.000000 1.888260 0.000000 
#    z -0.048850 0.000000 1.950070 
# 
# From -- ./inp_files/209131.got.cif
#   From: 2010.05.17/outbox.cif.g08.bks.cpg/sg15_105_cif.got.tgz:209131.got - 2010.06.03 18:47:42.
