data_PCOD9278764
_publ_section_title
;
Structure prediction by ZEFSAII (Michael W. Deem and Ramdas Pophale) SiO2 
 PCOD9278764
Probable space group: C 2/C
;
_chemical_formula_sum "Si O2"
_cell_formula_units_Z 44
_cell_length_a 5.411721
_cell_length_b 19.378933
_cell_length_c 18.261916
_cell_angle_alpha 90.000000
_cell_angle_beta 103.154838
_cell_angle_gamma 90.000000
_cell_volume 1864.931581
_symmetry_space_group_name_H-M "C 2/C"
_symmetry_group_IT_number 15
_symmetry_cell_setting 'monoclinic'
loop_
_space_group_symop_operation_xyz
x,y,z
-x,y,1/2-z
-x,-y,-z
x,-y,1/2+z
1/2+x,1/2+y,z
1/2-x,1/2+y,1/2-z
1/2-x,1/2-y,-z
1/2+x,1/2-y,1/2+z
loop_
_atom_site_type_symbol
_atom_site_label
_atom_site_fract_x
_atom_site_fract_y
_atom_site_fract_z
Si Si1 0.596290 0.149266 0.371543
Si Si2 0.049538 0.813283 0.995186
Si Si3 0.000000 0.046715 0.750000
Si Si4 0.419889 0.921563 0.007760
Si Si5 0.500000 0.750264 0.750000
Si Si6 0.000000 0.536240 0.250000
Si Si7 0.819127 0.848528 0.130683
O O1 0.481601 0.121114 0.438457
O O2 0.422018 0.200281 0.311477
O O3 0.628525 0.084117 0.320590
O O4 0.855324 0.185724 0.414589
O O5 0.250000 0.750000 0.000000
O O6 0.138773 0.894160 0.003343
O O7 0.924969 0.807923 0.067104
O O8 0.995519 0.093733 0.822800
O O9 0.264212 0.005333 0.768278
O O10 0.576216 0.888182 0.084697
O O11 0.500000 0.000000 0.000000
O O12 0.709617 0.701770 0.801576
#
# Coordination Sequence:
#
# PCOD9278764 Si02
#       7
#     8   8   4   8   4   4   8
#     4  10  24  42  68  99 139 188 239 301 360 439
#     4  11  24  43  70 100 137 185 246 299 366 436
#     4  11  26  45  72 103 148 187 238 294 367 436
#     4  11  24  41  70 102 142 184 242 306 374 444
#     4  10  20  46  62  92 136 190 238 298 366 436
#     4  11  26  45  72 103 148 187 238 294 367 436
#     4  10  24  42  68  99 139 188 239 301 360 439
#
# _framework density 23.593359
#
# number of rings (size 3 to 8) (size 9 to 14) (size 15 to 20)
#    0.000    1.455    0.000    3.273   10.182    4.364 
#    0.000    1.818    0.000    0.000    0.000    0.000 
#    0.000    0.000    0.000    0.000    0.000    0.000 
#
# Total GULP energy -122690.063135 kJ/mol
# GULP energy per Si atom -5576.821052 kJ/mol
# Density = 2.353966 g / cm^3
# Si number density = 23.593359 Si / 1000 Ang^3
#
#
#
# Elastic Constant Matrix: (Units=GPa)
#
#
# Indices 1 2 3 4 5 6 
#
# 1 58.7937 39.3877 27.9941 0.0000 11.5855 0.0000
# 2 39.3877 140.7297 63.1093 0.0000 14.4894 0.0000
# 3 27.9941 63.1093 175.3919 0.0000 21.1602 0.0000
# 4 0.0000 0.0000 0.0000 4.9848 0.0000 -5.8017
# 5 11.5855 14.4894 21.1602 0.0000 14.9543 0.0000
# 6 0.0000 0.0000 0.0000 -5.8017 0.0000 42.9463
#
#
#
# Elastic Compliance Matrix: (Units=1/GPa)
#
#
# Indices 1 2 3 4 5 6 
#
# 1 0.022976 -0.004982 -0.000373 0.000000 -0.012445 0.000000
# 2 -0.004982 0.009836 -0.002484 0.000000 -0.002156 0.000000
# 3 -0.000373 -0.002484 0.007633 0.000000 -0.008104 0.000000
# 4 0.000000 0.000000 0.000000 0.238036 0.000000 0.032157
# 5 -0.012445 -0.002156 -0.008104 0.000000 0.090068 0.000000
# 6 0.000000 0.000000 0.000000 0.032157 0.000000 0.027629
#
#
# Mechanical properties :
#
#
# Convention : Reuss Voigt Hill
#
# Bulk Modulus (GPa) = 40.37661 70.65529 55.51595
# Shear Modulus (GPa) = 11.90158 28.87202 20.38680
#
# Velocity S-wave (km/s) = 2.24842 3.50199 2.94273
# Velocity P-wave (km/s) = 4.88787 6.80911 5.92686
#
# Compressibility (1/GPa) = 0.02476682
#
# Stress axis : x y z
#
# Youngs Moduli (GPa) = 43.52316 101.66682 131.01743
#
# Poissons Ratio (x) = 0.50650 0.04889
# Poissons Ratio (y) = 0.21683 0.32544
# Poissons Ratio (z) = 0.01624 0.25253
#
# Static dielectric constant tensor:
#      x y z
#    x 2.026220 0.000000 -0.007030 
#    y 0.000000 1.982400 0.000000 
#    z -0.007030 0.000000 1.930510 
# 
# From -- ./inp_files/184862.got.cif
#   From: 2010.05.17/outbox.cif.g08.bks.cpg/sg15_93_cif.got.tgz:184862.got - 2010.06.03 18:47:42.
