data_PCOD9278610
_publ_section_title
;
Structure prediction by ZEFSAII (Michael W. Deem and Ramdas Pophale) SiO2 
 PCOD9278610
Probable space group: C 2/C
;
_chemical_formula_sum "Si O2"
_cell_formula_units_Z 52
_cell_length_a 13.519157
_cell_length_b 9.790110
_cell_length_c 23.326844
_cell_angle_alpha 90.000000
_cell_angle_beta 129.805909
_cell_angle_gamma 90.000000
_cell_volume 2371.796187
_symmetry_space_group_name_H-M "C 2/C"
_symmetry_group_IT_number 15
_symmetry_cell_setting 'monoclinic'
loop_
_space_group_symop_operation_xyz
x,y,z
-x,y,1/2-z
-x,-y,-z
x,-y,1/2+z
1/2+x,1/2+y,z
1/2-x,1/2+y,1/2-z
1/2-x,1/2-y,-z
1/2+x,1/2-y,1/2+z
loop_
_atom_site_type_symbol
_atom_site_label
_atom_site_fract_x
_atom_site_fract_y
_atom_site_fract_z
Si Si1 0.736676 0.491135 0.995533
Si Si2 0.000000 0.874169 0.750000
Si Si3 0.865038 0.313682 0.343998
Si Si4 0.065509 0.639021 0.505063
Si Si5 0.531017 0.409973 0.067544
Si Si6 0.191634 0.965939 0.726364
Si Si7 0.148568 0.271858 0.395934
O O1 0.841737 0.595664 0.011905
O O2 0.601721 0.566275 0.947160
O O3 0.723565 0.358848 0.949220
O O4 0.775682 0.413182 0.068621
O O5 0.895417 0.774898 0.682479
O O6 0.925470 0.960020 0.770648
O O7 0.858785 0.308231 0.410516
O O8 0.809298 0.454767 0.298948
O O9 0.014954 0.291204 0.382351
O O10 0.787817 0.190245 0.285533
O O11 0.964020 0.753273 0.449151
O O12 0.000000 0.500000 0.500000
O O13 0.642796 0.459596 0.150631
O O14 0.500000 0.500000 0.000000
#
# Coordination Sequence:
#
# PCOD9278610 Si02
#       7
#     8   4   8   8   8   8   8
#     4  11  22  42  69  99 138 172 230 284 338 402
#     4  10  20  44  64  98 134 178 228 280 352 410
#     4  11  23  44  64 103 132 179 230 274 348 408
#     4  12  25  43  71 102 136 182 232 285 343 411
#     4  12  25  46  68 103 139 179 230 291 345 403
#     4  11  25  43  70  95 138 178 228 283 345 414
#     4  10  21  39  68  99 131 177 223 280 340 411
#
# _framework density 21.924313000000001
#
# number of rings (size 3 to 8) (size 9 to 14) (size 15 to 20)
#    0.000    0.923    6.154    1.385    4.308    2.462 
#    0.000    0.000    0.000    0.000    0.000    0.000 
#    0.000    0.000    0.000    0.000    0.000    0.000 
#
# Total GULP energy -145341.546303 kJ/mol
# GULP energy per Si atom -5590.059473 kJ/mol
# Density = 2.187441 g / cm^3
# Si number density = 21.924313 Si / 1000 Ang^3
#
#
#
# Elastic Constant Matrix: (Units=GPa)
#
#
# Indices 1 2 3 4 5 6 
#
# 1 40.8607 8.6501 -3.6265 0.0000 -5.8880 0.0000
# 2 8.6501 98.2344 13.1564 0.0000 -5.0288 0.0000
# 3 -3.6265 13.1564 86.0441 0.0000 -17.2589 0.0000
# 4 0.0000 0.0000 0.0000 51.8467 0.0000 5.7008
# 5 -5.8880 -5.0288 -17.2589 0.0000 30.2663 0.0000
# 6 0.0000 0.0000 0.0000 5.7008 0.0000 32.8066
#
#
#
# Elastic Compliance Matrix: (Units=1/GPa)
#
#
# Indices 1 2 3 4 5 6 
#
# 1 0.026108 -0.002343 0.002709 0.000000 0.006235 0.000000
# 2 -0.002343 0.010626 -0.001649 0.000000 0.000369 0.000000
# 3 0.002709 -0.001649 0.013594 0.000000 0.008005 0.000000
# 4 0.000000 0.000000 0.000000 0.019663 0.000000 -0.003417
# 5 0.006235 0.000369 0.008005 0.000000 0.038879 0.000000
# 6 0.000000 0.000000 0.000000 -0.003417 0.000000 0.031075
#
#
# Mechanical properties :
#
#
# Convention : Reuss Voigt Hill
#
# Bulk Modulus (GPa) = 20.93709 29.05548 24.99629
# Shear Modulus (GPa) = 31.55926 36.78119 34.17022
#
# Velocity S-wave (km/s) = 3.79814 4.10035 3.95214
# Velocity P-wave (km/s) = 5.36703 5.97483 5.67906
#
# Compressibility (1/GPa) = 0.04776214
#
# Stress axis : x y z
#
# Youngs Moduli (GPa) = 38.30219 94.11040 73.56218
#
# Poissons Ratio (x) = 0.22047 -0.19929
# Poissons Ratio (y) = 0.08973 0.12133
# Poissons Ratio (z) = -0.10377 0.15523
#
# Static dielectric constant tensor:
#      x y z
#    x 1.843060 0.000000 -0.013960 
#    y 0.000000 1.791360 0.000000 
#    z -0.013960 0.000000 1.826030 
# 
# From -- ./inp_files/295276.got.cif
#   From: 2010.05.17/outbox.cif.g08.bks.cpg/sg15_148_cif.got.tgz:295276.got - 2010.06.03 18:47:42.
