data_PCOD9278557
_publ_section_title
;
Structure prediction by ZEFSAII (Michael W. Deem and Ramdas Pophale) SiO2 
 PCOD9278557
Probable space group: C 2/C
;
_chemical_formula_sum "Si O2"
_cell_formula_units_Z 44
_cell_length_a 7.950952
_cell_length_b 16.603583
_cell_length_c 15.333103
_cell_angle_alpha 90.000000
_cell_angle_beta 61.314979
_cell_angle_gamma 90.000000
_cell_volume 1775.763446
_symmetry_space_group_name_H-M "C 2/C"
_symmetry_group_IT_number 15
_symmetry_cell_setting 'monoclinic'
loop_
_space_group_symop_operation_xyz
x,y,z
-x,y,1/2-z
-x,-y,-z
x,-y,1/2+z
1/2+x,1/2+y,z
1/2-x,1/2+y,1/2-z
1/2-x,1/2-y,-z
1/2+x,1/2-y,1/2+z
loop_
_atom_site_type_symbol
_atom_site_label
_atom_site_fract_x
_atom_site_fract_y
_atom_site_fract_z
Si Si1 0.132442 0.171781 0.494592
Si Si2 0.299755 0.488848 0.415607
Si Si3 0.297883 0.889007 0.413484
Si Si4 0.750699 0.004452 0.236061
Si Si5 0.807332 0.680993 0.265043
Si Si6 0.500000 0.775187 0.250000
O O1 0.250000 0.250000 0.500000
O O2 0.206997 0.091144 0.524041
O O3 0.179194 0.170532 0.381595
O O4 0.902021 0.159423 0.554405
O O5 0.210655 0.562994 0.493121
O O6 0.224083 0.466808 0.338366
O O7 0.521237 0.513099 0.340890
O O8 0.463437 0.826765 0.346506
O O9 0.312167 0.955166 0.332726
O O10 0.651490 0.090398 0.273828
O O11 0.687120 0.723289 0.221061
O O12 0.000000 0.723997 0.250000
#
# Coordination Sequence:
#
# PCOD9278557 Si02
#       6
#     8   8   8   8   8   4
#     4  11  23  43  71 106 151 191 246 311 371 440
#     4  10  20  43  76 107 147 195 251 308 371 442
#     4  11  23  47  71 105 148 199 247 309 366 449
#     4  10  21  43  76 106 142 196 249 305 376 441
#     4  12  26  49  74 108 150 196 247 312 373 442
#     4  12  30  46  74 110 154 198 246 310 378 434
#
# _framework density 24.778072999999999
#
# number of rings (size 3 to 8) (size 9 to 14) (size 15 to 20)
#    0.000    1.091    3.636    3.273    3.818    0.727 
#    3.273    1.818    0.000    0.000    0.000    0.000 
#    0.000    0.000    0.000    0.000    0.000    0.000 
#
# Total GULP energy -123003.317396 kJ/mol
# GULP energy per Si atom -5591.059882 kJ/mol
# Density = 2.472168 g / cm^3
# Si number density = 24.778073 Si / 1000 Ang^3
#
#
#
# Elastic Constant Matrix: (Units=GPa)
#
#
# Indices 1 2 3 4 5 6 
#
# 1 72.3927 36.7741 13.6347 0.0000 -2.9632 0.0000
# 2 36.7741 97.5582 30.0593 0.0000 -0.6195 0.0000
# 3 13.6347 30.0593 126.1464 0.0000 8.8881 0.0000
# 4 0.0000 0.0000 0.0000 61.5410 0.0000 38.1957
# 5 -2.9632 -0.6195 8.8881 0.0000 43.0318 0.0000
# 6 0.0000 0.0000 0.0000 38.1957 0.0000 77.8874
#
#
#
# Elastic Compliance Matrix: (Units=1/GPa)
#
#
# Indices 1 2 3 4 5 6 
#
# 1 0.017157 -0.006327 -0.000430 0.000000 0.001179 0.000000
# 2 -0.006327 0.013418 -0.002533 0.000000 0.000281 0.000000
# 3 -0.000430 -0.002533 0.008709 0.000000 -0.001865 0.000000
# 4 0.000000 0.000000 0.000000 0.023359 0.000000 -0.011455
# 5 0.001179 0.000281 -0.001865 0.000000 0.023709 0.000000
# 6 0.000000 0.000000 0.000000 -0.011455 0.000000 0.018457
#
#
# Mechanical properties :
#
#
# Convention : Reuss Voigt Hill
#
# Bulk Modulus (GPa) = 48.30261 50.78152 49.54207
# Shear Modulus (GPa) = 38.37607 50.86730 44.62168
#
# Velocity S-wave (km/s) = 3.93974 4.53583 4.24825
# Velocity P-wave (km/s) = 6.34285 6.92609 6.64088
#
# Compressibility (1/GPa) = 0.02070281
#
# Stress axis : x y z
#
# Youngs Moduli (GPa) = 58.28560 74.52880 114.82675
#
# Poissons Ratio (x) = 0.47157 0.04935
# Poissons Ratio (y) = 0.36879 0.29087
# Poissons Ratio (z) = 0.02505 0.18879
#
# Static dielectric constant tensor:
#      x y z
#    x 2.076310 0.000000 -0.065910 
#    y 0.000000 1.990500 0.000000 
#    z -0.065910 0.000000 2.008780 
# 
# From -- ./inp_files/134764.got.cif
#   From: 2010.05.17/outbox.cif.g08.bks.cpg/sg15_68_cif.got.tgz:134764.got - 2010.06.03 18:47:42.
