data_PCOD9278204
_publ_section_title
;
Structure prediction by ZEFSAII (Michael W. Deem and Ramdas Pophale) SiO2 
 PCOD9278204
Probable space group: C 2/C
;
_chemical_formula_sum "Si O2"
_cell_formula_units_Z 44
_cell_length_a 9.221133
_cell_length_b 16.999218
_cell_length_c 13.495269
_cell_angle_alpha 90.000000
_cell_angle_beta 105.612750
_cell_angle_gamma 90.000000
_cell_volume 2037.358125
_symmetry_space_group_name_H-M "C 2/C"
_symmetry_group_IT_number 15
_symmetry_cell_setting 'monoclinic'
loop_
_space_group_symop_operation_xyz
x,y,z
-x,y,1/2-z
-x,-y,-z
x,-y,1/2+z
1/2+x,1/2+y,z
1/2-x,1/2+y,1/2-z
1/2-x,1/2-y,-z
1/2+x,1/2-y,1/2+z
loop_
_atom_site_type_symbol
_atom_site_label
_atom_site_fract_x
_atom_site_fract_y
_atom_site_fract_z
Si Si1 0.399742 0.831543 0.907962
Si Si2 0.500000 0.950348 0.750000
Si Si3 0.430982 0.632137 0.128883
Si Si4 0.137100 0.043894 0.852807
Si Si5 0.102278 0.803796 0.476491
Si Si6 0.516814 0.941302 0.093560
O O1 0.425561 0.891647 0.818947
O O2 0.224787 0.821916 0.895062
O O3 0.477015 0.749116 0.900040
O O4 0.469802 0.862143 0.026945
O O5 0.578897 0.015057 0.837993
O O6 0.500000 0.631055 0.250000
O O7 0.383222 0.541377 0.099285
O O8 0.545098 0.671577 0.074195
O O9 0.126761 0.114500 0.927053
O O10 0.307428 0.053925 0.842123
O O11 0.000000 0.050308 0.750000
O O12 0.250000 0.750000 0.500000
O O13 0.500000 0.000000 0.000000
#
# Coordination Sequence:
#
# PCOD9278204 Si02
#       6
#     8   4   8   8   8   8
#     4  11  24  45  72 101 141 182 236 283 360 415
#     4  10  22  38  76  94 136 182 236 276 346 422
#     4  11  26  47  70 102 142 185 239 291 349 421
#     4  11  24  43  68 104 139 181 243 294 346 419
#     4  12  27  44  73 103 145 185 231 296 360 418
#     4  10  20  42  68 102 131 181 238 279 344 432
#
# _framework density 21.596596000000002
#
# number of rings (size 3 to 8) (size 9 to 14) (size 15 to 20)
#    0.000    1.091    5.455    1.091    3.818    1.455 
#    1.636    0.000    0.000    0.000    0.000    0.000 
#    0.000    0.000    0.000    0.000    0.000    0.000 
#
# Total GULP energy -122564.455054 kJ/mol
# GULP energy per Si atom -5571.111593 kJ/mol
# Density = 2.154744 g / cm^3
# Si number density = 21.596596 Si / 1000 Ang^3
#
#
#
# Elastic Constant Matrix: (Units=GPa)
#
#
# Indices 1 2 3 4 5 6 
#
# 1 130.3980 54.1464 44.5961 0.0000 -2.2724 0.0000
# 2 54.1464 75.1832 26.0600 0.0000 -19.0404 0.0000
# 3 44.5961 26.0600 106.0348 0.0000 -25.8490 0.0000
# 4 0.0000 0.0000 0.0000 38.7460 0.0000 -45.3486
# 5 -2.2724 -19.0404 -25.8490 0.0000 39.4343 0.0000
# 6 0.0000 0.0000 0.0000 -45.3486 0.0000 80.6046
#
#
#
# Elastic Compliance Matrix: (Units=1/GPa)
#
#
# Indices 1 2 3 4 5 6 
#
# 1 0.013225 -0.009617 -0.004933 0.000000 -0.007115 0.000000
# 2 -0.009617 0.022637 0.001203 0.000000 0.011164 0.000000
# 3 -0.004933 0.001203 0.013428 0.000000 0.009099 0.000000
# 4 0.000000 0.000000 0.000000 0.075571 0.000000 0.042517
# 5 -0.007115 0.011164 0.009099 0.000000 0.036303 0.000000
# 6 0.000000 0.000000 0.000000 0.042517 0.000000 0.036326
#
#
# Mechanical properties :
#
#
# Convention : Reuss Voigt Hill
#
# Bulk Modulus (GPa) = 44.25532 62.35790 53.30661
# Shear Modulus (GPa) = 21.57799 44.21120 32.89460
#
# Velocity S-wave (km/s) = 3.16434 4.52944 3.90697
# Velocity P-wave (km/s) = 5.82126 7.50274 6.71484
#
# Compressibility (1/GPa) = 0.02259615
#
# Stress axis : x y z
#
# Youngs Moduli (GPa) = 75.61305 44.17500 74.47041
#
# Poissons Ratio (x) = 0.42482 0.36738
# Poissons Ratio (y) = 0.72714 -0.08956
# Poissons Ratio (z) = 0.37302 -0.05313
#
# Static dielectric constant tensor:
#      x y z
#    x 1.887320 0.000000 -0.016300 
#    y 0.000000 1.844360 0.000000 
#    z -0.016300 0.000000 1.834990 
# 
# From -- ./inp_files/134447.got.cif
#   From: 2010.05.17/outbox.cif.g08.bks.cpg/sg15_68_cif.got.tgz:134447.got - 2010.06.03 18:47:42.
