data_PCOD9278072
_publ_section_title
;
Structure prediction by ZEFSAII (Michael W. Deem and Ramdas Pophale) SiO2 
 PCOD9278072
Probable space group: C 2/C
;
_chemical_formula_sum "Si O2"
_cell_formula_units_Z 64
_cell_length_a 14.321924
_cell_length_b 25.642765
_cell_length_c 9.750071
_cell_angle_alpha 90.000000
_cell_angle_beta 129.659605
_cell_angle_gamma 90.000000
_cell_volume 2756.639321
_symmetry_space_group_name_H-M "C 2/C"
_symmetry_group_IT_number 15
_symmetry_cell_setting 'monoclinic'
loop_
_space_group_symop_operation_xyz
x,y,z
-x,y,1/2-z
-x,-y,-z
x,-y,1/2+z
1/2+x,1/2+y,z
1/2-x,1/2+y,1/2-z
1/2-x,1/2-y,-z
1/2+x,1/2-y,1/2+z
loop_
_atom_site_type_symbol
_atom_site_label
_atom_site_fract_x
_atom_site_fract_y
_atom_site_fract_z
Si Si1 0.518352 0.382518 0.607677
Si Si2 0.365787 0.185637 0.563329
Si Si3 0.690248 0.153208 0.534006
Si Si4 0.426455 0.981356 0.803992
Si Si5 0.636605 0.442897 0.270137
Si Si6 0.661962 0.459937 0.608735
Si Si7 0.417038 0.139707 0.342625
Si Si8 0.664421 0.702378 0.595605
O O1 0.500000 0.396888 0.750000
O O2 0.431899 0.411488 0.416096
O O3 0.646282 0.403799 0.669623
O O4 0.468714 0.323392 0.548611
O O5 0.500000 0.192518 0.750000
O O6 0.376163 0.141310 0.459928
O O7 0.337170 0.237582 0.448305
O O8 0.261271 0.177280 0.578255
O O9 0.740090 0.093507 0.603179
O O10 0.554103 0.161710 0.463028
O O11 0.673039 0.163889 0.355702
O O12 0.782960 0.189418 0.704977
O O13 0.500000 0.005576 0.750000
O O14 0.284888 0.990151 0.681645
O O15 0.430394 0.919197 0.806239
O O16 0.500000 0.000000 0.000000
O O17 0.607816 0.448915 0.406238
O O18 0.623427 0.500699 0.193925
#
# Coordination Sequence:
#
# PCOD9278072 Si02
#       8
#     8   8   8   8   8   8   8   8
#     4  11  25  42  67  96 135 182 230 285 342 412
#     4  11  23  43  71 104 133 177 225 287 354 416
#     4  10  20  42  65  95 135 176 219 283 341 406
#     4  12  25  43  65  99 136 181 231 290 348 408
#     4  11  23  42  67  94 135 181 232 284 343 407
#     4  12  23  42  65  97 132 184 233 287 344 404
#     4  11  21  40  68  96 134 176 225 278 344 408
#     4  10  24  44  69 100 141 175 228 287 346 422
#
# _framework density 23.216674000000001
#
# number of rings (size 3 to 8) (size 9 to 14) (size 15 to 20)
#    0.000    1.000    3.750    3.375    1.750    1.000 
#    2.250    0.000   11.000    0.000    0.000    0.000 
#    0.000    0.000    0.000    0.000    0.000    0.000 
#
# Total GULP energy -178202.808452 kJ/mol
# GULP energy per Si atom -5568.837764 kJ/mol
# Density = 2.316383 g / cm^3
# Si number density = 23.216674 Si / 1000 Ang^3
#
#
#
# Elastic Constant Matrix: (Units=GPa)
#
#
# Indices 1 2 3 4 5 6 
#
# 1 64.2699 -3.4918 37.5451 0.0000 -19.1811 0.0000
# 2 -3.4918 27.8212 14.3498 0.0000 -1.1943 0.0000
# 3 37.5451 14.3498 169.5990 0.0000 -16.8347 0.0000
# 4 0.0000 0.0000 0.0000 26.8750 0.0000 -0.4430
# 5 -19.1811 -1.1943 -16.8347 0.0000 39.8506 0.0000
# 6 0.0000 0.0000 0.0000 -0.4430 0.0000 32.6113
#
#
#
# Elastic Compliance Matrix: (Units=1/GPa)
#
#
# Indices 1 2 3 4 5 6 
#
# 1 0.020800 0.005140 -0.004207 0.000000 0.008388 0.000000
# 2 0.005140 0.038856 -0.004242 0.000000 0.001847 0.000000
# 3 -0.004207 -0.004242 0.007278 0.000000 0.000923 0.000000
# 4 0.000000 0.000000 0.000000 0.037218 0.000000 0.000506
# 5 0.008388 0.001847 0.000923 0.000000 0.029576 0.000000
# 6 0.000000 0.000000 0.000000 0.000506 0.000000 0.030671
#
#
# Mechanical properties :
#
#
# Convention : Reuss Voigt Hill
#
# Bulk Modulus (GPa) = 16.57916 39.83293 28.20604
# Shear Modulus (GPa) = 26.16128 34.08651 30.12390
#
# Velocity S-wave (km/s) = 3.36047 3.83585 3.60601
# Velocity P-wave (km/s) = 4.71313 6.06734 5.43260
#
# Compressibility (1/GPa) = 0.06031670
#
# Stress axis : x y z
#
# Youngs Moduli (GPa) = 48.07772 25.73583 137.39898
#
# Poissons Ratio (x) = -0.13229 0.57802
# Poissons Ratio (y) = -0.24714 0.58289
# Poissons Ratio (z) = 0.20226 0.10918
#
# Static dielectric constant tensor:
#      x y z
#    x 2.694280 0.000000 0.184310 
#    y 0.000000 1.873060 0.000000 
#    z 0.184310 0.000000 1.900980 
# 
# From -- ./inp_files/44893.got.cif
#   From: 2010.05.17/outbox.cif.g08.bks.cpg/sg15_23_cif.got.tgz:44893.got - 2010.06.03 18:47:42.
