data_PCOD9278194
_publ_section_title
;
Structure prediction by ZEFSAII (Michael W. Deem and Ramdas Pophale) SiO2 
 PCOD9278194
Probable space group: C 2/C
;
_chemical_formula_sum "Si O2"
_cell_formula_units_Z 64
_cell_length_a 28.285873
_cell_length_b 17.200580
_cell_length_c 8.630785
_cell_angle_alpha 90.000000
_cell_angle_beta 141.520596
_cell_angle_gamma 90.000000
_cell_volume 2612.860406
_symmetry_space_group_name_H-M "C 2/C"
_symmetry_group_IT_number 15
_symmetry_cell_setting 'monoclinic'
loop_
_space_group_symop_operation_xyz
x,y,z
-x,y,1/2-z
-x,-y,-z
x,-y,1/2+z
1/2+x,1/2+y,z
1/2-x,1/2+y,1/2-z
1/2-x,1/2-y,-z
1/2+x,1/2-y,1/2+z
loop_
_atom_site_type_symbol
_atom_site_label
_atom_site_fract_x
_atom_site_fract_y
_atom_site_fract_z
Si Si1 0.703322 0.913167 0.434345
Si Si2 0.971815 0.222522 0.353950
Si Si3 0.958980 0.357436 0.794542
Si Si4 0.682772 0.664192 0.669789
Si Si5 0.709234 0.502287 0.605789
Si Si6 0.880723 0.142373 0.658610
Si Si7 0.438762 0.974602 0.968752
Si Si8 0.316390 0.767140 0.309035
O O1 0.724477 0.943923 0.659942
O O2 0.701917 0.820203 0.391217
O O3 0.764659 0.951105 0.477722
O O4 0.627055 0.961173 0.186891
O O5 0.000000 0.231849 0.250000
O O6 0.979277 0.305666 0.456935
O O7 0.031491 0.165967 0.594368
O O8 0.888012 0.188929 0.120544
O O9 0.907727 0.401873 0.790855
O O10 0.898242 0.302074 0.562235
O O11 0.000000 0.397476 0.750000
O O12 0.695656 0.571985 0.690188
O O13 0.660344 0.677589 0.791756
O O14 0.754915 0.706644 0.779878
O O15 0.636546 0.448685 0.391667
O O16 0.839501 0.178006 0.400824
O O17 0.500000 0.944372 0.250000
O O18 0.500000 0.000000 0.000000
#
# Coordination Sequence:
#
# PCOD9278194 Si02
#       8
#     8   8   8   8   8   8   8   8
#     4  11  23  41  62  94 129 173 214 277 323 390
#     4   9  21  43  66  91 128 171 223 269 329 397
#     4  11  23  42  61  93 136 172 214 277 324 383
#     4  10  20  42  67  96 129 173 219 267 332 400
#     4  11  22  40  65  94 131 165 219 273 332 392
#     4  10  21  40  66  96 126 172 216 274 332 389
#     4  12  23  39  62  88 125 175 220 258 328 393
#     4  10  22  41  65  90 132 167 218 270 324 389
#
# _framework density 24.494230000000002
#
# number of rings (size 3 to 8) (size 9 to 14) (size 15 to 20)
#    0.000    1.500    1.250    4.875    0.000    1.000 
#   15.750    0.000    0.000    0.000    0.000    0.000 
#    0.000    0.000    0.000    0.000    0.000    0.000 
#
# Total GULP energy -178423.432839 kJ/mol
# GULP energy per Si atom -5575.732276 kJ/mol
# Density = 2.443848 g / cm^3
# Si number density = 24.494230 Si / 1000 Ang^3
#
#
#
# Elastic Constant Matrix: (Units=GPa)
#
#
# Indices 1 2 3 4 5 6 
#
# 1 52.4381 17.3652 11.6382 0.0000 8.7928 0.0000
# 2 17.3652 90.5726 8.1450 0.0000 3.6469 0.0000
# 3 11.6382 8.1450 98.4352 0.0000 -3.8383 0.0000
# 4 0.0000 0.0000 0.0000 29.8432 0.0000 4.7793
# 5 8.7928 3.6469 -3.8383 0.0000 31.0906 0.0000
# 6 0.0000 0.0000 0.0000 4.7793 0.0000 11.0811
#
#
#
# Elastic Compliance Matrix: (Units=1/GPa)
#
#
# Indices 1 2 3 4 5 6 
#
# 1 0.021878 -0.003724 -0.002515 0.000000 -0.006061 0.000000
# 2 -0.003724 0.011821 -0.000553 0.000000 -0.000402 0.000000
# 3 -0.002515 -0.000553 0.010583 0.000000 0.002083 0.000000
# 4 0.000000 0.000000 0.000000 0.035995 0.000000 -0.015525
# 5 -0.006061 -0.000402 0.002083 0.000000 0.034182 0.000000
# 6 0.000000 0.000000 0.000000 -0.015525 0.000000 0.096940
#
#
# Mechanical properties :
#
#
# Convention : Reuss Voigt Hill
#
# Bulk Modulus (GPa) = 32.57671 35.08253 33.82962
# Shear Modulus (GPa) = 21.25698 28.02279 24.63989
#
# Velocity S-wave (km/s) = 2.94910 3.38606 3.17511
# Velocity P-wave (km/s) = 4.99248 5.44436 5.22331
#
# Compressibility (1/GPa) = 0.03069677
#
# Stress axis : x y z
#
# Youngs Moduli (GPa) = 45.70816 84.59607 94.48837
#
# Poissons Ratio (x) = 0.31507 0.23762
# Poissons Ratio (y) = 0.17024 0.05229
# Poissons Ratio (z) = 0.11495 0.04682
#
# Static dielectric constant tensor:
#      x y z
#    x 1.883140 0.000000 0.025090 
#    y 0.000000 1.775080 0.000000 
#    z 0.025090 0.000000 1.925650 
# 
# From -- ./inp_files/70614.got.cif
#   From: 2010.05.17/outbox.cif.g08.bks.cpg/sg15_36_cif.got.tgz:70614.got - 2010.06.03 18:47:42.
