data_PCOD9278426
_publ_section_title
;
Structure prediction by ZEFSAII (Michael W. Deem and Ramdas Pophale) SiO2 
 PCOD9278426
Probable space group: C 2/C
;
_chemical_formula_sum "Si O2"
_cell_formula_units_Z 56
_cell_length_a 17.543908
_cell_length_b 7.967472
_cell_length_c 18.096085
_cell_angle_alpha 90.000000
_cell_angle_beta 102.752084
_cell_angle_gamma 90.000000
_cell_volume 2467.090090
_symmetry_space_group_name_H-M "C 2/C"
_symmetry_group_IT_number 15
_symmetry_cell_setting 'monoclinic'
loop_
_space_group_symop_operation_xyz
x,y,z
-x,y,1/2-z
-x,-y,-z
x,-y,1/2+z
1/2+x,1/2+y,z
1/2-x,1/2+y,1/2-z
1/2-x,1/2-y,-z
1/2+x,1/2-y,1/2+z
loop_
_atom_site_type_symbol
_atom_site_label
_atom_site_fract_x
_atom_site_fract_y
_atom_site_fract_z
Si Si1 0.930556 0.621388 0.507406
Si Si2 0.088227 0.522626 0.748447
Si Si3 0.892586 0.203173 0.842223
Si Si4 0.968852 0.894827 0.923948
Si Si5 0.256334 0.038044 0.640990
Si Si6 0.727140 0.943977 0.009280
Si Si7 0.820705 0.303628 0.365515
O O1 0.907949 0.709813 0.425099
O O2 0.963082 0.758245 0.572262
O O3 0.860931 0.506570 0.520706
O O4 0.000000 0.500000 0.500000
O O5 0.086201 0.330225 0.718340
O O6 0.152216 0.556336 0.825275
O O7 0.129178 0.620174 0.689415
O O8 0.000000 0.571774 0.750000
O O9 0.801169 0.154934 0.824886
O O10 0.942410 0.029409 0.856619
O O11 0.890306 0.790249 0.926616
O O12 0.000000 0.000000 0.000000
O O13 0.232438 0.047382 0.548391
O O14 0.236326 0.849448 0.663546
O O15 0.750000 0.750000 0.000000
O O16 0.728411 0.942576 0.098994
#
# Coordination Sequence:
#
# PCOD9278426 Si02
#       7
#     8   8   8   8   8   8   8
#     4  11  19  35  69  94 129 169 208 268 336 377
#     4  12  25  41  69  92 121 175 230 268 325 391
#     4  10  22  42  61  90 136 172 211 273 329 398
#     4   9  19  33  62  95 123 167 206 261 335 377
#     4  10  24  40  65  93 132 170 215 264 335 401
#     4  10  21  37  66  98 125 165 216 263 321 401
#     4  10  20  43  63  90 133 168 209 267 322 393
#
# _framework density 22.698805
#
# number of rings (size 3 to 8) (size 9 to 14) (size 15 to 20)
#    0.000    1.714    2.857    0.857    4.000    0.571 
#    0.000    2.857    3.143    0.000    0.000    0.000 
#    0.000    0.000    0.000    0.000    0.000    0.000 
#
# Total GULP energy -155889.801939 kJ/mol
# GULP energy per Si atom -5567.492926 kJ/mol
# Density = 2.264714 g / cm^3
# Si number density = 22.698805 Si / 1000 Ang^3
#
#
#
# Elastic Constant Matrix: (Units=GPa)
#
#
# Indices 1 2 3 4 5 6 
#
# 1 90.9157 28.1598 13.1276 0.0000 2.4530 0.0000
# 2 28.1598 63.1747 10.2937 0.0000 2.4078 0.0000
# 3 13.1276 10.2937 67.0048 0.0000 -9.6569 0.0000
# 4 0.0000 0.0000 0.0000 22.2393 0.0000 1.8396
# 5 2.4530 2.4078 -9.6569 0.0000 40.4070 0.0000
# 6 0.0000 0.0000 0.0000 1.8396 0.0000 44.9705
#
#
#
# Elastic Compliance Matrix: (Units=1/GPa)
#
#
# Indices 1 2 3 4 5 6 
#
# 1 0.012977 -0.005451 -0.001835 0.000000 -0.000901 0.000000
# 2 -0.005451 0.018628 -0.001974 0.000000 -0.001251 0.000000
# 3 -0.001835 -0.001974 0.016177 0.000000 0.004095 0.000000
# 4 0.000000 0.000000 0.000000 0.045118 0.000000 -0.001846
# 5 -0.000901 -0.001251 0.004095 0.000000 0.025856 0.000000
# 6 0.000000 0.000000 0.000000 -0.001846 0.000000 0.022312
#
#
# Mechanical properties :
#
#
# Convention : Reuss Voigt Hill
#
# Bulk Modulus (GPa) = 34.17369 36.02858 35.10114
# Shear Modulus (GPa) = 29.52586 32.82431 31.17508
#
# Velocity S-wave (km/s) = 3.61053 3.80686 3.70999
# Velocity P-wave (km/s) = 5.69817 5.93547 5.81803
#
# Compressibility (1/GPa) = 0.02926227
#
# Stress axis : x y z
#
# Youngs Moduli (GPa) = 77.06036 53.68200 61.81502
#
# Poissons Ratio (x) = 0.29262 0.11343
# Poissons Ratio (y) = 0.42006 0.12203
# Poissons Ratio (z) = 0.14140 0.10597
#
# Static dielectric constant tensor:
#      x y z
#    x 1.847950 0.000000 0.043760 
#    y 0.000000 1.914720 0.000000 
#    z 0.043760 0.000000 2.018910 
# 
# From -- ./inp_files/242787.got.cif
#   From: 2010.05.17/outbox.cif.g08.bks.cpg/sg15_122_cif.got.tgz:242787.got - 2010.06.03 18:47:42.
