data_PCOD9278303
_publ_section_title
;
Structure prediction by ZEFSAII (Michael W. Deem and Ramdas Pophale) SiO2 
 PCOD9278303
Probable space group: C 2/C
;
_chemical_formula_sum "Si O2"
_cell_formula_units_Z 56
_cell_length_a 18.843389
_cell_length_b 5.020567
_cell_length_c 23.772426
_cell_angle_alpha 90.000000
_cell_angle_beta 105.530975
_cell_angle_gamma 90.000000
_cell_volume 2166.858845
_symmetry_space_group_name_H-M "C 2/C"
_symmetry_group_IT_number 15
_symmetry_cell_setting 'monoclinic'
loop_
_space_group_symop_operation_xyz
x,y,z
-x,y,1/2-z
-x,-y,-z
x,-y,1/2+z
1/2+x,1/2+y,z
1/2-x,1/2+y,1/2-z
1/2-x,1/2-y,-z
1/2+x,1/2-y,1/2+z
loop_
_atom_site_type_symbol
_atom_site_label
_atom_site_fract_x
_atom_site_fract_y
_atom_site_fract_z
Si Si1 0.083334 0.587991 0.032342
Si Si2 0.291387 0.446275 0.337289
Si Si3 0.860439 0.382384 0.747557
Si Si4 0.430292 0.322300 0.584528
Si Si5 0.218901 0.805158 0.556311
Si Si6 0.413301 0.890099 0.355960
Si Si7 0.627012 0.199787 0.367020
O O1 0.142326 0.350480 0.039930
O O2 0.086807 0.637854 0.100019
O O3 0.098927 0.791028 0.985289
O O4 0.000000 0.500000 0.000000
O O5 0.206869 0.465657 0.297596
O O6 0.326045 0.268931 0.294145
O O7 0.289921 0.423598 0.406321
O O8 0.337786 0.721655 0.342018
O O9 0.922525 0.547473 0.792597
O O10 0.893970 0.235674 0.701387
O O11 0.418922 0.618964 0.601488
O O12 0.516756 0.269575 0.607829
O O13 0.388449 0.101141 0.614346
O O14 0.250000 0.750000 0.500000
O O15 0.289153 0.698865 0.606657
#
# Coordination Sequence:
#
# PCOD9278303 Si02
#       7
#     8   8   8   8   8   8   8
#     4   9  20  44  70 102 141 178 236 286 355 424
#     4  10  22  40  65  96 133 178 235 291 346 424
#     4  11  23  42  66  96 136 184 239 286 347 425
#     4  11  25  48  67 104 143 186 233 292 357 418
#     4  10  20  42  70 107 134 185 232 296 358 414
#     4  10  23  43  67  97 134 189 229 289 357 419
#     4  11  27  44  70 101 144 184 235 292 347 426
#
# _framework density 25.843862000000001
#
# number of rings (size 3 to 8) (size 9 to 14) (size 15 to 20)
#    0.000    1.714    2.857    0.000    4.000    2.286 
#    0.000    2.143    0.000    0.000    0.000    0.000 
#    0.000    0.000    0.000    0.000    0.000    0.000 
#
# Total GULP energy -156052.826269 kJ/mol
# GULP energy per Si atom -5573.315224 kJ/mol
# Density = 2.578504 g / cm^3
# Si number density = 25.843862 Si / 1000 Ang^3
#
#
#
# Elastic Constant Matrix: (Units=GPa)
#
#
# Indices 1 2 3 4 5 6 
#
# 1 82.5511 2.3373 23.6576 0.0000 1.2590 0.0000
# 2 2.3373 47.2880 19.5102 0.0002 -6.3381 0.0000
# 3 23.6576 19.5102 221.2041 0.0001 8.2207 0.0000
# 4 0.0000 0.0002 0.0001 29.3008 -0.0001 -8.5183
# 5 1.2590 -6.3381 8.2207 -0.0001 33.7249 0.0000
# 6 0.0000 0.0000 0.0000 -8.5183 0.0000 33.5134
#
#
#
# Elastic Compliance Matrix: (Units=1/GPa)
#
#
# Indices 1 2 3 4 5 6 
#
# 1 0.012498 -0.000094 -0.001322 0.000000 -0.000162 0.000000
# 2 -0.000094 0.022690 -0.002169 0.000000 0.004797 0.000000
# 3 -0.001322 -0.002169 0.004911 0.000000 -0.001556 0.000000
# 4 0.000000 0.000000 0.000000 0.036852 0.000000 0.009367
# 5 -0.000162 0.004797 -0.001556 0.000000 0.030938 0.000000
# 6 0.000000 0.000000 0.000000 0.009367 0.000000 0.032220
#
#
# Mechanical properties :
#
#
# Convention : Reuss Voigt Hill
#
# Bulk Modulus (GPa) = 30.36982 49.11705 39.74344
# Shear Modulus (GPa) = 31.59443 39.67701 35.63572
#
# Velocity S-wave (km/s) = 3.50024 3.92249 3.71736
# Velocity P-wave (km/s) = 5.30211 6.28976 5.81693
#
# Compressibility (1/GPa) = 0.03292742
#
# Stress axis : x y z
#
# Youngs Moduli (GPa) = 80.01413 44.07304 203.61258
#
# Poissons Ratio (x) = 0.00414 0.26924
# Poissons Ratio (y) = 0.00751 0.44173
# Poissons Ratio (z) = 0.10581 0.09561
#
# Static dielectric constant tensor:
#      x y z
#    x 2.157430 0.000000 -0.059190 
#    y 0.000000 2.160420 0.000000 
#    z -0.059190 0.000000 2.035170 
# 
# From -- ./inp_files/278982.got.cif
#   From: 2010.05.17/outbox.cif.g08.bks.cpg/sg15_140_cif.got.tgz:278982.got - 2010.06.03 18:47:42.
