data_PCOD9278963
_publ_section_title
;
Structure prediction by ZEFSAII (Michael W. Deem and Ramdas Pophale) SiO2 
 PCOD9278963
Probable space group: C 2/C
;
_chemical_formula_sum "Si O2"
_cell_formula_units_Z 56
_cell_length_a 13.914982
_cell_length_b 24.181773
_cell_length_c 10.632443
_cell_angle_alpha 90.000000
_cell_angle_beta 121.659036
_cell_angle_gamma 90.000000
_cell_volume 3045.289749
_symmetry_space_group_name_H-M "C 2/C"
_symmetry_group_IT_number 15
_symmetry_cell_setting 'monoclinic'
loop_
_space_group_symop_operation_xyz
x,y,z
-x,y,1/2-z
-x,-y,-z
x,-y,1/2+z
1/2+x,1/2+y,z
1/2-x,1/2+y,1/2-z
1/2-x,1/2-y,-z
1/2+x,1/2-y,1/2+z
loop_
_atom_site_type_symbol
_atom_site_label
_atom_site_fract_x
_atom_site_fract_y
_atom_site_fract_z
Si Si1 0.994043 0.176089 0.887327
Si Si2 0.055020 0.694787 0.163218
Si Si3 0.921475 0.995423 0.321397
Si Si4 0.574003 0.178838 0.673703
Si Si5 0.634438 0.395578 0.833062
Si Si6 0.708034 0.395627 0.158901
Si Si7 0.314540 0.299823 0.797537
O O1 0.985020 0.241777 0.870498
O O2 0.884595 0.152000 0.878860
O O3 0.000000 0.153070 0.750000
O O4 0.102951 0.168348 0.048828
O O5 0.189183 0.699427 0.265343
O O6 0.000000 0.668968 0.250000
O O7 0.008543 0.669606 0.002030
O O8 0.857167 0.053412 0.256883
O O9 0.000000 0.987975 0.250000
O O10 0.832954 0.945999 0.281666
O O11 0.000000 0.000000 0.500000
O O12 0.500000 0.180370 0.750000
O O13 0.669813 0.131553 0.740933
O O14 0.637085 0.238638 0.698450
O O15 0.500000 0.385441 0.750000
O O16 0.687354 0.337925 0.826993
O O17 0.687183 0.413394 0.001080
#
# Coordination Sequence:
#
# PCOD9278963 Si02
#       7
#     8   8   8   8   8   8   8
#     4  10  21  33  56  90 118 166 204 247 314 364
#     4  10  23  39  55  86 131 167 211 248 301 373
#     4  11  21  40  63  95 126 156 206 264 319 370
#     4  11  25  39  62  94 125 171 210 254 308 383
#     4  11  21  36  59  93 123 157 201 262 311 363
#     4  12  22  39  62  91 130 157 209 264 316 368
#     4  11  21  38  64  86 131 168 208 252 312 379
#
# _framework density 18.389054999999999
#
# number of rings (size 3 to 8) (size 9 to 14) (size 15 to 20)
#    0.000    1.143    5.714    1.714    4.000    2.857 
#    0.000    0.000    0.000    4.286    0.000    0.000 
#    0.000    0.000    0.000    0.000    0.000    0.000 
#
# Total GULP energy -156186.514947 kJ/mol
# GULP energy per Si atom -5578.089820 kJ/mol
# Density = 1.834720 g / cm^3
# Si number density = 18.389055 Si / 1000 Ang^3
#
#
#
# Elastic Constant Matrix: (Units=GPa)
#
#
# Indices 1 2 3 4 5 6 
#
# 1 114.9057 14.8893 49.0181 0.0000 0.6040 0.0000
# 2 14.8893 54.6509 9.8199 0.0000 -7.0773 0.0000
# 3 49.0181 9.8199 87.6890 0.0000 -7.2527 0.0000
# 4 0.0000 0.0000 0.0000 15.6447 0.0000 -1.5356
# 5 0.6040 -7.0773 -7.2527 0.0000 24.4576 0.0000
# 6 0.0000 0.0000 0.0000 -1.5356 0.0000 23.5725
#
#
#
# Elastic Compliance Matrix: (Units=1/GPa)
#
#
# Indices 1 2 3 4 5 6 
#
# 1 0.011845 -0.002424 -0.006594 0.000000 -0.002949 0.000000
# 2 -0.002424 0.019762 -0.000389 0.000000 0.005663 0.000000
# 3 -0.006594 -0.000389 0.015518 0.000000 0.004652 0.000000
# 4 0.000000 0.000000 0.000000 0.064331 0.000000 0.004191
# 5 -0.002949 0.005663 0.004652 0.000000 0.043978 0.000000
# 6 0.000000 0.000000 0.000000 0.004191 0.000000 0.042695
#
#
# Mechanical properties :
#
#
# Convention : Reuss Voigt Hill
#
# Bulk Modulus (GPa) = 35.32327 44.96666 40.14496
# Shear Modulus (GPa) = 22.08656 24.96952 23.52804
#
# Velocity S-wave (km/s) = 3.46941 3.68890 3.58083
# Velocity P-wave (km/s) = 5.94135 6.53069 6.24298
#
# Compressibility (1/GPa) = 0.02830995
#
# Stress axis : x y z
#
# Youngs Moduli (GPa) = 84.42095 50.60268 64.43972
#
# Poissons Ratio (x) = 0.12268 0.42492
# Poissons Ratio (y) = 0.20466 0.02510
# Poissons Ratio (z) = 0.55667 0.01971
#
# Static dielectric constant tensor:
#      x y z
#    x 1.652670 0.000000 -0.045030 
#    y 0.000000 1.636190 0.000000 
#    z -0.045030 0.000000 1.701220 
# 
# From -- ./inp_files/34209.got.cif
#   From: 2010.05.17/outbox.cif.g08.bks.cpg/sg15_18_cif.got.tgz:34209.got - 2010.06.03 18:47:42.
