data_PCOD9278509
_publ_section_title
;
Structure prediction by ZEFSAII (Michael W. Deem and Ramdas Pophale) SiO2 
 PCOD9278509
Probable space group: C 2/C
;
_chemical_formula_sum "Si O2"
_cell_formula_units_Z 56
_cell_length_a 11.199350
_cell_length_b 18.107179
_cell_length_c 12.667715
_cell_angle_alpha 90.000000
_cell_angle_beta 93.835958
_cell_angle_gamma 90.000000
_cell_volume 2563.113545
_symmetry_space_group_name_H-M "C 2/C"
_symmetry_group_IT_number 15
_symmetry_cell_setting 'monoclinic'
loop_
_space_group_symop_operation_xyz
x,y,z
-x,y,1/2-z
-x,-y,-z
x,-y,1/2+z
1/2+x,1/2+y,z
1/2-x,1/2+y,1/2-z
1/2-x,1/2-y,-z
1/2+x,1/2-y,1/2+z
loop_
_atom_site_type_symbol
_atom_site_label
_atom_site_fract_x
_atom_site_fract_y
_atom_site_fract_z
Si Si1 0.119075 0.251076 0.941151
Si Si2 0.815099 0.030406 0.806932
Si Si3 0.587967 0.283135 0.909884
Si Si4 0.420487 0.040872 0.836025
Si Si5 0.500000 0.592831 0.250000
Si Si6 0.500000 0.346192 0.250000
Si Si7 0.790686 0.357340 0.053375
Si Si8 0.016596 0.603414 0.439009
O O1 0.072321 0.197913 0.845023
O O2 0.093221 0.332353 0.893094
O O3 0.250000 0.250000 0.000000
O O4 0.033078 0.237698 0.036815
O O5 0.712407 0.024392 0.712187
O O6 0.741192 0.061593 0.903557
O O7 0.901241 0.099962 0.793464
O O8 0.903769 0.959857 0.805744
O O9 0.568740 0.350292 0.829449
O O10 0.647223 0.206760 0.870783
O O11 0.674619 0.317118 0.003146
O O12 0.500000 0.079489 0.750000
O O13 0.495345 0.967369 0.867370
O O14 0.420456 0.083612 0.946230
O O15 0.885298 0.368241 0.964681
#
# Coordination Sequence:
#
# PCOD9278509 Si02
#       8
#     8   8   8   8   4   4   8   8
#     4  11  24  44  66  99 135 176 226 282 342 404
#     4  11  23  43  65  95 133 182 218 272 346 404
#     4  10  23  43  65 100 129 173 229 278 340 402
#     4  11  22  39  63  94 130 172 221 270 335 398
#     4  11  26  42  66 102 135 170 230 277 336 412
#     4  11  24  44  66  94 133 176 222 279 338 404
#     4  10  20  43  69  87 133 175 220 278 332 404
#     4  10  23  40  63  96 129 170 224 279 328 403
#
# _framework density 21.848427000000001
#
# number of rings (size 3 to 8) (size 9 to 14) (size 15 to 20)
#    0.000    1.429    2.857    1.714    1.000    5.143 
#    2.571    0.000    0.000    0.000    0.000    0.000 
#    0.000    0.000    0.000    0.000    0.000    0.000 
#
# Total GULP energy -156176.972272 kJ/mol
# GULP energy per Si atom -5577.749010 kJ/mol
# Density = 2.179870 g / cm^3
# Si number density = 21.848427 Si / 1000 Ang^3
#
#
#
# Elastic Constant Matrix: (Units=GPa)
#
#
# Indices 1 2 3 4 5 6 
#
# 1 110.4324 26.9305 27.4211 0.0000 30.8797 0.0000
# 2 26.9305 121.9948 40.6525 0.0000 13.2891 0.0000
# 3 27.4211 40.6525 65.9064 0.0000 17.7608 0.0000
# 4 0.0000 0.0000 0.0000 7.3606 0.0000 0.3439
# 5 30.8797 13.2891 17.7608 0.0000 30.1038 0.0000
# 6 0.0000 0.0000 0.0000 0.3439 0.0000 15.5500
#
#
#
# Elastic Compliance Matrix: (Units=1/GPa)
#
#
# Indices 1 2 3 4 5 6 
#
# 1 0.013056 -0.001060 -0.001540 0.000000 -0.012016 0.000000
# 2 -0.001060 0.010427 -0.005997 0.000000 0.000022 0.000000
# 3 -0.001540 -0.005997 0.021847 0.000000 -0.008662 0.000000
# 4 0.000000 0.000000 0.000000 0.135998 0.000000 -0.003008
# 5 -0.012016 0.000022 -0.008662 0.000000 0.050645 0.000000
# 6 0.000000 0.000000 0.000000 -0.003008 0.000000 0.064375
#
#
# Mechanical properties :
#
#
# Convention : Reuss Voigt Hill
#
# Bulk Modulus (GPa) = 35.54070 54.26022 44.90046
# Shear Modulus (GPa) = 15.48366 24.15818 19.82092
#
# Velocity S-wave (km/s) = 2.66500 3.32884 3.01525
# Velocity P-wave (km/s) = 5.07660 6.29791 5.71995
#
# Compressibility (1/GPa) = 0.02813675
#
# Stress axis : x y z
#
# Youngs Moduli (GPa) = 76.59149 95.90617 45.77281
#
# Poissons Ratio (x) = 0.10166 0.07050
# Poissons Ratio (y) = 0.08119 0.27448
# Poissons Ratio (z) = 0.11797 0.57510
#
# Static dielectric constant tensor:
#      x y z
#    x 1.866900 0.000000 -0.053980 
#    y 0.000000 1.847070 0.000000 
#    z -0.053980 0.000000 1.927870 
# 
# From -- ./inp_files/145782.got.cif
#   From: 2010.05.17/outbox.cif.g08.bks.cpg/sg15_73_cif.got.tgz:145782.got - 2010.06.03 18:47:42.
