data_PCOD9278471
_publ_section_title
;
Structure prediction by ZEFSAII (Michael W. Deem and Ramdas Pophale) SiO2 
 PCOD9278471
Probable space group: C 2/C
;
_chemical_formula_sum "Si O2"
_cell_formula_units_Z 40
_cell_length_a 13.951262
_cell_length_b 13.962771
_cell_length_c 16.351945
_cell_angle_alpha 90.000000
_cell_angle_beta 150.518632
_cell_angle_gamma 90.000000
_cell_volume 1567.630255
_symmetry_space_group_name_H-M "C 2/C"
_symmetry_group_IT_number 15
_symmetry_cell_setting 'monoclinic'
loop_
_space_group_symop_operation_xyz
x,y,z
-x,y,1/2-z
-x,-y,-z
x,-y,1/2+z
1/2+x,1/2+y,z
1/2-x,1/2+y,1/2-z
1/2-x,1/2-y,-z
1/2+x,1/2-y,1/2+z
loop_
_atom_site_type_symbol
_atom_site_label
_atom_site_fract_x
_atom_site_fract_y
_atom_site_fract_z
Si Si1 0.534137 0.718870 0.545983
Si Si2 0.703650 0.653539 0.510105
Si Si3 0.500000 0.005105 0.750000
Si Si4 0.500000 0.484091 0.750000
Si Si5 0.289340 0.552373 0.328043
Si Si6 0.727800 0.102273 0.651397
O O1 0.695611 0.687486 0.598388
O O2 0.350566 0.662557 0.368214
O O3 0.455878 0.826938 0.496015
O O4 0.601639 0.666848 0.678930
O O5 0.750000 0.750000 0.500000
O O6 0.870391 0.581300 0.605426
O O7 0.523019 0.589905 0.343316
O O8 0.350628 0.952292 0.697198
O O9 0.322524 0.554943 0.641389
O O10 0.500000 0.500000 0.500000
O O11 0.193406 0.486077 0.187906
#
# Coordination Sequence:
#
# PCOD9278471 Si02
#       6
#     8   8   4   4   8   8
#     4  11  24  46  72 101 152 195 243 311 371 441
#     4  12  25  42  73 109 138 191 255 308 370 436
#     4  12  21  41  74  96 130 196 238 294 378 424
#     4  12  27  47  72 108 160 192 242 320 368 442
#     4  10  20  43  66  97 142 184 238 304 360 431
#     4  11  24  45  72 104 150 198 243 308 372 437
#
# _framework density 25.516221999999999
#
# number of rings (size 3 to 8) (size 9 to 14) (size 15 to 20)
#    0.000    0.800    6.000    3.000    2.800    3.200 
#    0.000    3.000    0.000    0.000    0.000    0.000 
#    0.000    0.000    0.000    0.000    0.000    0.000 
#
# Total GULP energy -111640.457457 kJ/mol
# GULP energy per Si atom -5582.022873 kJ/mol
# Density = 2.545815 g / cm^3
# Si number density = 25.516222 Si / 1000 Ang^3
#
#
#
# Elastic Constant Matrix: (Units=GPa)
#
#
# Indices 1 2 3 4 5 6 
#
# 1 129.2636 30.3763 5.4205 0.0041 15.0565 0.0004
# 2 30.3763 146.8289 23.1390 0.0123 -3.0161 0.0012
# 3 5.4205 23.1390 76.9106 0.0140 1.2191 0.0038
# 4 0.0041 0.0123 0.0140 20.9287 0.0050 -10.1819
# 5 15.0565 -3.0161 1.2191 0.0050 33.7179 -0.0001
# 6 0.0004 0.0012 0.0038 -10.1819 -0.0001 17.6446
#
#
#
# Elastic Compliance Matrix: (Units=1/GPa)
#
#
# Indices 1 2 3 4 5 6 
#
# 1 0.008645 -0.001874 0.000018 0.000000 -0.004029 0.000000
# 2 -0.001874 0.007573 -0.002172 -0.000004 0.001593 -0.000002
# 3 0.000018 -0.002172 0.013665 -0.000013 -0.000697 -0.000010
# 4 0.000000 -0.000004 -0.000013 0.066431 -0.000010 0.038334
# 5 -0.004029 0.001593 -0.000697 -0.000010 0.031624 -0.000005
# 6 0.000000 -0.000002 -0.000010 0.038334 -0.000005 0.078795
#
#
# Mechanical properties :
#
#
# Convention : Reuss Voigt Hill
#
# Bulk Modulus (GPa) = 45.81102 52.31941 49.06522
# Shear Modulus (GPa) = 22.51589 34.06272 28.28931
#
# Velocity S-wave (km/s) = 2.97377 3.65765 3.33330
# Velocity P-wave (km/s) = 5.45745 6.19571 5.83826
#
# Compressibility (1/GPa) = 0.02182881
#
# Stress axis : x y z
#
# Youngs Moduli (GPa) = 115.67337 132.04228 73.17854
#
# Poissons Ratio (x) = 0.24747 -0.00135
# Poissons Ratio (y) = 0.21679 0.15892
# Poissons Ratio (z) = -0.00213 0.28675
#
# Static dielectric constant tensor:
#      x y z
#    x 1.974580 0.000000 0.067090 
#    y 0.000000 1.988540 -0.000010 
#    z 0.067090 -0.000010 2.187300 
# 
# From -- ./inp_files/37911.got.cif
#   From: 2010.05.17/outbox.cif.g08.bks.cpg/sg15_19_cif.got.tgz:37911.got - 2010.06.03 18:47:42.
