data_PCOD9278022
_publ_section_title
;
Structure prediction by ZEFSAII (Michael W. Deem and Ramdas Pophale) SiO2 
 PCOD9278022
Probable space group: C 2/C
;
_chemical_formula_sum "Si O2"
_cell_formula_units_Z 48
_cell_length_a 8.969360
_cell_length_b 25.240824
_cell_length_c 10.446997
_cell_angle_alpha 90.000000
_cell_angle_beta 92.196386
_cell_angle_gamma 90.000000
_cell_volume 2363.400245
_symmetry_space_group_name_H-M "C 2/C"
_symmetry_group_IT_number 15
_symmetry_cell_setting 'monoclinic'
loop_
_space_group_symop_operation_xyz
x,y,z
-x,y,1/2-z
-x,-y,-z
x,-y,1/2+z
1/2+x,1/2+y,z
1/2-x,1/2+y,1/2-z
1/2-x,1/2-y,-z
1/2+x,1/2-y,1/2+z
loop_
_atom_site_type_symbol
_atom_site_label
_atom_site_fract_x
_atom_site_fract_y
_atom_site_fract_z
Si Si1 0.772108 0.880951 0.308375
Si Si2 0.160926 0.058573 0.446787
Si Si3 0.676645 0.434442 0.468577
Si Si4 0.500000 0.193830 0.750000
Si Si5 0.768148 0.234502 0.356826
Si Si6 0.322540 0.884214 0.713231
Si Si7 0.000000 0.195390 0.750000
O O1 0.763986 0.925542 0.415392
O O2 0.626654 0.844371 0.309545
O O3 0.917092 0.844670 0.344462
O O4 0.795724 0.901893 0.163107
O O5 0.235075 0.089736 0.330792
O O6 0.985240 0.070715 0.466299
O O7 0.182040 0.995956 0.428491
O O8 0.794043 0.417524 0.581839
O O9 0.577806 0.235804 0.661974
O O10 0.750000 0.250000 0.500000
O O11 0.748451 0.173638 0.318506
O O12 0.634979 0.266757 0.287530
O O13 0.500000 0.880177 0.750000
#
# Coordination Sequence:
#
# PCOD9278022 Si02
#       7
#     8   8   8   4   8   8   4
#     4  11  22  43  71 100 132 183 230 287 348 424
#     4  11  25  44  75 102 134 183 240 288 344 424
#     4  11  24  48  70 100 141 185 230 288 357 416
#     4  10  26  40  66  96 132 174 230 272 352 408
#     4  11  25  44  68  96 139 182 222 285 346 418
#     4  12  27  44  70 108 143 180 231 295 348 411
#     4  10  20  42  64  94 128 170 224 274 340 406
#
# _framework density 20.309719999999999
#
# number of rings (size 3 to 8) (size 9 to 14) (size 15 to 20)
#    0.000    1.000    2.500    3.500    7.000    3.333 
#    3.000    3.333    0.000    0.000    0.000    0.000 
#    0.000    0.000    0.000    0.000    0.000    0.000 
#
# Total GULP energy -133740.377472 kJ/mol
# GULP energy per Si atom -5572.515728 kJ/mol
# Density = 2.026349 g / cm^3
# Si number density = 20.309720 Si / 1000 Ang^3
#
#
#
# Elastic Constant Matrix: (Units=GPa)
#
#
# Indices 1 2 3 4 5 6 
#
# 1 71.4075 52.7815 31.8452 0.0000 -22.6502 0.0000
# 2 52.7815 120.6779 45.6015 0.0000 -12.1537 0.0000
# 3 31.8452 45.6015 126.0396 0.0000 -17.7725 0.0000
# 4 0.0000 0.0000 0.0000 -22.4478 0.0000 8.6925
# 5 -22.6502 -12.1537 -17.7725 0.0000 29.0773 0.0000
# 6 0.0000 0.0000 0.0000 8.6925 0.0000 26.8062
#
#
#
# Elastic Compliance Matrix: (Units=1/GPa)
#
#
# Indices 1 2 3 4 5 6 
#
# 1 0.026737 -0.009700 -0.000964 0.000000 0.016184 0.000000
# 2 -0.009700 0.013233 -0.002870 0.000000 -0.003779 0.000000
# 3 -0.000964 -0.002870 0.009784 0.000000 0.004030 0.000000
# 4 0.000000 0.000000 0.000000 -0.039578 0.000000 0.012834
# 5 0.016184 -0.003779 0.004030 0.000000 0.047881 0.000000
# 6 0.000000 0.000000 0.000000 0.012834 0.000000 0.033143
#
#
# Mechanical properties :
#
#
# Convention : Reuss Voigt Hill
#
# Bulk Modulus (GPa) = 44.07832 64.28680 54.18256
# Shear Modulus (GPa) = 39.73596 19.21359 29.47477
#
# Velocity S-wave (km/s) = 4.42803 3.07910 3.81368
# Velocity P-wave (km/s) = 6.92051 6.66056 6.79178
#
# Compressibility (1/GPa) = 0.02268689
#
# Stress axis : x y z
#
# Youngs Moduli (GPa) = 37.40082 75.56908 102.20691
#
# Poissons Ratio (x) = 0.73303 0.09852
# Poissons Ratio (y) = 0.36279 0.29331
# Poissons Ratio (z) = 0.03605 0.21686
#
# Static dielectric constant tensor:
#      x y z
#    x 1.754380 0.000000 -0.003250 
#    y 0.000000 1.730820 0.000000 
#    z -0.003250 0.000000 1.670570 
# 
# From -- ./inp_files/79193.got.cif
#   From: 2010.05.17/outbox.cif.g08.bks.cpg/sg15_40_cif.got.tgz:79193.got - 2010.06.03 18:47:42.
