data_PCOD9278177
_publ_section_title
;
Structure prediction by ZEFSAII (Michael W. Deem and Ramdas Pophale) SiO2 
 PCOD9278177
Probable space group: C 2/C
;
_chemical_formula_sum "Si O2"
_cell_formula_units_Z 56
_cell_length_a 16.418989
_cell_length_b 8.642041
_cell_length_c 24.075847
_cell_angle_alpha 90.000000
_cell_angle_beta 54.593313
_cell_angle_gamma 90.000000
_cell_volume 2784.415138
_symmetry_space_group_name_H-M "C 2/C"
_symmetry_group_IT_number 15
_symmetry_cell_setting 'monoclinic'
loop_
_space_group_symop_operation_xyz
x,y,z
-x,y,1/2-z
-x,-y,-z
x,-y,1/2+z
1/2+x,1/2+y,z
1/2-x,1/2+y,1/2-z
1/2-x,1/2-y,-z
1/2+x,1/2-y,1/2+z
loop_
_atom_site_type_symbol
_atom_site_label
_atom_site_fract_x
_atom_site_fract_y
_atom_site_fract_z
Si Si1 0.394803 0.851571 0.802385
Si Si2 0.242675 0.680052 0.942033
Si Si3 0.971450 0.615327 0.462633
Si Si4 0.707504 0.681110 0.074096
Si Si5 0.691766 0.030286 0.764880
Si Si6 0.531307 0.894656 0.140924
Si Si7 0.813318 0.272059 0.648012
O O1 0.500000 0.765105 0.750000
O O2 0.316573 0.762476 0.870771
O O3 0.342063 0.900778 0.766429
O O4 0.430383 0.003997 0.822181
O O5 0.272352 0.500564 0.932314
O O6 0.250000 0.750000 0.000000
O O7 0.125535 0.701158 0.975869
O O8 0.943694 0.505731 0.421349
O O9 0.000000 0.500000 0.500000
O O10 0.066983 0.716889 0.407466
O O11 0.592894 0.737019 0.118741
O O12 0.761787 0.745434 0.108199
O O13 0.750000 0.750000 0.000000
O O14 0.588125 0.125254 0.813322
O O15 0.774948 0.137346 0.703989
O O16 0.716153 0.936772 0.811420
#
# Coordination Sequence:
#
# PCOD9278177 Si02
#       7
#     8   8   8   8   8   8   8
#     4  10  21  42  66  92 131 176 216 280 342 397
#     4  12  24  41  67  99 132 173 231 278 334 401
#     4  11  21  41  66  93 133 175 219 269 344 397
#     4  12  22  41  69  98 129 173 234 278 325 407
#     4  10  24  42  66  92 137 175 222 274 351 401
#     4  10  20  42  67  91 125 181 223 267 333 402
#     4  11  24  42  68  96 133 180 223 278 343 413
#
# _framework density 20.111941999999999
#
# number of rings (size 3 to 8) (size 9 to 14) (size 15 to 20)
#    0.000    1.143    5.714    0.000    2.000    0.000 
#    5.143    0.714    0.000    0.000    0.000    0.000 
#    0.000    0.000    0.000    0.000    0.000    0.000 
#
# Total GULP energy -156322.407347 kJ/mol
# GULP energy per Si atom -5582.943120 kJ/mol
# Density = 2.006617 g / cm^3
# Si number density = 20.111942 Si / 1000 Ang^3
#
#
#
# Elastic Constant Matrix: (Units=GPa)
#
#
# Indices 1 2 3 4 5 6 
#
# 1 85.9407 22.4376 55.2374 0.0000 -10.1321 0.0000
# 2 22.4376 43.7945 42.7900 0.0000 -21.8975 0.0000
# 3 55.2374 42.7900 146.2682 0.0000 -29.6918 0.0000
# 4 0.0000 0.0000 0.0000 49.2098 0.0000 -7.0876
# 5 -10.1321 -21.8975 -29.6918 0.0000 55.3997 0.0000
# 6 0.0000 0.0000 0.0000 -7.0876 0.0000 28.4120
#
#
#
# Elastic Compliance Matrix: (Units=1/GPa)
#
#
# Indices 1 2 3 4 5 6 
#
# 1 0.015747 -0.003728 -0.005129 0.000000 -0.001342 0.000000
# 2 -0.003728 0.036930 -0.007373 0.000000 0.009963 0.000000
# 3 -0.005129 -0.007373 0.011388 0.000000 0.002251 0.000000
# 4 0.000000 0.000000 0.000000 0.021078 0.000000 0.005258
# 5 -0.001342 0.009963 0.002251 0.000000 0.022950 0.000000
# 6 0.000000 0.000000 0.000000 0.005258 0.000000 0.036508
#
#
# Mechanical properties :
#
#
# Convention : Reuss Voigt Hill
#
# Bulk Modulus (GPa) = 31.64087 57.43705 44.53896
# Shear Modulus (GPa) = 26.65302 36.97353 31.81327
#
# Velocity S-wave (km/s) = 3.64432 4.29229 3.98151
# Velocity P-wave (km/s) = 5.78573 7.29285 6.58257
#
# Compressibility (1/GPa) = 0.03160469
#
# Stress axis : x y z
#
# Youngs Moduli (GPa) = 63.50215 27.07843 87.81528
#
# Poissons Ratio (x) = 0.10095 0.45039
# Poissons Ratio (y) = 0.23674 0.64748
# Poissons Ratio (z) = 0.32569 0.19965
#
# Static dielectric constant tensor:
#      x y z
#    x 1.695180 0.000000 -0.031200 
#    y 0.000000 1.691540 0.000000 
#    z -0.031200 0.000000 1.738870 
# 
# From -- ./inp_files/273046.got.cif
#   From: 2010.05.17/outbox.cif.g08.bks.cpg/sg15_137_cif.got.tgz:273046.got - 2010.06.03 18:47:42.
