data_PCOD9278494
_publ_section_title
;
Structure prediction by ZEFSAII (Michael W. Deem and Ramdas Pophale) SiO2 
 PCOD9278494
Probable space group: C 2/C
;
_chemical_formula_sum "Si O2"
_cell_formula_units_Z 52
_cell_length_a 9.328243
_cell_length_b 11.969033
_cell_length_c 20.564417
_cell_angle_alpha 90.000000
_cell_angle_beta 69.230397
_cell_angle_gamma 90.000000
_cell_volume 2146.808975
_symmetry_space_group_name_H-M "C 2/C"
_symmetry_group_IT_number 15
_symmetry_cell_setting 'monoclinic'
loop_
_space_group_symop_operation_xyz
x,y,z
-x,y,1/2-z
-x,-y,-z
x,-y,1/2+z
1/2+x,1/2+y,z
1/2-x,1/2+y,1/2-z
1/2-x,1/2-y,-z
1/2+x,1/2-y,1/2+z
loop_
_atom_site_type_symbol
_atom_site_label
_atom_site_fract_x
_atom_site_fract_y
_atom_site_fract_z
Si Si1 0.983383 0.399256 0.555657
Si Si2 0.720391 0.625550 0.837892
Si Si3 0.864672 0.601338 0.326104
Si Si4 0.875404 0.077168 0.383580
Si Si5 0.081813 0.160794 0.671843
Si Si6 0.392975 0.687316 0.509274
Si Si7 0.000000 0.775395 0.750000
O O1 0.801264 0.387029 0.598830
O O2 0.015442 0.279744 0.514315
O O3 0.000000 0.500000 0.500000
O O4 0.072625 0.420448 0.609680
O O5 0.748861 0.494403 0.820496
O O6 0.571715 0.694934 0.840389
O O7 0.692239 0.625265 0.918961
O O8 0.858501 0.690853 0.782178
O O9 0.000000 0.599271 0.250000
O O10 0.813915 0.731680 0.334730
O O11 0.942121 0.104729 0.443959
O O12 0.977448 0.143646 0.315222
O O13 0.860177 0.945180 0.375465
O O14 0.000000 0.116689 0.750000
O O15 0.250000 0.750000 0.500000
#
# Coordination Sequence:
#
# PCOD9278494 Si02
#       7
#     8   8   8   8   8   8   4
#     4  11  23  44  71 103 147 187 245 305 364 446
#     4  12  24  44  72 102 144 186 246 299 365 445
#     4  11  24  42  69 103 142 187 238 303 372 434
#     4  11  24  43  73 103 139 191 243 297 373 435
#     4  11  26  46  65 103 151 184 235 312 368 442
#     4  10  20  43  67  98 138 181 239 298 350 435
#     4  12  22  42  74 104 134 186 250 298 366 430
#
# _framework density 24.221997000000002
#
# number of rings (size 3 to 8) (size 9 to 14) (size 15 to 20)
#    0.000    0.923    6.154    1.846    2.154    3.077 
#    2.769    1.538    0.000    0.000    0.000    0.000 
#    0.000    0.000    0.000    0.000    0.000    0.000 
#
# Total GULP energy -144970.547774 kJ/mol
# GULP energy per Si atom -5575.790299 kJ/mol
# Density = 2.416687 g / cm^3
# Si number density = 24.221997 Si / 1000 Ang^3
#
#
#
# Elastic Constant Matrix: (Units=GPa)
#
#
# Indices 1 2 3 4 5 6 
#
# 1 42.3644 13.6489 8.7051 0.0000 4.8011 0.0000
# 2 13.6489 159.1584 25.4454 0.0000 -13.7875 0.0000
# 3 8.7051 25.4454 117.6054 0.0000 8.9594 0.0000
# 4 0.0000 0.0000 0.0000 51.9272 0.0000 -5.9500
# 5 4.8011 -13.7875 8.9594 0.0000 24.7836 0.0000
# 6 0.0000 0.0000 0.0000 -5.9500 0.0000 40.9958
#
#
#
# Elastic Compliance Matrix: (Units=1/GPa)
#
#
# Indices 1 2 3 4 5 6 
#
# 1 0.025284 -0.002551 -0.000862 0.000000 -0.006005 0.000000
# 2 -0.002551 0.007231 -0.001769 0.000000 0.005156 0.000000
# 3 -0.000862 -0.001769 0.009267 0.000000 -0.004167 0.000000
# 4 0.000000 0.000000 0.000000 0.019583 0.000000 0.002842
# 5 -0.006005 0.005156 -0.004167 0.000000 0.045888 0.000000
# 6 0.000000 0.000000 0.000000 0.002842 0.000000 0.024805
#
#
# Mechanical properties :
#
#
# Convention : Reuss Voigt Hill
#
# Bulk Modulus (GPa) = 31.82735 46.08078 38.95407
# Shear Modulus (GPa) = 32.70227 41.62990 37.16609
#
# Velocity S-wave (km/s) = 3.67837 4.15020 3.92138
# Velocity P-wave (km/s) = 5.58649 6.48314 6.05145
#
# Compressibility (1/GPa) = 0.03141951
#
# Stress axis : x y z
#
# Youngs Moduli (GPa) = 39.55037 138.28928 107.91064
#
# Poissons Ratio (x) = 0.35273 0.09304
# Poissons Ratio (y) = 0.10088 0.19085
# Poissons Ratio (z) = 0.03410 0.24458
#
# Static dielectric constant tensor:
#      x y z
#    x 2.064710 0.000000 0.088680 
#    y 0.000000 2.034750 0.000000 
#    z 0.088680 0.000000 1.950330 
# 
# From -- ./inp_files/237504.got.cif
#   From: 2010.05.17/outbox.cif.g08.bks.cpg/sg15_119_cif.got.tgz:237504.got - 2010.06.03 18:47:42.
