data_PCOD9278337
_publ_section_title
;
Structure prediction by ZEFSAII (Michael W. Deem and Ramdas Pophale) SiO2 
 PCOD9278337
Probable space group: C 2/C
;
_chemical_formula_sum "Si O2"
_cell_formula_units_Z 52
_cell_length_a 24.955761
_cell_length_b 11.316244
_cell_length_c 12.397773
_cell_angle_alpha 90.000000
_cell_angle_beta 133.491661
_cell_angle_gamma 90.000000
_cell_volume 2540.030795
_symmetry_space_group_name_H-M "C 2/C"
_symmetry_group_IT_number 15
_symmetry_cell_setting 'monoclinic'
loop_
_space_group_symop_operation_xyz
x,y,z
-x,y,1/2-z
-x,-y,-z
x,-y,1/2+z
1/2+x,1/2+y,z
1/2-x,1/2+y,1/2-z
1/2-x,1/2-y,-z
1/2+x,1/2-y,1/2+z
loop_
_atom_site_type_symbol
_atom_site_label
_atom_site_fract_x
_atom_site_fract_y
_atom_site_fract_z
Si Si1 0.372793 0.685181 0.157059
Si Si2 0.500000 0.852257 0.250000
Si Si3 0.344040 0.820838 0.323548
Si Si4 0.816213 0.190009 0.837049
Si Si5 0.000277 0.714338 0.371397
Si Si6 0.407295 0.079303 0.418954
Si Si7 0.426849 0.450021 0.340745
O O1 0.445759 0.765906 0.241481
O O2 0.329291 0.750490 0.192564
O O3 0.394986 0.554875 0.224942
O O4 0.333926 0.678154 0.988220
O O5 0.549518 0.920649 0.406397
O O6 0.271399 0.821226 0.296287
O O7 0.415847 0.761177 0.476464
O O8 0.369983 0.955304 0.340433
O O9 0.845812 0.318479 0.843402
O O10 0.865234 0.095485 0.839746
O O11 0.000000 0.668664 0.250000
O O12 0.963465 0.623771 0.404772
O O13 0.953370 0.834690 0.312613
O O14 0.500000 0.500000 0.500000
#
# Coordination Sequence:
#
# PCOD9278337 Si02
#       7
#     8   4   8   8   8   8   8
#     4  11  22  40  71  95 128 172 225 267 337 388
#     4  10  20  42  70  98 124 172 222 282 306 392
#     4  12  24  42  68  96 133 172 219 273 339 398
#     4  10  26  44  64  98 133 176 217 279 331 396
#     4  11  25  41  64  98 130 172 219 271 329 392
#     4  10  23  44  65  96 131 168 227 265 328 395
#     4  11  22  43  67  95 133 168 227 270 322 397
#
# _framework density 20.472193000000001
#
# number of rings (size 3 to 8) (size 9 to 14) (size 15 to 20)
#    0.000    1.231    3.077    2.769    6.462    1.231 
#    2.769    1.538    0.000    0.000    0.000    0.000 
#    0.000    0.000    0.000    0.000    0.000    0.000 
#
# Total GULP energy -145403.331913 kJ/mol
# GULP energy per Si atom -5592.435843 kJ/mol
# Density = 2.042560 g / cm^3
# Si number density = 20.472193 Si / 1000 Ang^3
#
#
#
# Elastic Constant Matrix: (Units=GPa)
#
#
# Indices 1 2 3 4 5 6 
#
# 1 145.5419 41.8763 47.2545 0.0000 15.6864 0.0000
# 2 41.8763 120.8534 31.6414 0.0000 -0.6983 0.0000
# 3 47.2545 31.6414 62.2897 0.0000 -4.1148 0.0000
# 4 0.0000 0.0000 0.0000 8.3051 0.0000 -9.6114
# 5 15.6864 -0.6983 -4.1148 0.0000 37.6254 0.0000
# 6 0.0000 0.0000 0.0000 -9.6114 0.0000 25.3374
#
#
#
# Elastic Compliance Matrix: (Units=1/GPa)
#
#
# Indices 1 2 3 4 5 6 
#
# 1 0.010266 -0.001683 -0.007270 0.000000 -0.005106 0.000000
# 2 -0.001683 0.009824 -0.003682 0.000000 0.000481 0.000000
# 3 -0.007270 -0.003682 0.023808 0.000000 0.005566 0.000000
# 4 0.000000 0.000000 0.000000 0.214630 0.000000 0.081417
# 5 -0.005106 0.000481 0.005566 0.000000 0.029324 0.000000
# 6 0.000000 0.000000 0.000000 0.081417 0.000000 0.070352
#
#
# Mechanical properties :
#
#
# Convention : Reuss Voigt Hill
#
# Bulk Modulus (GPa) = 53.68502 63.35884 58.52193
# Shear Modulus (GPa) = 12.83088 28.11444 20.47266
#
# Velocity S-wave (km/s) = 2.50621 3.70983 3.16574
# Velocity P-wave (km/s) = 5.88686 7.02612 6.48157
#
# Compressibility (1/GPa) = 0.01862717
#
# Stress axis : x y z
#
# Youngs Moduli (GPa) = 97.40792 101.78657 42.00354
#
# Poissons Ratio (x) = 0.17133 0.30538
# Poissons Ratio (y) = 0.16396 0.15465
# Poissons Ratio (z) = 0.70820 0.37476
#
# Static dielectric constant tensor:
#      x y z
#    x 1.740530 0.000000 0.006750 
#    y 0.000000 1.724380 0.000000 
#    z 0.006750 0.000000 1.724540 
# 
# From -- ./inp_files/118063.got.cif
#   From: 2010.05.17/outbox.cif.g08.bks.cpg/sg15_60_cif.got.tgz:118063.got - 2010.06.03 18:47:42.
