data_PCOD9278897
_publ_section_title
;
Structure prediction by ZEFSAII (Michael W. Deem and Ramdas Pophale) SiO2 
 PCOD9278897
Probable space group: C 2/C
;
_chemical_formula_sum "Si O2"
_cell_formula_units_Z 60
_cell_length_a 14.145064
_cell_length_b 5.596491
_cell_length_c 29.935238
_cell_angle_alpha 90.000000
_cell_angle_beta 98.848423
_cell_angle_gamma 90.000000
_cell_volume 2341.551881
_symmetry_space_group_name_H-M "C 2/C"
_symmetry_group_IT_number 15
_symmetry_cell_setting 'monoclinic'
loop_
_space_group_symop_operation_xyz
x,y,z
-x,y,1/2-z
-x,-y,-z
x,-y,1/2+z
1/2+x,1/2+y,z
1/2-x,1/2+y,1/2-z
1/2-x,1/2-y,-z
1/2+x,1/2-y,1/2+z
loop_
_atom_site_type_symbol
_atom_site_label
_atom_site_fract_x
_atom_site_fract_y
_atom_site_fract_z
Si Si1 0.817627 0.253728 0.110832
Si Si2 0.500000 0.906848 0.750000
Si Si3 0.246887 0.126141 0.304297
Si Si4 0.911324 0.746868 0.426891
Si Si5 0.659074 0.747129 0.931339
Si Si6 0.113770 0.751806 0.529883
Si Si7 0.043200 0.154098 0.667547
Si Si8 0.860772 0.759084 0.788916
O O1 0.823592 0.228476 0.164362
O O2 0.703238 0.249441 0.092196
O O3 0.856788 0.503352 0.095641
O O4 0.858783 0.009611 0.093043
O O5 0.413538 0.068161 0.760772
O O6 0.479837 0.751172 0.703874
O O7 0.345284 0.275965 0.313332
O O8 0.199919 0.102966 0.252688
O O9 0.286590 0.861249 0.317735
O O10 0.927275 0.493394 0.452381
O O11 0.966407 0.761199 0.383553
O O12 0.925545 0.996914 0.454137
O O13 0.773520 0.748586 0.949431
O O14 0.609704 0.753910 0.976049
O O15 0.054592 0.873182 0.676040
#
# Coordination Sequence:
#
# PCOD9278897 Si02
#       8
#     8   4   8   8   8   8   8   8
#     4   9  18  27  44  71 103 141 175 229 266 338
#     4  10  24  38  56  78 112 150 188 236 296 330
#     4  10  21  32  56  81 107 146 196 225 283 328
#     4   9  18  27  47  68 103 135 189 218 272 328
#     4   9  16  27  42  64 105 138 177 211 285 324
#     4   9  16  27  42  68  96 144 175 221 263 345
#     4  10  21  36  52  80 108 152 182 237 281 335
#     4  11  21  38  57  79 111 150 191 241 278 345
#
# _framework density 25.624034000000002
#
# number of rings (size 3 to 8) (size 9 to 14) (size 15 to 20)
#    0.000    2.400    1.333    1.200   11.200    3.200 
#    0.000    0.000    0.000    0.000    0.000    0.000 
#    0.000    6.400    0.000    0.800    0.000    0.000 
#
# Total GULP energy -167658.144160 kJ/mol
# GULP energy per Si atom -5588.604805 kJ/mol
# Density = 2.556571 g / cm^3
# Si number density = 25.624034 Si / 1000 Ang^3
#
#
#
# Elastic Constant Matrix: (Units=GPa)
#
#
# Indices 1 2 3 4 5 6 
#
# 1 92.9120 39.7201 14.8143 0.0000 -13.1099 0.0000
# 2 39.7201 176.8255 91.7401 0.0000 -23.9523 0.0000
# 3 14.8143 91.7401 170.9476 0.0000 -35.1849 0.0000
# 4 0.0000 0.0000 0.0000 27.6740 0.0000 -2.6356
# 5 -13.1099 -23.9523 -35.1849 0.0000 27.7144 0.0000
# 6 0.0000 0.0000 0.0000 -2.6356 0.0000 21.4704
#
#
#
# Elastic Compliance Matrix: (Units=1/GPa)
#
#
# Indices 1 2 3 4 5 6 
#
# 1 0.012516 -0.002901 0.001590 0.000000 0.005432 0.000000
# 2 -0.002901 0.008588 -0.004213 0.000000 0.000701 0.000000
# 3 0.001590 -0.004213 0.009988 0.000000 0.009792 0.000000
# 4 0.000000 0.000000 0.000000 0.036562 0.000000 0.004488
# 5 0.005432 0.000701 0.009792 0.000000 0.051689 0.000000
# 6 0.000000 0.000000 0.000000 0.004488 0.000000 0.047127
#
#
# Mechanical properties :
#
#
# Convention : Reuss Voigt Hill
#
# Bulk Modulus (GPa) = 49.88799 81.47044 65.67922
# Shear Modulus (GPa) = 27.14470 34.99914 31.07192
#
# Velocity S-wave (km/s) = 3.25829 3.69978 3.48603
# Velocity P-wave (km/s) = 5.80231 7.07918 6.47231
#
# Compressibility (1/GPa) = 0.02004490
#
# Stress axis : x y z
#
# Youngs Moduli (GPa) = 79.89881 116.44801 100.11866
#
# Poissons Ratio (x) = 0.33776 -0.15919
# Poissons Ratio (y) = 0.23175 0.42178
# Poissons Ratio (z) = -0.12704 0.49058
#
# Static dielectric constant tensor:
#      x y z
#    x 2.051350 0.000000 0.017080 
#    y 0.000000 2.339950 0.000000 
#    z 0.017080 0.000000 1.981560 
# 
# From -- ./inp_files/314859.got.cif
#   From: 2010.05.17/outbox.cif.g08.bks.cpg/sg15_158_cif.got.tgz:314859.got - 2010.06.03 18:47:42.
