data_PCOD9278759
_publ_section_title
;
Structure prediction by ZEFSAII (Michael W. Deem and Ramdas Pophale) SiO2 
 PCOD9278759
Probable space group: C 2/C
;
_chemical_formula_sum "Si O2"
_cell_formula_units_Z 28
_cell_length_a 16.002545
_cell_length_b 11.855209
_cell_length_c 5.482282
_cell_angle_alpha 90.000000
_cell_angle_beta 68.738039
_cell_angle_gamma 90.000000
_cell_volume 969.268178
_symmetry_space_group_name_H-M "C 2/C"
_symmetry_group_IT_number 15
_symmetry_cell_setting 'monoclinic'
loop_
_space_group_symop_operation_xyz
x,y,z
-x,y,1/2-z
-x,-y,-z
x,-y,1/2+z
1/2+x,1/2+y,z
1/2-x,1/2+y,1/2-z
1/2-x,1/2-y,-z
1/2+x,1/2-y,1/2+z
loop_
_atom_site_type_symbol
_atom_site_label
_atom_site_fract_x
_atom_site_fract_y
_atom_site_fract_z
Si Si1 0.877627 0.035079 0.566959
Si Si2 0.877102 0.636072 0.560937
Si Si3 0.000000 0.229049 0.250000
Si Si4 0.191763 0.601175 0.365912
O O1 0.915694 0.151555 0.414059
O O2 0.910890 0.956838 0.309572
O O3 0.783461 0.968886 0.728222
O O4 0.833011 0.670046 0.349936
O O5 0.881227 0.500303 0.534322
O O6 0.966466 0.695292 0.559909
O O7 0.810813 0.656087 0.864259
#
# Coordination Sequence:
#
# PCOD9278759 Si02
#       4
#     8   8   4   8
#     4  12  24  49  72  99 139 194 222 285 348 425
#     4  10  22  43  69 104 133 184 225 292 326 423
#     4  12  30  42  72 112 144 164 244 298 346 378
#     4  10  20  45  72  94 138 188 229 260 360 414
#
# _framework density 28.887775999999999
#
# number of rings (size 3 to 8) (size 9 to 14) (size 15 to 20)
#    0.000    1.143    5.714    0.857    0.000   11.429 
#    0.000    2.857    0.000    0.000    0.000    0.000 
#    0.000    0.000    0.000    0.000    0.000    0.000 
#
# Total GULP energy -77981.422473 kJ/mol
# GULP energy per Si atom -5570.101605 kJ/mol
# Density = 2.882203 g / cm^3
# Si number density = 28.887776 Si / 1000 Ang^3
#
#
#
# Elastic Constant Matrix: (Units=GPa)
#
#
# Indices 1 2 3 4 5 6 
#
# 1 146.2689 21.1602 36.2779 0.0000 -42.4499 0.0000
# 2 21.1602 18.7578 -9.6280 0.0000 -72.3083 0.0000
# 3 36.2779 -9.6280 236.9260 0.0000 18.7741 0.0000
# 4 0.0000 0.0000 0.0000 54.3242 0.0000 -22.7043
# 5 -42.4499 -72.3083 18.7741 0.0000 -49.5826 0.0000
# 6 0.0000 0.0000 0.0000 -22.7043 0.0000 75.4299
#
#
#
# Elastic Compliance Matrix: (Units=1/GPa)
#
#
# Indices 1 2 3 4 5 6 
#
# 1 0.008447 -0.006135 -0.001630 0.000000 0.001097 0.000000
# 2 -0.006135 0.012887 0.002462 0.000000 -0.012610 0.000000
# 3 -0.001630 0.002462 0.004606 0.000000 -0.000451 0.000000
# 4 0.000000 0.000000 0.000000 0.021057 0.000000 0.006338
# 5 0.001097 -0.012610 -0.000451 0.000000 -0.002890 0.000000
# 6 0.000000 0.000000 0.000000 0.006338 0.000000 0.015165
#
#
# Mechanical properties :
#
#
# Convention : Reuss Voigt Hill
#
# Bulk Modulus (GPa) = 65.20513 55.28586 60.24549
# Shear Modulus (GPa) = 66.67695 39.64382 53.16038
#
# Velocity S-wave (km/s) = 4.80952 3.70853 4.29445
# Velocity P-wave (km/s) = 7.31183 6.12513 6.74463
#
# Compressibility (1/GPa) = 0.01533622
#
# Stress axis : x y z
#
# Youngs Moduli (GPa) = 118.38693 77.59627 217.10403
#
# Poissons Ratio (x) = 0.47602 0.35380
# Poissons Ratio (y) = 0.72625 -0.53456
# Poissons Ratio (z) = 0.19293 -0.19106
#
# Static dielectric constant tensor:
#      x y z
#    x 2.523670 0.000000 0.029870 
#    y 0.000000 2.265400 0.000000 
#    z 0.029870 0.000000 2.263320 
# 
# From -- ./inp_files/12406.got.cif
#   From: 2010.05.17/outbox.cif.g08.bks.cpg/sg15_7_cif.got.tgz:12406.got - 2010.06.03 18:47:42.
