data_PCOD9278346
_publ_section_title
;
Structure prediction by ZEFSAII (Michael W. Deem and Ramdas Pophale) SiO2 
 PCOD9278346
Probable space group: C 2/C
;
_chemical_formula_sum "Si O2"
_cell_formula_units_Z 32
_cell_length_a 6.139141
_cell_length_b 26.933219
_cell_length_c 9.396877
_cell_angle_alpha 90.000000
_cell_angle_beta 114.584020
_cell_angle_gamma 90.000000
_cell_volume 1412.900319
_symmetry_space_group_name_H-M "C 2/C"
_symmetry_group_IT_number 15
_symmetry_cell_setting 'monoclinic'
loop_
_space_group_symop_operation_xyz
x,y,z
-x,y,1/2-z
-x,-y,-z
x,-y,1/2+z
1/2+x,1/2+y,z
1/2-x,1/2+y,1/2-z
1/2-x,1/2-y,-z
1/2+x,1/2-y,1/2+z
loop_
_atom_site_type_symbol
_atom_site_label
_atom_site_fract_x
_atom_site_fract_y
_atom_site_fract_z
Si Si1 0.689649 0.143392 0.511529
Si Si2 0.000000 0.789924 0.250000
Si Si3 0.987570 0.947656 0.418896
Si Si4 0.749564 0.715551 0.357019
Si Si5 0.000000 0.396856 0.250000
O O1 0.799562 0.091620 0.482647
O O2 0.461871 0.175050 0.400323
O O3 0.618787 0.133368 0.656248
O O4 0.918147 0.178830 0.591844
O O5 0.786396 0.755046 0.240610
O O6 0.000000 0.953203 0.250000
O O7 0.721565 0.926902 0.376698
O O8 0.000000 0.000000 0.500000
O O9 0.500000 0.689859 0.250000
O O10 0.750000 0.750000 0.500000
#
# Coordination Sequence:
#
# PCOD9278346 Si02
#       5
#     8   4   8   8   4
#     4  11  22  40  67  97 134 184 229 284 343 418
#     4  12  22  42  67  98 138 187 232 274 332 432
#     4  10  23  43  71  98 131 177 237 296 359 418
#     4  12  26  40  67 100 143 186 235 277 344 417
#     4  10  20  42  71  90 128 179 232 268 368 408
#
# _framework density 22.64845
#
# number of rings (size 3 to 8) (size 9 to 14) (size 15 to 20)
#    0.000    1.000    6.250    2.250    0.000    4.000 
#    0.000    7.500    0.000    0.000    0.000    0.000 
#    0.000    0.000    0.000    0.000    0.000    0.000 
#
# Total GULP energy -89265.128778 kJ/mol
# GULP energy per Si atom -5579.070549 kJ/mol
# Density = 2.259690 g / cm^3
# Si number density = 22.648450 Si / 1000 Ang^3
#
#
#
# Elastic Constant Matrix: (Units=GPa)
#
#
# Indices 1 2 3 4 5 6 
#
# 1 84.1857 49.0463 35.4942 0.0000 33.0779 0.0000
# 2 49.0463 152.0317 54.0309 0.0000 27.7163 0.0000
# 3 35.4942 54.0309 73.6042 0.0000 33.3058 0.0000
# 4 0.0000 0.0000 0.0000 41.9663 0.0000 -7.8909
# 5 33.0779 27.7163 33.3058 0.0000 54.6140 0.0000
# 6 0.0000 0.0000 0.0000 -7.8909 0.0000 34.1221
#
#
#
# Elastic Compliance Matrix: (Units=1/GPa)
#
#
# Indices 1 2 3 4 5 6 
#
# 1 0.017989 -0.003464 -0.002759 0.000000 -0.007455 0.000000
# 2 -0.003464 0.009588 -0.005684 0.000000 0.000698 0.000000
# 3 -0.002759 -0.005684 0.023517 0.000000 -0.009786 0.000000
# 4 0.000000 0.000000 0.000000 0.024912 0.000000 0.005761
# 5 -0.007455 0.000698 -0.009786 0.000000 0.028439 0.000000
# 6 0.000000 0.000000 0.000000 0.005761 0.000000 0.030639
#
#
# Mechanical properties :
#
#
# Convention : Reuss Voigt Hill
#
# Bulk Modulus (GPa) = 36.65533 65.21826 50.93680
# Shear Modulus (GPa) = 29.76377 37.55718 33.66048
#
# Velocity S-wave (km/s) = 3.62907 4.07660 3.85933
# Velocity P-wave (km/s) = 5.81204 7.14259 6.51139
#
# Compressibility (1/GPa) = 0.02728116
#
# Stress axis : x y z
#
# Youngs Moduli (GPa) = 55.59014 104.30111 42.52225
#
# Poissons Ratio (x) = 0.36127 0.11731
# Poissons Ratio (y) = 0.19255 0.24168
# Poissons Ratio (z) = 0.15336 0.59282
#
# Static dielectric constant tensor:
#      x y z
#    x 2.057030 0.000000 0.147120 
#    y 0.000000 1.848260 0.000000 
#    z 0.147120 0.000000 2.001380 
# 
# From -- ./inp_files/20004.got.cif
#   From: 2010.05.17/outbox.cif.g08.bks.cpg/sg15_11_cif.got.tgz:20004.got - 2010.06.03 18:47:42.
