data_PCOD9278156
_publ_section_title
;
Structure prediction by ZEFSAII (Michael W. Deem and Ramdas Pophale) SiO2 
 PCOD9278156
Probable space group: C 2/C
;
_chemical_formula_sum "Si O2"
_cell_formula_units_Z 40
_cell_length_a 7.895572
_cell_length_b 12.179891
_cell_length_c 23.506064
_cell_angle_alpha 90.000000
_cell_angle_beta 44.037721
_cell_angle_gamma 90.000000
_cell_volume 1571.354131
_symmetry_space_group_name_H-M "C 2/C"
_symmetry_group_IT_number 15
_symmetry_cell_setting 'monoclinic'
loop_
_space_group_symop_operation_xyz
x,y,z
-x,y,1/2-z
-x,-y,-z
x,-y,1/2+z
1/2+x,1/2+y,z
1/2-x,1/2+y,1/2-z
1/2-x,1/2-y,-z
1/2+x,1/2-y,1/2+z
loop_
_atom_site_type_symbol
_atom_site_label
_atom_site_fract_x
_atom_site_fract_y
_atom_site_fract_z
Si Si1 0.700443 0.555177 0.994927
Si Si2 0.722314 0.986881 0.833015
Si Si3 0.840957 0.792530 0.892225
Si Si4 0.052731 0.166059 0.570089
Si Si5 0.634244 0.789883 0.776535
O O1 0.627533 0.658141 0.052430
O O2 0.500000 0.500000 0.000000
O O3 0.674924 0.451454 0.045293
O O4 0.987456 0.559295 0.907560
O O5 0.000000 0.027206 0.750000
O O6 0.749827 0.893097 0.874745
O O7 0.367905 0.914015 0.698932
O O8 0.662605 0.689535 0.924183
O O9 0.091047 0.759091 0.803036
O O10 0.250000 0.250000 0.500000
O O11 0.966369 0.208355 0.651819
O O12 0.500000 0.785902 0.750000
#
# Coordination Sequence:
#
# PCOD9278156 Si02
#       5
#     8   8   8   8   8
#     4  12  24  42  71 109 139 189 253 300 367 457
#     4   9  19  39  65  94 135 187 227 290 365 427
#     4  10  22  41  71  95 146 184 233 303 368 424
#     4  11  23  43  72  97 140 190 241 295 375 443
#     4  10  20  42  66  97 138 189 230 301 371 426
#
# _framework density 25.455752
#
# number of rings (size 3 to 8) (size 9 to 14) (size 15 to 20)
#    0.000    1.600    4.000    3.600    0.000    0.800 
#    0.000   15.000    0.000    0.000    0.000    0.000 
#    0.000    0.000    0.000    0.000    0.000    0.000 
#
# Total GULP energy -111806.007141 kJ/mol
# GULP energy per Si atom -5590.300357 kJ/mol
# Density = 2.539781 g / cm^3
# Si number density = 25.455752 Si / 1000 Ang^3
#
#
#
# Elastic Constant Matrix: (Units=GPa)
#
#
# Indices 1 2 3 4 5 6 
#
# 1 103.8602 -16.2185 14.1830 -0.0004 12.0368 0.0002
# 2 -16.2185 72.8968 33.9604 -0.0002 9.0155 0.0000
# 3 14.1830 33.9604 171.0127 -0.0008 -10.6494 0.0003
# 4 -0.0004 -0.0002 -0.0008 33.9040 0.0006 9.2590
# 5 12.0368 9.0155 -10.6494 0.0006 46.3375 -0.0002
# 6 0.0002 0.0000 0.0003 9.2590 -0.0002 26.6960
#
#
#
# Elastic Compliance Matrix: (Units=1/GPa)
#
#
# Indices 1 2 3 4 5 6 
#
# 1 0.010956 0.003831 -0.001921 0.000000 -0.004033 0.000000
# 2 0.003831 0.017102 -0.004041 0.000000 -0.005251 0.000000
# 3 -0.001921 -0.004041 0.006989 0.000000 0.002891 0.000000
# 4 0.000000 0.000000 0.000000 0.032581 -0.000001 -0.011300
# 5 -0.004033 -0.005251 0.002891 -0.000001 0.024315 0.000000
# 6 0.000000 0.000000 0.000000 -0.011300 0.000000 0.041378
#
#
# Mechanical properties :
#
#
# Convention : Reuss Voigt Hill
#
# Bulk Modulus (GPa) = 32.48121 45.73549 39.10835
# Shear Modulus (GPa) = 33.81920 42.44383 38.13151
#
# Velocity S-wave (km/s) = 3.64888 4.08776 3.87454
# Velocity P-wave (km/s) = 5.52630 6.34707 5.95086
#
# Compressibility (1/GPa) = 0.03078703
#
# Stress axis : x y z
#
# Youngs Moduli (GPa) = 91.27222 58.47116 143.07493
#
# Poissons Ratio (x) = -0.22401 0.27479
# Poissons Ratio (y) = -0.34967 0.57817
# Poissons Ratio (z) = 0.17530 0.23628
#
# Static dielectric constant tensor:
#      x y z
#    x 2.639400 -0.000010 -0.818920 
#    y -0.000010 2.075080 0.000010 
#    z -0.818920 0.000010 3.929910 
# 
# From -- ./inp_files/289512.got.cif
#   From: 2010.05.17/outbox.cif.g08.bks.cpg/sg15_145_cif.got.tgz:289512.got - 2010.06.03 18:47:42.
