data_PCOD9278616
_publ_section_title
;
Structure prediction by ZEFSAII (Michael W. Deem and Ramdas Pophale) SiO2 
 PCOD9278616
Probable space group: C 2/C
;
_chemical_formula_sum "Si O2"
_cell_formula_units_Z 56
_cell_length_a 18.403001
_cell_length_b 8.630985
_cell_length_c 14.828080
_cell_angle_alpha 90.000000
_cell_angle_beta 95.078651
_cell_angle_gamma 90.000000
_cell_volume 2345.986929
_symmetry_space_group_name_H-M "C 2/C"
_symmetry_group_IT_number 15
_symmetry_cell_setting 'monoclinic'
loop_
_space_group_symop_operation_xyz
x,y,z
-x,y,1/2-z
-x,-y,-z
x,-y,1/2+z
1/2+x,1/2+y,z
1/2-x,1/2+y,1/2-z
1/2-x,1/2-y,-z
1/2+x,1/2-y,1/2+z
loop_
_atom_site_type_symbol
_atom_site_label
_atom_site_fract_x
_atom_site_fract_y
_atom_site_fract_z
Si Si1 0.186168 0.528642 0.841133
Si Si2 0.119213 0.126638 0.112689
Si Si3 0.272286 0.516505 0.529297
Si Si4 0.613219 0.694018 0.388943
Si Si5 0.487987 0.595168 0.652078
Si Si6 0.490656 0.180744 0.992572
Si Si7 0.744595 0.728371 0.795731
O O1 0.118835 0.647025 0.833433
O O2 0.248377 0.621417 0.790774
O O3 0.182047 0.358943 0.795711
O O4 0.208375 0.503657 0.948659
O O5 0.180644 0.172019 0.190695
O O6 0.163279 0.083296 0.026993
O O7 0.062259 0.992618 0.130705
O O8 0.069456 0.275476 0.088116
O O9 0.305837 0.360379 0.574810
O O10 0.256134 0.627115 0.612325
O O11 0.571876 0.543099 0.345875
O O12 0.565979 0.740943 0.470073
O O13 0.500000 0.667369 0.750000
O O14 0.467700 0.726277 0.579005
O O15 0.500000 0.000000 0.000000
#
# Coordination Sequence:
#
# PCOD9278616 Si02
#       7
#     8   8   8   8   8   8   8
#     4  11  24  41  64 104 133 179 223 269 337 398
#     4  10  20  44  65  94 128 181 217 265 343 391
#     4  11  22  43  70  91 139 180 218 274 332 397
#     4  11  22  42  68  96 132 177 221 271 336 401
#     4  11  22  43  72  96 128 172 226 279 333 400
#     4  11  24  42  69  94 129 174 224 275 342 398
#     4  11  25  42  68 100 140 176 223 279 331 405
#
# _framework density 23.870552
#
# number of rings (size 3 to 8) (size 9 to 14) (size 15 to 20)
#    0.000    1.143    2.857    4.714    4.000    1.143 
#    0.000    4.286    0.000    0.000    0.000    0.000 
#    0.000    0.000    0.000    0.000    0.000    0.000 
#
# Total GULP energy -156502.606678 kJ/mol
# GULP energy per Si atom -5589.378810 kJ/mol
# Density = 2.381622 g / cm^3
# Si number density = 23.870552 Si / 1000 Ang^3
#
#
#
# Elastic Constant Matrix: (Units=GPa)
#
#
# Indices 1 2 3 4 5 6 
#
# 1 46.7560 10.7909 1.0312 0.0000 -0.6613 0.0000
# 2 10.7909 122.0159 28.4412 0.0000 3.2939 0.0000
# 3 1.0312 28.4412 77.9783 0.0000 -11.7228 0.0000
# 4 0.0000 0.0000 0.0000 37.3791 0.0000 -9.5549
# 5 -0.6613 3.2939 -11.7228 0.0000 23.6267 0.0000
# 6 0.0000 0.0000 0.0000 -9.5549 0.0000 25.6313
#
#
#
# Elastic Compliance Matrix: (Units=1/GPa)
#
#
# Indices 1 2 3 4 5 6 
#
# 1 0.021881 -0.002125 0.000673 0.000000 0.001242 0.000000
# 2 -0.002125 0.009379 -0.003888 0.000000 -0.003296 0.000000
# 3 0.000673 -0.003888 0.015472 0.000000 0.008237 0.000000
# 4 0.000000 0.000000 0.000000 0.029571 0.000000 0.011024
# 5 0.001242 -0.003296 0.008237 0.000000 0.046906 0.000000
# 6 0.000000 0.000000 0.000000 0.011024 0.000000 0.043124
#
#
# Mechanical properties :
#
#
# Convention : Reuss Voigt Hill
#
# Bulk Modulus (GPa) = 27.73963 36.36408 32.05186
# Shear Modulus (GPa) = 26.45062 31.09323 28.77193
#
# Velocity S-wave (km/s) = 3.33240 3.61304 3.47555
# Velocity P-wave (km/s) = 5.14321 5.71597 5.43714
#
# Compressibility (1/GPa) = 0.03604950
#
# Stress axis : x y z
#
# Youngs Moduli (GPa) = 45.70197 106.62192 64.63411
#
# Poissons Ratio (x) = 0.22662 -0.04348
# Poissons Ratio (y) = 0.09714 0.25131
# Poissons Ratio (z) = -0.03074 0.41457
#
# Static dielectric constant tensor:
#      x y z
#    x 1.989340 0.000000 -0.021420 
#    y 0.000000 1.925260 0.000000 
#    z -0.021420 0.000000 1.937260 
# 
# From -- ./inp_files/166674.got.cif
#   From: 2010.05.17/outbox.cif.g08.bks.cpg/sg15_84_cif.got.tgz:166674.got - 2010.06.03 18:47:42.
