data_PCOD9278469
_publ_section_title
;
Structure prediction by ZEFSAII (Michael W. Deem and Ramdas Pophale) SiO2 
 PCOD9278469
Probable space group: C 2/C
;
_chemical_formula_sum "Si O2"
_cell_formula_units_Z 48
_cell_length_a 10.458504
_cell_length_b 10.223474
_cell_length_c 19.158652
_cell_angle_alpha 90.000000
_cell_angle_beta 70.103842
_cell_angle_gamma 90.000000
_cell_volume 1926.213870
_symmetry_space_group_name_H-M "C 2/C"
_symmetry_group_IT_number 15
_symmetry_cell_setting 'monoclinic'
loop_
_space_group_symop_operation_xyz
x,y,z
-x,y,1/2-z
-x,-y,-z
x,-y,1/2+z
1/2+x,1/2+y,z
1/2-x,1/2+y,1/2-z
1/2-x,1/2-y,-z
1/2+x,1/2-y,1/2+z
loop_
_atom_site_type_symbol
_atom_site_label
_atom_site_fract_x
_atom_site_fract_y
_atom_site_fract_z
Si Si1 0.197049 0.133846 0.774820
Si Si2 0.099315 0.857468 0.794767
Si Si3 0.921572 0.226100 0.852318
Si Si4 0.840580 0.781425 0.913956
Si Si5 0.434556 0.012537 0.895118
Si Si6 0.695766 0.044487 0.930309
O O1 0.325494 0.228501 0.746853
O O2 0.130418 0.169515 0.711668
O O3 0.071387 0.179293 0.847225
O O4 0.203034 0.978159 0.784048
O O5 0.000000 0.896914 0.750000
O O6 0.999053 0.831595 0.879686
O O7 0.928959 0.382183 0.851331
O O8 0.805168 0.158948 0.920003
O O9 0.854136 0.636191 0.879283
O O10 0.764475 0.906329 0.897462
O O11 0.750000 0.750000 0.000000
O O12 0.583652 0.061742 0.890936
O O13 0.372225 0.973703 0.981760
#
# Coordination Sequence:
#
# PCOD9278469 Si02
#       6
#     8   8   8   8   8   8
#     4  11  26  42  68  95 135 179 225 279 340 410
#     4  12  25  47  69  97 136 183 227 287 345 415
#     4  11  22  43  64  97 136 173 221 280 335 405
#     4  10  22  42  68  98 131 172 226 280 337 403
#     4  10  23  38  69  98 132 177 223 274 337 409
#     4  10  20  43  66  96 135 176 219 276 339 401
#
# _framework density 24.919350999999999
#
# number of rings (size 3 to 8) (size 9 to 14) (size 15 to 20)
#    0.000    1.333    3.333    1.500    7.000    1.333 
#    0.000    0.000    0.000   11.000    0.000    0.000 
#    0.000    0.000    0.000    0.000    0.000    0.000 
#
# Total GULP energy -133895.299757 kJ/mol
# GULP energy per Si atom -5578.970823 kJ/mol
# Density = 2.486263 g / cm^3
# Si number density = 24.919351 Si / 1000 Ang^3
#
#
#
# Elastic Constant Matrix: (Units=GPa)
#
#
# Indices 1 2 3 4 5 6 
#
# 1 71.1492 30.6633 34.2322 0.0000 -20.4563 0.0000
# 2 30.6633 156.6566 51.4744 0.0000 -14.0695 0.0000
# 3 34.2322 51.4744 93.9500 0.0000 -30.5247 0.0000
# 4 0.0000 0.0000 0.0000 37.9240 0.0000 -12.5410
# 5 -20.4563 -14.0695 -30.5247 0.0000 32.1133 0.0000
# 6 0.0000 0.0000 0.0000 -12.5410 0.0000 48.3955
#
#
#
# Elastic Compliance Matrix: (Units=1/GPa)
#
#
# Indices 1 2 3 4 5 6 
#
# 1 0.018717 -0.001902 -0.003146 0.000000 0.008099 0.000000
# 2 -0.001902 0.007998 -0.004259 0.000000 -0.001757 0.000000
# 3 -0.003146 -0.004259 0.018616 0.000000 0.013824 0.000000
# 4 0.000000 0.000000 0.000000 0.028840 0.000000 0.007473
# 5 0.008099 -0.001757 0.013824 0.000000 0.048670 0.000000
# 6 0.000000 0.000000 0.000000 0.007473 0.000000 0.022600
#
#
# Mechanical properties :
#
#
# Convention : Reuss Voigt Hill
#
# Bulk Modulus (GPa) = 37.43318 61.61062 49.52190
# Shear Modulus (GPa) = 28.90838 37.37896 33.14367
#
# Velocity S-wave (km/s) = 3.40969 3.87718 3.65092
# Velocity P-wave (km/s) = 5.52771 6.69485 6.13908
#
# Compressibility (1/GPa) = 0.02671427
#
# Stress axis : x y z
#
# Youngs Moduli (GPa) = 53.42691 125.03850 53.71850
#
# Poissons Ratio (x) = 0.23788 0.16901
# Poissons Ratio (y) = 0.10164 0.22880
# Poissons Ratio (z) = 0.16809 0.53258
#
# Static dielectric constant tensor:
#      x y z
#    x 2.022460 0.000000 -0.127020 
#    y 0.000000 1.952420 0.000000 
#    z -0.127020 0.000000 2.259890 
# 
# From -- ./inp_files/291057.got.cif
#   From: 2010.05.17/outbox.cif.g08.bks.cpg/sg15_146_cif.got.tgz:291057.got - 2010.06.03 18:47:42.
