data_PCOD9278816
_publ_section_title
;
Structure prediction by ZEFSAII (Michael W. Deem and Ramdas Pophale) SiO2 
 PCOD9278816
Probable space group: C 2/C
;
_chemical_formula_sum "Si O2"
_cell_formula_units_Z 40
_cell_length_a 24.072293
_cell_length_b 9.272262
_cell_length_c 14.446026
_cell_angle_alpha 90.000000
_cell_angle_beta 148.212271
_cell_angle_gamma 90.000000
_cell_volume 1698.539626
_symmetry_space_group_name_H-M "C 2/C"
_symmetry_group_IT_number 15
_symmetry_cell_setting 'monoclinic'
loop_
_space_group_symop_operation_xyz
x,y,z
-x,y,1/2-z
-x,-y,-z
x,-y,1/2+z
1/2+x,1/2+y,z
1/2-x,1/2+y,1/2-z
1/2-x,1/2-y,-z
1/2+x,1/2-y,1/2+z
loop_
_atom_site_type_symbol
_atom_site_label
_atom_site_fract_x
_atom_site_fract_y
_atom_site_fract_z
Si Si1 0.596557 0.852451 0.760175
Si Si2 0.854752 0.709134 0.970822
Si Si3 0.888845 0.959574 0.547454
Si Si4 0.981586 0.838065 0.504578
Si Si5 0.179652 0.367355 0.277065
O O1 0.664635 0.832835 0.949637
O O2 0.475415 0.838963 0.621254
O O3 0.597041 0.732066 0.681252
O O4 0.621429 0.998065 0.741285
O O5 0.845031 0.883682 0.952250
O O6 0.799575 0.632580 0.805330
O O7 0.926652 0.845178 0.525196
O O8 0.799709 0.881967 0.483255
O O9 0.000000 0.003690 0.750000
O O10 0.094930 0.759615 0.668916
O O11 0.000000 0.000000 0.500000
#
# Coordination Sequence:
#
# PCOD9278816 Si02
#       5
#     8   8   8   8   8
#     4  10  21  44  75 105 144 187 252 305 371 441
#     4  10  20  47  73 105 147 200 237 299 389 438
#     4  12  25  47  70 102 153 197 249 301 371 445
#     4  11  21  44  72 103 149 188 237 312 372 437
#     4  11  26  44  73 111 139 196 258 304 363 444
#
# _framework density 23.54964
#
# number of rings (size 3 to 8) (size 9 to 14) (size 15 to 20)
#    0.000    1.200    6.000    2.400    2.800    1.600 
#   10.800    0.000    0.000    0.000    0.000    0.000 
#    0.000    0.000    0.000    0.000    0.000    0.000 
#
# Total GULP energy -111557.757580 kJ/mol
# GULP energy per Si atom -5577.887879 kJ/mol
# Density = 2.349604 g / cm^3
# Si number density = 23.549640 Si / 1000 Ang^3
#
#
#
# Elastic Constant Matrix: (Units=GPa)
#
#
# Indices 1 2 3 4 5 6 
#
# 1 80.2230 63.7111 20.7168 0.0000 -5.1041 0.0000
# 2 63.7111 142.5518 50.6411 0.0000 6.1956 0.0000
# 3 20.7168 50.6411 90.3962 0.0000 21.8426 0.0000
# 4 0.0000 0.0000 0.0000 5.2989 0.0000 3.6334
# 5 -5.1041 6.1956 21.8426 0.0000 53.8179 0.0000
# 6 0.0000 0.0000 0.0000 3.6334 0.0000 41.4843
#
#
#
# Elastic Compliance Matrix: (Units=1/GPa)
#
#
# Indices 1 2 3 4 5 6 
#
# 1 0.019772 -0.008863 -0.000295 0.000000 0.003015 0.000000
# 2 -0.008863 0.012789 -0.005072 0.000000 -0.000254 0.000000
# 3 -0.000295 -0.005072 0.015341 0.000000 -0.005671 0.000000
# 4 0.000000 0.000000 0.000000 0.200775 0.000000 -0.017585
# 5 0.003015 -0.000254 -0.005671 0.000000 0.021198 0.000000
# 6 0.000000 0.000000 0.000000 -0.017585 0.000000 0.025646
#
#
# Mechanical properties :
#
#
# Convention : Reuss Voigt Hill
#
# Bulk Modulus (GPa) = 51.43167 64.81213 58.12190
# Shear Modulus (GPa) = 15.13034 31.99369 23.56202
#
# Velocity S-wave (km/s) = 2.53748 3.68987 3.16654
# Velocity P-wave (km/s) = 5.52016 6.76275 6.17280
#
# Compressibility (1/GPa) = 0.01944327
#
# Stress axis : x y z
#
# Youngs Moduli (GPa) = 50.57633 78.19176 65.18289
#
# Poissons Ratio (x) = 0.69303 0.01920
# Poissons Ratio (y) = 0.44827 0.33060
# Poissons Ratio (z) = 0.01490 0.39658
#
# Static dielectric constant tensor:
#      x y z
#    x 2.007650 0.000000 -0.058010 
#    y 0.000000 1.828220 0.000000 
#    z -0.058010 0.000000 2.000930 
# 
# From -- ./inp_files/221980.got.cif
#   From: 2010.05.17/outbox.cif.g08.bks.cpg/sg15_111_cif.got.tgz:221980.got - 2010.06.03 18:47:42.
