data_PCOD9278109
_publ_section_title
;
Structure prediction by ZEFSAII (Michael W. Deem and Ramdas Pophale) SiO2 
 PCOD9278109
Probable space group: C 2/C
;
_chemical_formula_sum "Si O2"
_cell_formula_units_Z 32
_cell_length_a 10.839792
_cell_length_b 13.313175
_cell_length_c 12.246044
_cell_angle_alpha 90.000000
_cell_angle_beta 62.979820
_cell_angle_gamma 90.000000
_cell_volume 1574.350105
_symmetry_space_group_name_H-M "C 2/C"
_symmetry_group_IT_number 15
_symmetry_cell_setting 'monoclinic'
loop_
_space_group_symop_operation_xyz
x,y,z
-x,y,1/2-z
-x,-y,-z
x,-y,1/2+z
1/2+x,1/2+y,z
1/2-x,1/2+y,1/2-z
1/2-x,1/2-y,-z
1/2+x,1/2-y,1/2+z
loop_
_atom_site_type_symbol
_atom_site_label
_atom_site_fract_x
_atom_site_fract_y
_atom_site_fract_z
Si Si1 0.134093 0.547098 0.000519
Si Si2 0.500000 0.710196 0.250000
Si Si3 0.262897 0.320350 0.255998
Si Si4 0.683650 0.639336 0.998580
Si Si5 0.000000 0.673907 0.250000
O O1 0.216487 0.612878 0.877552
O O2 0.222421 0.452429 0.003342
O O3 0.000000 0.500000 0.000000
O O4 0.076102 0.610121 0.125653
O O5 0.447856 0.642124 0.370390
O O6 0.621901 0.776317 0.256947
O O7 0.336593 0.371937 0.122321
O O8 0.375165 0.239002 0.249075
O O9 0.750000 0.750000 0.000000
#
# Coordination Sequence:
#
# PCOD9278109 Si02
#       5
#     8   4   8   8   4
#     4  12  23  41  68  98 129 174 219 264 326 391
#     4  10  20  42  66  90 128 174 214 268 324 380
#     4  11  23  43  66  95 132 171 216 270 322 385
#     4  10  22  39  63  94 128 166 212 264 318 381
#     4  12  26  44  66  98 132 170 216 272 326 384
#
# _framework density 20.325848000000001
#
# number of rings (size 3 to 8) (size 9 to 14) (size 15 to 20)
#    0.000    1.000    0.000    9.750    0.000    2.000 
#    0.000    3.750    0.000    0.000    0.000    0.000 
#    0.000    0.000    0.000    0.000    0.000    0.000 
#
# Total GULP energy -89298.084334 kJ/mol
# GULP energy per Si atom -5581.130271 kJ/mol
# Density = 2.027959 g / cm^3
# Si number density = 20.325848 Si / 1000 Ang^3
#
#
#
# Elastic Constant Matrix: (Units=GPa)
#
#
# Indices 1 2 3 4 5 6 
#
# 1 82.3682 51.8380 29.8982 0.0000 12.5115 0.0000
# 2 51.8380 119.9024 87.8888 0.0000 3.9695 0.0000
# 3 29.8982 87.8888 237.7667 0.0000 -2.4762 0.0000
# 4 0.0000 0.0000 0.0000 -22.7945 0.0000 14.4182
# 5 12.5115 3.9695 -2.4762 0.0000 30.6072 0.0000
# 6 0.0000 0.0000 0.0000 14.4182 0.0000 55.6816
#
#
#
# Elastic Compliance Matrix: (Units=1/GPa)
#
#
# Indices 1 2 3 4 5 6 
#
# 1 0.017886 -0.007997 0.000642 0.000000 -0.006222 0.000000
# 2 -0.007997 0.015119 -0.004573 0.000000 0.000938 0.000000
# 3 0.000642 -0.004573 0.005824 0.000000 0.000802 0.000000
# 4 0.000000 0.000000 0.000000 -0.037696 0.000000 0.009761
# 5 -0.006222 0.000938 0.000802 0.000000 0.035159 0.000000
# 6 0.000000 0.000000 0.000000 0.009761 0.000000 0.015432
#
#
# Mechanical properties :
#
#
# Convention : Reuss Voigt Hill
#
# Bulk Modulus (GPa) = 66.79230 86.58749 76.68990
# Shear Modulus (GPa) = 62.05807 30.72633 46.39220
#
# Velocity S-wave (km/s) = 5.53154 3.89226 4.78266
# Velocity P-wave (km/s) = 8.58658 7.93043 8.26502
#
# Compressibility (1/GPa) = 0.01497179
#
# Stress axis : x y z
#
# Youngs Moduli (GPa) = 55.91047 66.14302 171.70923
#
# Poissons Ratio (x) = 0.52898 -0.11030
# Poissons Ratio (y) = 0.44714 0.78525
# Poissons Ratio (z) = -0.03591 0.30248
#
# Static dielectric constant tensor:
#      x y z
#    x 1.642370 0.000000 -0.090020 
#    y 0.000000 1.669770 0.000000 
#    z -0.090020 0.000000 1.880400 
# 
# From -- ./inp_files/83892.got.cif
#   From: 2010.05.17/outbox.cif.g08.bks.cpg/sg15_42_cif.got.tgz:83892.got - 2010.06.03 18:47:42.
