data_PCOD9278983
_publ_section_title
;
Structure prediction by ZEFSAII (Michael W. Deem and Ramdas Pophale) SiO2 
 PCOD9278983
Probable space group: C 2/C
;
_chemical_formula_sum "Si O2"
_cell_formula_units_Z 44
_cell_length_a 13.814127
_cell_length_b 5.793104
_cell_length_c 20.931910
_cell_angle_alpha 90.000000
_cell_angle_beta 86.238049
_cell_angle_gamma 90.000000
_cell_volume 1671.501716
_symmetry_space_group_name_H-M "C 2/C"
_symmetry_group_IT_number 15
_symmetry_cell_setting 'monoclinic'
loop_
_space_group_symop_operation_xyz
x,y,z
-x,y,1/2-z
-x,-y,-z
x,-y,1/2+z
1/2+x,1/2+y,z
1/2-x,1/2+y,1/2-z
1/2-x,1/2-y,-z
1/2+x,1/2-y,1/2+z
loop_
_atom_site_type_symbol
_atom_site_label
_atom_site_fract_x
_atom_site_fract_y
_atom_site_fract_z
Si Si1 0.000000 0.147550 0.250000
Si Si2 0.119536 0.003658 0.499059
Si Si3 0.146566 0.498440 0.305824
Si Si4 0.440548 0.397122 0.134972
Si Si5 0.233569 0.622770 0.173343
Si Si6 0.152842 0.503964 0.552787
O O1 0.087819 0.309041 0.267545
O O2 0.986613 0.992093 0.314257
O O3 0.055214 0.984200 0.437125
O O4 0.112003 0.752895 0.534307
O O5 0.109134 0.262079 0.528869
O O6 0.233672 0.000353 0.472880
O O7 0.070757 0.625171 0.354574
O O8 0.196817 0.638146 0.246848
O O9 0.228784 0.379317 0.345308
O O10 0.331299 0.474255 0.160753
O O11 0.155418 0.523262 0.128996
#
# Coordination Sequence:
#
# PCOD9278983 Si02
#       6
#     4   8   8   8   8   8
#     4  10  24  38  58  84 118 160 202 238 312 354
#     4   9  19  32  55  80 122 150 202 238 299 353
#     4  11  21  38  58  89 119 156 194 255 300 366
#     4  10  21  37  56  88 115 159 195 249 293 361
#     4  10  21  33  60  88 122 146 199 243 313 347
#     4   9  19  32  52  87 116 158 186 251 297 359
#
# _framework density 26.323633000000001
#
# number of rings (size 3 to 8) (size 9 to 14) (size 15 to 20)
#    0.000    2.182    1.818    0.545   15.273    0.000 
#    0.000    0.000    0.000    2.182    0.000    0.000 
#    0.000    0.000    0.000    0.000    0.000    0.000 
#
# Total GULP energy -122908.374586 kJ/mol
# GULP energy per Si atom -5586.744299 kJ/mol
# Density = 2.626372 g / cm^3
# Si number density = 26.323633 Si / 1000 Ang^3
#
#
#
# Elastic Constant Matrix: (Units=GPa)
#
#
# Indices 1 2 3 4 5 6 
#
# 1 79.3487 40.9710 2.5245 0.0000 17.6412 0.0000
# 2 40.9710 162.4611 78.9130 0.0000 14.5029 0.0000
# 3 2.5245 78.9130 145.0865 0.0000 26.4274 0.0000
# 4 0.0000 0.0000 0.0000 25.0119 0.0000 4.1093
# 5 17.6412 14.5029 26.4274 0.0000 28.3445 0.0000
# 6 0.0000 0.0000 0.0000 4.1093 0.0000 39.6655
#
#
#
# Elastic Compliance Matrix: (Units=1/GPa)
#
#
# Indices 1 2 3 4 5 6 
#
# 1 0.018620 -0.006153 0.005493 0.000000 -0.013562 0.000000
# 2 -0.006153 0.010399 -0.006357 0.000000 0.004436 0.000000
# 3 0.005493 -0.006357 0.012389 0.000000 -0.011717 0.000000
# 4 0.000000 0.000000 0.000000 0.040673 0.000000 -0.004214
# 5 -0.013562 0.004436 -0.011717 0.000000 0.052376 0.000000
# 6 0.000000 0.000000 0.000000 -0.004214 0.000000 0.025647
#
#
# Mechanical properties :
#
#
# Convention : Reuss Voigt Hill
#
# Bulk Modulus (GPa) = 36.53154 70.19034 53.36094
# Shear Modulus (GPa) = 27.28317 36.23691 31.76004
#
# Velocity S-wave (km/s) = 3.22289 3.71427 3.47727
# Velocity P-wave (km/s) = 5.26852 6.71689 6.03631
#
# Compressibility (1/GPa) = 0.02737360
#
# Stress axis : x y z
#
# Youngs Moduli (GPa) = 53.70487 96.16378 80.71895
#
# Poissons Ratio (x) = 0.59173 -0.44340
# Poissons Ratio (y) = 0.33047 0.51313
# Poissons Ratio (z) = -0.29501 0.61131
#
# Static dielectric constant tensor:
#      x y z
#    x 2.120310 0.000000 -0.012870 
#    y 0.000000 2.282460 0.000000 
#    z -0.012870 0.000000 2.037470 
# 
# From -- ./inp_files/246389.got.cif
#   From: 2010.05.17/outbox.cif.g08.bks.cpg/sg15_124_cif.got.tgz:246389.got - 2010.06.03 18:47:42.
