data_PCOD9278052
_publ_section_title
;
Structure prediction by ZEFSAII (Michael W. Deem and Ramdas Pophale) SiO2 
 PCOD9278052
Probable space group: C 2/C
;
_chemical_formula_sum "Si O2"
_cell_formula_units_Z 48
_cell_length_a 13.234807
_cell_length_b 8.561512
_cell_length_c 29.428874
_cell_angle_alpha 90.000000
_cell_angle_beta 139.375248
_cell_angle_gamma 90.000000
_cell_volume 2171.155189
_symmetry_space_group_name_H-M "C 2/C"
_symmetry_group_IT_number 15
_symmetry_cell_setting 'monoclinic'
loop_
_space_group_symop_operation_xyz
x,y,z
-x,y,1/2-z
-x,-y,-z
x,-y,1/2+z
1/2+x,1/2+y,z
1/2-x,1/2+y,1/2-z
1/2-x,1/2-y,-z
1/2+x,1/2-y,1/2+z
loop_
_atom_site_type_symbol
_atom_site_label
_atom_site_fract_x
_atom_site_fract_y
_atom_site_fract_z
Si Si1 0.755242 0.045679 0.775040
Si Si2 0.671911 0.634200 0.803074
Si Si3 0.158794 0.921783 0.038775
Si Si4 0.468156 0.700705 0.394468
Si Si5 0.205833 0.304135 0.639417
Si Si6 0.474907 0.035800 0.127818
O O1 0.800875 0.110054 0.741401
O O2 0.724751 0.183032 0.800263
O O3 0.598638 0.949308 0.710886
O O4 0.896378 0.940351 0.841052
O O5 0.500000 0.694075 0.750000
O O6 0.814231 0.739401 0.868943
O O7 0.693553 0.460894 0.831296
O O8 0.192431 0.789084 0.087965
O O9 0.296906 0.047776 0.080930
O O10 0.109694 0.850439 0.973766
O O11 0.000000 0.000000 0.000000
O O12 0.517581 0.851916 0.382981
O O13 0.045704 0.364530 0.609854
#
# Coordination Sequence:
#
# PCOD9278052 Si02
#       6
#     8   8   8   8   8   8
#     4  10  20  42  65  90 128 161 209 271 322 375
#     4  10  22  38  66  97 118 164 216 263 321 375
#     4  12  25  41  62  97 128 170 217 254 326 394
#     4  10  22  43  60  91 132 162 207 263 322 387
#     4  10  23  42  64  93 129 166 217 265 321 391
#     4  10  23  41  66  91 126 172 211 269 324 375
#
# _framework density 22.108046000000002
#
# number of rings (size 3 to 8) (size 9 to 14) (size 15 to 20)
#    0.000    2.000    1.667    4.500    4.667    6.000 
#    3.000    0.000    0.000    0.000    0.000    0.000 
#    0.000    0.000    0.000    0.000    0.000    0.000 
#
# Total GULP energy -133959.546391 kJ/mol
# GULP energy per Si atom -5581.647766 kJ/mol
# Density = 2.205773 g / cm^3
# Si number density = 22.108046 Si / 1000 Ang^3
#
#
#
# Elastic Constant Matrix: (Units=GPa)
#
#
# Indices 1 2 3 4 5 6 
#
# 1 68.1844 -11.6099 26.7320 0.0000 28.3822 0.0000
# 2 -11.6099 20.7822 -6.2788 0.0000 -10.3410 0.0000
# 3 26.7320 -6.2788 108.8561 0.0000 -4.8497 0.0000
# 4 0.0000 0.0000 0.0000 7.3205 0.0000 -13.9998
# 5 28.3822 -10.3410 -4.8497 0.0000 38.2297 0.0000
# 6 0.0000 0.0000 0.0000 -13.9998 0.0000 26.8500
#
#
#
# Elastic Compliance Matrix: (Units=1/GPa)
#
#
# Indices 1 2 3 4 5 6 
#
# 1 0.026024 0.002692 -0.007104 0.000001 -0.019493 0.000000
# 2 0.002692 0.057576 0.003283 0.000004 0.013992 0.000002
# 3 -0.007104 0.003283 0.011460 0.000000 0.007616 0.000000
# 4 0.000001 0.000004 0.000000 47.755329 0.000000 24.899910
# 5 -0.019493 0.013992 0.007616 0.000000 0.045381 0.000000
# 6 0.000000 0.000002 0.000000 24.899910 0.000000 13.020204
#
#
# Mechanical properties :
#
#
# Convention : Reuss Voigt Hill
#
# Bulk Modulus (GPa) = 10.77551 23.94546 17.36049
# Shear Modulus (GPa) = 0.08204 27.07868 13.58036
#
# Velocity S-wave (km/s) = 0.19284 3.50356 2.48114
# Velocity P-wave (km/s) = 2.22130 5.21739 4.00970
#
# Compressibility (1/GPa) = 0.09280303
#
# Stress axis : x y z
#
# Youngs Moduli (GPa) = 38.42628 17.36820 87.26285
#
# Poissons Ratio (x) = -0.04676 0.61991
# Poissons Ratio (y) = -0.10345 -0.28651
# Poissons Ratio (z) = 0.27298 -0.05702
#
# Static dielectric constant tensor:
#      x y z
#    x 1.904470 0.000000 0.022340 
#    y 0.000000 1.877230 0.000000 
#    z 0.022340 0.000000 1.873410 
# 
# From -- ./inp_files/312999.got.cif
#   From: 2010.05.17/outbox.cif.g08.bks.cpg/sg15_157_cif.got.tgz:312999.got - 2010.06.03 18:47:42.
