data_PCOD9278482
_publ_section_title
;
Structure prediction by ZEFSAII (Michael W. Deem and Ramdas Pophale) SiO2 
 PCOD9278482
Probable space group: C 2/C
;
_chemical_formula_sum "Si O2"
_cell_formula_units_Z 48
_cell_length_a 18.201541
_cell_length_b 8.436988
_cell_length_c 24.419009
_cell_angle_alpha 90.000000
_cell_angle_beta 149.888971
_cell_angle_gamma 90.000000
_cell_volume 1881.256628
_symmetry_space_group_name_H-M "C 2/C"
_symmetry_group_IT_number 15
_symmetry_cell_setting 'monoclinic'
loop_
_space_group_symop_operation_xyz
x,y,z
-x,y,1/2-z
-x,-y,-z
x,-y,1/2+z
1/2+x,1/2+y,z
1/2-x,1/2+y,1/2-z
1/2-x,1/2-y,-z
1/2+x,1/2-y,1/2+z
loop_
_atom_site_type_symbol
_atom_site_label
_atom_site_fract_x
_atom_site_fract_y
_atom_site_fract_z
Si Si1 0.709086 0.070016 0.657650
Si Si2 0.758237 0.196982 0.799357
Si Si3 0.992603 0.079824 0.609915
Si Si4 0.391261 0.637229 0.128351
Si Si5 0.645161 0.880225 0.996960
Si Si6 0.509882 0.966230 0.197857
O O1 0.664952 0.167414 0.683183
O O2 0.880693 0.122615 0.762989
O O3 0.622060 0.103682 0.546792
O O4 0.714488 0.881963 0.673114
O O5 0.908654 0.104625 0.880735
O O6 0.665488 0.120179 0.788125
O O7 0.946799 0.911843 0.603630
O O8 0.852054 0.193050 0.514094
O O9 0.500000 0.618554 0.250000
O O10 0.385864 0.827412 0.120760
O O11 0.271014 0.505781 0.065345
O O12 0.517373 0.931009 0.873213
O O13 0.500000 0.050459 0.250000
#
# Coordination Sequence:
#
# PCOD9278482 Si02
#       6
#     8   8   8   8   8   8
#     4  10  22  44  67  95 132 173 207 277 329 374
#     4  10  20  43  67  92 136 164 213 266 331 381
#     4  10  23  40  67  95 127 175 212 273 324 381
#     4  11  20  43  66  93 139 169 212 271 324 381
#     4  12  24  42  70  98 128 176 230 253 329 404
#     4  11  23  41  68  99 133 172 216 275 321 383
#
# _framework density 25.514859000000001
#
# number of rings (size 3 to 8) (size 9 to 14) (size 15 to 20)
#    1.000    0.333    3.333    3.000    0.000    3.333 
#    3.000    2.500    0.000    0.000    0.000    0.000 
#    0.000    0.000    0.000    0.000    0.000    0.000 
#
# Total GULP energy -133792.401535 kJ/mol
# GULP energy per Si atom -5574.683397 kJ/mol
# Density = 2.545679 g / cm^3
# Si number density = 25.514859 Si / 1000 Ang^3
#
#
#
# Elastic Constant Matrix: (Units=GPa)
#
#
# Indices 1 2 3 4 5 6 
#
# 1 99.4653 15.8501 37.8138 0.0001 -24.8130 0.0000
# 2 15.8501 46.3873 30.5701 0.0002 -23.8032 0.0000
# 3 37.8138 30.5701 68.0996 0.0006 -15.3087 0.0002
# 4 0.0001 0.0002 0.0006 33.4462 0.0001 -5.2066
# 5 -24.8130 -23.8032 -15.3087 0.0001 43.5244 0.0000
# 6 0.0000 0.0000 0.0002 -5.2066 0.0000 34.9425
#
#
#
# Elastic Compliance Matrix: (Units=1/GPa)
#
#
# Indices 1 2 3 4 5 6 
#
# 1 0.014428 0.004533 -0.008296 0.000000 0.007786 0.000000
# 2 0.004533 0.040620 -0.016480 0.000000 0.019003 0.000000
# 3 -0.008296 -0.016480 0.025625 0.000000 -0.004729 0.000000
# 4 0.000000 0.000000 0.000000 0.030609 0.000000 0.004561
# 5 0.007786 0.019003 -0.004729 0.000000 0.036144 0.000000
# 6 0.000000 0.000000 0.000000 0.004561 0.000000 0.029298
#
#
# Mechanical properties :
#
#
# Convention : Reuss Voigt Hill
#
# Bulk Modulus (GPa) = 24.88308 42.49115 33.68711
# Shear Modulus (GPa) = 21.68211 31.03050 26.35631
#
# Velocity S-wave (km/s) = 2.91827 3.49115 3.21749
# Velocity P-wave (km/s) = 4.59659 5.73938 5.19948
#
# Compressibility (1/GPa) = 0.04018796
#
# Stress axis : x y z
#
# Youngs Moduli (GPa) = 69.31176 24.61828 39.02379
#
# Poissons Ratio (x) = -0.11158 0.32372
# Poissons Ratio (y) = -0.31416 0.64310
# Poissons Ratio (z) = 0.57498 0.40570
#
# Static dielectric constant tensor:
#      x y z
#    x 2.073340 0.000000 0.085850 
#    y 0.000000 1.983680 0.000000 
#    z 0.085850 0.000000 2.088470 
# 
# From -- ./inp_files/300562.got.cif
#   From: 2010.05.17/outbox.cif.g08.bks.cpg/sg15_151_cif.got.tgz:300562.got - 2010.06.03 18:47:42.
