data_PCOD9278660
_publ_section_title
;
Structure prediction by ZEFSAII (Michael W. Deem and Ramdas Pophale) SiO2 
 PCOD9278660
Probable space group: C 2/C
;
_chemical_formula_sum "Si O2"
_cell_formula_units_Z 20
_cell_length_a 6.590534
_cell_length_b 14.201524
_cell_length_c 8.382789
_cell_angle_alpha 90.000000
_cell_angle_beta 74.129985
_cell_angle_gamma 90.000000
_cell_volume 754.687299
_symmetry_space_group_name_H-M "C 2/C"
_symmetry_group_IT_number 15
_symmetry_cell_setting 'monoclinic'
loop_
_space_group_symop_operation_xyz
x,y,z
-x,y,1/2-z
-x,-y,-z
x,-y,1/2+z
1/2+x,1/2+y,z
1/2-x,1/2+y,1/2-z
1/2-x,1/2-y,-z
1/2+x,1/2-y,1/2+z
loop_
_atom_site_type_symbol
_atom_site_label
_atom_site_fract_x
_atom_site_fract_y
_atom_site_fract_z
Si Si1 0.528382 0.198285 0.574955
Si Si2 0.500000 0.526746 0.750000
Si Si3 0.736605 0.381300 0.905763
O O1 0.500000 0.145300 0.750000
O O2 0.750000 0.250000 0.500000
O O3 0.355277 0.281161 0.627990
O O4 0.464486 0.136236 0.435749
O O5 0.676793 0.459587 0.790142
O O6 0.596455 0.588849 0.589679
#
# Coordination Sequence:
#
# PCOD9278660 Si02
#       3
#     8   4   8
#     4  11  23  43  69  99 132 187 227 277 335 417
#     4  10  20  44  68 106 136 176 224 296 336 400
#     4  10  22  41  69  96 141 172 228 282 343 401
#
# _framework density 26.501044
#
# number of rings (size 3 to 8) (size 9 to 14) (size 15 to 20)
#    0.000    1.600    2.000    2.400    0.000    4.800 
#    0.000   22.000    0.000    0.000    0.000    0.000 
#    0.000    0.000    0.000    0.000    0.000    0.000 
#
# Total GULP energy -56055.211826 kJ/mol
# GULP energy per Si atom -5605.521183 kJ/mol
# Density = 2.644073 g / cm^3
# Si number density = 26.501044 Si / 1000 Ang^3
#
#
#
# Elastic Constant Matrix: (Units=GPa)
#
#
# Indices 1 2 3 4 5 6 
#
# 1 164.3155 27.1951 40.9326 0.0000 13.9522 0.0000
# 2 27.1951 80.3936 18.5375 0.0000 15.5249 0.0000
# 3 40.9326 18.5375 112.5450 0.0000 31.8465 0.0000
# 4 0.0000 0.0000 0.0000 42.0211 0.0000 3.0514
# 5 13.9522 15.5249 31.8465 0.0000 50.0820 0.0000
# 6 0.0000 0.0000 0.0000 3.0514 0.0000 56.8420
#
#
#
# Elastic Compliance Matrix: (Units=1/GPa)
#
#
# Indices 1 2 3 4 5 6 
#
# 1 0.006944 -0.001844 -0.002239 0.000000 0.000061 0.000000
# 2 -0.001844 0.013865 -0.000661 0.000000 -0.003364 0.000000
# 3 -0.002239 -0.000661 0.011675 0.000000 -0.006595 0.000000
# 4 0.000000 0.000000 0.000000 0.023891 0.000000 -0.001283
# 5 0.000061 -0.003364 -0.006595 0.000000 0.025187 0.000000
# 6 0.000000 0.000000 0.000000 -0.001283 0.000000 0.017661
#
#
# Mechanical properties :
#
#
# Convention : Reuss Voigt Hill
#
# Bulk Modulus (GPa) = 43.48874 58.95383 51.22128
# Shear Modulus (GPa) = 42.96438 47.82828 45.39633
#
# Velocity S-wave (km/s) = 4.03082 4.25287 4.14333
# Velocity P-wave (km/s) = 6.17326 6.81249 6.50074
#
# Compressibility (1/GPa) = 0.02299446
#
# Stress axis : x y z
#
# Youngs Moduli (GPa) = 144.01637 72.12548 85.65527
#
# Poissons Ratio (x) = 0.13303 0.19177
# Poissons Ratio (y) = 0.26562 0.05662
# Poissons Ratio (z) = 0.32243 0.04768
#
# Static dielectric constant tensor:
#      x y z
#    x 2.185780 0.000000 0.012510 
#    y 0.000000 1.934160 0.000000 
#    z 0.012510 0.000000 2.094370 
# 
# From -- ./inp_files/19004.got.cif
#   From: 2010.05.17/outbox.cif.g08.bks.cpg/sg15_10_cif.got.tgz:19004.got - 2010.06.03 18:47:42.
