data_PCOD9278459
_publ_section_title
;
Structure prediction by ZEFSAII (Michael W. Deem and Ramdas Pophale) SiO2 
 PCOD9278459
Probable space group: C 2/C
;
_chemical_formula_sum "Si O2"
_cell_formula_units_Z 64
_cell_length_a 14.949452
_cell_length_b 26.351525
_cell_length_c 12.196250
_cell_angle_alpha 90.000000
_cell_angle_beta 138.469640
_cell_angle_gamma 90.000000
_cell_volume 3185.531371
_symmetry_space_group_name_H-M "C 2/C"
_symmetry_group_IT_number 15
_symmetry_cell_setting 'monoclinic'
loop_
_space_group_symop_operation_xyz
x,y,z
-x,y,1/2-z
-x,-y,-z
x,-y,1/2+z
1/2+x,1/2+y,z
1/2-x,1/2+y,1/2-z
1/2-x,1/2-y,-z
1/2+x,1/2-y,1/2+z
loop_
_atom_site_type_symbol
_atom_site_label
_atom_site_fract_x
_atom_site_fract_y
_atom_site_fract_z
Si Si1 0.096308 0.456490 0.943792
Si Si2 0.640989 0.289760 0.442240
Si Si3 0.248016 0.708033 0.231612
Si Si4 0.713340 0.324732 0.189484
Si Si5 0.142113 0.108810 0.827259
Si Si6 0.003636 0.640706 0.018871
Si Si7 0.110354 0.568500 0.944768
Si Si8 0.839104 0.859604 0.605777
O O1 0.110278 0.513637 0.003725
O O2 0.000000 0.459320 0.750000
O O3 0.248068 0.435382 0.067621
O O4 0.028006 0.411057 0.947660
O O5 0.500000 0.280926 0.250000
O O6 0.750000 0.250000 0.500000
O O7 0.636709 0.289366 0.569666
O O8 0.689185 0.345014 0.447449
O O9 0.187909 0.764512 0.163823
O O10 0.300268 0.680978 0.167485
O O11 0.126353 0.674765 0.171506
O O12 0.633311 0.363155 0.199019
O O13 0.865574 0.329795 0.375501
O O14 0.705207 0.342097 0.056290
O O15 0.000000 0.092864 0.750000
O O16 0.054006 0.618412 0.951092
O O17 0.000000 0.561299 0.750000
O O18 0.260426 0.587163 0.052701
O O19 0.000000 0.865300 0.750000
#
# Coordination Sequence:
#
# PCOD9278459 Si02
#       8
#     8   8   8   8   8   8   8   8
#     4  10  21  39  67  95 123 161 216 273 329 385
#     4  11  24  39  61  89 127 168 214 259 320 376
#     4  11  25  40  64  95 130 177 218 265 319 390
#     4  11  23  42  62  94 131 180 214 264 327 382
#     4  10  23  40  63  89 131 166 208 270 321 394
#     4  10  22  39  68  92 131 164 228 263 320 389
#     4  10  20  43  66  90 126 167 211 276 328 379
#     4  11  26  41  64  93 134 168 223 270 317 397
#
# _framework density 20.090841000000001
#
# number of rings (size 3 to 8) (size 9 to 14) (size 15 to 20)
#    0.000    1.500    2.500    1.500    7.000    1.000 
#    0.000    0.000    0.000    2.250    0.000    0.000 
#    0.000    0.000    0.000    0.000    0.000    0.000 
#
# Total GULP energy -178257.895143 kJ/mol
# GULP energy per Si atom -5570.559223 kJ/mol
# Density = 2.004511 g / cm^3
# Si number density = 20.090841 Si / 1000 Ang^3
#
#
#
# Elastic Constant Matrix: (Units=GPa)
#
#
# Indices 1 2 3 4 5 6 
#
# 1 94.2930 23.9455 41.5370 0.0000 9.0145 0.0000
# 2 23.9455 103.5867 23.0103 0.0000 12.6174 0.0000
# 3 41.5370 23.0103 94.5319 0.0000 0.9094 0.0000
# 4 0.0000 0.0000 0.0000 33.1885 0.0000 2.3982
# 5 9.0145 12.6174 0.9094 0.0000 44.0037 0.0000
# 6 0.0000 0.0000 0.0000 2.3982 0.0000 30.2411
#
#
#
# Elastic Compliance Matrix: (Units=1/GPa)
#
#
# Indices 1 2 3 4 5 6 
#
# 1 0.013703 -0.001654 -0.005597 0.000000 -0.002217 0.000000
# 2 -0.001654 0.010783 -0.001872 0.000000 -0.002714 0.000000
# 3 -0.005597 -0.001872 0.013480 0.000000 0.001405 0.000000
# 4 0.000000 0.000000 0.000000 0.030305 0.000000 -0.002403
# 5 -0.002217 -0.002714 0.001405 0.000000 0.023929 0.000000
# 6 0.000000 0.000000 0.000000 -0.002403 0.000000 0.033258
#
#
# Mechanical properties :
#
#
# Convention : Reuss Voigt Hill
#
# Bulk Modulus (GPa) = 50.71142 52.15525 51.43334
# Shear Modulus (GPa) = 33.27222 35.08125 34.17673
#
# Velocity S-wave (km/s) = 4.07392 4.18321 4.12893
# Velocity P-wave (km/s) = 6.88658 7.02484 6.95605
#
# Compressibility (1/GPa) = 0.01971942
#
# Stress axis : x y z
#
# Youngs Moduli (GPa) = 72.97764 92.74286 74.18504
#
# Poissons Ratio (x) = 0.15342 0.41521
# Poissons Ratio (y) = 0.12072 0.13885
# Poissons Ratio (z) = 0.40846 0.17358
#
# Static dielectric constant tensor:
#      x y z
#    x 3.339450 0.000000 -3.420320 
#    y 0.000000 1.742940 0.000000 
#    z -3.420320 0.000000 9.009190 
# 
# From -- ./inp_files/101375.got.cif
#   From: 2010.05.17/outbox.cif.g08.bks.cpg/sg15_51_cif.got.tgz:101375.got - 2010.06.03 18:47:42.
