data_PCOD9278747
_publ_section_title
;
Structure prediction by ZEFSAII (Michael W. Deem and Ramdas Pophale) SiO2 
 PCOD9278747
Probable space group: C 2/C
;
_chemical_formula_sum "Si O2"
_cell_formula_units_Z 52
_cell_length_a 26.939014
_cell_length_b 11.785493
_cell_length_c 9.736310
_cell_angle_alpha 90.000000
_cell_angle_beta 51.415281
_cell_angle_gamma 90.000000
_cell_volume 2416.332201
_symmetry_space_group_name_H-M "C 2/C"
_symmetry_group_IT_number 15
_symmetry_cell_setting 'monoclinic'
loop_
_space_group_symop_operation_xyz
x,y,z
-x,y,1/2-z
-x,-y,-z
x,-y,1/2+z
1/2+x,1/2+y,z
1/2-x,1/2+y,1/2-z
1/2-x,1/2-y,-z
1/2+x,1/2-y,1/2+z
loop_
_atom_site_type_symbol
_atom_site_label
_atom_site_fract_x
_atom_site_fract_y
_atom_site_fract_z
Si Si1 0.500000 0.327989 0.250000
Si Si2 0.905602 0.955537 0.228812
Si Si3 0.074536 0.867629 0.595597
Si Si4 0.240053 0.849236 0.626690
Si Si5 0.139556 0.776434 0.997257
Si Si6 0.830146 0.544800 0.427932
Si Si7 0.139019 0.633720 0.420086
O O1 0.473129 0.406255 0.172620
O O2 0.436251 0.259757 0.398040
O O3 0.858372 0.862449 0.376914
O O4 0.895162 0.074617 0.322334
O O5 0.907440 0.947639 0.063680
O O6 0.097052 0.743621 0.513820
O O7 0.000000 0.863084 0.750000
O O8 0.250000 0.750000 0.500000
O O9 0.172207 0.835211 0.812076
O O10 0.289002 0.829623 0.668232
O O11 0.264892 0.971171 0.527544
O O12 0.173649 0.659481 0.977341
O O13 0.859724 0.578619 0.231541
O O14 0.874183 0.459334 0.439611
#
# Coordination Sequence:
#
# PCOD9278747 Si02
#       7
#     4   8   8   8   8   8   8
#     4   8  20  40  68 100 132 182 218 294 344 412
#     4  10  23  41  66  98 142 179 231 289 352 406
#     4  12  23  44  66 104 138 188 238 288 348 425
#     4  10  24  41  67 102 138 182 227 285 351 416
#     4  10  20  45  69 101 136 184 236 281 359 413
#     4  10  22  47  68  95 145 176 231 292 343 415
#     4  10  24  45  69  99 138 182 229 291 344 419
#
# _framework density 21.520218
#
# number of rings (size 3 to 8) (size 9 to 14) (size 15 to 20)
#    1.846    0.000    2.308    1.385    0.000    4.308 
#    4.154    0.769    0.000    0.000    0.000    0.000 
#    0.000    0.000    0.000    0.000    0.000    0.000 
#
# Total GULP energy -144942.486050 kJ/mol
# GULP energy per Si atom -5574.711002 kJ/mol
# Density = 2.147124 g / cm^3
# Si number density = 21.520218 Si / 1000 Ang^3
#
#
#
# Elastic Constant Matrix: (Units=GPa)
#
#
# Indices 1 2 3 4 5 6 
#
# 1 46.1489 46.5895 47.9190 0.0000 10.9567 0.0000
# 2 46.5895 163.1293 90.1763 0.0000 -3.0176 0.0000
# 3 47.9190 90.1763 159.9124 0.0000 11.7177 0.0000
# 4 0.0000 0.0000 0.0000 32.9683 0.0000 -5.7885
# 5 10.9567 -3.0176 11.7177 0.0000 36.9141 0.0000
# 6 0.0000 0.0000 0.0000 -5.7885 0.0000 29.4227
#
#
#
# Elastic Compliance Matrix: (Units=1/GPa)
#
#
# Indices 1 2 3 4 5 6 
#
# 1 0.038436 -0.007552 -0.006530 0.000000 -0.009953 0.000000
# 2 -0.007552 0.010599 -0.004035 0.000000 0.004389 0.000000
# 3 -0.006530 -0.004035 0.010615 0.000000 -0.001761 0.000000
# 4 0.000000 0.000000 0.000000 0.031417 0.000000 0.006181
# 5 -0.009953 0.004389 -0.001761 0.000000 0.030962 0.000000
# 6 0.000000 0.000000 0.000000 0.006181 0.000000 0.035203
#
#
# Mechanical properties :
#
#
# Convention : Reuss Voigt Hill
#
# Bulk Modulus (GPa) = 42.70634 82.06225 62.38429
# Shear Modulus (GPa) = 24.84196 32.16140 28.50168
#
# Velocity S-wave (km/s) = 3.40127 3.87004 3.64320
# Velocity P-wave (km/s) = 5.94244 7.62791 6.83731
#
# Compressibility (1/GPa) = 0.02341573
#
# Stress axis : x y z
#
# Youngs Moduli (GPa) = 26.01704 94.35001 94.20779
#
# Poissons Ratio (x) = 0.71251 0.61517
# Poissons Ratio (y) = 0.19648 0.38017
# Poissons Ratio (z) = 0.16989 0.38074
#
# Static dielectric constant tensor:
#      x y z
#    x 1.826420 0.000000 -0.016560 
#    y 0.000000 1.817620 0.000000 
#    z -0.016560 0.000000 1.775040 
# 
# From -- ./inp_files/65354.got.cif
#   From: 2010.05.17/outbox.cif.g08.bks.cpg/sg15_33_cif.got.tgz:65354.got - 2010.06.03 18:47:42.
