data_PCOD9278876
_publ_section_title
;
Structure prediction by ZEFSAII (Michael W. Deem and Ramdas Pophale) SiO2 
 PCOD9278876
Probable space group: C 2/C
;
_chemical_formula_sum "Si O2"
_cell_formula_units_Z 40
_cell_length_a 12.728214
_cell_length_b 20.116142
_cell_length_c 8.756031
_cell_angle_alpha 90.000000
_cell_angle_beta 55.812205
_cell_angle_gamma 90.000000
_cell_volume 1854.514055
_symmetry_space_group_name_H-M "C 2/C"
_symmetry_group_IT_number 15
_symmetry_cell_setting 'monoclinic'
loop_
_space_group_symop_operation_xyz
x,y,z
-x,y,1/2-z
-x,-y,-z
x,-y,1/2+z
1/2+x,1/2+y,z
1/2-x,1/2+y,1/2-z
1/2-x,1/2-y,-z
1/2+x,1/2-y,1/2+z
loop_
_atom_site_type_symbol
_atom_site_label
_atom_site_fract_x
_atom_site_fract_y
_atom_site_fract_z
Si Si1 0.836869 0.169168 0.631394
Si Si2 0.000000 0.017487 0.250000
Si Si3 0.169456 0.684714 0.215037
Si Si4 0.587150 0.407699 0.973153
Si Si5 0.000000 0.222534 0.250000
Si Si6 0.080402 0.673785 0.942829
O O1 0.823983 0.242490 0.715247
O O2 0.700110 0.135743 0.770263
O O3 0.953171 0.129902 0.611753
O O4 0.884888 0.181515 0.419540
O O5 0.929442 0.060474 0.180477
O O6 0.904023 0.969243 0.418944
O O7 0.298776 0.643783 0.111183
O O8 0.059191 0.646236 0.401063
O O9 0.127469 0.694199 0.073573
O O10 0.052988 0.267923 0.343206
#
# Coordination Sequence:
#
# PCOD9278876 Si02
#       6
#     8   4   8   8   4   8
#     4  11  21  37  62  96 131 167 208 270 336 390
#     4  10  25  44  66  90 122 182 235 266 294 366
#     4  10  21  38  62  95 131 167 208 267 337 396
#     4  11  23  43  68  93 128 171 226 269 312 382
#     4  10  21  32  50  90 138 172 201 240 316 408
#     4  10  21  34  54  88 132 166 198 248 326 401
#
# _framework density 21.568991
#
# number of rings (size 3 to 8) (size 9 to 14) (size 15 to 20)
#    0.000    1.600    0.000    5.400    0.000   11.200 
#    0.000    0.000    0.000   21.600    0.000    0.000 
#    0.000    0.000    0.000    0.000    0.000    0.000 
#
# Total GULP energy -111653.019493 kJ/mol
# GULP energy per Si atom -5582.650975 kJ/mol
# Density = 2.151990 g / cm^3
# Si number density = 21.568991 Si / 1000 Ang^3
#
#
#
# Elastic Constant Matrix: (Units=GPa)
#
#
# Indices 1 2 3 4 5 6 
#
# 1 99.3013 43.1941 54.9280 0.0000 -13.3133 0.0000
# 2 43.1941 74.2953 27.7371 0.0000 6.0450 0.0000
# 3 54.9280 27.7371 156.2806 0.0000 -16.4476 0.0000
# 4 0.0000 0.0000 0.0000 37.9778 0.0000 3.6601
# 5 -13.3133 6.0450 -16.4476 0.0000 59.3725 0.0000
# 6 0.0000 0.0000 0.0000 3.6601 0.0000 12.6107
#
#
#
# Elastic Compliance Matrix: (Units=1/GPa)
#
#
# Indices 1 2 3 4 5 6 
#
# 1 0.016291 -0.008296 -0.003894 0.000000 0.003419 0.000000
# 2 -0.008296 0.018935 -0.000869 0.000000 -0.004029 0.000000
# 3 -0.003894 -0.000869 0.008074 0.000000 0.001452 0.000000
# 4 0.000000 0.000000 0.000000 0.027089 0.000000 -0.007862
# 5 0.003419 -0.004029 0.001452 0.000000 0.018422 0.000000
# 6 0.000000 0.000000 0.000000 -0.007862 0.000000 0.081579
#
#
# Mechanical properties :
#
#
# Convention : Reuss Voigt Hill
#
# Bulk Modulus (GPa) = 58.19504 64.62174 61.40839
# Shear Modulus (GPa) = 24.72367 35.59340 30.15854
#
# Velocity S-wave (km/s) = 3.38932 4.06669 3.74336
# Velocity P-wave (km/s) = 6.50816 7.21638 6.87140
#
# Compressibility (1/GPa) = 0.01718360
#
# Stress axis : x y z
#
# Youngs Moduli (GPa) = 61.38351 52.81197 123.85000
#
# Poissons Ratio (x) = 0.43812 0.48222
# Poissons Ratio (y) = 0.50923 0.10761
# Poissons Ratio (z) = 0.23900 0.04589
#
# Static dielectric constant tensor:
#      x y z
#    x 1.848550 0.000000 -0.039560 
#    y 0.000000 1.764520 0.000000 
#    z -0.039560 0.000000 1.879700 
# 
# From -- ./inp_files/40592.got.cif
#   From: 2010.05.17/outbox.cif.g08.bks.cpg/sg15_21_cif.got.tgz:40592.got - 2010.06.03 18:47:42.
