data_PCOD9278773
_publ_section_title
;
Structure prediction by ZEFSAII (Michael W. Deem and Ramdas Pophale) SiO2 
 PCOD9278773
Probable space group: C 2/C
;
_chemical_formula_sum "Si O2"
_cell_formula_units_Z 40
_cell_length_a 14.999525
_cell_length_b 12.029516
_cell_length_c 10.279313
_cell_angle_alpha 90.000000
_cell_angle_beta 68.960020
_cell_angle_gamma 90.000000
_cell_volume 1731.111493
_symmetry_space_group_name_H-M "C 2/C"
_symmetry_group_IT_number 15
_symmetry_cell_setting 'monoclinic'
loop_
_space_group_symop_operation_xyz
x,y,z
-x,y,1/2-z
-x,-y,-z
x,-y,1/2+z
1/2+x,1/2+y,z
1/2-x,1/2+y,1/2-z
1/2-x,1/2-y,-z
1/2+x,1/2-y,1/2+z
loop_
_atom_site_type_symbol
_atom_site_label
_atom_site_fract_x
_atom_site_fract_y
_atom_site_fract_z
Si Si1 0.462746 0.078231 0.905552
Si Si2 0.500000 0.319315 0.250000
Si Si3 0.916188 0.775443 0.557877
Si Si4 0.752406 0.981695 0.974815
Si Si5 0.369183 0.513499 0.659219
Si Si6 0.750000 0.250000 0.000000
O O1 0.500000 0.032020 0.750000
O O2 0.513181 0.196367 0.903152
O O3 0.349175 0.077406 0.964715
O O4 0.500000 0.000000 0.000000
O O5 0.433374 0.258773 0.390991
O O6 0.568656 0.394640 0.300394
O O7 0.928330 0.903099 0.590467
O O8 0.804985 0.744615 0.616935
O O9 0.822405 0.939904 0.052264
O O10 0.745913 0.113244 0.010713
O O11 0.794341 0.974161 0.808222
#
# Coordination Sequence:
#
# PCOD9278773 Si02
#       6
#     8   4   8   8   8   4
#     4  12  27  46  72 108 150 189 244 306 367 447
#     4  12  24  46  74 102 140 196 248 304 380 436
#     4  11  26  41  74 102 145 189 245 304 370 443
#     4  11  24  45  73 102 148 186 244 304 371 434
#     4  11  24  46  72 103 141 192 242 309 363 443
#     4  10  20  46  66 102 136 196 238 290 368 442
#
# _framework density 23.106542000000001
#
# number of rings (size 3 to 8) (size 9 to 14) (size 15 to 20)
#    0.000    0.800    6.000    1.800    2.800    3.200 
#    0.000    2.000    0.000    0.000    0.000    0.000 
#    0.000    0.000    0.000    0.000    0.000    0.000 
#
# Total GULP energy -111391.155156 kJ/mol
# GULP energy per Si atom -5569.557758 kJ/mol
# Density = 2.305395 g / cm^3
# Si number density = 23.106542 Si / 1000 Ang^3
#
#
#
# Elastic Constant Matrix: (Units=GPa)
#
#
# Indices 1 2 3 4 5 6 
#
# 1 85.8504 31.6956 -8.5619 0.0000 17.8919 0.0000
# 2 31.6956 51.4404 0.8449 0.0000 12.7053 0.0000
# 3 -8.5619 0.8449 115.0554 0.0000 -0.4854 0.0000
# 4 0.0000 0.0000 0.0000 32.2435 0.0000 12.6555
# 5 17.8919 12.7053 -0.4854 0.0000 34.4775 0.0000
# 6 0.0000 0.0000 0.0000 12.6555 0.0000 44.3409
#
#
#
# Elastic Compliance Matrix: (Units=1/GPa)
#
#
# Indices 1 2 3 4 5 6 
#
# 1 0.016024 -0.008629 0.001234 0.000000 -0.005118 0.000000
# 2 -0.008629 0.026038 -0.000855 0.000000 -0.005129 0.000000
# 3 0.001234 -0.000855 0.008789 0.000000 -0.000202 0.000000
# 4 0.000000 0.000000 0.000000 0.034927 0.000000 -0.009968
# 5 -0.005118 -0.005129 -0.000202 0.000000 0.033548 0.000000
# 6 0.000000 0.000000 0.000000 -0.009968 0.000000 0.025398
#
#
# Mechanical properties :
#
#
# Convention : Reuss Voigt Hill
#
# Bulk Modulus (GPa) = 29.11202 33.36706 31.23954
# Shear Modulus (GPa) = 28.95645 37.43689 33.19667
#
# Velocity S-wave (km/s) = 3.54386 4.02952 3.79447
# Velocity P-wave (km/s) = 5.41956 6.01010 5.72245
#
# Compressibility (1/GPa) = 0.03435007
#
# Stress axis : x y z
#
# Youngs Moduli (GPa) = 62.40695 38.40540 113.78197
#
# Poissons Ratio (x) = 0.33142 -0.14043
# Poissons Ratio (y) = 0.53854 0.09729
# Poissons Ratio (z) = -0.07702 0.03284
#
# Static dielectric constant tensor:
#      x y z
#    x 1.750910 0.000000 0.068240 
#    y 0.000000 1.857700 0.000000 
#    z 0.068240 0.000000 1.800760 
# 
# From -- ./inp_files/37915.got.cif
#   From: 2010.05.17/outbox.cif.g08.bks.cpg/sg15_19_cif.got.tgz:37915.got - 2010.06.03 18:47:42.
