data_PCOD9278282
_publ_section_title
;
Structure prediction by ZEFSAII (Michael W. Deem and Ramdas Pophale) SiO2 
 PCOD9278282
Probable space group: C 2/C
;
_chemical_formula_sum "Si O2"
_cell_formula_units_Z 44
_cell_length_a 7.948039
_cell_length_b 16.209676
_cell_length_c 17.016545
_cell_angle_alpha 90.000000
_cell_angle_beta 108.231224
_cell_angle_gamma 90.000000
_cell_volume 2082.277722
_symmetry_space_group_name_H-M "C 2/C"
_symmetry_group_IT_number 15
_symmetry_cell_setting 'monoclinic'
loop_
_space_group_symop_operation_xyz
x,y,z
-x,y,1/2-z
-x,-y,-z
x,-y,1/2+z
1/2+x,1/2+y,z
1/2-x,1/2+y,1/2-z
1/2-x,1/2-y,-z
1/2+x,1/2-y,1/2+z
loop_
_atom_site_type_symbol
_atom_site_label
_atom_site_fract_x
_atom_site_fract_y
_atom_site_fract_z
Si Si1 0.873642 0.077607 0.468301
Si Si2 0.294739 0.795787 0.803964
Si Si3 0.986857 0.222571 0.379188
Si Si4 0.000000 0.158996 0.750000
Si Si5 0.515516 0.034821 0.339299
Si Si6 0.819566 0.395170 0.395876
O O1 0.974358 0.155005 0.445428
O O2 0.773132 0.100721 0.533646
O O3 0.719040 0.052613 0.385778
O O4 0.000000 0.000000 0.500000
O O5 0.161518 0.797311 0.709598
O O6 0.426854 0.720097 0.806816
O O7 0.174152 0.781214 0.862393
O O8 0.405182 0.879988 0.824261
O O9 0.935087 0.312540 0.403228
O O10 0.161801 0.107908 0.808452
O O11 0.500000 0.996976 0.250000
O O12 0.438082 0.973665 0.392849
#
# Coordination Sequence:
#
# PCOD9278282 Si02
#       6
#     8   8   8   4   8   8
#     4  12  26  46  65 100 137 177 223 274 336 394
#     4  10  20  42  69  96 129 179 224 262 331 402
#     4  10  22  42  68  99 136 175 220 277 332 391
#     4  10  22  42  64 100 132 176 218 278 328 394
#     4  12  24  43  69  95 133 180 224 270 329 398
#     4  11  26  40  68 100 138 170 226 277 330 390
#
# _framework density 21.130707000000001
#
# number of rings (size 3 to 8) (size 9 to 14) (size 15 to 20)
#    0.000    1.091    2.727    3.273    7.636    1.455 
#    0.000    2.727    0.000    0.000    0.000    0.000 
#    0.000    0.000    0.000    0.000    0.000    0.000 
#
# Total GULP energy -123160.963004 kJ/mol
# GULP energy per Si atom -5598.225591 kJ/mol
# Density = 2.108261 g / cm^3
# Si number density = 21.130707 Si / 1000 Ang^3
#
#
#
# Elastic Constant Matrix: (Units=GPa)
#
#
# Indices 1 2 3 4 5 6 
#
# 1 106.5916 19.3456 20.9121 0.0000 -20.2996 0.0000
# 2 19.3456 49.8609 19.7813 0.0000 0.3845 0.0000
# 3 20.9121 19.7813 55.9095 0.0000 -26.8051 0.0000
# 4 0.0000 0.0000 0.0000 -74.5740 0.0000 8.3935
# 5 -20.2996 0.3845 -26.8051 0.0000 42.9186 0.0000
# 6 0.0000 0.0000 0.0000 8.3935 0.0000 19.5856
#
#
#
# Elastic Compliance Matrix: (Units=1/GPa)
#
#
# Indices 1 2 3 4 5 6 
#
# 1 0.011194 -0.004328 -0.000141 0.000000 0.005245 0.000000
# 2 -0.004328 0.026911 -0.012846 0.000000 -0.010311 0.000000
# 3 -0.000141 -0.012846 0.032127 0.000000 0.020114 0.000000
# 4 0.000000 0.000000 0.000000 -0.012792 0.000000 0.005482
# 5 0.005245 -0.010311 0.020114 0.000000 0.038435 0.000000
# 6 0.000000 0.000000 0.000000 0.005482 0.000000 0.048708
#
#
# Mechanical properties :
#
#
# Convention : Reuss Voigt Hill
#
# Bulk Modulus (GPa) = 28.08822 36.93778 32.51300
# Shear Modulus (GPa) = 26.16714 7.74092 16.95403
#
# Velocity S-wave (km/s) = 3.52283 1.91606 2.83564
# Velocity P-wave (km/s) = 5.46522 4.73430 5.11284
#
# Compressibility (1/GPa) = 0.03560212
#
# Stress axis : x y z
#
# Youngs Moduli (GPa) = 89.33715 37.15983 31.12634
#
# Poissons Ratio (x) = 0.16081 0.00439
# Poissons Ratio (y) = 0.38661 0.39985
# Poissons Ratio (z) = 0.01260 0.47736
#
# Static dielectric constant tensor:
#      x y z
#    x 1.729400 0.000000 0.009640 
#    y 0.000000 1.709480 0.000000 
#    z 0.009640 0.000000 1.781600 
# 
# From -- ./inp_files/189002.got.cif
#   From: 2010.05.17/outbox.cif.g08.bks.cpg/sg15_95_cif.got.tgz:189002.got - 2010.06.03 18:47:42.
