data_PCOD9278338
_publ_section_title
;
Structure prediction by ZEFSAII (Michael W. Deem and Ramdas Pophale) SiO2 
 PCOD9278338
Probable space group: C 2/C
;
_chemical_formula_sum "Si O2"
_cell_formula_units_Z 40
_cell_length_a 9.508685
_cell_length_b 14.782431
_cell_length_c 30.283418
_cell_angle_alpha 90.000000
_cell_angle_beta 152.853128
_cell_angle_gamma 90.000000
_cell_volume 1942.209139
_symmetry_space_group_name_H-M "C 2/C"
_symmetry_group_IT_number 15
_symmetry_cell_setting 'monoclinic'
loop_
_space_group_symop_operation_xyz
x,y,z
-x,y,1/2-z
-x,-y,-z
x,-y,1/2+z
1/2+x,1/2+y,z
1/2-x,1/2+y,1/2-z
1/2-x,1/2-y,-z
1/2+x,1/2-y,1/2+z
loop_
_atom_site_type_symbol
_atom_site_label
_atom_site_fract_x
_atom_site_fract_y
_atom_site_fract_z
Si Si1 0.232473 0.525022 0.390362
Si Si2 0.362784 0.824911 0.386916
Si Si3 0.701776 0.863427 0.229926
Si Si4 0.697398 0.340472 0.761589
Si Si5 0.996042 0.138172 0.106896
O O1 0.500000 0.500000 0.500000
O O2 0.406018 0.553722 0.394360
O O3 0.995101 0.446899 0.308702
O O4 0.021388 0.605438 0.352579
O O5 0.445899 0.854266 0.360572
O O6 0.644587 0.836379 0.498384
O O7 0.304779 0.719130 0.360427
O O8 0.063352 0.876303 0.320586
O O9 0.699708 0.769327 0.256381
O O10 0.500000 0.362871 0.750000
O O11 0.550435 0.370133 0.673721
#
# Coordination Sequence:
#
# PCOD9278338 Si02
#       5
#     8   8   8   8   8
#     4  12  24  42  71 103 135 178 229 288 344 410
#     4   9  18  38  73 100 127 175 220 275 342 413
#     4  10  21  40  70 100 138 175 222 281 347 401
#     4  11  26  44  64 100 140 179 229 285 338 410
#     4  10  20  42  70  98 132 175 226 277 345 406
#
# _framework density 20.595103999999999
#
# number of rings (size 3 to 8) (size 9 to 14) (size 15 to 20)
#    0.000    1.600    4.000    0.600    2.800    1.600 
#    0.000   10.000    0.000    0.000    0.000    0.000 
#    0.000    0.000    0.000    0.000    0.000    0.000 
#
# Total GULP energy -111484.689257 kJ/mol
# GULP energy per Si atom -5574.234463 kJ/mol
# Density = 2.054823 g / cm^3
# Si number density = 20.595104 Si / 1000 Ang^3
#
#
#
# Elastic Constant Matrix: (Units=GPa)
#
#
# Indices 1 2 3 4 5 6 
#
# 1 131.8017 41.5310 50.6291 0.0000 -8.2691 -0.0001
# 2 41.5310 77.8330 48.7334 -0.0001 -1.9043 -0.0001
# 3 50.6291 48.7334 131.8380 -0.0003 -2.0309 -0.0004
# 4 0.0000 -0.0001 -0.0003 24.5767 0.0001 1.0002
# 5 -8.2691 -1.9043 -2.0309 0.0001 16.5057 -0.0001
# 6 -0.0001 -0.0001 -0.0004 1.0002 -0.0001 26.8205
#
#
#
# Elastic Compliance Matrix: (Units=1/GPa)
#
#
# Indices 1 2 3 4 5 6 
#
# 1 0.009937 -0.003708 -0.002380 0.000000 0.004258 0.000000
# 2 -0.003708 0.018123 -0.005282 0.000000 -0.000417 0.000000
# 3 -0.002380 -0.005282 0.010443 0.000000 -0.000517 0.000000
# 4 0.000000 0.000000 0.000000 0.040751 0.000000 -0.001520
# 5 0.004258 -0.000417 -0.000517 0.000000 0.062606 0.000000
# 6 0.000000 0.000000 0.000000 -0.001520 0.000000 0.037342
#
#
# Mechanical properties :
#
#
# Convention : Reuss Voigt Hill
#
# Bulk Modulus (GPa) = 63.43298 69.25108 66.34203
# Shear Modulus (GPa) = 24.13172 26.95252 25.54212
#
# Velocity S-wave (km/s) = 3.42676 3.62150 3.52547
# Velocity P-wave (km/s) = 6.82083 7.15437 6.98959
#
# Compressibility (1/GPa) = 0.01576467
#
# Stress axis : x y z
#
# Youngs Moduli (GPa) = 100.63601 55.17724 95.75473
#
# Poissons Ratio (x) = 0.20460 0.22787
# Poissons Ratio (y) = 0.37316 0.50575
# Poissons Ratio (z) = 0.23949 0.29143
#
# Static dielectric constant tensor:
#      x y z
#    x 1.747780 0.000000 0.005870 
#    y 0.000000 1.879150 0.000000 
#    z 0.005870 0.000000 1.725670 
# 
# From -- ./inp_files/133210.got.cif
#   From: 2010.05.17/outbox.cif.g08.bks.cpg/sg15_67_cif.got.tgz:133210.got - 2010.06.03 18:47:42.
