data_PCOD9278722
_publ_section_title
;
Structure prediction by ZEFSAII (Michael W. Deem and Ramdas Pophale) SiO2 
 PCOD9278722
Probable space group: C 2/C
;
_chemical_formula_sum "Si O2"
_cell_formula_units_Z 32
_cell_length_a 8.407931
_cell_length_b 6.536558
_cell_length_c 32.201139
_cell_angle_alpha 90.000000
_cell_angle_beta 141.990155
_cell_angle_gamma 90.000000
_cell_volume 1089.800412
_symmetry_space_group_name_H-M "C 2/C"
_symmetry_group_IT_number 15
_symmetry_cell_setting 'monoclinic'
loop_
_space_group_symop_operation_xyz
x,y,z
-x,y,1/2-z
-x,-y,-z
x,-y,1/2+z
1/2+x,1/2+y,z
1/2-x,1/2+y,1/2-z
1/2-x,1/2-y,-z
1/2+x,1/2-y,1/2+z
loop_
_atom_site_type_symbol
_atom_site_label
_atom_site_fract_x
_atom_site_fract_y
_atom_site_fract_z
Si Si1 0.682636 0.791291 0.585411
Si Si2 0.543192 0.741964 0.042919
Si Si3 0.341843 0.010435 0.336216
Si Si4 0.940725 0.349349 0.692798
O O1 0.483298 0.690845 0.511472
O O2 0.207189 0.888261 0.610765
O O3 0.601508 0.818711 0.616940
O O4 0.958638 0.682873 0.632202
O O5 0.670217 0.968293 0.069803
O O6 0.250000 0.750000 0.000000
O O7 0.321043 0.122459 0.288546
O O8 0.111837 0.884494 0.308270
O O9 0.000000 0.447883 0.750000
#
# Coordination Sequence:
#
# PCOD9278722 Si02
#       4
#     8   8   8   8
#     4  10  21  43  71 110 136 184 235 293 350 407
#     4  10  20  44  75 105 144 183 236 294 349 421
#     4  11  26  46  71 103 142 185 236 293 348 422
#     4  11  27  49  70 105 142 190 233 291 354 425
#
# _framework density 29.363174999999998
#
# number of rings (size 3 to 8) (size 9 to 14) (size 15 to 20)
#    0.000    1.500    5.000    0.000    0.000   12.000 
#    0.000    1.250    0.000    0.000    0.000    0.000 
#    0.000    0.000    0.000    0.000    0.000    0.000 
#
# Total GULP energy -89179.175689 kJ/mol
# GULP energy per Si atom -5573.698481 kJ/mol
# Density = 2.929634 g / cm^3
# Si number density = 29.363175 Si / 1000 Ang^3
#
#
#
# Elastic Constant Matrix: (Units=GPa)
#
#
# Indices 1 2 3 4 5 6 
#
# 1 150.0504 87.1732 73.4342 0.0000 -22.6426 0.0000
# 2 87.1732 124.4781 39.2469 0.0000 -11.4781 0.0000
# 3 73.4342 39.2469 297.3548 0.0000 -64.5106 0.0000
# 4 0.0000 0.0000 0.0000 50.9117 0.0000 -7.6799
# 5 -22.6426 -11.4781 -64.5106 0.0000 78.7200 0.0000
# 6 0.0000 0.0000 0.0000 -7.6799 0.0000 83.3855
#
#
#
# Elastic Compliance Matrix: (Units=1/GPa)
#
#
# Indices 1 2 3 4 5 6 
#
# 1 0.012309 -0.007972 -0.001790 0.000000 0.000911 0.000000
# 2 -0.007972 0.013555 0.000135 0.000000 -0.000206 0.000000
# 3 -0.001790 0.000135 0.004475 0.000000 0.003172 0.000000
# 4 0.000000 0.000000 0.000000 0.019919 0.000000 0.001835
# 5 0.000911 -0.000206 0.003172 0.000000 0.015535 0.000000
# 6 0.000000 0.000000 0.000000 0.001835 0.000000 0.012161
#
#
# Mechanical properties :
#
#
# Convention : Reuss Voigt Hill
#
# Bulk Modulus (GPa) = 90.20585 107.95465 99.08025
# Shear Modulus (GPa) = 49.55209 67.40538 58.47874
#
# Velocity S-wave (km/s) = 4.11245 4.79641 4.46754
# Velocity P-wave (km/s) = 7.30322 8.21701 7.77356
#
# Compressibility (1/GPa) = 0.01108576
#
# Stress axis : x y z
#
# Youngs Moduli (GPa) = 81.23916 73.77458 223.43981
#
# Poissons Ratio (x) = 0.58813 0.39996
# Poissons Ratio (y) = 0.64763 -0.03016
# Poissons Ratio (z) = 0.14542 -0.00996
#
# Static dielectric constant tensor:
#      x y z
#    x 2.361790 0.000000 0.038720 
#    y 0.000000 2.356800 0.000000 
#    z 0.038720 0.000000 2.580050 
# 
# From -- ./inp_files/259785.got.cif
#   From: 2010.05.17/outbox.cif.g08.bks.cpg/sg15_130_cif.got.tgz:259785.got - 2010.06.03 18:47:42.
