data_PCOD9278632
_publ_section_title
;
Structure prediction by ZEFSAII (Michael W. Deem and Ramdas Pophale) SiO2 
 PCOD9278632
Probable space group: C 2/C
;
_chemical_formula_sum "Si O2"
_cell_formula_units_Z 44
_cell_length_a 7.469354
_cell_length_b 27.726411
_cell_length_c 15.859547
_cell_angle_alpha 90.000000
_cell_angle_beta 147.421634
_cell_angle_gamma 90.000000
_cell_volume 1768.540445
_symmetry_space_group_name_H-M "C 2/C"
_symmetry_group_IT_number 15
_symmetry_cell_setting 'monoclinic'
loop_
_space_group_symop_operation_xyz
x,y,z
-x,y,1/2-z
-x,-y,-z
x,-y,1/2+z
1/2+x,1/2+y,z
1/2-x,1/2+y,1/2-z
1/2-x,1/2-y,-z
1/2+x,1/2-y,1/2+z
loop_
_atom_site_type_symbol
_atom_site_label
_atom_site_fract_x
_atom_site_fract_y
_atom_site_fract_z
Si Si1 0.576234 0.891553 0.979670
Si Si2 0.500000 0.532566 0.750000
Si Si3 0.565655 0.727019 0.176572
Si Si4 0.365665 0.325896 0.290978
Si Si5 0.782165 0.955542 0.799870
Si Si6 0.168640 0.134552 0.474474
O O1 0.726604 0.931994 0.102474
O O2 0.855815 0.856499 0.050558
O O3 0.393965 0.919198 0.834130
O O4 0.316162 0.865836 0.937519
O O5 0.416168 0.498293 0.795389
O O6 0.500000 0.720980 0.250000
O O7 0.846028 0.768470 0.289050
O O8 0.607303 0.676596 0.143685
O O9 0.250000 0.750000 0.000000
O O10 0.500000 0.335657 0.250000
O O11 0.994785 0.347164 0.154440
O O12 0.500000 0.974259 0.750000
O O13 0.047827 0.919295 0.948430
#
# Coordination Sequence:
#
# PCOD9278632 Si02
#       6
#     8   4   8   8   8   8
#     4  11  21  44  71  91 130 186 224 271 344 406
#     4  12  24  46  72  90 136 180 228 282 346 390
#     4  10  21  37  62  94 133 176 219 277 333 398
#     4   9  20  39  68  97 128 180 230 262 336 407
#     4  12  27  41  66 103 132 174 227 280 342 403
#     4  10  20  44  66  91 136 180 221 274 340 403
#
# _framework density 24.879270999999999
#
# number of rings (size 3 to 8) (size 9 to 14) (size 15 to 20)
#    0.000    1.455    4.545    1.636    0.000    4.364 
#    0.000   13.636    0.000    0.000    0.000    0.000 
#    0.000    0.000    0.000    0.000    0.000    0.000 
#
# Total GULP energy -122911.089413 kJ/mol
# GULP energy per Si atom -5586.867701 kJ/mol
# Density = 2.482264 g / cm^3
# Si number density = 24.879271 Si / 1000 Ang^3
#
#
#
# Elastic Constant Matrix: (Units=GPa)
#
#
# Indices 1 2 3 4 5 6 
#
# 1 76.0351 36.9925 6.6946 0.0000 -0.7235 0.0000
# 2 36.9925 159.4633 25.4205 0.0000 23.6120 0.0000
# 3 6.6946 25.4205 62.4773 0.0001 2.6527 0.0005
# 4 0.0000 0.0000 0.0001 39.8246 0.0000 34.1277
# 5 -0.7235 23.6120 2.6527 0.0000 34.8606 0.0001
# 6 0.0000 0.0000 0.0005 34.1277 0.0001 279.6810
#
#
#
# Elastic Compliance Matrix: (Units=1/GPa)
#
#
# Indices 1 2 3 4 5 6 
#
# 1 0.015101 -0.003921 -0.000149 0.000000 0.002980 0.000000
# 2 -0.003921 0.008452 -0.002781 0.000000 -0.005595 0.000000
# 3 -0.000149 -0.002781 0.017129 0.000000 0.000577 0.000000
# 4 0.000000 0.000000 0.000000 0.028042 0.000000 -0.003422
# 5 0.002980 -0.005595 0.000577 0.000000 0.032493 0.000000
# 6 0.000000 0.000000 0.000000 -0.003422 0.000000 0.003993
#
#
# Mechanical properties :
#
#
# Convention : Reuss Voigt Hill
#
# Bulk Modulus (GPa) = 37.06547 48.46564 42.76556
# Shear Modulus (GPa) = 39.09101 86.13111 62.61106
#
# Velocity S-wave (km/s) = 3.96817 5.89023 5.02201
# Velocity P-wave (km/s) = 5.99380 8.11063 7.13120
#
# Compressibility (1/GPa) = 0.02697928
#
# Stress axis : x y z
#
# Youngs Moduli (GPa) = 66.22181 118.31030 58.38053
#
# Poissons Ratio (x) = 0.46384 0.00872
# Poissons Ratio (y) = 0.25963 0.16238
# Poissons Ratio (z) = 0.00990 0.32907
#
# Static dielectric constant tensor:
#      x y z
#    x 1.943070 0.000000 -0.000480 
#    y 0.000000 1.977360 0.000000 
#    z -0.000480 0.000000 2.040830 
# 
# From -- ./inp_files/194135.got.cif
#   From: 2010.05.17/outbox.cif.g08.bks.cpg/sg15_98_cif.got.tgz:194135.got - 2010.06.03 18:47:42.
