data_PCOD9278341
_publ_section_title
;
Structure prediction by ZEFSAII (Michael W. Deem and Ramdas Pophale) SiO2 
 PCOD9278341
Probable space group: C 2/C
;
_chemical_formula_sum "Si O2"
_cell_formula_units_Z 44
_cell_length_a 7.828897
_cell_length_b 17.412803
_cell_length_c 14.870462
_cell_angle_alpha 90.000000
_cell_angle_beta 111.454850
_cell_angle_gamma 90.000000
_cell_volume 1886.714913
_symmetry_space_group_name_H-M "C 2/C"
_symmetry_group_IT_number 15
_symmetry_cell_setting 'monoclinic'
loop_
_space_group_symop_operation_xyz
x,y,z
-x,y,1/2-z
-x,-y,-z
x,-y,1/2+z
1/2+x,1/2+y,z
1/2-x,1/2+y,1/2-z
1/2-x,1/2-y,-z
1/2+x,1/2-y,1/2+z
loop_
_atom_site_type_symbol
_atom_site_label
_atom_site_fract_x
_atom_site_fract_y
_atom_site_fract_z
Si Si1 0.506779 0.072680 0.887387
Si Si2 0.240963 0.292459 0.402035
Si Si3 0.306520 0.666092 0.256354
Si Si4 0.000000 0.450744 0.750000
Si Si5 0.776851 0.002900 0.561527
Si Si6 0.560810 0.386875 0.541284
O O1 0.554874 0.157174 0.864286
O O2 0.299162 0.044848 0.864309
O O3 0.591458 0.011524 0.834778
O O4 0.620296 0.058165 0.001131
O O5 0.250000 0.250000 0.500000
O O6 0.252135 0.236634 0.318759
O O7 0.410217 0.350816 0.445617
O O8 0.500000 0.641061 0.250000
O O9 0.354878 0.673767 0.371906
O O10 0.145697 0.603289 0.228135
O O11 0.794229 0.072948 0.495017
O O12 0.960777 0.953298 0.582199
#
# Coordination Sequence:
#
# PCOD9278341 Si02
#       6
#     8   8   8   4   8   8
#     4  10  22  40  68 100 135 177 237 304 345 432
#     4  11  25  42  65 100 146 191 234 286 372 434
#     4  12  25  45  69 100 146 189 235 302 362 423
#     4  12  26  44  72 110 134 184 258 294 354 428
#     4   9  19  40  72 100 126 173 242 302 358 412
#     4  10  20  42  70  99 136 185 234 299 364 423
#
# _framework density 23.320958999999998
#
# number of rings (size 3 to 8) (size 9 to 14) (size 15 to 20)
#    0.000    1.455    3.636    1.091    6.364    0.000 
#    3.273    1.818    0.000    0.000    0.000    0.000 
#    0.000    0.000    0.000    0.000    0.000    0.000 
#
# Total GULP energy -122644.075410 kJ/mol
# GULP energy per Si atom -5574.730700 kJ/mol
# Density = 2.326788 g / cm^3
# Si number density = 23.320959 Si / 1000 Ang^3
#
#
#
# Elastic Constant Matrix: (Units=GPa)
#
#
# Indices 1 2 3 4 5 6 
#
# 1 69.0204 49.7653 18.7742 0.0000 -6.2488 0.0000
# 2 49.7653 136.7518 59.9137 0.0000 -16.9449 0.0000
# 3 18.7742 59.9137 100.1112 0.0000 -9.5531 0.0000
# 4 0.0000 0.0000 0.0000 42.7898 0.0000 -16.5874
# 5 -6.2488 -16.9449 -9.5531 0.0000 21.5899 0.0000
# 6 0.0000 0.0000 0.0000 -16.5874 0.0000 21.1025
#
#
#
# Elastic Compliance Matrix: (Units=1/GPa)
#
#
# Indices 1 2 3 4 5 6 
#
# 1 0.019691 -0.007500 0.000812 0.000000 0.000172 0.000000
# 2 -0.007500 0.013406 -0.006076 0.000000 0.005662 0.000000
# 3 0.000812 -0.006076 0.013615 0.000000 0.001491 0.000000
# 4 0.000000 0.000000 0.000000 0.033612 0.000000 0.026420
# 5 0.000172 0.005662 0.001491 0.000000 0.051471 0.000000
# 6 0.000000 0.000000 0.000000 0.026420 0.000000 0.068155
#
#
# Mechanical properties :
#
#
# Convention : Reuss Voigt Hill
#
# Bulk Modulus (GPa) = 47.20576 62.53219 54.86898
# Shear Modulus (GPa) = 21.50176 28.92512 25.21344
#
# Velocity S-wave (km/s) = 3.03973 3.52562 3.29165
# Velocity P-wave (km/s) = 5.71014 6.59130 6.16648
#
# Compressibility (1/GPa) = 0.02118385
#
# Stress axis : x y z
#
# Youngs Moduli (GPa) = 50.78458 74.59571 73.44794
#
# Poissons Ratio (x) = 0.55950 -0.05967
# Poissons Ratio (y) = 0.38090 0.44627
# Poissons Ratio (z) = -0.04126 0.45324
#
# Static dielectric constant tensor:
#      x y z
#    x 1.919930 0.000000 0.049320 
#    y 0.000000 1.909480 0.000000 
#    z 0.049320 0.000000 2.069370 
# 
# From -- ./inp_files/134581.got.cif
#   From: 2010.05.17/outbox.cif.g08.bks.cpg/sg15_68_cif.got.tgz:134581.got - 2010.06.03 18:47:42.
