data_PCOD9278713
_publ_section_title
;
Structure prediction by ZEFSAII (Michael W. Deem and Ramdas Pophale) SiO2 
 PCOD9278713
Probable space group: C 2/C
;
_chemical_formula_sum "Si O2"
_cell_formula_units_Z 36
_cell_length_a 4.715223
_cell_length_b 29.963798
_cell_length_c 11.967786
_cell_angle_alpha 90.000000
_cell_angle_beta 66.796752
_cell_angle_gamma 90.000000
_cell_volume 1554.110247
_symmetry_space_group_name_H-M "C 2/C"
_symmetry_group_IT_number 15
_symmetry_cell_setting 'monoclinic'
loop_
_space_group_symop_operation_xyz
x,y,z
-x,y,1/2-z
-x,-y,-z
x,-y,1/2+z
1/2+x,1/2+y,z
1/2-x,1/2+y,1/2-z
1/2-x,1/2-y,-z
1/2+x,1/2-y,1/2+z
loop_
_atom_site_type_symbol
_atom_site_label
_atom_site_fract_x
_atom_site_fract_y
_atom_site_fract_z
Si Si1 0.186416 0.109112 0.869285
Si Si2 0.000000 0.532195 0.250000
Si Si3 0.075013 0.890888 0.869285
Si Si4 0.500000 0.750000 0.250000
Si Si5 0.000000 0.313185 0.750000
Si Si6 0.000000 0.813185 0.250000
Si Si7 0.000000 0.032195 0.750000
O O1 0.500000 0.107814 0.750000
O O2 0.007868 0.065443 0.853833
O O3 0.022234 0.154071 0.852116
O O4 0.200797 0.108986 1.000000
O O5 0.215533 0.565443 0.146167
O O6 0.207522 0.500000 0.292478
O O7 0.273532 0.845928 0.852116
O O8 0.000000 0.892186 0.750000
O O9 0.209294 0.715843 0.303520
O O10 0.316332 0.784157 0.196481
#
# Coordination Sequence:
#
# PCOD9278713 Si02
#       7
#     8   4   8   4   4   4   4
#     4  11  25  46  74 104 145 188 232 288 355 421
#     4  11  24  48  68 107 138 185 238 296 344 409
#     4  11  25  46  74 104 145 188 232 288 355 421
#     4  10  20  44  74 100 142 180 238 292 346 414
#     4  10  22  45  70 101 142 187 232 287 352 414
#     4  10  22  45  70 101 142 187 232 287 352 414
#     4  11  24  48  68 107 138 185 238 296 344 409
#
# _framework density 23.164382
#
# number of rings (size 3 to 8) (size 9 to 14) (size 15 to 20)
#    0.000    1.333    4.444    0.000    0.000    8.889 
#    0.000    6.667    0.000    0.000    0.000    0.000 
#    0.000    0.000    0.000    0.000    0.000    0.000 
#
# Total GULP energy -100322.298153 kJ/mol
# GULP energy per Si atom -5573.461009 kJ/mol
# Density = 2.311166 g / cm^3
# Si number density = 23.164382 Si / 1000 Ang^3
#
#
#
# Elastic Constant Matrix: (Units=GPa)
#
#
# Indices 1 2 3 4 5 6 
#
# 1 153.3015 72.1931 44.5114 0.0000 -0.0003 0.0000
# 2 72.1931 156.9136 31.0886 0.0000 -0.0003 0.0000
# 3 44.5114 31.0886 161.7912 0.0000 -0.0001 0.0000
# 4 0.0000 0.0000 0.0000 -9.6480 0.0000 -0.0001
# 5 -0.0003 -0.0003 -0.0001 0.0000 21.9825 0.0000
# 6 0.0000 0.0000 0.0000 -0.0001 0.0000 84.5373
#
#
#
# Elastic Compliance Matrix: (Units=1/GPa)
#
#
# Indices 1 2 3 4 5 6 
#
# 1 0.008755 -0.003691 -0.001699 0.000000 0.000000 0.000000
# 2 -0.003691 0.008181 -0.000557 0.000000 0.000000 0.000000
# 3 -0.001699 -0.000557 0.006755 0.000000 0.000000 0.000000
# 4 0.000000 0.000000 0.000000 -0.103648 0.000000 0.000000
# 5 0.000000 0.000000 0.000000 0.000000 0.045491 0.000000
# 6 0.000000 0.000000 0.000000 0.000000 0.000000 0.011829
#
#
# Mechanical properties :
#
#
# Convention : Reuss Voigt Hill
#
# Bulk Modulus (GPa) = 84.76526 85.28807 85.02666
# Shear Modulus (GPa) = -734.21141 40.98856 -346.61142
#
# Velocity S-wave (km/s) = -17.82260 4.21106 -12.24565
# Velocity P-wave (km/s) = 19.66862 7.78092 12.77325
#
# Compressibility (1/GPa) = 0.01179729
#
# Stress axis : x y z
#
# Youngs Moduli (GPa) = 114.22339 122.22732 148.03285
#
# Poissons Ratio (x) = 0.45117 0.25155
# Poissons Ratio (y) = 0.42163 0.08239
# Poissons Ratio (z) = 0.19410 0.06803
#
# Static dielectric constant tensor:
#      x y z
#    x 1.962540 0.000000 0.000000 
#    y 0.000000 1.919170 0.000000 
#    z 0.000000 0.000000 1.837950 
# 
# From -- ./inp_files/73577.got.cif
#   From: 2010.05.17/outbox.cif.g08.bks.cpg/sg15_37_cif.got.tgz:73577.got - 2010.06.03 18:47:42.
