data_PCOD9278518
_publ_section_title
;
Structure prediction by ZEFSAII (Michael W. Deem and Ramdas Pophale) SiO2 
 PCOD9278518
Probable space group: C 2/C
;
_chemical_formula_sum "Si O2"
_cell_formula_units_Z 56
_cell_length_a 27.101931
_cell_length_b 10.624839
_cell_length_c 8.448160
_cell_angle_alpha 90.000000
_cell_angle_beta 65.949147
_cell_angle_gamma 90.000000
_cell_volume 2221.483355
_symmetry_space_group_name_H-M "C 2/C"
_symmetry_group_IT_number 15
_symmetry_cell_setting 'monoclinic'
loop_
_space_group_symop_operation_xyz
x,y,z
-x,y,1/2-z
-x,-y,-z
x,-y,1/2+z
1/2+x,1/2+y,z
1/2-x,1/2+y,1/2-z
1/2-x,1/2-y,-z
1/2+x,1/2-y,1/2+z
loop_
_atom_site_type_symbol
_atom_site_label
_atom_site_fract_x
_atom_site_fract_y
_atom_site_fract_z
Si Si1 0.923476 0.823548 0.615036
Si Si2 0.654315 0.898546 0.278557
Si Si3 0.166381 0.026193 0.102736
Si Si4 0.000000 0.667185 0.750000
Si Si5 0.500000 0.281316 0.250000
Si Si6 0.170547 0.192536 0.788730
Si Si7 0.222814 0.596759 0.380300
Si Si8 0.573674 0.120594 0.383827
O O1 0.879165 0.720217 0.616831
O O2 0.889474 0.931758 0.743490
O O3 0.960909 0.754081 0.695508
O O4 0.962418 0.859327 0.419290
O O5 0.695292 0.971310 0.342487
O O6 0.609057 0.001617 0.289420
O O7 0.686700 0.863479 0.078264
O O8 0.217948 0.077263 0.131556
O O9 0.171052 0.876821 0.120379
O O10 0.170367 0.086145 0.924850
O O11 0.035466 0.587792 0.581364
O O12 0.538080 0.189063 0.300387
O O13 0.217951 0.292018 0.759221
O O14 0.116875 0.274559 0.880286
#
# Coordination Sequence:
#
# PCOD9278518 Si02
#       8
#     8   8   8   4   4   8   8   8
#     4  11  23  41  68  98 140 177 233 279 343 400
#     4  11  22  42  70 105 140 178 216 286 346 418
#     4  12  25  44  72  95 137 188 228 278 338 405
#     4  10  20  43  69  96 138 188 225 283 338 404
#     4  10  24  39  63 102 134 174 231 287 340 404
#     4  11  25  46  66  99 134 181 228 283 330 412
#     4  11  24  44  69 103 142 176 223 279 345 411
#     4  10  22  42  65  99 141 174 228 281 343 403
#
# _framework density 25.208380999999999
#
# number of rings (size 3 to 8) (size 9 to 14) (size 15 to 20)
#    0.000    1.143    2.857    3.000    4.000    3.429 
#    0.000    6.429    0.000    0.000    0.000    0.000 
#    0.000    0.000    0.000    0.000    0.000    0.000 
#
# Total GULP energy -157023.610077 kJ/mol
# GULP energy per Si atom -5607.986074 kJ/mol
# Density = 2.515101 g / cm^3
# Si number density = 25.208381 Si / 1000 Ang^3
#
#
#
# Elastic Constant Matrix: (Units=GPa)
#
#
# Indices 1 2 3 4 5 6 
#
# 1 112.4273 18.6557 36.3103 0.0000 2.9900 0.0000
# 2 18.6557 57.1497 16.5874 0.0000 1.6487 0.0000
# 3 36.3103 16.5874 93.4189 0.0000 -18.9341 0.0000
# 4 0.0000 0.0000 0.0000 17.9474 0.0000 18.5459
# 5 2.9900 1.6487 -18.9341 0.0000 39.2340 0.0000
# 6 0.0000 0.0000 0.0000 18.5459 0.0000 23.7964
#
#
#
# Elastic Compliance Matrix: (Units=1/GPa)
#
#
# Indices 1 2 3 4 5 6 
#
# 1 0.010738 -0.002156 -0.004365 0.000000 -0.002834 0.000000
# 2 -0.002156 0.019126 -0.002979 0.000000 -0.002077 0.000000
# 3 -0.004365 -0.002979 0.014435 0.000000 0.007424 0.000000
# 4 0.000000 0.000000 0.000000 0.286247 0.000000 -0.223088
# 5 -0.002834 -0.002077 0.007424 0.000000 0.029374 0.000000
# 6 0.000000 0.000000 0.000000 -0.223088 0.000000 0.215888
#
#
# Mechanical properties :
#
#
# Convention : Reuss Voigt Hill
#
# Bulk Modulus (GPa) = 39.52887 45.12250 42.32568
# Shear Modulus (GPa) = 8.28856 28.95839 18.62347
#
# Velocity S-wave (km/s) = 1.81526 3.39301 2.72100
# Velocity P-wave (km/s) = 4.48424 5.76964 5.16707
#
# Compressibility (1/GPa) = 0.02529797
#
# Stress axis : x y z
#
# Youngs Moduli (GPa) = 93.13061 52.28384 69.27750
#
# Poissons Ratio (x) = 0.11275 0.30240
# Poissons Ratio (y) = 0.20083 0.20637
# Poissons Ratio (z) = 0.40652 0.15575
#
# Static dielectric constant tensor:
#      x y z
#    x 1.969020 0.000000 0.014490 
#    y 0.000000 1.970920 0.000000 
#    z 0.014490 0.000000 1.966520 
# 
# From -- ./inp_files/65581.got.cif
#   From: 2010.05.17/outbox.cif.g08.bks.cpg/sg15_33_cif.got.tgz:65581.got - 2010.06.03 18:47:42.
