data_PCOD9278080
_publ_section_title
;
Structure prediction by ZEFSAII (Michael W. Deem and Ramdas Pophale) SiO2 
 PCOD9278080
Probable space group: C 2/C
;
_chemical_formula_sum "Si O2"
_cell_formula_units_Z 40
_cell_length_a 13.081545
_cell_length_b 7.427843
_cell_length_c 17.975466
_cell_angle_alpha 90.000000
_cell_angle_beta 70.945091
_cell_angle_gamma 90.000000
_cell_volume 1650.929185
_symmetry_space_group_name_H-M "C 2/C"
_symmetry_group_IT_number 15
_symmetry_cell_setting 'monoclinic'
loop_
_space_group_symop_operation_xyz
x,y,z
-x,y,1/2-z
-x,-y,-z
x,-y,1/2+z
1/2+x,1/2+y,z
1/2-x,1/2+y,1/2-z
1/2-x,1/2-y,-z
1/2+x,1/2-y,1/2+z
loop_
_atom_site_type_symbol
_atom_site_label
_atom_site_fract_x
_atom_site_fract_y
_atom_site_fract_z
Si Si1 0.818687 0.537919 0.645361
Si Si2 0.000000 0.071622 0.750000
Si Si3 0.425863 0.024592 0.920998
Si Si4 0.175957 0.636400 0.201977
Si Si5 0.362029 0.590577 0.409496
Si Si6 0.750000 0.750000 0.500000
O O1 0.796422 0.493988 0.737706
O O2 0.771273 0.742157 0.641169
O O3 0.741985 0.399040 0.620224
O O4 0.945716 0.512011 0.604204
O O5 0.903786 0.206540 0.751060
O O6 0.959675 0.957251 0.829473
O O7 0.388849 0.227270 0.944186
O O8 0.386639 0.972286 0.846745
O O9 0.354828 0.886414 0.984043
O O10 0.333382 0.422675 0.467543
#
# Coordination Sequence:
#
# PCOD9278080 Si02
#       6
#     8   4   8   8   8   4
#     4  11  23  41  69 105 139 182 235 288 357 418
#     4  10  20  42  66 102 140 174 226 306 344 402
#     4  12  25  46  70 100 143 189 229 299 347 420
#     4  11  21  40  66 106 143 172 233 294 350 418
#     4  11  26  44  73 104 140 187 240 288 360 421
#     4  12  24  54  68 100 154 184 242 292 344 432
#
# _framework density 24.228777999999998
#
# number of rings (size 3 to 8) (size 9 to 14) (size 15 to 20)
#    0.000    0.800    6.000    1.800    8.400    0.800 
#    3.600    2.000    0.000    0.000    0.000    0.000 
#    0.000    0.000    0.000    0.000    0.000    0.000 
#
# Total GULP energy -111481.714074 kJ/mol
# GULP energy per Si atom -5574.085704 kJ/mol
# Density = 2.417363 g / cm^3
# Si number density = 24.228778 Si / 1000 Ang^3
#
#
#
# Elastic Constant Matrix: (Units=GPa)
#
#
# Indices 1 2 3 4 5 6 
#
# 1 94.7757 43.5128 40.6804 0.0000 -32.9303 0.0000
# 2 43.5128 161.2112 47.4005 0.0000 -31.8656 0.0000
# 3 40.6804 47.4005 58.4361 0.0000 -35.5062 0.0000
# 4 0.0000 0.0000 0.0000 -5.2321 0.0000 -20.5908
# 5 -32.9303 -31.8656 -35.5062 0.0000 47.6482 0.0000
# 6 0.0000 0.0000 0.0000 -20.5908 0.0000 7.0518
#
#
#
# Elastic Compliance Matrix: (Units=1/GPa)
#
#
# Indices 1 2 3 4 5 6 
#
# 1 0.015842 -0.001236 -0.007082 0.000000 0.004844 0.000000
# 2 -0.001236 0.008266 -0.005491 0.000000 0.000582 0.000000
# 3 -0.007082 -0.005491 0.038908 0.000000 0.020427 0.000000
# 4 0.000000 0.000000 0.000000 -0.015301 0.000000 -0.044677
# 5 0.004844 0.000582 0.020427 0.000000 0.039946 0.000000
# 6 0.000000 0.000000 0.000000 -0.044677 0.000000 0.011352
#
#
# Mechanical properties :
#
#
# Convention : Reuss Voigt Hill
#
# Bulk Modulus (GPa) = 28.25000 64.17892 46.21446
# Shear Modulus (GPa) = 36.11882 22.08220 29.10051
#
# Velocity S-wave (km/s) = 3.86520 3.02222 3.46941
# Velocity P-wave (km/s) = 5.62180 6.22291 5.92998
#
# Compressibility (1/GPa) = 0.03539823
#
# Stress axis : x y z
#
# Youngs Moduli (GPa) = 63.12417 120.97425 25.70133
#
# Poissons Ratio (x) = 0.14952 0.18202
# Poissons Ratio (y) = 0.07802 0.14112
# Poissons Ratio (z) = 0.44706 0.66426
#
# Static dielectric constant tensor:
#      x y z
#    x 1.874050 0.000000 -0.039870 
#    y 0.000000 1.874010 0.000000 
#    z -0.039870 0.000000 1.856910 
# 
# From -- ./inp_files/235742.got.cif
#   From: 2010.05.17/outbox.cif.g08.bks.cpg/sg15_118_cif.got.tgz:235742.got - 2010.06.03 18:47:42.
