data_PCOD9278594
_publ_section_title
;
Structure prediction by ZEFSAII (Michael W. Deem and Ramdas Pophale) SiO2 
 PCOD9278594
Probable space group: C 2/C
;
_chemical_formula_sum "Si O2"
_cell_formula_units_Z 44
_cell_length_a 12.944525
_cell_length_b 10.669454
_cell_length_c 29.412813
_cell_angle_alpha 90.000000
_cell_angle_beta 26.821641
_cell_angle_gamma 90.000000
_cell_volume 1832.939211
_symmetry_space_group_name_H-M "C 2/C"
_symmetry_group_IT_number 15
_symmetry_cell_setting 'monoclinic'
loop_
_space_group_symop_operation_xyz
x,y,z
-x,y,1/2-z
-x,-y,-z
x,-y,1/2+z
1/2+x,1/2+y,z
1/2-x,1/2+y,1/2-z
1/2-x,1/2-y,-z
1/2+x,1/2-y,1/2+z
loop_
_atom_site_type_symbol
_atom_site_label
_atom_site_fract_x
_atom_site_fract_y
_atom_site_fract_z
Si Si1 0.331185 0.651151 0.117948
Si Si2 0.500000 0.941409 0.250000
Si Si3 0.848389 0.916986 0.713916
Si Si4 0.811256 0.712795 0.890549
Si Si5 0.168193 0.896947 0.128226
Si Si6 0.391826 0.886232 0.601580
O O1 0.278180 0.631558 0.192095
O O2 0.210729 0.766552 0.138650
O O3 0.215039 0.522848 0.148257
O O4 0.603019 0.660473 0.002085
O O5 0.475045 0.866564 0.212351
O O6 0.657172 0.884783 0.826238
O O7 0.078793 0.834613 0.630408
O O8 0.934733 0.055645 0.696224
O O9 0.698308 0.761742 0.887946
O O10 0.250539 0.999954 0.133360
O O11 0.349956 0.900285 0.015778
#
# Coordination Sequence:
#
# PCOD9278594 Si02
#       6
#     8   4   8   8   8   8
#     4  11  26  38  63 101 130 167 218 280 333 391
#     4  12  24  42  60  86 128 178 206 268 342 388
#     4  11  21  40  70  95 123 176 220 272 331 408
#     4  10  20  44  64  85 128 175 216 260 337 405
#     4   9  20  39  62  97 131 165 220 279 332 391
#     4   9  18  37  68  92 121 174 215 267 336 398
#
# _framework density 24.005158999999999
#
# number of rings (size 3 to 8) (size 9 to 14) (size 15 to 20)
#    0.000    1.818    1.818    3.818    2.545    2.909 
#    0.000    0.000    0.000    5.455    0.000    0.000 
#    0.000    0.000    0.000    0.000    0.000    0.000 
#
# Total GULP energy -122568.180457 kJ/mol
# GULP energy per Si atom -5571.280930 kJ/mol
# Density = 2.395052 g / cm^3
# Si number density = 24.005159 Si / 1000 Ang^3
#
#
#
# Elastic Constant Matrix: (Units=GPa)
#
#
# Indices 1 2 3 4 5 6 
#
# 1 77.8803 21.9859 39.0090 0.0019 31.0122 0.0000
# 2 21.9859 83.2589 19.7787 0.0018 10.0759 0.0005
# 3 39.0090 19.7787 164.7803 -0.0024 36.7081 -0.0015
# 4 0.0019 0.0018 -0.0024 35.2243 0.0007 5.9030
# 5 31.0122 10.0759 36.7081 0.0007 38.7815 0.0004
# 6 0.0000 0.0005 -0.0015 5.9030 0.0004 -1.7748
#
#
#
# Elastic Compliance Matrix: (Units=1/GPa)
#
#
# Indices 1 2 3 4 5 6 
#
# 1 0.019923 -0.003286 -0.001220 0.000000 -0.013923 -0.000004
# 2 -0.003286 0.013068 -0.000785 -0.000001 -0.000024 0.000001
# 3 -0.001220 -0.000785 0.007843 0.000001 -0.006243 -0.000004
# 4 0.000000 -0.000001 0.000001 0.018229 -0.000002 0.060630
# 5 -0.013923 -0.000024 -0.006243 -0.000002 0.042835 0.000009
# 6 -0.000004 0.000001 -0.000004 0.060630 0.000009 -0.361789
#
#
# Mechanical properties :
#
#
# Convention : Reuss Voigt Hill
#
# Bulk Modulus (GPa) = 33.05753 54.16294 43.61023
# Shear Modulus (GPa) = -20.90093 30.78927 4.94417
#
# Velocity S-wave (km/s) = -2.95394 3.58524 1.43670
# Velocity P-wave (km/s) = 1.47193 6.30481 4.57806
#
# Compressibility (1/GPa) = 0.03025030
#
# Stress axis : x y z
#
# Youngs Moduli (GPa) = 50.19211 76.52301 127.50691
#
# Poissons Ratio (x) = 0.25147 0.15562
# Poissons Ratio (y) = 0.16494 0.10012
# Poissons Ratio (z) = 0.06126 0.06009
#
# Static dielectric constant tensor:
#      x y z
#    x 1.979710 0.000000 -0.011410 
#    y 0.000000 2.103180 0.000000 
#    z -0.011410 0.000000 1.901770 
# 
# From -- ./inp_files/273580.got.cif
#   From: 2010.05.17/outbox.cif.g08.bks.cpg/sg15_137_cif.got.tgz:273580.got - 2010.06.03 18:47:42.
