data_PCOD9278019
_publ_section_title
;
Structure prediction by ZEFSAII (Michael W. Deem and Ramdas Pophale) SiO2 
 PCOD9278019
Probable space group: C 2/C
;
_chemical_formula_sum "Si O2"
_cell_formula_units_Z 56
_cell_length_a 9.584389
_cell_length_b 15.099564
_cell_length_c 28.144686
_cell_angle_alpha 90.000000
_cell_angle_beta 143.069054
_cell_angle_gamma 90.000000
_cell_volume 2447.331488
_symmetry_space_group_name_H-M "C 2/C"
_symmetry_group_IT_number 15
_symmetry_cell_setting 'monoclinic'
loop_
_space_group_symop_operation_xyz
x,y,z
-x,y,1/2-z
-x,-y,-z
x,-y,1/2+z
1/2+x,1/2+y,z
1/2-x,1/2+y,1/2-z
1/2-x,1/2-y,-z
1/2+x,1/2-y,1/2+z
loop_
_atom_site_type_symbol
_atom_site_label
_atom_site_fract_x
_atom_site_fract_y
_atom_site_fract_z
Si Si1 0.752653 0.449264 0.797952
Si Si2 0.265627 0.286124 0.635882
Si Si3 0.756432 0.009644 0.963585
Si Si4 0.744098 0.252380 0.620518
Si Si5 0.939433 0.402871 0.005287
Si Si6 0.886892 0.828755 0.013137
Si Si7 0.768075 0.805828 0.776107
O O1 0.500000 0.484097 0.750000
O O2 0.787450 0.358534 0.838211
O O3 0.730518 0.409952 0.738603
O O4 0.996813 0.502426 0.869000
O O5 0.181491 0.340548 0.566395
O O6 0.533302 0.266348 0.702566
O O7 0.141592 0.191836 0.600480
O O8 0.780457 0.919530 0.000079
O O9 0.728350 0.085594 0.994703
O O10 0.000000 0.000000 0.000000
O O11 0.658525 0.153791 0.584369
O O12 0.646527 0.315091 0.552149
O O13 0.673558 0.284612 0.653601
O O14 0.020687 0.263698 0.696845
O O15 0.000000 0.500000 0.000000
O O16 0.750000 0.750000 0.000000
#
# Coordination Sequence:
#
# PCOD9278019 Si02
#       7
#     8   8   8   8   8   8   8
#     4  10  20  42  64  93 124 182 224 265 333 415
#     4  10  21  37  70  93 122 177 232 270 325 405
#     4  12  25  38  63 101 138 168 215 288 344 393
#     4  10  22  38  65  93 126 169 226 279 329 394
#     4  11  23  42  63  99 137 178 223 277 349 411
#     4  11  20  40  64  90 127 170 225 268 323 395
#     4  10  21  38  63  96 125 163 233 280 321 393
#
# _framework density 22.882066999999999
#
# number of rings (size 3 to 8) (size 9 to 14) (size 15 to 20)
#    0.000    1.429    4.286    0.857    4.000    1.143 
#    2.571    0.000    0.000    0.000    0.000    0.000 
#    0.000    0.000    0.000    0.000    0.000    0.000 
#
# Total GULP energy -156070.933800 kJ/mol
# GULP energy per Si atom -5573.961921 kJ/mol
# Density = 2.282999 g / cm^3
# Si number density = 22.882067 Si / 1000 Ang^3
#
#
#
# Elastic Constant Matrix: (Units=GPa)
#
#
# Indices 1 2 3 4 5 6 
#
# 1 119.9857 17.3329 33.9767 0.0000 9.3135 0.0000
# 2 17.3329 48.9907 8.2730 0.0000 5.3617 0.0000
# 3 33.9767 8.2730 66.3391 -0.0001 15.8013 0.0000
# 4 0.0000 0.0000 -0.0001 34.5021 0.0000 5.4032
# 5 9.3135 5.3617 15.8013 0.0000 49.1194 0.0000
# 6 0.0000 0.0000 0.0000 5.4032 0.0000 28.4161
#
#
#
# Elastic Compliance Matrix: (Units=1/GPa)
#
#
# Indices 1 2 3 4 5 6 
#
# 1 0.010100 -0.002753 -0.004814 0.000000 -0.000066 0.000000
# 2 -0.002753 0.021713 -0.000929 0.000000 -0.001549 0.000000
# 3 -0.004814 -0.000929 0.018859 0.000000 -0.005053 0.000000
# 4 0.000000 0.000000 0.000000 0.029873 0.000000 -0.005680
# 5 -0.000066 -0.001549 -0.005053 0.000000 0.022166 0.000000
# 6 0.000000 0.000000 0.000000 -0.005680 0.000000 0.036271
#
#
# Mechanical properties :
#
#
# Convention : Reuss Voigt Hill
#
# Bulk Modulus (GPa) = 29.69116 39.38676 34.53896
# Shear Modulus (GPa) = 29.90419 34.12304 32.01362
#
# Velocity S-wave (km/s) = 3.61901 3.86587 3.74447
# Velocity P-wave (km/s) = 5.51968 6.09729 5.81566
#
# Compressibility (1/GPa) = 0.03368006
#
# Stress axis : x y z
#
# Youngs Moduli (GPa) = 99.00610 46.05638 53.02529
#
# Poissons Ratio (x) = 0.12681 0.25526
# Poissons Ratio (y) = 0.27260 0.04923
# Poissons Ratio (z) = 0.47662 0.04276
#
# Static dielectric constant tensor:
#      x y z
#    x 2.075220 0.000000 0.168640 
#    y 0.000000 2.143480 0.000000 
#    z 0.168640 0.000000 2.261100 
# 
# From -- ./inp_files/308636.got.cif
#   From: 2010.05.17/outbox.cif.g08.bks.cpg/sg15_155_cif.got.tgz:308636.got - 2010.06.03 18:47:42.
