data_PCOD9278372
_publ_section_title
;
Structure prediction by ZEFSAII (Michael W. Deem and Ramdas Pophale) SiO2 
 PCOD9278372
Probable space group: C 2/C
;
_chemical_formula_sum "Si O2"
_cell_formula_units_Z 44
_cell_length_a 7.330877
_cell_length_b 13.028468
_cell_length_c 23.129218
_cell_angle_alpha 90.000000
_cell_angle_beta 53.392852
_cell_angle_gamma 90.000000
_cell_volume 1773.318753
_symmetry_space_group_name_H-M "C 2/C"
_symmetry_group_IT_number 15
_symmetry_cell_setting 'monoclinic'
loop_
_space_group_symop_operation_xyz
x,y,z
-x,y,1/2-z
-x,-y,-z
x,-y,1/2+z
1/2+x,1/2+y,z
1/2-x,1/2+y,1/2-z
1/2-x,1/2-y,-z
1/2+x,1/2-y,1/2+z
loop_
_atom_site_type_symbol
_atom_site_label
_atom_site_fract_x
_atom_site_fract_y
_atom_site_fract_z
Si Si1 0.512796 0.151902 0.930211
Si Si2 0.702862 0.520180 0.879652
Si Si3 0.121015 0.988057 0.666917
Si Si4 0.048165 0.772371 0.802927
Si Si5 0.000000 0.401552 0.750000
Si Si6 0.490262 0.348660 0.994416
O O1 0.658037 0.050177 0.894757
O O2 0.523894 0.205147 0.864853
O O3 0.591128 0.237666 0.961274
O O4 0.248356 0.136724 0.995605
O O5 0.559522 0.506685 0.849250
O O6 0.946383 0.480497 0.812459
O O7 0.650392 0.435735 0.938829
O O8 0.600225 0.624236 0.925318
O O9 0.000000 0.021331 0.750000
O O10 0.136064 0.864824 0.665393
O O11 0.293951 0.827882 0.767234
O O12 0.000000 0.718157 0.750000
#
# Coordination Sequence:
#
# PCOD9278372 Si02
#       6
#     8   8   8   8   4   8
#     4  11  23  42  64  97 137 174 224 288 328 423
#     4  10  22  43  66  96 129 180 223 277 351 405
#     4  10  23  40  67  99 131 175 229 275 345 409
#     4  10  23  44  67 106 137 181 232 283 358 401
#     4  10  20  42  72  94 134 180 224 288 336 410
#     4  10  23  42  62  96 138 169 227 280 337 422
#
# _framework density 24.812235000000001
#
# number of rings (size 3 to 8) (size 9 to 14) (size 15 to 20)
#    0.000    1.818    3.636    0.000    8.909    2.909 
#    0.000    0.000    0.000    0.000    0.000    0.000 
#    0.000    0.000    0.000    0.000    0.000    0.000 
#
# Total GULP energy -122687.986881 kJ/mol
# GULP energy per Si atom -5576.726676 kJ/mol
# Density = 2.475576 g / cm^3
# Si number density = 24.812235 Si / 1000 Ang^3
#
#
#
# Elastic Constant Matrix: (Units=GPa)
#
#
# Indices 1 2 3 4 5 6 
#
# 1 34.5357 7.7380 -3.0257 0.0000 1.9493 0.0000
# 2 7.7380 46.6306 -0.6998 0.0000 -17.1081 0.0000
# 3 -3.0257 -0.6998 83.3177 0.0000 -6.1718 0.0000
# 4 0.0000 0.0000 0.0000 18.9370 0.0000 -14.3593
# 5 1.9493 -17.1081 -6.1718 0.0000 44.5302 0.0000
# 6 0.0000 0.0000 0.0000 -14.3593 0.0000 18.4801
#
#
#
# Elastic Compliance Matrix: (Units=1/GPa)
#
#
# Indices 1 2 3 4 5 6 
#
# 1 0.030676 -0.006439 0.000785 0.000000 -0.003708 0.000000
# 2 -0.006439 0.026387 0.000768 0.000000 0.010526 0.000000
# 3 0.000785 0.000768 0.012182 0.000000 0.001949 0.000000
# 4 0.000000 0.000000 0.000000 0.128541 0.000000 0.099878
# 5 -0.003708 0.010526 0.001949 0.000000 0.026933 0.000000
# 6 0.000000 0.000000 0.000000 0.099878 0.000000 0.131719
#
#
# Mechanical properties :
#
#
# Convention : Reuss Voigt Hill
#
# Bulk Modulus (GPa) = 16.81456 19.16767 17.99111
# Shear Modulus (GPa) = 12.95223 27.08755 20.01989
#
# Velocity S-wave (km/s) = 2.28723 3.30768 2.84360
# Velocity P-wave (km/s) = 3.71035 4.72541 4.24830
#
# Compressibility (1/GPa) = 0.05947226
#
# Stress axis : x y z
#
# Youngs Moduli (GPa) = 32.59841 37.89752 82.09119
#
# Poissons Ratio (x) = 0.24403 -0.06446
# Poissons Ratio (y) = 0.20990 -0.06301
# Poissons Ratio (z) = -0.02560 -0.02909
#
# Static dielectric constant tensor:
#      x y z
#    x 2.044930 0.000000 -0.021280 
#    y 0.000000 2.095170 0.000000 
#    z -0.021280 0.000000 2.023990 
# 
# From -- ./inp_files/288333.got.cif
#   From: 2010.05.17/outbox.cif.g08.bks.cpg/sg15_145_cif.got.tgz:288333.got - 2010.06.03 18:47:42.
