data_PCOD9278247
_publ_section_title
;
Structure prediction by ZEFSAII (Michael W. Deem and Ramdas Pophale) SiO2 
 PCOD9278247
Probable space group: C 2/C
;
_chemical_formula_sum "Si O2"
_cell_formula_units_Z 64
_cell_length_a 14.860618
_cell_length_b 22.104468
_cell_length_c 17.503192
_cell_angle_alpha 90.000000
_cell_angle_beta 149.392595
_cell_angle_gamma 90.000000
_cell_volume 2927.400935
_symmetry_space_group_name_H-M "C 2/C"
_symmetry_group_IT_number 15
_symmetry_cell_setting 'monoclinic'
loop_
_space_group_symop_operation_xyz
x,y,z
-x,y,1/2-z
-x,-y,-z
x,-y,1/2+z
1/2+x,1/2+y,z
1/2-x,1/2+y,1/2-z
1/2-x,1/2-y,-z
1/2+x,1/2-y,1/2+z
loop_
_atom_site_type_symbol
_atom_site_label
_atom_site_fract_x
_atom_site_fract_y
_atom_site_fract_z
Si Si1 0.529552 0.496753 0.858132
Si Si2 0.171320 0.489960 0.179026
Si Si3 0.331431 0.783405 0.174145
Si Si4 0.676630 0.402560 0.087699
Si Si5 0.501564 0.206480 0.958605
Si Si6 0.126514 0.178647 0.055767
Si Si7 0.313396 0.104220 0.068672
Si Si8 0.425895 0.120734 0.367135
O O1 0.500000 0.474175 0.750000
O O2 0.341371 0.521225 0.750353
O O3 0.584655 0.447419 0.960969
O O4 0.683112 0.547242 0.970409
O O5 0.192051 0.441126 0.261923
O O6 0.173156 0.557099 0.217000
O O7 0.000000 0.500000 0.000000
O O8 0.500000 0.764606 0.250000
O O9 0.270423 0.850417 0.106844
O O10 0.369215 0.791437 0.291718
O O11 0.179859 0.734584 0.055356
O O12 0.529271 0.366855 0.030468
O O13 0.438086 0.253099 0.978135
O O14 0.536972 0.141107 0.019699
O O15 0.204968 0.157111 0.032285
O O16 0.290819 0.168854 0.233192
O O17 0.500000 0.092883 0.250000
O O18 0.387940 0.120131 0.040161
#
# Coordination Sequence:
#
# PCOD9278247 Si02
#       8
#     8   8   8   8   8   8   8   8
#     4  12  25  41  65 102 141 183 230 285 339 423
#     4  12  24  42  69  99 140 184 228 277 354 421
#     4  11  25  43  68  97 128 178 230 286 344 407
#     4  11  23  44  69  95 139 185 225 278 354 419
#     4  11  23  44  68  94 137 174 234 285 346 411
#     4  10  20  42  68  95 128 186 223 283 347 405
#     4  10  22  41  70  98 136 177 233 284 346 413
#     4  11  22  40  67 100 130 178 227 284 340 411
#
# _framework density 21.862397000000001
#
# number of rings (size 3 to 8) (size 9 to 14) (size 15 to 20)
#    0.000    1.000    3.750    3.750    0.000    4.000 
#    0.000    1.875    0.000    0.000    0.000    0.000 
#    0.000    0.000    0.000    0.000    0.000    0.000 
#
# Total GULP energy -178743.283000 kJ/mol
# GULP energy per Si atom -5585.727594 kJ/mol
# Density = 2.181264 g / cm^3
# Si number density = 21.862397 Si / 1000 Ang^3
#
#
#
# Elastic Constant Matrix: (Units=GPa)
#
#
# Indices 1 2 3 4 5 6 
#
# 1 64.4681 20.8207 23.2962 0.0037 16.9254 0.0015
# 2 20.8207 66.1915 18.6731 0.0036 6.0716 0.0015
# 3 23.2962 18.6731 86.6980 0.0088 9.6469 0.0029
# 4 0.0037 0.0036 0.0088 24.6548 0.0024 -1.9481
# 5 16.9254 6.0716 9.6469 0.0024 42.0758 0.0006
# 6 0.0015 0.0015 0.0029 -1.9481 0.0006 16.5992
#
#
#
# Elastic Compliance Matrix: (Units=1/GPa)
#
#
# Indices 1 2 3 4 5 6 
#
# 1 0.020065 -0.004679 -0.003654 0.000000 -0.006558 -0.000001
# 2 -0.004679 0.017277 -0.002459 -0.000001 -0.000047 -0.000001
# 3 -0.003654 -0.002459 0.013179 -0.000004 -0.001197 -0.000002
# 4 0.000000 -0.000001 -0.000004 0.040940 -0.000001 0.004805
# 5 -0.006558 -0.000047 -0.001197 -0.000001 0.026686 0.000000
# 6 -0.000001 -0.000001 -0.000002 0.004805 0.000000 0.060808
#
#
# Mechanical properties :
#
#
# Convention : Reuss Voigt Hill
#
# Bulk Modulus (GPa) = 34.55697 38.10418 36.33057
# Shear Modulus (GPa) = 23.78866 26.97046 25.37956
#
# Velocity S-wave (km/s) = 3.30223 3.51614 3.41086
# Velocity P-wave (km/s) = 5.51185 5.82677 5.67150
#
# Compressibility (1/GPa) = 0.02893772
#
# Stress axis : x y z
#
# Youngs Moduli (GPa) = 49.83807 57.87893 75.87900
#
# Poissons Ratio (x) = 0.27082 0.27726
# Poissons Ratio (y) = 0.23320 0.18656
# Poissons Ratio (z) = 0.18211 0.14231
#
# Static dielectric constant tensor:
#      x y z
#    x 1.809600 0.000000 -0.015300 
#    y 0.000000 1.834080 0.000000 
#    z -0.015300 0.000000 1.798410 
# 
# From -- ./inp_files/207356.got.cif
#   From: 2010.05.17/outbox.cif.g08.bks.cpg/sg15_104_cif.got.tgz:207356.got - 2010.06.03 18:47:42.
