data_PCOD9278340
_publ_section_title
;
Structure prediction by ZEFSAII (Michael W. Deem and Ramdas Pophale) SiO2 
 PCOD9278340
Probable space group: C 2/C
;
_chemical_formula_sum "Si O2"
_cell_formula_units_Z 40
_cell_length_a 6.469048
_cell_length_b 13.544079
_cell_length_c 18.139743
_cell_angle_alpha 90.000000
_cell_angle_beta 115.609226
_cell_angle_gamma 90.000000
_cell_volume 1433.221663
_symmetry_space_group_name_H-M "C 2/C"
_symmetry_group_IT_number 15
_symmetry_cell_setting 'monoclinic'
loop_
_space_group_symop_operation_xyz
x,y,z
-x,y,1/2-z
-x,-y,-z
x,-y,1/2+z
1/2+x,1/2+y,z
1/2-x,1/2+y,1/2-z
1/2-x,1/2-y,-z
1/2+x,1/2-y,1/2+z
loop_
_atom_site_type_symbol
_atom_site_label
_atom_site_fract_x
_atom_site_fract_y
_atom_site_fract_z
Si Si1 0.704646 0.689088 0.568793
Si Si2 0.740100 0.410885 0.687380
Si Si3 0.000000 0.937821 0.250000
Si Si4 0.000000 0.753053 0.750000
Si Si5 0.385001 0.141120 0.054159
Si Si6 0.094974 0.553464 0.599098
O O1 0.750000 0.750000 0.500000
O O2 0.840011 0.701517 0.666236
O O3 0.471388 0.747082 0.555963
O O4 0.826317 0.585000 0.566007
O O5 0.580690 0.499250 0.690996
O O6 0.664636 0.320325 0.725628
O O7 0.000000 0.437369 0.750000
O O8 0.723091 0.375997 0.599748
O O9 0.236487 0.893879 0.316465
O O10 0.598371 0.065389 0.107088
O O11 0.322652 0.090561 0.967354
#
# Coordination Sequence:
#
# PCOD9278340 Si02
#       6
#     8   8   4   4   8   8
#     4  10  22  42  65  96 137 180 232 294 352 430
#     4  11  20  39  71  97 130 187 238 283 355 437
#     4  11  22  38  64 108 140 181 238 297 362 438
#     4  11  22  40  68  96 134 181 232 293 364 422
#     4  10  20  42  70  98 135 192 238 293 362 431
#     4  10  22  40  67 101 142 181 237 300 361 428
#
# _framework density 27.909151999999999
#
# number of rings (size 3 to 8) (size 9 to 14) (size 15 to 20)
#    0.000    1.600    4.000    1.200    0.000    2.400 
#    1.800    8.000    0.000    0.000    0.000    0.000 
#    0.000    0.000    0.000    0.000    0.000    0.000 
#
# Total GULP energy -111634.508820 kJ/mol
# GULP energy per Si atom -5581.725441 kJ/mol
# Density = 2.784563 g / cm^3
# Si number density = 27.909152 Si / 1000 Ang^3
#
#
#
# Elastic Constant Matrix: (Units=GPa)
#
#
# Indices 1 2 3 4 5 6 
#
# 1 138.3238 44.7973 38.4177 0.0000 -21.1408 0.0000
# 2 44.7973 89.5734 11.4035 0.0000 -25.2326 0.0000
# 3 38.4177 11.4035 167.7909 0.0000 -44.5626 0.0000
# 4 0.0000 0.0000 0.0000 17.7485 0.0000 -4.2297
# 5 -21.1408 -25.2326 -44.5626 0.0000 62.8788 0.0000
# 6 0.0000 0.0000 0.0000 -4.2297 0.0000 20.9684
#
#
#
# Elastic Compliance Matrix: (Units=1/GPa)
#
#
# Indices 1 2 3 4 5 6 
#
# 1 0.009134 -0.004320 -0.001777 0.000000 0.000078 0.000000
# 2 -0.004320 0.014679 0.001441 0.000000 0.005460 0.000000
# 3 -0.001777 0.001441 0.007716 0.000000 0.005449 0.000000
# 4 0.000000 0.000000 0.000000 0.059188 0.000000 0.011939
# 5 0.000078 0.005460 0.005449 0.000000 0.021983 0.000000
# 6 0.000000 0.000000 0.000000 0.011939 0.000000 0.050099
#
#
# Mechanical properties :
#
#
# Convention : Reuss Voigt Hill
#
# Bulk Modulus (GPa) = 45.00833 64.99167 55.00000
# Shear Modulus (GPa) = 27.85275 40.39045 34.12160
#
# Velocity S-wave (km/s) = 3.16251 3.80835 3.50036
# Velocity P-wave (km/s) = 5.43112 6.53265 6.00718
#
# Compressibility (1/GPa) = 0.02221811
#
# Stress axis : x y z
#
# Youngs Moduli (GPa) = 109.48243 68.12498 129.60161
#
# Poissons Ratio (x) = 0.29429 0.23030
# Poissons Ratio (y) = 0.47294 -0.18682
# Poissons Ratio (z) = 0.19455 -0.09820
#
# Static dielectric constant tensor:
#      x y z
#    x 2.292530 0.000000 0.114850 
#    y 0.000000 2.153540 0.000000 
#    z 0.114850 0.000000 2.176670 
# 
# From -- ./inp_files/226838.got.cif
#   From: 2010.05.17/outbox.cif.g08.bks.cpg/sg15_114_cif.got.tgz:226838.got - 2010.06.03 18:47:42.
