data_PCOD9278874
_publ_section_title
;
Structure prediction by ZEFSAII (Michael W. Deem and Ramdas Pophale) SiO2 
 PCOD9278874
Probable space group: C 2/C
;
_chemical_formula_sum "Si O2"
_cell_formula_units_Z 40
_cell_length_a 9.082961
_cell_length_b 24.311164
_cell_length_c 9.639130
_cell_angle_alpha 90.000000
_cell_angle_beta 130.993118
_cell_angle_gamma 90.000000
_cell_volume 1606.557387
_symmetry_space_group_name_H-M "C 2/C"
_symmetry_group_IT_number 15
_symmetry_cell_setting 'monoclinic'
loop_
_space_group_symop_operation_xyz
x,y,z
-x,y,1/2-z
-x,-y,-z
x,-y,1/2+z
1/2+x,1/2+y,z
1/2-x,1/2+y,1/2-z
1/2-x,1/2-y,-z
1/2+x,1/2-y,1/2+z
loop_
_atom_site_type_symbol
_atom_site_label
_atom_site_fract_x
_atom_site_fract_y
_atom_site_fract_z
Si Si1 0.436558 0.817259 0.874223
Si Si2 0.770956 0.571439 0.340722
Si Si3 0.342915 0.694070 0.777329
Si Si4 0.802532 0.538690 0.959857
Si Si5 0.959464 0.080484 0.937819
O O1 0.500000 0.825229 0.750000
O O2 0.295779 0.863052 0.853601
O O3 0.348686 0.756252 0.833786
O O4 0.635238 0.819057 0.083322
O O5 0.791174 0.526883 0.475747
O O6 0.974780 0.556370 0.388009
O O7 0.564062 0.560325 0.140998
O O8 0.500000 0.692704 0.750000
O O9 0.402004 0.644347 0.913945
O O10 0.649239 0.572525 0.955352
O O11 0.718842 0.550934 0.752043
#
# Coordination Sequence:
#
# PCOD9278874 Si02
#       5
#     8   8   8   8   8
#     4  11  20  29  47  72 100 137 162 200 252 304
#     4  11  20  33  48  73 101 138 168 208 246 292
#     4  11  18  30  47  71  99 135 163 199 250 313
#     4  10  21  32  50  69 102 137 171 206 241 302
#     4  11  19  35  50  72 103 137 167 204 250 295
#
# _framework density 24.897957000000002
#
# number of rings (size 3 to 8) (size 9 to 14) (size 15 to 20)
#    0.000    1.200    4.000    7.200    0.000    0.000 
#    0.000    0.000    0.000    0.000    0.000    0.000 
#    0.000   40.000    0.400    2.200    0.000    0.000 
#
# Total GULP energy -111714.501057 kJ/mol
# GULP energy per Si atom -5585.725053 kJ/mol
# Density = 2.484129 g / cm^3
# Si number density = 24.897957 Si / 1000 Ang^3
#
#
#
# Elastic Constant Matrix: (Units=GPa)
#
#
# Indices 1 2 3 4 5 6 
#
# 1 57.7490 10.7270 29.4820 0.0000 18.9237 0.0000
# 2 10.7270 181.4555 15.9443 0.0000 -0.5079 0.0000
# 3 29.4820 15.9443 121.3236 0.0000 25.5775 0.0000
# 4 0.0000 0.0000 0.0000 -71.4155 0.0000 23.6253
# 5 18.9237 -0.5079 25.5775 0.0000 38.2317 0.0000
# 6 0.0000 0.0000 0.0000 23.6253 0.0000 11.9784
#
#
#
# Elastic Compliance Matrix: (Units=1/GPa)
#
#
# Indices 1 2 3 4 5 6 
#
# 1 0.022086 -0.001031 -0.003404 0.000000 -0.008668 0.000000
# 2 -0.001031 0.005638 -0.000715 0.000000 0.001063 0.000000
# 3 -0.003404 -0.000715 0.010257 0.000000 -0.005187 0.000000
# 4 0.000000 0.000000 0.000000 -0.008474 0.000000 0.016713
# 5 -0.008668 0.001063 -0.005187 0.000000 0.033931 0.000000
# 6 0.000000 0.000000 0.000000 0.016713 0.000000 0.050520
#
#
# Mechanical properties :
#
#
# Convention : Reuss Voigt Hill
#
# Bulk Modulus (GPa) = 36.12456 52.53717 44.33086
# Shear Modulus (GPa) = 37.45750 16.05059 26.75405
#
# Velocity S-wave (km/s) = 3.88292 2.54176 3.28159
# Velocity P-wave (km/s) = 5.88586 5.45535 5.67469
#
# Compressibility (1/GPa) = 0.02768200
#
# Stress axis : x y z
#
# Youngs Moduli (GPa) = 45.27721 177.37751 97.49476
#
# Poissons Ratio (x) = 0.18284 0.33188
# Poissons Ratio (y) = 0.04667 0.06966
# Poissons Ratio (z) = 0.15413 0.12674
#
# Static dielectric constant tensor:
#      x y z
#    x 2.101170 0.000000 -0.170160 
#    y 0.000000 2.023990 0.000000 
#    z -0.170160 0.000000 2.015550 
# 
# From -- ./inp_files/51802.got.cif
#   From: 2010.05.17/outbox.cif.g08.bks.cpg/sg15_26_cif.got.tgz:51802.got - 2010.06.03 18:47:42.
