data_PCOD9278815
_publ_section_title
;
Structure prediction by ZEFSAII (Michael W. Deem and Ramdas Pophale) SiO2 
 PCOD9278815
Probable space group: C 2/C
;
_chemical_formula_sum "Si O2"
_cell_formula_units_Z 44
_cell_length_a 11.742683
_cell_length_b 9.069566
_cell_length_c 18.581702
_cell_angle_alpha 90.000000
_cell_angle_beta 118.831469
_cell_angle_gamma 90.000000
_cell_volume 1733.661229
_symmetry_space_group_name_H-M "C 2/C"
_symmetry_group_IT_number 15
_symmetry_cell_setting 'monoclinic'
loop_
_space_group_symop_operation_xyz
x,y,z
-x,y,1/2-z
-x,-y,-z
x,-y,1/2+z
1/2+x,1/2+y,z
1/2-x,1/2+y,1/2-z
1/2-x,1/2-y,-z
1/2+x,1/2-y,1/2+z
loop_
_atom_site_type_symbol
_atom_site_label
_atom_site_fract_x
_atom_site_fract_y
_atom_site_fract_z
Si Si1 0.957481 0.334335 0.910699
Si Si2 0.500000 0.695257 0.250000
Si Si3 0.640833 0.764194 0.761567
Si Si4 0.127446 0.530953 0.859070
Si Si5 0.613041 0.437633 0.485560
Si Si6 0.214038 0.999978 0.861042
O O1 0.870106 0.241113 0.826856
O O2 0.847643 0.416973 0.922784
O O3 0.024504 0.449522 0.878328
O O4 0.075413 0.236412 0.976452
O O5 0.375723 0.589146 0.223881
O O6 0.432659 0.809702 0.174104
O O7 0.500000 0.717823 0.750000
O O8 0.651335 0.931670 0.794309
O O9 0.741146 0.657055 0.831748
O O10 0.260692 0.510363 0.941335
O O11 0.500000 0.500000 0.500000
O O12 0.627474 0.476875 0.405862
#
# Coordination Sequence:
#
# PCOD9278815 Si02
#       6
#     8   4   8   8   8   8
#     4  11  24  44  75 108 140 198 242 307 375 446
#     4  12  24  44  70 112 144 186 248 306 362 450
#     4  10  20  47  71 102 145 195 243 304 369 443
#     4  11  24  47  76 103 148 193 252 294 377 456
#     4  12  27  50  71 105 155 198 243 317 373 448
#     4  12  26  44  75 111 150 191 254 306 383 440
#
# _framework density 25.379814
#
# number of rings (size 3 to 8) (size 9 to 14) (size 15 to 20)
#    0.000    0.727    7.273    1.636    2.545    6.545 
#    0.000    0.000    0.000    0.000    0.000    0.000 
#    0.000    0.000    0.000    0.000    0.000    0.000 
#
# Total GULP energy -122817.992923 kJ/mol
# GULP energy per Si atom -5582.636042 kJ/mol
# Density = 2.532205 g / cm^3
# Si number density = 25.379814 Si / 1000 Ang^3
#
#
#
# Elastic Constant Matrix: (Units=GPa)
#
#
# Indices 1 2 3 4 5 6 
#
# 1 107.9053 13.2651 21.3771 0.0000 10.1439 0.0000
# 2 13.2651 76.4543 -0.8347 0.0000 -2.1454 0.0000
# 3 21.3771 -0.8347 102.0318 0.0000 12.7517 0.0000
# 4 0.0000 0.0000 0.0000 38.0743 0.0000 0.9388
# 5 10.1439 -2.1454 12.7517 0.0000 33.0934 0.0000
# 6 0.0000 0.0000 0.0000 0.9388 0.0000 18.8657
#
#
#
# Elastic Compliance Matrix: (Units=1/GPa)
#
#
# Indices 1 2 3 4 5 6 
#
# 1 0.010089 -0.001841 -0.001815 0.000000 -0.002513 0.000000
# 2 -0.001841 0.013439 0.000332 0.000000 0.001308 0.000000
# 3 -0.001815 0.000332 0.010623 0.000000 -0.003516 0.000000
# 4 0.000000 0.000000 0.000000 0.026297 0.000000 -0.001309
# 5 -0.002513 0.001308 -0.003516 0.000000 0.032427 0.000000
# 6 0.000000 0.000000 0.000000 -0.001309 0.000000 0.053071
#
#
# Mechanical properties :
#
#
# Convention : Reuss Voigt Hill
#
# Bulk Modulus (GPa) = 36.35711 39.33403 37.84557
# Shear Modulus (GPa) = 30.90948 34.84561 32.87755
#
# Velocity S-wave (km/s) = 3.49360 3.70937 3.60310
# Velocity P-wave (km/s) = 5.53443 5.82046 5.67925
#
# Compressibility (1/GPa) = 0.02750494
#
# Stress axis : x y z
#
# Youngs Moduli (GPa) = 99.11338 74.40789 94.13365
#
# Poissons Ratio (x) = 0.13698 0.17084
# Poissons Ratio (y) = 0.18246 -0.03127
# Poissons Ratio (z) = 0.17988 -0.02472
#
# Static dielectric constant tensor:
#      x y z
#    x 1.991990 0.000000 0.067840 
#    y 0.000000 2.163600 0.000000 
#    z 0.067840 0.000000 2.226440 
# 
# From -- ./inp_files/268126.got.cif
#   From: 2010.05.17/outbox.cif.g08.bks.cpg/sg15_135_cif.got.tgz:268126.got - 2010.06.03 18:47:42.
