data_PCOD9278475
_publ_section_title
;
Structure prediction by ZEFSAII (Michael W. Deem and Ramdas Pophale) SiO2 
 PCOD9278475
Probable space group: C 2/C
;
_chemical_formula_sum "Si O2"
_cell_formula_units_Z 64
_cell_length_a 12.697099
_cell_length_b 24.228460
_cell_length_c 9.299883
_cell_angle_alpha 90.000000
_cell_angle_beta 63.594930
_cell_angle_gamma 90.000000
_cell_volume 2562.459433
_symmetry_space_group_name_H-M "C 2/C"
_symmetry_group_IT_number 15
_symmetry_cell_setting 'monoclinic'
loop_
_space_group_symop_operation_xyz
x,y,z
-x,y,1/2-z
-x,-y,-z
x,-y,1/2+z
1/2+x,1/2+y,z
1/2-x,1/2+y,1/2-z
1/2-x,1/2-y,-z
1/2+x,1/2-y,1/2+z
loop_
_atom_site_type_symbol
_atom_site_label
_atom_site_fract_x
_atom_site_fract_y
_atom_site_fract_z
Si Si1 0.169282 0.523051 0.341741
Si Si2 0.969928 0.140757 0.426713
Si Si3 0.387289 0.612374 0.891703
Si Si4 0.121727 0.572406 0.076207
Si Si5 0.263602 0.073047 0.901728
Si Si6 0.626168 0.238075 0.497715
Si Si7 0.285588 0.277603 0.331361
Si Si8 0.069858 0.653143 0.869078
O O1 0.101328 0.480647 0.488148
O O2 0.224243 0.560810 0.434971
O O3 0.105856 0.558782 0.254862
O O4 0.245610 0.482230 0.190848
O O5 0.849994 0.111083 0.548440
O O6 0.948550 0.206268 0.436250
O O7 0.000000 0.121147 0.250000
O O8 0.073861 0.126509 0.471324
O O9 0.500000 0.583412 0.750000
O O10 0.263523 0.582100 0.970861
O O11 0.365501 0.669555 0.819556
O O12 0.068478 0.625299 0.028263
O O13 0.376315 0.105081 0.765913
O O14 0.750000 0.250000 0.500000
O O15 0.651377 0.235471 0.312698
O O16 0.552323 0.184510 0.585661
O O17 0.250000 0.250000 0.500000
O O18 0.170214 0.300350 0.321221
#
# Coordination Sequence:
#
# PCOD9278475 Si02
#       8
#     8   8   8   8   8   8   8   8
#     4   9  18  37  70 106 153 194 254 325 385 449
#     4  12  25  40  66 101 154 210 261 315 384 453
#     4  11  20  39  61  90 141 197 239 304 372 441
#     4   9  19  37  65 104 148 192 243 312 383 450
#     4  10  20  43  67 111 155 205 256 325 390 457
#     4  12  28  47  70 104 146 200 256 318 382 457
#     4  11  24  43  69  97 138 193 255 310 369 448
#     4  10  22  44  68 100 149 200 255 306 383 467
#
# _framework density 24.976006000000002
#
# number of rings (size 3 to 8) (size 9 to 14) (size 15 to 20)
#    0.000    1.500    2.500    3.000    3.500    0.000 
#    0.000   13.750    0.000    0.000    0.000   15.750 
#    0.000    0.000    0.000    0.000    0.000    8.000 
#
# Total GULP energy -179075.558651 kJ/mol
# GULP energy per Si atom -5596.111208 kJ/mol
# Density = 2.491916 g / cm^3
# Si number density = 24.976006 Si / 1000 Ang^3
#
#
#
# Elastic Constant Matrix: (Units=GPa)
#
#
# Indices 1 2 3 4 5 6 
#
# 1 142.4641 50.5985 45.0033 0.0000 22.0741 0.0000
# 2 50.5985 92.9004 40.1666 0.0000 4.2875 0.0000
# 3 45.0033 40.1666 191.5456 0.0000 16.6437 0.0000
# 4 0.0000 0.0000 0.0000 54.5081 0.0000 3.3353
# 5 22.0741 4.2875 16.6437 0.0000 51.1454 0.0000
# 6 0.0000 0.0000 0.0000 3.3353 0.0000 31.6725
#
#
#
# Elastic Compliance Matrix: (Units=1/GPa)
#
#
# Indices 1 2 3 4 5 6 
#
# 1 0.009481 -0.004587 -0.000971 0.000000 -0.003391 0.000000
# 2 -0.004587 0.014059 -0.001996 0.000000 0.001451 0.000000
# 3 -0.000971 -0.001996 0.005986 0.000000 -0.001362 0.000000
# 4 0.000000 0.000000 0.000000 0.018465 0.000000 -0.001944
# 5 -0.003391 0.001451 -0.001362 0.000000 0.021337 0.000000
# 6 0.000000 0.000000 0.000000 -0.001944 0.000000 0.031778
#
#
# Mechanical properties :
#
#
# Convention : Reuss Voigt Hill
#
# Bulk Modulus (GPa) = 69.36690 77.60523 73.48606
# Shear Modulus (GPa) = 41.31540 46.87465 44.09503
#
# Velocity S-wave (km/s) = 4.07160 4.33689 4.20634
# Velocity P-wave (km/s) = 7.06666 7.49783 7.28544
#
# Compressibility (1/GPa) = 0.01441610
#
# Stress axis : x y z
#
# Youngs Moduli (GPa) = 105.47651 71.12886 167.06415
#
# Poissons Ratio (x) = 0.32630 0.16219
# Poissons Ratio (y) = 0.48387 0.33353
# Poissons Ratio (z) = 0.10240 0.14200
#
# Static dielectric constant tensor:
#      x y z
#    x 2.081400 0.000000 -0.022640 
#    y 0.000000 1.962990 0.000000 
#    z -0.022640 0.000000 2.047690 
# 
# From -- ./inp_files/51228.got.cif
#   From: 2010.05.17/outbox.cif.g08.bks.cpg/sg15_26_cif.got.tgz:51228.got - 2010.06.03 18:47:42.
