data_PCOD9278674
_publ_section_title
;
Structure prediction by ZEFSAII (Michael W. Deem and Ramdas Pophale) SiO2 
 PCOD9278674
Probable space group: C 2/C
;
_chemical_formula_sum "Si O2"
_cell_formula_units_Z 52
_cell_length_a 14.735144
_cell_length_b 17.789001
_cell_length_c 14.663717
_cell_angle_alpha 90.000000
_cell_angle_beta 138.122703
_cell_angle_gamma 90.000000
_cell_volume 2565.817314
_symmetry_space_group_name_H-M "C 2/C"
_symmetry_group_IT_number 15
_symmetry_cell_setting 'monoclinic'
loop_
_space_group_symop_operation_xyz
x,y,z
-x,y,1/2-z
-x,-y,-z
x,-y,1/2+z
1/2+x,1/2+y,z
1/2-x,1/2+y,1/2-z
1/2-x,1/2-y,-z
1/2+x,1/2-y,1/2+z
loop_
_atom_site_type_symbol
_atom_site_label
_atom_site_fract_x
_atom_site_fract_y
_atom_site_fract_z
Si Si1 0.344083 0.363008 0.319090
Si Si2 0.354774 0.800101 0.782173
Si Si3 0.913320 0.486649 0.028436
Si Si4 0.500000 0.899756 0.750000
Si Si5 0.025269 0.334375 0.096766
Si Si6 0.599809 0.507647 0.245529
Si Si7 0.448742 0.670633 0.369314
O O1 0.372241 0.289116 0.278433
O O2 0.180733 0.362618 0.203471
O O3 0.403025 0.443120 0.333172
O O4 0.421998 0.342998 0.469588
O O5 0.393262 0.846932 0.722060
O O6 0.198520 0.818464 0.691656
O O7 0.452004 0.821368 0.942284
O O8 0.946526 0.546889 0.130032
O O9 0.946184 0.402143 0.084317
O O10 0.755708 0.491924 0.890614
O O11 0.000000 0.500000 0.000000
O O12 0.026527 0.254753 0.149945
O O13 0.500000 0.482132 0.250000
O O14 0.563678 0.593573 0.194884
#
# Coordination Sequence:
#
# PCOD9278674 Si02
#       7
#     8   8   8   4   8   8   8
#     4  10  22  38  66  94 124 172 210 263 325 388
#     4  10  21  40  64  94 128 167 216 265 318 385
#     4  12  23  45  67  92 133 175 220 267 315 394
#     4  12  24  36  70 100 124 176 220 258 322 386
#     4  10  20  44  69  88 123 177 222 262 314 383
#     4  12  25  40  61  96 137 163 210 278 326 377
#     4  10  22  42  66  88 128 175 213 264 329 382
#
# _framework density 20.266445999999998
#
# number of rings (size 3 to 8) (size 9 to 14) (size 15 to 20)
#    0.000    1.231    4.615    0.462    3.231    1.231 
#    1.385    3.846    0.000    0.000    0.000    0.000 
#    0.000    0.000    0.000    0.000    0.000    0.000 
#
# Total GULP energy -144973.434684 kJ/mol
# GULP energy per Si atom -5575.901334 kJ/mol
# Density = 2.022032 g / cm^3
# Si number density = 20.266446 Si / 1000 Ang^3
#
#
#
# Elastic Constant Matrix: (Units=GPa)
#
#
# Indices 1 2 3 4 5 6 
#
# 1 34.6755 0.3368 28.3210 0.0005 10.3119 -0.0004
# 2 0.3368 105.4811 3.2313 0.0000 -7.8178 0.0000
# 3 28.3210 3.2313 80.0197 0.0010 17.8518 -0.0008
# 4 0.0005 0.0000 0.0010 -108.9793 0.0006 107.2557
# 5 10.3119 -7.8178 17.8518 0.0006 24.3089 -0.0005
# 6 -0.0004 0.0000 -0.0008 107.2557 -0.0005 -40.0689
#
#
#
# Elastic Compliance Matrix: (Units=1/GPa)
#
#
# Indices 1 2 3 4 5 6 
#
# 1 0.041912 -0.000359 -0.012948 0.000000 -0.008385 0.000000
# 2 -0.000359 0.009830 -0.001207 0.000000 0.004200 0.000000
# 3 -0.012948 -0.001207 0.019123 0.000000 -0.008938 0.000000
# 4 0.000000 0.000000 0.000000 0.005614 0.000000 0.015028
# 5 -0.008385 0.004200 -0.008938 0.000000 0.052609 0.000000
# 6 0.000000 0.000000 0.000000 0.015028 0.000000 0.015269
#
#
# Mechanical properties :
#
#
# Convention : Reuss Voigt Hill
#
# Bulk Modulus (GPa) = 23.90291 31.55050 27.72670
# Shear Modulus (GPa) = 26.69090 -12.39538 7.14776
#
# Velocity S-wave (km/s) = 3.63299 -2.47578 1.88004
# Velocity P-wave (km/s) = 5.42384 2.72562 4.29226
#
# Compressibility (1/GPa) = 0.04183592
#
# Stress axis : x y z
#
# Youngs Moduli (GPa) = 23.85978 101.73184 52.29433
#
# Poissons Ratio (x) = 0.03648 0.67713
# Poissons Ratio (y) = 0.00856 0.06312
# Poissons Ratio (z) = 0.30895 0.12279
#
# Static dielectric constant tensor:
#      x y z
#    x 1.696220 0.000000 -0.021970 
#    y 0.000000 1.789840 0.000000 
#    z -0.021970 0.000000 1.716160 
# 
# From -- ./inp_files/56954.got.cif
#   From: 2010.05.17/outbox.cif.g08.bks.cpg/sg15_29_cif.got.tgz:56954.got - 2010.06.03 18:47:42.
