data_PCOD9278516
_publ_section_title
;
Structure prediction by ZEFSAII (Michael W. Deem and Ramdas Pophale) SiO2 
 PCOD9278516
Probable space group: C 2/C
;
_chemical_formula_sum "Si O2"
_cell_formula_units_Z 40
_cell_length_a 18.446726
_cell_length_b 9.184785
_cell_length_c 21.110941
_cell_angle_alpha 90.000000
_cell_angle_beta 156.479303
_cell_angle_gamma 90.000000
_cell_volume 1427.434497
_symmetry_space_group_name_H-M "C 2/C"
_symmetry_group_IT_number 15
_symmetry_cell_setting 'monoclinic'
loop_
_space_group_symop_operation_xyz
x,y,z
-x,y,1/2-z
-x,-y,-z
x,-y,1/2+z
1/2+x,1/2+y,z
1/2-x,1/2+y,1/2-z
1/2-x,1/2-y,-z
1/2+x,1/2-y,1/2+z
loop_
_atom_site_type_symbol
_atom_site_label
_atom_site_fract_x
_atom_site_fract_y
_atom_site_fract_z
Si Si1 0.619332 0.037937 0.174866
Si Si2 0.228558 0.424500 0.434468
Si Si3 0.176319 0.284293 0.848120
Si Si4 0.291009 0.733369 0.852535
Si Si5 0.235509 0.944832 0.895336
O O1 0.654443 0.142145 0.262495
O O2 0.591149 0.152744 0.095577
O O3 0.768988 0.909346 0.290324
O O4 0.452827 0.933634 0.060165
O O5 0.293008 0.593597 0.478082
O O6 0.300346 0.344220 0.429310
O O7 0.300664 0.388880 0.562831
O O8 0.000000 0.417710 0.250000
O O9 0.000000 0.284974 0.750000
O O10 0.223648 0.117473 0.881395
O O11 0.152542 0.858673 0.769672
#
# Coordination Sequence:
#
# PCOD9278516 Si02
#       5
#     8   8   8   8   8
#     4  11  24  46  65  96 143 172 224 281 336 396
#     4  10  20  43  69  93 136 176 221 280 331 396
#     4  10  21  41  70 100 129 176 225 275 331 403
#     4  11  24  42  66  96 131 181 221 278 334 393
#     4  12  22  42  72  93 134 181 225 273 341 396
#
# _framework density 28.022303000000001
#
# number of rings (size 3 to 8) (size 9 to 14) (size 15 to 20)
#    0.000    1.200    6.000    3.000    0.000    0.800 
#    3.600    9.000    0.000    0.000    0.000    0.000 
#    0.000    0.000    0.000    0.000    0.000    0.000 
#
# Total GULP energy -111341.727562 kJ/mol
# GULP energy per Si atom -5567.086378 kJ/mol
# Density = 2.795852 g / cm^3
# Si number density = 28.022303 Si / 1000 Ang^3
#
#
#
# Elastic Constant Matrix: (Units=GPa)
#
#
# Indices 1 2 3 4 5 6 
#
# 1 118.5307 53.5619 20.1796 -0.0006 -22.8668 0.0000
# 2 53.5619 225.1827 13.5747 0.0063 -3.0255 0.0009
# 3 20.1796 13.5747 61.6653 0.0106 -15.9687 0.0017
# 4 -0.0006 0.0063 0.0106 45.6035 0.0028 -11.8785
# 5 -22.8668 -3.0255 -15.9687 0.0028 25.8706 -0.0010
# 6 0.0000 0.0009 0.0017 -11.8785 -0.0010 73.1558
#
#
#
# Elastic Compliance Matrix: (Units=1/GPa)
#
#
# Indices 1 2 3 4 5 6 
#
# 1 0.011551 -0.002574 -0.000771 0.000000 0.009433 0.000000
# 2 -0.002574 0.005075 -0.000845 0.000000 -0.002204 0.000000
# 3 -0.000771 -0.000845 0.019583 -0.000005 0.011308 -0.000001
# 4 0.000000 0.000000 -0.000005 0.022896 -0.000006 0.003718
# 5 0.009433 -0.002204 0.011308 -0.000006 0.053714 0.000000
# 6 0.000000 0.000000 -0.000001 0.003718 0.000000 0.014273
#
#
# Mechanical properties :
#
#
# Convention : Reuss Voigt Hill
#
# Bulk Modulus (GPa) = 35.93479 64.44567 50.19023
# Shear Modulus (GPa) = 34.54274 50.13015 42.33644
#
# Velocity S-wave (km/s) = 3.51477 4.23417 3.89113
# Velocity P-wave (km/s) = 5.41507 6.85217 6.17556
#
# Compressibility (1/GPa) = 0.02782819
#
# Stress axis : x y z
#
# Youngs Moduli (GPa) = 86.57316 197.06325 51.06464
#
# Poissons Ratio (x) = 0.50730 0.03935
# Poissons Ratio (y) = 0.22287 0.04317
# Poissons Ratio (z) = 0.06670 0.16658
#
# Static dielectric constant tensor:
#      x y z
#    x 2.180520 0.000000 -0.006530 
#    y 0.000000 2.337550 0.000000 
#    z -0.006530 0.000000 2.473480 
# 
# From -- ./inp_files/102670.got.cif
#   From: 2010.05.17/outbox.cif.g08.bks.cpg/sg15_52_cif.got.tgz:102670.got - 2010.06.03 18:47:42.
