data_PCOD9278056
_publ_section_title
;
Structure prediction by ZEFSAII (Michael W. Deem and Ramdas Pophale) SiO2 
 PCOD9278056
Probable space group: C 2/C
;
_chemical_formula_sum "Si O2"
_cell_formula_units_Z 64
_cell_length_a 19.374379
_cell_length_b 10.678791
_cell_length_c 24.918235
_cell_angle_alpha 90.000000
_cell_angle_beta 147.988190
_cell_angle_gamma 90.000000
_cell_volume 2732.877023
_symmetry_space_group_name_H-M "C 2/C"
_symmetry_group_IT_number 15
_symmetry_cell_setting 'monoclinic'
loop_
_space_group_symop_operation_xyz
x,y,z
-x,y,1/2-z
-x,-y,-z
x,-y,1/2+z
1/2+x,1/2+y,z
1/2-x,1/2+y,1/2-z
1/2-x,1/2-y,-z
1/2+x,1/2-y,1/2+z
loop_
_atom_site_type_symbol
_atom_site_label
_atom_site_fract_x
_atom_site_fract_y
_atom_site_fract_z
Si Si1 0.762650 0.826434 0.350989
Si Si2 0.337608 0.245800 0.946940
Si Si3 0.841488 0.576604 0.053418
Si Si4 0.368853 0.431218 0.531739
Si Si5 0.061373 0.767439 0.239517
Si Si6 0.031413 0.684217 0.868449
Si Si7 0.417189 0.411362 0.353809
Si Si8 0.014158 0.635154 0.982905
O O1 0.799327 0.898296 0.429893
O O2 0.610470 0.799068 0.249882
O O3 0.807775 0.901596 0.327084
O O4 0.853292 0.702597 0.410131
O O5 0.193501 0.300637 0.846189
O O6 0.388157 0.204532 0.922481
O O7 0.328720 0.130417 0.984059
O O8 0.456080 0.335039 0.041604
O O9 0.947261 0.673414 0.146566
O O10 0.899160 0.440741 0.105853
O O11 0.696975 0.550977 0.982003
O O12 0.381640 0.308910 0.577522
O O13 0.520098 0.454223 0.615075
O O14 0.107342 0.851867 0.220417
O O15 0.000000 0.839028 0.250000
O O16 0.015167 0.646952 0.920243
O O17 0.000000 0.500000 0.000000
#
# Coordination Sequence:
#
# PCOD9278056 Si02
#       8
#     8   8   8   8   8   8   8   8
#     4  10  24  40  65  98 124 169 225 265 330 391
#     4  10  21  40  67  94 130 167 218 273 340 378
#     4  11  24  42  65  94 134 174 215 269 324 396
#     4  11  24  44  64  91 136 171 213 269 325 392
#     4  11  23  38  66 100 123 169 218 265 331 392
#     4  11  24  41  64  97 125 179 222 260 325 404
#     4  10  22  43  63  97 130 164 211 283 325 383
#     4  10  20  42  65  91 132 171 217 280 333 383
#
# _framework density 23.418543
#
# number of rings (size 3 to 8) (size 9 to 14) (size 15 to 20)
#    0.000    1.500    1.250    3.000    3.500    4.000 
#    0.000    0.000    0.000    0.000    0.000    0.000 
#    0.000    0.000    0.000    0.000    0.000    0.000 
#
# Total GULP energy -178624.474081 kJ/mol
# GULP energy per Si atom -5582.014815 kJ/mol
# Density = 2.336524 g / cm^3
# Si number density = 23.418543 Si / 1000 Ang^3
#
#
#
# Elastic Constant Matrix: (Units=GPa)
#
#
# Indices 1 2 3 4 5 6 
#
# 1 62.9071 -9.5143 4.8822 0.0000 11.7451 0.0000
# 2 -9.5143 57.5168 5.1997 -0.0001 2.3943 0.0000
# 3 4.8822 5.1997 88.5637 -0.0001 8.3962 0.0000
# 4 0.0000 -0.0001 -0.0001 14.5157 0.0000 16.7956
# 5 11.7451 2.3943 8.3962 0.0000 30.0423 0.0000
# 6 0.0000 0.0000 0.0000 16.7956 0.0000 29.8973
#
#
#
# Elastic Compliance Matrix: (Units=1/GPa)
#
#
# Indices 1 2 3 4 5 6 
#
# 1 0.017749 0.003275 -0.000501 0.000000 -0.007060 0.000000
# 2 0.003275 0.018121 -0.001013 0.000000 -0.002442 0.000000
# 3 -0.000501 -0.001013 0.011661 0.000000 -0.002982 0.000000
# 4 0.000000 0.000000 0.000000 0.196836 0.000000 -0.110578
# 5 -0.007060 -0.002442 -0.002982 0.000000 0.037074 0.000000
# 6 0.000000 0.000000 0.000000 -0.110578 0.000000 0.095568
#
#
# Mechanical properties :
#
#
# Convention : Reuss Voigt Hill
#
# Bulk Modulus (GPa) = 19.58761 23.34698 21.46729
# Shear Modulus (GPa) = 12.80389 28.78574 20.79482
#
# Velocity S-wave (km/s) = 2.34079 3.50978 2.98310
# Velocity P-wave (km/s) = 3.96081 5.13963 4.58824
#
# Compressibility (1/GPa) = 0.05105269
#
# Stress axis : x y z
#
# Youngs Moduli (GPa) = 56.34177 55.18398 85.75478
#
# Poissons Ratio (x) = -0.18074 0.04300
# Poissons Ratio (y) = -0.18453 0.08687
# Poissons Ratio (z) = 0.02825 0.05590
#
# Static dielectric constant tensor:
#      x y z
#    x 1.974160 0.000000 0.025020 
#    y 0.000000 1.965350 0.000000 
#    z 0.025020 0.000000 1.913960 
# 
# From -- ./inp_files/300857.got.cif
#   From: 2010.05.17/outbox.cif.g08.bks.cpg/sg15_151_cif.got.tgz:300857.got - 2010.06.03 18:47:42.
