data_PCOD9278078
_publ_section_title
;
Structure prediction by ZEFSAII (Michael W. Deem and Ramdas Pophale) SiO2 
 PCOD9278078
Probable space group: C 2/C
;
_chemical_formula_sum "Si O2"
_cell_formula_units_Z 44
_cell_length_a 14.103380
_cell_length_b 8.681909
_cell_length_c 13.732181
_cell_angle_alpha 90.000000
_cell_angle_beta 107.223892
_cell_angle_gamma 90.000000
_cell_volume 1606.023132
_symmetry_space_group_name_H-M "C 2/C"
_symmetry_group_IT_number 15
_symmetry_cell_setting 'monoclinic'
loop_
_space_group_symop_operation_xyz
x,y,z
-x,y,1/2-z
-x,-y,-z
x,-y,1/2+z
1/2+x,1/2+y,z
1/2-x,1/2+y,1/2-z
1/2-x,1/2-y,-z
1/2+x,1/2-y,1/2+z
loop_
_atom_site_type_symbol
_atom_site_label
_atom_site_fract_x
_atom_site_fract_y
_atom_site_fract_z
Si Si1 0.000000 0.057381 0.250000
Si Si2 0.523332 0.155861 0.866513
Si Si3 0.182244 0.070093 0.991189
Si Si4 0.472174 0.826699 0.627759
Si Si5 0.356065 0.643350 0.847397
Si Si6 0.200934 0.333849 0.138851
O O1 0.944032 0.170847 0.154404
O O2 0.079195 0.966993 0.206415
O O3 0.500000 0.103177 0.750000
O O4 0.417063 0.170738 0.886766
O O5 0.570983 0.993759 0.914114
O O6 0.249454 0.041436 0.917394
O O7 0.092588 0.179986 0.925881
O O8 0.153732 0.929749 0.050256
O O9 0.232778 0.179285 0.089993
O O10 0.500000 0.808469 0.750000
O O11 0.581317 0.798699 0.616439
O O12 0.253138 0.665158 0.759453
#
# Coordination Sequence:
#
# PCOD9278078 Si02
#       6
#     4   8   8   8   8   8
#     4  10  20  42  66 100 138 186 224 280 342 406
#     4   9  22  41  66  99 136 185 221 286 342 404
#     4  11  24  43  70 103 139 185 229 287 346 416
#     4  11  22  42  71 101 139 185 235 272 350 416
#     4  12  23  42  72 106 140 182 232 292 345 408
#     4  11  24  42  70 102 141 177 232 286 342 411
#
# _framework density 27.396864999999998
#
# number of rings (size 3 to 8) (size 9 to 14) (size 15 to 20)
#    0.545    0.727    4.545    0.545    2.545    2.182 
#    0.000    0.909    0.000    0.000    0.000    0.000 
#    0.000    0.000    0.000    0.000    0.000    0.000 
#
# Total GULP energy -122721.821334 kJ/mol
# GULP energy per Si atom -5578.264606 kJ/mol
# Density = 2.733451 g / cm^3
# Si number density = 27.396865 Si / 1000 Ang^3
#
#
#
# Elastic Constant Matrix: (Units=GPa)
#
#
# Indices 1 2 3 4 5 6 
#
# 1 87.4193 -6.1783 23.2236 0.0000 -20.8923 0.0000
# 2 -6.1783 59.9288 15.5461 0.0000 -3.1227 0.0000
# 3 23.2236 15.5461 157.3336 0.0000 8.6604 0.0000
# 4 0.0000 0.0000 0.0000 40.9893 0.0000 -12.3831
# 5 -20.8923 -3.1227 8.6604 0.0000 50.5590 0.0000
# 6 0.0000 0.0000 0.0000 -12.3831 0.0000 45.0484
#
#
#
# Elastic Compliance Matrix: (Units=1/GPa)
#
#
# Indices 1 2 3 4 5 6 
#
# 1 0.013817 0.002435 -0.002627 0.000000 0.006310 0.000000
# 2 0.002435 0.017648 -0.002240 0.000000 0.002480 0.000000
# 3 -0.002627 -0.002240 0.007099 0.000000 -0.002440 0.000000
# 4 0.000000 0.000000 0.000000 0.026606 0.000000 0.007314
# 5 0.006310 0.002480 -0.002440 0.000000 0.022958 0.000000
# 6 0.000000 0.000000 0.000000 0.007314 0.000000 0.024209
#
#
# Mechanical properties :
#
#
# Convention : Reuss Voigt Hill
#
# Bulk Modulus (GPa) = 29.67377 41.09605 35.38491
# Shear Modulus (GPa) = 38.93038 45.45871 42.19455
#
# Velocity S-wave (km/s) = 3.77368 4.07783 3.92870
# Velocity P-wave (km/s) = 5.46279 6.09954 5.78993
#
# Compressibility (1/GPa) = 0.03369979
#
# Stress axis : x y z
#
# Youngs Moduli (GPa) = 72.37324 56.66467 140.85763
#
# Poissons Ratio (x) = -0.13797 0.37010
# Poissons Ratio (y) = -0.17622 0.31547
# Poissons Ratio (z) = 0.19016 0.12691
#
# Static dielectric constant tensor:
#      x y z
#    x 2.264150 0.000000 0.012960 
#    y 0.000000 2.405210 0.000000 
#    z 0.012960 0.000000 2.212490 
# 
# From -- ./inp_files/160506.got.cif
#   From: 2010.05.17/outbox.cif.g08.bks.cpg/sg15_81_cif.got.tgz:160506.got - 2010.06.03 18:47:42.
