data_PCOD9278378
_publ_section_title
;
Structure prediction by ZEFSAII (Michael W. Deem and Ramdas Pophale) SiO2 
 PCOD9278378
Probable space group: C 2/C
;
_chemical_formula_sum "Si O2"
_cell_formula_units_Z 44
_cell_length_a 19.577247
_cell_length_b 4.815798
_cell_length_c 22.314728
_cell_angle_alpha 90.000000
_cell_angle_beta 114.722287
_cell_angle_gamma 90.000000
_cell_volume 1911.008331
_symmetry_space_group_name_H-M "C 2/C"
_symmetry_group_IT_number 15
_symmetry_cell_setting 'monoclinic'
loop_
_space_group_symop_operation_xyz
x,y,z
-x,y,1/2-z
-x,-y,-z
x,-y,1/2+z
1/2+x,1/2+y,z
1/2-x,1/2+y,1/2-z
1/2-x,1/2-y,-z
1/2+x,1/2-y,1/2+z
loop_
_atom_site_type_symbol
_atom_site_label
_atom_site_fract_x
_atom_site_fract_y
_atom_site_fract_z
Si Si1 0.294948 0.074444 0.756809
Si Si2 0.824482 0.148945 0.060728
Si Si3 0.500000 0.160107 0.250000
Si Si4 0.045862 0.590372 0.642833
Si Si5 0.974793 0.082112 0.557353
Si Si6 0.654048 0.827901 0.849809
O O1 0.224726 0.897045 0.754487
O O2 0.365394 0.032520 0.826613
O O3 0.310672 0.954191 0.696798
O O4 0.889684 0.010971 0.042912
O O5 0.856741 0.413815 0.108734
O O6 0.801625 0.909507 0.099356
O O7 0.750000 0.250000 0.000000
O O8 0.474312 0.975932 0.296314
O O9 0.425794 0.309738 0.198557
O O10 0.027730 0.905321 0.621122
O O11 0.996113 0.398363 0.580673
O O12 0.000000 0.000000 0.500000
#
# Coordination Sequence:
#
# PCOD9278378 Si02
#       6
#     8   8   4   8   8   8
#     4  11  24  43  66 103 140 171 224 292 366 417
#     4  12  25  44  66 100 140 187 238 282 347 418
#     4  10  20  42  72  98 128 160 232 296 328 400
#     4  11  24  42  70  99 131 179 229 291 350 409
#     4  12  25  44  66 100 140 187 238 282 347 418
#     4  11  24  42  70  99 131 179 229 291 350 409
#
# _framework density 23.024495000000002
#
# number of rings (size 3 to 8) (size 9 to 14) (size 15 to 20)
#    0.000    0.727    3.636    3.273    0.000   10.182 
#    0.000    0.000    0.000    0.000    0.000    0.000 
#    0.000    0.000    0.000    0.000    0.000    0.000 
#
# Total GULP energy -123070.388641 kJ/mol
# GULP energy per Si atom -5594.108575 kJ/mol
# Density = 2.297209 g / cm^3
# Si number density = 23.024495 Si / 1000 Ang^3
#
#
#
# Elastic Constant Matrix: (Units=GPa)
#
#
# Indices 1 2 3 4 5 6 
#
# 1 79.7401 -5.2326 30.7271 -0.0005 13.0067 -0.0007
# 2 -5.2326 59.5284 -8.0961 -0.0018 6.0627 -0.0014
# 3 30.7271 -8.0961 64.3225 -0.0004 4.2682 -0.0012
# 4 -0.0005 -0.0018 -0.0004 28.3867 0.0003 4.4458
# 5 13.0067 6.0627 4.2682 0.0003 37.5408 -0.0001
# 6 -0.0007 -0.0014 -0.0012 4.4458 -0.0001 33.9417
#
#
#
# Elastic Compliance Matrix: (Units=1/GPa)
#
#
# Indices 1 2 3 4 5 6 
#
# 1 0.016223 0.000936 -0.007304 0.000000 -0.004941 0.000000
# 2 0.000936 0.017494 0.001979 0.000001 -0.003374 0.000001
# 3 -0.007304 0.001979 0.019284 0.000000 0.000019 0.000001
# 4 0.000000 0.000001 0.000000 0.035966 -0.000001 -0.004711
# 5 -0.004941 -0.003374 0.000019 -0.000001 0.028893 0.000000
# 6 0.000000 0.000001 0.000001 -0.004711 0.000000 0.030079
#
#
# Mechanical properties :
#
#
# Convention : Reuss Voigt Hill
#
# Bulk Modulus (GPa) = 22.61350 26.48751 24.55051
# Shear Modulus (GPa) = 29.16190 32.38669 30.77430
#
# Velocity S-wave (km/s) = 3.56274 3.75456 3.65991
# Velocity P-wave (km/s) = 5.17368 5.50678 5.34283
#
# Compressibility (1/GPa) = 0.04422138
#
# Stress axis : x y z
#
# Youngs Moduli (GPa) = 61.64211 57.16326 51.85751
#
# Poissons Ratio (x) = -0.05350 0.37876
# Poissons Ratio (y) = -0.05769 -0.10261
# Poissons Ratio (z) = 0.45023 -0.11311
#
# Static dielectric constant tensor:
#      x y z
#    x 1.938390 0.000000 0.014440 
#    y 0.000000 1.807960 0.000000 
#    z 0.014440 0.000000 1.841560 
# 
# From -- ./inp_files/246524.got.cif
#   From: 2010.05.17/outbox.cif.g08.bks.cpg/sg15_124_cif.got.tgz:246524.got - 2010.06.03 18:47:42.
