data_PCOD9278326
_publ_section_title
;
Structure prediction by ZEFSAII (Michael W. Deem and Ramdas Pophale) SiO2 
 PCOD9278326
Probable space group: C 2/C
;
_chemical_formula_sum "Si O2"
_cell_formula_units_Z 56
_cell_length_a 12.008864
_cell_length_b 29.452443
_cell_length_c 9.126568
_cell_angle_alpha 90.000000
_cell_angle_beta 63.259441
_cell_angle_gamma 90.000000
_cell_volume 2882.756934
_symmetry_space_group_name_H-M "C 2/C"
_symmetry_group_IT_number 15
_symmetry_cell_setting 'monoclinic'
loop_
_space_group_symop_operation_xyz
x,y,z
-x,y,1/2-z
-x,-y,-z
x,-y,1/2+z
1/2+x,1/2+y,z
1/2-x,1/2+y,1/2-z
1/2-x,1/2-y,-z
1/2+x,1/2-y,1/2+z
loop_
_atom_site_type_symbol
_atom_site_label
_atom_site_fract_x
_atom_site_fract_y
_atom_site_fract_z
Si Si1 0.926492 0.963666 0.143688
Si Si2 0.100548 0.865579 0.482080
Si Si3 0.228980 0.536414 0.236275
Si Si4 0.327806 0.370210 0.723848
Si Si5 0.584807 0.019741 0.580426
Si Si6 0.851972 0.306316 0.823747
Si Si7 0.147736 0.800532 0.203229
O O1 0.000000 0.957932 0.250000
O O2 0.798230 0.990428 0.242528
O O3 0.901181 0.915695 0.086105
O O4 0.000000 0.000000 0.000000
O O5 0.151840 0.870868 0.614882
O O6 0.168814 0.830468 0.335510
O O7 0.956273 0.850157 0.583684
O O8 0.313106 0.580132 0.156762
O O9 0.169997 0.550639 0.428327
O O10 0.149663 0.519909 0.141557
O O11 0.209269 0.340421 0.754712
O O12 0.500000 0.044685 0.750000
O O13 0.500000 0.000000 0.500000
O O14 0.843403 0.253685 0.781055
O O15 0.000000 0.316336 0.750000
O O16 0.757419 0.311566 0.019968
O O17 0.000000 0.809502 0.250000
#
# Coordination Sequence:
#
# PCOD9278326 Si02
#       7
#     8   8   8   8   8   8   8
#     4  12  23  36  58  93 127 159 208 271 324 370
#     4  11  23  39  63  94 131 171 218 267 324 398
#     4  11  21  36  57  84 125 159 208 266 319 373
#     4  11  23  39  60  94 130 169 211 268 330 385
#     4   9  20  37  55  76 106 165 212 247 300 375
#     4  10  23  41  67  98 129 165 211 277 330 390
#     4  10  20  42  70  96 125 166 223 265 328 399
#
# _framework density 19.425848999999999
#
# number of rings (size 3 to 8) (size 9 to 14) (size 15 to 20)
#    0.000    1.429    2.857    3.000    0.000    2.286 
#    0.000    3.571    0.000    0.000    0.000    0.000 
#    0.000    0.000    0.000    0.000    0.000    0.000 
#
# Total GULP energy -155919.091737 kJ/mol
# GULP energy per Si atom -5568.538991 kJ/mol
# Density = 1.938163 g / cm^3
# Si number density = 19.425849 Si / 1000 Ang^3
#
#
#
# Elastic Constant Matrix: (Units=GPa)
#
#
# Indices 1 2 3 4 5 6 
#
# 1 124.6585 57.6679 47.2293 0.0000 12.2686 0.0000
# 2 57.6679 63.8198 51.6425 0.0000 16.3754 0.0000
# 3 47.2293 51.6425 116.8549 0.0000 11.2258 0.0000
# 4 0.0000 0.0000 0.0000 30.1919 0.0000 1.1627
# 5 12.2686 16.3754 11.2258 0.0000 34.6482 0.0000
# 6 0.0000 0.0000 0.0000 1.1627 0.0000 25.1887
#
#
#
# Elastic Compliance Matrix: (Units=1/GPa)
#
#
# Indices 1 2 3 4 5 6 
#
# 1 0.013824 -0.012726 -0.000073 0.000000 0.001143 0.000000
# 2 -0.012726 0.038657 -0.010960 0.000000 -0.010213 0.000000
# 3 -0.000073 -0.010960 0.013346 0.000000 0.000882 0.000000
# 4 0.000000 0.000000 0.000000 0.033181 0.000000 -0.001532
# 5 0.001143 -0.010213 0.000882 0.000000 0.032998 0.000000
# 6 0.000000 0.000000 0.000000 -0.001532 0.000000 0.039771
#
#
# Mechanical properties :
#
#
# Convention : Reuss Voigt Hill
#
# Bulk Modulus (GPa) = 54.61373 68.71252 61.66312
# Shear Modulus (GPa) = 22.18310 27.92530 25.05420
#
# Velocity S-wave (km/s) = 3.38292 3.79559 3.59518
# Velocity P-wave (km/s) = 6.59044 7.39305 7.00325
#
# Compressibility (1/GPa) = 0.01831041
#
# Stress axis : x y z
#
# Youngs Moduli (GPa) = 72.33736 25.86853 74.92923
#
# Poissons Ratio (x) = 0.32919 0.00548
# Poissons Ratio (y) = 0.92054 0.82119
# Poissons Ratio (z) = 0.00529 0.28351
#
# Static dielectric constant tensor:
#      x y z
#    x 1.771830 0.000000 -0.116890 
#    y 0.000000 1.669020 0.000000 
#    z -0.116890 0.000000 1.795170 
# 
# From -- ./inp_files/34216.got.cif
#   From: 2010.05.17/outbox.cif.g08.bks.cpg/sg15_18_cif.got.tgz:34216.got - 2010.06.03 18:47:42.
