data_PCOD9278906
_publ_section_title
;
Structure prediction by ZEFSAII (Michael W. Deem and Ramdas Pophale) SiO2 
 PCOD9278906
Probable space group: C 2/C
;
_chemical_formula_sum "Si O2"
_cell_formula_units_Z 56
_cell_length_a 11.295821
_cell_length_b 24.832409
_cell_length_c 10.979383
_cell_angle_alpha 90.000000
_cell_angle_beta 62.980923
_cell_angle_gamma 90.000000
_cell_volume 2743.606134
_symmetry_space_group_name_H-M "C 2/C"
_symmetry_group_IT_number 15
_symmetry_cell_setting 'monoclinic'
loop_
_space_group_symop_operation_xyz
x,y,z
-x,y,1/2-z
-x,-y,-z
x,-y,1/2+z
1/2+x,1/2+y,z
1/2-x,1/2+y,1/2-z
1/2-x,1/2-y,-z
1/2+x,1/2-y,1/2+z
loop_
_atom_site_type_symbol
_atom_site_label
_atom_site_fract_x
_atom_site_fract_y
_atom_site_fract_z
Si Si1 0.616381 0.665036 0.390963
Si Si2 0.614770 0.133441 0.096136
Si Si3 0.805317 0.722883 0.598391
Si Si4 0.427775 0.446494 0.666924
Si Si5 0.918011 0.508873 0.415245
Si Si6 0.897574 0.857871 0.192007
Si Si7 0.191455 0.042493 0.891277
O O1 0.743959 0.647199 0.409987
O O2 0.637406 0.727612 0.349774
O O3 0.609026 0.616069 0.298138
O O4 0.487439 0.661343 0.537198
O O5 0.500000 0.140325 0.250000
O O6 0.623647 0.071225 0.056581
O O7 0.596312 0.175900 0.994865
O O8 0.750000 0.750000 0.500000
O O9 0.685322 0.692295 0.719322
O O10 0.500000 0.469771 0.750000
O O11 0.311085 0.486224 0.681219
O O12 0.542397 0.448504 0.511204
O O13 0.795143 0.467803 0.451251
O O14 0.000000 0.502885 0.250000
O O15 0.000000 0.500000 0.500000
O O16 0.796334 0.905369 0.199643
O O17 0.000000 0.876640 0.250000
#
# Coordination Sequence:
#
# PCOD9278906 Si02
#       7
#     8   8   8   8   8   8   8
#     4  10  21  36  57  91 121 157 213 261 315 379
#     4  10  21  35  56  88 119 164 212 256 315 385
#     4  10  21  32  60  85 127 162 207 271 311 378
#     4  10  21  38  66  90 124 162 205 268 328 381
#     4  11  26  42  64  90 132 175 214 261 323 407
#     4  11  20  35  61  96 125 162 213 274 324 376
#     4  10  23  38  62  96 124 161 213 268 328 381
#
# _framework density 20.411092
#
# number of rings (size 3 to 8) (size 9 to 14) (size 15 to 20)
#    0.000    1.714    4.286    0.429    8.000    0.000 
#    0.000    0.000    3.143    1.714    0.000    0.000 
#    0.000    0.000    0.000    0.000    0.000    0.000 
#
# Total GULP energy -156058.748950 kJ/mol
# GULP energy per Si atom -5573.526748 kJ/mol
# Density = 2.036464 g / cm^3
# Si number density = 20.411092 Si / 1000 Ang^3
#
#
#
# Elastic Constant Matrix: (Units=GPa)
#
#
# Indices 1 2 3 4 5 6 
#
# 1 87.7094 53.5365 13.0683 0.0000 10.0445 0.0000
# 2 53.5365 143.0308 24.9294 0.0000 -5.2583 0.0000
# 3 13.0683 24.9294 45.9074 0.0000 -9.4412 0.0000
# 4 0.0000 0.0000 0.0000 -47.2508 0.0000 -19.9023
# 5 10.0445 -5.2583 -9.4412 0.0000 29.7475 0.0000
# 6 0.0000 0.0000 0.0000 -19.9023 0.0000 19.2210
#
#
#
# Elastic Compliance Matrix: (Units=1/GPa)
#
#
# Indices 1 2 3 4 5 6 
#
# 1 0.016270 -0.005843 -0.002997 0.000000 -0.007478 0.000000
# 2 -0.005843 0.009820 -0.003110 0.000000 0.002722 0.000000
# 3 -0.002997 -0.003110 0.026125 0.000000 0.008754 0.000000
# 4 0.000000 0.000000 0.000000 -0.014737 0.000000 -0.015259
# 5 -0.007478 0.002722 0.008754 0.000000 0.039400 0.000000
# 6 0.000000 0.000000 0.000000 -0.015259 0.000000 0.036227
#
#
# Mechanical properties :
#
#
# Convention : Reuss Voigt Hill
#
# Bulk Modulus (GPa) = 35.31398 51.07957 43.19677
# Shear Modulus (GPa) = 34.14269 12.68443 23.41356
#
# Velocity S-wave (km/s) = 4.09437 2.49559 3.39056
# Velocity P-wave (km/s) = 6.30006 5.77786 6.04460
#
# Compressibility (1/GPa) = 0.02831740
#
# Stress axis : x y z
#
# Youngs Moduli (GPa) = 61.46143 101.82785 38.27736
#
# Poissons Ratio (x) = 0.59494 0.11471
# Poissons Ratio (y) = 0.35909 0.11904
# Poissons Ratio (z) = 0.18418 0.31668
#
# Static dielectric constant tensor:
#      x y z
#    x 1.733170 0.000000 -0.017780 
#    y 0.000000 1.796750 0.000000 
#    z -0.017780 0.000000 1.775550 
# 
# From -- ./inp_files/90688.got.cif
#   From: 2010.05.17/outbox.cif.g08.bks.cpg/sg15_46_cif.got.tgz:90688.got - 2010.06.03 18:47:42.
