data_PCOD9278899
_publ_section_title
;
Structure prediction by ZEFSAII (Michael W. Deem and Ramdas Pophale) SiO2 
 PCOD9278899
Probable space group: C 2/C
;
_chemical_formula_sum "Si O2"
_cell_formula_units_Z 48
_cell_length_a 17.065948
_cell_length_b 6.344985
_cell_length_c 28.142709
_cell_angle_alpha 90.000000
_cell_angle_beta 54.036415
_cell_angle_gamma 90.000000
_cell_volume 2466.521863
_symmetry_space_group_name_H-M "C 2/C"
_symmetry_group_IT_number 15
_symmetry_cell_setting 'monoclinic'
loop_
_space_group_symop_operation_xyz
x,y,z
-x,y,1/2-z
-x,-y,-z
x,-y,1/2+z
1/2+x,1/2+y,z
1/2-x,1/2+y,1/2-z
1/2-x,1/2-y,-z
1/2+x,1/2-y,1/2+z
loop_
_atom_site_type_symbol
_atom_site_label
_atom_site_fract_x
_atom_site_fract_y
_atom_site_fract_z
Si Si1 0.074946 0.093836 0.436359
Si Si2 0.538987 0.654406 0.851695
Si Si3 0.757095 0.633741 0.855986
Si Si4 0.615478 0.009862 0.872813
Si Si5 0.912058 0.953991 0.816776
Si Si6 0.701011 0.742852 0.716938
O O1 0.050774 0.996662 0.392897
O O2 0.184335 0.020472 0.409817
O O3 0.075847 0.343999 0.428802
O O4 0.000000 0.000000 0.500000
O O5 0.456685 0.563964 0.846971
O O6 0.635230 0.678365 0.784702
O O7 0.530803 0.892781 0.874504
O O8 0.846148 0.749509 0.849166
O O9 0.795711 0.487953 0.798988
O O10 0.685399 0.821786 0.865412
O O11 0.689456 0.158139 0.816955
O O12 0.000000 0.895456 0.750000
O O13 0.847881 0.122322 0.810265
#
# Coordination Sequence:
#
# PCOD9278899 Si02
#       6
#     8   8   8   8   8   8
#     4  10  22  40  58  82 114 159 208 249 290 342
#     4  10  21  32  56  86 114 151 192 242 294 358
#     4   9  19  36  56  80 114 152 187 241 296 354
#     4   9  20  33  56  83 111 145 188 238 288 346
#     4   9  19  35  52  83 120 153 184 232 304 373
#     4   9  19  33  54  81 116 147 181 232 303 360
#
# _framework density 19.460602000000002
#
# number of rings (size 3 to 8) (size 9 to 14) (size 15 to 20)
#    0.000    2.667    0.000    0.000    7.000    8.667 
#    0.000    0.833    0.000   10.000    0.000    0.000 
#    0.000    0.000    0.000    0.000    0.000    0.000 
#
# Total GULP energy -133689.282994 kJ/mol
# GULP energy per Si atom -5570.386791 kJ/mol
# Density = 1.941631 g / cm^3
# Si number density = 19.460602 Si / 1000 Ang^3
#
#
#
# Elastic Constant Matrix: (Units=GPa)
#
#
# Indices 1 2 3 4 5 6 
#
# 1 92.3495 37.5906 25.3573 -0.0100 -1.3273 -0.0038
# 2 37.5906 90.3288 14.4277 -0.0211 3.9277 0.1007
# 3 25.3573 14.4277 57.1318 -0.0332 -3.3973 0.0181
# 4 -0.0100 -0.0211 -0.0332 21.9138 -0.0024 1.0210
# 5 -1.3273 3.9277 -3.3973 -0.0024 13.7250 -0.0031
# 6 -0.0038 0.1007 0.0181 1.0210 -0.0031 36.2825
#
#
#
# Elastic Compliance Matrix: (Units=1/GPa)
#
#
# Indices 1 2 3 4 5 6 
#
# 1 0.014348 -0.005254 -0.004942 -0.000007 0.001668 0.000019
# 2 -0.005254 0.013690 -0.001409 0.000010 -0.004775 -0.000039
# 3 -0.004942 -0.001409 0.020348 0.000028 0.004962 -0.000007
# 4 -0.000007 0.000010 0.000028 0.045693 0.000011 -0.001286
# 5 0.001668 -0.004775 0.004962 0.000011 0.075616 0.000017
# 6 0.000019 -0.000039 -0.000007 -0.001286 0.000017 0.027598
#
#
# Mechanical properties :
#
#
# Convention : Reuss Voigt Hill
#
# Bulk Modulus (GPa) = 39.72197 43.84013 41.78105
# Shear Modulus (GPa) = 21.84405 25.21322 23.52864
#
# Velocity S-wave (km/s) = 3.35397 3.60335 3.48090
# Velocity P-wave (km/s) = 5.95438 6.31575 6.13773
#
# Compressibility (1/GPa) = 0.02517499
#
# Stress axis : x y z
#
# Youngs Moduli (GPa) = 69.69555 73.04647 49.14519
#
# Poissons Ratio (x) = 0.38380 0.24289
# Poissons Ratio (y) = 0.36619 0.06925
# Poissons Ratio (z) = 0.34445 0.10293
#
# Static dielectric constant tensor:
#      x y z
#    x 1.713940 0.000000 -0.006760 
#    y 0.000000 1.767780 0.000010 
#    z -0.006760 0.000010 1.690190 
# 
# From -- ./inp_files/250829.got.cif
#   From: 2010.05.17/outbox.cif.g08.bks.cpg/sg15_126_cif.got.tgz:250829.got - 2010.06.03 18:47:42.
