data_PCOD9278233
_publ_section_title
;
Structure prediction by ZEFSAII (Michael W. Deem and Ramdas Pophale) SiO2 
 PCOD9278233
Probable space group: C 2/C
;
_chemical_formula_sum "Si O2"
_cell_formula_units_Z 60
_cell_length_a 21.691659
_cell_length_b 7.520740
_cell_length_c 22.940954
_cell_angle_alpha 90.000000
_cell_angle_beta 135.699360
_cell_angle_gamma 90.000000
_cell_volume 2613.867232
_symmetry_space_group_name_H-M "C 2/C"
_symmetry_group_IT_number 15
_symmetry_cell_setting 'monoclinic'
loop_
_space_group_symop_operation_xyz
x,y,z
-x,y,1/2-z
-x,-y,-z
x,-y,1/2+z
1/2+x,1/2+y,z
1/2-x,1/2+y,1/2-z
1/2-x,1/2-y,-z
1/2+x,1/2-y,1/2+z
loop_
_atom_site_type_symbol
_atom_site_label
_atom_site_fract_x
_atom_site_fract_y
_atom_site_fract_z
Si Si1 0.769330 0.682495 0.675654
Si Si2 0.000000 0.618092 0.250000
Si Si3 0.307376 0.555187 0.755449
Si Si4 0.500957 0.458877 0.570109
Si Si5 0.825040 0.069235 0.005018
Si Si6 0.119112 0.374145 0.738008
Si Si7 0.357134 0.045880 0.567025
Si Si8 0.512071 0.966102 0.440280
O O1 0.740202 0.584983 0.715424
O O2 0.706837 0.648847 0.578846
O O3 0.856586 0.568784 0.720661
O O4 0.777608 0.887451 0.697901
O O5 0.061621 0.723948 0.247887
O O6 0.064639 0.511881 0.337076
O O7 0.409540 0.528814 0.841196
O O8 0.299991 0.742909 0.717889
O O9 0.500000 0.500000 0.500000
O O10 0.414881 0.529577 0.547002
O O11 0.501716 0.244877 0.577816
O O12 0.739371 0.979077 0.977014
O O13 0.848599 0.239509 0.060751
O O14 0.062931 0.419522 0.642893
O O15 0.394641 0.992276 0.528434
O O16 0.500000 0.000000 0.500000
#
# Coordination Sequence:
#
# PCOD9278233 Si02
#       8
#     8   4   8   8   8   8   8   8
#     4  12  23  41  67  96 138 176 225 282 340 404
#     4  10  20  42  68  92 134 184 224 280 340 402
#     4  12  25  41  67 104 132 177 229 279 345 404
#     4  11  21  37  62  97 135 174 220 277 335 400
#     4  10  21  38  63  96 137 178 225 277 333 410
#     4  11  23  42  66  95 133 174 225 276 335 404
#     4   9  20  37  64  97 130 181 228 271 340 401
#     4  10  21  37  64  96 132 177 218 276 339 393
#
# _framework density 22.954492999999999
#
# number of rings (size 3 to 8) (size 9 to 14) (size 15 to 20)
#    0.000    1.333    5.333    0.800    1.867    0.000 
#    0.000    4.667    2.933    8.000    0.000    0.000 
#    0.000    0.000    0.000    0.000    0.000    0.000 
#
# Total GULP energy -167428.639494 kJ/mol
# GULP energy per Si atom -5580.954650 kJ/mol
# Density = 2.290225 g / cm^3
# Si number density = 22.954493 Si / 1000 Ang^3
#
#
#
# Elastic Constant Matrix: (Units=GPa)
#
#
# Indices 1 2 3 4 5 6 
#
# 1 135.4457 6.1206 -5.2394 0.0000 -0.9820 0.0001
# 2 6.1206 86.9817 -18.8606 0.0000 -4.7252 0.0006
# 3 -5.2394 -18.8606 30.8813 0.0000 -3.2507 0.0001
# 4 0.0000 0.0000 0.0000 21.8521 0.0000 1.9715
# 5 -0.9820 -4.7252 -3.2507 0.0000 35.9623 0.0000
# 6 0.0001 0.0006 0.0001 1.9715 0.0000 22.9172
#
#
#
# Elastic Compliance Matrix: (Units=1/GPa)
#
#
# Indices 1 2 3 4 5 6 
#
# 1 0.007441 -0.000264 0.001130 0.000000 0.000271 0.000000
# 2 -0.000264 0.013487 0.008458 0.000000 0.002529 0.000000
# 3 0.001130 0.008458 0.038224 0.000000 0.004597 0.000000
# 4 0.000000 0.000000 0.000000 0.046120 0.000000 -0.003968
# 5 0.000271 0.002529 0.004597 0.000000 0.028562 0.000000
# 6 0.000000 0.000000 0.000000 -0.003968 0.000000 0.043977
#
#
# Mechanical properties :
#
#
# Convention : Reuss Voigt Hill
#
# Bulk Modulus (GPa) = 12.85359 24.15000 18.50179
# Shear Modulus (GPa) = 27.01323 34.23220 30.62271
#
# Velocity S-wave (km/s) = 3.43420 3.86593 3.65644
# Velocity P-wave (km/s) = 4.61917 5.52005 5.08958
#
# Compressibility (1/GPa) = 0.07779929
#
# Stress axis : x y z
#
# Youngs Moduli (GPa) = 134.39736 74.14699 26.16186
#
# Poissons Ratio (x) = 0.01957 -0.02955
# Poissons Ratio (y) = 0.03547 -0.22129
# Poissons Ratio (z) = -0.15183 -0.62717
#
# Static dielectric constant tensor:
#      x y z
#    x 2.040880 0.000000 -0.021500 
#    y 0.000000 1.914960 0.000000 
#    z -0.021500 0.000000 1.899110 
# 
# From -- ./inp_files/281684.got.cif
#   From: 2010.05.17/outbox.cif.g08.bks.cpg/sg15_141_cif.got.tgz:281684.got - 2010.06.03 18:47:42.
