data_PCOD9278062
_publ_section_title
;
Structure prediction by ZEFSAII (Michael W. Deem and Ramdas Pophale) SiO2 
 PCOD9278062
Probable space group: C 2/C
;
_chemical_formula_sum "Si O2"
_cell_formula_units_Z 40
_cell_length_a 10.457467
_cell_length_b 9.989871
_cell_length_c 15.638565
_cell_angle_alpha 90.000000
_cell_angle_beta 90.466437
_cell_angle_gamma 90.000000
_cell_volume 1633.687143
_symmetry_space_group_name_H-M "C 2/C"
_symmetry_group_IT_number 15
_symmetry_cell_setting 'monoclinic'
loop_
_space_group_symop_operation_xyz
x,y,z
-x,y,1/2-z
-x,-y,-z
x,-y,1/2+z
1/2+x,1/2+y,z
1/2-x,1/2+y,1/2-z
1/2-x,1/2-y,-z
1/2+x,1/2-y,1/2+z
loop_
_atom_site_type_symbol
_atom_site_label
_atom_site_fract_x
_atom_site_fract_y
_atom_site_fract_z
Si Si1 0.959153 0.295347 0.340380
Si Si2 0.738665 0.509130 0.860087
Si Si3 0.601536 0.377857 0.502653
Si Si4 0.767391 0.291573 0.098520
Si Si5 0.006465 0.828564 0.161076
O O1 0.856908 0.411453 0.322918
O O2 0.897311 0.190750 0.406382
O O3 0.000000 0.235947 0.250000
O O4 0.091204 0.344435 0.384211
O O5 0.727030 0.558659 0.960093
O O6 0.746829 0.351808 0.854386
O O7 0.601491 0.557999 0.824102
O O8 0.500000 0.500000 0.500000
O O9 0.548881 0.273350 0.429648
O O10 0.649136 0.373002 0.136625
O O11 0.750000 0.250000 0.000000
O O12 0.000000 0.748649 0.250000
#
# Coordination Sequence:
#
# PCOD9278062 Si02
#       5
#     8   8   8   8   8
#     4  12  24  43  70  99 137 179 227 279 335 403
#     4  10  24  43  67  97 133 176 226 271 339 401
#     4  10  20  42  65  93 129 172 219 271 327 396
#     4  12  23  44  68  98 133 173 223 280 335 399
#     4  10  22  42  66  93 135 174 217 277 334 397
#
# _framework density 24.484490999999998
#
# number of rings (size 3 to 8) (size 9 to 14) (size 15 to 20)
#    1.200    0.000    4.000    1.800    0.000    4.800 
#    0.000    6.000    0.000    0.000    0.000    0.000 
#    0.000    0.000    0.000    0.000    0.000    0.000 
#
# Total GULP energy -111535.363142 kJ/mol
# GULP energy per Si atom -5576.768157 kJ/mol
# Density = 2.442876 g / cm^3
# Si number density = 24.484491 Si / 1000 Ang^3
#
#
#
# Elastic Constant Matrix: (Units=GPa)
#
#
# Indices 1 2 3 4 5 6 
#
# 1 131.0224 43.6224 10.2113 0.0000 4.9789 0.0000
# 2 43.6224 69.3052 5.1734 0.0000 2.3805 0.0000
# 3 10.2113 5.1734 119.2691 0.0000 -18.6171 0.0000
# 4 0.0000 0.0000 0.0000 16.0994 0.0000 -1.4083
# 5 4.9789 2.3805 -18.6171 0.0000 36.1533 0.0000
# 6 0.0000 0.0000 0.0000 -1.4083 0.0000 27.3954
#
#
#
# Elastic Compliance Matrix: (Units=1/GPa)
#
#
# Indices 1 2 3 4 5 6 
#
# 1 0.009754 -0.006034 -0.000784 0.000000 -0.001350 0.000000
# 2 -0.006034 0.018273 -0.000363 0.000000 -0.000559 0.000000
# 3 -0.000784 -0.000363 0.009230 0.000000 0.004885 0.000000
# 4 0.000000 0.000000 0.000000 0.062395 0.000000 0.003207
# 5 -0.001350 -0.000559 0.004885 0.000000 0.030398 0.000000
# 6 0.000000 0.000000 0.000000 0.003207 0.000000 0.036667
#
#
# Mechanical properties :
#
#
# Convention : Reuss Voigt Hill
#
# Bulk Modulus (GPa) = 43.68025 48.62343 46.15184
# Shear Modulus (GPa) = 26.49547 33.30227 29.89887
#
# Velocity S-wave (km/s) = 3.29315 3.69200 3.49827
# Velocity P-wave (km/s) = 5.68669 6.17062 5.93359
#
# Compressibility (1/GPa) = 0.02289364
#
# Stress axis : x y z
#
# Youngs Moduli (GPa) = 102.52468 54.72423 108.34526
#
# Poissons Ratio (x) = 0.33023 0.08494
# Poissons Ratio (y) = 0.61867 0.03936
# Poissons Ratio (z) = 0.08038 0.01988
#
# Static dielectric constant tensor:
#      x y z
#    x 1.963920 0.000000 0.034760 
#    y 0.000000 1.961660 0.000000 
#    z 0.034760 0.000000 2.115520 
# 
# From -- ./inp_files/141843.got.cif
#   From: 2010.05.17/outbox.cif.g08.bks.cpg/sg15_71_cif.got.tgz:141843.got - 2010.06.03 18:47:42.
