data_PCOD9278512
_publ_section_title
;
Structure prediction by ZEFSAII (Michael W. Deem and Ramdas Pophale) SiO2 
 PCOD9278512
Probable space group: C 2/C
;
_chemical_formula_sum "Si O2"
_cell_formula_units_Z 52
_cell_length_a 6.331044
_cell_length_b 29.534374
_cell_length_c 14.671984
_cell_angle_alpha 90.000000
_cell_angle_beta 108.356203
_cell_angle_gamma 90.000000
_cell_volume 2603.824486
_symmetry_space_group_name_H-M "C 2/C"
_symmetry_group_IT_number 15
_symmetry_cell_setting 'monoclinic'
loop_
_space_group_symop_operation_xyz
x,y,z
-x,y,1/2-z
-x,-y,-z
x,-y,1/2+z
1/2+x,1/2+y,z
1/2-x,1/2+y,1/2-z
1/2-x,1/2-y,-z
1/2+x,1/2-y,1/2+z
loop_
_atom_site_type_symbol
_atom_site_label
_atom_site_fract_x
_atom_site_fract_y
_atom_site_fract_z
Si Si1 0.554560 0.556249 0.157578
Si Si2 0.188740 0.658483 0.848609
Si Si3 0.904370 0.107118 0.522020
Si Si4 0.500000 0.001570 0.250000
Si Si5 0.813315 0.478161 0.410817
Si Si6 0.996559 0.755529 0.351885
Si Si7 0.089020 0.310759 0.017870
O O1 0.500000 0.576389 0.250000
O O2 0.384740 0.514567 0.122540
O O3 0.799228 0.534171 0.191420
O O4 0.532726 0.589711 0.069802
O O5 0.378426 0.621349 0.891332
O O6 0.316388 0.704207 0.834364
O O7 0.000000 0.646483 0.750000
O O8 0.072989 0.668451 0.929294
O O9 0.777521 0.067348 0.557566
O O10 0.741690 0.150202 0.494940
O O11 0.413864 0.972804 0.323637
O O12 0.000000 0.500000 0.500000
O O13 0.961550 0.717598 0.423597
O O14 0.236626 0.777622 0.407408
O O15 0.000000 0.737315 0.250000
#
# Coordination Sequence:
#
# PCOD9278512 Si02
#       7
#     8   8   8   4   8   8   8
#     4  10  23  44  66  92 128 180 224 268 328 394
#     4  11  23  43  67  97 135 170 206 272 334 390
#     4  11  25  42  63  99 134 168 223 275 329 385
#     4  10  22  42  66  94 120 180 232 266 328 386
#     4  11  23  43  67  89 132 180 223 272 325 389
#     4  10  20  43  69  92 125 168 216 253 326 404
#     4  10  23  41  65  95 128 168 209 271 322 387
#
# _framework density 19.970624999999998
#
# number of rings (size 3 to 8) (size 9 to 14) (size 15 to 20)
#    0.000    1.538    3.077    0.923    2.154    0.000 
#   15.231    0.000    0.000    0.000    0.000    0.000 
#    0.000    0.000    0.000    0.000    0.000    0.000 
#
# Total GULP energy -145403.939005 kJ/mol
# GULP energy per Si atom -5592.459193 kJ/mol
# Density = 1.992517 g / cm^3
# Si number density = 19.970625 Si / 1000 Ang^3
#
#
#
# Elastic Constant Matrix: (Units=GPa)
#
#
# Indices 1 2 3 4 5 6 
#
# 1 91.1461 28.8924 51.2154 0.0000 9.5848 0.0000
# 2 28.8924 68.3607 66.3544 0.0000 0.8171 0.0000
# 3 51.2154 66.3544 146.8038 0.0000 -3.9561 0.0000
# 4 0.0000 0.0000 0.0000 25.1574 0.0000 -3.2567
# 5 9.5848 0.8171 -3.9561 0.0000 41.7838 0.0000
# 6 0.0000 0.0000 0.0000 -3.2567 0.0000 7.5970
#
#
#
# Elastic Compliance Matrix: (Units=1/GPa)
#
#
# Indices 1 2 3 4 5 6 
#
# 1 0.014342 -0.001899 -0.004244 0.000000 -0.003655 0.000000
# 2 -0.001899 0.026425 -0.011313 0.000000 -0.001152 0.000000
# 3 -0.004244 -0.011313 0.013472 0.000000 0.002470 0.000000
# 4 0.000000 0.000000 0.000000 0.042085 0.000000 0.018041
# 5 -0.003655 -0.001152 0.002470 0.000000 0.025027 0.000000
# 6 0.000000 0.000000 0.000000 0.018041 0.000000 0.139364
#
#
# Mechanical properties :
#
#
# Convention : Reuss Voigt Hill
#
# Bulk Modulus (GPa) = 51.73531 66.58167 59.15849
# Shear Modulus (GPa) = 16.55245 25.56420 21.05833
#
# Velocity S-wave (km/s) = 2.88208 3.58172 3.25078
# Velocity P-wave (km/s) = 6.08581 7.10754 6.61643
#
# Compressibility (1/GPa) = 0.01932916
#
# Stress axis : x y z
#
# Youngs Moduli (GPa) = 69.72421 37.84266 74.22698
#
# Poissons Ratio (x) = 0.07185 0.31501
# Poissons Ratio (y) = 0.13239 0.83971
# Poissons Ratio (z) = 0.29590 0.42810
#
# Static dielectric constant tensor:
#      x y z
#    x 1.695630 0.000000 -0.006910 
#    y 0.000000 1.680120 0.000000 
#    z -0.006910 0.000000 1.692910 
# 
# From -- ./inp_files/130854.got.cif
#   From: 2010.05.17/outbox.cif.g08.bks.cpg/sg15_66_cif.got.tgz:130854.got - 2010.06.03 18:47:42.
