data_PCOD9278939
_publ_section_title
;
Structure prediction by ZEFSAII (Michael W. Deem and Ramdas Pophale) SiO2 
 PCOD9278939
Probable space group: C 2/C
;
_chemical_formula_sum "Si O2"
_cell_formula_units_Z 36
_cell_length_a 25.398851
_cell_length_b 11.660324
_cell_length_c 13.826454
_cell_angle_alpha 90.000000
_cell_angle_beta 161.602638
_cell_angle_gamma 90.000000
_cell_volume 1292.349134
_symmetry_space_group_name_H-M "C 2/C"
_symmetry_group_IT_number 15
_symmetry_cell_setting 'monoclinic'
loop_
_space_group_symop_operation_xyz
x,y,z
-x,y,1/2-z
-x,-y,-z
x,-y,1/2+z
1/2+x,1/2+y,z
1/2-x,1/2+y,1/2-z
1/2-x,1/2-y,-z
1/2+x,1/2-y,1/2+z
loop_
_atom_site_type_symbol
_atom_site_label
_atom_site_fract_x
_atom_site_fract_y
_atom_site_fract_z
Si Si1 0.020098 0.072450 0.679507
Si Si2 0.191270 0.892877 0.304240
Si Si3 0.926160 0.683837 0.825618
Si Si4 0.651105 0.817592 0.105014
Si Si5 0.000000 0.307334 0.250000
O O1 0.948142 0.198649 0.565294
O O2 0.000000 0.019422 0.750000
O O3 0.194445 0.080515 0.924839
O O4 0.897858 0.001218 0.399034
O O5 0.337516 0.868502 0.483535
O O6 0.067693 0.782710 0.083939
O O7 0.750000 0.750000 0.500000
O O8 0.905524 0.621744 0.893425
O O9 0.969158 0.625605 0.797182
O O10 0.840763 0.773779 0.455703
#
# Coordination Sequence:
#
# PCOD9278939 Si02
#       5
#     8   8   8   8   4
#     4  10  21  33  53  81 103 137 177 212 261 313
#     4   9  19  34  51  76 108 133 176 217 255 309
#     4   8  14  24  47  78  94 127 161 215 258 292
#     4   9  17  31  51  76 103 136 173 216 262 302
#     4   8  14  26  48  72 100 124 168 212 252 296
#
# _framework density 27.856248999999998
#
# number of rings (size 3 to 8) (size 9 to 14) (size 15 to 20)
#    0.000    3.111    0.000    0.000    9.333    0.889 
#    0.000    0.000    2.444   12.000    0.000    0.000 
#    0.000    0.000    0.000    0.000    0.000    0.000 
#
# Total GULP energy -100519.028584 kJ/mol
# GULP energy per Si atom -5584.390477 kJ/mol
# Density = 2.779285 g / cm^3
# Si number density = 27.856249 Si / 1000 Ang^3
#
#
#
# Elastic Constant Matrix: (Units=GPa)
#
#
# Indices 1 2 3 4 5 6 
#
# 1 395.5959 67.5303 43.9317 0.0000 21.6655 0.0000
# 2 67.5303 81.0392 24.2282 0.0000 -13.5549 0.0000
# 3 43.9317 24.2282 49.1662 0.0000 21.7090 0.0000
# 4 0.0000 0.0000 0.0000 110.4101 0.0000 128.7995
# 5 21.6655 -13.5549 21.7090 0.0000 41.2344 0.0000
# 6 0.0000 0.0000 0.0000 128.7995 0.0000 259.1949
#
#
#
# Elastic Compliance Matrix: (Units=1/GPa)
#
#
# Indices 1 2 3 4 5 6 
#
# 1 0.003212 -0.003028 -0.000252 0.000000 -0.002551 0.000000
# 2 -0.003028 0.022651 -0.016216 0.000000 0.017574 0.000000
# 3 -0.000252 -0.016216 0.040194 0.000000 -0.026359 0.000000
# 4 0.000000 0.000000 0.000000 0.021549 0.000000 -0.010708
# 5 -0.002551 0.017574 -0.026359 0.000000 0.045247 0.000000
# 6 0.000000 0.000000 0.000000 -0.010708 0.000000 0.009179
#
#
# Mechanical properties :
#
#
# Convention : Reuss Voigt Hill
#
# Bulk Modulus (GPa) = 36.94782 88.57574 62.76178
# Shear Modulus (GPa) = 26.30955 108.17529 67.24242
#
# Velocity S-wave (km/s) = 3.07657 6.23841 4.91848
# Velocity P-wave (km/s) = 5.09047 9.15187 7.40505
#
# Compressibility (1/GPa) = 0.02706520
#
# Stress axis : x y z
#
# Youngs Moduli (GPa) = 311.28928 44.14869 24.87938
#
# Poissons Ratio (x) = 0.13370 0.00627
# Poissons Ratio (y) = 0.94268 0.40344
# Poissons Ratio (z) = 0.07840 0.71591
#
# Static dielectric constant tensor:
#      x y z
#    x 2.373080 0.000000 -0.056120 
#    y 0.000000 2.078960 0.000000 
#    z -0.056120 0.000000 2.420750 
# 
# From -- ./inp_files/84995.got.cif
#   From: 2010.05.17/outbox.cif.g08.bks.cpg/sg15_43_cif.got.tgz:84995.got - 2010.06.03 18:47:42.
