data_PCOD9278924
_publ_section_title
;
Structure prediction by ZEFSAII (Michael W. Deem and Ramdas Pophale) SiO2 
 PCOD9278924
Probable space group: C 2/C
;
_chemical_formula_sum "Si O2"
_cell_formula_units_Z 60
_cell_length_a 23.259796
_cell_length_b 18.721183
_cell_length_c 8.880086
_cell_angle_alpha 90.000000
_cell_angle_beta 115.622540
_cell_angle_gamma 90.000000
_cell_volume 3486.585805
_symmetry_space_group_name_H-M "C 2/C"
_symmetry_group_IT_number 15
_symmetry_cell_setting 'monoclinic'
loop_
_space_group_symop_operation_xyz
x,y,z
-x,y,1/2-z
-x,-y,-z
x,-y,1/2+z
1/2+x,1/2+y,z
1/2-x,1/2+y,1/2-z
1/2-x,1/2-y,-z
1/2+x,1/2-y,1/2+z
loop_
_atom_site_type_symbol
_atom_site_label
_atom_site_fract_x
_atom_site_fract_y
_atom_site_fract_z
Si Si1 0.804275 0.303132 0.256306
Si Si2 0.360388 0.316192 0.988655
Si Si3 0.000000 0.981765 0.750000
Si Si4 0.883414 0.850474 0.358724
Si Si5 0.248035 0.090048 0.292742
Si Si6 0.529150 0.599183 0.013861
Si Si7 0.670712 0.781015 0.552049
Si Si8 0.268411 0.437414 0.370312
O O1 0.840431 0.264770 0.432296
O O2 0.736181 0.263894 0.152627
O O3 0.785669 0.384723 0.257704
O O4 0.839837 0.291163 0.137932
O O5 0.309491 0.363398 0.839898
O O6 0.359916 0.336939 0.161994
O O7 0.428160 0.336395 0.993877
O O8 0.043981 0.932384 0.695154
O O9 0.962723 0.034474 0.595654
O O10 0.954887 0.880276 0.433846
O O11 0.880475 0.772940 0.436080
O O12 0.835668 0.906753 0.384098
O O13 0.310807 0.141242 0.359919
O O14 0.234440 0.072950 0.452807
O O15 0.246956 0.017033 0.198812
#
# Coordination Sequence:
#
# PCOD9278924 Si02
#       8
#     8   8   4   8   8   8   8   8
#     4   8  17  34  49  68  95 125 161 203 242 287
#     4  11  21  33  50  70 100 132 167 201 238 285
#     4  10  24  38  48  62 108 130 170 202 236 270
#     4  11  21  33  50  70 100 132 167 201 238 285
#     4  10  21  33  50  73  99 127 163 202 246 292
#     4  11  24  36  48  72  97 136 166 202 236 280
#     4   8  17  34  49  68  95 125 161 203 242 287
#     4  10  21  33  50  73  99 127 163 202 246 292
#
# _framework density 17.208811000000001
#
# number of rings (size 3 to 8) (size 9 to 14) (size 15 to 20)
#    0.000    2.133    1.333    3.200    7.467    5.867 
#    0.000    0.000    0.000    0.000    0.000    0.933 
#    0.000    0.000    0.000    0.000    0.000    0.000 
#
# Total GULP energy -167292.831903 kJ/mol
# GULP energy per Si atom -5576.427730 kJ/mol
# Density = 1.716964 g / cm^3
# Si number density = 17.208811 Si / 1000 Ang^3
#
#
#
# Elastic Constant Matrix: (Units=GPa)
#
#
# Indices 1 2 3 4 5 6 
#
# 1 31.1861 15.7822 10.9940 0.0000 -6.6333 0.0000
# 2 15.7822 89.7600 18.6820 0.0000 0.1876 0.0000
# 3 10.9940 18.6820 49.4170 0.0000 -7.3721 0.0000
# 4 0.0000 0.0000 0.0000 25.0254 0.0000 -6.3921
# 5 -6.6333 0.1876 -7.3721 0.0000 13.9855 0.0000
# 6 0.0000 0.0000 0.0000 -6.3921 0.0000 13.9222
#
#
#
# Elastic Compliance Matrix: (Units=1/GPa)
#
#
# Indices 1 2 3 4 5 6 
#
# 1 0.040300 -0.006279 -0.004046 0.000000 0.017066 0.000000
# 2 -0.006279 0.013172 -0.004399 0.000000 -0.005474 0.000000
# 3 -0.004046 -0.004399 0.024444 0.000000 0.011025 0.000000
# 4 0.000000 0.000000 0.000000 0.045268 0.000000 0.020784
# 5 0.017066 -0.005474 0.011025 0.000000 0.085482 0.000000
# 6 0.000000 0.000000 0.000000 0.020784 0.000000 0.081370
#
#
# Mechanical properties :
#
#
# Convention : Reuss Voigt Hill
#
# Bulk Modulus (GPa) = 20.63276 29.03106 24.83191
# Shear Modulus (GPa) = 14.89690 18.91360 16.90525
#
# Velocity S-wave (km/s) = 2.94539 3.31881 3.13766
# Velocity P-wave (km/s) = 4.85621 5.62072 5.25240
#
# Compressibility (1/GPa) = 0.04846661
#
# Stress axis : x y z
#
# Youngs Moduli (GPa) = 24.81416 75.91882 40.90994
#
# Poissons Ratio (x) = 0.47672 0.16551
# Poissons Ratio (y) = 0.15582 0.17997
# Poissons Ratio (z) = 0.10039 0.33399
#
# Static dielectric constant tensor:
#      x y z
#    x 1.592150 0.000000 -0.021010 
#    y 0.000000 1.613430 0.000000 
#    z -0.021010 0.000000 1.605500 
# 
# From -- ./inp_files/62731.got.cif
#   From: 2010.05.17/outbox.cif.g08.bks.cpg/sg15_32_cif.got.tgz:62731.got - 2010.06.03 18:47:42.
