data_PCOD9278696
_publ_section_title
;
Structure prediction by ZEFSAII (Michael W. Deem and Ramdas Pophale) SiO2 
 PCOD9278696
Probable space group: C 2/C
;
_chemical_formula_sum "Si O2"
_cell_formula_units_Z 32
_cell_length_a 12.520568
_cell_length_b 7.035663
_cell_length_c 14.124649
_cell_angle_alpha 90.000000
_cell_angle_beta 73.638369
_cell_angle_gamma 90.000000
_cell_volume 1193.858859
_symmetry_space_group_name_H-M "C 2/C"
_symmetry_group_IT_number 15
_symmetry_cell_setting 'monoclinic'
loop_
_space_group_symop_operation_xyz
x,y,z
-x,y,1/2-z
-x,-y,-z
x,-y,1/2+z
1/2+x,1/2+y,z
1/2-x,1/2+y,1/2-z
1/2-x,1/2-y,-z
1/2+x,1/2-y,1/2+z
loop_
_atom_site_type_symbol
_atom_site_label
_atom_site_fract_x
_atom_site_fract_y
_atom_site_fract_z
Si Si1 0.912227 0.785507 0.948667
Si Si2 0.000000 0.996044 0.750000
Si Si3 0.500000 0.000000 0.500000
Si Si4 0.772143 0.562709 0.433665
Si Si5 0.607395 0.864887 0.780547
O O1 0.934624 0.872548 0.842126
O O2 0.018428 0.740683 0.984464
O O3 0.884277 0.553715 0.944834
O O4 0.819365 0.904476 0.022933
O O5 0.917448 0.139088 0.715706
O O6 0.402449 0.954786 0.615180
O O7 0.750000 0.750000 0.500000
O O8 0.792794 0.599525 0.317908
O O9 0.500000 0.942439 0.750000
#
# Coordination Sequence:
#
# PCOD9278696 Si02
#       5
#     8   4   4   8   8
#     4  11  23  39  72  99 135 186 234 295 362 438
#     4  10  20  44  70  98 134 196 226 300 378 432
#     4  12  24  44  68 110 136 190 246 298 366 444
#     4  11  21  45  67  98 140 185 235 296 368 424
#     4  10  21  43  69  98 140 184 238 300 365 440
#
# _framework density 26.803837999999999
#
# number of rings (size 3 to 8) (size 9 to 14) (size 15 to 20)
#    0.750    0.500    5.000    1.500    0.000    1.000 
#    4.500    0.000    0.000    0.000    0.000    0.000 
#    0.000    0.000    0.000    0.000    0.000    0.000 
#
# Total GULP energy -89190.383264 kJ/mol
# GULP energy per Si atom -5574.398954 kJ/mol
# Density = 2.674283 g / cm^3
# Si number density = 26.803838 Si / 1000 Ang^3
#
#
#
# Elastic Constant Matrix: (Units=GPa)
#
#
# Indices 1 2 3 4 5 6 
#
# 1 76.5377 58.1136 35.3743 0.0000 -5.7902 0.0000
# 2 58.1136 189.5607 108.0615 0.0000 -23.7420 0.0000
# 3 35.3743 108.0615 294.3174 0.0000 -7.5596 0.0000
# 4 0.0000 0.0000 0.0000 24.5249 0.0000 -15.6136
# 5 -5.7902 -23.7420 -7.5596 0.0000 34.2415 0.0000
# 6 0.0000 0.0000 0.0000 -15.6136 0.0000 38.9866
#
#
#
# Elastic Compliance Matrix: (Units=1/GPa)
#
#
# Indices 1 2 3 4 5 6 
#
# 1 0.017055 -0.005244 -0.000144 0.000000 -0.000784 0.000000
# 2 -0.005244 0.008913 -0.002521 0.000000 0.004737 0.000000
# 3 -0.000144 -0.002521 0.004319 0.000000 -0.000819 0.000000
# 4 0.000000 0.000000 0.000000 0.054729 0.000000 0.021918
# 5 -0.000784 0.004737 -0.000819 0.000000 0.032176 0.000000
# 6 0.000000 0.000000 0.000000 0.021918 0.000000 0.034428
#
#
# Mechanical properties :
#
#
# Convention : Reuss Voigt Hill
#
# Bulk Modulus (GPa) = 69.11442 107.05719 88.08581
# Shear Modulus (GPa) = 29.02563 43.47504 36.25033
#
# Velocity S-wave (km/s) = 3.29430 4.03174 3.68153
# Velocity P-wave (km/s) = 6.34911 7.85499 7.14185
#
# Compressibility (1/GPa) = 0.01446876
#
# Stress axis : x y z
#
# Youngs Moduli (GPa) = 58.63439 112.19165 231.50833
#
# Poissons Ratio (x) = 0.58837 0.03344
# Poissons Ratio (y) = 0.30750 0.58354
# Poissons Ratio (z) = 0.00847 0.28279
#
# Static dielectric constant tensor:
#      x y z
#    x 2.292540 0.000000 -0.020640 
#    y 0.000000 2.167730 0.000000 
#    z -0.020640 0.000000 2.025710 
# 
# From -- ./inp_files/212562.got.cif
#   From: 2010.05.17/outbox.cif.g08.bks.cpg/sg15_107_cif.got.tgz:212562.got - 2010.06.03 18:47:42.
