data_PCOD9278851
_publ_section_title
;
Structure prediction by ZEFSAII (Michael W. Deem and Ramdas Pophale) SiO2 
 PCOD9278851
Probable space group: C 2/C
;
_chemical_formula_sum "Si O2"
_cell_formula_units_Z 60
_cell_length_a 12.547878
_cell_length_b 18.045848
_cell_length_c 11.765044
_cell_angle_alpha 90.000000
_cell_angle_beta 91.829141
_cell_angle_gamma 90.000000
_cell_volume 2662.684986
_symmetry_space_group_name_H-M "C 2/C"
_symmetry_group_IT_number 15
_symmetry_cell_setting 'monoclinic'
loop_
_space_group_symop_operation_xyz
x,y,z
-x,y,1/2-z
-x,-y,-z
x,-y,1/2+z
1/2+x,1/2+y,z
1/2-x,1/2+y,1/2-z
1/2-x,1/2-y,-z
1/2+x,1/2-y,1/2+z
loop_
_atom_site_type_symbol
_atom_site_label
_atom_site_fract_x
_atom_site_fract_y
_atom_site_fract_z
Si Si1 0.500000 0.043220 0.250000
Si Si2 0.832190 0.023292 0.157981
Si Si3 0.610232 0.930638 0.400911
Si Si4 0.382375 0.724368 0.736835
Si Si5 0.664947 0.860067 0.630817
Si Si6 0.188776 0.384694 0.180990
Si Si7 0.188622 0.676986 0.457121
Si Si8 0.175484 0.969455 0.584050
O O1 0.400127 0.093684 0.276646
O O2 0.524539 0.991742 0.359969
O O3 0.783985 0.105467 0.136747
O O4 0.877306 0.022072 0.290805
O O5 0.730497 0.967690 0.163423
O O6 0.881256 0.992575 0.039009
O O7 0.607887 0.882897 0.512941
O O8 0.620666 0.879448 0.290795
O O9 0.722221 0.975981 0.411347
O O10 0.500000 0.691748 0.750000
O O11 0.343252 0.773484 0.841907
O O12 0.295687 0.663134 0.704018
O O13 0.386841 0.786919 0.638591
O O14 0.132826 0.357577 0.065099
O O15 0.250000 0.750000 0.500000
O O16 0.274311 0.613881 0.422748
#
# Coordination Sequence:
#
# PCOD9278851 Si02
#       8
#     4   8   8   8   8   8   8   8
#     4  12  18  32  48  78 110 128 170 204 252 318
#     4   9  16  30  49  70 100 133 169 203 247 311
#     4  10  21  31  48  73 105 144 163 204 256 316
#     4  11  21  32  51  78 106 136 172 219 263 300
#     4  11  20  31  49  78 105 133 163 207 264 317
#     4   9  19  35  49  70 106 139 177 206 249 315
#     4   9  17  30  49  70  98 132 172 213 250 305
#     4   9  15  28  45  69  98 129 168 201 246 306
#
# _framework density 22.533646999999998
#
# number of rings (size 3 to 8) (size 9 to 14) (size 15 to 20)
#    0.000    2.133    4.667    0.400    0.000    1.600 
#    0.000    0.000    0.000    0.000    0.000   45.733 
#    2.000    0.000    0.000    0.000    0.000    0.000 
#
# Total GULP energy -167140.316097 kJ/mol
# GULP energy per Si atom -5571.343870 kJ/mol
# Density = 2.248236 g / cm^3
# Si number density = 22.533647 Si / 1000 Ang^3
#
#
#
# Elastic Constant Matrix: (Units=GPa)
#
#
# Indices 1 2 3 4 5 6 
#
# 1 42.8414 17.7334 12.2347 0.0000 -1.9491 0.0000
# 2 17.7334 42.9288 4.7412 0.0000 -1.3404 0.0000
# 3 12.2347 4.7412 137.5791 0.0000 9.4806 0.0000
# 4 0.0000 0.0000 0.0000 16.4830 0.0000 2.9437
# 5 -1.9491 -1.3404 9.4806 0.0000 10.3544 0.0000
# 6 0.0000 0.0000 0.0000 2.9437 0.0000 14.0512
#
#
#
# Elastic Compliance Matrix: (Units=1/GPa)
#
#
# Indices 1 2 3 4 5 6 
#
# 1 0.029171 -0.011559 -0.002637 0.000000 0.006410 0.000000
# 2 -0.011559 0.028121 -0.000045 0.000000 0.001506 0.000000
# 3 -0.002637 -0.000045 0.008047 0.000000 -0.007870 0.000000
# 4 0.000000 0.000000 0.000000 0.063027 0.000000 -0.013204
# 5 0.006410 0.001506 -0.007870 0.000000 0.105185 0.000000
# 6 0.000000 0.000000 0.000000 -0.013204 0.000000 0.073934
#
#
# Mechanical properties :
#
#
# Convention : Reuss Voigt Hill
#
# Bulk Modulus (GPa) = 27.13203 32.52975 29.83089
# Shear Modulus (GPa) = 14.35736 20.75373 17.55555
#
# Velocity S-wave (km/s) = 2.52693 3.03811 2.79423
# Velocity P-wave (km/s) = 4.53659 5.17438 4.86594
#
# Compressibility (1/GPa) = 0.03685680
#
# Stress axis : x y z
#
# Youngs Moduli (GPa) = 34.28026 35.56037 124.27023
#
# Poissons Ratio (x) = 0.41104 0.32776
# Poissons Ratio (y) = 0.39624 0.00559
# Poissons Ratio (z) = 0.09041 0.00160
#
# Static dielectric constant tensor:
#      x y z
#    x 1.840950 0.000000 -0.002550 
#    y 0.000000 1.811440 0.000000 
#    z -0.002550 0.000000 2.000200 
# 
# From -- ./inp_files/98312.got.cif
#   From: 2010.05.17/outbox.cif.g08.bks.cpg/sg15_50_cif.got.tgz:98312.got - 2010.06.03 18:47:42.
