data_PCOD9278990
_publ_section_title
;
Structure prediction by ZEFSAII (Michael W. Deem and Ramdas Pophale) SiO2 
 PCOD9278990
Probable space group: C 2/C
;
_chemical_formula_sum "Si O2"
_cell_formula_units_Z 44
_cell_length_a 11.814436
_cell_length_b 18.719723
_cell_length_c 16.302411
_cell_angle_alpha 90.000000
_cell_angle_beta 142.824077
_cell_angle_gamma 90.000000
_cell_volume 2178.668813
_symmetry_space_group_name_H-M "C 2/C"
_symmetry_group_IT_number 15
_symmetry_cell_setting 'monoclinic'
loop_
_space_group_symop_operation_xyz
x,y,z
-x,y,1/2-z
-x,-y,-z
x,-y,1/2+z
1/2+x,1/2+y,z
1/2-x,1/2+y,1/2-z
1/2-x,1/2-y,-z
1/2+x,1/2-y,1/2+z
loop_
_atom_site_type_symbol
_atom_site_label
_atom_site_fract_x
_atom_site_fract_y
_atom_site_fract_z
Si Si1 0.315585 0.045914 0.906156
Si Si2 0.166105 0.178434 0.912229
Si Si3 0.640204 0.384943 0.154395
Si Si4 0.500000 0.555137 0.250000
Si Si5 0.499705 0.208981 0.847000
Si Si6 0.619758 0.359013 0.961129
O O1 0.308118 0.122882 0.948261
O O2 0.223264 0.056572 0.763289
O O3 0.171630 0.995537 0.870591
O O4 0.500000 0.000000 0.000000
O O5 0.000000 0.193559 0.750000
O O6 0.057346 0.138414 0.922747
O O7 0.250000 0.250000 0.000000
O O8 0.797836 0.322471 0.250539
O O9 0.626669 0.400119 0.050526
O O10 0.520403 0.605255 0.183479
O O11 0.500000 0.228909 0.750000
O O12 0.551603 0.277118 0.931388
O O13 0.668523 0.151282 0.951959
#
# Coordination Sequence:
#
# PCOD9278990 Si02
#       6
#     8   8   8   4   8   8
#     4  11  24  45  65  89 132 176 216 269 344 403
#     4  10  23  45  66  97 134 172 228 285 339 410
#     4  10  21  39  63  89 126 169 214 276 324 400
#     4  12  22  42  60  90 130 168 204 270 330 406
#     4   9  18  36  56  94 127 160 210 272 321 383
#     4  10  21  33  62  94 126 163 216 261 328 398
#
# _framework density 20.195817999999999
#
# number of rings (size 3 to 8) (size 9 to 14) (size 15 to 20)
#    0.000    1.818    3.636    1.091    5.091    2.182 
#    0.000    0.000    0.000    0.000    0.000    0.000 
#    0.000    0.000    0.000    0.000    0.000    0.000 
#
# Total GULP energy -122638.807110 kJ/mol
# GULP energy per Si atom -5574.491232 kJ/mol
# Density = 2.014985 g / cm^3
# Si number density = 20.195818 Si / 1000 Ang^3
#
#
#
# Elastic Constant Matrix: (Units=GPa)
#
#
# Indices 1 2 3 4 5 6 
#
# 1 72.0534 29.9971 16.9091 -0.0001 0.7290 -0.0001
# 2 29.9971 83.6656 36.6815 -0.0001 -1.1491 0.0000
# 3 16.9091 36.6815 53.1023 -0.0004 0.6073 -0.0002
# 4 -0.0001 -0.0001 -0.0004 49.3593 -0.0002 1.5331
# 5 0.7290 -1.1491 0.6073 -0.0002 36.4923 -0.0001
# 6 -0.0001 0.0000 -0.0002 1.5331 -0.0001 18.6250
#
#
#
# Elastic Compliance Matrix: (Units=1/GPa)
#
#
# Indices 1 2 3 4 5 6 
#
# 1 0.016424 -0.005170 -0.001653 0.000000 -0.000463 0.000000
# 2 -0.005170 0.018792 -0.011345 0.000000 0.000884 0.000000
# 3 -0.001653 -0.011345 0.027204 0.000000 -0.000777 0.000000
# 4 0.000000 0.000000 0.000000 0.020312 0.000000 -0.001672
# 5 -0.000463 0.000884 -0.000777 0.000000 0.027453 0.000000
# 6 0.000000 0.000000 0.000000 -0.001672 0.000000 0.053829
#
#
# Mechanical properties :
#
#
# Convention : Reuss Voigt Hill
#
# Bulk Modulus (GPa) = 38.33874 41.77740 40.05807
# Shear Modulus (GPa) = 23.91851 29.24423 26.58137
#
# Velocity S-wave (km/s) = 3.44514 3.80943 3.63186
# Velocity P-wave (km/s) = 5.90339 6.33088 6.12087
#
# Compressibility (1/GPa) = 0.02608327
#
# Stress axis : x y z
#
# Youngs Moduli (GPa) = 60.88802 53.21393 36.75993
#
# Poissons Ratio (x) = 0.27512 0.06077
# Poissons Ratio (y) = 0.31479 0.41704
# Poissons Ratio (z) = 0.10065 0.60370
#
# Static dielectric constant tensor:
#      x y z
#    x 1.746710 0.000000 0.005900 
#    y 0.000000 1.755480 0.000000 
#    z 0.005900 0.000000 1.733460 
# 
# From -- ./inp_files/199635.got.cif
#   From: 2010.05.17/outbox.cif.g08.bks.cpg/sg15_100_cif.got.tgz:199635.got - 2010.06.03 18:47:42.
