data_PCOD9278081
_publ_section_title
;
Structure prediction by ZEFSAII (Michael W. Deem and Ramdas Pophale) SiO2 
 PCOD9278081
Probable space group: C 2/C
;
_chemical_formula_sum "Si O2"
_cell_formula_units_Z 44
_cell_length_a 12.935733
_cell_length_b 12.222266
_cell_length_c 14.450803
_cell_angle_alpha 90.000000
_cell_angle_beta 132.931609
_cell_angle_gamma 90.000000
_cell_volume 1672.803974
_symmetry_space_group_name_H-M "C 2/C"
_symmetry_group_IT_number 15
_symmetry_cell_setting 'monoclinic'
loop_
_space_group_symop_operation_xyz
x,y,z
-x,y,1/2-z
-x,-y,-z
x,-y,1/2+z
1/2+x,1/2+y,z
1/2-x,1/2+y,1/2-z
1/2-x,1/2-y,-z
1/2+x,1/2-y,1/2+z
loop_
_atom_site_type_symbol
_atom_site_label
_atom_site_fract_x
_atom_site_fract_y
_atom_site_fract_z
Si Si1 0.852106 0.552431 0.476236
Si Si2 0.500000 0.028897 0.250000
Si Si3 0.251996 0.608111 0.726068
Si Si4 0.164298 0.208339 0.537611
Si Si5 0.241614 0.184747 0.093643
Si Si6 0.558140 0.498793 0.906762
O O1 0.876853 0.673317 0.449966
O O2 0.691224 0.525503 0.418109
O O3 0.942504 0.535645 0.625352
O O4 0.142598 0.529545 0.607102
O O5 0.376672 0.112782 0.200335
O O6 0.250369 0.637160 0.834292
O O7 0.230770 0.722706 0.662681
O O8 0.406580 0.554914 0.798972
O O9 0.250000 0.250000 0.500000
O O10 0.042117 0.125770 0.431411
O O11 0.250000 0.250000 0.000000
O O12 0.124705 0.091803 0.011990
#
# Coordination Sequence:
#
# PCOD9278081 Si02
#       6
#     8   4   8   8   8   8
#     4  10  23  44  70 108 144 196 241 313 372 447
#     4  10  20  42  66 102 148 182 240 294 390 424
#     4  12  23  41  76 106 142 192 260 296 373 451
#     4  10  25  49  68 101 150 199 242 307 377 446
#     4  11  21  38  68 106 144 178 242 316 366 441
#     4  10  22  44  68 104 146 190 246 309 371 441
#
# _framework density 26.303139999999999
#
# number of rings (size 3 to 8) (size 9 to 14) (size 15 to 20)
#    0.000    1.455    3.636    2.182    2.545    0.000 
#   13.091    0.909    0.000    0.000    0.000    0.000 
#    0.000    0.000    0.000    0.000    0.000    0.000 
#
# Total GULP energy -122847.693997 kJ/mol
# GULP energy per Si atom -5583.986091 kJ/mol
# Density = 2.624327 g / cm^3
# Si number density = 26.303140 Si / 1000 Ang^3
#
#
#
# Elastic Constant Matrix: (Units=GPa)
#
#
# Indices 1 2 3 4 5 6 
#
# 1 96.6475 27.4344 51.2712 0.0000 -2.6323 0.0000
# 2 27.4344 226.4433 85.1374 0.0000 17.1177 0.0000
# 3 51.2712 85.1374 175.8546 0.0000 13.7797 0.0000
# 4 0.0000 0.0000 0.0000 226.0391 0.0000 70.0211
# 5 -2.6323 17.1177 13.7797 0.0000 44.7591 0.0000
# 6 0.0000 0.0000 0.0000 70.0211 0.0000 44.7870
#
#
#
# Elastic Compliance Matrix: (Units=1/GPa)
#
#
# Indices 1 2 3 4 5 6 
#
# 1 0.012408 -0.000285 -0.003633 0.000000 0.001957 0.000000
# 2 -0.000285 0.005479 -0.002463 0.000000 -0.001354 0.000000
# 3 -0.003633 -0.002463 0.008076 0.000000 -0.001758 0.000000
# 4 0.000000 0.000000 0.000000 0.008579 0.000000 -0.013412
# 5 0.001957 -0.001354 -0.001758 0.000000 0.023516 0.000000
# 6 0.000000 0.000000 0.000000 -0.013412 0.000000 0.043297
#
#
# Mechanical properties :
#
#
# Convention : Reuss Voigt Hill
#
# Bulk Modulus (GPa) = 75.75583 91.84794 83.80189
# Shear Modulus (GPa) = 42.18732 85.45720 63.82226
#
# Velocity S-wave (km/s) = 4.00920 5.70613 4.93121
# Velocity P-wave (km/s) = 7.09191 8.85483 8.02194
#
# Compressibility (1/GPa) = 0.01320030
#
# Stress axis : x y z
#
# Youngs Moduli (GPa) = 80.59013 182.50795 123.82245
#
# Poissons Ratio (x) = 0.05208 0.44984
# Poissons Ratio (y) = 0.02300 0.30502
# Poissons Ratio (z) = 0.29278 0.44959
#
# Static dielectric constant tensor:
#      x y z
#    x 2.384660 0.000000 -0.015490 
#    y 0.000000 2.051920 0.000000 
#    z -0.015490 0.000000 2.145220 
# 
# From -- ./inp_files/152257.got.cif
#   From: 2010.05.17/outbox.cif.g08.bks.cpg/sg15_77_cif.got.tgz:152257.got - 2010.06.03 18:47:42.
