data_PCOD9278961
_publ_section_title
;
Structure prediction by ZEFSAII (Michael W. Deem and Ramdas Pophale) SiO2 
 PCOD9278961
Probable space group: C 2/C
;
_chemical_formula_sum "Si O2"
_cell_formula_units_Z 52
_cell_length_a 21.788126
_cell_length_b 23.996573
_cell_length_c 5.359802
_cell_angle_alpha 90.000000
_cell_angle_beta 106.520120
_cell_angle_gamma 90.000000
_cell_volume 2686.640818
_symmetry_space_group_name_H-M "C 2/C"
_symmetry_group_IT_number 15
_symmetry_cell_setting 'monoclinic'
loop_
_space_group_symop_operation_xyz
x,y,z
-x,y,1/2-z
-x,-y,-z
x,-y,1/2+z
1/2+x,1/2+y,z
1/2-x,1/2+y,1/2-z
1/2-x,1/2-y,-z
1/2+x,1/2-y,1/2+z
loop_
_atom_site_type_symbol
_atom_site_label
_atom_site_fract_x
_atom_site_fract_y
_atom_site_fract_z
Si Si1 0.655807 0.466884 0.412973
Si Si2 0.500000 0.690704 0.250000
Si Si3 0.689903 0.966271 0.896611
Si Si4 0.805745 0.656447 0.158299
Si Si5 0.766089 0.187280 0.940564
Si Si6 0.428245 0.361219 0.050833
Si Si7 0.386936 0.267997 0.333055
O O1 0.640300 0.490824 0.121606
O O2 0.732519 0.458374 0.509962
O O3 0.616681 0.411227 0.424520
O O4 0.447334 0.647719 0.290413
O O5 0.541670 0.730753 0.473898
O O6 0.662862 0.904113 0.834303
O O7 0.673515 0.004112 0.638535
O O8 0.757513 0.653549 0.343074
O O9 0.854424 0.707850 0.262522
O O10 0.770320 0.669572 0.855169
O O11 0.839119 0.193975 0.942807
O O12 0.750000 0.250000 0.000000
O O13 0.500000 0.366357 0.250000
O O14 0.395298 0.303021 0.090338
#
# Coordination Sequence:
#
# PCOD9278961 Si02
#       7
#     8   4   8   8   8   8   8
#     4  10  23  37  58  78 108 153 195 238 283 333
#     4  10  24  38  56  80 118 154 196 246 298 330
#     4  10  21  38  56  85 117 147 188 238 292 347
#     4  11  22  37  61  90 117 156 191 236 301 366
#     4  10  21  33  56  89 117 147 189 238 283 351
#     4  10  23  39  54  79 112 153 199 249 284 324
#     4  10  22  36  58  83 118 153 191 241 297 354
#
# _framework density 19.355025000000001
#
# number of rings (size 3 to 8) (size 9 to 14) (size 15 to 20)
#    0.000    1.846    0.000    3.692   12.923    1.846 
#    0.000    0.000    0.000    0.000    0.000    1.077 
#    0.000    0.000    0.000    0.000    0.000    0.000 
#
# Total GULP energy -144876.532619 kJ/mol
# GULP energy per Si atom -5572.174331 kJ/mol
# Density = 1.931097 g / cm^3
# Si number density = 19.355025 Si / 1000 Ang^3
#
#
#
# Elastic Constant Matrix: (Units=GPa)
#
#
# Indices 1 2 3 4 5 6 
#
# 1 27.8795 1.0257 0.9532 0.0000 -4.6676 0.0000
# 2 1.0257 73.7187 5.5046 0.0000 10.5102 0.0000
# 3 0.9532 5.5046 78.7788 0.0000 -6.4270 0.0000
# 4 0.0000 0.0000 0.0000 22.6824 0.0000 -3.4164
# 5 -4.6676 10.5102 -6.4270 0.0000 23.8684 0.0000
# 6 0.0000 0.0000 0.0000 -3.4164 0.0000 28.0033
#
#
#
# Elastic Compliance Matrix: (Units=1/GPa)
#
#
# Indices 1 2 3 4 5 6 
#
# 1 0.037281 -0.001702 0.000331 0.000000 0.008129 0.000000
# 2 -0.001702 0.014743 -0.001602 0.000000 -0.007256 0.000000
# 3 0.000331 -0.001602 0.013153 0.000000 0.004312 0.000000
# 4 0.000000 0.000000 0.000000 0.044912 0.000000 0.005479
# 5 0.008129 -0.007256 0.004312 0.000000 0.047842 0.000000
# 6 0.000000 0.000000 0.000000 0.005479 0.000000 0.036379
#
#
# Mechanical properties :
#
#
# Convention : Reuss Voigt Hill
#
# Bulk Modulus (GPa) = 16.88290 21.70489 19.29390
# Shear Modulus (GPa) = 22.72727 26.43705 24.58216
#
# Velocity S-wave (km/s) = 3.43042 3.69982 3.56766
# Velocity P-wave (km/s) = 4.94288 5.43047 5.19240
#
# Compressibility (1/GPa) = 0.05923152
#
# Stress axis : x y z
#
# Youngs Moduli (GPa) = 26.82334 67.82944 76.02571
#
# Poissons Ratio (x) = 0.11547 -0.02517
# Poissons Ratio (y) = 0.04566 0.12176
# Poissons Ratio (z) = -0.00888 0.10863
#
# Static dielectric constant tensor:
#      x y z
#    x 1.716480 0.000000 -0.049790 
#    y 0.000000 1.671530 0.000000 
#    z -0.049790 0.000000 1.813290 
# 
# From -- ./inp_files/13393.got.cif
#   From: 2010.05.17/outbox.cif.g08.bks.cpg/sg15_7_cif.got.tgz:13393.got - 2010.06.03 18:47:42.
