data_PCOD9278315
_publ_section_title
;
Structure prediction by ZEFSAII (Michael W. Deem and Ramdas Pophale) SiO2 
 PCOD9278315
Probable space group: C 2/C
;
_chemical_formula_sum "Si O2"
_cell_formula_units_Z 44
_cell_length_a 25.345819
_cell_length_b 15.910595
_cell_length_c 10.400068
_cell_angle_alpha 90.000000
_cell_angle_beta 28.147903
_cell_angle_gamma 90.000000
_cell_volume 1978.518570
_symmetry_space_group_name_H-M "C 2/C"
_symmetry_group_IT_number 15
_symmetry_cell_setting 'monoclinic'
loop_
_space_group_symop_operation_xyz
x,y,z
-x,y,1/2-z
-x,-y,-z
x,-y,1/2+z
1/2+x,1/2+y,z
1/2-x,1/2+y,1/2-z
1/2-x,1/2-y,-z
1/2+x,1/2-y,1/2+z
loop_
_atom_site_type_symbol
_atom_site_label
_atom_site_fract_x
_atom_site_fract_y
_atom_site_fract_z
Si Si1 0.765257 0.576583 0.799335
Si Si2 0.915927 0.229302 0.720225
Si Si3 0.668064 0.735235 0.870808
Si Si4 0.239551 0.334068 0.937008
Si Si5 0.392207 0.572731 0.923499
Si Si6 0.500000 0.849521 0.750000
O O1 0.683059 0.647345 0.914078
O O2 0.708861 0.488242 0.892452
O O3 0.888857 0.594708 0.480593
O O4 0.780129 0.592637 0.919318
O O5 0.916440 0.238590 0.565965
O O6 0.996944 0.288821 0.630535
O O7 0.791444 0.252269 0.040751
O O8 0.927873 0.131059 0.728130
O O9 0.656150 0.808648 0.001780
O O10 0.349702 0.361904 0.622997
O O11 0.250000 0.250000 0.000000
O O12 0.500000 0.527079 0.750000
#
# Coordination Sequence:
#
# PCOD9278315 Si02
#       6
#     8   8   8   8   8   4
#     4  10  22  39  63  95 139 171 221 280 339 395
#     4   9  17  35  67  92 118 174 234 262 319 407
#     4   8  17  36  61  88 126 168 222 272 322 398
#     4   9  20  41  65  90 133 177 223 277 322 405
#     4  11  23  38  65 101 136 177 213 279 352 389
#     4  10  20  42  70  92 126 192 222 268 336 402
#
# _framework density 22.238862000000001
#
# number of rings (size 3 to 8) (size 9 to 14) (size 15 to 20)
#    0.000    2.545    0.909    1.091    2.545    0.727 
#    0.000    1.818    0.000    0.000    2.364    0.000 
#    0.000    0.000    0.000    0.000    0.000    0.000 
#
# Total GULP energy -122718.551650 kJ/mol
# GULP energy per Si atom -5578.115984 kJ/mol
# Density = 2.218825 g / cm^3
# Si number density = 22.238862 Si / 1000 Ang^3
#
#
#
# Elastic Constant Matrix: (Units=GPa)
#
#
# Indices 1 2 3 4 5 6 
#
# 1 168.3759 69.9911 48.8420 0.0000 7.1214 0.0000
# 2 69.9911 90.2180 29.3692 0.0000 -18.9927 0.0000
# 3 48.8420 29.3692 56.0972 0.0000 -18.0772 0.0000
# 4 0.0000 0.0000 0.0000 31.4843 0.0000 -6.8942
# 5 7.1214 -18.9927 -18.0772 0.0000 36.4595 0.0000
# 6 0.0000 0.0000 0.0000 -6.8942 0.0000 22.7915
#
#
#
# Elastic Compliance Matrix: (Units=1/GPa)
#
#
# Indices 1 2 3 4 5 6 
#
# 1 0.013918 -0.009978 -0.011241 0.000000 -0.013490 0.000000
# 2 -0.009978 0.021066 0.002170 0.000000 0.013999 0.000000
# 3 -0.011241 0.002170 0.032788 0.000000 0.019583 0.000000
# 4 0.000000 0.000000 0.000000 0.034015 0.000000 0.010289
# 5 -0.013490 0.013999 0.019583 0.000000 0.047065 0.000000
# 6 0.000000 0.000000 0.000000 0.010289 0.000000 0.046988
#
#
# Mechanical properties :
#
#
# Convention : Reuss Voigt Hill
#
# Bulk Modulus (GPa) = 33.70060 67.89952 50.80006
# Shear Modulus (GPa) = 20.50600 29.24632 24.87616
#
# Velocity S-wave (km/s) = 3.03987 3.63036 3.34816
# Velocity P-wave (km/s) = 5.24480 6.94053 6.15138
#
# Compressibility (1/GPa) = 0.02967306
#
# Stress axis : x y z
#
# Youngs Moduli (GPa) = 71.84763 47.46971 30.49873
#
# Poissons Ratio (x) = 0.47367 0.34285
# Poissons Ratio (y) = 0.71692 -0.06618
# Poissons Ratio (z) = 0.80767 -0.10300
#
# Static dielectric constant tensor:
#      x y z
#    x 1.860290 0.000000 0.005360 
#    y 0.000000 1.803150 0.000000 
#    z 0.005360 0.000000 1.882290 
# 
# From -- ./inp_files/123263.got.cif
#   From: 2010.05.17/outbox.cif.g08.bks.cpg/sg15_62_cif.got.tgz:123263.got - 2010.06.03 18:47:42.
