data_PCOD9278443
_publ_section_title
;
Structure prediction by ZEFSAII (Michael W. Deem and Ramdas Pophale) SiO2 
 PCOD9278443
Probable space group: C 2/C
;
_chemical_formula_sum "Si O2"
_cell_formula_units_Z 36
_cell_length_a 4.970630
_cell_length_b 21.307754
_cell_length_c 13.817777
_cell_angle_alpha 90.000000
_cell_angle_beta 64.901845
_cell_angle_gamma 90.000000
_cell_volume 1325.303338
_symmetry_space_group_name_H-M "C 2/C"
_symmetry_group_IT_number 15
_symmetry_cell_setting 'monoclinic'
loop_
_space_group_symop_operation_xyz
x,y,z
-x,y,1/2-z
-x,-y,-z
x,-y,1/2+z
1/2+x,1/2+y,z
1/2-x,1/2+y,1/2-z
1/2-x,1/2-y,-z
1/2+x,1/2-y,1/2+z
loop_
_atom_site_type_symbol
_atom_site_label
_atom_site_fract_x
_atom_site_fract_y
_atom_site_fract_z
Si Si1 0.237665 0.592682 0.969466
Si Si2 0.500000 0.363032 0.250000
Si Si3 0.707760 0.799115 0.919797
Si Si4 0.500000 0.394163 0.750000
Si Si5 0.000000 0.291491 0.250000
Si Si6 0.974726 0.495083 0.860941
O O1 0.507204 0.604979 0.855278
O O2 0.035787 0.549033 0.929637
O O3 0.077654 0.656951 0.025198
O O4 0.286680 0.548691 0.055880
O O5 0.177031 0.330375 0.302649
O O6 0.972945 0.847344 0.847214
O O7 0.726319 0.750941 0.828434
O O8 0.750000 0.750000 0.000000
O O9 0.229613 0.441363 0.809683
O O10 0.000000 0.522297 0.750000
#
# Coordination Sequence:
#
# PCOD9278443 Si02
#       6
#     8   4   8   4   4   8
#     4  10  23  43  69 105 142 181 251 296 363 433
#     4  12  25  46  71 108 145 191 242 298 358 442
#     4  10  20  43  65 100 141 191 231 299 359 438
#     4   9  21  40  64  98 142 171 251 282 358 429
#     4  11  26  44  71 102 147 190 237 292 368 437
#     4  10  22  44  69 102 135 193 237 306 361 430
#
# _framework density 27.163592999999999
#
# number of rings (size 3 to 8) (size 9 to 14) (size 15 to 20)
#    0.000    1.778    2.222    0.667    1.556    2.667 
#   18.000    6.667    0.000    0.000    0.000    0.000 
#    0.000    0.000    0.000    0.000    0.000    0.000 
#
# Total GULP energy -100276.840522 kJ/mol
# GULP energy per Si atom -5570.935585 kJ/mol
# Density = 2.710177 g / cm^3
# Si number density = 27.163593 Si / 1000 Ang^3
#
#
#
# Elastic Constant Matrix: (Units=GPa)
#
#
# Indices 1 2 3 4 5 6 
#
# 1 63.9239 44.3007 25.8636 0.0000 -8.7635 0.0000
# 2 44.3007 135.1851 48.4794 0.0000 -17.7490 0.0000
# 3 25.8636 48.4794 154.2210 0.0000 -19.1387 0.0000
# 4 0.0000 0.0000 0.0000 86.8879 0.0000 -56.6870
# 5 -8.7635 -17.7490 -19.1387 0.0000 33.5672 0.0000
# 6 0.0000 0.0000 0.0000 -56.6870 0.0000 126.0081
#
#
#
# Elastic Compliance Matrix: (Units=1/GPa)
#
#
# Indices 1 2 3 4 5 6 
#
# 1 0.020600 -0.006077 -0.001373 0.000000 0.001382 0.000000
# 2 -0.006077 0.010448 -0.001912 0.000000 0.002848 0.000000
# 3 -0.001373 -0.001912 0.007690 0.000000 0.003015 0.000000
# 4 0.000000 0.000000 0.000000 0.016290 0.000000 0.007328
# 5 0.001382 0.002848 0.003015 0.000000 0.033377 0.000000
# 6 0.000000 0.000000 0.000000 0.007328 0.000000 0.011233
#
#
# Mechanical properties :
#
#
# Convention : Reuss Voigt Hill
#
# Bulk Modulus (GPa) = 49.96378 65.62417 57.79398
# Shear Modulus (GPa) = 39.98958 64.93837 52.46397
#
# Velocity S-wave (km/s) = 3.84106 4.89472 4.39955
# Velocity P-wave (km/s) = 6.17294 7.49371 6.86516
#
# Compressibility (1/GPa) = 0.02001450
#
# Stress axis : x y z
#
# Youngs Moduli (GPa) = 48.54374 95.70995 130.04595
#
# Poissons Ratio (x) = 0.58162 0.17854
# Poissons Ratio (y) = 0.29499 0.24863
# Poissons Ratio (z) = 0.06665 0.18298
#
# Static dielectric constant tensor:
#      x y z
#    x 2.162540 0.000000 0.004090 
#    y 0.000000 2.218480 0.000000 
#    z 0.004090 0.000000 2.537810 
# 
# From -- ./inp_files/128757.got.cif
#   From: 2010.05.17/outbox.cif.g08.bks.cpg/sg15_65_cif.got.tgz:128757.got - 2010.06.03 18:47:42.
