data_PCOD9278334
_publ_section_title
;
Structure prediction by ZEFSAII (Michael W. Deem and Ramdas Pophale) SiO2 
 PCOD9278334
Probable space group: C 2/C
;
_chemical_formula_sum "Si O2"
_cell_formula_units_Z 60
_cell_length_a 8.326054
_cell_length_b 21.200437
_cell_length_c 16.180617
_cell_angle_alpha 90.000000
_cell_angle_beta 112.871996
_cell_angle_gamma 90.000000
_cell_volume 2631.575091
_symmetry_space_group_name_H-M "C 2/C"
_symmetry_group_IT_number 15
_symmetry_cell_setting 'monoclinic'
loop_
_space_group_symop_operation_xyz
x,y,z
-x,y,1/2-z
-x,-y,-z
x,-y,1/2+z
1/2+x,1/2+y,z
1/2-x,1/2+y,1/2-z
1/2-x,1/2-y,-z
1/2+x,1/2-y,1/2+z
loop_
_atom_site_type_symbol
_atom_site_label
_atom_site_fract_x
_atom_site_fract_y
_atom_site_fract_z
Si Si1 0.190235 0.404725 0.537987
Si Si2 0.500000 0.228242 0.750000
Si Si3 0.832717 0.180659 0.506165
Si Si4 0.152204 0.590131 0.213509
Si Si5 0.262947 0.352075 0.384505
Si Si6 0.447781 0.661203 0.351861
Si Si7 0.217793 0.041919 0.979231
Si Si8 0.151207 0.008246 0.646476
O O1 0.094864 0.401611 0.607535
O O2 0.163092 0.358129 0.453925
O O3 0.392969 0.386025 0.598375
O O4 0.170153 0.478098 0.509069
O O5 0.333032 0.185057 0.706568
O O6 0.488130 0.271918 0.667259
O O7 0.750000 0.250000 0.500000
O O8 0.831061 0.169929 0.408385
O O9 0.749865 0.116588 0.529937
O O10 0.041435 0.175597 0.567091
O O11 0.313268 0.637249 0.256916
O O12 0.245525 0.524414 0.258471
O O13 0.000000 0.599745 0.250000
O O14 0.269707 0.424526 0.359188
O O15 0.052448 0.024398 0.888005
O O16 0.167782 0.035106 0.066941
#
# Coordination Sequence:
#
# PCOD9278334 Si02
#       8
#     8   4   8   8   8   8   8   8
#     4  10  20  42  70  97 123 177 239 271 333 410
#     4  12  24  44  66  92 136 186 236 274 328 416
#     4  10  21  41  66 101 136 175 219 278 346 405
#     4  12  23  37  64 103 134 162 221 298 343 387
#     4   9  23  42  68  95 131 186 231 279 333 407
#     4  11  22  42  67  91 128 185 222 272 335 416
#     4   9  16  36  69  91 123 169 221 266 329 412
#     4   9  17  37  64  92 126 166 217 280 337 384
#
# _framework density 22.800032999999999
#
# number of rings (size 3 to 8) (size 9 to 14) (size 15 to 20)
#    0.000    1.867    4.000    1.600    0.933    3.200 
#    4.800    2.667    0.000    0.000    0.000    0.000 
#    0.000    0.000    0.000    0.000    0.000    0.000 
#
# Total GULP energy -167104.837661 kJ/mol
# GULP energy per Si atom -5570.161255 kJ/mol
# Density = 2.274814 g / cm^3
# Si number density = 22.800033 Si / 1000 Ang^3
#
#
#
# Elastic Constant Matrix: (Units=GPa)
#
#
# Indices 1 2 3 4 5 6 
#
# 1 65.5787 32.0830 18.5408 0.0000 -3.7681 0.0000
# 2 32.0830 150.0763 18.3713 0.0000 9.9745 0.0000
# 3 18.5408 18.3713 53.2427 0.0000 10.5671 0.0000
# 4 0.0000 0.0000 0.0000 156.7519 0.0000 -82.8125
# 5 -3.7681 9.9745 10.5671 0.0000 32.9454 0.0000
# 6 0.0000 0.0000 0.0000 -82.8125 0.0000 65.9245
#
#
#
# Elastic Compliance Matrix: (Units=1/GPa)
#
#
# Indices 1 2 3 4 5 6 
#
# 1 0.019185 -0.003665 -0.006485 0.000000 0.005384 0.000000
# 2 -0.003665 0.007721 -0.000898 0.000000 -0.002469 0.000000
# 3 -0.006485 -0.000898 0.022901 0.000000 -0.007815 0.000000
# 4 0.000000 0.000000 0.000000 0.018966 0.000000 0.023825
# 5 0.005384 -0.002469 -0.007815 0.000000 0.034223 0.000000
# 6 0.000000 0.000000 0.000000 0.023825 0.000000 0.045097
#
#
# Mechanical properties :
#
#
# Convention : Reuss Voigt Hill
#
# Bulk Modulus (GPa) = 36.08631 45.20977 40.64804
# Shear Modulus (GPa) = 27.86679 64.45120 46.15900
#
# Velocity S-wave (km/s) = 3.49983 5.32254 4.50434
# Velocity P-wave (km/s) = 5.67392 7.59239 6.70216
#
# Compressibility (1/GPa) = 0.02771134
#
# Stress axis : x y z
#
# Youngs Moduli (GPa) = 52.12482 129.52011 43.66639
#
# Poissons Ratio (x) = 0.47473 0.28316
# Poissons Ratio (y) = 0.19105 0.03920
# Poissons Ratio (z) = 0.33801 0.11627
#
# Static dielectric constant tensor:
#      x y z
#    x 1.929990 0.000000 -0.014720 
#    y 0.000000 1.857330 0.000000 
#    z -0.014720 0.000000 1.886080 
# 
# From -- ./inp_files/192577.got.cif
#   From: 2010.05.17/outbox.cif.g08.bks.cpg/sg15_97_cif.got.tgz:192577.got - 2010.06.03 18:47:42.
