data_PCOD9278564
_publ_section_title
;
Structure prediction by ZEFSAII (Michael W. Deem and Ramdas Pophale) SiO2 
 PCOD9278564
Probable space group: C 2/C
;
_chemical_formula_sum "Si O2"
_cell_formula_units_Z 40
_cell_length_a 16.750249
_cell_length_b 9.249372
_cell_length_c 19.141785
_cell_angle_alpha 90.000000
_cell_angle_beta 148.084445
_cell_angle_gamma 90.000000
_cell_volume 1567.832375
_symmetry_space_group_name_H-M "C 2/C"
_symmetry_group_IT_number 15
_symmetry_cell_setting 'monoclinic'
loop_
_space_group_symop_operation_xyz
x,y,z
-x,y,1/2-z
-x,-y,-z
x,-y,1/2+z
1/2+x,1/2+y,z
1/2-x,1/2+y,1/2-z
1/2-x,1/2-y,-z
1/2+x,1/2-y,1/2+z
loop_
_atom_site_type_symbol
_atom_site_label
_atom_site_fract_x
_atom_site_fract_y
_atom_site_fract_z
Si Si1 0.000000 0.097578 0.750000
Si Si2 0.188244 0.637928 0.333739
Si Si3 0.600481 0.326601 0.622072
Si Si4 0.603341 0.666604 0.418702
Si Si5 0.500000 0.900877 0.250000
Si Si6 0.361812 0.997205 0.344532
O O1 0.070972 0.986605 0.858803
O O2 0.126980 0.209016 0.815009
O O3 0.357480 0.641772 0.427618
O O4 0.141611 0.512005 0.353234
O O5 0.098990 0.583693 0.197487
O O6 0.431059 0.333696 0.524254
O O7 0.701923 0.432407 0.744750
O O8 0.669227 0.170255 0.685703
O O9 0.750000 0.750000 0.500000
O O10 0.484239 0.787637 0.301264
O O11 0.500000 0.000000 0.500000
#
# Coordination Sequence:
#
# PCOD9278564 Si02
#       6
#     4   8   8   8   4   8
#     4  10  22  42  68  94 142 172 218 286 338 410
#     4   9  21  43  66  94 129 178 219 280 339 396
#     4  10  21  42  66  96 132 175 233 273 338 416
#     4  11  23  40  65  96 133 178 220 273 347 405
#     4  10  20  44  58  90 138 162 216 288 326 398
#     4  10  22  42  70 100 135 176 232 288 338 402
#
# _framework density 25.512933
#
# number of rings (size 3 to 8) (size 9 to 14) (size 15 to 20)
#    1.200    0.800    2.000    1.200    0.000    4.800 
#    3.600    4.000    0.000    0.000    0.000    0.000 
#    0.000    0.000    0.000    0.000    0.000    0.000 
#
# Total GULP energy -111501.122948 kJ/mol
# GULP energy per Si atom -5575.056147 kJ/mol
# Density = 2.545486 g / cm^3
# Si number density = 25.512933 Si / 1000 Ang^3
#
#
#
# Elastic Constant Matrix: (Units=GPa)
#
#
# Indices 1 2 3 4 5 6 
#
# 1 143.2779 55.0078 13.2321 0.0000 38.1593 0.0000
# 2 55.0078 221.3798 17.0264 0.0001 7.3779 0.0000
# 3 13.2321 17.0264 43.7237 0.0002 3.8531 0.0000
# 4 0.0000 0.0001 0.0002 21.1510 0.0000 3.8792
# 5 38.1593 7.3779 3.8531 0.0000 32.8767 0.0000
# 6 0.0000 0.0000 0.0000 3.8792 0.0000 37.0468
#
#
#
# Elastic Compliance Matrix: (Units=1/GPa)
#
#
# Indices 1 2 3 4 5 6 
#
# 1 0.011301 -0.002283 -0.001435 0.000000 -0.012436 0.000000
# 2 -0.002283 0.005141 -0.001458 0.000000 0.001667 0.000000
# 3 -0.001435 -0.001458 0.023945 0.000000 -0.000814 0.000000
# 4 0.000000 0.000000 0.000000 0.048205 0.000000 -0.005048
# 5 -0.012436 0.001667 -0.000814 0.000000 0.044572 0.000000
# 6 0.000000 0.000000 0.000000 -0.005048 0.000000 0.027521
#
#
# Mechanical properties :
#
#
# Convention : Reuss Voigt Hill
#
# Bulk Modulus (GPa) = 33.29546 64.32379 48.80962
# Shear Modulus (GPa) = 27.61705 39.75590 33.68648
#
# Velocity S-wave (km/s) = 3.29366 3.95177 3.63763
# Velocity P-wave (km/s) = 5.24815 6.78888 6.06762
#
# Compressibility (1/GPa) = 0.03003413
#
# Stress axis : x y z
#
# Youngs Moduli (GPa) = 88.49142 194.51492 41.76317
#
# Poissons Ratio (x) = 0.44410 0.05993
# Poissons Ratio (y) = 0.20204 0.06089
# Poissons Ratio (z) = 0.12698 0.28359
#
# Static dielectric constant tensor:
#      x y z
#    x 2.165100 0.000000 0.037310 
#    y 0.000000 2.026680 0.000000 
#    z 0.037310 0.000000 2.205880 
# 
# From -- ./inp_files/247245.got.cif
#   From: 2010.05.17/outbox.cif.g08.bks.cpg/sg15_124_cif.got.tgz:247245.got - 2010.06.03 18:47:42.
