data_PCOD9278586
_publ_section_title
;
Structure prediction by ZEFSAII (Michael W. Deem and Ramdas Pophale) SiO2 
 PCOD9278586
Probable space group: C 2/C
;
_chemical_formula_sum "Si O2"
_cell_formula_units_Z 52
_cell_length_a 13.311759
_cell_length_b 14.521914
_cell_length_c 13.809861
_cell_angle_alpha 90.000000
_cell_angle_beta 116.578838
_cell_angle_gamma 90.000000
_cell_volume 2387.488789
_symmetry_space_group_name_H-M "C 2/C"
_symmetry_group_IT_number 15
_symmetry_cell_setting 'monoclinic'
loop_
_space_group_symop_operation_xyz
x,y,z
-x,y,1/2-z
-x,-y,-z
x,-y,1/2+z
1/2+x,1/2+y,z
1/2-x,1/2+y,1/2-z
1/2-x,1/2-y,-z
1/2+x,1/2-y,1/2+z
loop_
_atom_site_type_symbol
_atom_site_label
_atom_site_fract_x
_atom_site_fract_y
_atom_site_fract_z
Si Si1 0.867634 0.856854 0.718432
Si Si2 0.219052 0.823565 0.407031
Si Si3 0.819328 0.476422 0.948313
Si Si4 0.000000 0.108346 0.750000
Si Si5 0.783776 0.340082 0.212531
Si Si6 0.605075 0.503142 0.619382
Si Si7 0.027028 0.520307 0.663865
O O1 0.794586 0.921604 0.616324
O O2 0.809350 0.757783 0.676806
O O3 0.000000 0.851729 0.750000
O O4 0.856208 0.902205 0.823266
O O5 0.250000 0.750000 0.500000
O O6 0.085440 0.834728 0.351100
O O7 0.244209 0.810937 0.303950
O O8 0.282274 0.919462 0.455898
O O9 0.892452 0.472236 0.880222
O O10 0.910388 0.449017 0.066369
O O11 0.935490 0.044698 0.796486
O O12 0.699919 0.419614 0.133242
O O13 0.901071 0.391749 0.275596
O O14 0.500000 0.500000 0.500000
O O15 0.000000 0.464935 0.750000
#
# Coordination Sequence:
#
# PCOD9278586 Si02
#       7
#     8   8   8   4   8   8   8
#     4  12  23  45  72  96 142 188 226 301 360 406
#     4  10  21  41  64  93 136 172 225 291 349 407
#     4  10  22  43  66  97 138 181 226 291 350 422
#     4  10  20  44  62  96 130 174 236 286 336 430
#     4  10  24  43  62 106 135 174 248 285 338 442
#     4  11  23  43  69  97 141 185 235 295 353 421
#     4  10  21  42  66  92 140 178 227 284 346 420
#
# _framework density 21.780207999999998
#
# number of rings (size 3 to 8) (size 9 to 14) (size 15 to 20)
#    0.000    1.538    5.385    0.462    2.154    4.923 
#   15.231    2.308    0.000    0.000    0.000    0.000 
#    0.000    0.000    0.000    0.000    0.000    0.000 
#
# Total GULP energy -144924.838080 kJ/mol
# GULP energy per Si atom -5574.032234 kJ/mol
# Density = 2.173064 g / cm^3
# Si number density = 21.780208 Si / 1000 Ang^3
#
#
#
# Elastic Constant Matrix: (Units=GPa)
#
#
# Indices 1 2 3 4 5 6 
#
# 1 92.2827 41.4703 32.9679 0.0000 23.2483 0.0000
# 2 41.4703 94.4739 49.2395 0.0000 19.4462 0.0000
# 3 32.9679 49.2395 115.3820 0.0000 30.3211 0.0000
# 4 0.0000 0.0000 0.0000 27.7468 0.0000 13.3664
# 5 23.2483 19.4462 30.3211 0.0000 41.9259 0.0000
# 6 0.0000 0.0000 0.0000 13.3664 0.0000 -31.2310
#
#
#
# Elastic Compliance Matrix: (Units=1/GPa)
#
#
# Indices 1 2 3 4 5 6 
#
# 1 0.014660 -0.004995 -0.000654 0.000000 -0.005339 0.000000
# 2 -0.004995 0.015550 -0.004989 0.000000 -0.000834 0.000000
# 3 -0.000654 -0.004989 0.012692 0.000000 -0.006502 0.000000
# 4 0.000000 0.000000 0.000000 0.029880 0.000000 0.012788
# 5 -0.005339 -0.000834 -0.006502 0.000000 0.031901 0.000000
# 6 0.000000 0.000000 0.000000 0.012788 0.000000 -0.026546
#
#
# Mechanical properties :
#
#
# Convention : Reuss Voigt Hill
#
# Bulk Modulus (GPa) = 46.24507 61.05488 53.64998
# Shear Modulus (GPa) = 46.89514 19.58574 33.24044
#
# Velocity S-wave (km/s) = 4.64519 3.00199 3.91087
# Velocity P-wave (km/s) = 7.07454 6.33317 6.71410
#
# Compressibility (1/GPa) = 0.02162392
#
# Stress axis : x y z
#
# Youngs Moduli (GPa) = 68.21417 64.30949 78.79251
#
# Poissons Ratio (x) = 0.32124 0.05152
# Poissons Ratio (y) = 0.34075 0.39313
# Poissons Ratio (z) = 0.04461 0.32087
#
# Static dielectric constant tensor:
#      x y z
#    x 1.882470 0.000000 -0.046890 
#    y 0.000000 1.870270 0.000000 
#    z -0.046890 0.000000 1.821830 
# 
# From -- ./inp_files/154072.got.cif
#   From: 2010.05.17/outbox.cif.g08.bks.cpg/sg15_78_cif.got.tgz:154072.got - 2010.06.03 18:47:42.
