data_PCOD9278150
_publ_section_title
;
Structure prediction by ZEFSAII (Michael W. Deem and Ramdas Pophale) SiO2 
 PCOD9278150
Probable space group: C 2/C
;
_chemical_formula_sum "Si O2"
_cell_formula_units_Z 48
_cell_length_a 9.207357
_cell_length_b 18.405403
_cell_length_c 13.961249
_cell_angle_alpha 90.000000
_cell_angle_beta 107.212717
_cell_angle_gamma 90.000000
_cell_volume 2259.980421
_symmetry_space_group_name_H-M "C 2/C"
_symmetry_group_IT_number 15
_symmetry_cell_setting 'monoclinic'
loop_
_space_group_symop_operation_xyz
x,y,z
-x,y,1/2-z
-x,-y,-z
x,-y,1/2+z
1/2+x,1/2+y,z
1/2-x,1/2+y,1/2-z
1/2-x,1/2-y,-z
1/2+x,1/2-y,1/2+z
loop_
_atom_site_type_symbol
_atom_site_label
_atom_site_fract_x
_atom_site_fract_y
_atom_site_fract_z
Si Si1 0.665505 0.590839 0.307979
Si Si2 0.630570 0.798932 0.537544
Si Si3 0.031080 0.818543 0.145460
Si Si4 0.873008 0.634894 0.656967
Si Si5 0.347520 0.037390 0.168506
Si Si6 0.369229 0.463721 0.041843
O O1 0.500000 0.621012 0.250000
O O2 0.775090 0.653005 0.369246
O O3 0.720297 0.557361 0.219716
O O4 0.663016 0.525296 0.384865
O O5 0.750000 0.750000 0.500000
O O6 0.509311 0.749277 0.568967
O O7 0.575253 0.850138 0.441475
O O8 0.208087 0.837239 0.158332
O O9 0.000000 0.800303 0.250000
O O10 0.935946 0.890132 0.099861
O O11 0.866201 0.548785 0.667016
O O12 0.000000 0.667788 0.750000
O O13 0.500000 0.067585 0.250000
O O14 0.279347 0.056288 0.050956
O O15 0.500000 0.500000 0.000000
#
# Coordination Sequence:
#
# PCOD9278150 Si02
#       6
#     8   8   8   8   8   8
#     4  12  23  40  73 101 130 177 236 290 337 407
#     4  10  23  42  64  94 135 183 225 272 339 427
#     4  11  23  42  67  99 139 181 229 282 348 415
#     4  10  20  42  66  96 132 176 225 277 342 410
#     4  11  24  40  67 103 137 167 223 296 354 392
#     4  12  20  41  70 104 132 173 236 293 340 407
#
# _framework density 21.239121999999998
#
# number of rings (size 3 to 8) (size 9 to 14) (size 15 to 20)
#    0.000    1.000    5.000    2.500    0.000    4.000 
#    3.000    0.833    0.000    0.000    0.000    0.000 
#    0.000    0.000    0.000    0.000    0.000    0.000 
#
# Total GULP energy -133954.539001 kJ/mol
# GULP energy per Si atom -5581.439125 kJ/mol
# Density = 2.119078 g / cm^3
# Si number density = 21.239122 Si / 1000 Ang^3
#
#
#
# Elastic Constant Matrix: (Units=GPa)
#
#
# Indices 1 2 3 4 5 6 
#
# 1 33.0677 -1.8456 5.3813 0.0000 5.6607 0.0000
# 2 -1.8456 67.0680 -4.6800 0.0000 -16.5204 0.0000
# 3 5.3813 -4.6800 57.5942 0.0000 -0.1698 0.0000
# 4 0.0000 0.0000 0.0000 11.7998 0.0000 0.7903
# 5 5.6607 -16.5204 -0.1698 0.0000 45.2108 0.0000
# 6 0.0000 0.0000 0.0000 0.7903 0.0000 11.7951
#
#
#
# Elastic Compliance Matrix: (Units=1/GPa)
#
#
# Indices 1 2 3 4 5 6 
#
# 1 0.031402 -0.000346 -0.002974 0.000000 -0.004069 0.000000
# 2 -0.000346 0.016494 0.001391 0.000000 0.006076 0.000000
# 3 -0.002974 0.001391 0.017757 0.000000 0.000947 0.000000
# 4 0.000000 0.000000 0.000000 0.085129 0.000000 -0.005704
# 5 -0.004069 0.006076 0.000947 0.000000 0.024852 0.000000
# 6 0.000000 0.000000 0.000000 -0.005704 0.000000 0.085163
#
#
# Mechanical properties :
#
#
# Convention : Reuss Voigt Hill
#
# Bulk Modulus (GPa) = 16.18270 17.27124 16.72697
# Shear Modulus (GPa) = 17.52821 24.35274 20.94047
#
# Velocity S-wave (km/s) = 2.87588 3.38982 3.14337
# Velocity P-wave (km/s) = 4.32012 4.84465 4.58988
#
# Compressibility (1/GPa) = 0.06179440
#
# Stress axis : x y z
#
# Youngs Moduli (GPa) = 31.84485 60.62686 56.31734
#
# Poissons Ratio (x) = 0.02096 0.16749
# Poissons Ratio (y) = 0.01101 -0.07831
# Poissons Ratio (z) = 0.09471 -0.08430
#
# Static dielectric constant tensor:
#      x y z
#    x 1.812130 0.000000 0.057810 
#    y 0.000000 1.782570 0.000000 
#    z 0.057810 0.000000 1.840420 
# 
# From -- ./inp_files/87859.got.cif
#   From: 2010.05.17/outbox.cif.g08.bks.cpg/sg15_44_cif.got.tgz:87859.got - 2010.06.03 18:47:42.
