data_PCOD9278718
_publ_section_title
;
Structure prediction by ZEFSAII (Michael W. Deem and Ramdas Pophale) SiO2 
 PCOD9278718
Probable space group: C 2/C
;
_chemical_formula_sum "Si O2"
_cell_formula_units_Z 60
_cell_length_a 15.434395
_cell_length_b 10.680784
_cell_length_c 23.849555
_cell_angle_alpha 90.000000
_cell_angle_beta 47.762280
_cell_angle_gamma 90.000000
_cell_volume 2910.832867
_symmetry_space_group_name_H-M "C 2/C"
_symmetry_group_IT_number 15
_symmetry_cell_setting 'monoclinic'
loop_
_space_group_symop_operation_xyz
x,y,z
-x,y,1/2-z
-x,-y,-z
x,-y,1/2+z
1/2+x,1/2+y,z
1/2-x,1/2+y,1/2-z
1/2-x,1/2-y,-z
1/2+x,1/2-y,1/2+z
loop_
_atom_site_type_symbol
_atom_site_label
_atom_site_fract_x
_atom_site_fract_y
_atom_site_fract_z
Si Si1 0.236645 0.258997 0.073888
Si Si2 0.312495 0.907168 0.205360
Si Si3 0.500000 0.476417 0.750000
Si Si4 0.628963 0.374878 0.802257
Si Si5 0.269259 0.105348 0.483497
Si Si6 0.546507 0.969923 0.168367
Si Si7 0.243719 0.981295 0.113045
Si Si8 0.063646 0.935369 0.523221
O O1 0.124614 0.343725 0.135793
O O2 0.233308 0.130128 0.108297
O O3 0.250000 0.250000 0.000000
O O4 0.353377 0.330981 0.039480
O O5 0.303760 0.758580 0.223692
O O6 0.436468 0.947976 0.176329
O O7 0.214099 0.003971 0.271545
O O8 0.305652 0.931756 0.141630
O O9 0.559731 0.397055 0.773937
O O10 0.393338 0.557455 0.822056
O O11 0.530204 0.378841 0.893089
O O12 0.250000 0.250000 0.500000
O O13 0.366697 0.072016 0.395568
O O14 0.305132 0.059658 0.529498
O O15 0.151786 0.030190 0.517007
O O16 0.500000 0.000777 0.250000
O O17 0.000000 0.000000 0.500000
#
# Coordination Sequence:
#
# PCOD9278718 Si02
#       8
#     8   8   4   8   8   8   8   8
#     4  11  21  45  74  99 130 184 243 287 344 425
#     4  11  28  41  71 106 141 183 235 305 346 429
#     4  10  20  44  74  94 130 190 234 298 340 432
#     4  11  25  46  69 106 139 183 245 287 368 412
#     4  11  26  47  68 101 141 191 231 290 370 426
#     4  11  26  44  71 101 141 184 241 288 355 430
#     4  11  23  43  70 102 137 179 243 290 351 416
#     4  11  25  42  71  99 138 182 231 293 353 429
#
# _framework density 20.612658
#
# number of rings (size 3 to 8) (size 9 to 14) (size 15 to 20)
#    0.000    1.067    4.000    1.600   11.200    2.667 
#    1.200    0.000    0.000    0.000    0.000    0.000 
#    0.000    0.000    0.000    0.000    0.000    0.000 
#
# Total GULP energy -167606.696080 kJ/mol
# GULP energy per Si atom -5586.889869 kJ/mol
# Density = 2.056574 g / cm^3
# Si number density = 20.612658 Si / 1000 Ang^3
#
#
#
# Elastic Constant Matrix: (Units=GPa)
#
#
# Indices 1 2 3 4 5 6 
#
# 1 107.9623 31.5138 50.6156 0.0000 4.1260 0.0000
# 2 31.5138 104.9344 40.1273 0.0000 -13.9255 0.0000
# 3 50.6156 40.1273 126.3942 0.0000 -1.8296 0.0000
# 4 0.0000 0.0000 0.0000 18.8764 0.0000 -2.2574
# 5 4.1260 -13.9255 -1.8296 0.0000 37.8438 0.0000
# 6 0.0000 0.0000 0.0000 -2.2574 0.0000 21.7079
#
#
#
# Elastic Compliance Matrix: (Units=1/GPa)
#
#
# Indices 1 2 3 4 5 6 
#
# 1 0.011947 -0.002343 -0.004075 0.000000 -0.002362 0.000000
# 2 -0.002343 0.011890 -0.002771 0.000000 0.004497 0.000000
# 3 -0.004075 -0.002771 0.010422 0.000000 -0.000072 0.000000
# 4 0.000000 0.000000 0.000000 0.053643 0.000000 0.005578
# 5 -0.002362 0.004497 -0.000072 0.000000 0.028333 0.000000
# 6 0.000000 0.000000 0.000000 0.005578 0.000000 0.046646
#
#
# Mechanical properties :
#
#
# Convention : Reuss Voigt Hill
#
# Bulk Modulus (GPa) = 62.96829 64.86713 63.91771
# Shear Modulus (GPa) = 26.80193 30.15458 28.47826
#
# Velocity S-wave (km/s) = 3.60983 3.82896 3.72101
# Velocity P-wave (km/s) = 6.92742 7.14743 7.03829
#
# Compressibility (1/GPa) = 0.01588101
#
# Stress axis : x y z
#
# Youngs Moduli (GPa) = 83.70323 84.10439 95.94868
#
# Poissons Ratio (x) = 0.19707 0.39095
# Poissons Ratio (y) = 0.19613 0.26591
# Poissons Ratio (z) = 0.34105 0.23308
#
# Static dielectric constant tensor:
#      x y z
#    x 1.720310 0.000000 -0.030100 
#    y 0.000000 1.667280 0.000000 
#    z -0.030100 0.000000 1.403030 
# 
# From -- ./inp_files/273847.got.cif
#   From: 2010.05.17/outbox.cif.g08.bks.cpg/sg15_137_cif.got.tgz:273847.got - 2010.06.03 18:47:42.
