data_PCOD9278470
_publ_section_title
;
Structure prediction by ZEFSAII (Michael W. Deem and Ramdas Pophale) SiO2 
 PCOD9278470
Probable space group: C 2/C
;
_chemical_formula_sum "Si O2"
_cell_formula_units_Z 44
_cell_length_a 23.123296
_cell_length_b 14.217673
_cell_length_c 5.616524
_cell_angle_alpha 90.000000
_cell_angle_beta 111.557384
_cell_angle_gamma 90.000000
_cell_volume 1717.323816
_symmetry_space_group_name_H-M "C 2/C"
_symmetry_group_IT_number 15
_symmetry_cell_setting 'monoclinic'
loop_
_space_group_symop_operation_xyz
x,y,z
-x,y,1/2-z
-x,-y,-z
x,-y,1/2+z
1/2+x,1/2+y,z
1/2-x,1/2+y,1/2-z
1/2-x,1/2-y,-z
1/2+x,1/2-y,1/2+z
loop_
_atom_site_type_symbol
_atom_site_label
_atom_site_fract_x
_atom_site_fract_y
_atom_site_fract_z
Si Si1 0.569726 0.034460 0.168669
Si Si2 0.797281 0.217230 0.871870
Si Si3 0.000000 0.130674 0.250000
Si Si4 0.089378 0.745954 0.217228
Si Si5 0.883662 0.097304 0.342496
Si Si6 0.736350 0.470238 0.314761
O O1 0.566270 0.142862 0.247595
O O2 0.597749 0.979441 0.441532
O O3 0.500000 0.000000 0.000000
O O4 0.846872 0.156594 0.093077
O O5 0.750000 0.250000 0.000000
O O6 0.843917 0.281323 0.798511
O O7 0.766889 0.141211 0.650151
O O8 0.038795 0.201588 0.476539
O O9 0.050682 0.070354 0.178308
O O10 0.102923 0.826680 0.432012
O O11 0.833194 0.017136 0.327520
O O12 0.764622 0.514595 0.595233
#
# Coordination Sequence:
#
# PCOD9278470 Si02
#       6
#     8   8   4   8   8   8
#     4  10  23  38  61  92 132 178 220 275 334 398
#     4  10  23  43  69  98 130 181 231 283 341 407
#     4  10  22  36  66 102 132 180 224 272 338 422
#     4  11  22  41  67  96 135 180 228 278 347 410
#     4  10  22  39  69  99 137 181 223 282 342 414
#     4  10  20  43  66  97 136 177 221 280 343 400
#
# _framework density 25.621262000000002
#
# number of rings (size 3 to 8) (size 9 to 14) (size 15 to 20)
#    0.000    1.818    1.818    1.636   10.182    0.727 
#    0.000   11.818    0.000    0.000    0.000    0.000 
#    0.000    0.000    0.000    0.000    0.000    0.000 
#
# Total GULP energy -122779.091462 kJ/mol
# GULP energy per Si atom -5580.867794 kJ/mol
# Density = 2.556295 g / cm^3
# Si number density = 25.621262 Si / 1000 Ang^3
#
#
#
# Elastic Constant Matrix: (Units=GPa)
#
#
# Indices 1 2 3 4 5 6 
#
# 1 136.6088 20.3700 23.5746 0.0000 -21.0279 0.0000
# 2 20.3700 76.5955 8.3853 0.0000 1.8534 0.0000
# 3 23.5746 8.3853 137.8846 0.0000 3.5696 0.0000
# 4 0.0000 0.0000 0.0000 26.0804 0.0000 -18.4521
# 5 -21.0279 1.8534 3.5696 0.0000 43.0689 0.0000
# 6 0.0000 0.0000 0.0000 -18.4521 0.0000 28.0601
#
#
#
# Elastic Compliance Matrix: (Units=1/GPa)
#
#
# Indices 1 2 3 4 5 6 
#
# 1 0.008580 -0.002230 -0.001445 0.000000 0.004405 0.000000
# 2 -0.002230 0.013734 -0.000411 0.000000 -0.001646 0.000000
# 3 -0.001445 -0.000411 0.007559 0.000000 -0.001314 0.000000
# 4 0.000000 0.000000 0.000000 0.071703 0.000000 0.047151
# 5 0.004405 -0.001646 -0.001314 0.000000 0.025549 0.000000
# 6 0.000000 0.000000 0.000000 0.047151 0.000000 0.066644
#
#
# Mechanical properties :
#
#
# Convention : Reuss Voigt Hill
#
# Bulk Modulus (GPa) = 46.08587 50.63872 48.36229
# Shear Modulus (GPa) = 23.90338 39.35914 31.63126
#
# Velocity S-wave (km/s) = 3.05774 3.92368 3.51746
# Velocity P-wave (km/s) = 5.52202 6.35092 5.95092
#
# Compressibility (1/GPa) = 0.02169863
#
# Stress axis : x y z
#
# Youngs Moduli (GPa) = 116.54733 72.81437 132.29949
#
# Poissons Ratio (x) = 0.16239 0.19123
# Poissons Ratio (y) = 0.25992 0.05441
# Poissons Ratio (z) = 0.16846 0.02995
#
# Static dielectric constant tensor:
#      x y z
#    x 2.240710 0.000000 -0.202750 
#    y 0.000000 2.002640 0.000000 
#    z -0.202750 0.000000 2.167000 
# 
# From -- ./inp_files/15107.got.cif
#   From: 2010.05.17/outbox.cif.g08.bks.cpg/sg15_8_cif.got.tgz:15107.got - 2010.06.03 18:47:42.
