data_PCOD9278200
_publ_section_title
;
Structure prediction by ZEFSAII (Michael W. Deem and Ramdas Pophale) SiO2 
 PCOD9278200
Probable space group: C 2/C
;
_chemical_formula_sum "Si O2"
_cell_formula_units_Z 36
_cell_length_a 6.727791
_cell_length_b 28.711614
_cell_length_c 10.070998
_cell_angle_alpha 90.000000
_cell_angle_beta 120.979729
_cell_angle_gamma 90.000000
_cell_volume 1667.863441
_symmetry_space_group_name_H-M "C 2/C"
_symmetry_group_IT_number 15
_symmetry_cell_setting 'monoclinic'
loop_
_space_group_symop_operation_xyz
x,y,z
-x,y,1/2-z
-x,-y,-z
x,-y,1/2+z
1/2+x,1/2+y,z
1/2-x,1/2+y,1/2-z
1/2-x,1/2-y,-z
1/2+x,1/2-y,1/2+z
loop_
_atom_site_type_symbol
_atom_site_label
_atom_site_fract_x
_atom_site_fract_y
_atom_site_fract_z
Si Si1 0.121800 0.189202 0.568973
Si Si2 0.509338 0.055410 0.005899
Si Si3 0.221717 0.365901 0.895393
Si Si4 0.000000 0.760732 0.750000
Si Si5 0.000000 0.092068 0.250000
Si Si6 0.000000 0.387930 0.250000
O O1 0.272962 0.228300 0.696532
O O2 0.299453 0.145758 0.626864
O O3 0.877089 0.168585 0.537842
O O4 0.063969 0.210588 0.403913
O O5 0.420371 0.078384 0.839718
O O6 0.372307 0.086844 0.067629
O O7 0.782513 0.064523 0.117838
O O8 0.500000 0.000000 0.000000
O O9 0.387849 0.379862 0.831860
O O10 0.000000 0.342268 0.750000
#
# Coordination Sequence:
#
# PCOD9278200 Si02
#       6
#     8   8   8   4   4   4
#     4  10  20  42  67  99 136 178 230 273 361 404
#     4  11  26  42  67 102 135 182 238 279 346 404
#     4  10  22  40  70  96 130 189 225 279 343 413
#     4   9  21  38  76  98 134 186 218 296 348 420
#     4  10  21  44  63  92 136 180 222 287 330 409
#     4  11  24  40  69  96 136 188 218 291 344 409
#
# _framework density 21.584500999999999
#
# number of rings (size 3 to 8) (size 9 to 14) (size 15 to 20)
#    0.000    1.778    2.222    0.667    7.778    3.556 
#    0.000    1.111    0.000    0.000    0.000    0.000 
#    0.000    0.000    0.000    0.000    0.000    0.000 
#
# Total GULP energy -100364.592109 kJ/mol
# GULP energy per Si atom -5575.810673 kJ/mol
# Density = 2.153537 g / cm^3
# Si number density = 21.584501 Si / 1000 Ang^3
#
#
#
# Elastic Constant Matrix: (Units=GPa)
#
#
# Indices 1 2 3 4 5 6 
#
# 1 101.7621 42.8131 42.1139 0.0000 20.4010 0.0000
# 2 42.8131 144.8492 65.1460 0.0000 19.0199 0.0000
# 3 42.1139 65.1460 128.9421 0.0000 22.9085 0.0000
# 4 0.0000 0.0000 0.0000 15.9156 0.0000 -2.5066
# 5 20.4010 19.0199 22.9085 0.0000 51.0057 0.0000
# 6 0.0000 0.0000 0.0000 -2.5066 0.0000 18.6323
#
#
#
# Elastic Compliance Matrix: (Units=1/GPa)
#
#
# Indices 1 2 3 4 5 6 
#
# 1 0.012342 -0.002172 -0.002392 0.000000 -0.003053 0.000000
# 2 -0.002172 0.009411 -0.003887 0.000000 -0.000895 0.000000
# 3 -0.002392 -0.003887 0.010946 0.000000 -0.002510 0.000000
# 4 0.000000 0.000000 0.000000 0.064191 0.000000 0.008636
# 5 -0.003053 -0.000895 -0.002510 0.000000 0.022288 0.000000
# 6 0.000000 0.000000 0.000000 0.008636 0.000000 0.054832
#
#
# Mechanical properties :
#
#
# Convention : Reuss Voigt Hill
#
# Bulk Modulus (GPa) = 63.29051 75.07769 69.18410
# Shear Modulus (GPa) = 25.48723 32.14276 28.81500
#
# Velocity S-wave (km/s) = 3.44002 3.86315 3.65771
# Velocity P-wave (km/s) = 6.72043 7.39981 7.06829
#
# Compressibility (1/GPa) = 0.01580016
#
# Stress axis : x y z
#
# Youngs Moduli (GPa) = 81.02295 106.25782 91.35615
#
# Poissons Ratio (x) = 0.23074 0.21849
# Poissons Ratio (y) = 0.17594 0.35506
# Poissons Ratio (z) = 0.19378 0.41297
#
# Static dielectric constant tensor:
#      x y z
#    x 1.783880 0.000000 0.052030 
#    y 0.000000 1.828600 0.000000 
#    z 0.052030 0.000000 1.735730 
# 
# From -- ./inp_files/73746.got.cif
#   From: 2010.05.17/outbox.cif.g08.bks.cpg/sg15_37_cif.got.tgz:73746.got - 2010.06.03 18:47:42.
