data_PCOD9278396
_publ_section_title
;
Structure prediction by ZEFSAII (Michael W. Deem and Ramdas Pophale) SiO2 
 PCOD9278396
Probable space group: C 2/C
;
_chemical_formula_sum "Si O2"
_cell_formula_units_Z 60
_cell_length_a 8.113785
_cell_length_b 19.751511
_cell_length_c 19.910311
_cell_angle_alpha 90.000000
_cell_angle_beta 49.322514
_cell_angle_gamma 90.000000
_cell_volume 2419.885166
_symmetry_space_group_name_H-M "C 2/C"
_symmetry_group_IT_number 15
_symmetry_cell_setting 'monoclinic'
loop_
_space_group_symop_operation_xyz
x,y,z
-x,y,1/2-z
-x,-y,-z
x,-y,1/2+z
1/2+x,1/2+y,z
1/2-x,1/2+y,1/2-z
1/2-x,1/2-y,-z
1/2+x,1/2-y,1/2+z
loop_
_atom_site_type_symbol
_atom_site_label
_atom_site_fract_x
_atom_site_fract_y
_atom_site_fract_z
Si Si1 0.500000 0.060046 0.250000
Si Si2 0.703438 0.801649 0.386313
Si Si3 0.268680 0.809005 0.591803
Si Si4 0.417027 0.053147 0.117425
Si Si5 0.679044 0.443952 0.096799
Si Si6 0.148790 0.158942 0.391336
Si Si7 0.919751 0.069210 0.551567
Si Si8 0.068284 0.334511 0.161222
O O1 0.476391 0.034016 0.178649
O O2 0.287016 0.106031 0.313693
O O3 0.481003 0.801196 0.489027
O O4 0.825215 0.867827 0.375691
O O5 0.788963 0.725972 0.368885
O O6 0.634187 0.812306 0.328345
O O7 0.318518 0.870756 0.630101
O O8 0.211172 0.733907 0.634368
O O9 0.067316 0.826273 0.595219
O O10 0.243944 0.999529 0.133766
O O11 0.630182 0.049198 0.011446
O O12 0.447351 0.448437 0.122089
O O13 0.082081 0.126679 0.480070
O O14 0.695349 0.104314 0.591685
O O15 0.000000 0.000000 0.500000
O O16 0.000000 0.362069 0.250000
#
# Coordination Sequence:
#
# PCOD9278396 Si02
#       8
#     4   8   8   8   8   8   8   8
#     4  12  26  40  66 104 144 170 224 306 334 402
#     4  10  21  43  71  94 137 180 229 279 336 421
#     4  10  20  42  74  96 130 185 230 270 340 428
#     4  10  23  41  69 102 136 177 227 285 342 403
#     4  10  23  44  67  98 133 184 229 272 344 414
#     4  11  22  42  66 103 133 179 230 273 349 405
#     4  12  24  44  71  97 131 183 232 275 343 421
#     4  11  24  42  69 104 134 177 228 291 339 402
#
# _framework density 24.794564999999999
#
# number of rings (size 3 to 8) (size 9 to 14) (size 15 to 20)
#    0.000    1.333    4.000    1.600    7.467    1.600 
#    4.800    0.000    0.000    0.000    0.000    0.000 
#    0.000    0.000    0.000    0.000    0.000    0.000 
#
# Total GULP energy -167576.657121 kJ/mol
# GULP energy per Si atom -5585.888571 kJ/mol
# Density = 2.473813 g / cm^3
# Si number density = 24.794565 Si / 1000 Ang^3
#
#
#
# Elastic Constant Matrix: (Units=GPa)
#
#
# Indices 1 2 3 4 5 6 
#
# 1 61.0920 35.0369 -2.8647 0.0000 25.3420 0.0000
# 2 35.0369 142.3498 10.8081 0.0000 16.2297 0.0000
# 3 -2.8647 10.8081 53.4107 0.0000 22.5709 0.0000
# 4 0.0000 0.0000 0.0000 15.2838 0.0000 6.9877
# 5 25.3420 16.2297 22.5709 0.0000 33.1057 0.0000
# 6 0.0000 0.0000 0.0000 6.9877 0.0000 35.0541
#
#
#
# Elastic Compliance Matrix: (Units=1/GPa)
#
#
# Indices 1 2 3 4 5 6 
#
# 1 0.036680 -0.006135 0.019390 0.000000 -0.038290 0.000000
# 2 -0.006135 0.008467 -0.003193 0.000000 0.002722 0.000000
# 3 0.019390 -0.003193 0.036551 0.000000 -0.038197 0.000000
# 4 0.000000 0.000000 0.000000 0.071990 0.000000 -0.014351
# 5 -0.038290 0.002722 -0.038197 0.000000 0.084225 0.000000
# 6 0.000000 0.000000 0.000000 -0.014351 0.000000 0.031388
#
#
# Mechanical properties :
#
#
# Convention : Reuss Voigt Hill
#
# Bulk Modulus (GPa) = 9.82103 38.09034 23.95569
# Shear Modulus (GPa) = 17.66059 30.94685 24.30372
#
# Velocity S-wave (km/s) = 2.67175 3.53672 3.13422
# Velocity P-wave (km/s) = 3.67249 5.66336 4.77288
#
# Compressibility (1/GPa) = 0.10182228
#
# Stress axis : x y z
#
# Youngs Moduli (GPa) = 27.26301 118.10590 27.35927
#
# Poissons Ratio (x) = 0.72455 -0.53049
# Poissons Ratio (y) = 0.16725 0.08735
# Poissons Ratio (z) = -0.52862 0.37707
#
# Static dielectric constant tensor:
#      x y z
#    x 1.990780 0.000000 -0.002990 
#    y 0.000000 2.004520 0.000000 
#    z -0.002990 0.000000 2.000140 
# 
# From -- ./inp_files/234066.got.cif
#   From: 2010.05.17/outbox.cif.g08.bks.cpg/sg15_118_cif.got.tgz:234066.got - 2010.06.03 18:47:42.
