data_PCOD9278964
_publ_section_title
;
Structure prediction by ZEFSAII (Michael W. Deem and Ramdas Pophale) SiO2 
 PCOD9278964
Probable space group: C 2/C
;
_chemical_formula_sum "Si O2"
_cell_formula_units_Z 56
_cell_length_a 28.709438
_cell_length_b 15.608203
_cell_length_c 8.813457
_cell_angle_alpha 90.000000
_cell_angle_beta 54.943147
_cell_angle_gamma 90.000000
_cell_volume 3232.855850
_symmetry_space_group_name_H-M "C 2/C"
_symmetry_group_IT_number 15
_symmetry_cell_setting 'monoclinic'
loop_
_space_group_symop_operation_xyz
x,y,z
-x,y,1/2-z
-x,-y,-z
x,-y,1/2+z
1/2+x,1/2+y,z
1/2-x,1/2+y,1/2-z
1/2-x,1/2-y,-z
1/2+x,1/2-y,1/2+z
loop_
_atom_site_type_symbol
_atom_site_label
_atom_site_fract_x
_atom_site_fract_y
_atom_site_fract_z
Si Si1 0.598010 0.504376 0.298844
Si Si2 0.939225 0.878821 0.361309
Si Si3 0.781288 0.465726 0.559658
Si Si4 0.294782 0.872064 0.837288
Si Si5 0.326566 0.720976 0.971497
Si Si6 0.265053 0.819716 0.347097
Si Si7 0.824095 0.065513 0.614650
O O1 0.554173 0.458102 0.269417
O O2 0.576458 0.579856 0.447153
O O3 0.625792 0.433613 0.357642
O O4 0.647542 0.537936 0.095562
O O5 0.884801 0.826486 0.403822
O O6 0.000000 0.832569 0.250000
O O7 0.809401 0.414869 0.647633
O O8 0.803246 0.555614 0.450974
O O9 0.780290 0.403765 0.415856
O O10 0.719789 0.493355 0.742961
O O11 0.328054 0.787584 0.828918
O O12 0.227965 0.842134 0.952846
O O13 0.309750 0.778375 0.149552
O O14 0.250000 0.750000 0.500000
O O15 0.211190 0.848985 0.347820
#
# Coordination Sequence:
#
# PCOD9278964 Si02
#       7
#     8   8   8   8   8   8   8
#     4  10  21  33  57  77 105 147 190 223 262 323
#     4  11  23  40  56  77 107 152 198 234 269 315
#     4  12  19  32  52  75 116 153 176 212 267 356
#     4  11  21  34  51  80 111 144 181 218 285 338
#     4  11  23  34  51  80 115 144 181 230 276 330
#     4  12  22  30  48  81 118 148 178 220 277 340
#     4  11  18  32  51  80 112 147 176 212 275 332
#
# _framework density 17.322146
#
# number of rings (size 3 to 8) (size 9 to 14) (size 15 to 20)
#    0.000    0.857    5.714    3.857    2.000    0.000 
#    0.000    0.000    0.000    0.000    0.000    4.000 
#    0.000    0.000    0.000    0.000    0.000    0.000 
#
# Total GULP energy -156177.666812 kJ/mol
# GULP energy per Si atom -5577.773815 kJ/mol
# Density = 1.728272 g / cm^3
# Si number density = 17.322146 Si / 1000 Ang^3
#
#
#
# Elastic Constant Matrix: (Units=GPa)
#
#
# Indices 1 2 3 4 5 6 
#
# 1 63.0883 26.1050 41.5471 0.0000 0.0339 0.0000
# 2 26.1050 81.9573 27.7613 0.0000 5.4396 0.0000
# 3 41.5471 27.7613 82.7452 0.0000 21.1878 0.0000
# 4 0.0000 0.0000 0.0000 34.8959 0.0000 13.5966
# 5 0.0339 5.4396 21.1878 0.0000 30.3201 0.0000
# 6 0.0000 0.0000 0.0000 13.5966 0.0000 27.5851
#
#
#
# Elastic Compliance Matrix: (Units=1/GPa)
#
#
# Indices 1 2 3 4 5 6 
#
# 1 0.027855 -0.004399 -0.015473 0.000000 0.011571 0.000000
# 2 -0.004399 0.014482 -0.002419 0.000000 -0.000903 0.000000
# 3 -0.015473 -0.002419 0.025029 0.000000 -0.017039 0.000000
# 4 0.000000 0.000000 0.000000 0.035468 0.000000 -0.017482
# 5 0.011571 -0.000903 -0.017039 0.000000 0.045038 0.000000
# 6 0.000000 0.000000 0.000000 -0.017482 0.000000 0.044868
#
#
# Mechanical properties :
#
#
# Convention : Reuss Voigt Hill
#
# Bulk Modulus (GPa) = 43.89038 46.51307 45.20172
# Shear Modulus (GPa) = 20.41519 27.38537 23.90028
#
# Velocity S-wave (km/s) = 3.43674 3.98042 3.71853
# Velocity P-wave (km/s) = 6.41412 6.93074 6.67743
#
# Compressibility (1/GPa) = 0.02278404
#
# Stress axis : x y z
#
# Youngs Moduli (GPa) = 35.90074 69.05181 39.95385
#
# Poissons Ratio (x) = 0.30376 0.61820
# Poissons Ratio (y) = 0.15793 0.09664
# Poissons Ratio (z) = 0.55549 0.16701
#
# Static dielectric constant tensor:
#      x y z
#    x 1.622990 0.000000 0.037120 
#    y 0.000000 1.636060 0.000000 
#    z 0.037120 0.000000 1.622390 
# 
# From -- ./inp_files/66156.got.cif
#   From: 2010.05.17/outbox.cif.g08.bks.cpg/sg15_34_cif.got.tgz:66156.got - 2010.06.03 18:47:42.
