data_PCOD9278844
_publ_section_title
;
Structure prediction by ZEFSAII (Michael W. Deem and Ramdas Pophale) SiO2 
 PCOD9278844
Probable space group: C 2/C
;
_chemical_formula_sum "Si O2"
_cell_formula_units_Z 40
_cell_length_a 16.846809
_cell_length_b 11.705541
_cell_length_c 8.718342
_cell_angle_alpha 90.000000
_cell_angle_beta 73.846454
_cell_angle_gamma 90.000000
_cell_volume 1651.388520
_symmetry_space_group_name_H-M "C 2/C"
_symmetry_group_IT_number 15
_symmetry_cell_setting 'monoclinic'
loop_
_space_group_symop_operation_xyz
x,y,z
-x,y,1/2-z
-x,-y,-z
x,-y,1/2+z
1/2+x,1/2+y,z
1/2-x,1/2+y,1/2-z
1/2-x,1/2-y,-z
1/2+x,1/2-y,1/2+z
loop_
_atom_site_type_symbol
_atom_site_label
_atom_site_fract_x
_atom_site_fract_y
_atom_site_fract_z
Si Si1 0.391323 0.914302 0.037934
Si Si2 0.500000 0.598530 0.750000
Si Si3 0.000000 0.431374 0.250000
Si Si4 0.344068 0.728215 0.812563
Si Si5 0.652000 0.485885 0.005273
Si Si6 0.752056 0.095461 0.327069
O O1 0.439131 0.868614 0.163489
O O2 0.323890 0.005978 0.132302
O O3 0.362308 0.812802 0.944022
O O4 0.448157 0.988269 0.891995
O O5 0.432861 0.681466 0.703468
O O6 0.556959 0.524149 0.606038
O O7 0.308277 0.616470 0.913466
O O8 0.286465 0.209690 0.222475
O O9 0.674942 0.450000 0.823287
O O10 0.703254 0.595591 0.032333
#
# Coordination Sequence:
#
# PCOD9278844 Si02
#       6
#     8   4   4   8   8   8
#     4  11  20  34  60  94 129 170 210 265 323 388
#     4   8  23  42  66  91 126 180 217 250 340 387
#     4  10  21  30  56  95 130 164 209 260 330 377
#     4  10  21  42  65  92 128 178 211 266 325 394
#     4  10  24  41  68  92 128 176 218 269 320 396
#     4  12  21  38  66  98 125 170 221 264 327 381
#
# _framework density 24.22204
#
# number of rings (size 3 to 8) (size 9 to 14) (size 15 to 20)
#    1.200    0.400    4.000    1.200    2.800    0.800 
#    0.000    1.000    8.800    0.000    0.000    0.000 
#    0.000    0.000    0.000    0.000    0.000    0.000 
#
# Total GULP energy -111585.765831 kJ/mol
# GULP energy per Si atom -5579.288292 kJ/mol
# Density = 2.416691 g / cm^3
# Si number density = 24.222040 Si / 1000 Ang^3
#
#
#
# Elastic Constant Matrix: (Units=GPa)
#
#
# Indices 1 2 3 4 5 6 
#
# 1 95.2735 21.8559 43.5048 0.0000 0.2745 0.0000
# 2 21.8559 59.7323 28.5851 0.0000 22.0018 0.0000
# 3 43.5048 28.5851 92.4358 0.0000 -17.8791 0.0000
# 4 0.0000 0.0000 0.0000 31.3744 0.0000 4.4817
# 5 0.2745 22.0018 -17.8791 0.0000 41.5256 0.0000
# 6 0.0000 0.0000 0.0000 4.4817 0.0000 42.8470
#
#
#
# Elastic Compliance Matrix: (Units=1/GPa)
#
#
# Indices 1 2 3 4 5 6 
#
# 1 0.013761 -0.000941 -0.006662 0.000000 -0.002461 0.000000
# 2 -0.000941 0.032341 -0.014041 0.000000 -0.023175 0.000000
# 3 -0.006662 -0.014041 0.021537 0.000000 0.016756 0.000000
# 4 0.000000 0.000000 0.000000 0.032357 0.000000 -0.003384
# 5 -0.002461 -0.023175 0.016756 0.000000 0.043591 0.000000
# 6 0.000000 0.000000 0.000000 -0.003384 0.000000 0.023693
#
#
# Mechanical properties :
#
#
# Convention : Reuss Voigt Hill
#
# Bulk Modulus (GPa) = 41.06434 48.37034 44.71734
# Shear Modulus (GPa) = 22.86409 33.38244 28.12327
#
# Velocity S-wave (km/s) = 3.07569 3.71642 3.41113
# Velocity P-wave (km/s) = 5.44089 6.19908 5.83232
#
# Compressibility (1/GPa) = 0.02435203
#
# Stress axis : x y z
#
# Youngs Moduli (GPa) = 72.66974 30.92034 46.43240
#
# Poissons Ratio (x) = 0.02909 0.30931
# Poissons Ratio (y) = 0.06837 0.65196
# Poissons Ratio (z) = 0.48409 0.43415
#
# Static dielectric constant tensor:
#      x y z
#    x 2.042920 0.000000 0.015580 
#    y 0.000000 1.938820 0.000000 
#    z 0.015580 0.000000 1.938480 
# 
# From -- ./inp_files/118202.got.cif
#   From: 2010.05.17/outbox.cif.g08.bks.cpg/sg15_60_cif.got.tgz:118202.got - 2010.06.03 18:47:42.
