data_PCOD9278960
_publ_section_title
;
Structure prediction by ZEFSAII (Michael W. Deem and Ramdas Pophale) SiO2 
 PCOD9278960
Probable space group: C 2/C
;
_chemical_formula_sum "Si O2"
_cell_formula_units_Z 52
_cell_length_a 20.349922
_cell_length_b 20.426664
_cell_length_c 5.437846
_cell_angle_alpha 90.000000
_cell_angle_beta 73.438821
_cell_angle_gamma 90.000000
_cell_volume 2166.638373
_symmetry_space_group_name_H-M "C 2/C"
_symmetry_group_IT_number 15
_symmetry_cell_setting 'monoclinic'
loop_
_space_group_symop_operation_xyz
x,y,z
-x,y,1/2-z
-x,-y,-z
x,-y,1/2+z
1/2+x,1/2+y,z
1/2-x,1/2+y,1/2-z
1/2-x,1/2-y,-z
1/2+x,1/2-y,1/2+z
loop_
_atom_site_type_symbol
_atom_site_label
_atom_site_fract_x
_atom_site_fract_y
_atom_site_fract_z
Si Si1 0.500000 0.542605 0.750000
Si Si2 0.203419 0.164332 0.346043
Si Si3 0.422395 0.974572 0.142762
Si Si4 0.849168 0.958571 0.387425
Si Si5 0.663232 0.219976 0.256274
Si Si6 0.065399 0.338772 0.518884
Si Si7 0.072102 0.206826 0.225096
O O1 0.500000 0.500000 0.500000
O O2 0.574676 0.575654 0.678041
O O3 0.205530 0.096369 0.486481
O O4 0.274954 0.188449 0.153897
O O5 0.188212 0.219760 0.564211
O O6 0.137924 0.164842 0.235232
O O7 0.389720 0.009626 0.412103
O O8 0.425336 0.896702 0.185586
O O9 0.500000 0.000000 0.000000
O O10 0.844800 0.009996 0.620477
O O11 0.633177 0.165093 0.110596
O O12 0.600820 0.249931 0.472584
O O13 0.055771 0.264869 0.434926
O O14 0.000000 0.357486 0.750000
O O15 0.000000 0.171260 0.250000
#
# Coordination Sequence:
#
# PCOD9278960 Si02
#       7
#     4   8   8   8   8   8   8
#     4   8  16  34  58  90 122 160 204 256 330 380
#     4  10  24  44  65  94 133 175 221 272 340 412
#     4  10  21  33  56  86 125 176 215 269 334 387
#     4  10  22  42  69  98 134 175 217 276 333 407
#     4  10  23  43  65  92 130 179 220 276 340 394
#     4  11  21  37  60  89 127 167 223 280 330 391
#     4  11  23  37  68  97 126 169 221 287 333 395
#
# _framework density 24.000313999999999
#
# number of rings (size 3 to 8) (size 9 to 14) (size 15 to 20)
#    0.000    1.846    3.077    0.462    6.462    1.231 
#    5.538    1.538    0.000    0.000    0.000    0.000 
#    0.000    0.000    0.000    0.000    0.000    0.000 
#
# Total GULP energy -145091.612118 kJ/mol
# GULP energy per Si atom -5580.446620 kJ/mol
# Density = 2.394569 g / cm^3
# Si number density = 24.000314 Si / 1000 Ang^3
#
#
#
# Elastic Constant Matrix: (Units=GPa)
#
#
# Indices 1 2 3 4 5 6 
#
# 1 92.4790 7.4115 4.8403 0.0000 4.0647 0.0000
# 2 7.4115 52.4236 -5.0582 0.0000 3.4645 0.0000
# 3 4.8403 -5.0582 78.3162 0.0000 12.8142 0.0000
# 4 0.0000 0.0000 0.0000 49.0547 0.0000 27.4962
# 5 4.0647 3.4645 12.8142 0.0000 15.9380 0.0000
# 6 0.0000 0.0000 0.0000 27.4962 0.0000 41.9002
#
#
#
# Elastic Compliance Matrix: (Units=1/GPa)
#
#
# Indices 1 2 3 4 5 6 
#
# 1 0.011047 -0.001460 -0.000424 0.000000 -0.002159 0.000000
# 2 -0.001460 0.019891 0.002328 0.000000 -0.005823 0.000000
# 3 -0.000424 0.002328 0.014981 0.000000 -0.012443 0.000000
# 4 0.000000 0.000000 0.000000 0.032247 0.000000 -0.021161
# 5 -0.002159 -0.005823 -0.012443 0.000000 0.074563 0.000000
# 6 0.000000 0.000000 0.000000 -0.021161 0.000000 0.037753
#
#
# Mechanical properties :
#
#
# Convention : Reuss Voigt Hill
#
# Bulk Modulus (GPa) = 21.36406 26.40066 23.88236
# Shear Modulus (GPa) = 24.36674 35.78026 30.07350
#
# Velocity S-wave (km/s) = 3.18978 3.86531 3.54368
# Velocity P-wave (km/s) = 4.74207 5.56281 5.16875
#
# Compressibility (1/GPa) = 0.04680759
#
# Stress axis : x y z
#
# Youngs Moduli (GPa) = 90.51929 50.27348 66.75043
#
# Poissons Ratio (x) = 0.07340 0.02829
# Poissons Ratio (y) = 0.13216 -0.15538
# Poissons Ratio (z) = 0.03836 -0.11702
#
# Static dielectric constant tensor:
#      x y z
#    x 1.962620 0.000000 0.002210 
#    y 0.000000 1.867490 0.000000 
#    z 0.002210 0.000000 1.951230 
# 
# From -- ./inp_files/13339.got.cif
#   From: 2010.05.17/outbox.cif.g08.bks.cpg/sg15_7_cif.got.tgz:13339.got - 2010.06.03 18:47:42.
