data_PCOD9278593
_publ_section_title
;
Structure prediction by ZEFSAII (Michael W. Deem and Ramdas Pophale) SiO2 
 PCOD9278593
Probable space group: C 2/C
;
_chemical_formula_sum "Si O2"
_cell_formula_units_Z 48
_cell_length_a 7.781967
_cell_length_b 15.031197
_cell_length_c 24.968370
_cell_angle_alpha 90.000000
_cell_angle_beta 47.968987
_cell_angle_gamma 90.000000
_cell_volume 2169.375963
_symmetry_space_group_name_H-M "C 2/C"
_symmetry_group_IT_number 15
_symmetry_cell_setting 'monoclinic'
loop_
_space_group_symop_operation_xyz
x,y,z
-x,y,1/2-z
-x,-y,-z
x,-y,1/2+z
1/2+x,1/2+y,z
1/2-x,1/2+y,1/2-z
1/2-x,1/2-y,-z
1/2+x,1/2-y,1/2+z
loop_
_atom_site_type_symbol
_atom_site_label
_atom_site_fract_x
_atom_site_fract_y
_atom_site_fract_z
Si Si1 0.858295 0.412066 0.004953
Si Si2 0.478111 0.712327 0.855952
Si Si3 0.995604 0.564402 0.652888
Si Si4 0.500000 0.200145 0.750000
Si Si5 0.212101 0.647655 0.499409
Si Si6 0.775008 0.899881 0.590239
Si Si7 0.500000 0.584150 0.750000
O O1 0.645763 0.357254 0.076861
O O2 0.075130 0.349540 0.971801
O O3 0.776791 0.420473 0.961567
O O4 0.000000 0.500000 0.000000
O O5 0.744610 0.743156 0.809136
O O6 0.326883 0.801333 0.879761
O O7 0.481867 0.650714 0.803279
O O8 0.074383 0.607331 0.579599
O O9 0.151422 0.484281 0.642134
O O10 0.989836 0.640067 0.698784
O O11 0.734732 0.528889 0.701200
O O12 0.250000 0.750000 0.500000
O O13 0.458481 0.599417 0.448450
#
# Coordination Sequence:
#
# PCOD9278593 Si02
#       7
#     8   8   8   4   8   8   4
#     4  12  24  42  68 100 131 167 210 272 330 376
#     4  11  23  43  63  95 127 171 216 263 321 383
#     4  11  23  43  63  95 127 171 216 263 321 383
#     4  10  26  40  68  86 128 180 212 264 308 380
#     4  12  24  42  68 100 131 167 210 272 330 376
#     4  12  25  42  66  99 133 162 218 272 322 386
#     4  10  20  44  64  82 130 176 216 256 318 386
#
# _framework density 22.126179
#
# number of rings (size 3 to 8) (size 9 to 14) (size 15 to 20)
#    0.000    0.667    5.000    2.000    4.667    1.333 
#    0.000    0.000    0.000    0.000    0.000    0.000 
#    0.000    0.000    0.000    0.000    0.000    0.000 
#
# Total GULP energy -133662.170900 kJ/mol
# GULP energy per Si atom -5569.257121 kJ/mol
# Density = 2.207582 g / cm^3
# Si number density = 22.126179 Si / 1000 Ang^3
#
#
#
# Elastic Constant Matrix: (Units=GPa)
#
#
# Indices 1 2 3 4 5 6 
#
# 1 71.0724 -37.1197 30.8133 0.0415 -27.6874 0.0349
# 2 -37.1197 46.6846 17.3507 0.0010 -10.2215 0.0010
# 3 30.8133 17.3507 93.3657 0.0220 -38.1907 0.0171
# 4 0.0415 0.0010 0.0220 -891.6499 -0.0303 -800.3326
# 5 -27.6874 -10.2215 -38.1907 -0.0303 49.9559 -0.0250
# 6 0.0349 0.0010 0.0171 -800.3326 -0.0250 -653.5540
#
#
#
# Elastic Compliance Matrix: (Units=1/GPa)
#
#
# Indices 1 2 3 4 5 6 
#
# 1 0.111227 0.113913 -0.033650 0.000002 0.059229 0.000000
# 2 0.113913 0.139825 -0.037904 0.000002 0.062767 0.000000
# 3 -0.033650 -0.037904 0.026275 -0.000001 -0.006318 0.000000
# 4 0.000002 0.000002 -0.000001 0.011309 0.000001 -0.013849
# 5 0.059229 0.062767 -0.006318 0.000001 0.060857 0.000000
# 6 0.000000 0.000000 0.000000 -0.013849 0.000000 0.015429
#
#
# Mechanical properties :
#
#
# Convention : Reuss Voigt Hill
#
# Bulk Modulus (GPa) = 2.76209 25.91237 14.33723
# Shear Modulus (GPa) = 12.47236 -285.71102 -136.61933
#
# Velocity S-wave (km/s) = 2.37680 -11.37578 -7.86636
# Velocity P-wave (km/s) = 2.96366 12.68100 8.71850
#
# Compressibility (1/GPa) = 0.36204459
#
# Stress axis : x y z
#
# Youngs Moduli (GPa) = 8.99061 7.15181 38.05831
#
# Poissons Ratio (x) = -0.81468 1.28066
# Poissons Ratio (y) = -1.02415 1.44258
# Poissons Ratio (z) = 0.30253 0.27109
#
# Static dielectric constant tensor:
#      x y z
#    x 1.052760 -0.000250 -0.105130 
#    y -0.000250 2.159000 -0.000020 
#    z -0.105130 -0.000020 1.939730 
# 
# From -- ./inp_files/189297.got.cif
#   From: 2010.05.17/outbox.cif.g08.bks.cpg/sg15_95_cif.got.tgz:189297.got - 2010.06.03 18:47:42.
