data_PCOD9278908
_publ_section_title
;
Structure prediction by ZEFSAII (Michael W. Deem and Ramdas Pophale) SiO2 
 PCOD9278908
Probable space group: C 2/C
;
_chemical_formula_sum "Si O2"
_cell_formula_units_Z 48
_cell_length_a 16.507836
_cell_length_b 21.978150
_cell_length_c 7.311135
_cell_angle_alpha 90.000000
_cell_angle_beta 111.757834
_cell_angle_gamma 90.000000
_cell_volume 2463.593561
_symmetry_space_group_name_H-M "C 2/C"
_symmetry_group_IT_number 15
_symmetry_cell_setting 'monoclinic'
loop_
_space_group_symop_operation_xyz
x,y,z
-x,y,1/2-z
-x,-y,-z
x,-y,1/2+z
1/2+x,1/2+y,z
1/2-x,1/2+y,1/2-z
1/2-x,1/2-y,-z
1/2+x,1/2-y,1/2+z
loop_
_atom_site_type_symbol
_atom_site_label
_atom_site_fract_x
_atom_site_fract_y
_atom_site_fract_z
Si Si1 0.715858 0.165386 0.589714
Si Si2 0.409698 0.454922 0.793957
Si Si3 0.693927 0.781766 0.702178
Si Si4 0.841470 0.081749 0.890332
Si Si5 0.876404 0.749455 0.723461
Si Si6 0.009669 0.156847 0.966527
O O1 0.686735 0.168353 0.354842
O O2 0.791223 0.217875 0.677061
O O3 0.759521 0.105369 0.707936
O O4 0.640815 0.191720 0.658856
O O5 0.500000 0.459106 0.750000
O O6 0.383241 0.520623 0.842528
O O7 0.332474 0.432627 0.596605
O O8 0.429616 0.403782 0.962873
O O9 0.786020 0.788246 0.671645
O O10 0.622595 0.773465 0.484550
O O11 0.915663 0.133730 0.951542
O O12 0.948835 0.792006 0.872024
O O13 0.000000 0.176515 0.750000
#
# Coordination Sequence:
#
# PCOD9278908 Si02
#       6
#     8   8   8   8   8   8
#     4   9  17  31  48  64  87 120 165 199 242 282
#     4  10  21  33  42  65  97 131 170 200 226 275
#     4   8  16  28  46  61  86 108 158 193 245 279
#     4  11  20  33  46  67  95 133 169 200 233 277
#     4   9  17  31  45  67  87 118 163 200 242 284
#     4  11  20  30  48  65  95 131 165 199 235 275
#
# _framework density 19.483733000000001
#
# number of rings (size 3 to 8) (size 9 to 14) (size 15 to 20)
#    1.000    1.333    0.000    5.500    0.000    0.000 
#    0.000    0.000    0.000    0.000    0.000    0.000 
#    0.000    0.000    0.000    6.000    0.000    2.667 
#
# Total GULP energy -133760.290975 kJ/mol
# GULP energy per Si atom -5573.345457 kJ/mol
# Density = 1.943939 g / cm^3
# Si number density = 19.483733 Si / 1000 Ang^3
#
#
#
# Elastic Constant Matrix: (Units=GPa)
#
#
# Indices 1 2 3 4 5 6 
#
# 1 27.3253 25.5864 31.2809 0.0000 4.9980 0.0000
# 2 25.5864 68.2492 66.0535 0.0000 13.7020 0.0000
# 3 31.2809 66.0535 186.0515 0.0000 -14.3330 0.0000
# 4 0.0000 0.0000 0.0000 38.8364 0.0000 9.4226
# 5 4.9980 13.7020 -14.3330 0.0000 16.8717 0.0000
# 6 0.0000 0.0000 0.0000 9.4226 0.0000 13.8966
#
#
#
# Elastic Compliance Matrix: (Units=1/GPa)
#
#
# Indices 1 2 3 4 5 6 
#
# 1 0.058276 -0.014703 -0.005337 0.000000 -0.009857 0.000000
# 2 -0.014703 0.048342 -0.018597 0.000000 -0.050703 0.000000
# 3 -0.005337 -0.018597 0.015152 0.000000 0.029556 0.000000
# 4 0.000000 0.000000 0.000000 0.030819 0.000000 -0.020897
# 5 -0.009857 -0.050703 0.029556 0.000000 0.128477 0.000000
# 6 0.000000 0.000000 0.000000 -0.020897 0.000000 0.086129
#
#
# Mechanical properties :
#
#
# Convention : Reuss Voigt Hill
#
# Bulk Modulus (GPa) = 22.47413 58.60753 40.54083
# Shear Modulus (GPa) = 10.88608 24.50129 17.69369
#
# Velocity S-wave (km/s) = 2.36630 3.55001 3.01678
# Velocity P-wave (km/s) = 4.36185 6.85193 5.74346
#
# Compressibility (1/GPa) = 0.04449560
#
# Stress axis : x y z
#
# Youngs Moduli (GPa) = 17.15961 20.68578 65.99968
#
# Poissons Ratio (x) = 0.30414 0.35227
# Poissons Ratio (y) = 0.25230 1.22739
# Poissons Ratio (z) = 0.09159 0.38469
#
# Static dielectric constant tensor:
#      x y z
#    x 1.733440 0.000000 -0.024690 
#    y 0.000000 1.710540 0.000000 
#    z -0.024690 0.000000 1.784190 
# 
# From -- ./inp_files/62587.got.cif
#   From: 2010.05.17/outbox.cif.g08.bks.cpg/sg15_32_cif.got.tgz:62587.got - 2010.06.03 18:47:42.
