data_PCOD9278183
_publ_section_title
;
Structure prediction by ZEFSAII (Michael W. Deem and Ramdas Pophale) SiO2 
 PCOD9278183
Probable space group: C 2/C
;
_chemical_formula_sum "Si O2"
_cell_formula_units_Z 56
_cell_length_a 18.035244
_cell_length_b 27.480634
_cell_length_c 10.084424
_cell_angle_alpha 90.000000
_cell_angle_beta 142.734356
_cell_angle_gamma 90.000000
_cell_volume 3026.370701
_symmetry_space_group_name_H-M "C 2/C"
_symmetry_group_IT_number 15
_symmetry_cell_setting 'monoclinic'
loop_
_space_group_symop_operation_xyz
x,y,z
-x,y,1/2-z
-x,-y,-z
x,-y,1/2+z
1/2+x,1/2+y,z
1/2-x,1/2+y,1/2-z
1/2-x,1/2-y,-z
1/2+x,1/2-y,1/2+z
loop_
_atom_site_type_symbol
_atom_site_label
_atom_site_fract_x
_atom_site_fract_y
_atom_site_fract_z
Si Si1 0.089792 0.822685 0.997606
Si Si2 0.521578 0.836640 0.428257
Si Si3 0.284910 0.081482 0.375341
Si Si4 0.418963 0.345122 0.005001
Si Si5 0.293430 0.106860 0.693547
Si Si6 0.586492 0.015985 0.501890
Si Si7 0.779126 0.733589 0.190671
O O1 0.169328 0.869193 0.067882
O O2 0.184119 0.780147 0.170436
O O3 0.000000 0.808729 0.750000
O O4 0.006378 0.834087 0.005917
O O5 0.599937 0.885650 0.509944
O O6 0.395532 0.851472 0.316470
O O7 0.602330 0.801323 0.632301
O O8 0.500000 0.815098 0.250000
O O9 0.167159 0.108601 0.148231
O O10 0.277118 0.084856 0.523235
O O11 0.314007 0.026614 0.376800
O O12 0.330710 0.298769 0.906219
O O13 0.500000 0.353247 0.250000
O O14 0.347907 0.066241 0.867953
O O15 0.500000 0.000000 0.500000
O O16 0.500000 0.019656 0.250000
O O17 0.750000 0.750000 0.000000
#
# Coordination Sequence:
#
# PCOD9278183 Si02
#       7
#     8   8   8   8   8   8   8
#     4  12  26  43  66  94 133 178 223 262 322 399
#     4   9  19  38  63  93 124 168 214 263 331 380
#     4  10  20  42  67  92 134 169 208 273 331 385
#     4  11  24  45  67  92 135 177 213 268 332 388
#     4  11  23  40  66  99 132 166 219 274 324 390
#     4  12  22  39  69 102 131 162 217 279 332 381
#     4  11  24  40  65  93 129 169 218 276 326 381
#
# _framework density 18.504010999999998
#
# number of rings (size 3 to 8) (size 9 to 14) (size 15 to 20)
#    0.000    1.143    5.714    0.857    2.000    2.857 
#    0.000    1.429    0.000    0.000    0.000    0.000 
#    0.000    0.000    0.000    0.000    0.000    0.000 
#
# Total GULP energy -156461.745855 kJ/mol
# GULP energy per Si atom -5587.919495 kJ/mol
# Density = 1.846189 g / cm^3
# Si number density = 18.504011 Si / 1000 Ang^3
#
#
#
# Elastic Constant Matrix: (Units=GPa)
#
#
# Indices 1 2 3 4 5 6 
#
# 1 122.2973 48.3466 53.8586 0.0000 -1.4130 0.0000
# 2 48.3466 99.2108 58.3047 0.0000 -3.5425 0.0000
# 3 53.8586 58.3047 152.2214 0.0000 -13.4806 0.0000
# 4 0.0000 0.0000 0.0000 33.4491 0.0000 -3.1870
# 5 -1.4130 -3.5425 -13.4806 0.0000 30.2543 0.0000
# 6 0.0000 0.0000 0.0000 -3.1870 0.0000 10.3242
#
#
#
# Elastic Compliance Matrix: (Units=1/GPa)
#
#
# Indices 1 2 3 4 5 6 
#
# 1 0.010755 -0.003856 -0.002419 0.000000 -0.001027 0.000000
# 2 -0.003856 0.014405 -0.004185 0.000000 -0.000358 0.000000
# 3 -0.002419 -0.004185 0.009344 0.000000 0.003560 0.000000
# 4 0.000000 0.000000 0.000000 0.030802 0.000000 0.009508
# 5 -0.001027 -0.000358 0.003560 0.000000 0.034550 0.000000
# 6 0.000000 0.000000 0.000000 0.009508 0.000000 0.099795
#
#
# Mechanical properties :
#
#
# Convention : Reuss Voigt Hill
#
# Bulk Modulus (GPa) = 73.61983 77.19436 75.40709
# Shear Modulus (GPa) = 22.21255 29.02017 25.61636
#
# Velocity S-wave (km/s) = 3.46846 3.96450 3.72475
# Velocity P-wave (km/s) = 7.47747 7.92241 7.70315
#
# Compressibility (1/GPa) = 0.01358330
#
# Stress axis : x y z
#
# Youngs Moduli (GPa) = 92.98334 69.41939 107.02471
#
# Poissons Ratio (x) = 0.26766 0.25892
# Poissons Ratio (y) = 0.35852 0.44790
# Poissons Ratio (z) = 0.22495 0.29052
#
# Static dielectric constant tensor:
#      x y z
#    x 1.577380 0.000000 0.155830 
#    y 0.000000 1.627510 0.000000 
#    z 0.155830 0.000000 0.954240 
# 
# From -- ./inp_files/52343.got.cif
#   From: 2010.05.17/outbox.cif.g08.bks.cpg/sg15_27_cif.got.tgz:52343.got - 2010.06.03 18:47:42.
