data_PCOD9278343
_publ_section_title
;
Structure prediction by ZEFSAII (Michael W. Deem and Ramdas Pophale) SiO2 
 PCOD9278343
Probable space group: C 2/C
;
_chemical_formula_sum "Si O2"
_cell_formula_units_Z 44
_cell_length_a 15.356387
_cell_length_b 22.018573
_cell_length_c 5.185272
_cell_angle_alpha 90.000000
_cell_angle_beta 107.068030
_cell_angle_gamma 90.000000
_cell_volume 1676.054316
_symmetry_space_group_name_H-M "C 2/C"
_symmetry_group_IT_number 15
_symmetry_cell_setting 'monoclinic'
loop_
_space_group_symop_operation_xyz
x,y,z
-x,y,1/2-z
-x,-y,-z
x,-y,1/2+z
1/2+x,1/2+y,z
1/2-x,1/2+y,1/2-z
1/2-x,1/2-y,-z
1/2+x,1/2-y,1/2+z
loop_
_atom_site_type_symbol
_atom_site_label
_atom_site_fract_x
_atom_site_fract_y
_atom_site_fract_z
Si Si1 0.500000 0.754247 0.250000
Si Si2 0.408721 0.145636 0.028795
Si Si3 0.130846 0.974123 0.806996
Si Si4 0.839021 0.523036 0.890784
Si Si5 0.363395 0.341833 0.441481
Si Si6 0.759974 0.186908 0.359172
O O1 0.436008 0.797829 0.368579
O O2 0.555796 0.707439 0.479924
O O3 0.500000 0.126489 0.250000
O O4 0.353958 0.092949 0.830288
O O5 0.340405 0.161178 0.201230
O O6 0.118898 0.908246 0.922843
O O7 0.092779 0.980144 0.488243
O O8 0.237683 0.994720 0.856397
O O9 0.883143 0.515681 0.206690
O O10 0.325650 0.348450 0.118580
O O11 0.294598 0.314514 0.599055
O O12 0.750000 0.250000 0.500000
#
# Coordination Sequence:
#
# PCOD9278343 Si02
#       6
#     4   8   8   8   8   8
#     4  12  30  48  70 114 152 194 238 312 382 432
#     4  12  28  45  71 107 157 192 242 306 365 448
#     4  10  20  42  71 103 133 181 247 303 357 427
#     4  10  22  42  67  97 137 188 241 290 352 423
#     4  12  26  48  77 106 150 195 251 310 370 446
#     4  12  24  45  72 105 143 203 252 290 364 452
#
# _framework density 26.252133000000001
#
# number of rings (size 3 to 8) (size 9 to 14) (size 15 to 20)
#    0.000    0.727    1.818    7.091    5.091    0.727 
#    0.000    0.909    0.000    0.000    0.000    0.000 
#    0.000    0.000    0.000    0.000    0.000    0.000 
#
# Total GULP energy -123008.285678 kJ/mol
# GULP energy per Si atom -5591.285713 kJ/mol
# Density = 2.619238 g / cm^3
# Si number density = 26.252133 Si / 1000 Ang^3
#
#
#
# Elastic Constant Matrix: (Units=GPa)
#
#
# Indices 1 2 3 4 5 6 
#
# 1 79.5044 32.9944 20.0315 0.0000 8.8272 0.0000
# 2 32.9944 151.7840 11.9522 0.0000 2.1537 0.0000
# 3 20.0315 11.9522 108.1134 0.0000 -24.6051 0.0000
# 4 0.0000 0.0000 0.0000 34.5748 0.0000 -3.4151
# 5 8.8272 2.1537 -24.6051 0.0000 36.7995 0.0000
# 6 0.0000 0.0000 0.0000 -3.4151 0.0000 30.6969
#
#
#
# Elastic Compliance Matrix: (Units=1/GPa)
#
#
# Indices 1 2 3 4 5 6 
#
# 1 0.015491 -0.002969 -0.003949 0.000000 -0.006183 0.000000
# 2 -0.002969 0.007249 -0.000219 0.000000 0.000141 0.000000
# 3 -0.003949 -0.000219 0.012059 0.000000 0.009023 0.000000
# 4 0.000000 0.000000 0.000000 0.029244 0.000000 0.003253
# 5 -0.006183 0.000141 0.009023 0.000000 0.034682 0.000000
# 6 0.000000 0.000000 0.000000 0.003253 0.000000 0.032939
#
#
# Mechanical properties :
#
#
# Convention : Reuss Voigt Hill
#
# Bulk Modulus (GPa) = 48.72079 52.15088 50.43583
# Shear Modulus (GPa) = 32.72675 38.70915 35.71795
#
# Velocity S-wave (km/s) = 3.53460 3.84411 3.69260
# Velocity P-wave (km/s) = 5.93775 6.29376 6.11835
#
# Compressibility (1/GPa) = 0.02052512
#
# Stress axis : x y z
#
# Youngs Moduli (GPa) = 64.55171 137.95188 82.92541
#
# Poissons Ratio (x) = 0.40955 0.32749
# Poissons Ratio (y) = 0.19164 0.01817
# Poissons Ratio (z) = 0.25493 0.03023
#
# Static dielectric constant tensor:
#      x y z
#    x 2.196570 0.000000 0.273980 
#    y 0.000000 2.207390 0.000000 
#    z 0.273980 0.000000 2.370530 
# 
# From -- ./inp_files/10417.got.cif
#   From: 2010.05.17/outbox.cif.g08.bks.cpg/sg15_6_cif.got.tgz:10417.got - 2010.06.03 18:47:42.
