data_PCOD9278558
_publ_section_title
;
Structure prediction by ZEFSAII (Michael W. Deem and Ramdas Pophale) SiO2 
 PCOD9278558
Probable space group: C 2/C
;
_chemical_formula_sum "Si O2"
_cell_formula_units_Z 52
_cell_length_a 7.258463
_cell_length_b 12.253449
_cell_length_c 27.233767
_cell_angle_alpha 90.000000
_cell_angle_beta 52.671164
_cell_angle_gamma 90.000000
_cell_volume 1926.060139
_symmetry_space_group_name_H-M "C 2/C"
_symmetry_group_IT_number 15
_symmetry_cell_setting 'monoclinic'
loop_
_space_group_symop_operation_xyz
x,y,z
-x,y,1/2-z
-x,-y,-z
x,-y,1/2+z
1/2+x,1/2+y,z
1/2-x,1/2+y,1/2-z
1/2-x,1/2-y,-z
1/2+x,1/2-y,1/2+z
loop_
_atom_site_type_symbol
_atom_site_label
_atom_site_fract_x
_atom_site_fract_y
_atom_site_fract_z
Si Si1 0.699197 0.803976 0.101006
Si Si2 0.803182 0.041950 0.117502
Si Si3 0.000000 0.456468 0.250000
Si Si4 0.242131 0.272118 0.274048
Si Si5 0.923412 0.681992 0.505777
Si Si6 0.714333 0.001720 0.411001
Si Si7 0.131975 0.348640 0.841096
O O1 0.673641 0.026227 0.190134
O O2 0.814510 0.753435 0.132202
O O3 0.844972 0.754473 0.033081
O O4 0.741464 0.932543 0.096464
O O5 0.939059 0.261066 0.151928
O O6 0.645469 0.134760 0.118591
O O7 0.071539 0.037452 0.088561
O O8 0.145201 0.378598 0.262137
O O9 0.500000 0.288528 0.250000
O O10 0.256197 0.179095 0.229597
O O11 0.750000 0.750000 0.500000
O O12 0.834808 0.624927 0.569896
O O13 0.996159 0.574363 0.463023
O O14 0.742066 0.045418 0.350840
#
# Coordination Sequence:
#
# PCOD9278558 Si02
#       7
#     8   8   4   8   8   8   8
#     4  10  22  46  68  98 144 183 236 300 361 434
#     4  11  23  41  68 102 140 181 240 298 354 440
#     4  10  24  44  64 106 142 178 242 296 356 454
#     4  11  23  41  69  98 139 190 232 288 378 439
#     4  10  20  43  76  98 147 197 233 316 367 410
#     4  10  24  43  70 107 141 193 250 291 368 444
#     4  11  24  41  68 102 143 183 236 296 363 437
#
# _framework density 26.998118000000002
#
# number of rings (size 3 to 8) (size 9 to 14) (size 15 to 20)
#    0.000    1.538    4.615    0.000    5.385    3.692 
#    0.000    9.231    0.000    0.000    0.000    0.000 
#    0.000    0.000    0.000    0.000    0.000    0.000 
#
# Total GULP energy -145528.171390 kJ/mol
# GULP energy per Si atom -5597.237361 kJ/mol
# Density = 2.693667 g / cm^3
# Si number density = 26.998118 Si / 1000 Ang^3
#
#
#
# Elastic Constant Matrix: (Units=GPa)
#
#
# Indices 1 2 3 4 5 6 
#
# 1 197.0744 55.8281 64.1117 0.0000 -20.9258 0.0000
# 2 55.8281 116.0147 26.7419 0.0000 1.6880 0.0000
# 3 64.1117 26.7419 64.9095 0.0000 -0.1224 0.0000
# 4 0.0000 0.0000 0.0000 41.5597 0.0000 -4.6128
# 5 -20.9258 1.6880 -0.1224 0.0000 43.9365 0.0000
# 6 0.0000 0.0000 0.0000 -4.6128 0.0000 43.0423
#
#
#
# Elastic Compliance Matrix: (Units=1/GPa)
#
#
# Indices 1 2 3 4 5 6 
#
# 1 0.008682 -0.002502 -0.007536 0.000000 0.004210 0.000000
# 2 -0.002502 0.010251 -0.001755 0.000000 -0.001590 0.000000
# 3 -0.007536 -0.001755 0.023566 0.000000 -0.003456 0.000000
# 4 0.000000 0.000000 0.000000 0.024351 0.000000 0.002610
# 5 0.004210 -0.001590 -0.003456 0.000000 0.024817 0.000000
# 6 0.000000 0.000000 0.000000 0.002610 0.000000 0.023513
#
#
# Mechanical properties :
#
#
# Convention : Reuss Voigt Hill
#
# Bulk Modulus (GPa) = 52.87523 74.59576 63.73550
# Shear Modulus (GPa) = 34.46585 41.12882 37.79733
#
# Velocity S-wave (km/s) = 3.57683 3.90730 3.74571
# Velocity P-wave (km/s) = 6.05686 6.93152 6.50890
#
# Compressibility (1/GPa) = 0.01891245
#
# Stress axis : x y z
#
# Youngs Moduli (GPa) = 115.18515 97.54892 42.43334
#
# Poissons Ratio (x) = 0.24405 0.31979
# Poissons Ratio (y) = 0.28818 0.07448
# Poissons Ratio (z) = 0.86807 0.17123
#
# Static dielectric constant tensor:
#      x y z
#    x 2.125810 0.000000 0.011060 
#    y 0.000000 2.154140 0.000000 
#    z 0.011060 0.000000 2.241630 
# 
# From -- ./inp_files/307053.got.cif
#   From: 2010.05.17/outbox.cif.g08.bks.cpg/sg15_154_cif.got.tgz:307053.got - 2010.06.03 18:47:42.
