data_PCOD9278985
_publ_section_title
;
Structure prediction by ZEFSAII (Michael W. Deem and Ramdas Pophale) SiO2 
 PCOD9278985
Probable space group: C 2/C
;
_chemical_formula_sum "Si O2"
_cell_formula_units_Z 48
_cell_length_a 5.382008
_cell_length_b 20.489775
_cell_length_c 23.758151
_cell_angle_alpha 90.000000
_cell_angle_beta 116.940681
_cell_angle_gamma 90.000000
_cell_volume 2335.628982
_symmetry_space_group_name_H-M "C 2/C"
_symmetry_group_IT_number 15
_symmetry_cell_setting 'monoclinic'
loop_
_space_group_symop_operation_xyz
x,y,z
-x,y,1/2-z
-x,-y,-z
x,-y,1/2+z
1/2+x,1/2+y,z
1/2-x,1/2+y,1/2-z
1/2-x,1/2-y,-z
1/2+x,1/2-y,1/2+z
loop_
_atom_site_type_symbol
_atom_site_label
_atom_site_fract_x
_atom_site_fract_y
_atom_site_fract_z
Si Si1 0.000000 0.290536 0.250000
Si Si2 0.052284 0.892162 0.188690
Si Si3 0.287437 1.000000 0.143719
Si Si4 0.762709 0.073014 0.070955
Si Si5 0.021105 0.426987 0.070954
Si Si6 0.500000 0.209464 0.250000
Si Si7 0.797524 0.392162 0.811310
O O1 0.215547 0.338779 0.303289
O O2 0.213261 0.250000 0.231630
O O3 0.000000 0.887117 0.250000
O O4 0.770078 0.885915 0.123852
O O5 0.165897 0.963857 0.185092
O O6 0.574468 0.036143 0.185091
O O7 0.087682 0.056098 0.098826
O O8 0.307616 0.943902 0.098826
O O9 0.725327 0.114085 0.123852
O O10 0.637283 0.000000 0.068643
O O11 0.621458 0.099081 1.000000
O O12 0.502392 0.161221 0.196711
O O13 0.500000 0.387118 0.750000
#
# Coordination Sequence:
#
# PCOD9278985 Si02
#       7
#     4   8   8   8   8   4   8
#     4  12  26  45  66  89 124 166 220 272 324 372
#     4  11  23  39  61  95 127 166 208 267 317 381
#     4  10  21  33  60  96 135 165 210 252 327 377
#     4   9  19  35  56  89 133 172 206 249 314 386
#     4   9  19  35  56  89 133 172 206 249 314 386
#     4  12  26  45  66  89 124 166 220 272 324 372
#     4  11  23  39  61  95 127 166 208 267 317 381
#
# _framework density 20.551210000000001
#
# number of rings (size 3 to 8) (size 9 to 14) (size 15 to 20)
#    0.000    1.667    1.667    2.500    0.000   17.333 
#    0.000    0.000    0.000    2.000    0.000    0.000 
#    0.000    0.000    0.000    0.000    0.000    0.000 
#
# Total GULP energy -133874.289824 kJ/mol
# GULP energy per Si atom -5578.095409 kJ/mol
# Density = 2.050443 g / cm^3
# Si number density = 20.551210 Si / 1000 Ang^3
#
#
#
# Elastic Constant Matrix: (Units=GPa)
#
#
# Indices 1 2 3 4 5 6 
#
# 1 121.3268 35.9663 78.5792 0.0000 -0.0005 0.0000
# 2 35.9663 45.9592 63.2870 0.0000 -0.0002 0.0000
# 3 78.5792 63.2870 176.2183 0.0000 -0.0010 0.0000
# 4 0.0000 0.0000 0.0000 0.8487 0.0000 0.0001
# 5 -0.0005 -0.0002 -0.0010 0.0000 15.1300 0.0000
# 6 0.0000 0.0000 0.0000 0.0001 0.0000 48.0498
#
#
#
# Elastic Compliance Matrix: (Units=1/GPa)
#
#
# Indices 1 2 3 4 5 6 
#
# 1 0.011947 -0.003983 -0.003897 0.000000 0.000000 0.000000
# 2 -0.003983 0.044375 -0.014161 0.000000 0.000000 0.000000
# 3 -0.003897 -0.014161 0.012498 0.000000 0.000000 0.000000
# 4 0.000000 0.000000 0.000000 1.178246 0.000000 -0.000001
# 5 0.000000 0.000000 0.000000 0.000000 0.066094 0.000000
# 6 0.000000 0.000000 0.000000 -0.000001 0.000000 0.020812
#
#
# Mechanical properties :
#
#
# Convention : Reuss Voigt Hill
#
# Bulk Modulus (GPa) = 40.42251 77.68548 59.05400
# Shear Modulus (GPa) = 3.60672 23.85049 13.72861
#
# Velocity S-wave (km/s) = 1.32620 3.41036 2.58741
# Velocity P-wave (km/s) = 4.69648 7.30688 6.14196
#
# Compressibility (1/GPa) = 0.02473869
#
# Stress axis : x y z
#
# Youngs Moduli (GPa) = 83.70435 22.53508 80.01227
#
# Poissons Ratio (x) = 0.08976 0.31179
# Poissons Ratio (y) = 0.33342 1.13303
# Poissons Ratio (z) = 0.32618 0.31911
#
# Static dielectric constant tensor:
#      x y z
#    x 1.871070 0.000000 0.000000 
#    y 0.000000 1.748930 0.000000 
#    z 0.000000 0.000000 1.739250 
# 
# From -- ./inp_files/261270.got.cif
#   From: 2010.05.17/outbox.cif.g08.bks.cpg/sg15_131_cif.got.tgz:261270.got - 2010.06.03 18:47:42.
