data_PCOD9278563
_publ_section_title
;
Structure prediction by ZEFSAII (Michael W. Deem and Ramdas Pophale) SiO2 
 PCOD9278563
Probable space group: C 2/C
;
_chemical_formula_sum "Si O2"
_cell_formula_units_Z 56
_cell_length_a 9.079782
_cell_length_b 27.852109
_cell_length_c 14.792044
_cell_angle_alpha 90.000000
_cell_angle_beta 141.104073
_cell_angle_gamma 90.000000
_cell_volume 2348.862148
_symmetry_space_group_name_H-M "C 2/C"
_symmetry_group_IT_number 15
_symmetry_cell_setting 'monoclinic'
loop_
_space_group_symop_operation_xyz
x,y,z
-x,y,1/2-z
-x,-y,-z
x,-y,1/2+z
1/2+x,1/2+y,z
1/2-x,1/2+y,1/2-z
1/2-x,1/2-y,-z
1/2+x,1/2-y,1/2+z
loop_
_atom_site_type_symbol
_atom_site_label
_atom_site_fract_x
_atom_site_fract_y
_atom_site_fract_z
Si Si1 0.249331 0.812912 0.675615
Si Si2 0.483863 0.825013 0.432288
Si Si3 0.990080 0.242689 0.918986
Si Si4 0.000000 0.131551 0.750000
Si Si5 0.281812 0.972792 0.705693
Si Si6 0.438506 0.573159 0.897374
Si Si7 0.500000 0.138612 0.750000
Si Si8 0.237733 0.104792 0.317128
O O1 0.500000 0.827134 0.750000
O O2 0.048092 0.805791 0.503451
O O3 0.188869 0.852429 0.721559
O O4 0.311614 0.762143 0.756553
O O5 0.569225 0.780069 0.529736
O O6 0.533654 0.826560 0.351161
O O7 0.605034 0.872238 0.530903
O O8 0.213458 0.834270 0.325992
O O9 0.250000 0.250000 0.000000
O O10 0.955551 0.099956 0.639246
O O11 0.500000 0.988243 0.750000
O O12 0.357483 0.938991 0.823435
O O13 0.116814 0.939478 0.563358
O O14 0.151577 0.020515 0.675011
O O15 0.219802 0.604347 0.830304
O O16 0.000000 0.087936 0.250000
#
# Coordination Sequence:
#
# PCOD9278563 Si02
#       8
#     8   8   8   4   8   8   4   8
#     4   9  19  38  59  87 122 154 204 251 302 362
#     4  10  22  40  63  92 120 163 202 250 307 361
#     4   9  19  36  61  91 121 154 205 254 300 364
#     4  10  22  38  62  88 122 150 214 242 300 360
#     4  11  22  39  62  86 120 158 205 245 310 353
#     4  10  22  39  59  90 119 160 198 255 298 366
#     4  10  20  44  58  86 130 154 200 250 306 370
#     4  11  23  40  59  89 120 159 205 248 303 365
#
# _framework density 23.841329999999999
#
# number of rings (size 3 to 8) (size 9 to 14) (size 15 to 20)
#    0.000    2.000    0.714    2.143    4.000    2.286 
#    6.429    3.571    0.000    0.000    0.000    0.000 
#    0.000    0.000    0.000    0.000    0.000    0.000 
#
# Total GULP energy -156573.359498 kJ/mol
# GULP energy per Si atom -5591.905696 kJ/mol
# Density = 2.378707 g / cm^3
# Si number density = 23.841330 Si / 1000 Ang^3
#
#
#
# Elastic Constant Matrix: (Units=GPa)
#
#
# Indices 1 2 3 4 5 6 
#
# 1 92.2854 27.6288 11.2998 0.0000 -30.0634 0.0000
# 2 27.6288 72.6966 13.6463 0.0000 -19.5765 0.0000
# 3 11.2998 13.6463 50.3150 0.0000 -14.1052 0.0000
# 4 0.0000 0.0000 0.0000 25.5778 0.0000 10.2753
# 5 -30.0634 -19.5765 -14.1052 0.0000 37.4006 0.0000
# 6 0.0000 0.0000 0.0000 10.2753 0.0000 31.1047
#
#
#
# Elastic Compliance Matrix: (Units=1/GPa)
#
#
# Indices 1 2 3 4 5 6 
#
# 1 0.015193 -0.002936 0.000422 0.000000 0.010835 0.000000
# 2 -0.002936 0.016807 -0.002342 0.000000 0.005554 0.000000
# 3 0.000422 -0.002342 0.022551 0.000000 0.007618 0.000000
# 4 0.000000 0.000000 0.000000 0.045079 0.000000 -0.014892
# 5 0.010835 0.005554 0.007618 0.000000 0.041227 0.000000
# 6 0.000000 0.000000 0.000000 -0.014892 0.000000 0.037069
#
#
# Mechanical properties :
#
#
# Convention : Reuss Voigt Hill
#
# Bulk Modulus (GPa) = 22.30227 35.60518 28.95373
# Shear Modulus (GPa) = 24.68125 29.66476 27.17301
#
# Velocity S-wave (km/s) = 3.22099 3.53123 3.37967
# Velocity P-wave (km/s) = 4.81745 5.62074 5.23453
#
# Compressibility (1/GPa) = 0.04483848
#
# Stress axis : x y z
#
# Youngs Moduli (GPa) = 65.82081 59.49971 44.34423
#
# Poissons Ratio (x) = 0.17466 -0.01869
# Poissons Ratio (y) = 0.19322 0.10385
# Poissons Ratio (z) = -0.02775 0.13935
#
# Static dielectric constant tensor:
#      x y z
#    x 1.841560 0.000000 -0.028360 
#    y 0.000000 1.889430 0.000000 
#    z -0.028360 0.000000 1.979160 
# 
# From -- ./inp_files/139595.got.cif
#   From: 2010.05.17/outbox.cif.g08.bks.cpg/sg15_70_cif.got.tgz:139595.got - 2010.06.03 18:47:42.
