data_PCOD9278535
_publ_section_title
;
Structure prediction by ZEFSAII (Michael W. Deem and Ramdas Pophale) SiO2 
 PCOD9278535
Probable space group: C 2/C
;
_chemical_formula_sum "Si O2"
_cell_formula_units_Z 52
_cell_length_a 8.319961
_cell_length_b 29.437623
_cell_length_c 9.219609
_cell_angle_alpha 90.000000
_cell_angle_beta 80.350832
_cell_angle_gamma 90.000000
_cell_volume 2226.119646
_symmetry_space_group_name_H-M "C 2/C"
_symmetry_group_IT_number 15
_symmetry_cell_setting 'monoclinic'
loop_
_space_group_symop_operation_xyz
x,y,z
-x,y,1/2-z
-x,-y,-z
x,-y,1/2+z
1/2+x,1/2+y,z
1/2-x,1/2+y,1/2-z
1/2-x,1/2-y,-z
1/2+x,1/2-y,1/2+z
loop_
_atom_site_type_symbol
_atom_site_label
_atom_site_fract_x
_atom_site_fract_y
_atom_site_fract_z
Si Si1 0.315761 0.727771 0.776634
Si Si2 0.857059 0.396942 0.994393
Si Si3 0.804939 0.814892 0.598244
Si Si4 0.224654 0.571051 0.435210
Si Si5 0.619369 0.522661 0.595108
Si Si6 0.180705 0.868635 0.301993
Si Si7 0.500000 0.625233 0.250000
O O1 0.500000 0.744899 0.750000
O O2 0.211306 0.773376 0.787574
O O3 0.294450 0.685503 0.670503
O O4 0.300815 0.705947 0.939010
O O5 0.831026 0.354189 0.892309
O O6 0.964067 0.416784 0.549370
O O7 0.714847 0.435090 0.011288
O O8 0.820787 0.379405 0.162855
O O9 0.964387 0.843041 0.617344
O O10 0.249369 0.517551 0.402912
O O11 0.290644 0.594190 0.576275
O O12 0.344025 0.594928 0.303361
O O13 0.500000 0.532176 0.750000
O O14 0.500000 0.500000 0.500000
O O15 0.000000 0.870522 0.250000
#
# Coordination Sequence:
#
# PCOD9278535 Si02
#       7
#     8   8   8   8   8   8   4
#     4   9  19  40  68  91 127 173 227 275 336 395
#     4  11  24  42  69  97 135 177 224 286 332 400
#     4  10  23  42  62  97 129 176 223 276 338 406
#     4  12  25  42  66 103 136 175 230 276 338 403
#     4  12  25  46  71 102 139 182 229 279 351 419
#     4  10  20  43  71  95 131 181 226 275 337 406
#     4  12  24  42  60  94 138 178 220 270 350 394
#
# _framework density 23.359033
#
# number of rings (size 3 to 8) (size 9 to 14) (size 15 to 20)
#    0.000    1.231    0.769    6.923    2.154    0.615 
#    8.308    3.077    0.000    0.000    0.000    0.000 
#    0.000    0.000    0.000    0.000    0.000    0.000 
#
# Total GULP energy -145072.668639 kJ/mol
# GULP energy per Si atom -5579.718025 kJ/mol
# Density = 2.330587 g / cm^3
# Si number density = 23.359033 Si / 1000 Ang^3
#
#
#
# Elastic Constant Matrix: (Units=GPa)
#
#
# Indices 1 2 3 4 5 6 
#
# 1 112.5337 36.1131 12.8466 0.0000 -26.9835 0.0000
# 2 36.1131 155.1482 29.7580 0.0000 -13.9446 0.0000
# 3 12.8466 29.7580 62.9890 0.0000 -9.2357 0.0000
# 4 0.0000 0.0000 0.0000 -344.1159 0.0000 51.3580
# 5 -26.9835 -13.9446 -9.2357 0.0000 33.7804 0.0000
# 6 0.0000 0.0000 0.0000 51.3580 0.0000 28.0530
#
#
#
# Elastic Compliance Matrix: (Units=1/GPa)
#
#
# Indices 1 2 3 4 5 6 
#
# 1 0.011523 -0.001886 -0.000233 0.000000 0.008362 0.000000
# 2 -0.001886 0.007541 -0.003066 0.000000 0.000769 0.000000
# 3 -0.000233 -0.003066 0.017875 0.000000 0.003436 0.000000
# 4 0.000000 0.000000 0.000000 -0.002282 0.000000 0.004178
# 5 0.008362 0.000769 0.003436 0.000000 0.037539 0.000000
# 6 0.000000 0.000000 0.000000 0.004178 0.000000 0.027997
#
#
# Mechanical properties :
#
#
# Convention : Reuss Voigt Hill
#
# Bulk Modulus (GPa) = 37.63498 54.23405 45.93451
# Shear Modulus (GPa) = 41.86902 -39.65962 1.10470
#
# Velocity S-wave (km/s) = 4.23828 -4.12494 0.68844
# Velocity P-wave (km/s) = 6.33224 0.76233 4.50990
#
# Compressibility (1/GPa) = 0.02657103
#
# Stress axis : x y z
#
# Youngs Moduli (GPa) = 86.78153 132.60006 55.94309
#
# Poissons Ratio (x) = 0.25007 0.01304
# Poissons Ratio (y) = 0.16366 0.17149
# Poissons Ratio (z) = 0.02023 0.40649
#
# Static dielectric constant tensor:
#      x y z
#    x 1.732470 0.000000 0.007630 
#    y 0.000000 1.993640 0.000000 
#    z 0.007630 0.000000 1.985490 
# 
# From -- ./inp_files/42940.got.cif
#   From: 2010.05.17/outbox.cif.g08.bks.cpg/sg15_22_cif.got.tgz:42940.got - 2010.06.03 18:47:42.
