data_PCOD9278980
_publ_section_title
;
Structure prediction by ZEFSAII (Michael W. Deem and Ramdas Pophale) SiO2 
 PCOD9278980
Probable space group: C 2/C
;
_chemical_formula_sum "Si O2"
_cell_formula_units_Z 64
_cell_length_a 14.361676
_cell_length_b 21.033351
_cell_length_c 12.725348
_cell_angle_alpha 90.000000
_cell_angle_beta 68.395884
_cell_angle_gamma 90.000000
_cell_volume 3573.958184
_symmetry_space_group_name_H-M "C 2/C"
_symmetry_group_IT_number 15
_symmetry_cell_setting 'monoclinic'
loop_
_space_group_symop_operation_xyz
x,y,z
-x,y,1/2-z
-x,-y,-z
x,-y,1/2+z
1/2+x,1/2+y,z
1/2-x,1/2+y,1/2-z
1/2-x,1/2-y,-z
1/2+x,1/2-y,1/2+z
loop_
_atom_site_type_symbol
_atom_site_label
_atom_site_fract_x
_atom_site_fract_y
_atom_site_fract_z
Si Si1 0.099449 0.542029 0.950225
Si Si2 0.858011 0.765743 0.509941
Si Si3 0.264111 0.528491 0.500439
Si Si4 0.386777 0.243859 0.749573
Si Si5 0.120311 0.117830 0.200323
Si Si6 0.411483 0.852187 0.866781
Si Si7 0.120051 0.396776 0.217863
Si Si8 0.691548 0.601642 0.404267
O O1 0.125640 0.573330 0.829763
O O2 0.192624 0.498515 0.940185
O O3 0.086457 0.598552 0.038562
O O4 0.000000 0.500000 0.000000
O O5 0.750000 0.750000 0.500000
O O6 0.874781 0.747931 0.626825
O O7 0.923791 0.718417 0.411162
O O8 0.869360 0.842299 0.509249
O O9 0.339503 0.576920 0.413396
O O10 0.187602 0.562876 0.611443
O O11 0.310038 0.466084 0.537196
O O12 0.500000 0.242709 0.750000
O O13 0.342559 0.308673 0.815689
O O14 0.343491 0.176006 0.799991
O O15 0.155222 0.093535 0.300236
O O16 0.000000 0.118018 0.250000
O O17 0.500000 0.865157 0.750000
O O18 0.304242 0.868376 0.857684
O O19 0.000000 0.398351 0.250000
#
# Coordination Sequence:
#
# PCOD9278980 Si02
#       8
#     8   8   8   8   8   8   8   8
#     4  11  22  34  54  85 132 159 185 229 298 367
#     4   9  17  37  58  77 110 158 197 235 289 343
#     4  11  23  35  59  90 117 157 200 243 296 358
#     4   9  19  37  60  82 113 160 198 244 301 350
#     4  10  22  42  63  79 112 159 207 254 294 336
#     4  10  21  33  59  88 118 155 193 236 294 364
#     4  11  21  35  56  88 126 159 191 234 296 370
#     4   9  21  38  58  82 116 151 196 242 303 350
#
# _framework density 17.907316000000002
#
# number of rings (size 3 to 8) (size 9 to 14) (size 15 to 20)
#    0.000    2.000    2.500    0.750    5.250    1.000 
#    0.000    0.625   16.500    0.000    0.000    0.000 
#    0.000    0.000    0.000    0.000    0.000    0.000 
#
# Total GULP energy -178146.942089 kJ/mol
# GULP energy per Si atom -5567.091940 kJ/mol
# Density = 1.786656 g / cm^3
# Si number density = 17.907316 Si / 1000 Ang^3
#
#
#
# Elastic Constant Matrix: (Units=GPa)
#
#
# Indices 1 2 3 4 5 6 
#
# 1 58.8157 31.4144 41.0296 0.0000 16.6744 0.0000
# 2 31.4144 118.2913 42.6845 0.0000 -4.2569 0.0000
# 3 41.0296 42.6845 85.9440 0.0000 -1.3980 0.0000
# 4 0.0000 0.0000 0.0000 32.9158 0.0000 -1.3583
# 5 16.6744 -4.2569 -1.3980 0.0000 29.2245 0.0000
# 6 0.0000 0.0000 0.0000 -1.3583 0.0000 15.9507
#
#
#
# Elastic Compliance Matrix: (Units=1/GPa)
#
#
# Indices 1 2 3 4 5 6 
#
# 1 0.036846 -0.005014 -0.015466 0.000000 -0.022493 0.000000
# 2 -0.005014 0.011028 -0.003013 0.000000 0.004323 0.000000
# 3 -0.015466 -0.003013 0.020668 0.000000 0.009374 0.000000
# 4 0.000000 0.000000 0.000000 0.030488 0.000000 0.002596
# 5 -0.022493 0.004323 0.009374 0.000000 0.048130 0.000000
# 6 0.000000 0.000000 0.000000 0.002596 0.000000 0.062914
#
#
# Mechanical properties :
#
#
# Convention : Reuss Voigt Hill
#
# Bulk Modulus (GPa) = 46.39080 54.81199 50.60140
# Shear Modulus (GPa) = 18.92179 25.47971 22.20075
#
# Velocity S-wave (km/s) = 3.25414 3.77618 3.52484
# Velocity P-wave (km/s) = 6.33100 7.04896 6.69961
#
# Compressibility (1/GPa) = 0.02155600
#
# Stress axis : x y z
#
# Youngs Moduli (GPa) = 27.13982 90.67749 48.38386
#
# Poissons Ratio (x) = 0.45464 0.74831
# Poissons Ratio (y) = 0.13607 0.14579
# Poissons Ratio (z) = 0.41975 0.27323
#
# Static dielectric constant tensor:
#      x y z
#    x 0.464170 0.000000 0.240380 
#    y 0.000000 1.660950 0.000000 
#    z 0.240380 0.000000 1.542770 
# 
# From -- ./inp_files/99779.got.cif
#   From: 2010.05.17/outbox.cif.g08.bks.cpg/sg15_50_cif.got.tgz:99779.got - 2010.06.03 18:47:42.
