data_PCOD9278023
_publ_section_title
;
Structure prediction by ZEFSAII (Michael W. Deem and Ramdas Pophale) SiO2 
 PCOD9278023
Probable space group: C 2/C
;
_chemical_formula_sum "Si O2"
_cell_formula_units_Z 44
_cell_length_a 24.305775
_cell_length_b 7.309549
_cell_length_c 12.132918
_cell_angle_alpha 90.000000
_cell_angle_beta 70.907756
_cell_angle_gamma 90.000000
_cell_volume 2037.013936
_symmetry_space_group_name_H-M "C 2/C"
_symmetry_group_IT_number 15
_symmetry_cell_setting 'monoclinic'
loop_
_space_group_symop_operation_xyz
x,y,z
-x,y,1/2-z
-x,-y,-z
x,-y,1/2+z
1/2+x,1/2+y,z
1/2-x,1/2+y,1/2-z
1/2-x,1/2-y,-z
1/2+x,1/2-y,1/2+z
loop_
_atom_site_type_symbol
_atom_site_label
_atom_site_fract_x
_atom_site_fract_y
_atom_site_fract_z
Si Si1 0.060589 0.980906 0.393152
Si Si2 0.326889 0.238497 0.874343
Si Si3 0.368976 0.178949 0.611704
Si Si4 0.076461 0.343027 0.015638
Si Si5 0.000000 0.822006 0.750000
Si Si6 0.758273 0.447540 0.047513
O O1 0.075396 0.771138 0.403381
O O2 0.109283 0.112455 0.415803
O O3 0.047491 0.047562 0.278037
O O4 0.000000 0.000000 0.500000
O O5 0.362582 0.164764 0.746951
O O6 0.368543 0.236134 0.952648
O O7 0.296358 0.434606 0.870303
O O8 0.279777 0.084799 0.937326
O O9 0.308557 0.099593 0.603065
O O10 0.416414 0.052464 0.521045
O O11 0.024527 0.299918 0.134301
O O12 0.750000 0.250000 0.000000
#
# Coordination Sequence:
#
# PCOD9278023 Si02
#       6
#     8   8   8   8   4   8
#     4  10  22  41  64  91 127 168 218 267 324 385
#     4  10  22  42  61  95 133 162 217 275 309 385
#     4  11  23  41  66  96 125 173 215 262 333 390
#     4  10  22  43  63  92 133 168 217 271 324 390
#     4  10  20  42  64  94 130 172 212 278 322 388
#     4  10  23  40  65  93 127 170 215 261 328 384
#
# _framework density 21.600247
#
# number of rings (size 3 to 8) (size 9 to 14) (size 15 to 20)
#    0.000    1.818    1.818    1.091    2.545    4.364 
#   13.091    1.818    0.000    0.000    0.000    0.000 
#    0.000    0.000    0.000    0.000    0.000    0.000 
#
# Total GULP energy -122555.520373 kJ/mol
# GULP energy per Si atom -5570.705472 kJ/mol
# Density = 2.155108 g / cm^3
# Si number density = 21.600247 Si / 1000 Ang^3
#
#
#
# Elastic Constant Matrix: (Units=GPa)
#
#
# Indices 1 2 3 4 5 6 
#
# 1 43.1132 12.1991 8.2508 0.0000 8.8475 0.0000
# 2 12.1991 86.7125 19.3907 0.0000 5.8955 0.0000
# 3 8.2508 19.3907 83.0289 0.0000 3.0961 0.0000
# 4 0.0000 0.0000 0.0000 28.0068 0.0000 -0.4515
# 5 8.8475 5.8955 3.0961 0.0000 28.9842 0.0000
# 6 0.0000 0.0000 0.0000 -0.4515 0.0000 36.8429
#
#
#
# Elastic Compliance Matrix: (Units=1/GPa)
#
#
# Indices 1 2 3 4 5 6 
#
# 1 0.025756 -0.002771 -0.001647 0.000000 -0.007122 0.000000
# 2 -0.002771 0.012605 -0.002615 0.000000 -0.001439 0.000000
# 3 -0.001647 -0.002615 0.012831 0.000000 -0.000336 0.000000
# 4 0.000000 0.000000 0.000000 0.035713 0.000000 0.000438
# 5 -0.007122 -0.001439 -0.000336 0.000000 0.037004 0.000000
# 6 0.000000 0.000000 0.000000 0.000438 0.000000 0.027148
#
#
# Mechanical properties :
#
#
# Convention : Reuss Voigt Hill
#
# Bulk Modulus (GPa) = 26.93499 32.50397 29.71948
# Shear Modulus (GPa) = 28.16968 30.30104 29.23536
#
# Velocity S-wave (km/s) = 3.61520 3.74947 3.68295
# Velocity P-wave (km/s) = 5.47020 5.81596 5.64573
#
# Compressibility (1/GPa) = 0.03712643
#
# Stress axis : x y z
#
# Youngs Moduli (GPa) = 38.82654 79.33539 77.93738
#
# Poissons Ratio (x) = 0.21983 0.12834
# Poissons Ratio (y) = 0.10759 0.20378
# Poissons Ratio (z) = 0.06393 0.20744
#
# Static dielectric constant tensor:
#      x y z
#    x 1.970970 0.000000 -0.022920 
#    y 0.000000 1.774470 0.000000 
#    z -0.022920 0.000000 1.780110 
# 
# From -- ./inp_files/124965.got.cif
#   From: 2010.05.17/outbox.cif.g08.bks.cpg/sg15_63_cif.got.tgz:124965.got - 2010.06.03 18:47:42.
