data_PCOD9278627
_publ_section_title
;
Structure prediction by ZEFSAII (Michael W. Deem and Ramdas Pophale) SiO2 
 PCOD9278627
Probable space group: C 2/C
;
_chemical_formula_sum "Si O2"
_cell_formula_units_Z 56
_cell_length_a 26.419261
_cell_length_b 8.923575
_cell_length_c 14.428025
_cell_angle_alpha 90.000000
_cell_angle_beta 57.772675
_cell_angle_gamma 90.000000
_cell_volume 2877.434483
_symmetry_space_group_name_H-M "C 2/C"
_symmetry_group_IT_number 15
_symmetry_cell_setting 'monoclinic'
loop_
_space_group_symop_operation_xyz
x,y,z
-x,y,1/2-z
-x,-y,-z
x,-y,1/2+z
1/2+x,1/2+y,z
1/2-x,1/2+y,1/2-z
1/2-x,1/2-y,-z
1/2+x,1/2-y,1/2+z
loop_
_atom_site_type_symbol
_atom_site_label
_atom_site_fract_x
_atom_site_fract_y
_atom_site_fract_z
Si Si1 0.079791 0.236940 0.090391
Si Si2 0.664048 0.749852 0.832703
Si Si3 0.691464 0.664313 0.095868
Si Si4 0.500000 0.017509 0.750000
Si Si5 0.805120 0.167292 0.996961
Si Si6 0.777684 0.924995 0.730875
Si Si7 0.089129 0.733445 0.219826
Si Si8 0.500000 0.517241 0.750000
O O1 0.131111 0.242862 0.119474
O O2 0.035577 0.375987 0.144976
O O3 0.115325 0.233292 0.960327
O O4 0.040269 0.089210 0.146469
O O5 0.707291 0.890378 0.808842
O O6 0.704368 0.599187 0.791774
O O7 0.631256 0.765983 0.767428
O O8 0.693711 0.644925 0.204247
O O9 0.750000 0.750000 0.000000
O O10 0.691349 0.499025 0.050364
O O11 0.452075 0.911332 0.747310
O O12 0.796349 0.149847 0.115243
O O13 0.750000 0.250000 0.000000
O O14 0.866388 0.250805 0.911008
O O15 0.044971 0.875977 0.262097
#
# Coordination Sequence:
#
# PCOD9278627 Si02
#       8
#     8   8   8   4   8   8   8   4
#     4  11  23  44  65  96 129 178 222 279 324 399
#     4  12  24  40  68  96 136 168 226 265 341 402
#     4  12  23  40  67  98 137 171 214 274 336 398
#     4  10  28  44  66  86 132 184 224 282 328 378
#     4  12  23  40  67  98 137 171 214 274 336 398
#     4  12  22  40  64 109 132 177 206 271 345 402
#     4  11  23  44  65  96 129 178 222 279 324 399
#     4  10  20  44  66  86 132 176 232 262 328 378
#
# _framework density 19.461780999999998
#
# number of rings (size 3 to 8) (size 9 to 14) (size 15 to 20)
#    0.000    0.571    7.143    0.000    2.000    3.429 
#    0.000    5.714    0.000    0.000    0.000    0.000 
#    0.000    0.000    0.000    0.000    0.000    0.000 
#
# Total GULP energy -156562.410588 kJ/mol
# GULP energy per Si atom -5591.514664 kJ/mol
# Density = 1.941748 g / cm^3
# Si number density = 19.461781 Si / 1000 Ang^3
#
#
#
# Elastic Constant Matrix: (Units=GPa)
#
#
# Indices 1 2 3 4 5 6 
#
# 1 41.5324 15.2410 13.2655 0.0000 -7.7385 0.0000
# 2 15.2410 95.8893 22.5182 0.0000 -18.2192 0.0000
# 3 13.2655 22.5182 102.5322 0.0000 5.2543 0.0000
# 4 0.0000 0.0000 0.0000 20.8273 0.0000 -10.7858
# 5 -7.7385 -18.2192 5.2543 0.0000 46.0871 0.0000
# 6 0.0000 0.0000 0.0000 -10.7858 0.0000 30.6073
#
#
#
# Elastic Compliance Matrix: (Units=1/GPa)
#
#
# Indices 1 2 3 4 5 6 
#
# 1 0.026781 -0.002838 -0.003032 0.000000 0.003721 0.000000
# 2 -0.002838 0.012385 -0.002595 0.000000 0.004715 0.000000
# 3 -0.003032 -0.002595 0.010857 0.000000 -0.002773 0.000000
# 4 0.000000 0.000000 0.000000 0.058732 0.000000 0.020697
# 5 0.003721 0.004715 -0.002773 0.000000 0.024503 0.000000
# 6 0.000000 0.000000 0.000000 0.020697 0.000000 0.039965
#
#
# Mechanical properties :
#
#
# Convention : Reuss Voigt Hill
#
# Bulk Modulus (GPa) = 30.21696 38.00036 34.10866
# Shear Modulus (GPa) = 24.85294 32.09963 28.47629
#
# Velocity S-wave (km/s) = 3.57741 4.06565 3.82932
# Velocity P-wave (km/s) = 5.71173 6.45037 6.09226
#
# Compressibility (1/GPa) = 0.03309399
#
# Stress axis : x y z
#
# Youngs Moduli (GPa) = 37.34041 80.74339 92.10437
#
# Poissons Ratio (x) = 0.22912 0.27929
# Poissons Ratio (y) = 0.10596 0.23896
# Poissons Ratio (z) = 0.11323 0.20949
#
# Static dielectric constant tensor:
#      x y z
#    x 1.675370 0.000000 -0.004890 
#    y 0.000000 1.691200 0.000000 
#    z -0.004890 0.000000 1.673920 
# 
# From -- ./inp_files/172312.got.cif
#   From: 2010.05.17/outbox.cif.g08.bks.cpg/sg15_87_cif.got.tgz:172312.got - 2010.06.03 18:47:42.
