data_PCOD9278999
_publ_section_title
;
Structure prediction by ZEFSAII (Michael W. Deem and Ramdas Pophale) SiO2 
 PCOD9278999
Probable space group: C 2/C
;
_chemical_formula_sum "Si O2"
_cell_formula_units_Z 56
_cell_length_a 24.516638
_cell_length_b 13.061527
_cell_length_c 17.659856
_cell_angle_alpha 90.000000
_cell_angle_beta 29.729625
_cell_angle_gamma 90.000000
_cell_volume 2804.419022
_symmetry_space_group_name_H-M "C 2/C"
_symmetry_group_IT_number 15
_symmetry_cell_setting 'monoclinic'
loop_
_space_group_symop_operation_xyz
x,y,z
-x,y,1/2-z
-x,-y,-z
x,-y,1/2+z
1/2+x,1/2+y,z
1/2-x,1/2+y,1/2-z
1/2-x,1/2-y,-z
1/2+x,1/2-y,1/2+z
loop_
_atom_site_type_symbol
_atom_site_label
_atom_site_fract_x
_atom_site_fract_y
_atom_site_fract_z
Si Si1 0.120342 0.711012 0.126569
Si Si2 0.978917 0.191463 0.077785
Si Si3 0.099105 0.026780 0.016213
Si Si4 0.095079 0.115987 0.783020
Si Si5 0.718536 0.546818 0.217128
Si Si6 0.427451 0.906158 0.557148
Si Si7 0.244428 0.384109 0.599616
O O1 0.112244 0.791841 0.205649
O O2 0.186299 0.621586 0.088469
O O3 0.000000 0.677440 0.250000
O O4 0.177128 0.782194 0.993904
O O5 0.856765 0.141425 0.222551
O O6 0.053988 0.139913 0.053271
O O7 0.034872 0.154887 0.931549
O O8 0.992573 0.312772 0.060973
O O9 0.159498 0.988792 0.866502
O O10 0.183547 0.986744 0.977242
O O11 0.989037 0.960594 0.156230
O O12 0.198156 0.049295 0.686808
O O13 0.843712 0.569230 0.089043
O O14 0.344764 0.877097 0.725965
O O15 0.500000 0.000000 0.500000
#
# Coordination Sequence:
#
# PCOD9278999 Si02
#       7
#     8   8   8   8   8   8   8
#     4  11  20  33  54  81 117 157 186 225 289 341
#     4   9  17  32  56  75 106 150 184 234 280 341
#     4   8  15  31  51  74 103 136 190 228 266 331
#     4   9  15  32  51  75 106 141 183 227 267 342
#     4   8  18  31  51  77 102 144 188 224 287 331
#     4  11  22  36  51  84 117 147 184 240 301 341
#     4  10  21  34  48  82 118 150 187 229 282 352
#
# _framework density 19.968485999999999
#
# number of rings (size 3 to 8) (size 9 to 14) (size 15 to 20)
#    0.000    2.571    2.857    1.714    0.000    3.429 
#    7.714    0.000    0.000    0.000    0.000   13.000 
#    0.000    0.000    0.000    0.000    0.000    0.000 
#
# Total GULP energy -155923.097819 kJ/mol
# GULP energy per Si atom -5568.682065 kJ/mol
# Density = 1.992304 g / cm^3
# Si number density = 19.968486 Si / 1000 Ang^3
#
#
#
# Elastic Constant Matrix: (Units=GPa)
#
#
# Indices 1 2 3 4 5 6 
#
# 1 90.2525 51.0256 39.7787 0.0000 -31.2413 0.0000
# 2 51.0256 111.0232 12.0111 0.0000 -29.6575 0.0000
# 3 39.7787 12.0111 36.3861 0.0000 -20.0624 0.0000
# 4 0.0000 0.0000 0.0000 12.5809 0.0000 -7.2298
# 5 -31.2413 -29.6575 -20.0624 0.0000 43.0969 0.0000
# 6 0.0000 0.0000 0.0000 -7.2298 0.0000 33.3489
#
#
#
# Elastic Compliance Matrix: (Units=1/GPa)
#
#
# Indices 1 2 3 4 5 6 
#
# 1 0.030028 -0.010353 -0.028704 0.000000 0.001281 0.000000
# 2 -0.010353 0.014620 0.010630 0.000000 0.007504 0.000000
# 3 -0.028704 0.010630 0.064460 0.000000 0.016515 0.000000
# 4 0.000000 0.000000 0.000000 0.090797 0.000000 0.019684
# 5 0.001281 0.007504 0.016515 0.000000 0.036984 0.000000
# 6 0.000000 0.000000 0.000000 0.019684 0.000000 0.034253
#
#
# Mechanical properties :
#
#
# Convention : Reuss Voigt Hill
#
# Bulk Modulus (GPa) = 19.13726 49.25473 34.19600
# Shear Modulus (GPa) = 14.47533 26.79510 20.63522
#
# Velocity S-wave (km/s) = 2.69533 3.66713 3.21812
# Velocity P-wave (km/s) = 4.39215 6.53071 5.56512
#
# Compressibility (1/GPa) = 0.05225408
#
# Stress axis : x y z
#
# Youngs Moduli (GPa) = 33.30232 68.39952 15.51341
#
# Poissons Ratio (x) = 0.70816 0.44530
# Poissons Ratio (y) = 0.34479 -0.16491
# Poissons Ratio (z) = 0.95591 -0.72710
#
# Static dielectric constant tensor:
#      x y z
#    x 1.749890 0.000000 -0.008940 
#    y 0.000000 1.734100 0.000000 
#    z -0.008940 0.000000 1.780840 
# 
# From -- ./inp_files/255426.got.cif
#   From: 2010.05.17/outbox.cif.g08.bks.cpg/sg15_128_cif.got.tgz:255426.got - 2010.06.03 18:47:42.
