data_PCOD9278040
_publ_section_title
;
Structure prediction by ZEFSAII (Michael W. Deem and Ramdas Pophale) SiO2 
 PCOD9278040
Probable space group: C 2/C
;
_chemical_formula_sum "Si O2"
_cell_formula_units_Z 56
_cell_length_a 22.669001
_cell_length_b 8.515014
_cell_length_c 13.020787
_cell_angle_alpha 90.000000
_cell_angle_beta 73.809162
_cell_angle_gamma 90.000000
_cell_volume 2413.677410
_symmetry_space_group_name_H-M "C 2/C"
_symmetry_group_IT_number 15
_symmetry_cell_setting 'monoclinic'
loop_
_space_group_symop_operation_xyz
x,y,z
-x,y,1/2-z
-x,-y,-z
x,-y,1/2+z
1/2+x,1/2+y,z
1/2-x,1/2+y,1/2-z
1/2-x,1/2-y,-z
1/2+x,1/2-y,1/2+z
loop_
_atom_site_type_symbol
_atom_site_label
_atom_site_fract_x
_atom_site_fract_y
_atom_site_fract_z
Si Si1 0.713970 0.217937 0.321617
Si Si2 0.160840 0.381037 0.288945
Si Si3 0.145810 0.864361 0.528107
Si Si4 0.958032 0.266709 0.872130
Si Si5 0.869961 0.066879 0.782929
Si Si6 0.918648 0.120097 0.078425
Si Si7 0.937831 0.387391 0.341832
O O1 0.782864 0.263938 0.260047
O O2 0.697108 0.266201 0.445378
O O3 0.672689 0.331300 0.269269
O O4 0.691036 0.041672 0.313331
O O5 0.115902 0.285027 0.385705
O O6 0.117711 0.417354 0.211707
O O7 0.087067 0.753169 0.577056
O O8 0.163485 0.942333 0.627165
O O9 0.124316 0.002017 0.463535
O O10 0.898602 0.186950 0.850835
O O11 0.951176 0.451688 0.895463
O O12 0.000000 0.257252 0.750000
O O13 0.971782 0.169630 0.970417
O O14 0.919550 0.967083 0.689641
O O15 0.000000 0.346104 0.250000
#
# Coordination Sequence:
#
# PCOD9278040 Si02
#       7
#     8   8   8   8   8   8   8
#     4  11  24  43  70 102 135 178 226 282 340 399
#     4  12  24  47  71  99 142 176 224 285 334 405
#     4  10  22  42  69 101 137 178 228 276 340 400
#     4  10  22  42  64  96 137 180 230 274 331 404
#     4  10  20  42  65 100 137 175 227 278 339 395
#     4  10  22  42  65  98 136 172 227 277 339 394
#     4  11  24  46  70  99 138 179 228 276 335 406
#
# _framework density 23.201112999999999
#
# number of rings (size 3 to 8) (size 9 to 14) (size 15 to 20)
#    0.000    1.429    2.857    2.571    0.000    3.429 
#    7.714    4.286    0.000    0.000    0.000    0.000 
#    0.000    0.000    0.000    0.000    0.000    0.000 
#
# Total GULP energy -156289.317902 kJ/mol
# GULP energy per Si atom -5581.761354 kJ/mol
# Density = 2.314831 g / cm^3
# Si number density = 23.201113 Si / 1000 Ang^3
#
#
#
# Elastic Constant Matrix: (Units=GPa)
#
#
# Indices 1 2 3 4 5 6 
#
# 1 41.2709 10.5135 -5.2782 0.0000 6.5382 0.0000
# 2 10.5135 95.6656 23.5041 0.0000 20.5179 0.0000
# 3 -5.2782 23.5041 92.2199 0.0000 5.0286 0.0000
# 4 0.0000 0.0000 0.0000 31.2135 0.0000 -11.4773
# 5 6.5382 20.5179 5.0286 0.0000 27.2814 0.0000
# 6 0.0000 0.0000 0.0000 -11.4773 0.0000 8.8818
#
#
#
# Elastic Compliance Matrix: (Units=1/GPa)
#
#
# Indices 1 2 3 4 5 6 
#
# 1 0.025907 -0.002386 0.002355 0.000000 -0.004849 0.000000
# 2 -0.002386 0.013382 -0.003060 0.000000 -0.008929 0.000000
# 3 0.002355 -0.003060 0.011782 0.000000 -0.000434 0.000000
# 4 0.000000 0.000000 0.000000 0.061041 0.000000 0.078879
# 5 -0.004849 -0.008929 -0.000434 0.000000 0.044612 0.000000
# 6 0.000000 0.000000 0.000000 0.078879 0.000000 0.214519
#
#
# Mechanical properties :
#
#
# Convention : Reuss Voigt Hill
#
# Bulk Modulus (GPa) = 22.27695 31.84836 27.06265
# Shear Modulus (GPa) = 12.74244 26.83649 19.78946
#
# Velocity S-wave (km/s) = 2.34608 3.40470 2.92370
# Velocity P-wave (km/s) = 4.11841 5.40490 4.80490
#
# Compressibility (1/GPa) = 0.04488945
#
# Stress axis : x y z
#
# Youngs Moduli (GPa) = 38.59919 74.72635 84.87417
#
# Poissons Ratio (x) = 0.17829 -0.19990
# Poissons Ratio (y) = 0.09210 0.25975
# Poissons Ratio (z) = -0.09091 0.22869
#
# Static dielectric constant tensor:
#      x y z
#    x 1.884360 0.000000 -0.036730 
#    y 0.000000 1.863550 0.000000 
#    z -0.036730 0.000000 1.945680 
# 
# From -- ./inp_files/172279.got.cif
#   From: 2010.05.17/outbox.cif.g08.bks.cpg/sg15_87_cif.got.tgz:172279.got - 2010.06.03 18:47:42.
