data_PCOD9278728
_publ_section_title
;
Structure prediction by ZEFSAII (Michael W. Deem and Ramdas Pophale) SiO2 
 PCOD9278728
Probable space group: C 2/C
;
_chemical_formula_sum "Si O2"
_cell_formula_units_Z 44
_cell_length_a 7.710592
_cell_length_b 25.395074
_cell_length_c 9.470180
_cell_angle_alpha 90.000000
_cell_angle_beta 61.634454
_cell_angle_gamma 90.000000
_cell_volume 1631.720417
_symmetry_space_group_name_H-M "C 2/C"
_symmetry_group_IT_number 15
_symmetry_cell_setting 'monoclinic'
loop_
_space_group_symop_operation_xyz
x,y,z
-x,y,1/2-z
-x,-y,-z
x,-y,1/2+z
1/2+x,1/2+y,z
1/2-x,1/2+y,1/2-z
1/2-x,1/2-y,-z
1/2+x,1/2-y,1/2+z
loop_
_atom_site_type_symbol
_atom_site_label
_atom_site_fract_x
_atom_site_fract_y
_atom_site_fract_z
Si Si1 0.500000 0.513198 0.250000
Si Si2 0.500000 0.319323 0.750000
Si Si3 0.717758 0.100059 0.317036
Si Si4 0.500000 0.666722 0.750000
Si Si5 0.000000 0.312936 0.750000
Si Si6 0.500000 0.130215 0.750000
Si Si7 0.895518 0.278923 0.100091
Si Si8 0.215451 0.421769 0.402138
O O1 0.357571 0.552293 0.217429
O O2 0.338163 0.474456 0.379952
O O3 0.652115 0.363024 0.629379
O O4 0.549590 0.276687 0.853766
O O5 0.668910 0.145898 0.227135
O O6 0.504525 0.078595 0.448273
O O7 0.323860 0.704199 0.764709
O O8 0.636306 0.625357 0.611207
O O9 0.072637 0.284081 0.579728
O O10 0.476687 0.173684 0.883226
O O11 0.334248 0.092185 0.744718
#
# Coordination Sequence:
#
# PCOD9278728 Si02
#       8
#     4   4   8   4   4   4   8   8
#     4  10  24  45  74 119 158 202 262 328 402 466
#     4  10  26  49  74 111 160 208 268 318 394 464
#     4  11  24  48  73 114 159 205 260 337 386 460
#     4   9  18  42  74 110 142 205 258 306 384 462
#     4  12  24  46  78 110 164 202 264 326 388 460
#     4   9  18  42  74 104 146 205 254 304 388 458
#     4  10  22  46  77 113 153 212 259 322 386 473
#     4  10  20  44  79 108 151 211 259 320 390 478
#
# _framework density 26.965402000000001
#
# number of rings (size 3 to 8) (size 9 to 14) (size 15 to 20)
#    0.000    1.818    3.636    0.545    0.000    2.909 
#   13.091    2.727    0.000    0.000    0.000    0.000 
#    0.000    0.000    0.000    0.000    0.000    0.000 
#
# Total GULP energy -122477.930442 kJ/mol
# GULP energy per Si atom -5567.178656 kJ/mol
# Density = 2.690403 g / cm^3
# Si number density = 26.965402 Si / 1000 Ang^3
#
#
#
# Elastic Constant Matrix: (Units=GPa)
#
#
# Indices 1 2 3 4 5 6 
#
# 1 99.0173 73.6171 94.0748 0.0000 -22.6543 0.0000
# 2 73.6171 180.7350 85.9557 0.0000 -24.0839 0.0000
# 3 94.0748 85.9557 146.4849 0.0000 -35.6556 0.0000
# 4 0.0000 0.0000 0.0000 20.8225 0.0000 -38.7517
# 5 -22.6543 -24.0839 -35.6556 0.0000 52.4475 0.0000
# 6 0.0000 0.0000 0.0000 -38.7517 0.0000 47.3762
#
#
#
# Elastic Compliance Matrix: (Units=1/GPa)
#
#
# Indices 1 2 3 4 5 6 
#
# 1 0.027787 -0.003938 -0.015642 0.000000 -0.000440 0.000000
# 2 -0.003938 0.008246 -0.002160 0.000000 0.000618 0.000000
# 3 -0.015642 -0.002160 0.019476 0.000000 0.005493 0.000000
# 4 0.000000 0.000000 0.000000 -0.091957 0.000000 -0.075217
# 5 -0.000440 0.000618 0.005493 0.000000 0.022894 0.000000
# 6 0.000000 0.000000 0.000000 -0.075217 0.000000 -0.040416
#
#
# Mechanical properties :
#
#
# Convention : Reuss Voigt Hill
#
# Bulk Modulus (GPa) = 83.11529 103.72582 93.42055
# Shear Modulus (GPa) = -771.60382 35.63522 -367.98430
#
# Velocity S-wave (km/s) = -16.93420 3.63921 -11.69451
# Velocity P-wave (km/s) = 18.74743 7.49722 12.15027
#
# Compressibility (1/GPa) = 0.01203148
#
# Stress axis : x y z
#
# Youngs Moduli (GPa) = 35.98751 121.26650 51.34493
#
# Poissons Ratio (x) = 0.47754 0.80313
# Poissons Ratio (y) = 0.14172 0.11088
# Poissons Ratio (z) = 0.56291 0.26188
#
# Static dielectric constant tensor:
#      x y z
#    x 2.506690 0.000000 -0.025880 
#    y 0.000000 2.110170 0.000000 
#    z -0.025880 0.000000 2.213630 
# 
# From -- ./inp_files/80337.got.cif
#   From: 2010.05.17/outbox.cif.g08.bks.cpg/sg15_41_cif.got.tgz:80337.got - 2010.06.03 18:47:42.
