data_PCOD9278028
_publ_section_title
;
Structure prediction by ZEFSAII (Michael W. Deem and Ramdas Pophale) SiO2 
 PCOD9278028
Probable space group: C 2/C
;
_chemical_formula_sum "Si O2"
_cell_formula_units_Z 36
_cell_length_a 9.183516
_cell_length_b 15.875768
_cell_length_c 24.938035
_cell_angle_alpha 90.000000
_cell_angle_beta 27.637457
_cell_angle_gamma 90.000000
_cell_volume 1686.580985
_symmetry_space_group_name_H-M "C 2/C"
_symmetry_group_IT_number 15
_symmetry_cell_setting 'monoclinic'
loop_
_space_group_symop_operation_xyz
x,y,z
-x,y,1/2-z
-x,-y,-z
x,-y,1/2+z
1/2+x,1/2+y,z
1/2-x,1/2+y,1/2-z
1/2-x,1/2-y,-z
1/2+x,1/2-y,1/2+z
loop_
_atom_site_type_symbol
_atom_site_label
_atom_site_fract_x
_atom_site_fract_y
_atom_site_fract_z
Si Si1 0.934389 0.821680 0.906161
Si Si2 0.924857 0.001127 0.961700
Si Si3 0.000000 0.618139 0.750000
Si Si4 0.876207 0.238354 0.689647
Si Si5 0.520274 0.860548 0.542471
O O1 0.948492 0.905620 0.936101
O O2 0.758675 0.853146 0.909051
O O3 0.271398 0.787536 0.776366
O O4 0.750000 0.750000 0.000000
O O5 0.202942 0.059405 0.849663
O O6 0.620396 0.049580 0.036073
O O7 0.000000 0.000000 0.000000
O O8 0.927027 0.680044 0.724543
O O9 0.184228 0.180032 0.586551
O O10 0.936899 0.302027 0.620556
#
# Coordination Sequence:
#
# PCOD9278028 Si02
#       5
#     8   8   4   8   8
#     4  12  25  42  68 103 135 176 232 273 338 403
#     4  11  26  41  66  98 137 176 221 278 337 398
#     4  10  20  42  64  96 130 168 220 268 334 392
#     4  10  21  42  72  95 130 179 220 276 337 393
#     4  10  23  44  69  95 138 175 224 275 339 396
#
# _framework density 21.344957000000001
#
# number of rings (size 3 to 8) (size 9 to 14) (size 15 to 20)
#    0.000    1.333    2.222    2.000    9.333    0.889 
#    0.000    0.000    0.000    0.000    0.000    0.000 
#    0.000    0.000    0.000    0.000    0.000    0.000 
#
# Total GULP energy -100409.231908 kJ/mol
# GULP energy per Si atom -5578.290662 kJ/mol
# Density = 2.129638 g / cm^3
# Si number density = 21.344957 Si / 1000 Ang^3
#
#
#
# Elastic Constant Matrix: (Units=GPa)
#
#
# Indices 1 2 3 4 5 6 
#
# 1 106.2648 46.6320 23.9998 -0.0024 8.1870 0.0213
# 2 46.6320 154.4551 37.1877 -0.0152 13.8396 0.0034
# 3 23.9998 37.1877 75.6950 0.0728 12.7993 0.0283
# 4 -0.0024 -0.0152 0.0728 28.1822 -0.0020 3.9168
# 5 8.1870 13.8396 12.7993 -0.0020 26.3580 -0.0012
# 6 0.0213 0.0034 0.0283 3.9168 -0.0012 26.3703
#
#
#
# Elastic Compliance Matrix: (Units=1/GPa)
#
#
# Indices 1 2 3 4 5 6 
#
# 1 0.011168 -0.002800 -0.001991 0.000006 -0.001032 -0.000007
# 2 -0.002800 0.008174 -0.002777 0.000011 -0.002074 0.000002
# 3 -0.001991 -0.002777 0.016184 -0.000043 -0.005782 -0.000009
# 4 0.000006 0.000011 -0.000043 0.036231 0.000016 -0.005381
# 5 -0.001032 -0.002074 -0.005782 0.000016 0.042156 0.000007
# 6 -0.000007 0.000002 -0.000009 -0.005381 0.000007 0.038721
#
#
# Mechanical properties :
#
#
# Convention : Reuss Voigt Hill
#
# Bulk Modulus (GPa) = 49.04325 61.33933 55.19129
# Shear Modulus (GPa) = 28.64193 31.42180 30.03186
#
# Velocity S-wave (km/s) = 3.66711 3.84095 3.75504
# Velocity P-wave (km/s) = 6.39974 6.96205 6.68681
#
# Compressibility (1/GPa) = 0.02039017
#
# Stress axis : x y z
#
# Youngs Moduli (GPa) = 89.53872 122.33505 61.78763
#
# Poissons Ratio (x) = 0.34254 0.12301
# Poissons Ratio (y) = 0.25071 0.17161
# Poissons Ratio (z) = 0.17826 0.33979
#
# Static dielectric constant tensor:
#      x y z
#    x 1.818620 0.000240 -0.045120 
#    y 0.000240 1.733160 -0.000690 
#    z -0.045120 -0.000690 1.765450 
# 
# From -- ./inp_files/126807.got.cif
#   From: 2010.05.17/outbox.cif.g08.bks.cpg/sg15_64_cif.got.tgz:126807.got - 2010.06.03 18:47:42.
