data_PCOD9278136
_publ_section_title
;
Structure prediction by ZEFSAII (Michael W. Deem and Ramdas Pophale) SiO2 
 PCOD9278136
Probable space group: C 2/C
;
_chemical_formula_sum "Si O2"
_cell_formula_units_Z 44
_cell_length_a 13.199209
_cell_length_b 8.773860
_cell_length_c 22.105710
_cell_angle_alpha 90.000000
_cell_angle_beta 130.059764
_cell_angle_gamma 90.000000
_cell_volume 1959.370311
_symmetry_space_group_name_H-M "C 2/C"
_symmetry_group_IT_number 15
_symmetry_cell_setting 'monoclinic'
loop_
_space_group_symop_operation_xyz
x,y,z
-x,y,1/2-z
-x,-y,-z
x,-y,1/2+z
1/2+x,1/2+y,z
1/2-x,1/2+y,1/2-z
1/2-x,1/2-y,-z
1/2+x,1/2-y,1/2+z
loop_
_atom_site_type_symbol
_atom_site_label
_atom_site_fract_x
_atom_site_fract_y
_atom_site_fract_z
Si Si1 0.123790 0.483974 0.628116
Si Si2 0.506367 0.749899 0.004118
Si Si3 0.750000 0.250000 0.000000
Si Si4 0.110196 0.998264 0.456974
Si Si5 0.481022 0.131521 0.673341
Si Si6 0.582432 0.544991 0.220215
O O1 0.090663 0.329902 0.580123
O O2 0.269582 0.501255 0.709927
O O3 0.090054 0.623494 0.570388
O O4 0.024819 0.497745 0.646390
O O5 0.596445 0.624779 0.004429
O O6 0.415968 0.667698 0.021386
O O7 0.742382 0.441154 0.976858
O O8 0.657519 0.199438 0.903155
O O9 0.995976 0.966922 0.364928
O O10 0.500000 0.086693 0.750000
O O11 0.579880 0.275489 0.703211
O O12 0.500000 0.526783 0.250000
#
# Coordination Sequence:
#
# PCOD9278136 Si02
#       6
#     8   8   4   8   8   8
#     4  11  23  42  66 100 137 167 227 299 345 401
#     4  10  23  39  66  97 129 176 222 278 351 402
#     4  10  20  42  66  94 132 168 238 264 324 426
#     4  10  22  40  67  94 126 186 224 268 337 421
#     4  10  23  41  68  99 127 185 222 273 342 413
#     4  10  23  40  65  93 130 175 224 274 339 412
#
# _framework density 22.456194
#
# number of rings (size 3 to 8) (size 9 to 14) (size 15 to 20)
#    0.000    1.818    3.636    0.000   10.182    1.455 
#    0.000    4.545    0.000    0.000    0.000    0.000 
#    0.000    0.000    0.000    0.000    0.000    0.000 
#
# Total GULP energy -122467.801818 kJ/mol
# GULP energy per Si atom -5566.718264 kJ/mol
# Density = 2.240508 g / cm^3
# Si number density = 22.456194 Si / 1000 Ang^3
#
#
#
# Elastic Constant Matrix: (Units=GPa)
#
#
# Indices 1 2 3 4 5 6 
#
# 1 61.7450 23.0112 45.4079 0.0000 -7.2588 0.0000
# 2 23.0112 59.5506 28.1308 0.0000 -10.3623 0.0000
# 3 45.4079 28.1308 180.1608 0.0000 0.3097 0.0000
# 4 0.0000 0.0000 0.0000 22.2746 0.0000 -7.8715
# 5 -7.2588 -10.3623 0.3097 0.0000 46.5611 0.0000
# 6 0.0000 0.0000 0.0000 -7.8715 0.0000 28.8223
#
#
#
# Elastic Compliance Matrix: (Units=1/GPa)
#
#
# Indices 1 2 3 4 5 6 
#
# 1 0.022083 -0.005969 -0.004637 0.000000 0.002145 0.000000
# 2 -0.005969 0.020542 -0.001709 0.000000 0.003652 0.000000
# 3 -0.004637 -0.001709 0.006988 0.000000 -0.001150 0.000000
# 4 0.000000 0.000000 0.000000 0.049690 0.000000 0.013570
# 5 0.002145 0.003652 -0.001150 0.000000 0.022632 0.000000
# 6 0.000000 0.000000 0.000000 0.013570 0.000000 0.038401
#
#
# Mechanical properties :
#
#
# Convention : Reuss Voigt Hill
#
# Bulk Modulus (GPa) = 40.02992 54.95070 47.49031
# Shear Modulus (GPa) = 25.86715 33.19204 29.52960
#
# Velocity S-wave (km/s) = 3.39764 3.84875 3.63021
# Velocity P-wave (km/s) = 5.76684 6.65386 6.22616
#
# Compressibility (1/GPa) = 0.02498131
#
# Stress axis : x y z
#
# Youngs Moduli (GPa) = 45.28406 48.68069 143.09667
#
# Poissons Ratio (x) = 0.29059 0.66360
# Poissons Ratio (y) = 0.27031 0.24459
# Poissons Ratio (z) = 0.21000 0.08321
#
# Static dielectric constant tensor:
#      x y z
#    x 6.658480 0.000000 1.052060 
#    y 0.000000 2.509160 0.000000 
#    z 1.052060 0.000000 2.085510 
# 
# From -- ./inp_files/276681.got.cif
#   From: 2010.05.17/outbox.cif.g08.bks.cpg/sg15_139_cif.got.tgz:276681.got - 2010.06.03 18:47:42.
