data_PCOD9278180
_publ_section_title
;
Structure prediction by ZEFSAII (Michael W. Deem and Ramdas Pophale) SiO2 
 PCOD9278180
Probable space group: C 2/C
;
_chemical_formula_sum "Si O2"
_cell_formula_units_Z 64
_cell_length_a 24.102348
_cell_length_b 18.076673
_cell_length_c 19.041093
_cell_angle_alpha 90.000000
_cell_angle_beta 21.762853
_cell_angle_gamma 90.000000
_cell_volume 3075.879935
_symmetry_space_group_name_H-M "C 2/C"
_symmetry_group_IT_number 15
_symmetry_cell_setting 'monoclinic'
loop_
_space_group_symop_operation_xyz
x,y,z
-x,y,1/2-z
-x,-y,-z
x,-y,1/2+z
1/2+x,1/2+y,z
1/2-x,1/2+y,1/2-z
1/2-x,1/2-y,-z
1/2+x,1/2-y,1/2+z
loop_
_atom_site_type_symbol
_atom_site_label
_atom_site_fract_x
_atom_site_fract_y
_atom_site_fract_z
Si Si1 0.878534 0.533173 0.086673
Si Si2 0.909032 0.225337 0.284269
Si Si3 0.892058 0.357271 0.202228
Si Si4 0.117857 0.377938 0.450111
Si Si5 0.309670 0.853244 0.878095
Si Si6 0.389655 0.584715 0.008728
Si Si7 0.444512 0.576106 0.392914
Si Si8 0.177810 0.182282 0.678836
O O1 0.807374 0.459178 0.139201
O O2 0.751379 0.581561 0.272904
O O3 0.000000 0.500000 0.000000
O O4 0.986083 0.583414 0.913794
O O5 0.750000 0.250000 0.500000
O O6 0.933147 0.282097 0.192732
O O7 0.000000 0.231997 0.250000
O O8 0.944656 0.142659 0.215164
O O9 0.908446 0.350937 0.098476
O O10 0.723648 0.388657 0.411832
O O11 0.221426 0.322548 0.370755
O O12 0.963171 0.390336 0.673301
O O13 0.177293 0.886917 0.986752
O O14 0.337372 0.767102 0.826477
O O15 0.265692 0.857139 0.011082
O O16 0.441589 0.499447 0.939939
O O17 0.522375 0.639900 0.872550
O O18 0.500000 0.555621 0.250000
#
# Coordination Sequence:
#
# PCOD9278180 Si02
#       8
#     8   8   8   8   8   8   8   8
#     4  10  20  42  67  91 137 180 223 277 342 411
#     4  11  23  45  68 101 141 175 229 292 333 402
#     4  11  21  44  67  92 133 186 222 271 345 408
#     4  11  22  43  68  94 135 182 227 276 345 417
#     4  11  22  46  68  95 140 182 224 280 353 418
#     4  12  22  44  71 102 134 183 232 279 350 417
#     4  11  21  39  71  96 133 179 226 278 345 401
#     4  11  26  40  68 106 135 168 232 301 334 402
#
# _framework density 20.807053
#
# number of rings (size 3 to 8) (size 9 to 14) (size 15 to 20)
#    0.000    1.000    7.500    2.250    0.000    3.500 
#    4.500    0.000    0.000    0.000    0.000    0.000 
#    0.000    0.000    0.000    0.000    0.000    0.000 
#
# Total GULP energy -178549.809521 kJ/mol
# GULP energy per Si atom -5579.681548 kJ/mol
# Density = 2.075970 g / cm^3
# Si number density = 20.807053 Si / 1000 Ang^3
#
#
#
# Elastic Constant Matrix: (Units=GPa)
#
#
# Indices 1 2 3 4 5 6 
#
# 1 47.9010 9.0816 8.4540 -0.0011 -2.1526 0.0003
# 2 9.0816 97.8086 23.6492 -0.0029 -5.4586 0.0019
# 3 8.4540 23.6492 101.3992 -0.0021 2.6465 0.0019
# 4 -0.0011 -0.0029 -0.0021 32.0093 0.0014 -1.1738
# 5 -2.1526 -5.4586 2.6465 0.0014 24.1607 -0.0012
# 6 0.0003 0.0019 0.0019 -1.1738 -0.0012 28.3764
#
#
#
# Elastic Compliance Matrix: (Units=1/GPa)
#
#
# Indices 1 2 3 4 5 6 
#
# 1 0.021508 -0.001543 -0.001478 0.000000 0.001730 0.000000
# 2 -0.001543 0.011129 -0.002536 0.000001 0.002655 0.000000
# 3 -0.001478 -0.002536 0.010626 0.000000 -0.001869 -0.000001
# 4 0.000000 0.000001 0.000000 0.031288 -0.000002 0.001294
# 5 0.001730 0.002655 -0.001869 -0.000002 0.042348 0.000002
# 6 0.000000 0.000000 -0.000001 0.001294 0.000002 0.035294
#
#
# Mechanical properties :
#
#
# Convention : Reuss Voigt Hill
#
# Bulk Modulus (GPa) = 31.10746 36.60871 33.85808
# Shear Modulus (GPa) = 28.73180 30.63754 29.68467
#
# Velocity S-wave (km/s) = 3.72004 3.84143 3.78122
# Velocity P-wave (km/s) = 5.78225 6.10803 5.94737
#
# Compressibility (1/GPa) = 0.03214663
#
# Stress axis : x y z
#
# Youngs Moduli (GPa) = 46.49524 89.85786 94.11276
#
# Poissons Ratio (x) = 0.13865 0.13914
# Poissons Ratio (y) = 0.07174 0.23869
# Poissons Ratio (z) = 0.06874 0.22789
#
# Static dielectric constant tensor:
#      x y z
#    x 1.744170 0.000070 0.030480 
#    y 0.000070 1.863830 0.000060 
#    z 0.030480 0.000060 1.780450 
# 
# From -- ./inp_files/258046.got.cif
#   From: 2010.05.17/outbox.cif.g08.bks.cpg/sg15_130_cif.got.tgz:258046.got - 2010.06.03 18:47:42.
