data_PCOD9278472
_publ_section_title
;
Structure prediction by ZEFSAII (Michael W. Deem and Ramdas Pophale) SiO2 
 PCOD9278472
Probable space group: C 2/C
;
_chemical_formula_sum "Si O2"
_cell_formula_units_Z 44
_cell_length_a 9.223208
_cell_length_b 13.053767
_cell_length_c 21.352472
_cell_angle_alpha 90.000000
_cell_angle_beta 139.970751
_cell_angle_gamma 90.000000
_cell_volume 1653.474861
_symmetry_space_group_name_H-M "C 2/C"
_symmetry_group_IT_number 15
_symmetry_cell_setting 'monoclinic'
loop_
_space_group_symop_operation_xyz
x,y,z
-x,y,1/2-z
-x,-y,-z
x,-y,1/2+z
1/2+x,1/2+y,z
1/2-x,1/2+y,1/2-z
1/2-x,1/2-y,-z
1/2+x,1/2-y,1/2+z
loop_
_atom_site_type_symbol
_atom_site_label
_atom_site_fract_x
_atom_site_fract_y
_atom_site_fract_z
Si Si1 0.856971 0.136494 0.127318
Si Si2 0.000000 0.269865 0.750000
Si Si3 0.822331 0.436937 0.764489
Si Si4 0.162076 0.663182 0.716249
Si Si5 0.492685 0.407325 0.544566
Si Si6 0.490089 0.742542 0.931270
O O1 0.640313 0.149433 0.099255
O O2 0.079013 0.070193 0.217808
O O3 0.974401 0.249825 0.164512
O O4 0.809959 0.102410 0.040189
O O5 0.978437 0.336368 0.808577
O O6 0.789998 0.194089 0.694454
O O7 0.924320 0.547147 0.810546
O O8 0.718962 0.423523 0.660082
O O9 0.341633 0.674512 0.833388
O O10 0.500000 0.500000 0.500000
O O11 0.484461 0.309608 0.497878
O O12 0.750000 0.750000 0.000000
#
# Coordination Sequence:
#
# PCOD9278472 Si02
#       6
#     8   4   8   8   8   8
#     4   9  23  42  67 105 142 182 246 298 358 446
#     4  10  22  42  62 102 142 180 236 308 340 450
#     4   9  21  40  68  96 135 182 230 291 364 422
#     4  11  22  43  70  96 143 187 241 296 375 422
#     4  10  20  43  66  97 143 179 236 286 372 440
#     4  12  23  39  70  99 140 189 226 306 362 429
#
# _framework density 26.610626
#
# number of rings (size 3 to 8) (size 9 to 14) (size 15 to 20)
#    1.091    0.727    1.818    2.182    2.545    0.000 
#    6.545    3.636    0.000    0.000    0.000    0.000 
#    0.000    0.000    0.000    0.000    0.000    0.000 
#
# Total GULP energy -122632.311606 kJ/mol
# GULP energy per Si atom -5574.195982 kJ/mol
# Density = 2.655006 g / cm^3
# Si number density = 26.610626 Si / 1000 Ang^3
#
#
#
# Elastic Constant Matrix: (Units=GPa)
#
#
# Indices 1 2 3 4 5 6 
#
# 1 174.0604 -12.3935 17.5806 0.0000 10.9971 0.0000
# 2 -12.3935 74.8380 2.0251 0.0000 -3.6838 0.0000
# 3 17.5806 2.0251 119.4431 0.0000 -9.1328 0.0000
# 4 0.0000 0.0000 0.0000 20.5729 0.0000 -19.1069
# 5 10.9971 -3.6838 -9.1328 0.0000 40.2346 0.0000
# 6 0.0000 0.0000 0.0000 -19.1069 0.0000 34.7367
#
#
#
# Elastic Compliance Matrix: (Units=1/GPa)
#
#
# Indices 1 2 3 4 5 6 
#
# 1 0.006031 0.000938 -0.001041 0.000000 -0.001799 0.000000
# 2 0.000938 0.013571 -0.000298 0.000000 0.000918 0.000000
# 3 -0.001041 -0.000298 0.008701 0.000000 0.002232 0.000000
# 4 0.000000 0.000000 0.000000 0.099372 0.000000 0.054660
# 5 -0.001799 0.000918 0.002232 0.000000 0.025937 0.000000
# 6 0.000000 0.000000 0.000000 0.054660 0.000000 0.058854
#
#
# Mechanical properties :
#
#
# Convention : Reuss Voigt Hill
#
# Bulk Modulus (GPa) = 36.36192 42.52957 39.44574
# Shear Modulus (GPa) = 22.47861 43.18414 32.83137
#
# Velocity S-wave (km/s) = 2.90956 4.03279 3.51632
# Velocity P-wave (km/s) = 4.99815 6.14015 5.59834
#
# Compressibility (1/GPa) = 0.02750130
#
# Stress axis : x y z
#
# Youngs Moduli (GPa) = 165.81704 73.68727 114.92712
#
# Poissons Ratio (x) = -0.06914 0.11965
# Poissons Ratio (y) = -0.15559 0.03425
# Poissons Ratio (z) = 0.17263 0.02196
#
# Static dielectric constant tensor:
#      x y z
#    x 2.283850 0.000000 -0.025930 
#    y 0.000000 2.584920 0.000000 
#    z -0.025930 0.000000 2.184390 
# 
# From -- ./inp_files/288526.got.cif
#   From: 2010.05.17/outbox.cif.g08.bks.cpg/sg15_145_cif.got.tgz:288526.got - 2010.06.03 18:47:42.
