data_PCOD9278368
_publ_section_title
;
Structure prediction by ZEFSAII (Michael W. Deem and Ramdas Pophale) SiO2 
 PCOD9278368
Probable space group: C 2/C
;
_chemical_formula_sum "Si O2"
_cell_formula_units_Z 52
_cell_length_a 10.975422
_cell_length_b 18.923917
_cell_length_c 11.756904
_cell_angle_alpha 90.000000
_cell_angle_beta 120.981235
_cell_angle_gamma 90.000000
_cell_volume 2093.515891
_symmetry_space_group_name_H-M "C 2/C"
_symmetry_group_IT_number 15
_symmetry_cell_setting 'monoclinic'
loop_
_space_group_symop_operation_xyz
x,y,z
-x,y,1/2-z
-x,-y,-z
x,-y,1/2+z
1/2+x,1/2+y,z
1/2-x,1/2+y,1/2-z
1/2-x,1/2-y,-z
1/2+x,1/2-y,1/2+z
loop_
_atom_site_type_symbol
_atom_site_label
_atom_site_fract_x
_atom_site_fract_y
_atom_site_fract_z
Si Si1 0.000000 0.716271 0.250000
Si Si2 0.606734 0.130591 0.095062
Si Si3 0.384406 0.365901 0.606318
Si Si4 0.843630 0.515057 0.220710
Si Si5 0.380748 0.144842 0.790560
Si Si6 0.562520 0.332509 0.127432
Si Si7 0.595605 0.526290 0.943889
O O1 0.906554 0.666392 0.286937
O O2 0.039172 0.772518 0.368418
O O3 0.731549 0.159845 0.075222
O O4 0.653630 0.052139 0.156002
O O5 0.466788 0.134888 0.949797
O O6 0.500000 0.340260 0.750000
O O7 0.429992 0.338392 0.505137
O O8 0.383434 0.452267 0.611008
O O9 0.818519 0.431447 0.220328
O O10 0.000000 0.520676 0.250000
O O11 0.741180 0.547083 0.076064
O O12 0.500000 0.164950 0.750000
O O13 0.229327 0.183898 0.737822
O O14 0.492642 0.405660 0.135842
O O15 0.500000 0.500000 0.000000
#
# Coordination Sequence:
#
# PCOD9278368 Si02
#       7
#     4   8   8   8   8   8   8
#     4  12  32  52  68 104 154 210 252 294 366 446
#     4  12  25  48  69 107 152 195 253 298 362 450
#     4  11  23  45  80 110 139 184 250 317 376 439
#     4  11  21  40  71 111 148 184 232 309 382 432
#     4  11  22  45  77 112 142 190 246 313 381 434
#     4  11  25  50  73 108 151 197 249 302 374 447
#     4  10  20  42  72 110 149 177 239 307 380 438
#
# _framework density 24.838597
#
# number of rings (size 3 to 8) (size 9 to 14) (size 15 to 20)
#    0.000    0.923    5.385    3.231    1.077    2.462 
#    8.308    0.000    0.000    0.000    0.000    0.000 
#    0.000    0.000    0.000    0.000    0.000    0.000 
#
# Total GULP energy -144972.466918 kJ/mol
# GULP energy per Si atom -5575.864112 kJ/mol
# Density = 2.478206 g / cm^3
# Si number density = 24.838597 Si / 1000 Ang^3
#
#
#
# Elastic Constant Matrix: (Units=GPa)
#
#
# Indices 1 2 3 4 5 6 
#
# 1 120.1856 18.6819 73.5927 0.0000 -9.3381 0.0000
# 2 18.6819 64.6559 -6.0514 0.0000 -14.7026 0.0000
# 3 73.5927 -6.0514 154.6021 0.0000 -4.5245 0.0000
# 4 0.0000 0.0000 0.0000 13.6097 0.0000 -17.0526
# 5 -9.3381 -14.7026 -4.5245 0.0000 50.3027 0.0000
# 6 0.0000 0.0000 0.0000 -17.0526 0.0000 18.8163
#
#
#
# Elastic Compliance Matrix: (Units=1/GPa)
#
#
# Indices 1 2 3 4 5 6 
#
# 1 0.012848 -0.004161 -0.006261 0.000000 0.000606 0.000000
# 2 -0.004161 0.018012 0.002824 0.000000 0.004746 0.000000
# 3 -0.006261 0.002824 0.009574 0.000000 0.000524 0.000000
# 4 0.000000 0.000000 0.000000 -0.542136 0.000000 -0.491321
# 5 0.000606 0.004746 0.000524 0.000000 0.021427 0.000000
# 6 0.000000 0.000000 0.000000 -0.491321 0.000000 -0.392124
#
#
# Mechanical properties :
#
#
# Convention : Reuss Voigt Hill
#
# Bulk Modulus (GPa) = 39.61875 56.87666 48.24770
# Shear Modulus (GPa) = -5.89073 33.42710 13.76818
#
# Velocity S-wave (km/s) = -1.54167 3.67246 2.35692
# Velocity P-wave (km/s) = 3.57996 6.39772 5.18396
#
# Compressibility (1/GPa) = 0.02524058
#
# Stress axis : x y z
#
# Youngs Moduli (GPa) = 77.83314 55.51756 104.44500
#
# Poissons Ratio (x) = 0.23098 0.65392
# Poissons Ratio (y) = 0.32383 -0.29500
# Poissons Ratio (z) = 0.48731 -0.15681
#
# Static dielectric constant tensor:
#      x y z
#    x 2.019410 0.000000 -0.031320 
#    y 0.000000 2.180370 0.000000 
#    z -0.031320 0.000000 1.965150 
# 
# From -- ./inp_files/89735.got.cif
#   From: 2010.05.17/outbox.cif.g08.bks.cpg/sg15_45_cif.got.tgz:89735.got - 2010.06.03 18:47:42.
