data_PCOD9278576
_publ_section_title
;
Structure prediction by ZEFSAII (Michael W. Deem and Ramdas Pophale) SiO2 
 PCOD9278576
Probable space group: C 2/C
;
_chemical_formula_sum "Si O2"
_cell_formula_units_Z 52
_cell_length_a 16.938728
_cell_length_b 11.230127
_cell_length_c 16.068248
_cell_angle_alpha 90.000000
_cell_angle_beta 130.813896
_cell_angle_gamma 90.000000
_cell_volume 2313.322012
_symmetry_space_group_name_H-M "C 2/C"
_symmetry_group_IT_number 15
_symmetry_cell_setting 'monoclinic'
loop_
_space_group_symop_operation_xyz
x,y,z
-x,y,1/2-z
-x,-y,-z
x,-y,1/2+z
1/2+x,1/2+y,z
1/2-x,1/2+y,1/2-z
1/2-x,1/2-y,-z
1/2+x,1/2-y,1/2+z
loop_
_atom_site_type_symbol
_atom_site_label
_atom_site_fract_x
_atom_site_fract_y
_atom_site_fract_z
Si Si1 0.234691 0.513399 0.065824
Si Si2 0.899360 0.080724 0.044566
Si Si3 0.723457 0.771636 0.332951
Si Si4 0.511945 0.354040 0.358182
Si Si5 0.215039 0.226883 0.803543
Si Si6 0.500000 0.751563 0.250000
Si Si7 0.388465 0.868152 0.630553
O O1 0.327504 0.516874 0.064064
O O2 0.239363 0.642242 0.109121
O O3 0.253290 0.400254 0.136612
O O4 0.135025 0.480011 0.942671
O O5 0.966337 0.174589 0.144985
O O6 0.970302 0.967645 0.071873
O O7 0.816594 0.139496 0.924963
O O8 0.714106 0.755046 0.227721
O O9 0.612033 0.806402 0.298034
O O10 0.500000 0.384569 0.250000
O O11 0.403906 0.292723 0.308991
O O12 0.598524 0.250598 0.417169
O O13 0.197632 0.331617 0.859515
O O14 0.500000 0.884039 0.750000
#
# Coordination Sequence:
#
# PCOD9278576 Si02
#       7
#     8   8   8   8   8   4   8
#     4  11  20  41  66  92 132 176 217 266 328 396
#     4  11  20  40  70  92 122 176 223 268 328 399
#     4  11  26  41  64 101 135 167 220 282 332 393
#     4   9  16  37  65  94 124 163 220 264 312 387
#     4  10  21  40  65 100 129 169 227 278 314 388
#     4  10  20  44  62  84 132 186 206 254 346 398
#     4   9  20  39  65  94 128 176 219 260 328 398
#
# _framework density 22.478496
#
# number of rings (size 3 to 8) (size 9 to 14) (size 15 to 20)
#    0.000    2.154    3.846    3.231    0.000    1.846 
#   11.077    3.077    0.000    2.769    0.000    0.000 
#    0.000    0.000    0.000    0.000    0.000    0.000 
#
# Total GULP energy -144925.277718 kJ/mol
# GULP energy per Si atom -5574.049143 kJ/mol
# Density = 2.242733 g / cm^3
# Si number density = 22.478496 Si / 1000 Ang^3
#
#
#
# Elastic Constant Matrix: (Units=GPa)
#
#
# Indices 1 2 3 4 5 6 
#
# 1 79.1262 19.9094 21.5859 0.0000 -13.7288 0.0000
# 2 19.9094 53.9978 22.3166 0.0000 -9.7345 0.0000
# 3 21.5859 22.3166 63.8678 0.0000 14.4235 0.0000
# 4 0.0000 0.0000 0.0000 34.5209 0.0000 0.3926
# 5 -13.7288 -9.7345 14.4235 0.0000 24.8127 0.0000
# 6 0.0000 0.0000 0.0000 0.3926 0.0000 1.9011
#
#
#
# Elastic Compliance Matrix: (Units=1/GPa)
#
#
# Indices 1 2 3 4 5 6 
#
# 1 0.017931 0.000191 -0.009651 0.000000 0.015606 0.000000
# 2 0.000191 0.027723 -0.014080 0.000000 0.019167 0.000000
# 3 -0.009651 -0.014080 0.030266 0.000000 -0.028457 0.000000
# 4 0.000000 0.000000 0.000000 0.029036 0.000000 -0.005996
# 5 0.015606 0.019167 -0.028457 0.000000 0.072998 0.000000
# 6 0.000000 0.000000 0.000000 -0.005996 0.000000 0.527254
#
#
# Mechanical properties :
#
#
# Convention : Reuss Voigt Hill
#
# Bulk Modulus (GPa) = 34.67541 36.06840 35.37190
# Shear Modulus (GPa) = 6.56252 21.12559 13.84405
#
# Velocity S-wave (km/s) = 1.71050 3.06896 2.48439
# Velocity P-wave (km/s) = 4.40007 5.35151 4.89894
#
# Compressibility (1/GPa) = 0.02883888
#
# Stress axis : x y z
#
# Youngs Moduli (GPa) = 55.77045 36.07075 33.04066
#
# Poissons Ratio (x) = -0.00689 0.31889
# Poissons Ratio (y) = -0.01065 0.46522
# Poissons Ratio (z) = 0.53826 0.50788
#
# Static dielectric constant tensor:
#      x y z
#    x 1.856600 0.000000 0.037820 
#    y 0.000000 1.934330 0.000000 
#    z 0.037820 0.000000 1.920360 
# 
# From -- ./inp_files/215093.got.cif
#   From: 2010.05.17/outbox.cif.g08.bks.cpg/sg15_108_cif.got.tgz:215093.got - 2010.06.03 18:47:42.
