data_PCOD9278383
_publ_section_title
;
Structure prediction by ZEFSAII (Michael W. Deem and Ramdas Pophale) SiO2 
 PCOD9278383
Probable space group: C 2/C
;
_chemical_formula_sum "Si O2"
_cell_formula_units_Z 64
_cell_length_a 10.084862
_cell_length_b 26.642559
_cell_length_c 16.553299
_cell_angle_alpha 90.000000
_cell_angle_beta 140.966948
_cell_angle_gamma 90.000000
_cell_volume 2800.989338
_symmetry_space_group_name_H-M "C 2/C"
_symmetry_group_IT_number 15
_symmetry_cell_setting 'monoclinic'
loop_
_space_group_symop_operation_xyz
x,y,z
-x,y,1/2-z
-x,-y,-z
x,-y,1/2+z
1/2+x,1/2+y,z
1/2-x,1/2+y,1/2-z
1/2-x,1/2-y,-z
1/2+x,1/2-y,1/2+z
loop_
_atom_site_type_symbol
_atom_site_label
_atom_site_fract_x
_atom_site_fract_y
_atom_site_fract_z
Si Si1 0.812747 0.290158 0.096140
Si Si2 0.876073 0.597191 0.578507
Si Si3 0.352702 0.558570 0.609300
Si Si4 0.998880 0.809115 0.079658
Si Si5 0.329872 0.420114 0.356825
Si Si6 0.755337 0.955620 0.640870
Si Si7 0.502193 0.793916 0.845745
Si Si8 0.462837 0.097001 0.328886
O O1 0.888482 0.342854 0.094121
O O2 0.587858 0.301040 0.032253
O O3 0.000000 0.277121 0.250000
O O4 0.750000 0.250000 0.000000
O O5 0.696886 0.580110 0.558809
O O6 0.848398 0.580705 0.474092
O O7 0.095516 0.574349 0.712724
O O8 0.500000 0.581137 0.750000
O O9 0.510636 0.542443 0.611672
O O10 0.238013 0.512087 0.598742
O O11 0.178225 0.590229 0.480838
O O12 0.087950 0.865083 0.136088
O O13 0.084854 0.758148 0.161640
O O14 0.750783 0.804375 0.980865
O O15 0.681713 0.943899 0.696311
O O16 0.000000 0.944456 0.750000
O O17 0.500000 0.787759 0.750000
O O18 0.384755 0.846158 0.808570
O O19 0.500000 0.091274 0.250000
#
# Coordination Sequence:
#
# PCOD9278383 Si02
#       8
#     8   8   8   8   8   8   8   8
#     4  11  24  41  66 103 143 189 237 290 345 422
#     4  10  22  44  68 102 140 182 241 288 356 419
#     4  11  24  46  73 101 137 177 237 292 358 427
#     4  10  21  41  61 100 135 181 238 276 344 416
#     4  10  20  42  72  99 138 186 234 293 344 429
#     4  11  27  46  69 104 141 176 237 301 359 432
#     4  10  23  39  64  97 137 182 229 290 341 416
#     4  11  25  47  71 103 142 185 231 292 361 426
#
# _framework density 22.849069
#
# number of rings (size 3 to 8) (size 9 to 14) (size 15 to 20)
#    0.000    1.500    3.750    1.125    5.250    3.500 
#    6.750    0.000    0.000    0.000    0.000    0.000 
#    0.000    0.000    0.000    0.000    0.000    0.000 
#
# Total GULP energy -178424.127934 kJ/mol
# GULP energy per Si atom -5575.753998 kJ/mol
# Density = 2.279706 g / cm^3
# Si number density = 22.849069 Si / 1000 Ang^3
#
#
#
# Elastic Constant Matrix: (Units=GPa)
#
#
# Indices 1 2 3 4 5 6 
#
# 1 92.0638 45.9849 2.2835 0.0000 -9.9461 0.0000
# 2 45.9849 94.4244 25.4759 0.0000 -19.2883 0.0000
# 3 2.2835 25.4759 82.1159 0.0000 -20.8294 0.0000
# 4 0.0000 0.0000 0.0000 20.9817 0.0000 -6.6320
# 5 -9.9461 -19.2883 -20.8294 0.0000 29.2958 0.0000
# 6 0.0000 0.0000 0.0000 -6.6320 0.0000 47.0493
#
#
#
# Elastic Compliance Matrix: (Units=1/GPa)
#
#
# Indices 1 2 3 4 5 6 
#
# 1 0.014708 -0.007435 0.002346 0.000000 0.001766 0.000000
# 2 -0.007435 0.016310 -0.003379 0.000000 0.005812 0.000000
# 3 0.002346 -0.003379 0.015615 0.000000 0.009674 0.000000
# 4 0.000000 0.000000 0.000000 0.049883 0.000000 0.007031
# 5 0.001766 0.005812 0.009674 0.000000 0.045439 0.000000
# 6 0.000000 0.000000 0.000000 0.007031 0.000000 0.022245
#
#
# Mechanical properties :
#
#
# Convention : Reuss Voigt Hill
#
# Bulk Modulus (GPa) = 33.67424 46.23252 39.95338
# Shear Modulus (GPa) = 26.17293 32.45601 29.31447
#
# Velocity S-wave (km/s) = 3.38815 3.77298 3.58573
# Velocity P-wave (km/s) = 5.48414 6.26564 5.88787
#
# Compressibility (1/GPa) = 0.02969629
#
# Stress axis : x y z
#
# Youngs Moduli (GPa) = 67.98824 61.31086 64.04152
#
# Poissons Ratio (x) = 0.45585 -0.15022
# Poissons Ratio (y) = 0.50550 0.21641
# Poissons Ratio (z) = -0.15948 0.20718
#
# Static dielectric constant tensor:
#      x y z
#    x 1.947010 0.000000 0.036530 
#    y 0.000000 1.972680 0.000000 
#    z 0.036530 0.000000 1.890440 
# 
# From -- ./inp_files/139834.got.cif
#   From: 2010.05.17/outbox.cif.g08.bks.cpg/sg15_70_cif.got.tgz:139834.got - 2010.06.03 18:47:42.
