data_PCOD9278236
_publ_section_title
;
Structure prediction by ZEFSAII (Michael W. Deem and Ramdas Pophale) SiO2 
 PCOD9278236
Probable space group: C 2/C
;
_chemical_formula_sum "Si O2"
_cell_formula_units_Z 52
_cell_length_a 16.351545
_cell_length_b 7.096822
_cell_length_c 24.310051
_cell_angle_alpha 90.000000
_cell_angle_beta 130.080385
_cell_angle_gamma 90.000000
_cell_volume 2158.492501
_symmetry_space_group_name_H-M "C 2/C"
_symmetry_group_IT_number 15
_symmetry_cell_setting 'monoclinic'
loop_
_space_group_symop_operation_xyz
x,y,z
-x,y,1/2-z
-x,-y,-z
x,-y,1/2+z
1/2+x,1/2+y,z
1/2-x,1/2+y,1/2-z
1/2-x,1/2-y,-z
1/2+x,1/2-y,1/2+z
loop_
_atom_site_type_symbol
_atom_site_label
_atom_site_fract_x
_atom_site_fract_y
_atom_site_fract_z
Si Si1 0.276433 0.215832 0.686295
Si Si2 0.297607 0.221491 0.223564
Si Si3 0.610554 0.588349 0.526556
Si Si4 0.000000 0.687227 0.750000
Si Si5 0.936621 0.464986 0.029196
Si Si6 0.245397 0.713706 0.584278
Si Si7 0.523632 0.847340 0.843900
O O1 0.252208 0.280915 0.737613
O O2 0.389431 0.295484 0.713727
O O3 0.298376 0.992955 0.703359
O O4 0.177564 0.209387 0.601067
O O5 0.239512 0.324418 0.147917
O O6 0.421550 0.274229 0.282273
O O7 0.500000 0.500000 0.500000
O O8 0.576185 0.742325 0.466599
O O9 0.684782 0.410666 0.544593
O O10 0.972881 0.542189 0.688795
O O11 0.992075 0.583001 0.100978
O O12 0.818732 0.552420 0.973747
O O13 0.000000 0.500000 0.000000
O O14 0.366983 0.738889 0.619247
#
# Coordination Sequence:
#
# PCOD9278236 Si02
#       7
#     8   8   8   4   8   8   8
#     4  10  22  40  66  97 131 175 228 285 340 416
#     4  10  22  39  73  94 131 180 230 274 360 403
#     4  11  23  42  64  99 141 178 229 281 348 413
#     4  10  20  42  68  92 136 182 222 278 368 392
#     4  12  26  39  72 101 134 182 239 277 345 423
#     4  11  23  45  66 100 140 183 224 292 346 407
#     4  11  21  45  68  98 139 184 226 288 349 415
#
# _framework density 24.090888
#
# number of rings (size 3 to 8) (size 9 to 14) (size 15 to 20)
#    0.000    1.231    6.154    1.385    6.462    0.615 
#    0.000    1.538    0.000    0.000    0.000    0.000 
#    0.000    0.000    0.000    0.000    0.000    0.000 
#
# Total GULP energy -145409.111534 kJ/mol
# GULP energy per Si atom -5592.658136 kJ/mol
# Density = 2.403606 g / cm^3
# Si number density = 24.090888 Si / 1000 Ang^3
#
#
#
# Elastic Constant Matrix: (Units=GPa)
#
#
# Indices 1 2 3 4 5 6 
#
# 1 109.1999 0.8551 20.4561 0.0000 15.1220 0.0000
# 2 0.8551 64.4261 11.8491 0.0000 12.2935 0.0000
# 3 20.4561 11.8491 61.1457 0.0000 3.5900 0.0000
# 4 0.0000 0.0000 0.0000 20.2920 0.0000 -0.4255
# 5 15.1220 12.2935 3.5900 0.0000 49.4163 0.0000
# 6 0.0000 0.0000 0.0000 -0.4255 0.0000 23.7641
#
#
#
# Elastic Compliance Matrix: (Units=1/GPa)
#
#
# Indices 1 2 3 4 5 6 
#
# 1 0.010232 0.001101 -0.003451 0.000000 -0.003154 0.000000
# 2 0.001101 0.016954 -0.003401 0.000000 -0.004308 0.000000
# 3 -0.003451 -0.003401 0.018134 0.000000 0.000585 0.000000
# 4 0.000000 0.000000 0.000000 0.049299 0.000000 0.000883
# 5 -0.003154 -0.004308 0.000585 0.000000 0.022231 0.000000
# 6 0.000000 0.000000 0.000000 0.000883 0.000000 0.042096
#
#
# Mechanical properties :
#
#
# Convention : Reuss Voigt Hill
#
# Bulk Modulus (GPa) = 29.57027 33.45470 31.51248
# Shear Modulus (GPa) = 27.51464 32.13524 29.82494
#
# Velocity S-wave (km/s) = 3.38319 3.65624 3.52236
# Velocity P-wave (km/s) = 5.24999 5.63393 5.44535
#
# Compressibility (1/GPa) = 0.03381775
#
# Stress axis : x y z
#
# Youngs Moduli (GPa) = 97.73044 58.98146 55.14593
#
# Poissons Ratio (x) = -0.06493 0.19032
# Poissons Ratio (y) = -0.10759 0.18754
# Poissons Ratio (z) = 0.33730 0.20059
#
# Static dielectric constant tensor:
#      x y z
#    x 1.964930 0.000000 -0.028120 
#    y 0.000000 1.922870 0.000000 
#    z -0.028120 0.000000 1.999030 
# 
# From -- ./inp_files/237701.got.cif
#   From: 2010.05.17/outbox.cif.g08.bks.cpg/sg15_119_cif.got.tgz:237701.got - 2010.06.03 18:47:42.
