data_PCOD9278133
_publ_section_title
;
Structure prediction by ZEFSAII (Michael W. Deem and Ramdas Pophale) SiO2 
 PCOD9278133
Probable space group: C 2/C
;
_chemical_formula_sum "Si O2"
_cell_formula_units_Z 56
_cell_length_a 14.474971
_cell_length_b 13.894933
_cell_length_c 17.587611
_cell_angle_alpha 90.000000
_cell_angle_beta 55.761478
_cell_angle_gamma 90.000000
_cell_volume 2924.356064
_symmetry_space_group_name_H-M "C 2/C"
_symmetry_group_IT_number 15
_symmetry_cell_setting 'monoclinic'
loop_
_space_group_symop_operation_xyz
x,y,z
-x,y,1/2-z
-x,-y,-z
x,-y,1/2+z
1/2+x,1/2+y,z
1/2-x,1/2+y,1/2-z
1/2-x,1/2-y,-z
1/2+x,1/2-y,1/2+z
loop_
_atom_site_type_symbol
_atom_site_label
_atom_site_fract_x
_atom_site_fract_y
_atom_site_fract_z
Si Si1 0.293241 0.661346 0.031686
Si Si2 0.373627 0.043441 0.278018
Si Si3 0.247098 0.635616 0.603739
Si Si4 0.580469 0.295813 0.647158
Si Si5 0.296844 0.476032 0.930155
Si Si6 0.474109 0.275959 0.001293
Si Si7 0.596839 0.936228 0.915634
O O1 0.203884 0.616012 0.134417
O O2 0.405380 0.692598 0.024046
O O3 0.250000 0.750000 0.000000
O O4 0.320461 0.577395 0.958066
O O5 0.500000 0.045766 0.250000
O O6 0.384620 0.061698 0.183289
O O7 0.321043 0.936851 0.312239
O O8 0.194665 0.740219 0.614097
O O9 0.241843 0.585597 0.523922
O O10 0.375750 0.648352 0.567891
O O11 0.500000 0.262518 0.750000
O O12 0.598881 0.410162 0.640602
O O13 0.532934 0.270175 0.586866
O O14 0.209742 0.474826 0.902390
O O15 0.436982 0.172920 0.049623
O O16 0.500000 0.000000 0.000000
#
# Coordination Sequence:
#
# PCOD9278133 Si02
#       7
#     8   8   8   8   8   8   8
#     4  11  25  47  67  94 139 184 219 270 346 410
#     4  11  25  42  67  98 133 175 234 279 329 412
#     4  10  20  42  66  94 130 167 224 285 338 389
#     4  11  22  37  67  98 131 165 223 286 332 390
#     4  10  21  42  60  92 132 163 218 278 328 393
#     4  11  23  42  69  95 134 179 218 278 344 397
#     4  12  23  41  67  95 131 179 232 273 333 405
#
# _framework density 19.149514
#
# number of rings (size 3 to 8) (size 9 to 14) (size 15 to 20)
#    0.000    1.143    2.857    4.714    4.000    5.143 
#    2.571    0.714    0.000    0.000    0.000    0.000 
#    0.000    0.000    0.000    0.000    0.000    0.000 
#
# Total GULP energy -156181.809221 kJ/mol
# GULP energy per Si atom -5577.921758 kJ/mol
# Density = 1.910593 g / cm^3
# Si number density = 19.149514 Si / 1000 Ang^3
#
#
#
# Elastic Constant Matrix: (Units=GPa)
#
#
# Indices 1 2 3 4 5 6 
#
# 1 158.6500 49.6161 74.5582 0.0000 2.3723 0.0000
# 2 49.6161 108.4312 54.6592 0.0000 6.2469 0.0000
# 3 74.5582 54.6592 112.1427 0.0000 7.7972 0.0000
# 4 0.0000 0.0000 0.0000 19.5607 0.0000 2.1125
# 5 2.3723 6.2469 7.7972 0.0000 18.6368 0.0000
# 6 0.0000 0.0000 0.0000 2.1125 0.0000 23.5230
#
#
#
# Elastic Compliance Matrix: (Units=1/GPa)
#
#
# Indices 1 2 3 4 5 6 
#
# 1 0.009403 -0.001576 -0.005599 0.000000 0.001674 0.000000
# 2 -0.001576 0.012540 -0.004929 0.000000 -0.001940 0.000000
# 3 -0.005599 -0.004929 0.015324 0.000000 -0.004046 0.000000
# 4 0.000000 0.000000 0.000000 0.051624 0.000000 -0.004636
# 5 0.001674 -0.001940 -0.004046 0.000000 0.055787 0.000000
# 6 0.000000 0.000000 0.000000 -0.004636 0.000000 0.042928
#
#
# Mechanical properties :
#
#
# Convention : Reuss Voigt Hill
#
# Bulk Modulus (GPa) = 76.58881 81.87675 79.23278
# Shear Modulus (GPa) = 23.13014 25.70346 24.41680
#
# Velocity S-wave (km/s) = 3.47921 3.66765 3.57467
# Velocity P-wave (km/s) = 7.49813 7.79647 7.64875
#
# Compressibility (1/GPa) = 0.01305674
#
# Stress axis : x y z
#
# Youngs Moduli (GPa) = 106.35366 79.74264 65.25743
#
# Poissons Ratio (x) = 0.12570 0.36540
# Poissons Ratio (y) = 0.16764 0.32168
# Poissons Ratio (z) = 0.59552 0.39308
#
# Static dielectric constant tensor:
#      x y z
#    x 1.679600 0.000000 -0.026060 
#    y 0.000000 1.693950 0.000000 
#    z -0.026060 0.000000 1.718700 
# 
# From -- ./inp_files/198214.got.cif
#   From: 2010.05.17/outbox.cif.g08.bks.cpg/sg15_100_cif.got.tgz:198214.got - 2010.06.03 18:47:42.
