data_PCOD9278492
_publ_section_title
;
Structure prediction by ZEFSAII (Michael W. Deem and Ramdas Pophale) SiO2 
 PCOD9278492
Probable space group: C 2/C
;
_chemical_formula_sum "Si O2"
_cell_formula_units_Z 40
_cell_length_a 7.457554
_cell_length_b 9.979070
_cell_length_c 21.193311
_cell_angle_alpha 90.000000
_cell_angle_beta 104.821617
_cell_angle_gamma 90.000000
_cell_volume 1524.716534
_symmetry_space_group_name_H-M "C 2/C"
_symmetry_group_IT_number 15
_symmetry_cell_setting 'monoclinic'
loop_
_space_group_symop_operation_xyz
x,y,z
-x,y,1/2-z
-x,-y,-z
x,-y,1/2+z
1/2+x,1/2+y,z
1/2-x,1/2+y,1/2-z
1/2-x,1/2-y,-z
1/2+x,1/2-y,1/2+z
loop_
_atom_site_type_symbol
_atom_site_label
_atom_site_fract_x
_atom_site_fract_y
_atom_site_fract_z
Si Si1 0.721593 0.795080 0.257031
Si Si2 0.281344 0.499998 0.467334
Si Si3 0.750795 0.041374 0.170147
Si Si4 0.860184 0.892326 0.857014
Si Si5 0.060128 0.645764 0.549066
O O1 0.804094 0.696406 0.318783
O O2 0.455333 0.553284 0.158662
O O3 0.756660 0.697693 0.200650
O O4 0.763255 0.943627 0.233564
O O5 0.500000 0.500000 0.500000
O O6 0.177795 0.616952 0.497142
O O7 0.257915 0.496747 0.388957
O O8 0.156133 0.379281 0.481689
O O9 0.000000 0.296893 0.250000
O O10 0.629426 0.963318 0.107710
O O11 0.912172 0.787155 0.916342
#
# Coordination Sequence:
#
# PCOD9278492 Si02
#       5
#     8   8   8   8   8
#     4   9  21  39  65  93 136 172 227 281 337 402
#     4  11  22  42  67  97 136 178 222 273 339 398
#     4  10  20  43  67  96 134 183 219 285 336 400
#     4  10  21  41  64  95 134 172 223 278 329 403
#     4  10  23  42  66  99 137 174 225 274 331 404
#
# _framework density 26.234383000000001
#
# number of rings (size 3 to 8) (size 9 to 14) (size 15 to 20)
#    0.000    2.000    2.000    0.600    0.000    5.600 
#    3.600   17.000    0.000    0.000    0.000    0.000 
#    0.000    0.000    0.000    0.000    0.000    0.000 
#
# Total GULP energy -111656.508440 kJ/mol
# GULP energy per Si atom -5582.825422 kJ/mol
# Density = 2.617467 g / cm^3
# Si number density = 26.234383 Si / 1000 Ang^3
#
#
#
# Elastic Constant Matrix: (Units=GPa)
#
#
# Indices 1 2 3 4 5 6 
#
# 1 131.8419 15.6537 22.5426 0.0000 -38.6015 0.0000
# 2 15.6537 138.0148 24.4308 0.0000 -13.2675 0.0000
# 3 22.5426 24.4308 74.8857 0.0000 -30.6634 0.0000
# 4 0.0000 0.0000 0.0000 55.8596 0.0000 2.1195
# 5 -38.6015 -13.2675 -30.6634 0.0000 45.9399 0.0000
# 6 0.0000 0.0000 0.0000 2.1195 0.0000 26.9699
#
#
#
# Elastic Compliance Matrix: (Units=1/GPa)
#
#
# Indices 1 2 3 4 5 6 
#
# 1 0.010102 -0.000423 0.000719 0.000000 0.008846 0.000000
# 2 -0.000423 0.007726 -0.002236 0.000000 0.000383 0.000000
# 3 0.000719 -0.002236 0.019059 0.000000 0.012680 0.000000
# 4 0.000000 0.000000 0.000000 0.017956 0.000000 -0.001411
# 5 0.008846 0.000383 0.012680 0.000000 0.037775 0.000000
# 6 0.000000 0.000000 0.000000 -0.001411 0.000000 0.037189
#
#
# Mechanical properties :
#
#
# Convention : Reuss Voigt Hill
#
# Bulk Modulus (GPa) = 30.29621 52.22185 41.25903
# Shear Modulus (GPa) = 34.55690 44.56156 39.55923
#
# Velocity S-wave (km/s) = 3.63331 4.12587 3.88740
# Velocity P-wave (km/s) = 5.40136 6.53040 5.99253
#
# Compressibility (1/GPa) = 0.03300743
#
# Stress axis : x y z
#
# Youngs Moduli (GPa) = 98.98859 129.42839 52.46959
#
# Poissons Ratio (x) = 0.05471 -0.03774
# Poissons Ratio (y) = 0.04184 0.11734
# Poissons Ratio (z) = -0.07120 0.28945
#
# Static dielectric constant tensor:
#      x y z
#    x 2.026660 0.000000 0.041870 
#    y 0.000000 2.184410 0.000000 
#    z 0.041870 0.000000 2.105330 
# 
# From -- ./inp_files/287214.got.cif
#   From: 2010.05.17/outbox.cif.g08.bks.cpg/sg15_144_cif.got.tgz:287214.got - 2010.06.03 18:47:42.
