data_PCOD9278677
_publ_section_title
;
Structure prediction by ZEFSAII (Michael W. Deem and Ramdas Pophale) SiO2 
 PCOD9278677
Probable space group: C 2/C
;
_chemical_formula_sum "Si O2"
_cell_formula_units_Z 48
_cell_length_a 11.096906
_cell_length_b 11.825737
_cell_length_c 15.873629
_cell_angle_alpha 90.000000
_cell_angle_beta 85.734847
_cell_angle_gamma 90.000000
_cell_volume 2077.312929
_symmetry_space_group_name_H-M "C 2/C"
_symmetry_group_IT_number 15
_symmetry_cell_setting 'monoclinic'
loop_
_space_group_symop_operation_xyz
x,y,z
-x,y,1/2-z
-x,-y,-z
x,-y,1/2+z
1/2+x,1/2+y,z
1/2-x,1/2+y,1/2-z
1/2-x,1/2-y,-z
1/2+x,1/2-y,1/2+z
loop_
_atom_site_type_symbol
_atom_site_label
_atom_site_fract_x
_atom_site_fract_y
_atom_site_fract_z
Si Si1 0.751066 0.125751 0.344993
Si Si2 0.480311 0.704975 0.134635
Si Si3 0.388041 0.192685 0.313963
Si Si4 0.544672 0.754464 0.940885
Si Si5 0.214148 0.380076 0.315071
Si Si6 0.906831 0.958021 0.176035
O O1 0.888675 0.167874 0.335295
O O2 0.690169 0.134170 0.254997
O O3 0.678039 0.198599 0.416016
O O4 0.728578 0.994806 0.365937
O O5 0.412092 0.813074 0.179620
O O6 0.404759 0.586679 0.141862
O O7 0.505124 0.740650 0.037666
O O8 0.500000 0.232186 0.250000
O O9 0.458745 0.156243 0.393862
O O10 0.301977 0.289237 0.352134
O O11 0.546691 0.630743 0.895811
O O12 0.281079 0.408576 0.221987
O O13 0.000000 0.963305 0.250000
#
# Coordination Sequence:
#
# PCOD9278677 Si02
#       6
#     8   8   8   8   8   8
#     4  11  23  46  71 103 150 194 244 311 367 454
#     4  12  28  42  76 111 142 194 250 308 386 433
#     4  10  20  44  69  94 133 191 239 288 360 445
#     4  11  23  48  70 105 148 190 243 314 378 435
#     4  12  23  42  71 107 139 188 255 299 363 459
#     4  12  21  45  74  97 141 196 252 296 368 455
#
# _framework density 23.106774999999999
#
# number of rings (size 3 to 8) (size 9 to 14) (size 15 to 20)
#    0.000    0.667    6.667    2.000    0.000    1.333 
#    9.000    1.667    0.000    0.000    0.000    0.000 
#    0.000    0.000    0.000    0.000    0.000    0.000 
#
# Total GULP energy -133730.418224 kJ/mol
# GULP energy per Si atom -5572.100759 kJ/mol
# Density = 2.305418 g / cm^3
# Si number density = 23.106775 Si / 1000 Ang^3
#
#
#
# Elastic Constant Matrix: (Units=GPa)
#
#
# Indices 1 2 3 4 5 6 
#
# 1 140.4582 49.8019 40.0812 0.0000 -19.1850 0.0000
# 2 49.8019 85.5462 28.3686 0.0000 -18.8357 0.0000
# 3 40.0812 28.3686 111.2132 0.0000 -17.2424 0.0000
# 4 0.0000 0.0000 0.0000 23.7260 0.0000 -9.5605
# 5 -19.1850 -18.8357 -17.2424 0.0000 26.4540 0.0000
# 6 0.0000 0.0000 0.0000 -9.5605 0.0000 30.7224
#
#
#
# Elastic Compliance Matrix: (Units=1/GPa)
#
#
# Indices 1 2 3 4 5 6 
#
# 1 0.009571 -0.004363 -0.001938 0.000000 0.002571 0.000000
# 2 -0.004363 0.016368 -0.001431 0.000000 0.007557 0.000000
# 3 -0.001938 -0.001431 0.010767 0.000000 0.004594 0.000000
# 4 0.000000 0.000000 0.000000 0.048191 0.000000 0.014996
# 5 0.002571 0.007557 0.004594 0.000000 0.048042 0.000000
# 6 0.000000 0.000000 0.000000 0.014996 0.000000 0.037216
#
#
# Mechanical properties :
#
#
# Convention : Reuss Voigt Hill
#
# Bulk Modulus (GPa) = 47.07509 63.74677 55.41093
# Shear Modulus (GPa) = 25.94719 30.77822 28.36270
#
# Velocity S-wave (km/s) = 3.35464 3.65362 3.50732
# Velocity P-wave (km/s) = 5.95163 6.74139 6.35878
#
# Compressibility (1/GPa) = 0.02124266
#
# Stress axis : x y z
#
# Youngs Moduli (GPa) = 104.48579 61.09431 92.87327
#
# Poissons Ratio (x) = 0.26655 0.17996
# Poissons Ratio (y) = 0.45587 0.13291
# Poissons Ratio (z) = 0.20246 0.08743
#
# Static dielectric constant tensor:
#      x y z
#    x 1.984630 0.000000 0.030960 
#    y 0.000000 1.960250 0.000000 
#    z 0.030960 0.000000 1.880990 
# 
# From -- ./inp_files/195995.got.cif
#   From: 2010.05.17/outbox.cif.g08.bks.cpg/sg15_98_cif.got.tgz:195995.got - 2010.06.03 18:47:42.
