data_PCOD9278665
_publ_section_title
;
Structure prediction by ZEFSAII (Michael W. Deem and Ramdas Pophale) SiO2 
 PCOD9278665
Probable space group: C 2/C
;
_chemical_formula_sum "Si O2"
_cell_formula_units_Z 36
_cell_length_a 16.046102
_cell_length_b 8.437427
_cell_length_c 19.056018
_cell_angle_alpha 90.000000
_cell_angle_beta 30.492152
_cell_angle_gamma 90.000000
_cell_volume 1309.120433
_symmetry_space_group_name_H-M "C 2/C"
_symmetry_group_IT_number 15
_symmetry_cell_setting 'monoclinic'
loop_
_space_group_symop_operation_xyz
x,y,z
-x,y,1/2-z
-x,-y,-z
x,-y,1/2+z
1/2+x,1/2+y,z
1/2-x,1/2+y,1/2-z
1/2-x,1/2-y,-z
1/2+x,1/2-y,1/2+z
loop_
_atom_site_type_symbol
_atom_site_label
_atom_site_fract_x
_atom_site_fract_y
_atom_site_fract_z
Si Si1 0.023037 0.290207 0.890006
Si Si2 0.660297 0.554762 0.978409
Si Si3 0.766342 0.510530 0.056519
Si Si4 0.654769 0.742293 0.255991
Si Si5 0.000000 0.746445 0.250000
O O1 0.018521 0.329855 0.810947
O O2 0.203855 0.286270 0.789680
O O3 0.935932 0.114407 0.960994
O O4 0.920121 0.442935 0.988945
O O5 0.760937 0.564489 0.978964
O O6 0.522117 0.696301 0.083314
O O7 0.782147 0.596702 0.826564
O O8 0.668594 0.625050 0.179264
O O9 0.658725 0.353304 0.128396
#
# Coordination Sequence:
#
# PCOD9278665 Si02
#       5
#     8   8   8   8   4
#     4  11  25  44  73 100 142 190 244 287 356 424
#     4  11  25  49  71 106 148 189 234 292 361 427
#     4  11  22  47  72  98 143 190 232 298 352 422
#     4  12  25  45  74 109 144 183 238 303 351 419
#     4  10  20  44  68  92 138 184 234 280 350 414
#
# _framework density 27.499381
#
# number of rings (size 3 to 8) (size 9 to 14) (size 15 to 20)
#    0.000    0.889    4.444    4.667    3.111    1.778 
#   12.000    0.000    0.000    0.000    0.000    0.000 
#    0.000    0.000    0.000    0.000    0.000    0.000 
#
# Total GULP energy -100681.304534 kJ/mol
# GULP energy per Si atom -5593.405807 kJ/mol
# Density = 2.743679 g / cm^3
# Si number density = 27.499381 Si / 1000 Ang^3
#
#
#
# Elastic Constant Matrix: (Units=GPa)
#
#
# Indices 1 2 3 4 5 6 
#
# 1 149.3991 41.9230 34.8925 0.0002 -27.9698 0.0000
# 2 41.9230 120.8378 62.3132 0.0000 -21.9305 0.0001
# 3 34.8925 62.3132 90.9382 0.0001 -14.1690 0.0001
# 4 0.0002 0.0000 0.0001 -30.0526 0.0000 -62.7793
# 5 -27.9698 -21.9305 -14.1690 0.0000 26.4987 0.0000
# 6 0.0000 0.0001 0.0001 -62.7793 0.0000 -10.3000
#
#
#
# Elastic Compliance Matrix: (Units=1/GPa)
#
#
# Indices 1 2 3 4 5 6 
#
# 1 0.008734 -0.000810 -0.001597 0.000000 0.007695 0.000000
# 2 -0.000810 0.013966 -0.008281 0.000000 0.006275 0.000000
# 3 -0.001597 -0.008281 0.017403 0.000000 0.000766 0.000000
# 4 0.000000 0.000000 0.000000 0.002836 0.000000 -0.017286
# 5 0.007695 0.006275 0.000766 0.000000 0.051463 0.000000
# 6 0.000000 0.000000 0.000000 -0.017286 0.000000 0.008275
#
#
# Mechanical properties :
#
#
# Convention : Reuss Voigt Hill
#
# Bulk Modulus (GPa) = 53.40091 71.04803 62.22447
# Shear Modulus (GPa) = 38.37389 12.03232 25.20311
#
# Velocity S-wave (km/s) = 3.73962 2.09404 3.03065
# Velocity P-wave (km/s) = 6.17312 5.63373 5.90959
#
# Compressibility (1/GPa) = 0.01872627
#
# Stress axis : x y z
#
# Youngs Moduli (GPa) = 114.48912 71.60291 57.46055
#
# Poissons Ratio (x) = 0.05800 0.09179
# Poissons Ratio (y) = 0.09274 0.47585
# Poissons Ratio (z) = 0.18288 0.59296
#
# Static dielectric constant tensor:
#      x y z
#    x 2.187890 0.000000 0.051030 
#    y 0.000000 2.269320 0.000000 
#    z 0.051030 0.000000 2.389780 
# 
# From -- ./inp_files/121305.got.cif
#   From: 2010.05.17/outbox.cif.g08.bks.cpg/sg15_61_cif.got.tgz:121305.got - 2010.06.03 18:47:42.
