data_PCOD9278171
_publ_section_title
;
Structure prediction by ZEFSAII (Michael W. Deem and Ramdas Pophale) SiO2 
 PCOD9278171
Probable space group: C 2/C
;
_chemical_formula_sum "Si O2"
_cell_formula_units_Z 48
_cell_length_a 19.605063
_cell_length_b 6.600886
_cell_length_c 22.441618
_cell_angle_alpha 90.000000
_cell_angle_beta 138.926730
_cell_angle_gamma 90.000000
_cell_volume 1908.119724
_symmetry_space_group_name_H-M "C 2/C"
_symmetry_group_IT_number 15
_symmetry_cell_setting 'monoclinic'
loop_
_space_group_symop_operation_xyz
x,y,z
-x,y,1/2-z
-x,-y,-z
x,-y,1/2+z
1/2+x,1/2+y,z
1/2-x,1/2+y,1/2-z
1/2-x,1/2-y,-z
1/2+x,1/2-y,1/2+z
loop_
_atom_site_type_symbol
_atom_site_label
_atom_site_fract_x
_atom_site_fract_y
_atom_site_fract_z
Si Si1 0.111583 0.104121 0.843359
Si Si2 0.245347 0.885369 0.622160
Si Si3 0.129487 0.241106 0.435444
Si Si4 0.094712 0.740159 0.042842
Si Si5 0.866304 0.644194 0.863044
Si Si6 0.089255 0.712872 0.745006
O O1 0.215714 0.235459 0.904444
O O2 0.000000 0.197559 0.750000
O O3 0.104708 0.997969 0.904164
O O4 0.117328 0.915826 0.799702
O O5 0.149984 0.043759 0.568743
O O6 0.341068 0.035319 0.685574
O O7 0.232465 0.743088 0.670942
O O8 0.250000 0.250000 0.500000
O O9 0.117749 0.345272 0.491899
O O10 0.033538 0.332905 0.335534
O O11 0.135637 0.595185 0.122141
O O12 0.970564 0.727258 0.964743
O O13 0.880172 0.716255 0.804859
#
# Coordination Sequence:
#
# PCOD9278171 Si02
#       6
#     8   8   8   8   8   8
#     4  10  24  43  62  96 135 172 222 273 332 401
#     4  12  23  37  67  95 128 172 222 271 335 393
#     4  10  20  42  67  87 130 175 220 273 335 389
#     4  10  23  42  63  96 129 175 221 277 328 397
#     4  10  23  42  64  93 135 173 223 273 337 393
#     4  10  24  40  63  95 130 174 222 277 331 396
#
# _framework density 25.155653000000001
#
# number of rings (size 3 to 8) (size 9 to 14) (size 15 to 20)
#    0.000    1.667    0.000    3.500    4.667    4.000 
#    0.000   15.000    0.000    0.000    0.000    0.000 
#    0.000    0.000    0.000    0.000    0.000    0.000 
#
# Total GULP energy -133685.543963 kJ/mol
# GULP energy per Si atom -5570.230998 kJ/mol
# Density = 2.509840 g / cm^3
# Si number density = 25.155653 Si / 1000 Ang^3
#
#
#
# Elastic Constant Matrix: (Units=GPa)
#
#
# Indices 1 2 3 4 5 6 
#
# 1 110.5066 43.1534 20.7597 0.0000 14.1302 -0.0001
# 2 43.1534 84.2926 36.1854 -0.0002 2.7111 0.0000
# 3 20.7597 36.1854 65.9875 0.0000 8.2523 0.0000
# 4 0.0000 -0.0002 0.0000 29.0029 0.0000 25.3356
# 5 14.1302 2.7111 8.2523 0.0000 41.0912 0.0000
# 6 -0.0001 0.0000 0.0000 25.3356 0.0000 49.0071
#
#
#
# Elastic Compliance Matrix: (Units=1/GPa)
#
#
# Indices 1 2 3 4 5 6 
#
# 1 0.011841 -0.005940 -0.000008 0.000000 -0.003678 0.000000
# 2 -0.005940 0.018516 -0.008603 0.000000 0.002549 0.000000
# 3 -0.000008 -0.008603 0.020314 0.000000 -0.003509 0.000000
# 4 0.000000 0.000000 0.000000 0.062874 0.000000 -0.032504
# 5 -0.003678 0.002549 -0.003509 0.000000 0.026138 0.000000
# 6 0.000000 0.000000 0.000000 -0.032504 0.000000 0.037209
#
#
# Mechanical properties :
#
#
# Convention : Reuss Voigt Hill
#
# Bulk Modulus (GPa) = 46.36632 51.22040 48.79336
# Shear Modulus (GPa) = 23.45414 34.53280 28.99347
#
# Velocity S-wave (km/s) = 3.05677 3.70910 3.39862
# Velocity P-wave (km/s) = 5.56150 6.22486 5.90250
#
# Compressibility (1/GPa) = 0.02156738
#
# Stress axis : x y z
#
# Youngs Moduli (GPa) = 84.45458 54.00785 49.22832
#
# Poissons Ratio (x) = 0.32082 0.00038
# Poissons Ratio (y) = 0.50168 0.42353
# Poissons Ratio (z) = 0.00065 0.46465
#
# Static dielectric constant tensor:
#      x y z
#    x 2.050030 0.000000 -0.043920 
#    y 0.000000 2.068240 0.000000 
#    z -0.043920 0.000000 2.062240 
# 
# From -- ./inp_files/317096.got.cif
#   From: 2010.05.17/outbox.cif.g08.bks.cpg/sg15_159_cif.got.tgz:317096.got - 2010.06.03 18:47:42.
