data_PCOD9278820
_publ_section_title
;
Structure prediction by ZEFSAII (Michael W. Deem and Ramdas Pophale) SiO2 
 PCOD9278820
Probable space group: C 2/C
;
_chemical_formula_sum "Si O2"
_cell_formula_units_Z 36
_cell_length_a 25.096604
_cell_length_b 11.794966
_cell_length_c 10.937636
_cell_angle_alpha 90.000000
_cell_angle_beta 149.572992
_cell_angle_gamma 90.000000
_cell_volume 1639.696072
_symmetry_space_group_name_H-M "C 2/C"
_symmetry_group_IT_number 15
_symmetry_cell_setting 'monoclinic'
loop_
_space_group_symop_operation_xyz
x,y,z
-x,y,1/2-z
-x,-y,-z
x,-y,1/2+z
1/2+x,1/2+y,z
1/2-x,1/2+y,1/2-z
1/2-x,1/2-y,-z
1/2+x,1/2-y,1/2+z
loop_
_atom_site_type_symbol
_atom_site_label
_atom_site_fract_x
_atom_site_fract_y
_atom_site_fract_z
Si Si1 0.000000 0.211747 0.750000
Si Si2 0.408058 0.025638 0.475370
Si Si3 0.187100 0.038950 0.158006
Si Si4 0.462254 0.183591 0.935927
Si Si5 0.608050 0.565812 0.253819
O O1 0.895960 0.141342 0.513381
O O2 0.027996 0.277436 0.683572
O O3 0.500000 0.991097 0.750000
O O4 0.304835 0.058426 0.345574
O O5 0.458277 0.130558 0.503115
O O6 0.391760 0.919533 0.350461
O O7 0.184616 0.015331 0.298864
O O8 0.139541 0.959402 0.956175
O O9 0.404779 0.297662 0.778390
O O10 0.500000 0.500000 0.000000
#
# Coordination Sequence:
#
# PCOD9278820 Si02
#       5
#     4   8   8   8   8
#     4  10  20  48  66 100 128 178 220 286 330 390
#     4  11  26  45  63  98 140 182 220 266 337 406
#     4  11  24  42  72 100 133 175 225 276 338 391
#     4  10  23  44  67  91 142 173 225 270 333 400
#     4  11  22  46  70 104 131 171 228 284 333 394
#
# _framework density 21.955286999999998
#
# number of rings (size 3 to 8) (size 9 to 14) (size 15 to 20)
#    0.000    1.333    5.556    0.000    6.222    3.556 
#   12.000    0.000    0.000    0.000    0.000    0.000 
#    0.000    0.000    0.000    0.000    0.000    0.000 
#
# Total GULP energy -100316.469732 kJ/mol
# GULP energy per Si atom -5573.137207 kJ/mol
# Density = 2.190532 g / cm^3
# Si number density = 21.955287 Si / 1000 Ang^3
#
#
#
# Elastic Constant Matrix: (Units=GPa)
#
#
# Indices 1 2 3 4 5 6 
#
# 1 145.3640 70.1743 29.6574 0.0000 25.4044 0.0000
# 2 70.1743 102.0675 24.0526 0.0000 -4.4972 0.0000
# 3 29.6574 24.0526 82.1688 0.0000 12.1049 0.0000
# 4 0.0000 0.0000 0.0000 -42.9348 0.0000 67.7800
# 5 25.4044 -4.4972 12.1049 0.0000 51.7537 0.0000
# 6 0.0000 0.0000 0.0000 67.7800 0.0000 -129.2028
#
#
#
# Elastic Compliance Matrix: (Units=1/GPa)
#
#
# Indices 1 2 3 4 5 6 
#
# 1 0.012361 -0.008556 -0.000988 0.000000 -0.006580 0.000000
# 2 -0.008556 0.016590 -0.002692 0.000000 0.006271 0.000000
# 3 -0.000988 -0.002692 0.013751 0.000000 -0.002966 0.000000
# 4 0.000000 0.000000 0.000000 -0.135551 0.000000 -0.071110
# 5 -0.006580 0.006271 -0.002966 0.000000 0.023791 0.000000
# 6 0.000000 0.000000 0.000000 -0.071110 0.000000 -0.045044
#
#
# Mechanical properties :
#
#
# Convention : Reuss Voigt Hill
#
# Bulk Modulus (GPa) = 54.84926 64.15207 59.50067
# Shear Modulus (GPa) = -59.84246 -10.36239 -35.10242
#
# Velocity S-wave (km/s) = -5.22644 -2.17486 -4.00286
# Velocity P-wave (km/s) = 3.37408 4.79335 2.40746
#
# Compressibility (1/GPa) = 0.01823179
#
# Stress axis : x y z
#
# Youngs Moduli (GPa) = 80.89941 60.27551 72.71939
#
# Poissons Ratio (x) = 0.51570 0.07182
# Poissons Ratio (y) = 0.69215 0.19577
# Poissons Ratio (z) = 0.07990 0.16227
#
# Static dielectric constant tensor:
#      x y z
#    x 2.088700 0.000000 -0.305600 
#    y 0.000000 1.855650 0.000000 
#    z -0.305600 0.000000 2.232770 
# 
# From -- ./inp_files/118167.got.cif
#   From: 2010.05.17/outbox.cif.g08.bks.cpg/sg15_60_cif.got.tgz:118167.got - 2010.06.03 18:47:42.
