data_PCOD9278568
_publ_section_title
;
Structure prediction by ZEFSAII (Michael W. Deem and Ramdas Pophale) SiO2 
 PCOD9278568
Probable space group: C 2/C
;
_chemical_formula_sum "Si O2"
_cell_formula_units_Z 60
_cell_length_a 21.609849
_cell_length_b 25.392022
_cell_length_c 7.767525
_cell_angle_alpha 90.000000
_cell_angle_beta 135.297262
_cell_angle_gamma 90.000000
_cell_volume 2998.138851
_symmetry_space_group_name_H-M "C 2/C"
_symmetry_group_IT_number 15
_symmetry_cell_setting 'monoclinic'
loop_
_space_group_symop_operation_xyz
x,y,z
-x,y,1/2-z
-x,-y,-z
x,-y,1/2+z
1/2+x,1/2+y,z
1/2-x,1/2+y,1/2-z
1/2-x,1/2-y,-z
1/2+x,1/2-y,1/2+z
loop_
_atom_site_type_symbol
_atom_site_label
_atom_site_fract_x
_atom_site_fract_y
_atom_site_fract_z
Si Si1 0.350256 0.740628 0.646453
Si Si2 0.000000 0.604757 0.250000
Si Si3 0.307338 0.090662 0.785021
Si Si4 0.835890 0.940779 0.727562
Si Si5 0.826007 0.713301 0.728284
Si Si6 0.994019 0.682936 0.555858
Si Si7 0.137139 0.941684 0.103455
Si Si8 0.591078 0.625988 0.828641
O O1 0.250000 0.750000 0.500000
O O2 0.358672 0.762021 0.470322
O O3 0.374259 0.679712 0.684502
O O4 0.417175 0.774129 0.893641
O O5 0.092391 0.576942 0.474179
O O6 0.981732 0.642455 0.376615
O O7 0.264152 0.058915 0.540792
O O8 0.300150 0.152625 0.719080
O O9 0.238936 0.078832 0.804219
O O10 0.863795 0.996151 0.863401
O O11 0.847707 0.897644 0.898858
O O12 0.886935 0.930993 0.645538
O O13 0.750000 0.750000 0.500000
O O14 0.912005 0.710812 0.781256
O O15 0.000000 0.654638 0.750000
O O16 0.086747 0.913978 0.159354
O O17 0.500000 0.633986 0.750000
#
# Coordination Sequence:
#
# PCOD9278568 Si02
#       8
#     8   4   8   8   8   8   8   8
#     4  12  24  41  62  92 134 173 216 265 317 389
#     4  10  20  44  60  94 130 164 216 272 312 392
#     4   9  20  38  66  88 125 171 209 268 321 392
#     4  10  22  44  67  93 126 175 215 273 341 390
#     4  11  20  38  60  91 129 166 210 260 316 383
#     4  11  22  39  60  86 127 173 209 258 314 375
#     4  10  22  44  65  92 127 172 214 273 336 398
#     4  12  25  41  66  99 131 170 223 275 319 393
#
# _framework density 20.012415000000001
#
# number of rings (size 3 to 8) (size 9 to 14) (size 15 to 20)
#    0.800    0.533    4.000    3.200    0.000    2.133 
#    2.400    0.667    0.000    0.000    0.000    0.000 
#    0.000    0.000    0.000    0.000    0.000    0.000 
#
# Total GULP energy -167259.374820 kJ/mol
# GULP energy per Si atom -5575.312494 kJ/mol
# Density = 1.996687 g / cm^3
# Si number density = 20.012415 Si / 1000 Ang^3
#
#
#
# Elastic Constant Matrix: (Units=GPa)
#
#
# Indices 1 2 3 4 5 6 
#
# 1 71.6130 -4.6750 33.4450 0.0000 1.5482 0.0000
# 2 -4.6750 27.7602 -5.0388 0.0000 -0.9975 0.0000
# 3 33.4450 -5.0388 84.7926 0.0000 -2.1404 0.0000
# 4 0.0000 0.0000 0.0000 120.7790 0.0000 5.3783
# 5 1.5482 -0.9975 -2.1404 0.0000 47.8901 0.0000
# 6 0.0000 0.0000 0.0000 5.3783 0.0000 12.1644
#
#
#
# Elastic Compliance Matrix: (Units=1/GPa)
#
#
# Indices 1 2 3 4 5 6 
#
# 1 0.017227 0.001652 -0.006717 0.000000 -0.000823 0.000000
# 2 0.001652 0.036609 0.001543 0.000000 0.000778 0.000000
# 3 -0.006717 0.001543 0.014557 0.000000 0.000900 0.000000
# 4 0.000000 0.000000 0.000000 0.008446 0.000000 -0.003734
# 5 -0.000823 0.000778 0.000900 0.000000 0.020964 0.000000
# 6 0.000000 0.000000 0.000000 -0.003734 0.000000 0.083858
#
#
# Mechanical properties :
#
#
# Convention : Reuss Voigt Hill
#
# Bulk Modulus (GPa) = 16.29992 25.73646 21.01819
# Shear Modulus (GPa) = 23.90568 46.86232 35.38400
#
# Velocity S-wave (km/s) = 3.45996 4.84432 4.20944
# Velocity P-wave (km/s) = 4.91166 6.64666 5.84391
#
# Compressibility (1/GPa) = 0.06135001
#
# Stress axis : x y z
#
# Youngs Moduli (GPa) = 58.04915 27.31558 68.69321
#
# Poissons Ratio (x) = -0.04513 0.46144
# Poissons Ratio (y) = -0.09591 -0.10603
# Poissons Ratio (z) = 0.38994 -0.04216
#
# Static dielectric constant tensor:
#      x y z
#    x 1.747350 0.000000 0.004230 
#    y 0.000000 1.699450 0.000000 
#    z 0.004230 0.000000 1.727190 
# 
# From -- ./inp_files/58788.got.cif
#   From: 2010.05.17/outbox.cif.g08.bks.cpg/sg15_30_cif.got.tgz:58788.got - 2010.06.03 18:47:42.
