data_PCOD9278467
_publ_section_title
;
Structure prediction by ZEFSAII (Michael W. Deem and Ramdas Pophale) SiO2 
 PCOD9278467
Probable space group: C 2/C
;
_chemical_formula_sum "Si O2"
_cell_formula_units_Z 48
_cell_length_a 11.715513
_cell_length_b 15.859333
_cell_length_c 13.087044
_cell_angle_alpha 90.000000
_cell_angle_beta 62.505120
_cell_angle_gamma 90.000000
_cell_volume 2156.934293
_symmetry_space_group_name_H-M "C 2/C"
_symmetry_group_IT_number 15
_symmetry_cell_setting 'monoclinic'
loop_
_space_group_symop_operation_xyz
x,y,z
-x,y,1/2-z
-x,-y,-z
x,-y,1/2+z
1/2+x,1/2+y,z
1/2-x,1/2+y,1/2-z
1/2-x,1/2-y,-z
1/2+x,1/2-y,1/2+z
loop_
_atom_site_type_symbol
_atom_site_label
_atom_site_fract_x
_atom_site_fract_y
_atom_site_fract_z
Si Si1 0.214234 0.317895 0.432162
Si Si2 0.128315 0.352390 0.131477
Si Si3 0.989348 0.783253 0.948744
Si Si4 0.370343 0.364998 0.186513
Si Si5 0.404862 0.543570 0.121953
Si Si6 0.628466 0.045730 0.125950
O O1 0.250000 0.250000 0.500000
O O2 0.110145 0.277621 0.400856
O O3 0.337420 0.330900 0.310419
O O4 0.149105 0.395550 0.518787
O O5 0.248893 0.356123 0.158506
O O6 0.123662 0.448206 0.091301
O O7 0.000000 0.341105 0.250000
O O8 0.120310 0.276130 0.053648
O O9 0.026883 0.869545 0.874633
O O10 0.970937 0.815715 0.073484
O O11 0.390602 0.464087 0.201112
O O12 0.261637 0.559739 0.135469
O O13 0.500000 0.500000 0.000000
O O14 0.500000 0.061025 0.250000
#
# Coordination Sequence:
#
# PCOD9278467 Si02
#       6
#     8   8   8   8   8   8
#     4  12  25  41  64  98 136 177 233 277 340 419
#     4  10  20  43  66  96 131 166 223 286 338 407
#     4  11  22  40  70  97 131 171 227 280 340 410
#     4  10  23  43  67  93 134 176 220 283 346 409
#     4   9  20  44  66  93 134 178 219 277 343 412
#     4  10  23  42  66  96 138 178 223 287 347 409
#
# _framework density 22.253807999999999
#
# number of rings (size 3 to 8) (size 9 to 14) (size 15 to 20)
#    0.000    1.667    3.333    0.500    2.333    0.667 
#    3.000    3.333    0.000    0.000    0.000    0.000 
#    0.000    0.000    0.000    0.000    0.000    0.000 
#
# Total GULP energy -133743.645041 kJ/mol
# GULP energy per Si atom -5572.651877 kJ/mol
# Density = 2.220316 g / cm^3
# Si number density = 22.253808 Si / 1000 Ang^3
#
#
#
# Elastic Constant Matrix: (Units=GPa)
#
#
# Indices 1 2 3 4 5 6 
#
# 1 61.6595 22.0301 6.7539 0.0000 -12.2391 0.0000
# 2 22.0301 159.5250 68.0455 0.0000 17.6920 0.0000
# 3 6.7539 68.0455 92.5105 0.0000 -6.1590 0.0000
# 4 0.0000 0.0000 0.0000 25.5762 0.0000 -7.5768
# 5 -12.2391 17.6920 -6.1590 0.0000 32.7437 0.0000
# 6 0.0000 0.0000 0.0000 -7.5768 0.0000 22.9202
#
#
#
# Elastic Compliance Matrix: (Units=1/GPa)
#
#
# Indices 1 2 3 4 5 6 
#
# 1 0.019942 -0.005327 0.003190 0.000000 0.010933 0.000000
# 2 -0.005327 0.012039 -0.009146 0.000000 -0.010216 0.000000
# 3 0.003190 -0.009146 0.017937 0.000000 0.009508 0.000000
# 4 0.000000 0.000000 0.000000 0.043343 0.000000 0.014328
# 5 0.010933 -0.010216 0.009508 0.000000 0.041935 0.000000
# 6 0.000000 0.000000 0.000000 0.014328 0.000000 0.048366
#
#
# Mechanical properties :
#
#
# Convention : Reuss Voigt Hill
#
# Bulk Modulus (GPa) = 36.56087 56.37267 46.46677
# Shear Modulus (GPa) = 23.22923 30.70572 26.96748
#
# Velocity S-wave (km/s) = 3.23434 3.71859 3.48489
# Velocity P-wave (km/s) = 5.51477 6.61996 6.09248
#
# Compressibility (1/GPa) = 0.02735165
#
# Stress axis : x y z
#
# Youngs Moduli (GPa) = 50.14525 83.06592 55.75043
#
# Poissons Ratio (x) = 0.44252 -0.17787
# Poissons Ratio (y) = 0.26714 0.50990
# Poissons Ratio (z) = -0.15998 0.75973
#
# Static dielectric constant tensor:
#      x y z
#    x 1.707710 0.000000 -0.066140 
#    y 0.000000 1.877810 0.000000 
#    z -0.066140 0.000000 1.858340 
# 
# From -- ./inp_files/96837.got.cif
#   From: 2010.05.17/outbox.cif.g08.bks.cpg/sg15_49_cif.got.tgz:96837.got - 2010.06.03 18:47:42.
