data_PCOD9278300
_publ_section_title
;
Structure prediction by ZEFSAII (Michael W. Deem and Ramdas Pophale) SiO2 
 PCOD9278300
Probable space group: C 2/C
;
_chemical_formula_sum "Si O2"
_cell_formula_units_Z 44
_cell_length_a 17.594311
_cell_length_b 5.410032
_cell_length_c 19.130935
_cell_angle_alpha 90.000000
_cell_angle_beta 68.059762
_cell_angle_gamma 90.000000
_cell_volume 1689.105979
_symmetry_space_group_name_H-M "C 2/C"
_symmetry_group_IT_number 15
_symmetry_cell_setting 'monoclinic'
loop_
_space_group_symop_operation_xyz
x,y,z
-x,y,1/2-z
-x,-y,-z
x,-y,1/2+z
1/2+x,1/2+y,z
1/2-x,1/2+y,1/2-z
1/2-x,1/2-y,-z
1/2+x,1/2-y,1/2+z
loop_
_atom_site_type_symbol
_atom_site_label
_atom_site_fract_x
_atom_site_fract_y
_atom_site_fract_z
Si Si1 0.259300 0.537755 0.572046
Si Si2 0.556749 0.875821 0.876556
Si Si3 0.653373 0.618826 0.338188
Si Si4 0.354811 0.396595 0.824735
Si Si5 0.619590 0.734133 0.559148
Si Si6 0.500000 0.018864 0.750000
O O1 0.265532 0.380129 0.642244
O O2 0.227255 0.799674 0.609049
O O3 0.343214 0.477461 0.503289
O O4 0.188839 0.440039 0.544662
O O5 0.608715 0.634551 0.876079
O O6 0.465580 0.843516 0.937931
O O7 0.601227 0.136505 0.873061
O O8 0.541751 0.872437 0.798056
O O9 0.664570 0.593151 0.251115
O O10 0.387617 0.619646 0.860612
O O11 0.428429 0.195198 0.805152
#
# Coordination Sequence:
#
# PCOD9278300 Si02
#       6
#     8   8   8   8   8   4
#     4  11  27  44  67 107 141 188 228 294 358 422
#     4  11  23  46  70 104 140 187 237 290 346 424
#     4  11  28  43  74 107 141 184 236 300 354 401
#     4  11  23  42  73 101 141 183 241 292 350 419
#     4  11  24  46  72  97 145 189 237 280 354 429
#     4  10  20  42  70 106 128 182 238 286 344 406
#
# _framework density 26.049281000000001
#
# number of rings (size 3 to 8) (size 9 to 14) (size 15 to 20)
#    0.000    1.091    1.818    3.818    7.636    2.182 
#    0.000    0.000    0.000    0.000    0.000    0.000 
#    0.000    0.000    0.000    0.000    0.000    0.000 
#
# Total GULP energy -123183.355503 kJ/mol
# GULP energy per Si atom -5599.243432 kJ/mol
# Density = 2.598999 g / cm^3
# Si number density = 26.049281 Si / 1000 Ang^3
#
#
#
# Elastic Constant Matrix: (Units=GPa)
#
#
# Indices 1 2 3 4 5 6 
#
# 1 85.9080 46.2301 27.4144 0.0036 8.6772 0.0038
# 2 46.2301 117.1251 29.4848 0.0124 0.8162 0.0077
# 3 27.4144 29.4848 104.8312 -0.0025 7.7256 -0.0019
# 4 0.0036 0.0124 -0.0025 28.4279 -0.0009 -2.5578
# 5 8.6772 0.8162 7.7256 -0.0009 40.4506 0.0024
# 6 0.0038 0.0077 -0.0019 -2.5578 0.0024 50.0633
#
#
#
# Elastic Compliance Matrix: (Units=1/GPa)
#
#
# Indices 1 2 3 4 5 6 
#
# 1 0.015667 -0.005580 -0.002321 0.000000 -0.002805 0.000000
# 2 -0.005580 0.011180 -0.001782 -0.000004 0.001312 -0.000002
# 3 -0.002321 -0.001782 0.010759 0.000002 -0.001521 0.000001
# 4 0.000000 -0.000004 0.000002 0.035339 0.000000 0.001806
# 5 -0.002805 0.001312 -0.001521 0.000000 0.025587 -0.000001
# 6 0.000000 -0.000002 0.000001 0.001806 -0.000001 0.020067
#
#
# Mechanical properties :
#
#
# Convention : Reuss Voigt Hill
#
# Bulk Modulus (GPa) = 54.82304 57.12478 55.97391
# Shear Modulus (GPa) = 34.71120 37.43736 36.07428
#
# Velocity S-wave (km/s) = 3.65433 3.79512 3.72539
# Velocity P-wave (km/s) = 6.23675 6.41725 6.32764
#
# Compressibility (1/GPa) = 0.01824051
#
# Stress axis : x y z
#
# Youngs Moduli (GPa) = 63.82775 89.44699 92.94237
#
# Poissons Ratio (x) = 0.49912 0.21571
# Poissons Ratio (y) = 0.35617 0.16561
# Poissons Ratio (z) = 0.14814 0.15938
#
# Static dielectric constant tensor:
#      x y z
#    x 2.024120 0.000000 -0.033670 
#    y 0.000000 2.040510 0.000000 
#    z -0.033670 0.000000 2.069780 
# 
# From -- ./inp_files/246404.got.cif
#   From: 2010.05.17/outbox.cif.g08.bks.cpg/sg15_124_cif.got.tgz:246404.got - 2010.06.03 18:47:42.
