data_PCOD9278095
_publ_section_title
;
Structure prediction by ZEFSAII (Michael W. Deem and Ramdas Pophale) SiO2 
 PCOD9278095
Probable space group: C 2/C
;
_chemical_formula_sum "Si O2"
_cell_formula_units_Z 64
_cell_length_a 27.159959
_cell_length_b 20.708508
_cell_length_c 20.202150
_cell_angle_alpha 90.000000
_cell_angle_beta 161.549084
_cell_angle_gamma 90.000000
_cell_volume 3596.155232
_symmetry_space_group_name_H-M "C 2/C"
_symmetry_group_IT_number 15
_symmetry_cell_setting 'monoclinic'
loop_
_space_group_symop_operation_xyz
x,y,z
-x,y,1/2-z
-x,-y,-z
x,-y,1/2+z
1/2+x,1/2+y,z
1/2-x,1/2+y,1/2-z
1/2-x,1/2-y,-z
1/2+x,1/2-y,1/2+z
loop_
_atom_site_type_symbol
_atom_site_label
_atom_site_fract_x
_atom_site_fract_y
_atom_site_fract_z
Si Si1 0.387440 0.113350 0.797131
Si Si2 0.608911 0.865750 0.453057
Si Si3 0.394867 0.114600 0.303754
Si Si4 0.315130 0.499519 0.019562
Si Si5 0.301031 0.248924 0.749029
Si Si6 0.162432 0.754438 0.218439
Si Si7 0.117422 0.632698 0.461305
Si Si8 0.685072 0.002028 0.001285
O O1 0.260566 0.061035 0.613830
O O2 0.311375 0.180217 0.725147
O O3 0.497838 0.126494 0.874960
O O4 0.499803 0.090896 0.000319
O O5 0.717078 0.803950 0.599952
O O6 0.707611 0.931726 0.569815
O O7 0.500000 0.858212 0.250000
O O8 0.317918 0.181968 0.228568
O O9 0.513084 0.128589 0.394185
O O10 0.269835 0.062808 0.120052
O O11 0.500000 0.497156 0.250000
O O12 0.269939 0.503027 0.039358
O O13 0.210976 0.243335 0.703491
O O14 0.479226 0.268177 0.990798
O O15 0.267049 0.807180 0.388094
O O16 0.210161 0.565180 0.571083
O O17 0.000000 0.639343 0.250000
O O18 0.500000 0.001659 0.750000
#
# Coordination Sequence:
#
# PCOD9278095 Si02
#       8
#     8   8   8   8   8   8   8   8
#     4  11  22  43  68  93 129 177 210 260 332 383
#     4  11  21  42  71  91 125 179 217 258 322 389
#     4  11  22  43  68  93 129 177 210 260 332 383
#     4  12  25  42  66 104 131 156 223 282 310 380
#     4  11  23  42  63  97 133 164 216 269 314 379
#     4  11  23  42  63  97 133 164 216 269 314 379
#     4  11  21  42  71  91 125 179 217 258 322 389
#     4  10  20  42  66  88 129 167 212 258 321 381
#
# _framework density 17.796785
#
# number of rings (size 3 to 8) (size 9 to 14) (size 15 to 20)
#    0.000    1.000   10.000    0.375    0.000    4.000 
#    0.000    0.625    0.000    0.000    0.000    0.000 
#    0.000    0.000    0.000    0.000    0.000    0.000 
#
# Total GULP energy -178638.856472 kJ/mol
# GULP energy per Si atom -5582.464265 kJ/mol
# Density = 1.775628 g / cm^3
# Si number density = 17.796785 Si / 1000 Ang^3
#
#
#
# Elastic Constant Matrix: (Units=GPa)
#
#
# Indices 1 2 3 4 5 6 
#
# 1 97.8315 16.0376 4.9227 0.0003 0.0620 0.0002
# 2 16.0376 142.4461 39.5293 0.0008 -6.7861 0.0007
# 3 4.9227 39.5293 66.6577 -0.0005 6.8775 -0.0008
# 4 0.0003 0.0008 -0.0005 39.1801 -0.0007 -5.2296
# 5 0.0620 -6.7861 6.8775 -0.0007 26.3772 -0.0007
# 6 0.0002 0.0007 -0.0008 -5.2296 -0.0007 30.1222
#
#
#
# Elastic Compliance Matrix: (Units=1/GPa)
#
#
# Indices 1 2 3 4 5 6 
#
# 1 0.010417 -0.001177 -0.000038 0.000000 -0.000317 0.000000
# 2 -0.001177 0.008874 -0.005561 0.000000 0.003736 0.000000
# 3 -0.000038 -0.005561 0.018960 0.000000 -0.006374 0.000001
# 4 0.000000 0.000000 0.000000 0.026129 0.000001 0.004536
# 5 -0.000317 0.003736 -0.006374 0.000001 0.040535 0.000001
# 6 0.000000 0.000000 0.000001 0.004536 0.000001 0.033986
#
#
# Mechanical properties :
#
#
# Convention : Reuss Voigt Hill
#
# Bulk Modulus (GPa) = 40.48940 47.54604 44.01772
# Shear Modulus (GPa) = 31.11654 35.56560 33.34107
#
# Velocity S-wave (km/s) = 4.18597 4.47523 4.33301
# Velocity P-wave (km/s) = 6.79437 7.31284 7.05837
#
# Compressibility (1/GPa) = 0.02469782
#
# Stress axis : x y z
#
# Youngs Moduli (GPa) = 95.99892 112.69038 52.74198
#
# Poissons Ratio (x) = 0.13267 0.00203
# Poissons Ratio (y) = 0.11302 0.29329
# Poissons Ratio (z) = 0.00369 0.62666
#
# Static dielectric constant tensor:
#      x y z
#    x 1.597290 0.000000 -0.012210 
#    y 0.000000 1.639200 0.000000 
#    z -0.012210 0.000000 1.579550 
# 
# From -- ./inp_files/220273.got.cif
#   From: 2010.05.17/outbox.cif.g08.bks.cpg/sg15_111_cif.got.tgz:220273.got - 2010.06.03 18:47:42.
