data_PCOD9278606
_publ_section_title
;
Structure prediction by ZEFSAII (Michael W. Deem and Ramdas Pophale) SiO2 
 PCOD9278606
Probable space group: C 2/C
;
_chemical_formula_sum "Si O2"
_cell_formula_units_Z 64
_cell_length_a 6.823088
_cell_length_b 21.209887
_cell_length_c 21.915250
_cell_angle_alpha 90.000000
_cell_angle_beta 129.096759
_cell_angle_gamma 90.000000
_cell_volume 2461.350218
_symmetry_space_group_name_H-M "C 2/C"
_symmetry_group_IT_number 15
_symmetry_cell_setting 'monoclinic'
loop_
_space_group_symop_operation_xyz
x,y,z
-x,y,1/2-z
-x,-y,-z
x,-y,1/2+z
1/2+x,1/2+y,z
1/2-x,1/2+y,1/2-z
1/2-x,1/2-y,-z
1/2+x,1/2-y,1/2+z
loop_
_atom_site_type_symbol
_atom_site_label
_atom_site_fract_x
_atom_site_fract_y
_atom_site_fract_z
Si Si1 0.335892 0.829442 0.662525
Si Si2 0.442993 0.573597 0.579776
Si Si3 0.111025 0.656272 0.866015
Si Si4 0.856313 0.479155 0.659888
Si Si5 0.160498 0.681594 0.456865
Si Si6 0.337291 0.303537 0.659688
Si Si7 0.669017 0.319555 0.963265
Si Si8 0.758569 0.557989 0.828723
O O1 0.500000 0.800392 0.750000
O O2 0.548958 0.809069 0.642318
O O3 0.037099 0.827955 0.640763
O O4 0.370869 0.904738 0.665582
O O5 0.690759 0.617469 0.634999
O O6 0.572703 0.505392 0.595264
O O7 0.272652 0.613715 0.500578
O O8 0.289936 0.569742 0.611060
O O9 0.124802 0.727837 0.846077
O O10 0.199952 0.642669 0.954100
O O11 0.840668 0.622787 0.811549
O O12 0.000000 0.501854 0.750000
O O13 0.022128 0.507888 0.638705
O O14 0.250000 0.750000 0.500000
O O15 0.367497 0.684283 0.435125
O O16 0.874851 0.674333 0.441531
O O17 0.500000 0.326252 0.750000
O O18 0.750000 0.250000 0.000000
O O19 0.500000 0.532468 0.750000
#
# Coordination Sequence:
#
# PCOD9278606 Si02
#       8
#     8   8   8   8   8   8   8   8
#     4  11  24  45  74 104 137 195 243 295 373 439
#     4  11  22  43  71 102 143 190 236 304 368 432
#     4  10  22  40  67  98 143 180 229 295 362 421
#     4  10  23  46  71 106 148 186 245 315 364 427
#     4  12  23  44  68 102 144 188 241 296 364 438
#     4  11  23  38  61  96 138 182 235 299 349 426
#     4  10  20  44  64  93 138 184 227 284 357 428
#     4  11  23  39  70 104 138 186 244 291 367 437
#
# _framework density 26.001987
#
# number of rings (size 3 to 8) (size 9 to 14) (size 15 to 20)
#    0.000    1.250    3.750    2.250    1.750    1.500 
#    2.250    4.375    0.000    0.000    0.000    0.000 
#    0.000    0.000    0.000    0.000    0.000    0.000 
#
# Total GULP energy -178450.323998 kJ/mol
# GULP energy per Si atom -5576.572625 kJ/mol
# Density = 2.594281 g / cm^3
# Si number density = 26.001987 Si / 1000 Ang^3
#
#
#
# Elastic Constant Matrix: (Units=GPa)
#
#
# Indices 1 2 3 4 5 6 
#
# 1 240.6704 41.4694 70.7418 0.0000 -16.1043 0.0000
# 2 41.4694 99.2065 12.0220 0.0000 -10.2966 0.0000
# 3 70.7418 12.0220 165.3317 0.0000 -28.2673 0.0000
# 4 0.0000 0.0000 0.0000 31.8899 0.0000 -4.4573
# 5 -16.1043 -10.2966 -28.2673 0.0000 84.7011 0.0000
# 6 0.0000 0.0000 0.0000 -4.4573 0.0000 14.5234
#
#
#
# Elastic Compliance Matrix: (Units=1/GPa)
#
#
# Indices 1 2 3 4 5 6 
#
# 1 0.005077 -0.001870 -0.002026 0.000000 0.000062 0.000000
# 2 -0.001870 0.010947 0.000181 0.000000 0.001036 0.000000
# 3 -0.002026 0.000181 0.007254 0.000000 0.002058 0.000000
# 4 0.000000 0.000000 0.000000 0.032763 0.000000 0.010055
# 5 0.000062 0.001036 0.002058 0.000000 0.012631 0.000000
# 6 0.000000 0.000000 0.000000 0.010055 0.000000 0.071941
#
#
# Mechanical properties :
#
#
# Convention : Reuss Voigt Hill
#
# Bulk Modulus (GPa) = 63.09689 83.74164 73.41927
# Shear Modulus (GPa) = 32.61050 51.62126 42.11588
#
# Velocity S-wave (km/s) = 3.54525 4.46048 4.02894
# Velocity P-wave (km/s) = 6.40915 7.66835 7.06685
#
# Compressibility (1/GPa) = 0.01584864
#
# Stress axis : x y z
#
# Youngs Moduli (GPa) = 196.97065 91.34665 137.85810
#
# Poissons Ratio (x) = 0.17085 0.27926
# Poissons Ratio (y) = 0.36839 -0.02500
# Poissons Ratio (z) = 0.39901 -0.01656
#
# Static dielectric constant tensor:
#      x y z
#    x 2.032720 0.000000 0.793930 
#    y 0.000000 1.964910 0.000000 
#    z 0.793930 0.000000 -0.368530 
# 
# From -- ./inp_files/306004.got.cif
#   From: 2010.05.17/outbox.cif.g08.bks.cpg/sg15_154_cif.got.tgz:306004.got - 2010.06.03 18:47:42.
