data_PCOD9278217
_publ_section_title
;
Structure prediction by ZEFSAII (Michael W. Deem and Ramdas Pophale) SiO2 
 PCOD9278217
Probable space group: C 2/C
;
_chemical_formula_sum "Si O2"
_cell_formula_units_Z 52
_cell_length_a 26.768218
_cell_length_b 6.016438
_cell_length_c 17.680363
_cell_angle_alpha 90.000000
_cell_angle_beta 53.795236
_cell_angle_gamma 90.000000
_cell_volume 2297.607436
_symmetry_space_group_name_H-M "C 2/C"
_symmetry_group_IT_number 15
_symmetry_cell_setting 'monoclinic'
loop_
_space_group_symop_operation_xyz
x,y,z
-x,y,1/2-z
-x,-y,-z
x,-y,1/2+z
1/2+x,1/2+y,z
1/2-x,1/2+y,1/2-z
1/2-x,1/2-y,-z
1/2+x,1/2-y,1/2+z
loop_
_atom_site_type_symbol
_atom_site_label
_atom_site_fract_x
_atom_site_fract_y
_atom_site_fract_z
Si Si1 0.000000 0.298159 0.250000
Si Si2 0.648677 0.188996 0.365321
Si Si3 0.668410 0.903666 0.488561
Si Si4 0.894390 0.947344 0.354588
Si Si5 0.075155 0.581682 0.290674
Si Si6 0.232410 0.040419 0.337308
Si Si7 0.689308 0.184567 0.617425
O O1 0.056499 0.140746 0.174476
O O2 0.017634 0.450741 0.306215
O O3 0.590499 0.141522 0.363148
O O4 0.711169 0.087106 0.269969
O O5 0.669871 0.446068 0.355479
O O6 0.639424 0.071093 0.453768
O O7 0.620024 0.724493 0.565913
O O8 0.718756 0.757323 0.398876
O O9 0.694137 0.036700 0.537720
O O10 0.831232 0.070363 0.387086
O O11 0.919047 0.807297 0.261973
O O12 0.132086 0.424644 0.213844
O O13 0.254237 0.850276 0.376505
#
# Coordination Sequence:
#
# PCOD9278217 Si02
#       7
#     4   8   8   8   8   8   8
#     4  10  20  42  68  90 112 152 208 264 324 364
#     4  11  23  36  57  90 128 168 205 242 300 362
#     4  11  22  38  56  88 128 164 206 252 292 355
#     4  10  21  39  66  88 116 157 206 258 310 362
#     4   9  21  38  62  91 119 152 205 262 307 365
#     4  11  22  36  58  84 128 173 205 242 295 354
#     4   9  21  37  58  88 120 163 210 247 294 360
#
# _framework density 22.632239999999999
#
# number of rings (size 3 to 8) (size 9 to 14) (size 15 to 20)
#    0.000    1.846    1.538    1.846    2.154    4.923 
#    0.000    0.769    0.000   17.538    0.000    0.000 
#    0.000    0.000    0.000    0.000    0.000    0.000 
#
# Total GULP energy -145333.177833 kJ/mol
# GULP energy per Si atom -5589.737609 kJ/mol
# Density = 2.258073 g / cm^3
# Si number density = 22.632240 Si / 1000 Ang^3
#
#
#
# Elastic Constant Matrix: (Units=GPa)
#
#
# Indices 1 2 3 4 5 6 
#
# 1 100.5527 27.6711 18.9781 0.0000 20.0077 0.0076
# 2 27.6711 83.6266 16.3563 0.0083 7.6557 0.0111
# 3 18.9781 16.3563 57.6867 0.0036 22.0012 -0.0015
# 4 0.0000 0.0083 0.0036 46.4169 -0.0018 -5.1457
# 5 20.0077 7.6557 22.0012 -0.0018 30.2339 0.0018
# 6 0.0076 0.0111 -0.0015 -5.1457 0.0018 25.2830
#
#
#
# Elastic Compliance Matrix: (Units=1/GPa)
#
#
# Indices 1 2 3 4 5 6 
#
# 1 0.012345 -0.003358 -0.000440 0.000000 -0.006999 -0.000002
# 2 -0.003358 0.013588 -0.003160 -0.000003 0.001081 -0.000006
# 3 -0.000440 -0.003160 0.024859 -0.000002 -0.016998 0.000004
# 4 0.000000 -0.000003 -0.000002 0.022041 0.000003 0.004486
# 5 -0.006999 0.001081 -0.016998 0.000003 0.049803 -0.000002
# 6 -0.000002 -0.000006 0.000004 0.004486 -0.000002 0.040465
#
#
# Mechanical properties :
#
#
# Convention : Reuss Voigt Hill
#
# Bulk Modulus (GPa) = 27.11832 40.87522 33.99677
# Shear Modulus (GPa) = 26.41176 32.31077 29.36127
#
# Velocity S-wave (km/s) = 3.41984 3.78252 3.60574
# Velocity P-wave (km/s) = 5.25375 6.09724 5.69115
#
# Compressibility (1/GPa) = 0.03687544
#
# Stress axis : x y z
#
# Youngs Moduli (GPa) = 81.00602 73.59331 40.22709
#
# Poissons Ratio (x) = 0.24713 0.01769
# Poissons Ratio (y) = 0.27202 0.12713
# Poissons Ratio (z) = 0.03563 0.23258
#
# Static dielectric constant tensor:
#      x y z
#    x 1.894580 0.000000 -0.027780 
#    y 0.000000 1.860140 0.000000 
#    z -0.027780 0.000000 1.848010 
# 
# From -- ./inp_files/220886.got.cif
#   From: 2010.05.17/outbox.cif.g08.bks.cpg/sg15_111_cif.got.tgz:220886.got - 2010.06.03 18:47:42.
