data_PCOD9278049
_publ_section_title
;
Structure prediction by ZEFSAII (Michael W. Deem and Ramdas Pophale) SiO2 
 PCOD9278049
Probable space group: C 2/C
;
_chemical_formula_sum "Si O2"
_cell_formula_units_Z 56
_cell_length_a 22.685476
_cell_length_b 20.341634
_cell_length_c 8.301523
_cell_angle_alpha 90.000000
_cell_angle_beta 42.970165
_cell_angle_gamma 90.000000
_cell_volume 2611.152280
_symmetry_space_group_name_H-M "C 2/C"
_symmetry_group_IT_number 15
_symmetry_cell_setting 'monoclinic'
loop_
_space_group_symop_operation_xyz
x,y,z
-x,y,1/2-z
-x,-y,-z
x,-y,1/2+z
1/2+x,1/2+y,z
1/2-x,1/2+y,1/2-z
1/2-x,1/2-y,-z
1/2+x,1/2-y,1/2+z
loop_
_atom_site_type_symbol
_atom_site_label
_atom_site_fract_x
_atom_site_fract_y
_atom_site_fract_z
Si Si1 0.233241 0.036343 0.152144
Si Si2 0.032251 0.931515 0.002932
Si Si3 0.602306 0.347888 0.426323
Si Si4 0.910651 0.707237 0.890359
Si Si5 0.755585 0.403812 0.276516
Si Si6 0.330227 0.768519 0.224013
Si Si7 0.273920 0.655487 0.121819
O O1 0.133412 0.051064 0.309694
O O2 0.236665 0.080215 0.305497
O O3 0.266264 0.963775 0.129633
O O4 0.279458 0.068955 0.906221
O O5 0.000000 0.918734 0.250000
O O6 0.981671 0.879024 0.990561
O O7 0.000000 0.000000 0.000000
O O8 0.583506 0.278066 0.538486
O O9 0.652483 0.389566 0.462585
O O10 0.679955 0.341317 0.140960
O O11 0.901680 0.714935 0.714788
O O12 0.000000 0.670404 0.750000
O O13 0.822674 0.680760 0.147865
O O14 0.804584 0.333216 0.172058
O O15 0.250000 0.750000 0.500000
O O16 0.336720 0.702461 0.105533
#
# Coordination Sequence:
#
# PCOD9278049 Si02
#       7
#     8   8   8   8   8   8   8
#     4  12  23  39  61  92 132 175 212 262 323 394
#     4  12  25  37  53  90 141 173 211 250 306 390
#     4  12  24  37  63  95 132 179 212 257 320 394
#     4  11  24  40  67  95 121 170 221 276 328 373
#     4  12  23  40  65  93 128 177 217 257 329 390
#     4  10  20  42  65  89 128 171 217 271 317 382
#     4  11  22  43  64  90 134 170 217 267 318 387
#
# _framework density 21.446470999999999
#
# number of rings (size 3 to 8) (size 9 to 14) (size 15 to 20)
#    0.000    0.571    8.571    2.143    4.000    0.000 
#    0.000    0.000    0.000    0.857    0.000    0.000 
#    0.000    0.000    0.000    0.000    0.000    0.000 
#
# Total GULP energy -156042.211777 kJ/mol
# GULP energy per Si atom -5572.936135 kJ/mol
# Density = 2.139766 g / cm^3
# Si number density = 21.446471 Si / 1000 Ang^3
#
#
#
# Elastic Constant Matrix: (Units=GPa)
#
#
# Indices 1 2 3 4 5 6 
#
# 1 104.2912 20.1145 16.2767 0.0000 1.8711 0.0000
# 2 20.1145 86.0640 2.2513 0.0000 6.8351 0.0000
# 3 16.2767 2.2513 51.9669 0.0000 5.9894 0.0000
# 4 0.0000 0.0000 0.0000 -26.8013 0.0000 -82.2122
# 5 1.8711 6.8351 5.9894 0.0000 30.3336 0.0000
# 6 0.0000 0.0000 0.0000 -82.2122 0.0000 -151.4629
#
#
#
# Elastic Compliance Matrix: (Units=1/GPa)
#
#
# Indices 1 2 3 4 5 6 
#
# 1 0.010556 -0.002425 -0.003263 0.000000 0.000540 0.000000
# 2 -0.002425 0.012390 0.000539 0.000000 -0.002749 0.000000
# 3 -0.003263 0.000539 0.020704 0.000000 -0.004008 0.000000
# 4 0.000000 0.000000 0.000000 0.056109 0.000000 -0.030455
# 5 0.000540 -0.002749 -0.004008 0.000000 0.034344 0.000000
# 6 0.000000 0.000000 0.000000 -0.030455 0.000000 0.009928
#
#
# Mechanical properties :
#
#
# Convention : Reuss Voigt Hill
#
# Bulk Modulus (GPa) = 29.98253 35.51190 32.74721
# Shear Modulus (GPa) = 30.22134 -16.00749 7.10693
#
# Velocity S-wave (km/s) = 3.75794 -2.73498 1.82236
# Velocity P-wave (km/s) = 5.73062 2.57310 4.44189
#
# Compressibility (1/GPa) = 0.03335276
#
# Stress axis : x y z
#
# Youngs Moduli (GPa) = 94.73476 80.70950 48.30041
#
# Poissons Ratio (x) = 0.19568 0.15762
# Poissons Ratio (y) = 0.22969 -0.02606
# Poissons Ratio (z) = 0.30915 -0.04354
#
# Static dielectric constant tensor:
#      x y z
#    x 1.605490 0.000000 0.232930 
#    y 0.000000 1.789280 0.000000 
#    z 0.232930 0.000000 1.645730 
# 
# From -- ./inp_files/63219.got.cif
#   From: 2010.05.17/outbox.cif.g08.bks.cpg/sg15_32_cif.got.tgz:63219.got - 2010.06.03 18:47:42.
