data_PCOD9278712
_publ_section_title
;
Structure prediction by ZEFSAII (Michael W. Deem and Ramdas Pophale) SiO2 
 PCOD9278712
Probable space group: C 2/C
;
_chemical_formula_sum "Si O2"
_cell_formula_units_Z 32
_cell_length_a 20.065439
_cell_length_b 8.743828
_cell_length_c 12.928682
_cell_angle_alpha 90.000000
_cell_angle_beta 151.032981
_cell_angle_gamma 90.000000
_cell_volume 1098.561693
_symmetry_space_group_name_H-M "C 2/C"
_symmetry_group_IT_number 15
_symmetry_cell_setting 'monoclinic'
loop_
_space_group_symop_operation_xyz
x,y,z
-x,y,1/2-z
-x,-y,-z
x,-y,1/2+z
1/2+x,1/2+y,z
1/2-x,1/2+y,1/2-z
1/2-x,1/2-y,-z
1/2+x,1/2-y,1/2+z
loop_
_atom_site_type_symbol
_atom_site_label
_atom_site_fract_x
_atom_site_fract_y
_atom_site_fract_z
Si Si1 0.500000 0.469396 0.750000
Si Si2 0.482716 0.013427 0.337117
Si Si3 0.250000 0.750000 0.000000
Si Si4 0.203385 0.740346 0.136518
Si Si5 0.129913 0.191883 0.759426
O O1 0.374531 0.350484 0.556749
O O2 0.542047 0.569245 0.707603
O O3 0.500000 0.091264 0.250000
O O4 0.612927 0.908170 0.531860
O O5 0.464667 0.157698 0.384065
O O6 0.352695 0.902960 0.147077
O O7 0.183353 0.809960 0.792567
O O8 0.199384 0.827766 0.239852
O O9 0.250000 0.250000 0.000000
#
# Coordination Sequence:
#
# PCOD9278712 Si02
#       5
#     4   8   4   8   8
#     4  12  24  50  66 104 144 190 232 296 352 416
#     4  10  21  46  73  97 136 181 234 285 352 418
#     4  10  20  44  74 100 130 180 236 284 352 412
#     4  11  24  47  73 100 141 190 235 289 357 419
#     4  12  27  45  70 109 142 180 240 293 355 419
#
# _framework density 29.128996999999998
#
# number of rings (size 3 to 8) (size 9 to 14) (size 15 to 20)
#    0.000    1.000    5.000    3.000    0.000    2.000 
#   27.000    0.000    0.000    0.000    0.000    0.000 
#    0.000    0.000    0.000    0.000    0.000    0.000 
#
# Total GULP energy -89073.999089 kJ/mol
# GULP energy per Si atom -5567.124943 kJ/mol
# Density = 2.906270 g / cm^3
# Si number density = 29.128997 Si / 1000 Ang^3
#
#
#
# Elastic Constant Matrix: (Units=GPa)
#
#
# Indices 1 2 3 4 5 6 
#
# 1 227.0472 61.9251 24.3063 0.0000 -52.3148 0.0000
# 2 61.9251 180.5940 40.8134 0.0000 6.9320 0.0000
# 3 24.3063 40.8134 67.7303 0.0000 -14.0622 0.0000
# 4 0.0000 0.0000 0.0000 39.5925 0.0000 21.7426
# 5 -52.3148 6.9320 -14.0622 0.0000 56.7817 0.0000
# 6 0.0000 0.0000 0.0000 21.7426 0.0000 52.1595
#
#
#
# Elastic Compliance Matrix: (Units=1/GPa)
#
#
# Indices 1 2 3 4 5 6 
#
# 1 0.006559 -0.002631 0.000583 0.000000 0.006509 0.000000
# 2 -0.002631 0.007652 -0.004600 0.000000 -0.004497 0.000000
# 3 0.000583 -0.004600 0.018507 0.000000 0.005682 0.000000
# 4 0.000000 0.000000 0.000000 0.032756 0.000000 -0.013654
# 5 0.006509 -0.004497 0.005682 0.000000 0.025564 0.000000
# 6 0.000000 0.000000 0.000000 -0.013654 0.000000 0.024864
#
#
# Mechanical properties :
#
#
# Convention : Reuss Voigt Hill
#
# Bulk Modulus (GPa) = 51.49035 81.05121 66.27078
# Shear Modulus (GPa) = 36.85367 52.92852 44.89110
#
# Velocity S-wave (km/s) = 3.56081 4.26730 3.92996
# Velocity P-wave (km/s) = 5.88395 7.22254 6.58733
#
# Compressibility (1/GPa) = 0.01942111
#
# Stress axis : x y z
#
# Youngs Moduli (GPa) = 152.45896 130.69170 54.03317
#
# Poissons Ratio (x) = 0.34380 -0.03148
# Poissons Ratio (y) = 0.40106 0.24857
# Poissons Ratio (z) = -0.08883 0.60123
#
# Static dielectric constant tensor:
#      x y z
#    x -0.158740 0.000000 -0.562420 
#    y 0.000000 4.316640 0.000000 
#    z -0.562420 0.000000 2.280570 
# 
# From -- ./inp_files/158620.got.cif
#   From: 2010.05.17/outbox.cif.g08.bks.cpg/sg15_80_cif.got.tgz:158620.got - 2010.06.03 18:47:42.
