data_PCOD9278590
_publ_section_title
;
Structure prediction by ZEFSAII (Michael W. Deem and Ramdas Pophale) SiO2 
 PCOD9278590
Probable space group: C 2/C
;
_chemical_formula_sum "Si O2"
_cell_formula_units_Z 44
_cell_length_a 21.033763
_cell_length_b 9.749785
_cell_length_c 10.683012
_cell_angle_alpha 90.000000
_cell_angle_beta 68.363028
_cell_angle_gamma 90.000000
_cell_volume 2036.447551
_symmetry_space_group_name_H-M "C 2/C"
_symmetry_group_IT_number 15
_symmetry_cell_setting 'monoclinic'
loop_
_space_group_symop_operation_xyz
x,y,z
-x,y,1/2-z
-x,-y,-z
x,-y,1/2+z
1/2+x,1/2+y,z
1/2-x,1/2+y,1/2-z
1/2-x,1/2-y,-z
1/2+x,1/2-y,1/2+z
loop_
_atom_site_type_symbol
_atom_site_label
_atom_site_fract_x
_atom_site_fract_y
_atom_site_fract_z
Si Si1 0.102824 0.282614 0.356693
Si Si2 0.624071 0.513973 0.954977
Si Si3 0.000000 0.626324 0.750000
Si Si4 0.120386 0.580970 0.095376
Si Si5 0.270907 0.120635 0.902229
Si Si6 0.421580 0.369041 0.268699
O O1 0.030889 0.279890 0.336394
O O2 0.098926 0.392059 0.469467
O O3 0.169466 0.323639 0.230025
O O4 0.117185 0.138663 0.409116
O O5 0.701480 0.567158 0.891548
O O6 0.584133 0.598988 0.875557
O O7 0.603713 0.492427 0.117782
O O8 0.936369 0.525846 0.817202
O O9 0.193344 0.506272 0.051850
O O10 0.117283 0.725924 0.171035
O O11 0.250000 0.250000 0.000000
O O12 0.500000 0.345533 0.250000
#
# Coordination Sequence:
#
# PCOD9278590 Si02
#       6
#     8   8   4   8   8   8
#     4  10  24  40  69  97 136 183 227 291 339 417
#     4  11  26  43  71 103 142 182 230 284 353 410
#     4  10  20  44  64 102 134 174 236 282 346 400
#     4  10  23  43  72  96 135 183 233 285 339 416
#     4  11  26  44  67 101 138 181 232 284 348 407
#     4  11  24  46  70 103 140 184 231 288 346 412
#
# _framework density 21.606252000000001
#
# number of rings (size 3 to 8) (size 9 to 14) (size 15 to 20)
#    0.000    1.455    0.909    2.182    8.909    2.909 
#   13.091    0.000    0.000    0.000    0.000    0.000 
#    0.000    0.000    0.000    0.000    0.000    0.000 
#
# Total GULP energy -122762.114891 kJ/mol
# GULP energy per Si atom -5580.096131 kJ/mol
# Density = 2.155708 g / cm^3
# Si number density = 21.606252 Si / 1000 Ang^3
#
#
#
# Elastic Constant Matrix: (Units=GPa)
#
#
# Indices 1 2 3 4 5 6 
#
# 1 101.1043 40.3045 6.6171 0.0000 27.8405 0.0000
# 2 40.3045 65.3397 14.1851 0.0000 4.5546 0.0000
# 3 6.6171 14.1851 55.2118 0.0000 2.2426 0.0000
# 4 0.0000 0.0000 0.0000 15.5165 0.0000 9.6881
# 5 27.8405 4.5546 2.2426 0.0000 29.5860 0.0000
# 6 0.0000 0.0000 0.0000 9.6881 0.0000 20.2923
#
#
#
# Elastic Compliance Matrix: (Units=1/GPa)
#
#
# Indices 1 2 3 4 5 6 
#
# 1 0.018302 -0.010440 0.001126 0.000000 -0.015701 0.000000
# 2 -0.010440 0.022306 -0.004754 0.000000 0.006750 0.000000
# 3 0.001126 -0.004754 0.019271 0.000000 -0.001789 0.000000
# 4 0.000000 0.000000 0.000000 0.091818 0.000000 -0.043836
# 5 -0.015701 0.006750 -0.001789 0.000000 0.047671 0.000000
# 6 0.000000 0.000000 0.000000 -0.043836 0.000000 0.070208
#
#
# Mechanical properties :
#
#
# Convention : Reuss Voigt Hill
#
# Bulk Modulus (GPa) = 31.50124 38.20770 34.85447
# Shear Modulus (GPa) = 16.21842 23.78224 20.00033
#
# Velocity S-wave (km/s) = 2.74274 3.32130 3.04579
# Velocity P-wave (km/s) = 4.96402 5.69474 5.34189
#
# Compressibility (1/GPa) = 0.03174478
#
# Stress axis : x y z
#
# Youngs Moduli (GPa) = 54.63828 44.83129 51.89126
#
# Poissons Ratio (x) = 0.46803 -0.05845
# Poissons Ratio (y) = 0.57041 0.24668
# Poissons Ratio (z) = -0.06154 0.21312
#
# Static dielectric constant tensor:
#      x y z
#    x 1.741350 0.000000 0.023530 
#    y 0.000000 1.655600 0.000000 
#    z 0.023530 0.000000 1.924740 
# 
# From -- ./inp_files/110064.got.cif
#   From: 2010.05.17/outbox.cif.g08.bks.cpg/sg15_56_cif.got.tgz:110064.got - 2010.06.03 18:47:42.
