data_PCOD9278137
_publ_section_title
;
Structure prediction by ZEFSAII (Michael W. Deem and Ramdas Pophale) SiO2 
 PCOD9278137
Probable space group: C 2/C
;
_chemical_formula_sum "Si O2"
_cell_formula_units_Z 64
_cell_length_a 12.279990
_cell_length_b 15.201857
_cell_length_c 25.999571
_cell_angle_alpha 90.000000
_cell_angle_beta 39.253129
_cell_angle_gamma 90.000000
_cell_volume 3071.081609
_symmetry_space_group_name_H-M "C 2/C"
_symmetry_group_IT_number 15
_symmetry_cell_setting 'monoclinic'
loop_
_space_group_symop_operation_xyz
x,y,z
-x,y,1/2-z
-x,-y,-z
x,-y,1/2+z
1/2+x,1/2+y,z
1/2-x,1/2+y,1/2-z
1/2-x,1/2-y,-z
1/2+x,1/2-y,1/2+z
loop_
_atom_site_type_symbol
_atom_site_label
_atom_site_fract_x
_atom_site_fract_y
_atom_site_fract_z
Si Si1 0.715800 0.751396 0.893481
Si Si2 0.184694 0.532676 0.153425
Si Si3 0.423721 0.216696 0.911157
Si Si4 0.479903 0.037660 0.637555
Si Si5 0.606043 0.377320 0.158958
Si Si6 0.343506 0.958559 0.590310
Si Si7 0.363992 0.281234 0.582043
Si Si8 0.184227 0.887413 0.319842
O O1 0.881450 0.722057 0.866487
O O2 0.703743 0.856978 0.900268
O O3 0.721247 0.703023 0.836635
O O4 0.540180 0.717258 0.984970
O O5 0.132843 0.494926 0.117180
O O6 0.265782 0.627439 0.115746
O O7 0.305282 0.465306 0.141124
O O8 0.000000 0.539691 0.250000
O O9 0.448572 0.117883 0.921683
O O10 0.582193 0.267828 0.877806
O O11 0.250000 0.250000 0.000000
O O12 0.333192 0.083398 0.725749
O O13 0.399111 0.966881 0.629681
O O14 0.500000 0.358619 0.250000
O O15 0.689473 0.473452 0.135765
O O16 0.750202 0.300976 0.104416
O O17 0.486478 0.378458 0.152168
O O18 0.500000 0.000000 0.500000
#
# Coordination Sequence:
#
# PCOD9278137 Si02
#       8
#     8   8   8   8   8   8   8   8
#     4  11  25  43  68 100 135 182 226 277 339 405
#     4  10  24  43  69  97 131 179 224 274 344 403
#     4  10  20  42  66  94 133 173 221 270 334 398
#     4  11  22  47  68  91 139 177 219 292 332 399
#     4  12  24  45  67  98 139 175 226 290 342 408
#     4  12  24  46  71 100 135 183 227 281 350 407
#     4  11  23  43  67 101 134 177 223 275 345 401
#     4  11  25  45  66  99 137 174 232 280 339 409
#
# _framework density 20.839562999999998
#
# number of rings (size 3 to 8) (size 9 to 14) (size 15 to 20)
#    0.000    1.000    5.000    1.125    3.500    2.000 
#    4.500    0.000    0.000    0.000    0.000    0.000 
#    0.000    0.000    0.000    0.000    0.000    0.000 
#
# Total GULP energy -178715.806871 kJ/mol
# GULP energy per Si atom -5584.868965 kJ/mol
# Density = 2.079213 g / cm^3
# Si number density = 20.839563 Si / 1000 Ang^3
#
#
#
# Elastic Constant Matrix: (Units=GPa)
#
#
# Indices 1 2 3 4 5 6 
#
# 1 162.2324 30.4650 23.8290 0.0004 -3.4223 0.0005
# 2 30.4650 111.3528 13.9991 0.0002 -6.5377 0.0000
# 3 23.8290 13.9991 39.8583 -0.0067 -1.6990 -0.0103
# 4 0.0004 0.0002 -0.0067 -63.1040 0.0003 -142.9337
# 5 -3.4223 -6.5377 -1.6990 0.0003 25.7688 0.0006
# 6 0.0005 0.0000 -0.0103 -142.9337 0.0006 -161.3953
#
#
#
# Elastic Compliance Matrix: (Units=1/GPa)
#
#
# Indices 1 2 3 4 5 6 
#
# 1 0.006976 -0.001430 -0.003655 0.000000 0.000323 0.000000
# 2 -0.001430 0.009811 -0.002500 0.000000 0.002134 0.000000
# 3 -0.003655 -0.002500 0.028183 -0.000001 0.000739 -0.000001
# 4 0.000000 0.000000 -0.000001 0.015753 0.000000 -0.013951
# 5 0.000323 0.002134 0.000739 0.000000 0.039440 0.000000
# 6 0.000000 0.000000 -0.000001 -0.013951 0.000000 0.006159
#
#
# Mechanical properties :
#
#
# Convention : Reuss Voigt Hill
#
# Bulk Modulus (GPa) = 33.55554 50.00329 41.77942
# Shear Modulus (GPa) = 38.04424 -23.40273 7.32076
#
# Velocity S-wave (km/s) = 4.27731 -3.35475 1.87631
# Velocity P-wave (km/s) = 6.36637 3.00678 4.97852
#
# Compressibility (1/GPa) = 0.02980134
#
# Stress axis : x y z
#
# Youngs Moduli (GPa) = 143.34516 101.92267 35.48206
#
# Poissons Ratio (x) = 0.14577 0.12967
# Poissons Ratio (y) = 0.20501 0.08870
# Poissons Ratio (z) = 0.52387 0.25480
#
# Static dielectric constant tensor:
#      x y z
#    x 1.810910 0.000000 0.048190 
#    y 0.000000 1.765710 0.000000 
#    z 0.048190 0.000000 1.806650 
# 
# From -- ./inp_files/293067.got.cif
#   From: 2010.05.17/outbox.cif.g08.bks.cpg/sg15_147_cif.got.tgz:293067.got - 2010.06.03 18:47:42.
