data_PCOD9278059
_publ_section_title
;
Structure prediction by ZEFSAII (Michael W. Deem and Ramdas Pophale) SiO2 
 PCOD9278059
Probable space group: C 2/C
;
_chemical_formula_sum "Si O2"
_cell_formula_units_Z 48
_cell_length_a 8.758495
_cell_length_b 10.873943
_cell_length_c 21.819855
_cell_angle_alpha 90.000000
_cell_angle_beta 89.963041
_cell_angle_gamma 90.000000
_cell_volume 2078.108929
_symmetry_space_group_name_H-M "C 2/C"
_symmetry_group_IT_number 15
_symmetry_cell_setting 'monoclinic'
loop_
_space_group_symop_operation_xyz
x,y,z
-x,y,1/2-z
-x,-y,-z
x,-y,1/2+z
1/2+x,1/2+y,z
1/2-x,1/2+y,1/2-z
1/2-x,1/2-y,-z
1/2+x,1/2-y,1/2+z
loop_
_atom_site_type_symbol
_atom_site_label
_atom_site_fract_x
_atom_site_fract_y
_atom_site_fract_z
Si Si1 0.138551 0.403142 0.499594
Si Si2 0.261826 0.468313 0.114465
Si Si3 0.983437 0.743600 0.909025
Si Si4 0.926368 0.013609 0.932713
Si Si5 0.318811 0.080394 0.254267
Si Si6 0.344592 0.174491 0.711835
O O1 0.219690 0.425396 0.564538
O O2 0.059879 0.278591 0.476099
O O3 0.261621 0.432511 0.446817
O O4 0.000000 0.500000 0.500000
O O5 0.437368 0.425951 0.106456
O O6 0.227591 0.523017 0.180331
O O7 0.148917 0.356533 0.100232
O O8 0.103998 0.721988 0.854641
O O9 0.912680 0.877450 0.905573
O O10 0.000000 0.000000 0.000000
O O11 0.500000 0.099858 0.250000
O O12 0.244718 0.216116 0.253146
O O13 0.275494 0.964484 0.209734
O O14 0.500000 0.158418 0.750000
#
# Coordination Sequence:
#
# PCOD9278059 Si02
#       6
#     8   8   8   8   8   8
#     4   9  22  39  65  96 127 167 210 263 327 399
#     4  10  20  42  65  92 133 169 217 269 328 390
#     4  11  21  43  66  91 133 176 210 275 334 392
#     4  10  22  39  63  96 130 166 214 267 322 399
#     4  11  23  46  66  98 130 177 224 280 329 384
#     4  11  24  44  70  92 136 175 228 279 331 393
#
# _framework density 23.097923000000002
#
# number of rings (size 3 to 8) (size 9 to 14) (size 15 to 20)
#    0.000    1.667    5.000    0.000    0.000   10.667 
#    3.000    3.333    0.000    0.000    0.000    0.000 
#    0.000    0.000    0.000    0.000    0.000    0.000 
#
# Total GULP energy -133977.338380 kJ/mol
# GULP energy per Si atom -5582.389099 kJ/mol
# Density = 2.304535 g / cm^3
# Si number density = 23.097923 Si / 1000 Ang^3
#
#
#
# Elastic Constant Matrix: (Units=GPa)
#
#
# Indices 1 2 3 4 5 6 
#
# 1 92.4404 38.5108 19.1532 0.0000 -38.5606 0.0000
# 2 38.5108 138.5506 -4.3327 0.0000 -12.2570 0.0000
# 3 19.1532 -4.3327 72.0271 0.0000 -15.9777 0.0000
# 4 0.0000 0.0000 0.0000 35.7256 0.0000 -8.0884
# 5 -38.5606 -12.2570 -15.9777 0.0000 41.2816 0.0000
# 6 0.0000 0.0000 0.0000 -8.0884 0.0000 31.9976
#
#
#
# Elastic Compliance Matrix: (Units=1/GPa)
#
#
# Indices 1 2 3 4 5 6 
#
# 1 0.019829 -0.004101 -0.001839 0.000000 0.016592 0.000000
# 2 -0.004101 0.008330 0.001412 0.000000 -0.000811 0.000000
# 3 -0.001839 0.001412 0.015500 0.000000 0.004701 0.000000
# 4 0.000000 0.000000 0.000000 0.029690 0.000000 0.007505
# 5 0.016592 -0.000811 0.004701 0.000000 0.041301 0.000000
# 6 0.000000 0.000000 0.000000 0.007505 0.000000 0.033149
#
#
# Mechanical properties :
#
#
# Convention : Reuss Voigt Hill
#
# Bulk Modulus (GPa) = 28.89974 45.52008 37.20991
# Shear Modulus (GPa) = 29.69292 38.44675 34.06984
#
# Velocity S-wave (km/s) = 3.58931 4.08427 3.84476
# Velocity P-wave (km/s) = 5.45129 6.48011 5.98784
#
# Compressibility (1/GPa) = 0.03460238
#
# Stress axis : x y z
#
# Youngs Moduli (GPa) = 50.43215 120.04970 64.51476
#
# Poissons Ratio (x) = 0.49234 0.11863
# Poissons Ratio (y) = 0.20683 -0.09107
# Poissons Ratio (z) = 0.09274 -0.16947
#
# Static dielectric constant tensor:
#      x y z
#    x 1.917650 0.000000 0.041490 
#    y 0.000000 1.905710 0.000000 
#    z 0.041490 0.000000 1.928280 
# 
# From -- ./inp_files/263069.got.cif
#   From: 2010.05.17/outbox.cif.g08.bks.cpg/sg15_132_cif.got.tgz:263069.got - 2010.06.03 18:47:42.
