data_PCOD9278260
_publ_section_title
;
Structure prediction by ZEFSAII (Michael W. Deem and Ramdas Pophale) SiO2 
 PCOD9278260
Probable space group: C 2/C
;
_chemical_formula_sum "Si O2"
_cell_formula_units_Z 44
_cell_length_a 13.840964
_cell_length_b 12.250475
_cell_length_c 13.950162
_cell_angle_alpha 90.000000
_cell_angle_beta 62.625769
_cell_angle_gamma 90.000000
_cell_volume 2100.498504
_symmetry_space_group_name_H-M "C 2/C"
_symmetry_group_IT_number 15
_symmetry_cell_setting 'monoclinic'
loop_
_space_group_symop_operation_xyz
x,y,z
-x,y,1/2-z
-x,-y,-z
x,-y,1/2+z
1/2+x,1/2+y,z
1/2-x,1/2+y,1/2-z
1/2-x,1/2-y,-z
1/2+x,1/2-y,1/2+z
loop_
_atom_site_type_symbol
_atom_site_label
_atom_site_fract_x
_atom_site_fract_y
_atom_site_fract_z
Si Si1 0.638136 0.755048 0.610549
Si Si2 0.500000 0.570761 0.750000
Si Si3 0.891941 0.006079 0.612030
Si Si4 0.195301 0.226668 0.319217
Si Si5 0.481477 0.127991 0.490896
Si Si6 0.203340 0.234435 0.915364
O O1 0.750000 0.750000 0.500000
O O2 0.567543 0.646049 0.645319
O O3 0.681364 0.758740 0.699058
O O4 0.565631 0.847718 0.594398
O O5 0.420407 0.510706 0.712712
O O6 0.825843 0.110435 0.603383
O O7 0.834483 0.890684 0.625593
O O8 0.000000 0.000000 0.500000
O O9 0.110831 0.316747 0.398012
O O10 0.204825 0.227696 0.201404
O O11 0.593361 0.194033 0.455142
O O12 0.500000 0.000000 0.500000
O O13 0.250000 0.250000 0.000000
#
# Coordination Sequence:
#
# PCOD9278260 Si02
#       6
#     8   4   8   8   8   8
#     4  10  20  42  68  98 132 173 230 273 333 415
#     4  12  22  44  74  98 136 182 232 284 332 408
#     4  12  25  46  72 101 138 182 235 289 336 410
#     4  11  25  45  71 102 137 186 228 276 356 407
#     4  11  25  46  69 104 141 175 230 292 342 410
#     4  12  28  47  66 105 143 180 230 285 352 406
#
# _framework density 20.947410000000001
#
# number of rings (size 3 to 8) (size 9 to 14) (size 15 to 20)
#    0.000    0.727    5.455    1.091    7.636    0.727 
#    0.000    1.818    0.000    0.000    0.000    0.000 
#    0.000    0.000    0.000    0.000    0.000    0.000 
#
# Total GULP energy -122786.959357 kJ/mol
# GULP energy per Si atom -5581.225425 kJ/mol
# Density = 2.089973 g / cm^3
# Si number density = 20.947410 Si / 1000 Ang^3
#
#
#
# Elastic Constant Matrix: (Units=GPa)
#
#
# Indices 1 2 3 4 5 6 
#
# 1 94.8670 61.3896 31.0264 0.0000 8.0623 0.0000
# 2 61.3896 156.9510 33.9389 0.0000 -1.1228 0.0000
# 3 31.0264 33.9389 116.3252 0.0000 8.4154 0.0000
# 4 0.0000 0.0000 0.0000 30.6488 0.0000 4.6907
# 5 8.0623 -1.1228 8.4154 0.0000 42.6429 0.0000
# 6 0.0000 0.0000 0.0000 4.6907 0.0000 28.1437
#
#
#
# Elastic Compliance Matrix: (Units=1/GPa)
#
#
# Indices 1 2 3 4 5 6 
#
# 1 0.014978 -0.005393 -0.002238 0.000000 -0.002532 0.000000
# 2 -0.005393 0.008756 -0.001224 0.000000 0.001492 0.000000
# 3 -0.002238 -0.001224 0.009660 0.000000 -0.001515 0.000000
# 4 0.000000 0.000000 0.000000 0.033482 0.000000 -0.005580
# 5 -0.002532 0.001492 -0.001515 0.000000 0.024268 0.000000
# 6 0.000000 0.000000 0.000000 -0.005580 0.000000 0.036462
#
#
# Mechanical properties :
#
#
# Convention : Reuss Voigt Hill
#
# Bulk Modulus (GPa) = 63.75939 68.98367 66.37153
# Shear Modulus (GPa) = 33.21284 36.40630 34.80957
#
# Velocity S-wave (km/s) = 3.98620 4.17344 4.08089
# Velocity P-wave (km/s) = 7.18959 7.49845 7.34565
#
# Compressibility (1/GPa) = 0.01568396
#
# Stress axis : x y z
#
# Youngs Moduli (GPa) = 66.76502 114.20685 103.51483
#
# Poissons Ratio (x) = 0.61586 0.23171
# Poissons Ratio (y) = 0.36003 0.12673
# Poissons Ratio (z) = 0.14945 0.13982
#
# Static dielectric constant tensor:
#      x y z
#    x 1.371380 0.000000 0.020950 
#    y 0.000000 1.381720 0.000000 
#    z 0.020950 0.000000 1.844900 
# 
# From -- ./inp_files/151746.got.cif
#   From: 2010.05.17/outbox.cif.g08.bks.cpg/sg15_76_cif.got.tgz:151746.got - 2010.06.03 18:47:42.
