data_PCOD9278060
_publ_section_title
;
Structure prediction by ZEFSAII (Michael W. Deem and Ramdas Pophale) SiO2 
 PCOD9278060
Probable space group: C 2/C
;
_chemical_formula_sum "Si O2"
_cell_formula_units_Z 64
_cell_length_a 11.267067
_cell_length_b 16.361382
_cell_length_c 20.168925
_cell_angle_alpha 90.000000
_cell_angle_beta 60.138373
_cell_angle_gamma 90.000000
_cell_volume 3224.394044
_symmetry_space_group_name_H-M "C 2/C"
_symmetry_group_IT_number 15
_symmetry_cell_setting 'monoclinic'
loop_
_space_group_symop_operation_xyz
x,y,z
-x,y,1/2-z
-x,-y,-z
x,-y,1/2+z
1/2+x,1/2+y,z
1/2-x,1/2+y,1/2-z
1/2-x,1/2-y,-z
1/2+x,1/2-y,1/2+z
loop_
_atom_site_type_symbol
_atom_site_label
_atom_site_fract_x
_atom_site_fract_y
_atom_site_fract_z
Si Si1 0.341232 0.490895 0.960895
Si Si2 0.651779 0.303803 0.832520
Si Si3 0.419186 0.393248 0.068081
Si Si4 0.448667 0.068472 0.462455
Si Si5 0.397287 0.366926 0.840794
Si Si6 0.725203 0.268043 0.315454
Si Si7 0.414143 0.870272 0.706883
Si Si8 0.871546 0.252977 0.018993
O O1 0.482244 0.541705 0.923868
O O2 0.327451 0.444194 0.894670
O O3 0.355058 0.431139 0.019993
O O4 0.208970 0.546399 0.009632
O O5 0.498286 0.334098 0.869812
O O6 0.669020 0.231434 0.774530
O O7 0.755459 0.373688 0.775848
O O8 0.691009 0.271374 0.892700
O O9 0.304428 0.354890 0.146521
O O10 0.515770 0.316188 0.025242
O O11 0.533771 0.076229 0.369543
O O12 0.442258 0.158277 0.497411
O O13 0.500000 0.000000 0.500000
O O14 0.500000 0.383417 0.750000
O O15 0.290125 0.297628 0.848506
O O16 0.591643 0.223014 0.320720
O O17 0.500000 0.879059 0.750000
O O18 0.750000 0.250000 0.000000
#
# Coordination Sequence:
#
# PCOD9278060 Si02
#       8
#     8   8   8   8   8   8   8   8
#     4  11  25  39  62  97 136 168 213 269 339 382
#     4   9  21  38  67  95 123 169 224 265 327 387
#     4  11  23  41  63  96 128 171 213 271 321 389
#     4  12  26  43  64 102 137 170 227 278 333 393
#     4  10  20  42  65  93 126 172 213 264 329 397
#     4   9  21  38  66  92 120 167 223 258 314 394
#     4  10  21  38  66  94 127 174 217 270 332 392
#     4  12  21  41  68  92 128 172 225 268 317 399
#
# _framework density 19.848690999999999
#
# number of rings (size 3 to 8) (size 9 to 14) (size 15 to 20)
#    0.750    0.750    3.750    1.500    0.000    1.500 
#    2.250    1.250    0.000    0.000    0.000    0.000 
#    0.000    0.000    0.000    0.000    0.000    0.000 
#
# Total GULP energy -178277.836928 kJ/mol
# GULP energy per Si atom -5571.182404 kJ/mol
# Density = 1.980351 g / cm^3
# Si number density = 19.848691 Si / 1000 Ang^3
#
#
#
# Elastic Constant Matrix: (Units=GPa)
#
#
# Indices 1 2 3 4 5 6 
#
# 1 64.1757 2.1599 21.7891 0.0000 13.0905 0.0000
# 2 2.1599 55.0915 27.5710 0.0000 8.3851 0.0000
# 3 21.7891 27.5710 97.2634 0.0000 10.8898 0.0000
# 4 0.0000 0.0000 0.0000 27.2113 0.0000 -5.0668
# 5 13.0905 8.3851 10.8898 0.0000 28.9458 0.0000
# 6 0.0000 0.0000 0.0000 -5.0668 0.0000 29.1590
#
#
#
# Elastic Compliance Matrix: (Units=1/GPa)
#
#
# Indices 1 2 3 4 5 6 
#
# 1 0.018379 0.002404 -0.003957 0.000000 -0.007519 0.000000
# 2 0.002404 0.021930 -0.006182 0.000000 -0.005114 0.000000
# 3 -0.003957 -0.006182 0.013070 0.000000 -0.001337 0.000000
# 4 0.000000 0.000000 0.000000 0.037978 0.000000 0.006599
# 5 -0.007519 -0.005114 -0.001337 0.000000 0.039932 0.000000
# 6 0.000000 0.000000 0.000000 0.006599 0.000000 0.035441
#
#
# Mechanical properties :
#
#
# Convention : Reuss Voigt Hill
#
# Bulk Modulus (GPa) = 26.37955 35.50786 30.94371
# Shear Modulus (GPa) = 25.66256 28.06392 26.86324
#
# Velocity S-wave (km/s) = 3.59961 3.76426 3.68285
# Velocity P-wave (km/s) = 5.53131 6.06803 5.80587
#
# Compressibility (1/GPa) = 0.03790815
#
# Stress axis : x y z
#
# Youngs Moduli (GPa) = 54.41132 45.60009 76.51144
#
# Poissons Ratio (x) = -0.10963 0.30274
# Poissons Ratio (y) = -0.13081 0.47302
# Poissons Ratio (z) = 0.21530 0.28192
#
# Static dielectric constant tensor:
#      x y z
#    x 1.737390 0.000000 -0.034140 
#    y 0.000000 1.731290 0.000000 
#    z -0.034140 0.000000 1.791420 
# 
# From -- ./inp_files/238730.got.cif
#   From: 2010.05.17/outbox.cif.g08.bks.cpg/sg15_120_cif.got.tgz:238730.got - 2010.06.03 18:47:42.
