data_PCOD9278039
_publ_section_title
;
Structure prediction by ZEFSAII (Michael W. Deem and Ramdas Pophale) SiO2 
 PCOD9278039
Probable space group: C 2/C
;
_chemical_formula_sum "Si O2"
_cell_formula_units_Z 36
_cell_length_a 8.572313
_cell_length_b 21.780443
_cell_length_c 15.027687
_cell_angle_alpha 90.000000
_cell_angle_beta 34.690123
_cell_angle_gamma 90.000000
_cell_volume 1596.887391
_symmetry_space_group_name_H-M "C 2/C"
_symmetry_group_IT_number 15
_symmetry_cell_setting 'monoclinic'
loop_
_space_group_symop_operation_xyz
x,y,z
-x,y,1/2-z
-x,-y,-z
x,-y,1/2+z
1/2+x,1/2+y,z
1/2-x,1/2+y,1/2-z
1/2-x,1/2-y,-z
1/2+x,1/2-y,1/2+z
loop_
_atom_site_type_symbol
_atom_site_label
_atom_site_fract_x
_atom_site_fract_y
_atom_site_fract_z
Si Si1 0.460598 0.699136 0.008905
Si Si2 0.831386 0.593530 0.748941
Si Si3 0.710184 0.902261 0.918723
Si Si4 0.909681 0.315042 0.653622
Si Si5 0.000000 0.978078 0.250000
O O1 0.352922 0.690064 0.159271
O O2 0.176703 0.697921 0.087017
O O3 0.651292 0.645428 0.880872
O O4 0.596513 0.764311 0.921481
O O5 0.643536 0.557438 0.764582
O O6 0.000000 0.559910 0.750000
O O7 0.066504 0.620562 0.574256
O O8 0.533883 0.881461 0.917097
O O9 0.000000 0.875028 0.750000
O O10 0.777971 0.974077 0.894895
#
# Coordination Sequence:
#
# PCOD9278039 Si02
#       5
#     8   8   8   8   4
#     4  10  22  37  68 100 135 177 220 277 336 402
#     4  12  24  43  68 102 131 177 229 273 333 398
#     4  10  23  42  64  92 133 176 220 276 329 387
#     4  10  20  42  64  99 138 176 220 274 340 398
#     4  10  26  46  68  94 136 184 220 278 334 386
#
# _framework density 22.543856999999999
#
# number of rings (size 3 to 8) (size 9 to 14) (size 15 to 20)
#    0.667    0.889    0.000    4.667    0.000    5.333 
#    4.000    4.444    0.000    0.000    0.000    0.000 
#    0.000    0.000    0.000    0.000    0.000    0.000 
#
# Total GULP energy -100257.420732 kJ/mol
# GULP energy per Si atom -5569.856707 kJ/mol
# Density = 2.249255 g / cm^3
# Si number density = 22.543857 Si / 1000 Ang^3
#
#
#
# Elastic Constant Matrix: (Units=GPa)
#
#
# Indices 1 2 3 4 5 6 
#
# 1 123.1470 57.9292 54.8062 0.0002 25.6257 0.0000
# 2 57.9292 90.2931 52.0712 0.0002 9.3848 0.0001
# 3 54.8062 52.0712 201.8568 -0.0017 18.0629 0.0022
# 4 0.0002 0.0002 -0.0017 29.5151 0.0000 -11.2262
# 5 25.6257 9.3848 18.0629 0.0000 33.2797 -0.0004
# 6 0.0000 0.0001 0.0022 -11.2262 -0.0004 23.5236
#
#
#
# Elastic Compliance Matrix: (Units=1/GPa)
#
#
# Indices 1 2 3 4 5 6 
#
# 1 0.013707 -0.007325 -0.001127 0.000000 -0.007877 0.000000
# 2 -0.007325 0.017046 -0.002610 0.000000 0.002250 0.000000
# 3 -0.001127 -0.002610 0.006085 0.000000 -0.001699 0.000000
# 4 0.000000 0.000000 0.000000 0.041395 0.000000 0.019755
# 5 -0.007877 0.002250 -0.001699 0.000000 0.036401 0.000001
# 6 0.000000 0.000000 0.000000 0.019755 0.000001 0.051938
#
#
# Mechanical properties :
#
#
# Convention : Reuss Voigt Hill
#
# Bulk Modulus (GPa) = 67.96213 82.76778 75.36495
# Shear Modulus (GPa) = 25.82633 33.96305 29.89469
#
# Velocity S-wave (km/s) = 3.38835 3.88562 3.64547
# Velocity P-wave (km/s) = 6.74685 7.54483 7.15697
#
# Compressibility (1/GPa) = 0.01471408
#
# Stress axis : x y z
#
# Youngs Moduli (GPa) = 72.95561 58.66560 164.33221
#
# Poissons Ratio (x) = 0.42974 0.18522
# Poissons Ratio (y) = 0.53442 0.42884
# Poissons Ratio (z) = 0.08223 0.15309
#
# Static dielectric constant tensor:
#      x y z
#    x 1.948920 0.000000 -0.067970 
#    y 0.000000 1.839290 0.000000 
#    z -0.067970 0.000000 1.828730 
# 
# From -- ./inp_files/136749.got.cif
#   From: 2010.05.17/outbox.cif.g08.bks.cpg/sg15_69_cif.got.tgz:136749.got - 2010.06.03 18:47:42.
