data_PCOD9278982
_publ_section_title
;
Structure prediction by ZEFSAII (Michael W. Deem and Ramdas Pophale) SiO2 
 PCOD9278982
Probable space group: C 2/C
;
_chemical_formula_sum "Si O2"
_cell_formula_units_Z 56
_cell_length_a 21.796436
_cell_length_b 8.126488
_cell_length_c 17.816962
_cell_angle_alpha 90.000000
_cell_angle_beta 119.902736
_cell_angle_gamma 90.000000
_cell_volume 2735.756799
_symmetry_space_group_name_H-M "C 2/C"
_symmetry_group_IT_number 15
_symmetry_cell_setting 'monoclinic'
loop_
_space_group_symop_operation_xyz
x,y,z
-x,y,1/2-z
-x,-y,-z
x,-y,1/2+z
1/2+x,1/2+y,z
1/2-x,1/2+y,1/2-z
1/2-x,1/2-y,-z
1/2+x,1/2-y,1/2+z
loop_
_atom_site_type_symbol
_atom_site_label
_atom_site_fract_x
_atom_site_fract_y
_atom_site_fract_z
Si Si1 0.055869 0.970581 0.434667
Si Si2 0.983021 0.645939 0.326530
Si Si3 0.192287 0.194961 0.023897
Si Si4 0.798812 0.935179 0.805847
Si Si5 0.057487 0.198070 0.095246
Si Si6 0.346097 0.187292 0.335614
Si Si7 0.414887 0.981818 0.496609
O O1 0.135582 0.937399 0.455560
O O2 0.063931 0.928708 0.528325
O O3 0.008761 0.825535 0.370528
O O4 0.009650 0.134578 0.399500
O O5 0.902053 0.636177 0.304864
O O6 0.000000 0.631532 0.250000
O O7 0.033772 0.519018 0.401172
O O8 0.218720 0.120544 0.119151
O O9 0.250000 0.250000 0.000000
O O10 0.148965 0.360645 0.017662
O O11 0.865512 0.821619 0.820260
O O12 0.727136 0.911304 0.715939
O O13 0.825636 0.122023 0.817995
O O14 0.049855 0.369889 0.047857
O O15 0.384803 0.142274 0.437600
#
# Coordination Sequence:
#
# PCOD9278982 Si02
#       7
#     8   8   8   8   8   8   8
#     4   8  15  30  57  83 110 148 193 244 295 364
#     4  10  21  36  61  89 117 159 206 257 312 381
#     4   9  19  35  59  89 122 156 204 247 312 370
#     4  10  21  33  60  88 120 164 200 264 302 373
#     4   8  14  33  55  87 112 139 202 246 294 362
#     4  12  22  39  58  91 123 158 217 257 318 375
#     4   9  21  36  61  88 116 162 204 260 310 377
#
# _framework density 20.469656000000001
#
# number of rings (size 3 to 8) (size 9 to 14) (size 15 to 20)
#    0.000    3.143    1.429    2.143    6.000    0.000 
#    0.000    0.714    0.000    0.857    0.000    0.000 
#    0.000    0.000    0.000    0.000    0.000    0.000 
#
# Total GULP energy -156029.874072 kJ/mol
# GULP energy per Si atom -5572.495503 kJ/mol
# Density = 2.042307 g / cm^3
# Si number density = 20.469656 Si / 1000 Ang^3
#
#
#
# Elastic Constant Matrix: (Units=GPa)
#
#
# Indices 1 2 3 4 5 6 
#
# 1 125.5333 24.8734 50.9710 0.0000 4.8130 0.0000
# 2 24.8734 59.8767 23.6214 0.0000 6.5985 0.0000
# 3 50.9710 23.6214 85.1729 0.0000 18.8628 0.0000
# 4 0.0000 0.0000 0.0000 28.2527 0.0000 11.7392
# 5 4.8130 6.5985 18.8628 0.0000 31.6944 0.0000
# 6 0.0000 0.0000 0.0000 11.7392 0.0000 25.2689
#
#
#
# Elastic Compliance Matrix: (Units=1/GPa)
#
#
# Indices 1 2 3 4 5 6 
#
# 1 0.010964 -0.002277 -0.006526 0.000000 0.002693 0.000000
# 2 -0.002277 0.019249 -0.003646 0.000000 -0.001492 0.000000
# 3 -0.006526 -0.003646 0.018740 0.000000 -0.009403 0.000000
# 4 0.000000 0.000000 0.000000 0.043861 0.000000 -0.020377
# 5 0.002693 -0.001492 -0.009403 0.000000 0.037049 0.000000
# 6 0.000000 0.000000 0.000000 -0.020377 0.000000 0.049041
#
#
# Mechanical properties :
#
#
# Convention : Reuss Voigt Hill
#
# Bulk Modulus (GPa) = 41.56961 52.16830 46.86895
# Shear Modulus (GPa) = 23.60496 28.45101 26.02798
#
# Velocity S-wave (km/s) = 3.39952 3.73220 3.56973
# Velocity P-wave (km/s) = 5.98005 6.64179 6.31959
#
# Compressibility (1/GPa) = 0.02405604
#
# Stress axis : x y z
#
# Youngs Moduli (GPa) = 91.20996 51.94977 53.36230
#
# Poissons Ratio (x) = 0.11827 0.34825
# Poissons Ratio (y) = 0.20765 0.19454
# Poissons Ratio (z) = 0.59525 0.18939
#
# Static dielectric constant tensor:
#      x y z
#    x 1.796240 0.000000 0.056530 
#    y 0.000000 1.796280 0.000000 
#    z 0.056530 0.000000 1.752330 
# 
# From -- ./inp_files/214021.got.cif
#   From: 2010.05.17/outbox.cif.g08.bks.cpg/sg15_108_cif.got.tgz:214021.got - 2010.06.03 18:47:42.
