data_PCOD9278033
_publ_section_title
;
Structure prediction by ZEFSAII (Michael W. Deem and Ramdas Pophale) SiO2 
 PCOD9278033
Probable space group: C 2/C
;
_chemical_formula_sum "Si O2"
_cell_formula_units_Z 56
_cell_length_a 24.655175
_cell_length_b 9.611503
_cell_length_c 17.125537
_cell_angle_alpha 90.000000
_cell_angle_beta 137.837804
_cell_angle_gamma 90.000000
_cell_volume 2724.055957
_symmetry_space_group_name_H-M "C 2/C"
_symmetry_group_IT_number 15
_symmetry_cell_setting 'monoclinic'
loop_
_space_group_symop_operation_xyz
x,y,z
-x,y,1/2-z
-x,-y,-z
x,-y,1/2+z
1/2+x,1/2+y,z
1/2-x,1/2+y,1/2-z
1/2-x,1/2-y,-z
1/2+x,1/2-y,1/2+z
loop_
_atom_site_type_symbol
_atom_site_label
_atom_site_fract_x
_atom_site_fract_y
_atom_site_fract_z
Si Si1 0.346280 0.251545 0.881429
Si Si2 0.003137 0.349938 0.463657
Si Si3 0.729738 0.089930 0.989832
Si Si4 0.728243 0.494815 0.294256
Si Si5 0.217354 0.842983 0.538100
Si Si6 0.372353 0.765035 0.793855
Si Si7 0.057294 0.511923 0.240309
O O1 0.431103 0.233384 0.928263
O O2 0.302855 0.377698 0.789830
O O3 0.353241 0.283748 0.982232
O O4 0.292464 0.109361 0.820670
O O5 0.982364 0.387866 0.353092
O O6 0.000000 0.500000 0.500000
O O7 0.089850 0.288972 0.580371
O O8 0.643403 0.043699 0.862943
O O9 0.793039 0.994126 0.009116
O O10 0.750000 0.250000 0.000000
O O11 0.733565 0.049065 0.084607
O O12 0.652403 0.395699 0.237289
O O13 0.250000 0.750000 0.500000
O O14 0.289549 0.838876 0.678785
O O15 0.431560 0.845998 0.797903
O O16 0.000000 0.544396 0.250000
#
# Coordination Sequence:
#
# PCOD9278033 Si02
#       7
#     8   8   8   8   8   8   8
#     4  11  25  40  68  98 130 180 223 271 332 405
#     4  10  23  41  63  96 136 169 222 269 338 404
#     4  11  23  41  68  95 136 168 222 287 327 383
#     4  11  25  41  69  98 132 173 229 271 337 392
#     4  10  20  42  64  97 127 168 227 272 322 397
#     4   9  21  40  65  92 134 171 212 278 325 398
#     4  10  23  39  67  99 131 178 226 270 338 404
#
# _framework density 20.557580999999999
#
# number of rings (size 3 to 8) (size 9 to 14) (size 15 to 20)
#    0.000    1.714    2.857    0.857   16.000    0.571 
#    0.000    0.000    0.000    0.857    0.000    0.000 
#    0.000    0.000    0.000    0.000    0.000    0.000 
#
# Total GULP energy -156043.543365 kJ/mol
# GULP energy per Si atom -5572.983692 kJ/mol
# Density = 2.051079 g / cm^3
# Si number density = 20.557581 Si / 1000 Ang^3
#
#
#
# Elastic Constant Matrix: (Units=GPa)
#
#
# Indices 1 2 3 4 5 6 
#
# 1 63.1282 13.0562 22.1213 0.0000 -19.6158 0.0000
# 2 13.0562 121.0885 41.2035 0.0000 -14.0449 0.0000
# 3 22.1213 41.2035 110.5451 0.0000 -17.1038 0.0000
# 4 0.0000 0.0000 0.0000 38.8628 0.0000 -6.2073
# 5 -19.6158 -14.0449 -17.1038 0.0000 23.4558 0.0000
# 6 0.0000 0.0000 0.0000 -6.2073 0.0000 32.8337
#
#
#
# Elastic Compliance Matrix: (Units=1/GPa)
#
#
# Indices 1 2 3 4 5 6 
#
# 1 0.021698 0.000244 -0.001807 0.000000 0.016974 0.000000
# 2 0.000244 0.009721 -0.003088 0.000000 0.003773 0.000000
# 3 -0.001807 -0.003088 0.011315 0.000000 0.004891 0.000000
# 4 0.000000 0.000000 0.000000 0.026533 0.000000 0.005016
# 5 0.016974 0.003773 0.004891 0.000000 0.062654 0.000000
# 6 0.000000 0.000000 0.000000 0.005016 0.000000 0.031405
#
#
# Mechanical properties :
#
#
# Convention : Reuss Voigt Hill
#
# Bulk Modulus (GPa) = 29.91129 49.72489 39.81809
# Shear Modulus (GPa) = 27.20767 33.58917 30.39842
#
# Velocity S-wave (km/s) = 3.64192 4.04655 3.84955
# Velocity P-wave (km/s) = 5.68035 6.78773 6.25858
#
# Compressibility (1/GPa) = 0.03343219
#
# Stress axis : x y z
#
# Youngs Moduli (GPa) = 46.08747 102.87475 88.37473
#
# Poissons Ratio (x) = -0.02511 0.15966
# Poissons Ratio (y) = -0.01125 0.27293
# Poissons Ratio (z) = 0.08326 0.31771
#
# Static dielectric constant tensor:
#      x y z
#    x 1.855980 0.000000 0.041960 
#    y 0.000000 1.745020 0.000000 
#    z 0.041960 0.000000 1.897230 
# 
# From -- ./inp_files/222080.got.cif
#   From: 2010.05.17/outbox.cif.g08.bks.cpg/sg15_112_cif.got.tgz:222080.got - 2010.06.03 18:47:42.
