data_PCOD9278449
_publ_section_title
;
Structure prediction by ZEFSAII (Michael W. Deem and Ramdas Pophale) SiO2 
 PCOD9278449
Probable space group: C 2/C
;
_chemical_formula_sum "Si O2"
_cell_formula_units_Z 64
_cell_length_a 19.924970
_cell_length_b 11.174515
_cell_length_c 25.820197
_cell_angle_alpha 90.000000
_cell_angle_beta 30.375025
_cell_angle_gamma 90.000000
_cell_volume 2906.983577
_symmetry_space_group_name_H-M "C 2/C"
_symmetry_group_IT_number 15
_symmetry_cell_setting 'monoclinic'
loop_
_space_group_symop_operation_xyz
x,y,z
-x,y,1/2-z
-x,-y,-z
x,-y,1/2+z
1/2+x,1/2+y,z
1/2-x,1/2+y,1/2-z
1/2-x,1/2-y,-z
1/2+x,1/2-y,1/2+z
loop_
_atom_site_type_symbol
_atom_site_label
_atom_site_fract_x
_atom_site_fract_y
_atom_site_fract_z
Si Si1 0.375166 0.755551 0.760789
Si Si2 0.379507 0.165094 0.991806
Si Si3 0.139109 0.866579 0.338394
Si Si4 0.340055 0.877300 0.633257
Si Si5 0.533749 0.605178 0.373395
Si Si6 0.901262 0.486740 0.190959
Si Si7 0.828158 0.813027 0.402069
Si Si8 0.378661 0.584907 0.370503
O O1 0.329309 0.675820 0.742159
O O2 0.519018 0.707233 0.682601
O O3 0.295555 0.742595 0.867421
O O4 0.389369 0.892331 0.732025
O O5 0.467019 0.282312 0.945444
O O6 0.466534 0.090549 0.892407
O O7 0.351528 0.101603 0.065261
O O8 0.233074 0.183282 0.066315
O O9 0.089143 0.746792 0.398446
O O10 0.269112 0.907977 0.283309
O O11 0.044584 0.981308 0.397397
O O12 0.185057 0.868689 0.754248
O O13 0.399334 0.975304 0.631812
O O14 0.442597 0.588594 0.384102
O O15 0.750000 0.750000 0.500000
O O16 0.809869 0.955137 0.410101
O O17 0.500000 0.594193 0.250000
#
# Coordination Sequence:
#
# PCOD9278449 Si02
#       8
#     8   8   8   8   8   8   8   8
#     4  10  21  42  67  95 130 170 214 274 329 380
#     4  12  24  40  66  97 129 175 226 266 333 406
#     4  10  20  43  65  91 136 174 213 273 331 388
#     4  10  22  40  66  94 130 172 222 275 323 398
#     4  11  22  42  63  94 130 170 224 271 335 396
#     4  10  22  40  64  98 131 169 216 274 328 395
#     4  11  22  41  68  98 128 167 221 269 331 395
#     4  12  22  42  68  90 127 171 219 279 323 392
#
# _framework density 22.015948000000002
#
# number of rings (size 3 to 8) (size 9 to 14) (size 15 to 20)
#    0.000    1.250    5.000    1.500    1.750    0.500 
#    6.750    0.000    5.500    0.000    0.000    0.000 
#    0.000    0.000    0.000    0.000    0.000    0.000 
#
# Total GULP energy -178717.371725 kJ/mol
# GULP energy per Si atom -5584.917866 kJ/mol
# Density = 2.196584 g / cm^3
# Si number density = 22.015948 Si / 1000 Ang^3
#
#
#
# Elastic Constant Matrix: (Units=GPa)
#
#
# Indices 1 2 3 4 5 6 
#
# 1 64.3233 -9.0379 14.9690 0.0000 6.1013 0.0000
# 2 -9.0379 56.2598 3.4624 0.0004 -5.3642 0.0001
# 3 14.9690 3.4624 65.5405 0.0007 -3.7054 0.0002
# 4 0.0000 0.0004 0.0007 17.6443 0.0000 -4.6601
# 5 6.1013 -5.3642 -3.7054 0.0000 33.2864 0.0000
# 6 0.0000 0.0001 0.0002 -4.6601 0.0000 29.5802
#
#
#
# Elastic Compliance Matrix: (Units=1/GPa)
#
#
# Indices 1 2 3 4 5 6 
#
# 1 0.017223 0.002725 -0.004258 0.000000 -0.003192 0.000000
# 2 0.002725 0.018524 -0.001470 0.000000 0.002322 0.000000
# 3 -0.004258 -0.001470 0.016442 -0.000001 0.002374 0.000000
# 4 0.000000 0.000000 -0.000001 0.059136 0.000000 0.009316
# 5 -0.003192 0.002322 0.002374 0.000000 0.031266 0.000000
# 6 0.000000 0.000000 0.000000 0.009316 0.000000 0.035274
#
#
# Mechanical properties :
#
#
# Convention : Reuss Voigt Hill
#
# Bulk Modulus (GPa) = 21.65291 22.76784 22.21037
# Shear Modulus (GPa) = 25.09214 27.88422 26.48818
#
# Velocity S-wave (km/s) = 3.37964 3.56272 3.47239
# Velocity P-wave (km/s) = 5.00857 5.22378 5.11731
#
# Compressibility (1/GPa) = 0.04618317
#
# Stress axis : x y z
#
# Youngs Moduli (GPa) = 58.06215 53.98333 60.81957
#
# Poissons Ratio (x) = -0.14708 0.25897
# Poissons Ratio (y) = -0.15819 0.08938
# Poissons Ratio (z) = 0.24723 0.07933
#
# Static dielectric constant tensor:
#      x y z
#    x 1.786800 0.000000 -0.015150 
#    y 0.000000 1.834680 0.000000 
#    z -0.015150 0.000000 1.886100 
# 
# From -- ./inp_files/300843.got.cif
#   From: 2010.05.17/outbox.cif.g08.bks.cpg/sg15_151_cif.got.tgz:300843.got - 2010.06.03 18:47:42.
