data_PCOD9278408
_publ_section_title
;
Structure prediction by ZEFSAII (Michael W. Deem and Ramdas Pophale) SiO2 
 PCOD9278408
Probable space group: C 2/C
;
_chemical_formula_sum "Si O2"
_cell_formula_units_Z 40
_cell_length_a 13.947095
_cell_length_b 13.784070
_cell_length_c 20.917570
_cell_angle_alpha 90.000000
_cell_angle_beta 24.242823
_cell_angle_gamma 90.000000
_cell_volume 1651.187198
_symmetry_space_group_name_H-M "C 2/C"
_symmetry_group_IT_number 15
_symmetry_cell_setting 'monoclinic'
loop_
_space_group_symop_operation_xyz
x,y,z
-x,y,1/2-z
-x,-y,-z
x,-y,1/2+z
1/2+x,1/2+y,z
1/2-x,1/2+y,1/2-z
1/2-x,1/2-y,-z
1/2+x,1/2-y,1/2+z
loop_
_atom_site_type_symbol
_atom_site_label
_atom_site_fract_x
_atom_site_fract_y
_atom_site_fract_z
Si Si1 0.328489 0.853993 0.573882
Si Si2 0.969438 0.803841 0.630194
Si Si3 0.113218 0.622676 0.242733
Si Si4 0.306351 0.572855 0.822695
Si Si5 0.342051 0.484390 0.494283
O O1 0.143246 0.801332 0.731548
O O2 0.390377 0.790950 0.475123
O O3 0.573860 0.866048 0.461161
O O4 0.248242 0.965062 0.616720
O O5 0.751355 0.821246 0.713154
O O6 0.124263 0.900841 0.529199
O O7 0.000000 0.677900 0.250000
O O8 0.891519 0.557146 0.399357
O O9 0.294820 0.553362 0.094565
O O10 0.500000 0.615870 0.750000
O O11 0.426596 0.558172 0.680205
#
# Coordination Sequence:
#
# PCOD9278408 Si02
#       5
#     8   8   8   8   8
#     4  10  25  37  63  88 117 158 195 238 305 333
#     4  11  20  41  57  90 120 148 198 248 279 357
#     4   8  19  34  59  89 107 152 191 234 294 343
#     4  10  20  43  60  83 119 161 194 239 292 358
#     4   8  19  36  61  87 112 156 191 234 301 340
#
# _framework density 24.224993999999999
#
# number of rings (size 3 to 8) (size 9 to 14) (size 15 to 20)
#    1.200    1.200    0.000    1.800    2.800    0.800 
#   14.400    5.000    0.000    0.000    0.000    0.000 
#    0.000    0.000    0.000    0.000    0.000    0.000 
#
# Total GULP energy -111723.492510 kJ/mol
# GULP energy per Si atom -5586.174625 kJ/mol
# Density = 2.416986 g / cm^3
# Si number density = 24.224994 Si / 1000 Ang^3
#
#
#
# Elastic Constant Matrix: (Units=GPa)
#
#
# Indices 1 2 3 4 5 6 
#
# 1 82.3875 18.3895 17.5391 -0.0491 -18.9669 0.0045
# 2 18.3895 90.4202 66.1862 0.0825 5.1165 -0.0165
# 3 17.5391 66.1862 138.1266 -0.0826 14.6349 -0.0483
# 4 -0.0491 0.0825 -0.0826 16.1679 0.1019 3.4989
# 5 -18.9669 5.1165 14.6349 0.1019 49.2712 0.0161
# 6 0.0045 -0.0165 -0.0483 3.4989 0.0161 17.6799
#
#
#
# Elastic Compliance Matrix: (Units=1/GPa)
#
#
# Indices 1 2 3 4 5 6 
#
# 1 0.014359 -0.002243 -0.001403 0.000013 0.006177 -0.000018
# 2 -0.002243 0.017407 -0.008026 -0.000140 -0.000287 0.000023
# 3 -0.001403 -0.008026 0.011598 0.000115 -0.003152 0.000005
# 4 0.000013 -0.000140 0.000115 0.064621 -0.000144 -0.012788
# 5 0.006177 -0.000287 -0.003152 -0.000144 0.023640 -0.000004
# 6 -0.000018 0.000023 0.000005 -0.012788 -0.000004 0.059092
#
#
# Mechanical properties :
#
#
# Convention : Reuss Voigt Hill
#
# Bulk Modulus (GPa) = 49.94956 57.24043 53.59500
# Shear Modulus (GPa) = 22.65181 30.54510 26.59845
#
# Velocity S-wave (km/s) = 3.06119 3.55476 3.31717
# Velocity P-wave (km/s) = 5.75832 6.36619 6.06987
#
# Compressibility (1/GPa) = 0.02002020
#
# Stress axis : x y z
#
# Youngs Moduli (GPa) = 69.64189 57.44934 86.22503
#
# Poissons Ratio (x) = 0.12885 0.12098
# Poissons Ratio (y) = 0.15620 0.69201
# Poissons Ratio (z) = 0.09771 0.46107
#
# Static dielectric constant tensor:
#      x y z
#    x 2.002770 0.000000 0.006580 
#    y 0.000000 1.899170 -0.000040 
#    z 0.006580 -0.000040 1.923180 
# 
# From -- ./inp_files/277515.got.cif
#   From: 2010.05.17/outbox.cif.g08.bks.cpg/sg15_139_cif.got.tgz:277515.got - 2010.06.03 18:47:42.
