data_PCOD9278421
_publ_section_title
;
Structure prediction by ZEFSAII (Michael W. Deem and Ramdas Pophale) SiO2 
 PCOD9278421
Probable space group: C 2/C
;
_chemical_formula_sum "Si O2"
_cell_formula_units_Z 48
_cell_length_a 9.454572
_cell_length_b 24.410260
_cell_length_c 10.562692
_cell_angle_alpha 90.000000
_cell_angle_beta 76.193345
_cell_angle_gamma 90.000000
_cell_volume 2367.313562
_symmetry_space_group_name_H-M "C 2/C"
_symmetry_group_IT_number 15
_symmetry_cell_setting 'monoclinic'
loop_
_space_group_symop_operation_xyz
x,y,z
-x,y,1/2-z
-x,-y,-z
x,-y,1/2+z
1/2+x,1/2+y,z
1/2-x,1/2+y,1/2-z
1/2-x,1/2-y,-z
1/2+x,1/2-y,1/2+z
loop_
_atom_site_type_symbol
_atom_site_label
_atom_site_fract_x
_atom_site_fract_y
_atom_site_fract_z
Si Si1 0.500000 0.002080 0.250000
Si Si2 0.452443 0.089444 0.557103
Si Si3 0.332286 0.787971 0.760863
Si Si4 0.764869 0.413677 0.852354
Si Si5 0.739435 0.841782 0.962622
Si Si6 0.342721 0.809321 0.244916
Si Si7 0.500000 0.603922 0.250000
O O1 0.498910 0.962203 0.370598
O O2 0.633708 0.043041 0.241098
O O3 0.328549 0.077261 0.479740
O O4 0.601930 0.116843 0.474046
O O5 0.382164 0.135813 0.661431
O O6 0.500000 0.778930 0.750000
O O7 0.291414 0.848369 0.822180
O O8 0.304399 0.791028 0.616079
O O9 0.238976 0.735716 0.821779
O O10 0.604711 0.425122 0.830799
O O11 0.886788 0.863660 0.865792
O O12 0.742393 0.827712 0.109917
O O13 0.500000 0.784884 0.250000
#
# Coordination Sequence:
#
# PCOD9278421 Si02
#       7
#     4   8   8   8   8   8   4
#     4  12  22  46  77  96 131 174 238 284 318 400
#     4  11  22  45  73  99 130 175 237 278 325 401
#     4  11  21  37  60  96 136 174 220 271 331 405
#     4  11  23  41  66 103 129 178 223 274 340 397
#     4  10  20  43  62  94 135 173 227 272 330 404
#     4  10  23  40  65  97 134 178 224 275 335 398
#     4  10  24  40  65  94 141 170 214 282 342 396
#
# _framework density 20.276147999999999
#
# number of rings (size 3 to 8) (size 9 to 14) (size 15 to 20)
#    0.000    1.333    5.000    2.000    4.667    2.000 
#    0.000    3.333    1.833    0.000    0.000    0.000 
#    0.000    0.000    0.000    0.000    0.000    0.000 
#
# Total GULP energy -133697.704394 kJ/mol
# GULP energy per Si atom -5570.737683 kJ/mol
# Density = 2.023000 g / cm^3
# Si number density = 20.276148 Si / 1000 Ang^3
#
#
#
# Elastic Constant Matrix: (Units=GPa)
#
#
# Indices 1 2 3 4 5 6 
#
# 1 133.2989 24.5696 18.7685 0.0000 7.8696 0.0000
# 2 24.5696 85.3926 26.6263 0.0000 3.6978 0.0000
# 3 18.7685 26.6263 74.3157 0.0000 -9.5267 0.0000
# 4 0.0000 0.0000 0.0000 7.9772 0.0000 14.4425
# 5 7.8696 3.6978 -9.5267 0.0000 32.3637 0.0000
# 6 0.0000 0.0000 0.0000 14.4425 0.0000 19.6603
#
#
#
# Elastic Compliance Matrix: (Units=1/GPa)
#
#
# Indices 1 2 3 4 5 6 
#
# 1 0.008201 -0.001712 -0.001754 0.000000 -0.002315 0.000000
# 2 -0.001712 0.013829 -0.004855 0.000000 -0.002593 0.000000
# 3 -0.001754 -0.004855 0.016383 0.000000 0.005804 0.000000
# 4 0.000000 0.000000 0.000000 -0.379897 0.000000 0.279074
# 5 -0.002315 -0.002593 0.005804 0.000000 0.033466 0.000000
# 6 0.000000 0.000000 0.000000 0.279074 0.000000 -0.154144
#
#
# Mechanical properties :
#
#
# Convention : Reuss Voigt Hill
#
# Bulk Modulus (GPa) = 45.93494 48.10400 47.01947
# Shear Modulus (GPa) = -11.40870 26.86977 7.73054
#
# Velocity S-wave (km/s) = -2.37463 3.64427 1.95471
# Velocity P-wave (km/s) = 3.89684 6.44077 5.32301
#
# Compressibility (1/GPa) = 0.02176992
#
# Stress axis : x y z
#
# Youngs Moduli (GPa) = 121.93237 72.30988 61.04035
#
# Poissons Ratio (x) = 0.12382 0.10709
# Poissons Ratio (y) = 0.20880 0.29634
# Poissons Ratio (z) = 0.21393 0.35105
#
# Static dielectric constant tensor:
#      x y z
#    x 1.682900 0.000000 0.011810 
#    y 0.000000 1.734720 0.000000 
#    z 0.011810 0.000000 1.787000 
# 
# From -- ./inp_files/79201.got.cif
#   From: 2010.05.17/outbox.cif.g08.bks.cpg/sg15_40_cif.got.tgz:79201.got - 2010.06.03 18:47:42.
