data_PCOD9278116
_publ_section_title
;
Structure prediction by ZEFSAII (Michael W. Deem and Ramdas Pophale) SiO2 
 PCOD9278116
Probable space group: C 2/C
;
_chemical_formula_sum "Si O2"
_cell_formula_units_Z 60
_cell_length_a 11.517202
_cell_length_b 20.522505
_cell_length_c 26.076284
_cell_angle_alpha 90.000000
_cell_angle_beta 28.776032
_cell_angle_gamma 90.000000
_cell_volume 2966.999437
_symmetry_space_group_name_H-M "C 2/C"
_symmetry_group_IT_number 15
_symmetry_cell_setting 'monoclinic'
loop_
_space_group_symop_operation_xyz
x,y,z
-x,y,1/2-z
-x,-y,-z
x,-y,1/2+z
1/2+x,1/2+y,z
1/2-x,1/2+y,1/2-z
1/2-x,1/2-y,-z
1/2+x,1/2-y,1/2+z
loop_
_atom_site_type_symbol
_atom_site_label
_atom_site_fract_x
_atom_site_fract_y
_atom_site_fract_z
Si Si1 0.907714 0.684220 0.616682
Si Si2 0.000000 0.630955 0.750000
Si Si3 0.240613 0.063285 0.625159
Si Si4 0.390365 0.294893 0.168209
Si Si5 0.122139 0.332998 0.568390
Si Si6 0.121540 0.525584 0.034561
Si Si7 0.733210 0.402927 0.456330
Si Si8 0.223866 0.178054 0.376570
O O1 0.869410 0.632370 0.585957
O O2 0.693838 0.687993 0.741853
O O3 0.905233 0.756775 0.594954
O O4 0.126007 0.653250 0.565341
O O5 0.795935 0.672083 0.798875
O O6 0.853909 0.595348 0.852767
O O7 0.204942 0.045093 0.579909
O O8 0.000000 0.067123 0.750000
O O9 0.398859 0.007944 0.591755
O O10 0.402228 0.217608 0.152174
O O11 0.664918 0.317453 0.053936
O O12 0.051663 0.407901 0.589762
O O13 0.249349 0.319107 0.573072
O O14 0.227804 0.471809 0.031223
O O15 0.454599 0.381937 0.564889
O O16 0.500000 0.172849 0.250000
#
# Coordination Sequence:
#
# PCOD9278116 Si02
#       8
#     8   4   8   8   8   8   8   8
#     4  10  21  39  66  92 119 163 213 264 313 369
#     4  10  20  42  66  92 116 170 220 258 314 364
#     4  10  21  40  67  89 119 164 210 258 312 378
#     4  10  21  39  63  93 121 161 215 262 312 367
#     4  11  23  39  61  90 127 161 204 266 310 371
#     4  10  24  42  60  92 125 165 211 252 316 377
#     4  10  23  43  62  89 129 169 215 258 308 385
#     4  12  23  39  60  96 128 164 205 259 326 368
#
# _framework density 20.222451
#
# number of rings (size 3 to 8) (size 9 to 14) (size 15 to 20)
#    0.000    1.600    2.667    1.600    3.733    1.600 
#    2.400    0.000    0.000    0.000    0.000    0.000 
#    0.000    0.000    0.000    0.000    0.000    0.000 
#
# Total GULP energy -167382.068180 kJ/mol
# GULP energy per Si atom -5579.402273 kJ/mol
# Density = 2.017642 g / cm^3
# Si number density = 20.222451 Si / 1000 Ang^3
#
#
#
# Elastic Constant Matrix: (Units=GPa)
#
#
# Indices 1 2 3 4 5 6 
#
# 1 76.6834 45.6592 30.8662 0.0437 28.4606 -0.1585
# 2 45.6592 129.1000 43.6695 -0.0739 15.7076 0.0556
# 3 30.8662 43.6695 53.1039 -0.0758 3.6773 0.0497
# 4 0.0437 -0.0739 -0.0758 12.0855 0.0061 4.5507
# 5 28.4606 15.7076 3.6773 0.0061 30.2337 0.0665
# 6 -0.1585 0.0556 0.0497 4.5507 0.0665 19.1770
#
#
#
# Elastic Compliance Matrix: (Units=1/GPa)
#
#
# Indices 1 2 3 4 5 6 
#
# 1 0.028840 -0.003001 -0.012630 -0.000359 -0.024054 0.000448
# 2 -0.003001 0.011699 -0.007716 0.000051 -0.002314 -0.000043
# 3 -0.012630 -0.007716 0.031684 0.000295 0.012045 -0.000276
# 4 -0.000359 0.000051 0.000295 0.090868 0.000304 -0.021568
# 5 -0.024054 -0.002314 0.012045 0.000304 0.055458 -0.000488
# 6 0.000448 -0.000043 -0.000276 -0.021568 -0.000488 0.057270
#
#
# Mechanical properties :
#
#
# Convention : Reuss Voigt Hill
#
# Bulk Modulus (GPa) = 39.17200 55.47526 47.32363
# Shear Modulus (GPa) = 15.10470 21.54541 18.32506
#
# Velocity S-wave (km/s) = 2.73596 3.26762 3.01354
# Velocity P-wave (km/s) = 5.42155 6.45976 5.96329
#
# Compressibility (1/GPa) = 0.02552844
#
# Stress axis : x y z
#
# Youngs Moduli (GPa) = 34.67361 85.47766 31.56201
#
# Poissons Ratio (x) = 0.25656 0.39863
# Poissons Ratio (y) = 0.10407 0.24352
# Poissons Ratio (z) = 0.43793 0.65951
#
# Static dielectric constant tensor:
#      x y z
#    x 1.718050 -0.000030 0.012950 
#    y -0.000030 1.755620 -0.000010 
#    z 0.012950 -0.000010 1.767460 
# 
# From -- ./inp_files/271024.got.cif
#   From: 2010.05.17/outbox.cif.g08.bks.cpg/sg15_136_cif.got.tgz:271024.got - 2010.06.03 18:47:42.
