data_PCOD9278035
_publ_section_title
;
Structure prediction by ZEFSAII (Michael W. Deem and Ramdas Pophale) SiO2 
 PCOD9278035
Probable space group: C 2/C
;
_chemical_formula_sum "Si O2"
_cell_formula_units_Z 36
_cell_length_a 5.101645
_cell_length_b 18.755086
_cell_length_c 14.639172
_cell_angle_alpha 90.000000
_cell_angle_beta 80.561920
_cell_angle_gamma 90.000000
_cell_volume 1381.741438
_symmetry_space_group_name_H-M "C 2/C"
_symmetry_group_IT_number 15
_symmetry_cell_setting 'monoclinic'
loop_
_space_group_symop_operation_xyz
x,y,z
-x,y,1/2-z
-x,-y,-z
x,-y,1/2+z
1/2+x,1/2+y,z
1/2-x,1/2+y,1/2-z
1/2-x,1/2-y,-z
1/2+x,1/2-y,1/2+z
loop_
_atom_site_type_symbol
_atom_site_label
_atom_site_fract_x
_atom_site_fract_y
_atom_site_fract_z
Si Si1 0.183750 0.489263 0.145705
Si Si2 0.528948 0.142771 0.140694
Si Si3 0.752504 0.801045 0.392565
Si Si4 0.227934 0.861072 0.486181
Si Si5 0.500000 0.596657 0.750000
O O1 0.184519 0.569371 0.110397
O O2 0.149701 0.434016 0.064514
O O3 0.455066 0.458077 0.170732
O O4 0.000000 0.482988 0.250000
O O5 0.500000 0.137488 0.250000
O O6 0.656269 0.220136 0.120901
O O7 0.263892 0.137706 0.093347
O O8 0.451105 0.804704 0.441070
O O9 0.955569 0.838851 0.452487
O O10 0.781293 0.846806 0.297604
#
# Coordination Sequence:
#
# PCOD9278035 Si02
#       5
#     8   8   8   8   4
#     4  10  21  42  66  95 138 171 229 263 339 386
#     4  11  24  44  65 103 135 172 224 283 326 386
#     4  11  23  45  70  95 135 171 228 268 336 390
#     4  11  24  46  70  97 134 182 218 269 333 406
#     4  10  20  42  64  98 124 188 210 278 324 410
#
# _framework density 26.054079000000002
#
# number of rings (size 3 to 8) (size 9 to 14) (size 15 to 20)
#    0.000    1.333    3.333    2.000    0.000    0.000 
#   16.000    3.333    0.000    0.000    0.000    0.000 
#    0.000    0.000    0.000    0.000    0.000    0.000 
#
# Total GULP energy -100522.613482 kJ/mol
# GULP energy per Si atom -5584.589638 kJ/mol
# Density = 2.599478 g / cm^3
# Si number density = 26.054079 Si / 1000 Ang^3
#
#
#
# Elastic Constant Matrix: (Units=GPa)
#
#
# Indices 1 2 3 4 5 6 
#
# 1 77.4148 22.5474 21.7401 0.0000 12.6821 0.0000
# 2 22.5474 227.8110 42.6434 0.0000 19.9341 0.0000
# 3 21.7401 42.6434 119.5599 0.0000 26.8921 0.0000
# 4 0.0000 0.0000 0.0000 37.0865 0.0000 4.4904
# 5 12.6821 19.9341 26.8921 0.0000 35.9096 0.0000
# 6 0.0000 0.0000 0.0000 4.4904 0.0000 28.5990
#
#
#
# Elastic Compliance Matrix: (Units=1/GPa)
#
#
# Indices 1 2 3 4 5 6 
#
# 1 0.014139 -0.000818 -0.001513 0.000000 -0.003406 0.000000
# 2 -0.000818 0.004832 -0.001246 0.000000 -0.001460 0.000000
# 3 -0.001513 -0.001246 0.010592 0.000000 -0.006706 0.000000
# 4 0.000000 0.000000 0.000000 0.027487 0.000000 -0.004316
# 5 -0.003406 -0.001460 -0.006706 0.000000 0.034883 0.000000
# 6 0.000000 0.000000 0.000000 -0.004316 0.000000 0.035644
#
#
# Mechanical properties :
#
#
# Convention : Reuss Voigt Hill
#
# Bulk Modulus (GPa) = 44.62751 66.51640 55.57195
# Shear Modulus (GPa) = 35.16191 42.84267 39.00229
#
# Velocity S-wave (km/s) = 3.67764 4.05949 3.87327
# Velocity P-wave (km/s) = 5.93291 6.89624 6.43263
#
# Compressibility (1/GPa) = 0.02240770
#
# Stress axis : x y z
#
# Youngs Moduli (GPa) = 70.72843 206.97137 94.41142
#
# Poissons Ratio (x) = 0.16932 0.14284
# Poissons Ratio (y) = 0.05786 0.11765
# Poissons Ratio (z) = 0.10701 0.25791
#
# Static dielectric constant tensor:
#      x y z
#    x 2.136150 0.000000 -0.015280 
#    y 0.000000 1.987670 0.000000 
#    z -0.015280 0.000000 2.157960 
# 
# From -- ./inp_files/128716.got.cif
#   From: 2010.05.17/outbox.cif.g08.bks.cpg/sg15_65_cif.got.tgz:128716.got - 2010.06.03 18:47:42.
