data_PCOD9278192
_publ_section_title
;
Structure prediction by ZEFSAII (Michael W. Deem and Ramdas Pophale) SiO2 
 PCOD9278192
Probable space group: C 2/C
;
_chemical_formula_sum "Si O2"
_cell_formula_units_Z 60
_cell_length_a 14.902683
_cell_length_b 7.382209
_cell_length_c 23.351234
_cell_angle_alpha 90.000000
_cell_angle_beta 104.919535
_cell_angle_gamma 90.000000
_cell_volume 2482.374956
_symmetry_space_group_name_H-M "C 2/C"
_symmetry_group_IT_number 15
_symmetry_cell_setting 'monoclinic'
loop_
_space_group_symop_operation_xyz
x,y,z
-x,y,1/2-z
-x,-y,-z
x,-y,1/2+z
1/2+x,1/2+y,z
1/2-x,1/2+y,1/2-z
1/2-x,1/2-y,-z
1/2+x,1/2-y,1/2+z
loop_
_atom_site_type_symbol
_atom_site_label
_atom_site_fract_x
_atom_site_fract_y
_atom_site_fract_z
Si Si1 0.642676 0.703670 0.473408
Si Si2 0.563237 0.285168 0.313379
Si Si3 0.119484 0.382101 0.586153
Si Si4 0.584794 0.489767 0.135428
Si Si5 0.037659 0.426027 0.367083
Si Si6 0.772455 0.958401 0.682035
Si Si7 0.000000 0.000000 0.000000
Si Si8 0.865427 0.300649 0.277498
O O1 0.750000 0.750000 0.500000
O O2 0.592519 0.807834 0.519498
O O3 0.606245 0.788137 0.408894
O O4 0.602275 0.506612 0.481272
O O5 0.500000 0.226708 0.250000
O O6 0.501978 0.427673 0.339681
O O7 0.651761 0.385799 0.304405
O O8 0.586000 0.107871 0.353455
O O9 0.129839 0.202971 0.627440
O O10 0.221447 0.463249 0.611816
O O11 0.038860 0.505001 0.598756
O O12 0.550926 0.560918 0.068397
O O13 0.646371 0.633659 0.179200
O O14 0.973582 0.343070 0.306631
O O15 0.691542 0.023306 0.712207
O O16 0.825176 0.778948 0.712244
#
# Coordination Sequence:
#
# PCOD9278192 Si02
#       8
#     8   8   8   8   8   8   4   8
#     4  11  23  42  69 100 135 171 237 283 344 423
#     4  11  24  43  63  94 136 175 225 286 338 415
#     4   9  22  41  67  93 132 178 213 284 342 412
#     4  10  20  42  67  95 129 180 218 276 357 402
#     4  10  23  45  65  94 131 178 222 275 355 400
#     4  11  24  40  65  99 132 172 231 276 344 425
#     4  10  22  40  68 100 138 180 228 296 352 414
#     4  11  22  41  68  94 133 175 222 274 347 416
#
# _framework density 24.170400999999998
#
# number of rings (size 3 to 8) (size 9 to 14) (size 15 to 20)
#    0.000    1.600    2.667    1.200    5.600    2.133 
#    4.800    0.667    0.000    0.000    0.000    0.000 
#    0.000    0.000    0.000    0.000    0.000    0.000 
#
# Total GULP energy -167108.484881 kJ/mol
# GULP energy per Si atom -5570.282829 kJ/mol
# Density = 2.411539 g / cm^3
# Si number density = 24.170401 Si / 1000 Ang^3
#
#
#
# Elastic Constant Matrix: (Units=GPa)
#
#
# Indices 1 2 3 4 5 6 
#
# 1 30.8142 -16.5414 -15.8631 0.0000 7.2138 0.0000
# 2 -16.5414 52.3269 -6.6905 0.0000 -4.4052 0.0000
# 3 -15.8631 -6.6905 101.2195 0.0000 -1.1844 0.0000
# 4 0.0000 0.0000 0.0000 35.9195 0.0000 -9.2365
# 5 7.2138 -4.4052 -1.1844 0.0000 32.1360 0.0000
# 6 0.0000 0.0000 0.0000 -9.2365 0.0000 13.8540
#
#
#
# Elastic Compliance Matrix: (Units=1/GPa)
#
#
# Indices 1 2 3 4 5 6 
#
# 1 0.046710 0.015135 0.008226 0.000000 -0.008107 0.000000
# 2 0.015135 0.024413 0.003987 0.000000 0.000096 0.000000
# 3 0.008226 0.003987 0.011422 0.000000 -0.000879 0.000000
# 4 0.000000 0.000000 0.000000 0.033601 0.000000 0.022402
# 5 -0.008107 0.000096 -0.000879 0.000000 0.032918 0.000000
# 6 0.000000 0.000000 0.000000 0.022402 0.000000 0.087117
#
#
# Mechanical properties :
#
#
# Convention : Reuss Voigt Hill
#
# Bulk Modulus (GPa) = 7.28652 11.79674 9.54163
# Shear Modulus (GPa) = 22.00398 31.27894 26.64146
#
# Velocity S-wave (km/s) = 3.02051 3.60126 3.32359
# Velocity P-wave (km/s) = 3.89690 4.70992 4.32257
#
# Compressibility (1/GPa) = 0.13723970
#
# Stress axis : x y z
#
# Youngs Moduli (GPa) = 21.40880 40.96199 87.55107
#
# Poissons Ratio (x) = -0.61996 -0.72018
# Poissons Ratio (y) = -0.32402 -0.34904
# Poissons Ratio (z) = -0.17611 -0.16330
#
# Static dielectric constant tensor:
#      x y z
#    x 1.943410 0.000000 0.017260 
#    y 0.000000 1.607460 0.000000 
#    z 0.017260 0.000000 1.941840 
# 
# From -- ./inp_files/273224.got.cif
#   From: 2010.05.17/outbox.cif.g08.bks.cpg/sg15_137_cif.got.tgz:273224.got - 2010.06.03 18:47:42.
