data_PCOD9278460
_publ_section_title
;
Structure prediction by ZEFSAII (Michael W. Deem and Ramdas Pophale) SiO2 
 PCOD9278460
Probable space group: C 2/C
;
_chemical_formula_sum "Si O2"
_cell_formula_units_Z 56
_cell_length_a 18.073874
_cell_length_b 5.260302
_cell_length_c 25.893915
_cell_angle_alpha 90.000000
_cell_angle_beta 111.278041
_cell_angle_gamma 90.000000
_cell_volume 2294.016361
_symmetry_space_group_name_H-M "C 2/C"
_symmetry_group_IT_number 15
_symmetry_cell_setting 'monoclinic'
loop_
_space_group_symop_operation_xyz
x,y,z
-x,y,1/2-z
-x,-y,-z
x,-y,1/2+z
1/2+x,1/2+y,z
1/2-x,1/2+y,1/2-z
1/2-x,1/2-y,-z
1/2+x,1/2-y,1/2+z
loop_
_atom_site_type_symbol
_atom_site_label
_atom_site_fract_x
_atom_site_fract_y
_atom_site_fract_z
Si Si1 0.276631 0.719070 0.641158
Si Si2 0.904310 0.440574 0.137310
Si Si3 0.395910 0.289145 0.471301
Si Si4 0.798628 0.278155 0.278057
Si Si5 0.420538 0.396798 0.728614
Si Si6 0.948045 0.718919 0.047639
Si Si7 0.269168 0.345220 0.561225
O O1 0.327763 0.968859 0.650375
O O2 0.202026 0.718490 0.659799
O O3 0.343519 0.532120 0.683220
O O4 0.261654 0.633080 0.578603
O O5 0.953144 0.305707 0.194184
O O6 0.936485 0.649009 0.105392
O O7 0.860035 0.229209 0.092288
O O8 0.460157 0.278808 0.441829
O O9 0.406123 0.540652 0.509192
O O10 0.306213 0.275941 0.427764
O O11 0.417600 0.033765 0.509552
O O12 0.763912 0.550499 0.251129
O O13 0.880305 0.210228 0.270384
O O14 0.500000 0.571843 0.750000
O O15 0.250000 0.250000 0.500000
#
# Coordination Sequence:
#
# PCOD9278460 Si02
#       7
#     8   8   8   8   8   8   8
#     4  10  23  39  63  94 128 172 217 265 327 399
#     4  11  22  39  64  93 123 167 216 269 319 391
#     4  10  22  40  58  90 124 180 203 259 315 376
#     4  10  20  43  66  90 128 168 210 275 331 388
#     4  10  23  42  65  95 126 166 218 277 339 388
#     4  10  22  39  62  85 132 164 215 256 319 373
#     4  11  22  37  62  94 129 168 215 261 313 382
#
# _framework density 24.411335000000001
#
# number of rings (size 3 to 8) (size 9 to 14) (size 15 to 20)
#    0.000    1.714    2.857    0.857    4.000    2.857 
#    0.000    1.429    0.000    0.000    0.000    0.000 
#    0.000    0.000    0.000    0.000    0.000    0.000 
#
# Total GULP energy -155939.147441 kJ/mol
# GULP energy per Si atom -5569.255266 kJ/mol
# Density = 2.435577 g / cm^3
# Si number density = 24.411335 Si / 1000 Ang^3
#
#
#
# Elastic Constant Matrix: (Units=GPa)
#
#
# Indices 1 2 3 4 5 6 
#
# 1 139.9076 3.7289 22.7258 0.0000 -8.7500 -0.0004
# 2 3.7289 88.0108 -3.7298 0.0000 -4.8528 -0.0014
# 3 22.7258 -3.7298 52.5311 0.0000 -30.0463 0.0000
# 4 0.0000 0.0000 0.0000 11.0595 0.0001 -8.5615
# 5 -8.7500 -4.8528 -30.0463 0.0001 30.2261 0.0000
# 6 -0.0004 -0.0014 0.0000 -8.5615 0.0000 22.1829
#
#
#
# Elastic Compliance Matrix: (Units=1/GPa)
#
#
# Indices 1 2 3 4 5 6 
#
# 1 0.007812 -0.000709 -0.005103 0.000000 -0.002925 0.000000
# 2 -0.000709 0.011969 0.004956 0.000001 0.006643 0.000001
# 3 -0.005103 0.004956 0.049153 0.000000 0.048179 0.000000
# 4 0.000000 0.000001 0.000000 0.128945 -0.000001 0.049766
# 5 -0.002925 0.006643 0.048179 -0.000001 0.081197 0.000000
# 6 0.000000 0.000001 0.000000 0.049766 0.000000 0.064287
#
#
# Mechanical properties :
#
#
# Convention : Reuss Voigt Hill
#
# Bulk Modulus (GPa) = 14.87595 36.21101 25.54348
# Shear Modulus (GPa) = 13.60611 29.87534 21.74072
#
# Velocity S-wave (km/s) = 2.36343 3.50212 2.98753
# Velocity P-wave (km/s) = 3.68169 5.58740 4.73148
#
# Compressibility (1/GPa) = 0.06722260
#
# Stress axis : x y z
#
# Youngs Moduli (GPa) = 128.00094 83.55219 20.34460
#
# Poissons Ratio (x) = 0.05920 0.10382
# Poissons Ratio (y) = 0.09069 -0.10082
# Poissons Ratio (z) = 0.65319 -0.41407
#
# Static dielectric constant tensor:
#      x y z
#    x 2.058160 0.000000 0.102940 
#    y 0.000000 2.068910 0.000000 
#    z 0.102940 0.000000 2.283960 
# 
# From -- ./inp_files/297774.got.cif
#   From: 2010.05.17/outbox.cif.g08.bks.cpg/sg15_149_cif.got.tgz:297774.got - 2010.06.03 18:47:42.
