data_PCOD9278869
_publ_section_title
;
Structure prediction by ZEFSAII (Michael W. Deem and Ramdas Pophale) SiO2 
 PCOD9278869
Probable space group: C 2/C
;
_chemical_formula_sum "Si O2"
_cell_formula_units_Z 56
_cell_length_a 17.652920
_cell_length_b 12.393156
_cell_length_c 17.848657
_cell_angle_alpha 90.000000
_cell_angle_beta 139.807141
_cell_angle_gamma 90.000000
_cell_volume 2520.041724
_symmetry_space_group_name_H-M "C 2/C"
_symmetry_group_IT_number 15
_symmetry_cell_setting 'monoclinic'
loop_
_space_group_symop_operation_xyz
x,y,z
-x,y,1/2-z
-x,-y,-z
x,-y,1/2+z
1/2+x,1/2+y,z
1/2-x,1/2+y,1/2-z
1/2-x,1/2-y,-z
1/2+x,1/2-y,1/2+z
loop_
_atom_site_type_symbol
_atom_site_label
_atom_site_fract_x
_atom_site_fract_y
_atom_site_fract_z
Si Si1 0.323568 0.368069 0.965400
Si Si2 0.044991 0.976895 0.208563
Si Si3 0.132929 0.395035 0.514718
Si Si4 0.640805 0.053985 0.858673
Si Si5 0.774729 0.362157 0.396429
Si Si6 0.639889 0.104555 0.694870
Si Si7 0.727646 0.396558 0.744750
O O1 0.216221 0.443450 0.912766
O O2 0.315392 0.240313 0.973640
O O3 0.323222 0.370363 0.874690
O O4 0.439563 0.421567 0.085626
O O5 0.139196 0.888746 0.308738
O O6 0.000000 0.034841 0.250000
O O7 0.120124 0.049169 0.208844
O O8 0.167432 0.379241 0.454137
O O9 0.154499 0.526092 0.537645
O O10 0.206517 0.337925 0.636079
O O11 0.996096 0.370208 0.420221
O O12 0.500000 0.031791 0.750000
O O13 0.669008 0.118584 0.803850
O O14 0.785785 0.340481 0.314829
O O15 0.668214 0.979084 0.701261
#
# Coordination Sequence:
#
# PCOD9278869 Si02
#       7
#     8   8   8   8   8   8   8
#     4  11  21  33  51  73 103 132 158 198 250 302
#     4  10  21  35  50  70 100 134 165 201 241 291
#     4   9  16  31  52  73  97 126 164 207 242 280
#     4   9  18  31  52  77  96 127 167 204 243 287
#     4  10  21  32  48  76 102 127 160 203 251 289
#     4   8  16  32  51  71  98 129 167 201 234 287
#     4   9  18  32  49  70  95 133 173 194 230 293
#
# _framework density 22.221854
#
# number of rings (size 3 to 8) (size 9 to 14) (size 15 to 20)
#    0.000    2.857    0.000    3.857    0.000    7.429 
#    0.000    0.000    0.000    3.429    0.000    0.000 
#    0.000    1.143    0.000    0.000    0.000    0.000 
#
# Total GULP energy -155902.762588 kJ/mol
# GULP energy per Si atom -5567.955807 kJ/mol
# Density = 2.217128 g / cm^3
# Si number density = 22.221854 Si / 1000 Ang^3
#
#
#
# Elastic Constant Matrix: (Units=GPa)
#
#
# Indices 1 2 3 4 5 6 
#
# 1 120.2006 -2.8019 21.1365 0.0000 -28.0401 0.0000
# 2 -2.8019 9.9313 -8.7651 0.0000 5.2264 0.0000
# 3 21.1365 -8.7651 68.2353 0.0000 -20.4951 0.0000
# 4 0.0000 0.0000 0.0000 -0.0496 0.0000 -6.3617
# 5 -28.0401 5.2264 -20.4951 0.0000 42.0975 0.0000
# 6 0.0000 0.0000 0.0000 -6.3617 0.0000 -7.8823
#
#
#
# Elastic Compliance Matrix: (Units=1/GPa)
#
#
# Indices 1 2 3 4 5 6 
#
# 1 0.009969 -0.001710 -0.001464 0.000000 0.006140 0.000000
# 2 -0.001710 0.116327 0.012641 0.000000 -0.009427 0.000000
# 3 -0.001464 0.012641 0.018703 0.000000 0.006561 0.000000
# 4 0.000000 0.000000 0.000000 0.196663 0.000000 -0.158723
# 5 0.006140 -0.009427 0.006561 0.000000 0.032209 0.000000
# 6 0.000000 0.000000 0.000000 -0.158723 0.000000 0.001236
#
#
# Mechanical properties :
#
#
# Convention : Reuss Voigt Hill
#
# Bulk Modulus (GPa) = 6.10004 24.16735 15.13370
# Shear Modulus (GPa) = 12.17086 19.41962 15.79524
#
# Velocity S-wave (km/s) = 2.34283 2.95938 2.66897
# Velocity P-wave (km/s) = 3.17325 4.75146 4.04017
#
# Compressibility (1/GPa) = 0.16393343
#
# Stress axis : x y z
#
# Youngs Moduli (GPa) = 100.30832 8.59648 53.46713
#
# Poissons Ratio (x) = 0.01470 0.07825
# Poissons Ratio (y) = 0.17156 -0.67588
# Poissons Ratio (z) = 0.14681 -0.10867
#
# Static dielectric constant tensor:
#      x y z
#    x 1.844920 0.000000 -0.080370 
#    y 0.000000 1.890090 0.000000 
#    z -0.080370 0.000000 1.827060 
# 
# From -- ./inp_files/211232.got.cif
#   From: 2010.05.17/outbox.cif.g08.bks.cpg/sg15_106_cif.got.tgz:211232.got - 2010.06.03 18:47:42.
