data_PCOD9278771
_publ_section_title
;
Structure prediction by ZEFSAII (Michael W. Deem and Ramdas Pophale) SiO2 
 PCOD9278771
Probable space group: C 2/C
;
_chemical_formula_sum "Si O2"
_cell_formula_units_Z 60
_cell_length_a 31.552836
_cell_length_b 8.952309
_cell_length_c 11.275813
_cell_angle_alpha 90.000000
_cell_angle_beta 75.328590
_cell_angle_gamma 90.000000
_cell_volume 3081.235074
_symmetry_space_group_name_H-M "C 2/C"
_symmetry_group_IT_number 15
_symmetry_cell_setting 'monoclinic'
loop_
_space_group_symop_operation_xyz
x,y,z
-x,y,1/2-z
-x,-y,-z
x,-y,1/2+z
1/2+x,1/2+y,z
1/2-x,1/2+y,1/2-z
1/2-x,1/2-y,-z
1/2+x,1/2-y,1/2+z
loop_
_atom_site_type_symbol
_atom_site_label
_atom_site_fract_x
_atom_site_fract_y
_atom_site_fract_z
Si Si1 0.654126 0.270298 0.334902
Si Si2 0.411399 0.430238 0.288603
Si Si3 0.299119 0.774610 0.921836
Si Si4 0.000000 0.196175 0.750000
Si Si5 0.354448 0.586031 0.038528
Si Si6 0.868179 0.466574 0.445560
Si Si7 0.892437 0.259949 0.209091
Si Si8 0.540914 0.101289 0.015395
O O1 0.614612 0.303876 0.268842
O O2 0.694960 0.226104 0.223827
O O3 0.658245 0.430330 0.394951
O O4 0.644870 0.145775 0.439129
O O5 0.461573 0.404531 0.226958
O O6 0.400624 0.419157 0.436203
O O7 0.398881 0.597061 0.261340
O O8 0.329520 0.911940 0.948427
O O9 0.250000 0.750000 0.000000
O O10 0.322226 0.626396 0.956082
O O11 0.020192 0.294542 0.630879
O O12 0.357501 0.719389 0.130955
O O13 0.875659 0.375829 0.318140
O O14 0.916055 0.527692 0.451948
O O15 0.936459 0.318193 0.113837
O O16 0.500000 0.000000 0.000000
#
# Coordination Sequence:
#
# PCOD9278771 Si02
#       8
#     8   8   8   4   8   8   8   8
#     4  10  22  42  68  92 124 172 215 260 327 394
#     4  10  21  39  66  88 126 173 223 266 323 388
#     4  11  25  43  68  99 130 162 211 271 332 399
#     4  12  22  38  56  90 132 170 216 278 320 374
#     4  10  20  46  65  89 129 171 214 264 330 391
#     4  12  23  43  69  97 131 175 220 267 339 394
#     4  11  22  40  67  92 125 180 217 269 330 389
#     4  12  24  38  59  92 135 173 220 271 326 391
#
# _framework density 19.472709999999999
#
# number of rings (size 3 to 8) (size 9 to 14) (size 15 to 20)
#    0.000    1.067    4.000    3.200    0.000    2.667 
#    0.000    0.667    0.000    0.000    0.000    0.000 
#    0.000    0.000    0.000    0.000    0.000    0.000 
#
# Total GULP energy -167249.842036 kJ/mol
# GULP energy per Si atom -5574.994735 kJ/mol
# Density = 1.942839 g / cm^3
# Si number density = 19.472710 Si / 1000 Ang^3
#
#
#
# Elastic Constant Matrix: (Units=GPa)
#
#
# Indices 1 2 3 4 5 6 
#
# 1 62.4440 35.0647 41.3290 0.0000 -23.0004 0.0000
# 2 35.0647 89.2296 56.1646 0.0000 -8.5514 0.0000
# 3 41.3290 56.1646 149.7189 0.0000 -15.8491 0.0000
# 4 0.0000 0.0000 0.0000 -88.7030 0.0000 7.5358
# 5 -23.0004 -8.5514 -15.8491 0.0000 30.6012 0.0000
# 6 0.0000 0.0000 0.0000 7.5358 0.0000 19.9459
#
#
#
# Elastic Compliance Matrix: (Units=1/GPa)
#
#
# Indices 1 2 3 4 5 6 
#
# 1 0.029126 -0.007668 -0.003251 0.000000 0.018065 0.000000
# 2 -0.007668 0.016741 -0.004526 0.000000 -0.003430 0.000000
# 3 -0.003251 -0.004526 0.009397 0.000000 0.001159 0.000000
# 4 0.000000 0.000000 0.000000 -0.010923 0.000000 0.004127
# 5 0.018065 -0.003430 0.001159 0.000000 0.045898 0.000000
# 6 0.000000 0.000000 0.000000 0.004127 0.000000 0.048576
#
#
# Mechanical properties :
#
#
# Convention : Reuss Voigt Hill
#
# Bulk Modulus (GPa) = 41.02907 62.94543 51.98725
# Shear Modulus (GPa) = 28.11661 3.62445 15.87053
#
# Velocity S-wave (km/s) = 3.80399 1.36577 2.85794
# Velocity P-wave (km/s) = 6.35685 5.90612 6.13562
#
# Compressibility (1/GPa) = 0.02437296
#
# Stress axis : x y z
#
# Youngs Moduli (GPa) = 34.33355 59.73454 106.41366
#
# Poissons Ratio (x) = 0.45804 0.34597
# Poissons Ratio (y) = 0.26327 0.48167
# Poissons Ratio (z) = 0.11163 0.27038
#
# Static dielectric constant tensor:
#      x y z
#    x 1.744710 0.000000 -0.003990 
#    y 0.000000 1.692520 0.000000 
#    z -0.003990 0.000000 1.760680 
# 
# From -- ./inp_files/125878.got.cif
#   From: 2010.05.17/outbox.cif.g08.bks.cpg/sg15_63_cif.got.tgz:125878.got - 2010.06.03 18:47:42.
