data_PCOD9278101
_publ_section_title
;
Structure prediction by ZEFSAII (Michael W. Deem and Ramdas Pophale) SiO2 
 PCOD9278101
Probable space group: C 2/C
;
_chemical_formula_sum "Si O2"
_cell_formula_units_Z 40
_cell_length_a 10.233047
_cell_length_b 10.675014
_cell_length_c 25.340082
_cell_angle_alpha 90.000000
_cell_angle_beta 138.214168
_cell_angle_gamma 90.000000
_cell_volume 1844.516770
_symmetry_space_group_name_H-M "C 2/C"
_symmetry_group_IT_number 15
_symmetry_cell_setting 'monoclinic'
loop_
_space_group_symop_operation_xyz
x,y,z
-x,y,1/2-z
-x,-y,-z
x,-y,1/2+z
1/2+x,1/2+y,z
1/2-x,1/2+y,1/2-z
1/2-x,1/2-y,-z
1/2+x,1/2-y,1/2+z
loop_
_atom_site_type_symbol
_atom_site_label
_atom_site_fract_x
_atom_site_fract_y
_atom_site_fract_z
Si Si1 0.426030 0.404357 0.022054
Si Si2 0.805348 0.149176 0.261596
Si Si3 0.160395 0.636600 0.536115
Si Si4 0.286141 0.898984 0.209322
Si Si5 0.262112 0.426949 0.628391
O O1 0.322050 0.285016 0.963581
O O2 0.618757 0.374796 0.115196
O O3 0.500000 0.500000 0.000000
O O4 0.265623 0.435414 0.018836
O O5 0.753691 0.296446 0.246139
O O6 0.722023 0.043543 0.275203
O O7 0.747002 0.105750 0.184920
O O8 0.040243 0.132237 0.334631
O O9 0.256846 0.575774 0.616315
O O10 0.928562 0.617532 0.460517
O O11 0.500000 0.872600 0.250000
#
# Coordination Sequence:
#
# PCOD9278101 Si02
#       5
#     8   8   8   8   8
#     4  11  24  40  63  94 131 167 219 273 320 392
#     4  11  23  44  68  94 134 170 221 270 332 388
#     4  10  21  41  65  89 128 168 215 261 332 382
#     4  12  25  44  67  97 134 173 218 272 329 389
#     4  10  20  42  66  89 126 175 209 270 324 388
#
# _framework density 21.685896
#
# number of rings (size 3 to 8) (size 9 to 14) (size 15 to 20)
#    0.000    1.200    6.000    0.000    2.800    1.600 
#    3.600    2.000    0.000    0.000    0.000    0.000 
#    0.000    0.000    0.000    0.000    0.000    0.000 
#
# Total GULP energy -111530.838472 kJ/mol
# GULP energy per Si atom -5576.541924 kJ/mol
# Density = 2.163654 g / cm^3
# Si number density = 21.685896 Si / 1000 Ang^3
#
#
#
# Elastic Constant Matrix: (Units=GPa)
#
#
# Indices 1 2 3 4 5 6 
#
# 1 61.3545 38.6986 13.0469 0.0000 7.6567 0.0000
# 2 38.6986 81.8333 14.6926 0.0000 -5.7484 0.0000
# 3 13.0469 14.6926 71.5244 0.0000 21.7458 0.0000
# 4 0.0000 0.0000 0.0000 39.5404 0.0000 -11.6510
# 5 7.6567 -5.7484 21.7458 0.0000 21.1572 0.0000
# 6 0.0000 0.0000 0.0000 -11.6510 0.0000 28.6527
#
#
#
# Elastic Compliance Matrix: (Units=1/GPa)
#
#
# Indices 1 2 3 4 5 6 
#
# 1 0.026860 -0.014476 0.003237 0.000000 -0.016980 0.000000
# 2 -0.014476 0.021760 -0.007592 0.000000 0.018954 0.000000
# 3 0.003237 -0.007592 0.023176 0.000000 -0.027055 0.000000
# 4 0.000000 0.000000 0.000000 0.028733 0.000000 0.011684
# 5 -0.016980 0.018954 -0.027055 0.000000 0.086368 0.000000
# 6 0.000000 0.000000 0.000000 0.011684 0.000000 0.039652
#
#
# Mechanical properties :
#
#
# Convention : Reuss Voigt Hill
#
# Bulk Modulus (GPa) = 29.29689 38.62093 33.95891
# Shear Modulus (GPa) = 18.14296 27.75502 22.94899
#
# Velocity S-wave (km/s) = 2.89558 3.58140 3.25660
# Velocity P-wave (km/s) = 4.97174 5.91184 5.46205
#
# Compressibility (1/GPa) = 0.03413332
#
# Stress axis : x y z
#
# Youngs Moduli (GPa) = 37.23016 45.95570 43.14810
#
# Poissons Ratio (x) = 0.66525 -0.13965
# Poissons Ratio (y) = 0.53894 0.32759
# Poissons Ratio (z) = -0.12050 0.34890
#
# Static dielectric constant tensor:
#      x y z
#    x 1.818220 0.000000 -0.003300 
#    y 0.000000 1.931830 0.000000 
#    z -0.003300 0.000000 1.761750 
# 
# From -- ./inp_files/310139.got.cif
#   From: 2010.05.17/outbox.cif.g08.bks.cpg/sg15_156_cif.got.tgz:310139.got - 2010.06.03 18:47:42.
