data_PCOD9278148
_publ_section_title
;
Structure prediction by ZEFSAII (Michael W. Deem and Ramdas Pophale) SiO2 
 PCOD9278148
Probable space group: C 2/C
;
_chemical_formula_sum "Si O2"
_cell_formula_units_Z 44
_cell_length_a 15.399921
_cell_length_b 13.484772
_cell_length_c 10.637903
_cell_angle_alpha 90.000000
_cell_angle_beta 100.857712
_cell_angle_gamma 90.000000
_cell_volume 2169.566457
_symmetry_space_group_name_H-M "C 2/C"
_symmetry_group_IT_number 15
_symmetry_cell_setting 'monoclinic'
loop_
_space_group_symop_operation_xyz
x,y,z
-x,y,1/2-z
-x,-y,-z
x,-y,1/2+z
1/2+x,1/2+y,z
1/2-x,1/2+y,1/2-z
1/2-x,1/2-y,-z
1/2+x,1/2-y,1/2+z
loop_
_atom_site_type_symbol
_atom_site_label
_atom_site_fract_x
_atom_site_fract_y
_atom_site_fract_z
Si Si1 0.838495 0.363516 0.103115
Si Si2 0.840348 0.770961 0.363112
Si Si3 0.014578 0.883349 0.498506
Si Si4 0.052901 0.449225 0.897913
Si Si5 0.349258 0.752577 0.577205
Si Si6 0.000000 0.766162 0.750000
O O1 0.745728 0.339080 0.141832
O O2 0.865439 0.477458 0.107201
O O3 0.917092 0.303156 0.192725
O O4 0.834153 0.317885 0.961744
O O5 0.844512 0.732007 0.224333
O O6 0.928181 0.832779 0.415124
O O7 0.099593 0.848154 0.443297
O O8 0.023112 0.835673 0.638861
O O9 0.000000 0.000000 0.500000
O O10 0.089411 0.343172 0.953664
O O11 0.000000 0.440554 0.750000
O O12 0.000000 0.500000 0.000000
O O13 0.250000 0.750000 0.500000
#
# Coordination Sequence:
#
# PCOD9278148 Si02
#       6
#     8   8   8   8   8   4
#     4  10  21  42  71 101 131 179 222 285 348 412
#     4  10  23  44  66  95 142 172 225 280 342 412
#     4  11  25  42  67  95 133 185 220 278 337 405
#     4  12  25  43  75 103 137 182 233 288 357 415
#     4  12  27  45  67 103 141 176 231 288 342 409
#     4  10  20  42  66  96 132 170 226 276 336 408
#
# _framework density 20.280550000000002
#
# number of rings (size 3 to 8) (size 9 to 14) (size 15 to 20)
#    0.000    1.091    0.909    6.000    7.636    0.000 
#    0.000    0.000    0.000    0.000    0.000    0.000 
#    0.000    0.000    0.000    0.000    0.000    0.000 
#
# Total GULP energy -123081.375537 kJ/mol
# GULP energy per Si atom -5594.607979 kJ/mol
# Density = 2.023439 g / cm^3
# Si number density = 20.280550 Si / 1000 Ang^3
#
#
#
# Elastic Constant Matrix: (Units=GPa)
#
#
# Indices 1 2 3 4 5 6 
#
# 1 116.5838 22.9290 28.0190 0.0000 0.3472 0.0000
# 2 22.9290 101.4988 5.5232 0.0000 3.3769 0.0000
# 3 28.0190 5.5232 97.9278 0.0000 -0.4899 0.0000
# 4 0.0000 0.0000 0.0000 14.6848 0.0000 -0.0881
# 5 0.3472 3.3769 -0.4899 0.0000 17.9638 0.0000
# 6 0.0000 0.0000 0.0000 -0.0881 0.0000 32.7890
#
#
#
# Elastic Compliance Matrix: (Units=1/GPa)
#
#
# Indices 1 2 3 4 5 6 
#
# 1 0.009610 -0.002032 -0.002634 0.000000 0.000124 0.000000
# 2 -0.002032 0.010376 -0.000013 0.000000 -0.001912 0.000000
# 3 -0.002634 -0.000013 0.010968 0.000000 0.000353 0.000000
# 4 0.000000 0.000000 0.000000 0.068099 0.000000 0.000183
# 5 0.000124 -0.001912 0.000353 0.000000 0.056034 0.000000
# 6 0.000000 0.000000 0.000000 0.000183 0.000000 0.030499
#
#
# Mechanical properties :
#
#
# Convention : Reuss Voigt Hill
#
# Bulk Modulus (GPa) = 46.30838 47.66142 46.98490
# Shear Modulus (GPa) = 24.73511 30.39013 27.56262
#
# Velocity S-wave (km/s) = 3.49613 3.87523 3.69055
# Velocity P-wave (km/s) = 6.25945 6.60116 6.43257
#
# Compressibility (1/GPa) = 0.02159437
#
# Stress axis : x y z
#
# Youngs Moduli (GPa) = 104.05981 96.37973 91.17540
#
# Poissons Ratio (x) = 0.19581 0.24019
# Poissons Ratio (y) = 0.21142 0.00123
# Poissons Ratio (z) = 0.27413 0.00130
#
# Static dielectric constant tensor:
#      x y z
#    x 1.710670 0.000000 -0.013820 
#    y 0.000000 1.716470 0.000000 
#    z -0.013820 0.000000 1.710650 
# 
# From -- ./inp_files/95079.got.cif
#   From: 2010.05.17/outbox.cif.g08.bks.cpg/sg15_48_cif.got.tgz:95079.got - 2010.06.03 18:47:42.
