data_PCOD9278229
_publ_section_title
;
Structure prediction by ZEFSAII (Michael W. Deem and Ramdas Pophale) SiO2 
 PCOD9278229
Probable space group: C 2/C
;
_chemical_formula_sum "Si O2"
_cell_formula_units_Z 60
_cell_length_a 31.717684
_cell_length_b 8.596029
_cell_length_c 11.257987
_cell_angle_alpha 90.000000
_cell_angle_beta 108.781464
_cell_angle_gamma 90.000000
_cell_volume 2906.009217
_symmetry_space_group_name_H-M "C 2/C"
_symmetry_group_IT_number 15
_symmetry_cell_setting 'monoclinic'
loop_
_space_group_symop_operation_xyz
x,y,z
-x,y,1/2-z
-x,-y,-z
x,-y,1/2+z
1/2+x,1/2+y,z
1/2-x,1/2+y,1/2-z
1/2-x,1/2-y,-z
1/2+x,1/2-y,1/2+z
loop_
_atom_site_type_symbol
_atom_site_label
_atom_site_fract_x
_atom_site_fract_y
_atom_site_fract_z
Si Si1 0.716797 0.394638 0.497441
Si Si2 0.000000 0.633873 0.750000
Si Si3 0.903291 0.356653 0.433263
Si Si4 0.488352 0.320408 0.981806
Si Si5 0.739811 0.608613 0.294971
Si Si6 0.143105 0.670200 0.368137
Si Si7 0.444767 0.888926 0.826573
Si Si8 0.189280 0.428325 0.257732
O O1 0.750000 0.250000 0.500000
O O2 0.724887 0.522192 0.402126
O O3 0.720787 0.431001 0.642916
O O4 0.668349 0.325739 0.425991
O O5 0.997900 0.743030 0.631976
O O6 0.959811 0.513390 0.740433
O O7 0.882202 0.385483 0.539865
O O8 0.935357 0.498118 0.428294
O O9 0.859082 0.354116 0.312021
O O10 0.935736 0.209703 0.453335
O O11 0.500000 0.500000 0.000000
O O12 0.516242 0.229128 0.107698
O O13 0.790707 0.549687 0.321340
O O14 0.724695 0.787742 0.297708
O O15 0.102793 0.690632 0.239576
O O16 0.178505 0.541449 0.357432
#
# Coordination Sequence:
#
# PCOD9278229 Si02
#       8
#     8   4   8   8   8   8   8   8
#     4  12  24  46  68  96 142 180 236 294 355 422
#     4  10  20  42  68  92 128 184 226 264 348 440
#     4  10  21  41  64  92 137 175 229 275 337 435
#     4  11  24  41  67 102 137 169 224 295 352 415
#     4  12  24  46  69  99 136 186 236 291 361 413
#     4  11  21  41  67  94 136 177 228 289 338 415
#     4  10  21  38  67  95 126 179 228 266 342 433
#     4  11  23  40  69  98 132 183 237 284 348 411
#
# _framework density 20.646874
#
# number of rings (size 3 to 8) (size 9 to 14) (size 15 to 20)
#    0.000    1.067    4.000    3.200    0.000    3.200 
#    4.800    2.667    0.000    0.000    0.000    0.000 
#    0.000    0.000    0.000    0.000    0.000    0.000 
#
# Total GULP energy -167118.642273 kJ/mol
# GULP energy per Si atom -5570.621409 kJ/mol
# Density = 2.059988 g / cm^3
# Si number density = 20.646874 Si / 1000 Ang^3
#
#
#
# Elastic Constant Matrix: (Units=GPa)
#
#
# Indices 1 2 3 4 5 6 
#
# 1 113.7567 53.9489 27.7189 0.0000 -5.0321 0.0000
# 2 53.9489 97.1795 44.8341 0.0000 15.8233 0.0000
# 3 27.7189 44.8341 96.6290 0.0000 -8.9951 0.0000
# 4 0.0000 0.0000 0.0000 21.4235 0.0000 9.1872
# 5 -5.0321 15.8233 -8.9951 0.0000 44.9001 0.0000
# 6 0.0000 0.0000 0.0000 9.1872 0.0000 33.9368
#
#
#
# Elastic Compliance Matrix: (Units=1/GPa)
#
#
# Indices 1 2 3 4 5 6 
#
# 1 0.012625 -0.007916 0.000451 0.000000 0.004295 0.000000
# 2 -0.007916 0.019822 -0.007805 0.000000 -0.009436 0.000000
# 3 0.000451 -0.007805 0.014369 0.000000 0.005680 0.000000
# 4 0.000000 0.000000 0.000000 0.052808 0.000000 -0.014296
# 5 0.004295 -0.009436 0.005680 0.000000 0.027216 0.000000
# 6 0.000000 0.000000 0.000000 -0.014296 0.000000 0.033337
#
#
# Mechanical properties :
#
#
# Convention : Reuss Voigt Hill
#
# Bulk Modulus (GPa) = 61.43604 62.28544 61.86074
# Shear Modulus (GPa) = 25.49160 32.12295 28.80727
#
# Velocity S-wave (km/s) = 3.51757 3.94868 3.73934
# Velocity P-wave (km/s) = 6.80573 7.14296 6.97638
#
# Compressibility (1/GPa) = 0.01627709
#
# Stress axis : x y z
#
# Youngs Moduli (GPa) = 79.20780 50.44872 69.59251
#
# Poissons Ratio (x) = 0.39937 -0.03140
# Poissons Ratio (y) = 0.62703 0.54315
# Poissons Ratio (z) = -0.03574 0.39374
#
# Static dielectric constant tensor:
#      x y z
#    x 1.764920 0.000000 0.039680 
#    y 0.000000 1.718710 0.000000 
#    z 0.039680 0.000000 1.897650 
# 
# From -- ./inp_files/125940.got.cif
#   From: 2010.05.17/outbox.cif.g08.bks.cpg/sg15_63_cif.got.tgz:125940.got - 2010.06.03 18:47:42.
