data_PCOD9278720
_publ_section_title
;
Structure prediction by ZEFSAII (Michael W. Deem and Ramdas Pophale) SiO2 
 PCOD9278720
Probable space group: C 2/C
;
_chemical_formula_sum "Si O2"
_cell_formula_units_Z 44
_cell_length_a 14.099064
_cell_length_b 12.268679
_cell_length_c 12.292371
_cell_angle_alpha 90.000000
_cell_angle_beta 107.150694
_cell_angle_gamma 90.000000
_cell_volume 2031.744998
_symmetry_space_group_name_H-M "C 2/C"
_symmetry_group_IT_number 15
_symmetry_cell_setting 'monoclinic'
loop_
_space_group_symop_operation_xyz
x,y,z
-x,y,1/2-z
-x,-y,-z
x,-y,1/2+z
1/2+x,1/2+y,z
1/2-x,1/2+y,1/2-z
1/2-x,1/2-y,-z
1/2+x,1/2-y,1/2+z
loop_
_atom_site_type_symbol
_atom_site_label
_atom_site_fract_x
_atom_site_fract_y
_atom_site_fract_z
Si Si1 0.000000 0.779481 0.250000
Si Si2 0.936590 0.216236 0.331103
Si Si3 0.203049 0.650823 0.555535
Si Si4 0.607571 0.926056 0.808988
Si Si5 0.697437 0.502974 0.744007
Si Si6 0.042235 0.112632 0.555491
O O1 0.089672 0.697081 0.258640
O O2 0.979931 0.848142 0.137773
O O3 0.859213 0.294922 0.366728
O O4 0.000000 0.255211 0.250000
O O5 0.021101 0.192635 0.450422
O O6 0.875494 0.103815 0.278337
O O7 0.250000 0.750000 0.500000
O O8 0.134102 0.586904 0.444971
O O9 0.279298 0.564744 0.635374
O O10 0.500000 0.978984 0.750000
O O11 0.698269 0.971855 0.773276
O O12 0.648029 0.588190 0.643136
O O13 0.000000 0.000000 0.500000
#
# Coordination Sequence:
#
# PCOD9278720 Si02
#       6
#     4   8   8   8   8   8
#     4  10  20  44  74  96 134 194 246 276 372 430
#     4  11  25  44  68 108 148 180 235 305 359 413
#     4  12  24  45  76 101 144 193 238 288 368 431
#     4  10  23  44  72  99 138 189 241 284 355 428
#     4  11  26  39  72 108 135 181 247 294 351 430
#     4  10  23  38  67 104 136 179 236 302 351 416
#
# _framework density 21.656261000000001
#
# number of rings (size 3 to 8) (size 9 to 14) (size 15 to 20)
#    0.545    0.727    3.636    1.091    7.636    1.455 
#    0.000    2.727    0.000    0.000    0.000    0.000 
#    0.000    0.000    0.000    0.000    0.000    0.000 
#
# Total GULP energy -122718.245920 kJ/mol
# GULP energy per Si atom -5578.102087 kJ/mol
# Density = 2.160697 g / cm^3
# Si number density = 21.656261 Si / 1000 Ang^3
#
#
#
# Elastic Constant Matrix: (Units=GPa)
#
#
# Indices 1 2 3 4 5 6 
#
# 1 143.7714 40.9190 50.2267 0.0000 -1.5823 0.0000
# 2 40.9190 71.6550 40.6735 0.0000 -0.9676 0.0000
# 3 50.2267 40.6735 147.5130 0.0000 11.2830 0.0000
# 4 0.0000 0.0000 0.0000 28.9227 0.0000 -9.9541
# 5 -1.5823 -0.9676 11.2830 0.0000 51.5180 0.0000
# 6 0.0000 0.0000 0.0000 -9.9541 0.0000 43.2188
#
#
#
# Elastic Compliance Matrix: (Units=1/GPa)
#
#
# Indices 1 2 3 4 5 6 
#
# 1 0.008750 -0.003877 -0.001958 0.000000 0.000625 0.000000
# 2 -0.003877 0.018353 -0.003822 0.000000 0.001063 0.000000
# 3 -0.001958 -0.003822 0.008655 0.000000 -0.002027 0.000000
# 4 0.000000 0.000000 0.000000 0.037552 0.000000 0.008649
# 5 0.000625 0.001063 -0.002027 0.000000 0.019894 0.000000
# 6 0.000000 0.000000 0.000000 0.008649 0.000000 0.025130
#
#
# Mechanical properties :
#
#
# Convention : Reuss Voigt Hill
#
# Bulk Modulus (GPa) = 60.81065 69.61975 65.21520
# Shear Modulus (GPa) = 34.93380 40.13992 37.53686
#
# Velocity S-wave (km/s) = 4.02070 4.30990 4.16781
# Velocity P-wave (km/s) = 7.04951 7.54880 7.30343
#
# Compressibility (1/GPa) = 0.01644449
#
# Stress axis : x y z
#
# Youngs Moduli (GPa) = 114.28869 54.48608 115.54510
#
# Poissons Ratio (x) = 0.21123 0.22625
# Poissons Ratio (y) = 0.44306 0.44159
# Poissons Ratio (z) = 0.22379 0.20824
#
# Static dielectric constant tensor:
#      x y z
#    x 1.828060 0.000000 0.026170 
#    y 0.000000 1.826130 0.000000 
#    z 0.026170 0.000000 1.773810 
# 
# From -- ./inp_files/95720.got.cif
#   From: 2010.05.17/outbox.cif.g08.bks.cpg/sg15_48_cif.got.tgz:95720.got - 2010.06.03 18:47:42.
