data_PCOD9278480
_publ_section_title
;
Structure prediction by ZEFSAII (Michael W. Deem and Ramdas Pophale) SiO2 
 PCOD9278480
Probable space group: C 2/C
;
_chemical_formula_sum "Si O2"
_cell_formula_units_Z 48
_cell_length_a 18.477509
_cell_length_b 16.031694
_cell_length_c 8.922256
_cell_angle_alpha 90.000000
_cell_angle_beta 44.334493
_cell_angle_gamma 90.000000
_cell_volume 1847.051531
_symmetry_space_group_name_H-M "C 2/C"
_symmetry_group_IT_number 15
_symmetry_cell_setting 'monoclinic'
loop_
_space_group_symop_operation_xyz
x,y,z
-x,y,1/2-z
-x,-y,-z
x,-y,1/2+z
1/2+x,1/2+y,z
1/2-x,1/2+y,1/2-z
1/2-x,1/2-y,-z
1/2+x,1/2-y,1/2+z
loop_
_atom_site_type_symbol
_atom_site_label
_atom_site_fract_x
_atom_site_fract_y
_atom_site_fract_z
Si Si1 0.091620 0.770442 0.496029
Si Si2 0.353043 0.134583 0.328403
Si Si3 0.293658 0.546250 0.139529
Si Si4 0.170869 0.295004 0.300731
Si Si5 0.470649 0.361862 0.463439
Si Si6 0.331396 0.950148 0.377661
O O1 0.094939 0.697920 0.363783
O O2 0.206326 0.778043 0.393439
O O3 0.062202 0.853156 0.444622
O O4 0.000000 0.758234 0.750000
O O5 0.236751 0.119571 0.433803
O O6 0.350234 0.169808 0.499820
O O7 0.392944 0.037961 0.269619
O O8 0.404853 0.554302 0.046317
O O9 0.269540 0.465613 0.078270
O O10 0.207460 0.553594 0.396061
O O11 0.112607 0.208221 0.366564
O O12 0.128875 0.364364 0.246871
O O13 0.500000 0.341728 0.250000
#
# Coordination Sequence:
#
# PCOD9278480 Si02
#       6
#     8   8   8   8   8   8
#     4  12  26  41  67 103 133 169 222 279 325 385
#     4  10  20  43  67  91 133 174 211 266 332 379
#     4  10  21  40  65  96 128 171 213 267 329 385
#     4  12  22  46  70  93 135 174 220 276 323 391
#     4  12  25  41  70 100 126 176 227 264 331 393
#     4  10  21  39  72  93 126 184 211 262 345 382
#
# _framework density 25.987362999999998
#
# number of rings (size 3 to 8) (size 9 to 14) (size 15 to 20)
#    1.000    0.000    5.000    2.500    2.333    1.333 
#    0.000    5.833    0.000    0.000    0.000    0.000 
#    0.000    0.000    0.000    0.000    0.000    0.000 
#
# Total GULP energy -134240.795457 kJ/mol
# GULP energy per Si atom -5593.366477 kJ/mol
# Density = 2.592821 g / cm^3
# Si number density = 25.987363 Si / 1000 Ang^3
#
#
#
# Elastic Constant Matrix: (Units=GPa)
#
#
# Indices 1 2 3 4 5 6 
#
# 1 63.2953 10.5553 18.8111 0.0000 10.4668 0.0000
# 2 10.5553 94.7121 20.2395 0.0000 2.4533 0.0000
# 3 18.8111 20.2395 133.4499 0.0000 24.7504 0.0000
# 4 0.0000 0.0000 0.0000 22.9783 0.0000 1.7543
# 5 10.4668 2.4533 24.7504 0.0000 44.7468 0.0000
# 6 0.0000 0.0000 0.0000 1.7543 0.0000 41.7447
#
#
#
# Elastic Compliance Matrix: (Units=1/GPa)
#
#
# Indices 1 2 3 4 5 6 
#
# 1 0.017023 -0.001473 -0.001619 0.000000 -0.003006 0.000000
# 2 -0.001473 0.011045 -0.001581 0.000000 0.000614 0.000000
# 3 -0.001619 -0.001581 0.008775 0.000000 -0.004389 0.000000
# 4 0.000000 0.000000 0.000000 0.043659 0.000000 -0.001835
# 5 -0.003006 0.000614 -0.004389 0.000000 0.025445 0.000000
# 6 0.000000 0.000000 0.000000 -0.001835 0.000000 0.024032
#
#
# Mechanical properties :
#
#
# Convention : Reuss Voigt Hill
#
# Bulk Modulus (GPa) = 36.36858 43.40768 39.88813
# Shear Modulus (GPa) = 33.67211 38.01738 35.84474
#
# Velocity S-wave (km/s) = 3.60350 3.82896 3.71794
# Velocity P-wave (km/s) = 5.59810 6.02392 5.81491
#
# Compressibility (1/GPa) = 0.02749627
#
# Stress axis : x y z
#
# Youngs Moduli (GPa) = 58.74491 90.54273 113.95568
#
# Poissons Ratio (x) = 0.13340 0.18445
# Poissons Ratio (y) = 0.08655 0.18019
# Poissons Ratio (z) = 0.09508 0.14316
#
# Static dielectric constant tensor:
#      x y z
#    x 2.074740 0.000000 -0.042700 
#    y 0.000000 2.060400 0.000000 
#    z -0.042700 0.000000 2.020180 
# 
# From -- ./inp_files/57704.got.cif
#   From: 2010.05.17/outbox.cif.g08.bks.cpg/sg15_29_cif.got.tgz:57704.got - 2010.06.03 18:47:42.
