data_PCOD9278682
_publ_section_title
;
Structure prediction by ZEFSAII (Michael W. Deem and Ramdas Pophale) SiO2 
 PCOD9278682
Probable space group: C 2/C
;
_chemical_formula_sum "Si O2"
_cell_formula_units_Z 52
_cell_length_a 15.474982
_cell_length_b 17.986716
_cell_length_c 15.045155
_cell_angle_alpha 90.000000
_cell_angle_beta 153.844871
_cell_angle_gamma 90.000000
_cell_volume 1845.964182
_symmetry_space_group_name_H-M "C 2/C"
_symmetry_group_IT_number 15
_symmetry_cell_setting 'monoclinic'
loop_
_space_group_symop_operation_xyz
x,y,z
-x,y,1/2-z
-x,-y,-z
x,-y,1/2+z
1/2+x,1/2+y,z
1/2-x,1/2+y,1/2-z
1/2-x,1/2-y,-z
1/2+x,1/2-y,1/2+z
loop_
_atom_site_type_symbol
_atom_site_label
_atom_site_fract_x
_atom_site_fract_y
_atom_site_fract_z
Si Si1 0.393249 0.939303 0.486707
Si Si2 0.600525 0.658637 0.028603
Si Si3 0.544356 0.477650 0.394130
Si Si4 0.760235 0.793381 0.100034
Si Si5 0.062032 0.599466 0.947879
Si Si6 0.478273 0.644278 0.109087
Si Si7 0.500000 0.219963 0.750000
O O1 0.168045 0.966023 0.253993
O O2 0.381843 0.863742 0.532192
O O3 0.491995 0.912210 0.485475
O O4 0.453646 0.013313 0.595838
O O5 0.683610 0.578078 0.078307
O O6 0.463806 0.672426 0.817415
O O7 0.730666 0.731526 0.149303
O O8 0.476716 0.657988 0.003307
O O9 0.500000 0.461505 0.250000
O O10 0.609570 0.562964 0.455287
O O11 0.750000 0.750000 0.000000
O O12 0.953314 0.659615 0.786005
O O13 0.287474 0.629453 0.155061
O O14 0.404515 0.714879 0.097229
#
# Coordination Sequence:
#
# PCOD9278682 Si02
#       7
#     8   8   8   8   8   8   4
#     4   9  21  44  71  96 143 183 234 289 356 425
#     4  11  24  40  69 101 139 184 228 293 353 424
#     4  10  20  44  70 104 135 183 241 295 349 424
#     4  11  23  43  66 103 135 179 236 293 350 415
#     4  10  23  46  67 102 139 190 233 290 357 428
#     4  11  24  42  70 102 141 185 238 296 357 423
#     4  12  24  44  70 104 142 188 242 292 356 422
#
# _framework density 28.169561000000002
#
# number of rings (size 3 to 8) (size 9 to 14) (size 15 to 20)
#    0.000    1.538    0.769    4.154    4.308    0.000 
#    8.308    7.692    0.000    0.000    0.000    0.000 
#    0.000    0.000    0.000    0.000    0.000    0.000 
#
# Total GULP energy -145281.739326 kJ/mol
# GULP energy per Si atom -5587.759205 kJ/mol
# Density = 2.810545 g / cm^3
# Si number density = 28.169561 Si / 1000 Ang^3
#
#
#
# Elastic Constant Matrix: (Units=GPa)
#
#
# Indices 1 2 3 4 5 6 
#
# 1 143.0333 102.3595 27.4117 -0.0002 -33.5394 0.0000
# 2 102.3595 308.6774 56.7996 -0.0001 -21.0777 0.0000
# 3 27.4117 56.7996 87.8355 -0.0005 -10.2991 -0.0001
# 4 -0.0002 -0.0001 -0.0005 10.2327 -0.0003 -25.9970
# 5 -33.5394 -21.0777 -10.2991 -0.0003 46.9305 -0.0001
# 6 0.0000 0.0000 -0.0001 -25.9970 -0.0001 61.7593
#
#
#
# Elastic Compliance Matrix: (Units=1/GPa)
#
#
# Indices 1 2 3 4 5 6 
#
# 1 0.010719 -0.003009 -0.000677 -0.000005 0.006161 -0.000002
# 2 -0.003009 0.004585 -0.002090 0.000002 -0.000550 0.000001
# 3 -0.000677 -0.002090 0.013118 -0.000010 0.001456 -0.000004
# 4 -0.000005 0.000002 -0.000010 -1.407582 -0.000015 -0.592508
# 5 0.006161 -0.000550 0.001456 -0.000015 0.025783 -0.000006
# 6 -0.000002 0.000001 -0.000004 -0.592508 -0.000006 -0.233219
#
#
# Mechanical properties :
#
#
# Convention : Reuss Voigt Hill
#
# Bulk Modulus (GPa) = 59.27763 101.40975 80.34369
# Shear Modulus (GPa) = -3.18589 47.31620 22.06515
#
# Velocity S-wave (km/s) = -1.06462 4.10285 2.80178
# Velocity P-wave (km/s) = 4.42466 7.65000 6.24900
#
# Compressibility (1/GPa) = 0.01686977
#
# Stress axis : x y z
#
# Youngs Moduli (GPa) = 93.28998 218.12344 76.22844
#
# Poissons Ratio (x) = 0.65641 0.05160
# Poissons Ratio (y) = 0.28074 0.15932
# Poissons Ratio (z) = 0.06315 0.45588
#
# Static dielectric constant tensor:
#      x y z
#    x 2.266130 0.000000 0.197030 
#    y 0.000000 2.946940 0.000000 
#    z 0.197030 0.000000 2.364520 
# 
# From -- ./inp_files/155544.got.cif
#   From: 2010.05.17/outbox.cif.g08.bks.cpg/sg15_78_cif.got.tgz:155544.got - 2010.06.03 18:47:42.
