data_PCOD9278746
_publ_section_title
;
Structure prediction by ZEFSAII (Michael W. Deem and Ramdas Pophale) SiO2 
 PCOD9278746
Probable space group: C 2/C
;
_chemical_formula_sum "Si O2"
_cell_formula_units_Z 44
_cell_length_a 22.180314
_cell_length_b 7.697236
_cell_length_c 14.672281
_cell_angle_alpha 90.000000
_cell_angle_beta 44.096825
_cell_angle_gamma 90.000000
_cell_volume 1743.131356
_symmetry_space_group_name_H-M "C 2/C"
_symmetry_group_IT_number 15
_symmetry_cell_setting 'monoclinic'
loop_
_space_group_symop_operation_xyz
x,y,z
-x,y,1/2-z
-x,-y,-z
x,-y,1/2+z
1/2+x,1/2+y,z
1/2-x,1/2+y,1/2-z
1/2-x,1/2-y,-z
1/2+x,1/2-y,1/2+z
loop_
_atom_site_type_symbol
_atom_site_label
_atom_site_fract_x
_atom_site_fract_y
_atom_site_fract_z
Si Si1 0.718563 0.761640 0.276480
Si Si2 0.135156 0.159476 0.186823
Si Si3 0.500000 0.569904 0.750000
Si Si4 0.888920 0.377249 0.599502
Si Si5 0.038836 0.496900 0.304278
Si Si6 0.689645 0.374306 0.005017
O O1 0.678163 0.650503 0.238407
O O2 0.821490 0.771827 0.146539
O O3 0.715937 0.658743 0.373990
O O4 0.662936 0.937495 0.347323
O O5 0.113581 0.360410 0.197559
O O6 0.043992 0.055731 0.277911
O O7 0.192054 0.065334 0.047783
O O8 0.586368 0.663198 0.620594
O O9 0.924141 0.360984 0.665213
O O10 0.967592 0.398477 0.444079
O O11 0.000000 0.544873 0.250000
O O12 0.750000 0.250000 0.000000
#
# Coordination Sequence:
#
# PCOD9278746 Si02
#       6
#     8   8   4   8   8   8
#     4  11  23  43  66  99 140 178 223 290 336 405
#     4   9  20  41  69  96 130 178 231 271 340 404
#     4   8  20  40  62 100 130 176 228 274 332 410
#     4  10  25  41  66 101 134 178 231 276 348 404
#     4  10  20  45  68  95 131 180 229 283 334 407
#     4  10  21  41  64 101 140 172 229 281 344 408
#
# _framework density 25.24193
#
# number of rings (size 3 to 8) (size 9 to 14) (size 15 to 20)
#    1.091    1.091    0.909    1.091    0.000    6.545 
#   11.455    3.636    0.000    0.000    0.000    0.000 
#    0.000    0.000    0.000    0.000    0.000    0.000 
#
# Total GULP energy -122975.044409 kJ/mol
# GULP energy per Si atom -5589.774746 kJ/mol
# Density = 2.518448 g / cm^3
# Si number density = 25.241930 Si / 1000 Ang^3
#
#
#
# Elastic Constant Matrix: (Units=GPa)
#
#
# Indices 1 2 3 4 5 6 
#
# 1 190.7629 18.8809 56.2405 -0.0022 17.4618 0.0030
# 2 18.8809 57.7868 21.6354 -0.0030 10.9025 0.0034
# 3 56.2405 21.6354 89.7477 0.0012 -0.0170 -0.0015
# 4 -0.0022 -0.0030 0.0012 36.2264 -0.0003 -17.0786
# 5 17.4618 10.9025 -0.0170 -0.0003 64.1738 0.0005
# 6 0.0030 0.0034 -0.0015 -17.0786 0.0005 26.6512
#
#
#
# Elastic Compliance Matrix: (Units=1/GPa)
#
#
# Indices 1 2 3 4 5 6 
#
# 1 0.006638 -0.000308 -0.004086 0.000000 -0.001755 -0.000001
# 2 -0.000308 0.019731 -0.004564 0.000001 -0.003270 -0.000002
# 3 -0.004086 -0.004564 0.014803 0.000000 0.001891 0.000002
# 4 0.000000 0.000001 0.000000 0.039554 0.000000 0.025347
# 5 -0.001755 -0.003270 0.001891 0.000000 0.016616 0.000000
# 6 -0.000001 -0.000002 0.000002 0.025347 0.000000 0.053764
#
#
# Mechanical properties :
#
#
# Convention : Reuss Voigt Hill
#
# Bulk Modulus (GPa) = 42.99851 59.09010 51.04431
# Shear Modulus (GPa) = 28.28461 41.51299 34.89880
#
# Velocity S-wave (km/s) = 3.35108 4.05977 3.72233
# Velocity P-wave (km/s) = 5.66079 6.74062 6.22417
#
# Compressibility (1/GPa) = 0.02325662
#
# Stress axis : x y z
#
# Youngs Moduli (GPa) = 150.65332 50.68077 67.55265
#
# Poissons Ratio (x) = 0.01561 0.27600
# Poissons Ratio (y) = 0.04640 0.30833
# Poissons Ratio (z) = 0.61551 0.23132
#
# Static dielectric constant tensor:
#      x y z
#    x 1.978610 0.000000 0.021870 
#    y 0.000000 2.089670 0.000020 
#    z 0.021870 0.000020 0.246260 
# 
# From -- ./inp_files/171693.got.cif
#   From: 2010.05.17/outbox.cif.g08.bks.cpg/sg15_86_cif.got.tgz:171693.got - 2010.06.03 18:47:42.
