data_PCOD9278436
_publ_section_title
;
Structure prediction by ZEFSAII (Michael W. Deem and Ramdas Pophale) SiO2 
 PCOD9278436
Probable space group: C 2/C
;
_chemical_formula_sum "Si O2"
_cell_formula_units_Z 48
_cell_length_a 17.617805
_cell_length_b 9.602452
_cell_length_c 11.552998
_cell_angle_alpha 90.000000
_cell_angle_beta 78.311303
_cell_angle_gamma 90.000000
_cell_volume 1913.938141
_symmetry_space_group_name_H-M "C 2/C"
_symmetry_group_IT_number 15
_symmetry_cell_setting 'monoclinic'
loop_
_space_group_symop_operation_xyz
x,y,z
-x,y,1/2-z
-x,-y,-z
x,-y,1/2+z
1/2+x,1/2+y,z
1/2-x,1/2+y,1/2-z
1/2-x,1/2-y,-z
1/2+x,1/2-y,1/2+z
loop_
_atom_site_type_symbol
_atom_site_label
_atom_site_fract_x
_atom_site_fract_y
_atom_site_fract_z
Si Si1 0.819562 0.371950 0.853219
Si Si2 0.079296 0.770409 0.362654
Si Si3 0.531506 0.034112 0.117706
Si Si4 0.666073 0.692730 0.066558
Si Si5 0.420329 0.595730 0.206332
Si Si6 0.158276 0.114097 0.485576
O O1 0.858650 0.328896 0.721684
O O2 0.876169 0.481455 0.898254
O O3 0.730624 0.411655 0.875656
O O4 0.825395 0.240128 0.935682
O O5 0.103207 0.765608 0.489306
O O6 0.997153 0.696199 0.366775
O O7 0.088053 0.926203 0.308518
O O8 0.500000 0.971387 0.250000
O O9 0.500000 0.000000 0.000000
O O10 0.638553 0.701040 0.207625
O O11 0.750000 0.750000 0.000000
O O12 0.659756 0.524765 0.058748
O O13 0.500000 0.613156 0.250000
O O14 0.415288 0.637870 0.073115
#
# Coordination Sequence:
#
# PCOD9278436 Si02
#       6
#     8   8   8   8   8   8
#     4  10  20  43  64  91 131 180 226 266 349 424
#     4  10  22  41  68  92 134 176 224 275 346 411
#     4  10  23  43  68  99 135 186 234 290 354 418
#     4  11  24  40  65  98 136 169 228 286 339 402
#     4  11  23  41  65  98 130 173 225 286 338 408
#     4  10  23  39  65  92 128 179 220 275 343 414
#
# _framework density 25.079180000000001
#
# number of rings (size 3 to 8) (size 9 to 14) (size 15 to 20)
#    0.000    1.667    1.667    2.500    4.667    1.333 
#    3.000    0.000    0.000    0.000    0.000    0.000 
#    0.000    0.000    0.000    0.000    0.000    0.000 
#
# Total GULP energy -133902.488677 kJ/mol
# GULP energy per Si atom -5579.270362 kJ/mol
# Density = 2.502210 g / cm^3
# Si number density = 25.079180 Si / 1000 Ang^3
#
#
#
# Elastic Constant Matrix: (Units=GPa)
#
#
# Indices 1 2 3 4 5 6 
#
# 1 74.3662 -0.7235 2.4540 0.0000 17.5096 0.0000
# 2 -0.7235 55.3383 26.3043 0.0000 5.9739 0.0000
# 3 2.4540 26.3043 101.5107 0.0000 20.2015 0.0000
# 4 0.0000 0.0000 0.0000 35.9265 0.0000 1.5704
# 5 17.5096 5.9739 20.2015 0.0000 38.9921 0.0000
# 6 0.0000 0.0000 0.0000 1.5704 0.0000 27.9829
#
#
#
# Elastic Compliance Matrix: (Units=1/GPa)
#
#
# Indices 1 2 3 4 5 6 
#
# 1 0.015160 0.000537 0.000965 0.000000 -0.007390 0.000000
# 2 0.000537 0.020635 -0.005221 0.000000 -0.000698 0.000000
# 3 0.000965 -0.005221 0.012385 0.000000 -0.006050 0.000000
# 4 0.000000 0.000000 0.000000 0.027903 0.000000 -0.001566
# 5 -0.007390 -0.000698 -0.006050 0.000000 0.032206 0.000000
# 6 0.000000 0.000000 0.000000 -0.001566 0.000000 0.035824
#
#
# Mechanical properties :
#
#
# Convention : Reuss Voigt Hill
#
# Bulk Modulus (GPa) = 24.54463 31.92052 28.23258
# Shear Modulus (GPa) = 30.27886 34.12566 32.20226
#
# Velocity S-wave (km/s) = 3.47844 3.69279 3.58722
# Velocity P-wave (km/s) = 5.09321 5.56218 5.33285
#
# Compressibility (1/GPa) = 0.04074210
#
# Stress axis : x y z
#
# Youngs Moduli (GPa) = 65.96143 48.46175 80.74425
#
# Poissons Ratio (x) = -0.02604 -0.07792
# Poissons Ratio (y) = -0.03544 0.42158
# Poissons Ratio (z) = -0.06365 0.25303
#
# Static dielectric constant tensor:
#      x y z
#    x 2.032130 0.000000 -0.109320 
#    y 0.000000 2.057720 0.000000 
#    z -0.109320 0.000000 2.169980 
# 
# From -- ./inp_files/103648.got.cif
#   From: 2010.05.17/outbox.cif.g08.bks.cpg/sg15_52_cif.got.tgz:103648.got - 2010.06.03 18:47:42.
