data_PCOD9278349
_publ_section_title
;
Structure prediction by ZEFSAII (Michael W. Deem and Ramdas Pophale) SiO2 
 PCOD9278349
Probable space group: C 2/C
;
_chemical_formula_sum "Si O2"
_cell_formula_units_Z 32
_cell_length_a 7.461244
_cell_length_b 11.686504
_cell_length_c 17.420144
_cell_angle_alpha 90.000000
_cell_angle_beta 48.312442
_cell_angle_gamma 90.000000
_cell_volume 1134.336217
_symmetry_space_group_name_H-M "C 2/C"
_symmetry_group_IT_number 15
_symmetry_cell_setting 'monoclinic'
loop_
_space_group_symop_operation_xyz
x,y,z
-x,y,1/2-z
-x,-y,-z
x,-y,1/2+z
1/2+x,1/2+y,z
1/2-x,1/2+y,1/2-z
1/2-x,1/2-y,-z
1/2+x,1/2-y,1/2+z
loop_
_atom_site_type_symbol
_atom_site_label
_atom_site_fract_x
_atom_site_fract_y
_atom_site_fract_z
Si Si1 0.672251 0.068102 0.530924
Si Si2 0.327236 0.472527 0.641505
Si Si3 0.750120 0.336437 0.222193
Si Si4 0.439949 0.825560 0.898712
O O1 0.812495 0.061867 0.574182
O O2 0.543438 0.944102 0.559196
O O3 0.476529 0.165475 0.600274
O O4 0.905957 0.065744 0.411329
O O5 0.211727 0.544188 0.742590
O O6 0.188959 0.366445 0.643561
O O7 0.500000 0.352506 0.250000
O O8 0.682338 0.239044 0.304274
O O9 0.250000 0.750000 0.000000
#
# Coordination Sequence:
#
# PCOD9278349 Si02
#       4
#     8   8   8   8
#     4   9  20  41  69  92 134 177 226 279 337 399
#     4   9  20  42  70  92 135 179 225 281 332 404
#     4  12  24  37  66 103 139 174 221 285 338 405
#     4  10  20  42  71  95 129 180 227 280 338 386
#
# _framework density 28.210332000000001
#
# number of rings (size 3 to 8) (size 9 to 14) (size 15 to 20)
#    1.500    0.500    2.500    0.750    3.500    1.000 
#    0.000    6.250    0.000    0.000    0.000    0.000 
#    0.000    0.000    0.000    0.000    0.000    0.000 
#
# Total GULP energy -89384.561134 kJ/mol
# GULP energy per Si atom -5586.535071 kJ/mol
# Density = 2.814612 g / cm^3
# Si number density = 28.210332 Si / 1000 Ang^3
#
#
#
# Elastic Constant Matrix: (Units=GPa)
#
#
# Indices 1 2 3 4 5 6 
#
# 1 81.4866 23.3022 4.5402 -0.0003 -22.4843 0.0001
# 2 23.3022 152.1370 45.8655 -0.0003 -11.5739 0.0002
# 3 4.5402 45.8655 143.5761 -0.0007 -34.8159 0.0004
# 4 -0.0003 -0.0003 -0.0007 52.0419 0.0004 -3.9711
# 5 -22.4843 -11.5739 -34.8159 0.0004 51.4417 -0.0001
# 6 0.0001 0.0002 0.0004 -3.9711 -0.0001 49.5555
#
#
#
# Elastic Compliance Matrix: (Units=1/GPa)
#
#
# Indices 1 2 3 4 5 6 
#
# 1 0.014857 -0.002337 0.002062 0.000000 0.007364 0.000000
# 2 -0.002337 0.007641 -0.002630 0.000000 -0.001082 0.000000
# 3 0.002062 -0.002630 0.009349 0.000000 0.006637 0.000000
# 4 0.000000 0.000000 0.000000 0.019334 0.000000 0.001549
# 5 0.007364 -0.001082 0.006637 0.000000 0.026907 0.000000
# 6 0.000000 0.000000 0.000000 0.001549 0.000000 0.020304
#
#
# Mechanical properties :
#
#
# Convention : Reuss Voigt Hill
#
# Bulk Modulus (GPa) = 38.40317 58.29062 48.34690
# Shear Modulus (GPa) = 44.29469 50.84061 47.56765
#
# Velocity S-wave (km/s) = 3.96682 4.24984 4.11076
# Velocity P-wave (km/s) = 5.88418 6.69247 6.30130
#
# Compressibility (1/GPa) = 0.02603952
#
# Stress axis : x y z
#
# Youngs Moduli (GPa) = 67.30696 130.86562 106.96035
#
# Poissons Ratio (x) = 0.30586 -0.22060
# Poissons Ratio (y) = 0.15731 0.28125
# Poissons Ratio (z) = -0.13882 0.34411
#
# Static dielectric constant tensor:
#      x y z
#    x 2.247250 0.000000 0.097020 
#    y 0.000000 2.232760 0.000000 
#    z 0.097020 0.000000 2.289400 
# 
# From -- ./inp_files/230923.got.cif
#   From: 2010.05.17/outbox.cif.g08.bks.cpg/sg15_116_cif.got.tgz:230923.got - 2010.06.03 18:47:42.
