data_PCOD9278789
_publ_section_title
;
Structure prediction by ZEFSAII (Michael W. Deem and Ramdas Pophale) SiO2 
 PCOD9278789
Probable space group: C 2/C
;
_chemical_formula_sum "Si O2"
_cell_formula_units_Z 52
_cell_length_a 10.106752
_cell_length_b 9.390095
_cell_length_c 26.534080
_cell_angle_alpha 90.000000
_cell_angle_beta 122.072869
_cell_angle_gamma 90.000000
_cell_volume 2133.833286
_symmetry_space_group_name_H-M "C 2/C"
_symmetry_group_IT_number 15
_symmetry_cell_setting 'monoclinic'
loop_
_space_group_symop_operation_xyz
x,y,z
-x,y,1/2-z
-x,-y,-z
x,-y,1/2+z
1/2+x,1/2+y,z
1/2-x,1/2+y,1/2-z
1/2-x,1/2-y,-z
1/2+x,1/2-y,1/2+z
loop_
_atom_site_type_symbol
_atom_site_label
_atom_site_fract_x
_atom_site_fract_y
_atom_site_fract_z
Si Si1 0.587002 0.944765 0.678230
Si Si2 0.728260 0.468424 0.111215
Si Si3 0.822952 0.753927 0.958173
Si Si4 0.214907 0.152616 0.713093
Si Si5 0.325838 0.804960 0.964945
Si Si6 0.205941 0.019270 0.870532
Si Si7 0.000000 0.130240 0.250000
O O1 0.413858 0.002908 0.650684
O O2 0.713192 0.046189 0.731504
O O3 0.643843 0.965720 0.632014
O O4 0.594007 0.781142 0.698879
O O5 0.656365 0.587366 0.059956
O O6 0.670886 0.446345 0.156692
O O7 0.696966 0.316618 0.080815
O O8 0.722943 0.678922 0.893489
O O9 0.750000 0.750000 0.000000
O O10 0.989452 0.674950 0.992618
O O11 0.358939 0.260125 0.729687
O O12 0.223319 0.936082 0.926077
O O13 0.250000 0.750000 0.000000
O O14 0.057755 0.970181 0.807622
#
# Coordination Sequence:
#
# PCOD9278789 Si02
#       7
#     8   8   8   8   8   8   4
#     4  11  23  44  72 104 148 197 248 308 386 458
#     4  12  24  45  70 104 150 189 248 317 376 448
#     4  12  28  46  72 113 151 196 258 318 374 452
#     4  11  23  43  71 105 149 199 244 309 391 459
#     4  12  24  49  75 100 146 205 249 308 380 453
#     4  11  24  45  72 107 145 194 255 307 375 463
#     4  10  20  46  70 104 146 188 250 314 388 450
#
# _framework density 24.369288000000001
#
# number of rings (size 3 to 8) (size 9 to 14) (size 15 to 20)
#    0.000    0.615    4.615    3.692    2.154    2.462 
#    2.769    0.000    0.000    0.000    0.000    0.000 
#    0.000    0.000    0.000    0.000    0.000    0.000 
#
# Total GULP energy -145393.144985 kJ/mol
# GULP energy per Si atom -5592.044038 kJ/mol
# Density = 2.431382 g / cm^3
# Si number density = 24.369288 Si / 1000 Ang^3
#
#
#
# Elastic Constant Matrix: (Units=GPa)
#
#
# Indices 1 2 3 4 5 6 
#
# 1 65.9527 15.3038 58.5820 0.0000 5.6333 0.0000
# 2 15.3038 96.8311 21.0100 0.0000 5.2718 0.0000
# 3 58.5820 21.0100 98.9378 0.0000 12.7889 0.0000
# 4 0.0000 0.0000 0.0000 68.3819 0.0000 -4.7668
# 5 5.6333 5.2718 12.7889 0.0000 51.3655 0.0000
# 6 0.0000 0.0000 0.0000 -4.7668 0.0000 24.4407
#
#
#
# Elastic Compliance Matrix: (Units=1/GPa)
#
#
# Indices 1 2 3 4 5 6 
#
# 1 0.032160 -0.001033 -0.018992 0.000000 0.001308 0.000000
# 2 -0.001033 0.010875 -0.001620 0.000000 -0.000599 0.000000
# 3 -0.018992 -0.001620 0.022118 0.000000 -0.003258 0.000000
# 4 0.000000 0.000000 0.000000 0.014825 0.000000 0.002891
# 5 0.001308 -0.000599 -0.003258 0.000000 0.020198 0.000000
# 6 0.000000 0.000000 0.000000 0.002891 0.000000 0.041479
#
#
# Mechanical properties :
#
#
# Convention : Reuss Voigt Hill
#
# Bulk Modulus (GPa) = 45.74112 50.16814 47.95463
# Shear Modulus (GPa) = 26.01035 39.95933 32.98484
#
# Velocity S-wave (km/s) = 3.27056 4.05376 3.68304
# Velocity P-wave (km/s) = 5.75090 6.52242 6.14877
#
# Compressibility (1/GPa) = 0.02186217
#
# Stress axis : x y z
#
# Youngs Moduli (GPa) = 31.09493 91.95655 45.21284
#
# Poissons Ratio (x) = 0.09501 0.85866
# Poissons Ratio (y) = 0.03213 0.07325
# Poissons Ratio (z) = 0.59054 0.14898
#
# Static dielectric constant tensor:
#      x y z
#    x 1.953100 0.000000 0.041360 
#    y 0.000000 1.954420 0.000000 
#    z 0.041360 0.000000 1.895480 
# 
# From -- ./inp_files/291678.got.cif
#   From: 2010.05.17/outbox.cif.g08.bks.cpg/sg15_146_cif.got.tgz:291678.got - 2010.06.03 18:47:42.
