data_PCOD9278790
_publ_section_title
;
Structure prediction by ZEFSAII (Michael W. Deem and Ramdas Pophale) SiO2 
 PCOD9278790
Probable space group: C 2/C
;
_chemical_formula_sum "Si O2"
_cell_formula_units_Z 20
_cell_length_a 15.991121
_cell_length_b 5.035591
_cell_length_c 9.023741
_cell_angle_alpha 90.000000
_cell_angle_beta 88.802969
_cell_angle_gamma 90.000000
_cell_volume 726.475867
_symmetry_space_group_name_H-M "C 2/C"
_symmetry_group_IT_number 15
_symmetry_cell_setting 'monoclinic'
loop_
_space_group_symop_operation_xyz
x,y,z
-x,y,1/2-z
-x,-y,-z
x,-y,1/2+z
1/2+x,1/2+y,z
1/2-x,1/2+y,1/2-z
1/2-x,1/2-y,-z
1/2+x,1/2-y,1/2+z
loop_
_atom_site_type_symbol
_atom_site_label
_atom_site_fract_x
_atom_site_fract_y
_atom_site_fract_z
Si Si1 0.893270 0.264532 0.484210
Si Si2 0.000000 0.606078 0.250000
Si Si3 0.258582 0.542677 0.849314
O O1 0.950976 0.227110 0.626600
O O2 0.817376 0.448585 0.545143
O O3 0.847457 0.003993 0.424608
O O4 0.940916 0.414458 0.350658
O O5 0.243146 0.828267 0.782773
#
# Coordination Sequence:
#
# PCOD9278790 Si02
#       3
#     8   4   8
#     4  10  22  42  75 100 150 181 241 284 362 411
#     4  10  20  46  70 110 142 188 230 302 350 418
#     4  11  24  47  74 107 138 191 236 291 344 431
#
# _framework density 27.530163000000002
#
# number of rings (size 3 to 8) (size 9 to 14) (size 15 to 20)
#    0.000    1.600    4.000    0.000    0.000    6.400 
#    0.000    6.000    0.000    0.000    0.000    0.000 
#    0.000    0.000    0.000    0.000    0.000    0.000 
#
# Total GULP energy -56211.910228 kJ/mol
# GULP energy per Si atom -5621.191023 kJ/mol
# Density = 2.746750 g / cm^3
# Si number density = 27.530163 Si / 1000 Ang^3
#
#
#
# Elastic Constant Matrix: (Units=GPa)
#
#
# Indices 1 2 3 4 5 6 
#
# 1 158.6293 13.0958 82.6859 0.0000 35.8218 0.0000
# 2 13.0958 72.5250 32.8170 0.0000 34.8401 0.0000
# 3 82.6859 32.8170 177.1200 0.0000 18.3057 0.0000
# 4 0.0000 0.0000 0.0000 47.7470 0.0000 -6.8334
# 5 35.8218 34.8401 18.3057 0.0000 96.9623 0.0000
# 6 0.0000 0.0000 0.0000 -6.8334 0.0000 9.1486
#
#
#
# Elastic Compliance Matrix: (Units=1/GPa)
#
#
# Indices 1 2 3 4 5 6 
#
# 1 0.009095 0.001825 -0.004252 0.000000 -0.003213 0.000000
# 2 0.001825 0.018210 -0.003549 0.000000 -0.006547 0.000000
# 3 -0.004252 -0.003549 0.008154 0.000000 0.001307 0.000000
# 4 0.000000 0.000000 0.000000 0.023451 0.000000 0.017516
# 5 -0.003213 -0.006547 0.001307 0.000000 0.013606 0.000000
# 6 0.000000 0.000000 0.000000 0.017516 0.000000 0.122390
#
#
# Mechanical properties :
#
#
# Convention : Reuss Voigt Hill
#
# Bulk Modulus (GPa) = 42.54131 73.94130 58.24131
# Shear Modulus (GPa) = 23.28898 49.41661 36.35280
#
# Velocity S-wave (km/s) = 2.91167 4.24134 3.63777
# Velocity P-wave (km/s) = 5.17590 7.13455 6.23265
#
# Compressibility (1/GPa) = 0.02350656
#
# Stress axis : x y z
#
# Youngs Moduli (GPa) = 109.94576 54.91437 122.64646
#
# Poissons Ratio (x) = -0.10024 0.52151
# Poissons Ratio (y) = -0.20069 0.43533
# Poissons Ratio (z) = 0.46751 0.19492
#
# Static dielectric constant tensor:
#      x y z
#    x 2.178890 0.000000 0.042940 
#    y 0.000000 2.068560 0.000000 
#    z 0.042940 0.000000 2.144950 
# 
# From -- ./inp_files/19010.got.cif
#   From: 2010.05.17/outbox.cif.g08.bks.cpg/sg15_10_cif.got.tgz:19010.got - 2010.06.03 18:47:42.
