data_PCOD9278316
_publ_section_title
;
Structure prediction by ZEFSAII (Michael W. Deem and Ramdas Pophale) SiO2 
 PCOD9278316
Probable space group: C 2/C
;
_chemical_formula_sum "Si O2"
_cell_formula_units_Z 40
_cell_length_a 8.747906
_cell_length_b 20.825463
_cell_length_c 17.905986
_cell_angle_alpha 90.000000
_cell_angle_beta 32.488757
_cell_angle_gamma 90.000000
_cell_volume 1752.184118
_symmetry_space_group_name_H-M "C 2/C"
_symmetry_group_IT_number 15
_symmetry_cell_setting 'monoclinic'
loop_
_space_group_symop_operation_xyz
x,y,z
-x,y,1/2-z
-x,-y,-z
x,-y,1/2+z
1/2+x,1/2+y,z
1/2-x,1/2+y,1/2-z
1/2-x,1/2-y,-z
1/2+x,1/2-y,1/2+z
loop_
_atom_site_type_symbol
_atom_site_label
_atom_site_fract_x
_atom_site_fract_y
_atom_site_fract_z
Si Si1 0.140938 0.452704 0.270596
Si Si2 0.687979 0.236885 0.909954
Si Si3 0.199027 0.590090 0.300930
Si Si4 0.878955 0.148119 0.970296
Si Si5 0.210788 0.371576 0.969646
O O1 0.269807 0.516651 0.253577
O O2 0.377954 0.399158 0.156949
O O3 0.000000 0.469458 0.250000
O O4 0.910186 0.421755 0.421155
O O5 0.768193 0.191404 0.947243
O O6 0.000000 0.253204 0.750000
O O7 0.534015 0.300584 0.003107
O O8 0.477771 0.192895 0.947854
O O9 0.448899 0.635329 0.166342
O O10 0.176174 0.600196 0.399615
O O11 0.894368 0.607354 0.392286
#
# Coordination Sequence:
#
# PCOD9278316 Si02
#       5
#     8   8   8   8   8
#     4  12  25  42  65 101 140 173 215 273 337 397
#     4  10  20  42  70  92 131 170 225 273 317 390
#     4  10  23  42  70  98 135 171 224 269 332 396
#     4  10  23  42  65  99 130 173 216 269 334 385
#     4  10  22  43  69 101 125 178 227 274 322 391
#
# _framework density 22.82865
#
# number of rings (size 3 to 8) (size 9 to 14) (size 15 to 20)
#    0.000    1.600    2.000    1.800    0.000   10.400 
#   10.800    2.000    0.000    0.000    0.000    0.000 
#    0.000    0.000    0.000    0.000    0.000    0.000 
#
# Total GULP energy -111864.306918 kJ/mol
# GULP energy per Si atom -5593.215346 kJ/mol
# Density = 2.277669 g / cm^3
# Si number density = 22.828650 Si / 1000 Ang^3
#
#
#
# Elastic Constant Matrix: (Units=GPa)
#
#
# Indices 1 2 3 4 5 6 
#
# 1 40.7526 -2.3476 13.0500 0.0027 5.0696 -0.0055
# 2 -2.3476 65.8549 26.9655 0.0026 6.2013 0.0051
# 3 13.0500 26.9655 130.0089 -0.0209 -7.5988 -0.0291
# 4 0.0027 0.0026 -0.0209 44.5564 -0.0152 9.5581
# 5 5.0696 6.2013 -7.5988 -0.0152 16.2582 0.0001
# 6 -0.0055 0.0051 -0.0291 9.5581 0.0001 3.8388
#
#
#
# Elastic Compliance Matrix: (Units=1/GPa)
#
#
# Indices 1 2 3 4 5 6 
#
# 1 0.027640 0.003880 -0.004287 -0.000018 -0.012102 0.000048
# 2 0.003880 0.018264 -0.004786 0.000010 -0.010413 -0.000080
# 3 -0.004287 -0.004786 0.009561 -0.000017 0.007631 0.000115
# 4 -0.000018 0.000010 -0.000017 0.048175 0.000039 -0.119950
# 5 -0.012102 -0.010413 0.007631 0.000039 0.072819 -0.000045
# 6 0.000048 -0.000080 0.000115 -0.119950 -0.000045 0.559162
#
#
# Mechanical properties :
#
#
# Convention : Reuss Voigt Hill
#
# Bulk Modulus (GPa) = 22.18324 34.66135 28.42230
# Shear Modulus (GPa) = 6.57003 26.19391 16.38197
#
# Velocity S-wave (km/s) = 1.69830 3.39102 2.68172
# Velocity P-wave (km/s) = 3.68565 5.52705 4.69746
#
# Compressibility (1/GPa) = 0.04507907
#
# Stress axis : x y z
#
# Youngs Moduli (GPa) = 36.17944 54.75380 104.59375
#
# Poissons Ratio (x) = -0.21245 0.44835
# Poissons Ratio (y) = -0.14038 0.50061
# Poissons Ratio (z) = 0.15509 0.26206
#
# Static dielectric constant tensor:
#      x y z
#    x 1.893910 0.000000 -0.013290 
#    y 0.000000 1.818980 0.000010 
#    z -0.013290 0.000010 1.839920 
# 
# From -- ./inp_files/193410.got.cif
#   From: 2010.05.17/outbox.cif.g08.bks.cpg/sg15_97_cif.got.tgz:193410.got - 2010.06.03 18:47:42.
