data_PCOD9278959
_publ_section_title
;
Structure prediction by ZEFSAII (Michael W. Deem and Ramdas Pophale) SiO2 
 PCOD9278959
Probable space group: C 2/C
;
_chemical_formula_sum "Si O2"
_cell_formula_units_Z 64
_cell_length_a 31.173737
_cell_length_b 19.575676
_cell_length_c 5.251091
_cell_angle_alpha 90.000000
_cell_angle_beta 108.052648
_cell_angle_gamma 90.000000
_cell_volume 3046.713653
_symmetry_space_group_name_H-M "C 2/C"
_symmetry_group_IT_number 15
_symmetry_cell_setting 'monoclinic'
loop_
_space_group_symop_operation_xyz
x,y,z
-x,y,1/2-z
-x,-y,-z
x,-y,1/2+z
1/2+x,1/2+y,z
1/2-x,1/2+y,1/2-z
1/2-x,1/2-y,-z
1/2+x,1/2-y,1/2+z
loop_
_atom_site_type_symbol
_atom_site_label
_atom_site_fract_x
_atom_site_fract_y
_atom_site_fract_z
Si Si1 0.693601 0.768505 0.482853
Si Si2 0.514009 0.753900 0.524974
Si Si3 0.749054 0.955301 0.005241
Si Si4 0.813860 0.148049 0.361160
Si Si5 0.316743 0.155367 0.039967
Si Si6 0.618839 0.256383 0.193839
Si Si7 0.623742 0.456633 0.790617
Si Si8 0.025278 0.103425 0.047038
O O1 0.793466 0.705888 0.210666
O O2 0.641456 0.745349 0.454766
O O3 0.712166 0.702582 0.367556
O O4 0.694884 0.827210 0.272333
O O5 0.500000 0.793576 0.250000
O O6 0.566044 0.731708 0.610256
O O7 0.482661 0.685345 0.468942
O O8 0.500000 0.792639 0.750000
O O9 0.783417 0.893750 0.003752
O O10 0.755072 0.991544 0.286510
O O11 0.700064 0.919045 0.918986
O O12 0.852310 0.189014 0.589244
O O13 0.836640 0.093908 0.215199
O O14 0.367834 0.181325 0.172595
O O15 0.625945 0.482726 0.084329
O O16 0.576652 0.418367 0.655789
O O17 0.000000 0.077911 0.750000
O O18 0.000000 0.077755 0.250000
#
# Coordination Sequence:
#
# PCOD9278959 Si02
#       8
#     8   8   8   8   8   8   8   8
#     4   9  21  36  66  88 114 154 200 256 310 353
#     4  10  21  33  56  86 118 150 190 247 315 360
#     4  12  27  43  63  90 128 164 202 251 302 362
#     4  11  24  40  63  86 119 158 215 257 312 350
#     4   9  21  41  62  91 122 154 201 249 306 377
#     4   9  22  38  64  89 119 158 201 253 315 361
#     4  12  27  39  54  72 110 161 212 250 287 347
#     4  10  21  35  52  69  97 139 192 249 292 336
#
# _framework density 21.006239000000001
#
# number of rings (size 3 to 8) (size 9 to 14) (size 15 to 20)
#    0.750    1.000    0.000    3.750   10.500    4.000 
#    0.000    0.000    0.000    0.000    0.000    0.000 
#    0.000    3.000    0.000    0.000    0.000    0.000 
#
# Total GULP energy -178594.176824 kJ/mol
# GULP energy per Si atom -5581.068026 kJ/mol
# Density = 2.095843 g / cm^3
# Si number density = 21.006239 Si / 1000 Ang^3
#
#
#
# Elastic Constant Matrix: (Units=GPa)
#
#
# Indices 1 2 3 4 5 6 
#
# 1 55.2624 25.9307 17.3097 0.0000 -7.5617 0.0000
# 2 25.9307 46.3542 15.8331 0.0000 2.9073 0.0000
# 3 17.3097 15.8331 136.5643 0.0000 -20.5577 0.0000
# 4 0.0000 0.0000 0.0000 16.6517 0.0000 -6.5409
# 5 -7.5617 2.9073 -20.5577 0.0000 34.2419 0.0000
# 6 0.0000 0.0000 0.0000 -6.5409 0.0000 20.7245
#
#
#
# Elastic Compliance Matrix: (Units=1/GPa)
#
#
# Indices 1 2 3 4 5 6 
#
# 1 0.026165 -0.014856 -0.000588 0.000000 0.006687 0.000000
# 2 -0.014856 0.031360 -0.002911 0.000000 -0.007691 0.000000
# 3 -0.000588 -0.002911 0.008522 0.000000 0.005234 0.000000
# 4 0.000000 0.000000 0.000000 0.068552 0.000000 0.021636
# 5 0.006687 -0.007691 0.005234 0.000000 0.034476 0.000000
# 6 0.000000 0.000000 0.000000 0.021636 0.000000 0.055081
#
#
# Mechanical properties :
#
#
# Convention : Reuss Voigt Hill
#
# Bulk Modulus (GPa) = 34.08325 39.59200 36.83763
# Shear Modulus (GPa) = 18.47449 26.26411 22.36930
#
# Velocity S-wave (km/s) = 2.96881 3.53980 3.26680
# Velocity P-wave (km/s) = 5.29267 5.96620 5.63950
#
# Compressibility (1/GPa) = 0.02933992
#
# Stress axis : x y z
#
# Youngs Moduli (GPa) = 38.21882 31.88804 117.33837
#
# Poissons Ratio (x) = 0.47371 0.06894
# Poissons Ratio (y) = 0.56776 0.34152
# Poissons Ratio (z) = 0.02246 0.09281
#
# Static dielectric constant tensor:
#      x y z
#    x 1.806090 0.000000 -0.015100 
#    y 0.000000 1.778600 0.000000 
#    z -0.015100 0.000000 1.816420 
# 
# From -- ./inp_files/17452.got.cif
#   From: 2010.05.17/outbox.cif.g08.bks.cpg/sg15_9_cif.got.tgz:17452.got - 2010.06.03 18:47:42.
