data_PCOD9278664
_publ_section_title
;
Structure prediction by ZEFSAII (Michael W. Deem and Ramdas Pophale) SiO2 
 PCOD9278664
Probable space group: C 2/C
;
_chemical_formula_sum "Si O2"
_cell_formula_units_Z 52
_cell_length_a 16.644846
_cell_length_b 8.268172
_cell_length_c 14.216792
_cell_angle_alpha 90.000000
_cell_angle_beta 99.756162
_cell_angle_gamma 90.000000
_cell_volume 1928.253806
_symmetry_space_group_name_H-M "C 2/C"
_symmetry_group_IT_number 15
_symmetry_cell_setting 'monoclinic'
loop_
_space_group_symop_operation_xyz
x,y,z
-x,y,1/2-z
-x,-y,-z
x,-y,1/2+z
1/2+x,1/2+y,z
1/2-x,1/2+y,1/2-z
1/2-x,1/2-y,-z
1/2+x,1/2-y,1/2+z
loop_
_atom_site_type_symbol
_atom_site_label
_atom_site_fract_x
_atom_site_fract_y
_atom_site_fract_z
Si Si1 0.330124 0.416384 0.917205
Si Si2 0.032126 0.894950 0.420097
Si Si3 0.000000 0.579474 0.250000
Si Si4 0.281059 0.783961 0.887304
Si Si5 0.871765 0.915750 0.708245
Si Si6 0.172624 0.731195 0.317129
Si Si7 0.934249 0.429567 0.917563
O O1 0.311642 0.607795 0.924717
O O2 0.372262 0.387398 0.821474
O O3 0.240977 0.341941 0.894798
O O4 0.382285 0.343669 0.013434
O O5 0.051812 0.018540 0.338206
O O6 0.964254 0.754597 0.397212
O O7 0.000000 0.000000 0.500000
O O8 0.077685 0.680124 0.308387
O O9 0.045402 0.480662 0.177102
O O10 0.304560 0.820245 0.783905
O O11 0.344342 0.914732 0.943318
O O12 0.182949 0.789392 0.861861
O O13 0.817652 0.077799 0.687752
O O14 0.000000 0.500000 0.000000
#
# Coordination Sequence:
#
# PCOD9278664 Si02
#       7
#     8   8   4   8   8   8   8
#     4  10  22  41  64  98 134 166 222 277 322 399
#     4  12  25  42  65  98 128 176 225 269 329 397
#     4  10  20  44  68  92 126 174 210 268 330 388
#     4   9  20  41  63  91 135 167 208 272 328 383
#     4  10  22  41  66  93 125 180 217 266 334 390
#     4   9  19  37  69  93 121 171 223 259 322 399
#     4  11  24  42  66  96 131 169 218 271 323 388
#
# _framework density 26.967403999999998
#
# number of rings (size 3 to 8) (size 9 to 14) (size 15 to 20)
#    0.000    1.846    3.077    0.000    2.154    3.077 
#    5.538    0.000    0.000    0.923    0.000    0.000 
#    0.000    0.000    0.000    0.000    0.000    0.000 
#
# Total GULP energy -144973.797248 kJ/mol
# GULP energy per Si atom -5575.915279 kJ/mol
# Density = 2.690603 g / cm^3
# Si number density = 26.967404 Si / 1000 Ang^3
#
#
#
# Elastic Constant Matrix: (Units=GPa)
#
#
# Indices 1 2 3 4 5 6 
#
# 1 108.7594 18.9016 44.1429 0.0000 11.4941 0.0000
# 2 18.9016 26.9376 6.9645 0.0000 6.8520 0.0000
# 3 44.1429 6.9645 141.5656 0.0000 16.6798 0.0000
# 4 0.0000 0.0000 0.0000 28.2041 0.0000 17.6072
# 5 11.4941 6.8520 16.6798 0.0000 64.4473 0.0000
# 6 0.0000 0.0000 0.0000 17.6072 0.0000 40.2049
#
#
#
# Elastic Compliance Matrix: (Units=1/GPa)
#
#
# Indices 1 2 3 4 5 6 
#
# 1 0.011853 -0.007346 -0.003277 0.000000 -0.000485 0.000000
# 2 -0.007346 0.042996 0.000577 0.000000 -0.003411 0.000000
# 3 -0.003277 0.000577 0.008247 0.000000 -0.001611 0.000000
# 4 0.000000 0.000000 0.000000 0.048796 0.000000 -0.021370
# 5 -0.000485 -0.003411 -0.001611 0.000000 0.016383 0.000000
# 6 0.000000 0.000000 0.000000 -0.021370 0.000000 0.034231
#
#
# Mechanical properties :
#
#
# Convention : Reuss Voigt Hill
#
# Bulk Modulus (GPa) = 23.25408 46.36449 34.80928
# Shear Modulus (GPa) = 25.38931 40.38816 32.88873
#
# Velocity S-wave (km/s) = 3.07169 3.87417 3.49603
# Velocity P-wave (km/s) = 4.60674 6.10265 5.40668
#
# Compressibility (1/GPa) = 0.04300321
#
# Stress axis : x y z
#
# Youngs Moduli (GPa) = 84.36840 23.25806 121.25212
#
# Poissons Ratio (x) = 0.17086 0.39739
# Poissons Ratio (y) = 0.61979 -0.07000
# Poissons Ratio (z) = 0.27651 -0.01343
#
# Static dielectric constant tensor:
#      x y z
#    x 2.389850 0.000000 0.020310 
#    y 0.000000 2.190770 0.000000 
#    z 0.020310 0.000000 2.281510 
# 
# From -- ./inp_files/209222.got.cif
#   From: 2010.05.17/outbox.cif.g08.bks.cpg/sg15_105_cif.got.tgz:209222.got - 2010.06.03 18:47:42.
