data_PCOD9278526
_publ_section_title
;
Structure prediction by ZEFSAII (Michael W. Deem and Ramdas Pophale) SiO2 
 PCOD9278526
Probable space group: C 2/C
;
_chemical_formula_sum "Si O2"
_cell_formula_units_Z 48
_cell_length_a 10.035327
_cell_length_b 13.316533
_cell_length_c 24.004136
_cell_angle_alpha 90.000000
_cell_angle_beta 36.866196
_cell_angle_gamma 90.000000
_cell_volume 1924.520821
_symmetry_space_group_name_H-M "C 2/C"
_symmetry_group_IT_number 15
_symmetry_cell_setting 'monoclinic'
loop_
_space_group_symop_operation_xyz
x,y,z
-x,y,1/2-z
-x,-y,-z
x,-y,1/2+z
1/2+x,1/2+y,z
1/2-x,1/2+y,1/2-z
1/2-x,1/2-y,-z
1/2+x,1/2-y,1/2+z
loop_
_atom_site_type_symbol
_atom_site_label
_atom_site_fract_x
_atom_site_fract_y
_atom_site_fract_z
Si Si1 0.044486 0.689689 0.349538
Si Si2 0.339054 0.828452 0.032436
Si Si3 0.115689 0.852641 0.487187
Si Si4 0.941112 0.216202 0.152655
Si Si5 0.250263 0.910160 0.173496
Si Si6 0.946280 0.503620 0.829988
O O1 0.310084 0.690441 0.252557
O O2 0.919113 0.797175 0.389548
O O3 0.959002 0.640868 0.435686
O O4 0.959861 0.615812 0.329478
O O5 0.451620 0.721070 0.009571
O O6 0.363408 0.906337 0.074676
O O7 0.338514 0.782710 0.414542
O O8 0.015596 0.866946 0.582820
O O9 0.211050 0.951505 0.427049
O O10 0.763970 0.291264 0.183227
O O11 0.000000 0.945791 0.250000
O O12 0.376260 0.960803 0.182704
O O13 0.000000 0.538970 0.750000
#
# Coordination Sequence:
#
# PCOD9278526 Si02
#       6
#     8   8   8   8   8   8
#     4  11  24  42  64 104 135 174 227 278 344 401
#     4  10  23  41  73  95 127 185 227 281 322 417
#     4   9  21  40  63  94 128 174 224 271 331 388
#     4   9  19  40  68  92 127 176 223 273 322 405
#     4  10  20  43  70  93 128 180 227 271 329 400
#     4  11  27  42  63 102 142 174 217 283 347 395
#
# _framework density 24.941272999999999
#
# number of rings (size 3 to 8) (size 9 to 14) (size 15 to 20)
#    0.000    2.000    1.667    1.000    9.333    1.333 
#    6.000    0.000    0.000    0.000    0.000    0.000 
#    0.000    0.000    0.000    0.000    0.000    0.000 
#
# Total GULP energy -134004.628688 kJ/mol
# GULP energy per Si atom -5583.526195 kJ/mol
# Density = 2.488451 g / cm^3
# Si number density = 24.941273 Si / 1000 Ang^3
#
#
#
# Elastic Constant Matrix: (Units=GPa)
#
#
# Indices 1 2 3 4 5 6 
#
# 1 112.8580 15.8628 70.8159 -0.0004 6.9986 0.0001
# 2 15.8628 43.6406 21.6206 -0.0004 0.7300 0.0002
# 3 70.8159 21.6206 223.3314 -0.0011 12.5628 0.0005
# 4 -0.0004 -0.0004 -0.0011 19.3320 0.0007 7.2877
# 5 6.9986 0.7300 12.5628 0.0007 45.1295 -0.0001
# 6 0.0001 0.0002 0.0005 7.2877 -0.0001 25.7678
#
#
#
# Elastic Compliance Matrix: (Units=1/GPa)
#
#
# Indices 1 2 3 4 5 6 
#
# 1 0.011334 -0.002466 -0.003310 0.000000 -0.000796 0.000000
# 2 -0.002466 0.024609 -0.001625 0.000000 0.000437 0.000000
# 3 -0.003310 -0.001625 0.005744 0.000000 -0.001059 0.000000
# 4 0.000000 0.000000 0.000000 0.057901 -0.000001 -0.016376
# 5 -0.000796 0.000437 -0.001059 -0.000001 0.022570 0.000000
# 6 0.000000 0.000000 0.000000 -0.016376 0.000000 0.043440
#
#
# Mechanical properties :
#
#
# Convention : Reuss Voigt Hill
#
# Bulk Modulus (GPa) = 37.19736 66.26984 51.73360
# Shear Modulus (GPa) = 26.40454 36.14789 31.27621
#
# Velocity S-wave (km/s) = 3.25725 3.81112 3.54502
# Velocity P-wave (km/s) = 5.39375 6.78191 6.12727
#
# Compressibility (1/GPa) = 0.02688363
#
# Stress axis : x y z
#
# Youngs Moduli (GPa) = 88.23121 40.63616 174.08873
#
# Poissons Ratio (x) = 0.10022 0.57628
# Poissons Ratio (y) = 0.21761 0.28287
# Poissons Ratio (z) = 0.29207 0.06603
#
# Static dielectric constant tensor:
#      x y z
#    x 2.042700 0.000000 -0.001490 
#    y 0.000000 1.984810 0.000000 
#    z -0.001490 0.000000 2.078960 
# 
# From -- ./inp_files/270520.got.cif
#   From: 2010.05.17/outbox.cif.g08.bks.cpg/sg15_136_cif.got.tgz:270520.got - 2010.06.03 18:47:42.
