data_PCOD9278020
_publ_section_title
;
Structure prediction by ZEFSAII (Michael W. Deem and Ramdas Pophale) SiO2 
 PCOD9278020
Probable space group: C 2/C
;
_chemical_formula_sum "Si O2"
_cell_formula_units_Z 48
_cell_length_a 8.759458
_cell_length_b 16.588685
_cell_length_c 27.589638
_cell_angle_alpha 90.000000
_cell_angle_beta 141.233668
_cell_angle_gamma 90.000000
_cell_volume 2510.213349
_symmetry_space_group_name_H-M "C 2/C"
_symmetry_group_IT_number 15
_symmetry_cell_setting 'monoclinic'
loop_
_space_group_symop_operation_xyz
x,y,z
-x,y,1/2-z
-x,-y,-z
x,-y,1/2+z
1/2+x,1/2+y,z
1/2-x,1/2+y,1/2-z
1/2-x,1/2-y,-z
1/2+x,1/2-y,1/2+z
loop_
_atom_site_type_symbol
_atom_site_label
_atom_site_fract_x
_atom_site_fract_y
_atom_site_fract_z
Si Si1 0.823848 0.791719 0.069042
Si Si2 0.434028 0.331694 0.656984
Si Si3 0.094987 0.642216 0.167971
Si Si4 0.588626 0.915279 0.499397
Si Si5 0.787985 0.518374 0.574862
Si Si6 0.664298 0.155781 0.838308
O O1 0.919970 0.719990 0.127005
O O2 0.059845 0.842448 0.112680
O O3 0.750000 0.750000 0.000000
O O4 0.615670 0.847382 0.040018
O O5 0.707579 0.355658 0.740024
O O6 0.258080 0.350329 0.659449
O O7 0.328601 0.380962 0.585787
O O8 0.400567 0.234904 0.645596
O O9 0.933000 0.563954 0.119901
O O10 0.635444 0.935807 0.455280
O O11 0.500000 0.000000 0.500000
O O12 0.500000 0.500000 0.500000
O O13 0.859283 0.576673 0.636226
O O14 0.500000 0.160346 0.750000
#
# Coordination Sequence:
#
# PCOD9278020 Si02
#       6
#     8   8   8   8   8   8
#     4  11  19  39  70  90 126 175 221 261 329 404
#     4  10  20  42  70  90 125 175 224 257 327 405
#     4  10  20  42  64  93 129 176 211 269 328 395
#     4  12  23  40  69 101 127 177 227 270 328 405
#     4  12  27  42  64 102 137 166 223 286 334 386
#     4  11  22  43  68  94 129 174 214 274 343 388
#
# _framework density 19.121880000000001
#
# number of rings (size 3 to 8) (size 9 to 14) (size 15 to 20)
#    0.000    1.000    8.333    2.000    0.000    3.333 
#    0.000    0.000    0.000    0.000    0.000    0.000 
#    0.000    0.000    0.000    0.000    0.000    0.000 
#
# Total GULP energy -134037.061687 kJ/mol
# GULP energy per Si atom -5584.877570 kJ/mol
# Density = 1.907836 g / cm^3
# Si number density = 19.121880 Si / 1000 Ang^3
#
#
#
# Elastic Constant Matrix: (Units=GPa)
#
#
# Indices 1 2 3 4 5 6 
#
# 1 62.6270 44.5570 31.7953 0.0000 10.5591 0.0000
# 2 44.5570 138.7769 52.6053 0.0000 8.5141 0.0000
# 3 31.7953 52.6053 103.5653 0.0000 22.7906 0.0001
# 4 0.0000 0.0000 0.0000 35.3525 0.0000 0.2356
# 5 10.5591 8.5141 22.7906 0.0000 28.3185 0.0000
# 6 0.0000 0.0000 0.0001 0.2356 0.0000 22.9324
#
#
#
# Elastic Compliance Matrix: (Units=1/GPa)
#
#
# Indices 1 2 3 4 5 6 
#
# 1 0.022295 -0.005766 -0.002999 0.000000 -0.004166 0.000000
# 2 -0.005766 0.010447 -0.004033 0.000000 0.002254 0.000000
# 3 -0.002999 -0.004033 0.014719 0.000000 -0.009515 0.000000
# 4 0.000000 0.000000 0.000000 0.028289 0.000000 -0.000291
# 5 -0.004166 0.002254 -0.009515 0.000000 0.043845 0.000000
# 6 0.000000 0.000000 0.000000 -0.000291 0.000000 0.043609
#
#
# Mechanical properties :
#
#
# Convention : Reuss Voigt Hill
#
# Bulk Modulus (GPa) = 45.73395 62.54270 54.13833
# Shear Modulus (GPa) = 25.49878 29.05478 27.27678
#
# Velocity S-wave (km/s) = 3.65566 3.90224 3.78096
# Velocity P-wave (km/s) = 6.46432 7.28572 6.88728
#
# Compressibility (1/GPa) = 0.02186560
#
# Stress axis : x y z
#
# Youngs Moduli (GPa) = 44.85366 95.71851 67.94076
#
# Poissons Ratio (x) = 0.55188 0.20378
# Poissons Ratio (y) = 0.25861 0.27398
# Poissons Ratio (z) = 0.13453 0.38599
#
# Static dielectric constant tensor:
#      x y z
#    x 1.728010 0.000000 -0.064440 
#    y 0.000000 1.661300 0.000000 
#    z -0.064440 0.000000 1.713250 
# 
# From -- ./inp_files/289091.got.cif
#   From: 2010.05.17/outbox.cif.g08.bks.cpg/sg15_145_cif.got.tgz:289091.got - 2010.06.03 18:47:42.
