data_PCOD9278949
_publ_section_title
;
Structure prediction by ZEFSAII (Michael W. Deem and Ramdas Pophale) SiO2 
 PCOD9278949
Probable space group: C 2/C
;
_chemical_formula_sum "Si O2"
_cell_formula_units_Z 56
_cell_length_a 21.030221
_cell_length_b 12.531869
_cell_length_c 22.544126
_cell_angle_alpha 90.000000
_cell_angle_beta 29.262825
_cell_angle_gamma 90.000000
_cell_volume 2904.283232
_symmetry_space_group_name_H-M "C 2/C"
_symmetry_group_IT_number 15
_symmetry_cell_setting 'monoclinic'
loop_
_space_group_symop_operation_xyz
x,y,z
-x,y,1/2-z
-x,-y,-z
x,-y,1/2+z
1/2+x,1/2+y,z
1/2-x,1/2+y,1/2-z
1/2-x,1/2-y,-z
1/2+x,1/2-y,1/2+z
loop_
_atom_site_type_symbol
_atom_site_label
_atom_site_fract_x
_atom_site_fract_y
_atom_site_fract_z
Si Si1 0.500000 0.497942 0.750000
Si Si2 0.432516 0.816306 0.677722
Si Si3 0.463860 0.606281 0.949722
Si Si4 0.335547 0.706882 0.161421
Si Si5 0.871128 0.071470 0.237510
Si Si6 0.500000 0.107039 0.250000
Si Si7 0.227186 0.874568 0.999568
Si Si8 0.613169 0.930824 0.438466
O O1 0.558610 0.428911 0.756238
O O2 0.617542 0.571979 0.630077
O O3 0.444336 0.691170 0.657252
O O4 0.298846 0.844364 0.753627
O O5 0.445058 0.832078 0.737348
O O6 0.550234 0.876118 0.548164
O O7 0.531265 0.494524 0.884649
O O8 0.442032 0.648594 0.033287
O O9 0.333180 0.617035 0.017236
O O10 0.347422 0.680319 0.220955
O O11 0.846696 0.668514 0.636281
O O12 0.736425 0.005640 0.351313
O O13 0.635614 0.061538 0.113510
O O14 0.250000 0.750000 0.000000
O O15 0.500000 0.000000 0.500000
#
# Coordination Sequence:
#
# PCOD9278949 Si02
#       8
#     4   8   8   8   8   4   8   8
#     4  10  25  38  58  87 126 170 210 265 314 369
#     4  11  21  33  55  89 122 162 196 245 314 371
#     4  10  21  33  54  83 121 156 204 248 300 370
#     4  11  22  38  59  88 117 162 205 252 311 370
#     4  11  22  40  60  87 124 163 212 255 308 377
#     4  12  21  30  52  83 130 160 194 241 310 397
#     4  11  20  30  51  83 123 165 199 251 318 377
#     4  11  23  40  63  90 124 158 206 263 316 367
#
# _framework density 19.281866000000001
#
# number of rings (size 3 to 8) (size 9 to 14) (size 15 to 20)
#    0.000    1.143    5.714    1.714    4.000    0.000 
#    0.000    0.000    0.000    1.714    0.000    0.000 
#    0.000    0.000    0.000    0.000    0.000    0.000 
#
# Total GULP energy -156053.686304 kJ/mol
# GULP energy per Si atom -5573.345939 kJ/mol
# Density = 1.923798 g / cm^3
# Si number density = 19.281866 Si / 1000 Ang^3
#
#
#
# Elastic Constant Matrix: (Units=GPa)
#
#
# Indices 1 2 3 4 5 6 
#
# 1 121.9774 37.6007 30.9458 -0.0001 1.1985 0.0000
# 2 37.6007 38.3814 19.6311 0.0000 7.8682 0.0000
# 3 30.9458 19.6311 98.9057 0.0001 -13.3806 -0.0001
# 4 -0.0001 0.0000 0.0001 20.3181 -0.0001 1.5299
# 5 1.1985 7.8682 -13.3806 -0.0001 28.8320 0.0001
# 6 0.0000 0.0000 -0.0001 1.5299 0.0001 19.7882
#
#
#
# Elastic Compliance Matrix: (Units=1/GPa)
#
#
# Indices 1 2 3 4 5 6 
#
# 1 0.012070 -0.011663 -0.001173 0.000000 0.002137 0.000000
# 2 -0.011663 0.044179 -0.007133 0.000000 -0.014882 0.000000
# 3 -0.001173 -0.007133 0.012978 0.000000 0.008018 0.000000
# 4 0.000000 0.000000 0.000000 0.049505 0.000000 -0.003827
# 5 0.002137 -0.014882 0.008018 0.000000 0.042377 0.000000
# 6 0.000000 0.000000 0.000000 -0.003827 0.000000 0.050831
#
#
# Mechanical properties :
#
#
# Convention : Reuss Voigt Hill
#
# Bulk Modulus (GPa) = 34.14096 48.40221 41.27158
# Shear Modulus (GPa) = 19.11020 25.19346 22.15183
#
# Velocity S-wave (km/s) = 3.15158 3.61860 3.39314
# Velocity P-wave (km/s) = 5.56669 6.52809 6.06646
#
# Compressibility (1/GPa) = 0.02929033
#
# Stress axis : x y z
#
# Youngs Moduli (GPa) = 82.85109 22.63526 77.05327
#
# Poissons Ratio (x) = 0.26399 0.09035
# Poissons Ratio (y) = 0.96627 0.54962
# Poissons Ratio (z) = 0.09714 0.16146
#
# Static dielectric constant tensor:
#      x y z
#    x 1.725320 0.000000 -0.034570 
#    y 0.000000 1.653180 0.000000 
#    z -0.034570 0.000000 1.771200 
# 
# From -- ./inp_files/249535.got.cif
#   From: 2010.05.17/outbox.cif.g08.bks.cpg/sg15_125_cif.got.tgz:249535.got - 2010.06.03 18:47:42.
