data_PCOD9278390
_publ_section_title
;
Structure prediction by ZEFSAII (Michael W. Deem and Ramdas Pophale) SiO2 
 PCOD9278390
Probable space group: C 2/C
;
_chemical_formula_sum "Si O2"
_cell_formula_units_Z 44
_cell_length_a 19.084086
_cell_length_b 9.423648
_cell_length_c 13.561621
_cell_angle_alpha 90.000000
_cell_angle_beta 121.313258
_cell_angle_gamma 90.000000
_cell_volume 2083.684921
_symmetry_space_group_name_H-M "C 2/C"
_symmetry_group_IT_number 15
_symmetry_cell_setting 'monoclinic'
loop_
_space_group_symop_operation_xyz
x,y,z
-x,y,1/2-z
-x,-y,-z
x,-y,1/2+z
1/2+x,1/2+y,z
1/2-x,1/2+y,1/2-z
1/2-x,1/2-y,-z
1/2+x,1/2-y,1/2+z
loop_
_atom_site_type_symbol
_atom_site_label
_atom_site_fract_x
_atom_site_fract_y
_atom_site_fract_z
Si Si1 0.559926 0.816611 0.424424
Si Si2 0.315783 0.343469 0.606904
Si Si3 0.866812 0.333892 0.324132
Si Si4 0.751601 0.157302 0.598102
Si Si5 0.500000 0.938253 0.750000
Si Si6 0.872809 0.654165 0.307653
O O1 0.599339 0.688506 0.390194
O O2 0.463929 0.811313 0.382479
O O3 0.606624 0.830093 0.562116
O O4 0.561540 0.954979 0.354092
O O5 0.250000 0.250000 0.500000
O O6 0.325739 0.280651 0.723475
O O7 0.283342 0.502070 0.593041
O O8 0.836427 0.331813 0.413591
O O9 0.841529 0.492506 0.271371
O O10 0.750000 0.250000 0.500000
O O11 0.812711 0.227999 0.722207
O O12 0.546607 0.846970 0.702544
#
# Coordination Sequence:
#
# PCOD9278390 Si02
#       6
#     8   8   8   8   4   8
#     4  11  22  43  74 102 133 176 236 279 343 410
#     4  12  24  44  71  97 139 184 230 283 352 412
#     4  11  22  45  71  97 134 185 234 277 342 415
#     4  12  28  43  65 103 143 181 231 289 346 411
#     4  10  20  42  74 102 130 182 222 284 334 422
#     4  11  24  41  72 100 136 175 234 279 343 405
#
# _framework density 21.116437000000001
#
# number of rings (size 3 to 8) (size 9 to 14) (size 15 to 20)
#    0.000    0.727    3.636    6.545    5.091    1.455 
#    3.273    1.818    0.000    0.000    0.000    0.000 
#    0.000    0.000    0.000    0.000    0.000    0.000 
#
# Total GULP energy -122989.032537 kJ/mol
# GULP energy per Si atom -5590.410570 kJ/mol
# Density = 2.106837 g / cm^3
# Si number density = 21.116437 Si / 1000 Ang^3
#
#
#
# Elastic Constant Matrix: (Units=GPa)
#
#
# Indices 1 2 3 4 5 6 
#
# 1 130.9753 56.1146 33.7472 0.0000 -37.0456 0.0000
# 2 56.1146 141.1806 60.6046 0.0000 -4.6223 0.0000
# 3 33.7472 60.6046 133.8529 0.0000 -12.7029 0.0000
# 4 0.0000 0.0000 0.0000 33.3315 0.0000 0.9365
# 5 -37.0456 -4.6223 -12.7029 0.0000 48.9624 0.0000
# 6 0.0000 0.0000 0.0000 0.9365 0.0000 26.4815
#
#
#
# Elastic Compliance Matrix: (Units=1/GPa)
#
#
# Indices 1 2 3 4 5 6 
#
# 1 0.012013 -0.004399 -0.000219 0.000000 0.008617 0.000000
# 2 -0.004399 0.010404 -0.003921 0.000000 -0.003363 0.000000
# 3 -0.000219 -0.003921 0.009484 0.000000 0.001924 0.000000
# 4 0.000000 0.000000 0.000000 0.030031 0.000000 -0.001062
# 5 0.008617 -0.003363 0.001924 0.000000 0.027126 0.000000
# 6 0.000000 0.000000 0.000000 -0.001062 0.000000 0.037800
#
#
# Mechanical properties :
#
#
# Convention : Reuss Voigt Hill
#
# Bulk Modulus (GPa) = 67.45863 78.54907 73.00385
# Shear Modulus (GPa) = 33.58442 38.79124 36.18783
#
# Velocity S-wave (km/s) = 3.99236 4.29069 4.14421
# Velocity P-wave (km/s) = 7.29844 7.86292 7.58594
#
# Compressibility (1/GPa) = 0.01482390
#
# Stress axis : x y z
#
# Youngs Moduli (GPa) = 83.23984 96.11229 105.43872
#
# Poissons Ratio (x) = 0.42276 0.02314
# Poissons Ratio (y) = 0.36614 0.41343
# Poissons Ratio (z) = 0.01827 0.37686
#
# Static dielectric constant tensor:
#      x y z
#    x 1.897510 0.000000 0.004510 
#    y 0.000000 1.731320 0.000000 
#    z 0.004510 0.000000 1.749530 
# 
# From -- ./inp_files/110161.got.cif
#   From: 2010.05.17/outbox.cif.g08.bks.cpg/sg15_56_cif.got.tgz:110161.got - 2010.06.03 18:47:42.
