data_PCOD9278017
_publ_section_title
;
Structure prediction by ZEFSAII (Michael W. Deem and Ramdas Pophale) SiO2 
 PCOD9278017
Probable space group: C 2/C
;
_chemical_formula_sum "Si O2"
_cell_formula_units_Z 32
_cell_length_a 25.445506
_cell_length_b 11.454263
_cell_length_c 17.463601
_cell_angle_alpha 90.000000
_cell_angle_beta 162.808138
_cell_angle_gamma 90.000000
_cell_volume 1504.443450
_symmetry_space_group_name_H-M "C 2/C"
_symmetry_group_IT_number 15
_symmetry_cell_setting 'monoclinic'
loop_
_space_group_symop_operation_xyz
x,y,z
-x,y,1/2-z
-x,-y,-z
x,-y,1/2+z
1/2+x,1/2+y,z
1/2-x,1/2+y,1/2-z
1/2-x,1/2-y,-z
1/2+x,1/2-y,1/2+z
loop_
_atom_site_type_symbol
_atom_site_label
_atom_site_fract_x
_atom_site_fract_y
_atom_site_fract_z
Si Si1 0.876363 0.328634 0.503225
Si Si2 0.514179 0.780188 0.529714
Si Si3 0.743394 0.077911 0.128451
Si Si4 0.884861 0.357180 0.199104
O O1 0.984831 0.311554 0.576506
O O2 0.781781 0.455116 0.365907
O O3 0.719550 0.234506 0.294241
O O4 0.000000 0.324744 0.750000
O O5 0.417934 0.654192 0.382555
O O6 0.418107 0.867501 0.335633
O O7 0.703821 0.051675 0.983150
O O8 0.581628 0.157463 0.936778
O O9 0.750000 0.250000 0.000000
#
# Coordination Sequence:
#
# PCOD9278017 Si02
#       4
#     8   8   8   8
#     4  12  24  41  61  87 130 165 202 247 299 366
#     4  11  23  41  64  91 120 164 203 251 305 361
#     4  10  20  42  64  93 118 156 203 260 306 353
#     4   9  18  37  67  87 117 148 204 259 301 343
#
# _framework density 21.270326000000001
#
# number of rings (size 3 to 8) (size 9 to 14) (size 15 to 20)
#    0.000    1.500    5.000    1.500    0.000    1.000 
#    0.000    0.000    0.000    0.000    0.000    0.000 
#    0.000    0.000    0.000    0.000    0.000    0.000 
#
# Total GULP energy -89151.887206 kJ/mol
# GULP energy per Si atom -5571.992950 kJ/mol
# Density = 2.122191 g / cm^3
# Si number density = 21.270326 Si / 1000 Ang^3
#
#
#
# Elastic Constant Matrix: (Units=GPa)
#
#
# Indices 1 2 3 4 5 6 
#
# 1 160.9323 16.6727 19.7822 -0.0001 -23.6004 -0.0001
# 2 16.6727 29.2352 2.1080 -0.0001 -6.7745 -0.0001
# 3 19.7822 2.1080 59.6969 -0.0002 0.1623 -0.0001
# 4 -0.0001 -0.0001 -0.0002 12.6314 -0.0001 1.0720
# 5 -23.6004 -6.7745 0.1623 -0.0001 37.6164 -0.0001
# 6 -0.0001 -0.0001 -0.0001 1.0720 -0.0001 20.6147
#
#
#
# Elastic Compliance Matrix: (Units=1/GPa)
#
#
# Indices 1 2 3 4 5 6 
#
# 1 0.007430 -0.003114 -0.002363 0.000000 0.004111 0.000000
# 2 -0.003114 0.037098 -0.000291 0.000000 0.004729 0.000000
# 3 -0.002363 -0.000291 0.017549 0.000000 -0.001611 0.000000
# 4 0.000000 0.000000 0.000000 0.079519 0.000000 -0.004135
# 5 0.004111 0.004729 -0.001611 0.000000 0.030022 0.000000
# 6 0.000000 0.000000 0.000000 -0.004135 0.000000 0.048724
#
#
# Mechanical properties :
#
#
# Convention : Reuss Voigt Hill
#
# Bulk Modulus (GPa) = 19.78620 36.33222 28.05921
# Shear Modulus (GPa) = 20.10253 28.25927 24.18090
#
# Velocity S-wave (km/s) = 3.07758 3.64892 3.37536
# Velocity P-wave (km/s) = 4.68520 5.90517 5.33021
#
# Compressibility (1/GPa) = 0.05054027
#
# Stress axis : x y z
#
# Youngs Moduli (GPa) = 134.59394 26.95557 56.98306
#
# Poissons Ratio (x) = 0.08394 0.13467
# Poissons Ratio (y) = 0.41915 0.01657
# Poissons Ratio (z) = 0.31808 0.00784
#
# Static dielectric constant tensor:
#      x y z
#    x 1.784690 0.000000 -0.024390 
#    y 0.000000 1.786060 0.000000 
#    z -0.024390 0.000000 1.806770 
# 
# From -- ./inp_files/27598.got.cif
#   From: 2010.05.17/outbox.cif.g08.bks.cpg/sg15_14_cif.got.tgz:27598.got - 2010.06.03 18:47:42.
