data_PCOD9278489
_publ_section_title
;
Structure prediction by ZEFSAII (Michael W. Deem and Ramdas Pophale) SiO2 
 PCOD9278489
Probable space group: C 2/C
;
_chemical_formula_sum "Si O2"
_cell_formula_units_Z 48
_cell_length_a 11.936700
_cell_length_b 6.989546
_cell_length_c 23.004999
_cell_angle_alpha 90.000000
_cell_angle_beta 102.230392
_cell_angle_gamma 90.000000
_cell_volume 1875.793347
_symmetry_space_group_name_H-M "C 2/C"
_symmetry_group_IT_number 15
_symmetry_cell_setting 'monoclinic'
loop_
_space_group_symop_operation_xyz
x,y,z
-x,y,1/2-z
-x,-y,-z
x,-y,1/2+z
1/2+x,1/2+y,z
1/2-x,1/2+y,1/2-z
1/2-x,1/2-y,-z
1/2+x,1/2-y,1/2+z
loop_
_atom_site_type_symbol
_atom_site_label
_atom_site_fract_x
_atom_site_fract_y
_atom_site_fract_z
Si Si1 0.291920 0.377304 0.414869
Si Si2 0.614213 0.882455 0.783135
Si Si3 0.626760 0.533737 0.696728
Si Si4 0.515430 0.270932 0.994547
Si Si5 0.139729 0.718941 0.417885
Si Si6 0.426460 0.645678 0.120429
O O1 0.378786 0.387623 0.370440
O O2 0.353752 0.248608 0.469670
O O3 0.255548 0.589121 0.433546
O O4 0.180063 0.277917 0.376485
O O5 0.500000 0.992529 0.750000
O O6 0.614145 0.689389 0.744732
O O7 0.743428 0.955679 0.786340
O O8 0.596160 0.842373 0.849251
O O9 0.518042 0.393508 0.680728
O O10 0.432299 0.172586 0.031803
O O11 0.500000 0.500000 0.000000
O O12 0.508869 0.244534 0.925253
O O13 0.134164 0.949096 0.409537
#
# Coordination Sequence:
#
# PCOD9278489 Si02
#       6
#     8   8   8   8   8   8
#     4  11  23  43  65 101 130 173 217 262 329 391
#     4  11  23  43  65  89 128 171 214 270 329 372
#     4  11  25  43  64  98 129 165 224 272 315 395
#     4  10  20  43  67  95 139 167 214 272 314 394
#     4  10  23  43  66  94 131 169 217 270 320 385
#     4  11  23  44  68  98 133 173 214 265 332 384
#
# _framework density 25.589172000000001
#
# number of rings (size 3 to 8) (size 9 to 14) (size 15 to 20)
#    0.000    1.333    5.000    0.500    2.333    6.000 
#    6.000    0.000    0.000    0.000    0.000    0.000 
#    0.000    0.000    0.000    0.000    0.000    0.000 
#
# Total GULP energy -134044.218254 kJ/mol
# GULP energy per Si atom -5585.175761 kJ/mol
# Density = 2.553093 g / cm^3
# Si number density = 25.589172 Si / 1000 Ang^3
#
#
#
# Elastic Constant Matrix: (Units=GPa)
#
#
# Indices 1 2 3 4 5 6 
#
# 1 128.1869 40.3229 31.2971 0.0000 12.0547 0.0000
# 2 40.3229 98.3280 25.6277 0.0000 -0.8404 0.0000
# 3 31.2971 25.6277 120.5481 0.0000 -0.4324 0.0000
# 4 0.0000 0.0000 0.0000 31.2268 0.0000 2.0906
# 5 12.0547 -0.8404 -0.4324 0.0000 53.0206 0.0000
# 6 0.0000 0.0000 0.0000 2.0906 0.0000 40.8413
#
#
#
# Elastic Compliance Matrix: (Units=1/GPa)
#
#
# Indices 1 2 3 4 5 6 
#
# 1 0.009529 -0.003472 -0.001744 0.000000 -0.002236 0.000000
# 2 -0.003472 0.012033 -0.001653 0.000000 0.000967 0.000000
# 3 -0.001744 -0.001653 0.009101 0.000000 0.000445 0.000000
# 4 0.000000 0.000000 0.000000 0.032134 0.000000 -0.001645
# 5 -0.002236 0.000967 0.000445 0.000000 0.019388 0.000000
# 6 0.000000 0.000000 0.000000 -0.001645 0.000000 0.024569
#
#
# Mechanical properties :
#
#
# Convention : Reuss Voigt Hill
#
# Bulk Modulus (GPa) = 59.08471 60.17315 59.62893
# Shear Modulus (GPa) = 39.63990 41.67210 40.65600
#
# Velocity S-wave (km/s) = 3.94012 4.03985 3.99030
# Velocity P-wave (km/s) = 6.62112 6.73251 6.67705
#
# Compressibility (1/GPa) = 0.01692485
#
# Stress axis : x y z
#
# Youngs Moduli (GPa) = 104.93789 83.10343 109.87514
#
# Poissons Ratio (x) = 0.28858 0.19161
# Poissons Ratio (y) = 0.36440 0.18164
# Poissons Ratio (z) = 0.18300 0.13738
#
# Static dielectric constant tensor:
#      x y z
#    x 2.115030 0.000000 0.063780 
#    y 0.000000 2.072220 0.000000 
#    z 0.063780 0.000000 2.027010 
# 
# From -- ./inp_files/267780.got.cif
#   From: 2010.05.17/outbox.cif.g08.bks.cpg/sg15_134_cif.got.tgz:267780.got - 2010.06.03 18:47:42.
