data_PCOD9278211
_publ_section_title
;
Structure prediction by ZEFSAII (Michael W. Deem and Ramdas Pophale) SiO2 
 PCOD9278211
Probable space group: C 2/C
;
_chemical_formula_sum "Si O2"
_cell_formula_units_Z 32
_cell_length_a 23.950751
_cell_length_b 4.935174
_cell_length_c 13.744137
_cell_angle_alpha 90.000000
_cell_angle_beta 124.379619
_cell_angle_gamma 90.000000
_cell_volume 1340.783048
_symmetry_space_group_name_H-M "C 2/C"
_symmetry_group_IT_number 15
_symmetry_cell_setting 'monoclinic'
loop_
_space_group_symop_operation_xyz
x,y,z
-x,y,1/2-z
-x,-y,-z
x,-y,1/2+z
1/2+x,1/2+y,z
1/2-x,1/2+y,1/2-z
1/2-x,1/2-y,-z
1/2+x,1/2-y,1/2+z
loop_
_atom_site_type_symbol
_atom_site_label
_atom_site_fract_x
_atom_site_fract_y
_atom_site_fract_z
Si Si1 0.396364 0.876447 0.664227
Si Si2 0.934452 0.599298 0.993202
Si Si3 0.375206 0.624971 0.839259
Si Si4 0.188355 0.903781 0.890517
O O1 0.443016 0.900562 0.617184
O O2 0.416160 0.723003 0.782706
O O3 0.334838 0.670765 0.572778
O O4 0.369781 0.172569 0.666130
O O5 0.874636 0.385027 0.907654
O O6 0.912688 0.889921 0.932850
O O7 0.000000 0.500000 0.000000
O O8 0.308617 0.511230 0.718347
O O9 0.250000 0.750000 0.000000
#
# Coordination Sequence:
#
# PCOD9278211 Si02
#       4
#     8   8   8   8
#     4  10  22  41  65  92 131 164 214 265 316 389
#     4  12  24  42  64  96 131 170 215 264 320 384
#     4  10  22  42  62  94 132 163 217 266 311 391
#     4  10  20  42  68  88 127 170 208 266 330 371
#
# _framework density 23.866651999999998
#
# number of rings (size 3 to 8) (size 9 to 14) (size 15 to 20)
#    1.500    0.000    2.500    3.000    0.000    1.000 
#    4.500    5.000    0.000    0.000    0.000    0.000 
#    0.000    0.000    0.000    0.000    0.000    0.000 
#
# Total GULP energy -89203.944279 kJ/mol
# GULP energy per Si atom -5575.246517 kJ/mol
# Density = 2.381233 g / cm^3
# Si number density = 23.866652 Si / 1000 Ang^3
#
#
#
# Elastic Constant Matrix: (Units=GPa)
#
#
# Indices 1 2 3 4 5 6 
#
# 1 13.5608 11.0467 12.0145 0.0000 -8.3230 0.0000
# 2 11.0467 148.5279 28.8382 0.0000 -12.6662 0.0000
# 3 12.0145 28.8382 122.8641 0.0000 -28.0111 0.0000
# 4 0.0000 0.0000 0.0000 51.5136 0.0000 1.3489
# 5 -8.3230 -12.6662 -28.0111 0.0000 30.6168 0.0000
# 6 0.0000 0.0000 0.0000 1.3489 0.0000 1.0234
#
#
#
# Elastic Compliance Matrix: (Units=1/GPa)
#
#
# Indices 1 2 3 4 5 6 
#
# 1 0.092875 -0.004519 -0.003401 0.000000 0.020267 0.000000
# 2 -0.004519 0.007351 -0.001100 0.000000 0.000807 0.000000
# 3 -0.003401 -0.001100 0.010633 0.000000 0.008349 0.000000
# 4 0.000000 0.000000 0.000000 0.020106 0.000000 -0.026500
# 5 0.020267 0.000807 0.008349 0.000000 0.046143 0.000000
# 6 0.000000 0.000000 0.000000 -0.026500 0.000000 1.012030
#
#
# Mechanical properties :
#
#
# Convention : Reuss Voigt Hill
#
# Bulk Modulus (GPa) = 10.77349 43.19463 26.98406
# Shear Modulus (GPa) = 4.03839 32.16766 18.10303
#
# Velocity S-wave (km/s) = 1.30220 3.67523 2.75709
# Velocity P-wave (km/s) = 2.60477 6.01227 4.63315
#
# Compressibility (1/GPa) = 0.09282042
#
# Stress axis : x y z
#
# Youngs Moduli (GPa) = 10.76718 136.03355 94.04574
#
# Poissons Ratio (x) = 0.61472 0.31983
# Poissons Ratio (y) = 0.04866 0.10342
# Poissons Ratio (z) = 0.03662 0.14959
#
# Static dielectric constant tensor:
#      x y z
#    x 1.999230 0.000000 0.081370 
#    y 0.000000 1.899100 0.000000 
#    z 0.081370 0.000000 2.018740 
# 
# From -- ./inp_files/165150.got.cif
#   From: 2010.05.17/outbox.cif.g08.bks.cpg/sg15_83_cif.got.tgz:165150.got - 2010.06.03 18:47:42.
