data_PCOD9278864
_publ_section_title
;
Structure prediction by ZEFSAII (Michael W. Deem and Ramdas Pophale) SiO2 
 PCOD9278864
Probable space group: C 2/C
;
_chemical_formula_sum "Si O2"
_cell_formula_units_Z 52
_cell_length_a 18.835579
_cell_length_b 17.787286
_cell_length_c 12.891768
_cell_angle_alpha 90.000000
_cell_angle_beta 147.342645
_cell_angle_gamma 90.000000
_cell_volume 2330.688443
_symmetry_space_group_name_H-M "C 2/C"
_symmetry_group_IT_number 15
_symmetry_cell_setting 'monoclinic'
loop_
_space_group_symop_operation_xyz
x,y,z
-x,y,1/2-z
-x,-y,-z
x,-y,1/2+z
1/2+x,1/2+y,z
1/2-x,1/2+y,1/2-z
1/2-x,1/2-y,-z
1/2+x,1/2-y,1/2+z
loop_
_atom_site_type_symbol
_atom_site_label
_atom_site_fract_x
_atom_site_fract_y
_atom_site_fract_z
Si Si1 0.355650 0.403794 0.618600
Si Si2 0.105483 0.225691 0.785759
Si Si3 0.621930 0.869116 0.196949
Si Si4 0.138637 0.372739 0.710569
Si Si5 0.259264 0.711831 0.170775
Si Si6 0.138746 0.933241 0.358908
Si Si7 0.500000 0.200780 0.750000
O O1 0.500000 0.397529 0.750000
O O2 0.254773 0.409729 0.396787
O O3 0.327329 0.335682 0.662863
O O4 0.339750 0.483875 0.658459
O O5 0.082673 0.291797 0.678472
O O6 0.117424 0.140175 0.760791
O O7 0.000000 0.227376 0.750000
O O8 0.250000 0.250000 0.000000
O O9 0.667251 0.787831 0.207397
O O10 0.558660 0.849392 0.230781
O O11 0.502812 0.910039 0.990205
O O12 0.227384 0.347393 0.722036
O O13 0.236630 0.411138 0.913659
O O14 0.121085 0.740990 0.953573
O O15 0.000000 0.937735 0.250000
#
# Coordination Sequence:
#
# PCOD9278864 Si02
#       7
#     8   8   8   8   8   8   4
#     4  10  21  38  59  86 123 165 195 227 301 362
#     4   9  19  37  64  84 115 153 197 246 300 355
#     4  10  21  31  59  86 116 150 194 245 289 334
#     4  10  22  38  61  89 114 149 203 250 297 338
#     4  10  21  33  59  87 121 151 197 248 289 344
#     4   9  20  40  61  81 119 164 192 239 297 364
#     4   8  16  34  48  76 112 156 182 224 294 338
#
# _framework density 22.311002999999999
#
# number of rings (size 3 to 8) (size 9 to 14) (size 15 to 20)
#    0.000    2.462    0.000    1.846   12.923    0.615 
#    0.000    4.615   40.615    0.000    0.000    0.000 
#    0.000    0.000    0.000    0.000    0.000    0.000 
#
# Total GULP energy -144747.029444 kJ/mol
# GULP energy per Si atom -5567.193440 kJ/mol
# Density = 2.226022 g / cm^3
# Si number density = 22.311003 Si / 1000 Ang^3
#
#
#
# Elastic Constant Matrix: (Units=GPa)
#
#
# Indices 1 2 3 4 5 6 
#
# 1 49.1452 4.3580 11.9726 0.0000 16.4947 0.0000
# 2 4.3580 102.3316 3.4853 0.0000 12.7203 0.0000
# 3 11.9726 3.4853 138.3276 0.0000 34.5361 0.0000
# 4 0.0000 0.0000 0.0000 41.5565 0.0000 -75.7421
# 5 16.4947 12.7203 34.5361 0.0000 24.1489 0.0000
# 6 0.0000 0.0000 0.0000 -75.7421 0.0000 149.6500
#
#
#
# Elastic Compliance Matrix: (Units=1/GPa)
#
#
# Indices 1 2 3 4 5 6 
#
# 1 0.027823 0.001866 0.003943 0.000000 -0.025626 0.000000
# 2 0.001866 0.010855 0.002039 0.000000 -0.009908 0.000000
# 3 0.003943 0.002039 0.012096 0.000000 -0.021066 0.000000
# 4 0.000000 0.000000 0.000000 0.310427 0.000000 0.157116
# 5 -0.025626 -0.009908 -0.021066 0.000000 0.094260 0.000000
# 6 0.000000 0.000000 0.000000 0.157116 0.000000 0.086203
#
#
# Mechanical properties :
#
#
# Convention : Reuss Voigt Hill
#
# Bulk Modulus (GPa) = 15.04453 36.60400 25.82426
# Shear Modulus (GPa) = 9.12201 61.07033 35.09617
#
# Velocity S-wave (km/s) = 2.02421 5.23753 3.97046
# Velocity P-wave (km/s) = 3.49585 7.28131 5.71133
#
# Compressibility (1/GPa) = 0.06646935
#
# Stress axis : x y z
#
# Youngs Moduli (GPa) = 35.94194 92.12456 82.67090
#
# Poissons Ratio (x) = -0.17193 -0.32596
# Poissons Ratio (y) = -0.06708 -0.16854
# Poissons Ratio (z) = -0.14171 -0.18782
#
# Static dielectric constant tensor:
#      x y z
#    x 1.780900 0.000000 -0.011320 
#    y 0.000000 1.896940 0.000000 
#    z -0.011320 0.000000 1.878760 
# 
# From -- ./inp_files/98203.got.cif
#   From: 2010.05.17/outbox.cif.g08.bks.cpg/sg15_50_cif.got.tgz:98203.got - 2010.06.03 18:47:42.
