data_PCOD9278831
_publ_section_title
;
Structure prediction by ZEFSAII (Michael W. Deem and Ramdas Pophale) SiO2 
 PCOD9278831
Probable space group: C 2/C
;
_chemical_formula_sum "Si O2"
_cell_formula_units_Z 36
_cell_length_a 11.306749
_cell_length_b 9.754051
_cell_length_c 19.550846
_cell_angle_alpha 90.000000
_cell_angle_beta 33.569838
_cell_angle_gamma 90.000000
_cell_volume 1192.275302
_symmetry_space_group_name_H-M "C 2/C"
_symmetry_group_IT_number 15
_symmetry_cell_setting 'monoclinic'
loop_
_space_group_symop_operation_xyz
x,y,z
-x,y,1/2-z
-x,-y,-z
x,-y,1/2+z
1/2+x,1/2+y,z
1/2-x,1/2+y,1/2-z
1/2-x,1/2-y,-z
1/2+x,1/2-y,1/2+z
loop_
_atom_site_type_symbol
_atom_site_label
_atom_site_fract_x
_atom_site_fract_y
_atom_site_fract_z
Si Si1 0.000000 0.708562 0.750000
Si Si2 0.579438 0.562909 0.390858
Si Si3 0.868420 0.092044 0.881553
Si Si4 0.107979 0.635627 0.364507
Si Si5 0.066678 0.367320 0.067039
O O1 0.797340 0.788878 0.813240
O O2 0.935561 0.623304 0.849171
O O3 0.500000 0.500000 0.500000
O O4 0.532821 0.426972 0.365579
O O5 0.813585 0.618463 0.252226
O O6 0.469575 0.713544 0.437740
O O7 0.000000 0.121690 0.750000
O O8 0.599766 0.027439 0.886584
O O9 0.782547 0.934955 0.933485
O O10 0.857476 0.671275 0.497447
#
# Coordination Sequence:
#
# PCOD9278831 Si02
#       5
#     4   8   8   8   8
#     4  10  20  48  86 120 146 212 272 314 418 470
#     4  11  24  43  72 116 152 201 266 321 402 473
#     4  10  24  46  73 112 153 205 264 319 397 474
#     4   9  24  45  75 112 155 199 264 327 387 483
#     4   9  23  45  76 112 148 205 260 327 389 471
#
# _framework density 30.194368000000001
#
# number of rings (size 3 to 8) (size 9 to 14) (size 15 to 20)
#    1.333    0.889    0.000    0.667    9.333    3.556 
#    0.000    4.444    0.000   10.667    0.000    0.000 
#    0.000    0.000    0.000    0.000    0.000    0.000 
#
# Total GULP energy -100223.889408 kJ/mol
# GULP energy per Si atom -5567.993856 kJ/mol
# Density = 3.012564 g / cm^3
# Si number density = 30.194368 Si / 1000 Ang^3
#
#
#
# Elastic Constant Matrix: (Units=GPa)
#
#
# Indices 1 2 3 4 5 6 
#
# 1 153.5196 59.9535 103.5073 -0.0001 -5.4850 0.0001
# 2 59.9535 125.2340 26.5901 -0.0001 -0.9194 0.0001
# 3 103.5073 26.5901 324.8740 -0.0002 22.8747 0.0002
# 4 -0.0001 -0.0001 -0.0002 32.0018 0.0001 1.6271
# 5 -5.4850 -0.9194 22.8747 0.0001 75.8451 -0.0001
# 6 0.0001 0.0001 0.0002 1.6271 -0.0001 66.8580
#
#
#
# Elastic Compliance Matrix: (Units=1/GPa)
#
#
# Indices 1 2 3 4 5 6 
#
# 1 0.010289 -0.004268 -0.003042 0.000000 0.001610 0.000000
# 2 -0.004268 0.009904 0.000575 0.000000 -0.000362 0.000000
# 3 -0.003042 0.000575 0.004102 0.000000 -0.001450 0.000000
# 4 0.000000 0.000000 0.000000 0.031287 0.000000 -0.000761
# 5 0.001610 -0.000362 -0.001450 0.000000 0.013734 0.000000
# 6 0.000000 0.000000 0.000000 -0.000761 0.000000 0.014976
#
#
# Mechanical properties :
#
#
# Convention : Reuss Voigt Hill
#
# Bulk Modulus (GPa) = 92.38539 109.30328 100.84433
# Shear Modulus (GPa) = 49.32350 62.51276 55.91813
#
# Velocity S-wave (km/s) = 4.04608 4.55504 4.30808
# Velocity P-wave (km/s) = 7.24507 7.99644 7.63001
#
# Compressibility (1/GPa) = 0.01082422
#
# Stress axis : x y z
#
# Youngs Moduli (GPa) = 97.18792 100.97307 243.75430
#
# Poissons Ratio (x) = 0.43096 0.74157
# Poissons Ratio (y) = 0.41481 -0.14010
# Poissons Ratio (z) = 0.29567 -0.05803
#
# Static dielectric constant tensor:
#      x y z
#    x 3.232790 0.000000 0.030960 
#    y 0.000000 2.738910 0.000000 
#    z 0.030960 0.000000 2.490530 
# 
# From -- ./inp_files/203370.got.cif
#   From: 2010.05.17/outbox.cif.g08.bks.cpg/sg15_102_cif.got.tgz:203370.got - 2010.06.03 18:47:42.
