data_PCOD9278416
_publ_section_title
;
Structure prediction by ZEFSAII (Michael W. Deem and Ramdas Pophale) SiO2 
 PCOD9278416
Probable space group: C 2/C
;
_chemical_formula_sum "Si O2"
_cell_formula_units_Z 60
_cell_length_a 23.829698
_cell_length_b 8.159446
_cell_length_c 15.345796
_cell_angle_alpha 90.000000
_cell_angle_beta 73.380093
_cell_angle_gamma 90.000000
_cell_volume 2859.139455
_symmetry_space_group_name_H-M "C 2/C"
_symmetry_group_IT_number 15
_symmetry_cell_setting 'monoclinic'
loop_
_space_group_symop_operation_xyz
x,y,z
-x,y,1/2-z
-x,-y,-z
x,-y,1/2+z
1/2+x,1/2+y,z
1/2-x,1/2+y,1/2-z
1/2-x,1/2-y,-z
1/2+x,1/2-y,1/2+z
loop_
_atom_site_type_symbol
_atom_site_label
_atom_site_fract_x
_atom_site_fract_y
_atom_site_fract_z
Si Si1 0.240932 0.106415 0.669558
Si Si2 0.776668 0.508734 0.333839
Si Si3 0.500000 0.119805 0.250000
Si Si4 0.811994 0.990672 0.476788
Si Si5 0.105301 0.593761 0.659014
Si Si6 0.482175 0.284580 0.444427
Si Si7 0.068003 0.146421 0.050741
Si Si8 0.140091 0.641789 0.984838
O O1 0.217714 0.293708 0.675338
O O2 0.204547 0.997439 0.616961
O O3 0.309134 0.098730 0.606703
O O4 0.238332 0.044393 0.768627
O O5 0.743735 0.478284 0.438960
O O6 0.836235 0.404539 0.309766
O O7 0.493027 0.214515 0.343756
O O8 0.441760 0.013073 0.269555
O O9 0.832541 0.802856 0.481025
O O10 0.863991 0.101508 0.489748
O O11 0.070968 0.751879 0.638729
O O12 0.126900 0.498272 0.561631
O O13 0.466537 0.474761 0.433338
O O14 0.536981 0.261426 0.484567
O O15 0.424729 0.201865 0.514386
#
# Coordination Sequence:
#
# PCOD9278416 Si02
#       8
#     8   8   4   8   8   8   8   8
#     4  11  22  39  64  91 125 173 209 266 321 389
#     4  11  24  39  62  96 127 164 220 254 322 380
#     4  10  24  40  66  90 128 164 212 270 322 372
#     4  10  20  43  62  86 130 175 200 260 324 389
#     4  11  22  39  60  94 126 160 209 269 307 376
#     4   9  21  44  63  91 121 172 211 260 328 387
#     4  10  23  39  67  90 124 168 214 259 329 385
#     4   9  18  40  65  79 122 172 201 252 324 374
#
# _framework density 20.985336
#
# number of rings (size 3 to 8) (size 9 to 14) (size 15 to 20)
#    0.000    1.867    2.667    0.800    1.867    7.467 
#    0.000    1.333    0.000    0.000    0.000    0.000 
#    0.000    0.000    0.000    0.000    0.000    0.000 
#
# Total GULP energy -167333.685365 kJ/mol
# GULP energy per Si atom -5577.789512 kJ/mol
# Density = 2.093757 g / cm^3
# Si number density = 20.985336 Si / 1000 Ang^3
#
#
#
# Elastic Constant Matrix: (Units=GPa)
#
#
# Indices 1 2 3 4 5 6 
#
# 1 126.3713 29.5701 30.8693 0.0000 30.6283 0.0000
# 2 29.5701 -7.8752 -9.6661 0.0000 -19.6755 0.0000
# 3 30.8693 -9.6661 28.8555 0.0000 11.7059 0.0000
# 4 0.0000 0.0000 0.0000 1.2066 0.0000 2.8075
# 5 30.6283 -19.6755 11.7059 0.0000 25.0893 0.0000
# 6 0.0000 0.0000 0.0000 2.8075 0.0000 11.1050
#
#
#
# Elastic Compliance Matrix: (Units=1/GPa)
#
#
# Indices 1 2 3 4 5 6 
#
# 1 0.004951 0.011452 -0.003271 0.000000 0.004463 0.000000
# 2 0.011452 -0.016399 -0.008457 0.000000 -0.022895 0.000000
# 3 -0.003271 -0.008457 0.044888 0.000000 -0.023583 0.000000
# 4 0.000000 0.000000 0.000000 2.012804 0.000000 -0.508861
# 5 0.004463 -0.022895 -0.023583 0.000000 0.027457 0.000000
# 6 0.000000 0.000000 0.000000 -0.508861 0.000000 0.218696
#
#
# Mechanical properties :
#
#
# Convention : Reuss Voigt Hill
#
# Bulk Modulus (GPa) = 30.40490 27.65536 29.03013
# Shear Modulus (GPa) = 2.17022 13.91873 8.04448
#
# Velocity S-wave (km/s) = 1.01804 2.57818 1.96003
# Velocity P-wave (km/s) = 3.98773 4.69784 4.35727
#
# Compressibility (1/GPa) = 0.03288943
#
# Stress axis : x y z
#
# Youngs Moduli (GPa) = 201.99423 -60.97926 22.27754
#
# Poissons Ratio (x) = 0.69834 0.07286
# Poissons Ratio (y) = -2.31325 0.18840
# Poissons Ratio (z) = 0.66063 -0.51569
#
# Static dielectric constant tensor:
#      x y z
#    x 1.768590 0.000000 0.009850 
#    y 0.000000 1.817570 0.000000 
#    z 0.009850 0.000000 1.722840 
# 
# From -- ./inp_files/171860.got.cif
#   From: 2010.05.17/outbox.cif.g08.bks.cpg/sg15_86_cif.got.tgz:171860.got - 2010.06.03 18:47:42.
