data_PCOD9278210
_publ_section_title
;
Structure prediction by ZEFSAII (Michael W. Deem and Ramdas Pophale) SiO2 
 PCOD9278210
Probable space group: C 2/C
;
_chemical_formula_sum "Si O2"
_cell_formula_units_Z 60
_cell_length_a 16.915512
_cell_length_b 9.177465
_cell_length_c 16.126743
_cell_angle_alpha 90.000000
_cell_angle_beta 94.525004
_cell_angle_gamma 90.000000
_cell_volume 2495.736549
_symmetry_space_group_name_H-M "C 2/C"
_symmetry_group_IT_number 15
_symmetry_cell_setting 'monoclinic'
loop_
_space_group_symop_operation_xyz
x,y,z
-x,y,1/2-z
-x,-y,-z
x,-y,1/2+z
1/2+x,1/2+y,z
1/2-x,1/2+y,1/2-z
1/2-x,1/2-y,-z
1/2+x,1/2-y,1/2+z
loop_
_atom_site_type_symbol
_atom_site_label
_atom_site_fract_x
_atom_site_fract_y
_atom_site_fract_z
Si Si1 0.580787 0.200559 0.964993
Si Si2 0.095267 0.769299 0.549017
Si Si3 0.500000 0.723266 0.750000
Si Si4 0.824875 0.983671 0.539050
Si Si5 0.154997 0.486014 0.602913
Si Si6 0.734907 0.828704 0.764688
Si Si7 0.892020 0.589793 0.119994
Si Si8 0.353758 0.543196 0.729704
O O1 0.498577 0.286308 0.948230
O O2 0.650440 0.317673 0.972262
O O3 0.590083 0.078974 0.894803
O O4 0.587326 0.106464 0.050227
O O5 0.142273 0.916038 0.532225
O O6 0.127377 0.650887 0.617209
O O7 0.105902 0.674915 0.465951
O O8 0.544371 0.828820 0.817171
O O9 0.431183 0.614314 0.776030
O O10 0.863746 0.032101 0.630837
O O11 0.731461 0.995506 0.548284
O O12 0.184635 0.398787 0.684870
O O13 0.692895 0.885888 0.844195
O O14 0.717639 0.657557 0.760696
O O15 0.822780 0.889852 0.759889
#
# Coordination Sequence:
#
# PCOD9278210 Si02
#       8
#     8   8   4   8   8   8   8   8
#     4  11  25  40  66  97 129 169 221 267 308 389
#     4  11  22  43  64  94 128 169 216 268 318 373
#     4  10  20  42  68  88 126 172 208 258 336 380
#     4  11  22  45  63  93 132 167 211 268 325 374
#     4  10  23  40  68  95 123 171 220 258 322 391
#     4  10  22  41  66  96 130 165 217 263 327 378
#     4  10  22  39  68  89 131 167 212 260 322 382
#     4  10  23  40  69  93 128 169 213 267 319 393
#
# _framework density 24.040997999999998
#
# number of rings (size 3 to 8) (size 9 to 14) (size 15 to 20)
#    0.000    1.600    2.667    2.800   11.200    0.000 
#    0.000    3.333    0.000    0.000    0.000    0.000 
#    0.000    0.000    0.000    0.000    0.000    0.000 
#
# Total GULP energy -167873.279116 kJ/mol
# GULP energy per Si atom -5595.775971 kJ/mol
# Density = 2.398628 g / cm^3
# Si number density = 24.040998 Si / 1000 Ang^3
#
#
#
# Elastic Constant Matrix: (Units=GPa)
#
#
# Indices 1 2 3 4 5 6 
#
# 1 99.3684 19.2207 -14.8021 0.0000 4.4558 0.0000
# 2 19.2207 115.0715 11.8318 0.0000 5.9396 0.0000
# 3 -14.8021 11.8318 23.7664 0.0000 15.1910 0.0000
# 4 0.0000 0.0000 0.0000 32.6239 0.0000 -4.7258
# 5 4.4558 5.9396 15.1910 0.0000 24.4794 0.0000
# 6 0.0000 0.0000 0.0000 -4.7258 0.0000 37.9325
#
#
#
# Elastic Compliance Matrix: (Units=1/GPa)
#
#
# Indices 1 2 3 4 5 6 
#
# 1 0.014330 -0.003697 0.019656 0.000000 -0.013909 0.000000
# 2 -0.003697 0.010128 -0.010282 0.000000 0.004596 0.000000
# 3 0.019656 -0.010282 0.099659 0.000000 -0.062928 0.000000
# 4 0.000000 0.000000 0.000000 0.031216 0.000000 0.003889
# 5 -0.013909 0.004596 -0.062928 0.000000 0.081318 0.000000
# 6 0.000000 0.000000 0.000000 0.003889 0.000000 0.026847
#
#
# Mechanical properties :
#
#
# Convention : Reuss Voigt Hill
#
# Bulk Modulus (GPa) = 7.38164 30.07856 18.73010
# Shear Modulus (GPa) = 16.81800 33.80422 25.31111
#
# Velocity S-wave (km/s) = 2.64778 3.75388 3.24826
# Velocity P-wave (km/s) = 3.52488 5.59708 4.67718
#
# Compressibility (1/GPa) = 0.13547128
#
# Stress axis : x y z
#
# Youngs Moduli (GPa) = 69.78221 98.73905 10.03421
#
# Poissons Ratio (x) = 0.36501 -0.19723
# Poissons Ratio (y) = 0.25797 0.10317
# Poissons Ratio (z) = -1.37164 1.01525
#
# Static dielectric constant tensor:
#      x y z
#    x 1.926370 0.000000 0.025440 
#    y 0.000000 1.888000 0.000000 
#    z 0.025440 0.000000 1.957390 
# 
# From -- ./inp_files/209592.got.cif
#   From: 2010.05.17/outbox.cif.g08.bks.cpg/sg15_105_cif.got.tgz:209592.got - 2010.06.03 18:47:42.
