data_PCOD9278224
_publ_section_title
;
Structure prediction by ZEFSAII (Michael W. Deem and Ramdas Pophale) SiO2 
 PCOD9278224
Probable space group: C 2/C
;
_chemical_formula_sum "Si O2"
_cell_formula_units_Z 60
_cell_length_a 19.271684
_cell_length_b 8.613701
_cell_length_c 22.962483
_cell_angle_alpha 90.000000
_cell_angle_beta 129.430649
_cell_angle_gamma 90.000000
_cell_volume 2944.198979
_symmetry_space_group_name_H-M "C 2/C"
_symmetry_group_IT_number 15
_symmetry_cell_setting 'monoclinic'
loop_
_space_group_symop_operation_xyz
x,y,z
-x,y,1/2-z
-x,-y,-z
x,-y,1/2+z
1/2+x,1/2+y,z
1/2-x,1/2+y,1/2-z
1/2-x,1/2-y,-z
1/2+x,1/2-y,1/2+z
loop_
_atom_site_type_symbol
_atom_site_label
_atom_site_fract_x
_atom_site_fract_y
_atom_site_fract_z
Si Si1 0.089960 0.272137 0.709431
Si Si2 0.062970 0.719106 0.063831
Si Si3 0.500000 0.465738 0.250000
Si Si4 0.356065 0.308272 0.618496
Si Si5 0.321624 0.628278 0.965390
Si Si6 0.625955 0.924886 0.030378
Si Si7 0.423605 0.020703 0.125369
Si Si8 0.721252 0.184612 0.378072
O O1 0.097617 0.232226 0.645729
O O2 0.038081 0.139616 0.717932
O O3 0.181218 0.308828 0.791966
O O4 0.025219 0.422344 0.678487
O O5 0.094255 0.831379 0.029547
O O6 0.105507 0.551648 0.068869
O O7 0.955857 0.698125 0.008754
O O8 0.584252 0.569421 0.315331
O O9 0.343609 0.366765 0.545467
O O10 0.256757 0.257944 0.587033
O O11 0.408586 0.143980 0.646998
O O12 0.282297 0.463451 0.925133
O O13 0.720773 0.838740 0.081594
O O14 0.611794 0.998751 0.959202
O O15 0.363934 0.153481 0.125015
#
# Coordination Sequence:
#
# PCOD9278224 Si02
#       8
#     8   8   4   8   8   8   8   8
#     4  11  25  42  63  95 134 170 212 264 326 389
#     4  10  23  44  61  91 130 171 216 259 326 385
#     4  12  26  42  66 100 128 166 222 268 326 384
#     4  10  24  41  68  98 126 171 209 273 320 381
#     4  10  23  43  65  97 131 164 221 260 322 386
#     4  10  22  40  67  92 121 174 213 267 311 384
#     4  10  20  42  68  91 130 166 215 264 323 381
#     4  11  23  37  66  97 127 170 214 266 319 373
#
# _framework density 20.379058000000001
#
# number of rings (size 3 to 8) (size 9 to 14) (size 15 to 20)
#    0.000    1.600    2.667    0.400    9.333    1.600 
#    0.000    0.000    0.000    0.000    0.000    0.000 
#    0.000    0.000    0.000    0.000    0.000    0.000 
#
# Total GULP energy -167649.679293 kJ/mol
# GULP energy per Si atom -5588.322643 kJ/mol
# Density = 2.033267 g / cm^3
# Si number density = 20.379058 Si / 1000 Ang^3
#
#
#
# Elastic Constant Matrix: (Units=GPa)
#
#
# Indices 1 2 3 4 5 6 
#
# 1 49.1762 4.3806 8.3679 0.0000 -21.3085 0.0000
# 2 4.3806 58.0271 32.6513 0.0000 2.6325 0.0000
# 3 8.3679 32.6513 95.1923 0.0000 -8.5194 0.0000
# 4 0.0000 0.0000 0.0000 17.4543 0.0000 16.1936
# 5 -21.3085 2.6325 -8.5194 0.0000 24.8720 0.0000
# 6 0.0000 0.0000 0.0000 16.1936 0.0000 4.9402
#
#
#
# Elastic Compliance Matrix: (Units=1/GPa)
#
#
# Indices 1 2 3 4 5 6 
#
# 1 0.033276 -0.004564 0.001274 0.000000 0.029428 0.000000
# 2 -0.004564 0.022581 -0.008158 0.000000 -0.009095 0.000000
# 3 0.001274 -0.008158 0.013789 0.000000 0.006678 0.000000
# 4 0.000000 0.000000 0.000000 -0.028068 0.000000 0.092006
# 5 0.029428 -0.009095 0.006678 0.000000 0.068668 0.000000
# 6 0.000000 0.000000 0.000000 0.092006 0.000000 -0.099169
#
#
# Mechanical properties :
#
#
# Convention : Reuss Voigt Hill
#
# Bulk Modulus (GPa) = 21.39035 32.57723 26.98379
# Shear Modulus (GPa) = 100.89546 19.91969 60.40757
#
# Velocity S-wave (km/s) = 7.04392 3.12983 5.45035
# Velocity P-wave (km/s) = 8.75642 5.39272 7.27174
#
# Compressibility (1/GPa) = 0.04675005
#
# Stress axis : x y z
#
# Youngs Moduli (GPa) = 30.05142 44.28516 72.52179
#
# Poissons Ratio (x) = 0.20212 -0.09240
# Poissons Ratio (y) = 0.13716 0.59164
# Poissons Ratio (z) = -0.03829 0.36128
#
# Static dielectric constant tensor:
#      x y z
#    x 1.719980 0.000000 0.007210 
#    y 0.000000 1.743970 0.000000 
#    z 0.007210 0.000000 1.715890 
# 
# From -- ./inp_files/279712.got.cif
#   From: 2010.05.17/outbox.cif.g08.bks.cpg/sg15_140_cif.got.tgz:279712.got - 2010.06.03 18:47:42.
