data_PCOD9278574
_publ_section_title
;
Structure prediction by ZEFSAII (Michael W. Deem and Ramdas Pophale) SiO2 
 PCOD9278574
Probable space group: C 2/C
;
_chemical_formula_sum "Si O2"
_cell_formula_units_Z 44
_cell_length_a 15.518890
_cell_length_b 6.398846
_cell_length_c 20.452625
_cell_angle_alpha 90.000000
_cell_angle_beta 115.368080
_cell_angle_gamma 90.000000
_cell_volume 1835.165137
_symmetry_space_group_name_H-M "C 2/C"
_symmetry_group_IT_number 15
_symmetry_cell_setting 'monoclinic'
loop_
_space_group_symop_operation_xyz
x,y,z
-x,y,1/2-z
-x,-y,-z
x,-y,1/2+z
1/2+x,1/2+y,z
1/2-x,1/2+y,1/2-z
1/2-x,1/2-y,-z
1/2+x,1/2-y,1/2+z
loop_
_atom_site_type_symbol
_atom_site_label
_atom_site_fract_x
_atom_site_fract_y
_atom_site_fract_z
Si Si1 0.331949 0.089419 0.544737
Si Si2 0.500000 0.700473 0.250000
Si Si3 0.818345 0.500663 0.685760
Si Si4 0.005249 0.931905 0.607855
Si Si5 0.401863 0.892111 0.445269
Si Si6 0.636794 0.229897 0.170437
O O1 0.250000 0.250000 0.500000
O O2 0.313223 0.966391 0.606214
O O3 0.420015 0.259251 0.574817
O O4 0.339683 0.922371 0.489201
O O5 0.593437 0.840755 0.284313
O O6 0.480729 0.578059 0.309692
O O7 0.721954 0.613597 0.678575
O O8 0.847818 0.325334 0.748226
O O9 0.075738 0.833912 0.576276
O O10 0.033914 0.177000 0.613007
O O11 0.500000 0.000000 0.500000
O O12 0.355529 0.019190 0.369806
#
# Coordination Sequence:
#
# PCOD9278574 Si02
#       6
#     8   4   8   8   8   8
#     4  10  21  45  73 105 143 180 233 298 352 423
#     4  10  20  44  62 100 134 176 232 294 338 400
#     4  11  24  41  73  99 143 184 236 290 348 417
#     4  10  23  42  71  97 139 182 232 289 348 416
#     4  10  22  44  72  95 140 182 231 286 355 422
#     4  12  24  45  70 102 136 192 235 286 359 423
#
# _framework density 23.976043000000001
#
# number of rings (size 3 to 8) (size 9 to 14) (size 15 to 20)
#    0.000    1.455    3.636    1.091    0.000    3.636 
#    0.000    2.727    4.000    0.000    0.000    0.000 
#    0.000    0.000    0.000    0.000    0.000    0.000 
#
# Total GULP energy -122500.421817 kJ/mol
# GULP energy per Si atom -5568.200992 kJ/mol
# Density = 2.392147 g / cm^3
# Si number density = 23.976043 Si / 1000 Ang^3
#
#
#
# Elastic Constant Matrix: (Units=GPa)
#
#
# Indices 1 2 3 4 5 6 
#
# 1 59.2304 17.1188 43.5721 0.0000 -21.0456 0.0000
# 2 17.1188 41.3021 48.7306 0.0000 -6.5828 0.0000
# 3 43.5721 48.7306 147.2956 0.0000 -42.0826 0.0000
# 4 0.0000 0.0000 0.0000 223.4307 0.0000 -70.6085
# 5 -21.0456 -6.5828 -42.0826 0.0000 49.2420 0.0000
# 6 0.0000 0.0000 0.0000 -70.6085 0.0000 41.4656
#
#
#
# Elastic Compliance Matrix: (Units=1/GPa)
#
#
# Indices 1 2 3 4 5 6 
#
# 1 0.022967 -0.004257 -0.003630 0.000000 0.006145 0.000000
# 2 -0.004257 0.042925 -0.015641 0.000000 -0.009448 0.000000
# 3 -0.003630 -0.015641 0.015872 0.000000 0.009922 0.000000
# 4 0.000000 0.000000 0.000000 0.009690 0.000000 0.016501
# 5 0.006145 -0.009448 0.009922 0.000000 0.030151 0.000000
# 6 0.000000 0.000000 0.000000 0.016501 0.000000 0.052214
#
#
# Mechanical properties :
#
#
# Convention : Reuss Voigt Hill
#
# Bulk Modulus (GPa) = 28.81197 51.85235 40.33216
# Shear Modulus (GPa) = 21.51046 72.05476 46.78261
#
# Velocity S-wave (km/s) = 2.99852 5.48799 4.42206
# Velocity P-wave (km/s) = 4.90217 7.86328 6.55219
#
# Compressibility (1/GPa) = 0.03470779
#
# Stress axis : x y z
#
# Youngs Moduli (GPa) = 43.54011 23.29664 63.00277
#
# Poissons Ratio (x) = 0.09918 0.22871
# Poissons Ratio (y) = 0.18535 0.98543
# Poissons Ratio (z) = 0.15806 0.36438
#
# Static dielectric constant tensor:
#      x y z
#    x 2.011410 0.000000 0.007640 
#    y 0.000000 1.942020 0.000000 
#    z 0.007640 0.000000 1.972840 
# 
# From -- ./inp_files/246523.got.cif
#   From: 2010.05.17/outbox.cif.g08.bks.cpg/sg15_124_cif.got.tgz:246523.got - 2010.06.03 18:47:42.
