data_PCOD9278354
_publ_section_title
;
Structure prediction by ZEFSAII (Michael W. Deem and Ramdas Pophale) SiO2 
 PCOD9278354
Probable space group: C 2/C
;
_chemical_formula_sum "Si O2"
_cell_formula_units_Z 60
_cell_length_a 25.457150
_cell_length_b 8.812232
_cell_length_c 24.931565
_cell_angle_alpha 90.000000
_cell_angle_beta 147.902120
_cell_angle_gamma 90.000000
_cell_volume 2971.939855
_symmetry_space_group_name_H-M "C 2/C"
_symmetry_group_IT_number 15
_symmetry_cell_setting 'monoclinic'
loop_
_space_group_symop_operation_xyz
x,y,z
-x,y,1/2-z
-x,-y,-z
x,-y,1/2+z
1/2+x,1/2+y,z
1/2-x,1/2+y,1/2-z
1/2-x,1/2-y,-z
1/2+x,1/2-y,1/2+z
loop_
_atom_site_type_symbol
_atom_site_label
_atom_site_fract_x
_atom_site_fract_y
_atom_site_fract_z
Si Si1 0.777827 0.079640 0.542563
Si Si2 0.748977 0.913364 0.799645
Si Si3 0.496298 0.333123 0.365998
Si Si4 0.518581 0.047764 0.077329
Si Si5 0.662369 0.906710 0.534926
Si Si6 0.500000 0.665236 0.750000
Si Si7 0.788746 0.930763 0.231033
Si Si8 0.319427 0.553140 0.970057
O O1 0.750000 0.250000 0.500000
O O2 0.894439 0.077955 0.659358
O O3 0.710100 0.015397 0.531190
O O4 0.764655 0.979735 0.478200
O O5 0.635006 0.951407 0.688139
O O6 0.762317 0.733058 0.806858
O O7 0.811955 0.000601 0.809289
O O8 0.769674 0.970793 0.876809
O O9 0.516747 0.213083 0.431325
O O10 0.500813 0.258019 0.310086
O O11 0.387802 0.398131 0.283521
O O12 0.574529 0.469389 0.433687
O O13 0.500000 0.000000 0.000000
O O14 0.453512 0.935724 0.057036
O O15 0.677413 0.731259 0.536332
O O16 0.718085 0.955925 0.637691
#
# Coordination Sequence:
#
# PCOD9278354 Si02
#       8
#     8   8   8   8   8   4   8   8
#     4  11  23  44  73  96 134 172 226 277 329 406
#     4  11  24  41  64  96 133 169 230 269 337 394
#     4  10  23  43  69  99 132 175 231 270 341 403
#     4  11  24  43  66  95 132 176 225 279 328 393
#     4  12  23  44  66  96 134 172 217 274 340 393
#     4  10  20  42  72 100 126 176 220 274 328 394
#     4  11  22  41  69  93 130 179 217 283 328 400
#     4  11  26  41  65 103 131 173 216 275 340 408
#
# _framework density 20.188835000000001
#
# number of rings (size 3 to 8) (size 9 to 14) (size 15 to 20)
#    0.000    1.067    2.667    4.400    3.733    2.667 
#    0.000    0.000    0.000    0.000    0.000    0.000 
#    0.000    0.000    0.000    0.000    0.000    0.000 
#
# Total GULP energy -167519.295134 kJ/mol
# GULP energy per Si atom -5583.976504 kJ/mol
# Density = 2.014288 g / cm^3
# Si number density = 20.188835 Si / 1000 Ang^3
#
#
#
# Elastic Constant Matrix: (Units=GPa)
#
#
# Indices 1 2 3 4 5 6 
#
# 1 112.9856 8.9110 29.1417 0.0000 -12.4508 0.0000
# 2 8.9110 82.1066 38.7692 0.0000 -3.3242 0.0000
# 3 29.1417 38.7692 62.0628 0.0000 -21.7007 0.0000
# 4 0.0000 0.0000 0.0000 20.9841 0.0000 -10.7792
# 5 -12.4508 -3.3242 -21.7007 0.0000 30.0554 0.0000
# 6 0.0000 0.0000 0.0000 -10.7792 0.0000 33.4251
#
#
#
# Elastic Compliance Matrix: (Units=1/GPa)
#
#
# Indices 1 2 3 4 5 6 
#
# 1 0.010226 0.001587 -0.005686 0.000000 0.000306 0.000000
# 2 0.001587 0.019033 -0.015610 0.000000 -0.008508 0.000000
# 3 -0.005686 -0.015610 0.036261 0.000000 0.022099 0.000000
# 4 0.000000 0.000000 0.000000 0.057117 0.000000 0.018420
# 5 0.000306 -0.008508 0.022099 0.000000 0.048414 0.000000
# 6 0.000000 0.000000 0.000000 0.018420 0.000000 0.035858
#
#
# Mechanical properties :
#
#
# Convention : Reuss Voigt Hill
#
# Bulk Modulus (GPa) = 38.30993 45.64430 41.97711
# Shear Modulus (GPa) = 19.60577 28.91512 24.26045
#
# Velocity S-wave (km/s) = 3.11966 3.78859 3.47028
# Velocity P-wave (km/s) = 5.65627 6.46496 6.07409
#
# Compressibility (1/GPa) = 0.02610290
#
# Stress axis : x y z
#
# Youngs Moduli (GPa) = 97.79164 52.53967 27.57785
#
# Poissons Ratio (x) = -0.08341 0.15681
# Poissons Ratio (y) = -0.15524 0.43049
# Poissons Ratio (z) = 0.55606 0.82014
#
# Static dielectric constant tensor:
#      x y z
#    x 1.724690 0.000000 0.000880 
#    y 0.000000 1.702890 0.000000 
#    z 0.000880 0.000000 1.731960 
# 
# From -- ./inp_files/281698.got.cif
#   From: 2010.05.17/outbox.cif.g08.bks.cpg/sg15_141_cif.got.tgz:281698.got - 2010.06.03 18:47:42.
