data_PCOD9278601
_publ_section_title
;
Structure prediction by ZEFSAII (Michael W. Deem and Ramdas Pophale) SiO2 
 PCOD9278601
Probable space group: C 2/C
;
_chemical_formula_sum "Si O2"
_cell_formula_units_Z 52
_cell_length_a 15.163659
_cell_length_b 9.731722
_cell_length_c 18.903663
_cell_angle_alpha 90.000000
_cell_angle_beta 50.926408
_cell_angle_gamma 90.000000
_cell_volume 2165.658424
_symmetry_space_group_name_H-M "C 2/C"
_symmetry_group_IT_number 15
_symmetry_cell_setting 'monoclinic'
loop_
_space_group_symop_operation_xyz
x,y,z
-x,y,1/2-z
-x,-y,-z
x,-y,1/2+z
1/2+x,1/2+y,z
1/2-x,1/2+y,1/2-z
1/2-x,1/2-y,-z
1/2+x,1/2-y,1/2+z
loop_
_atom_site_type_symbol
_atom_site_label
_atom_site_fract_x
_atom_site_fract_y
_atom_site_fract_z
Si Si1 0.853200 0.848771 0.886221
Si Si2 0.500000 0.554018 0.750000
Si Si3 0.218093 0.219898 0.397418
Si Si4 0.044023 0.929886 0.905405
Si Si5 0.396269 0.690055 0.691746
Si Si6 0.329040 0.046087 0.915830
Si Si7 0.468664 0.908430 0.948301
O O1 0.845205 0.690527 0.866849
O O2 0.947134 0.877538 0.900895
O O3 0.894193 0.949477 0.803658
O O4 0.738307 0.900054 0.980397
O O5 0.512262 0.647822 0.674902
O O6 0.117595 0.195886 0.392344
O O7 0.317866 0.272422 0.296711
O O8 0.151380 0.324694 0.482407
O O9 0.260649 0.077609 0.412373
O O10 0.128836 0.046151 0.832265
O O11 0.000000 0.000000 0.000000
O O12 0.428302 0.803983 0.619356
O O13 0.447991 0.992333 0.886379
O O14 0.500000 0.000000 0.000000
#
# Coordination Sequence:
#
# PCOD9278601 Si02
#       7
#     8   4   8   8   8   8   8
#     4  10  22  40  66  98 126 178 221 282 337 414
#     4  10  20  44  64  92 132 172 224 276 350 402
#     4  12  24  43  68  97 134 181 225 284 342 410
#     4  11  21  45  66  91 134 176 223 277 341 405
#     4  11  25  41  68  95 131 176 223 281 342 408
#     4  11  23  41  68  97 132 173 227 275 346 409
#     4  12  26  43  67 100 139 177 228 285 342 414
#
# _framework density 24.011172999999999
#
# number of rings (size 3 to 8) (size 9 to 14) (size 15 to 20)
#    0.000    0.923    3.077    4.154    2.154    1.231 
#    5.538    0.000    0.000    0.000    0.000    0.000 
#    0.000    0.000    0.000    0.000    0.000    0.000 
#
# Total GULP energy -145049.866607 kJ/mol
# GULP energy per Si atom -5578.841023 kJ/mol
# Density = 2.395652 g / cm^3
# Si number density = 24.011173 Si / 1000 Ang^3
#
#
#
# Elastic Constant Matrix: (Units=GPa)
#
#
# Indices 1 2 3 4 5 6 
#
# 1 58.8757 10.2448 -18.2631 0.0000 9.4194 0.0000
# 2 10.2448 119.9091 34.7960 0.0000 6.8215 0.0000
# 3 -18.2631 34.7960 88.6368 0.0000 1.5127 0.0000
# 4 0.0000 0.0000 0.0000 41.3064 0.0000 8.0271
# 5 9.4194 6.8215 1.5127 0.0000 28.0797 0.0000
# 6 0.0000 0.0000 0.0000 8.0271 0.0000 47.3004
#
#
#
# Elastic Compliance Matrix: (Units=1/GPa)
#
#
# Indices 1 2 3 4 5 6 
#
# 1 0.020195 -0.002938 0.005423 0.000000 -0.006353 0.000000
# 2 -0.002938 0.009963 -0.004496 0.000000 -0.001193 0.000000
# 3 0.005423 -0.004496 0.014190 0.000000 -0.001491 0.000000
# 4 0.000000 0.000000 0.000000 0.025035 0.000000 -0.004249
# 5 -0.006353 -0.001193 -0.001491 0.000000 0.038114 0.000000
# 6 0.000000 0.000000 0.000000 -0.004249 0.000000 0.021862
#
#
# Mechanical properties :
#
#
# Convention : Reuss Voigt Hill
#
# Bulk Modulus (GPa) = 24.79836 35.66414 30.23125
# Shear Modulus (GPa) = 34.05460 39.38022 36.71741
#
# Velocity S-wave (km/s) = 3.77009 4.05418 3.91472
# Velocity P-wave (km/s) = 5.41311 6.06635 5.74901
#
# Compressibility (1/GPa) = 0.04032525
#
# Stress axis : x y z
#
# Youngs Moduli (GPa) = 49.51839 100.36931 70.47331
#
# Poissons Ratio (x) = 0.29484 -0.38215
# Poissons Ratio (y) = 0.14546 0.31686
# Poissons Ratio (z) = -0.26852 0.45128
#
# Static dielectric constant tensor:
#      x y z
#    x 1.682420 0.000000 0.649160 
#    y 0.000000 1.954210 0.000000 
#    z 0.649160 0.000000 0.659640 
# 
# From -- ./inp_files/247783.got.cif
#   From: 2010.05.17/outbox.cif.g08.bks.cpg/sg15_124_cif.got.tgz:247783.got - 2010.06.03 18:47:42.
