data_PCOD9278800
_publ_section_title
;
Structure prediction by ZEFSAII (Michael W. Deem and Ramdas Pophale) SiO2 
 PCOD9278800
Probable space group: C 2/C
;
_chemical_formula_sum "Si O2"
_cell_formula_units_Z 56
_cell_length_a 9.609511
_cell_length_b 25.579176
_cell_length_c 10.635805
_cell_angle_alpha 90.000000
_cell_angle_beta 107.218527
_cell_angle_gamma 90.000000
_cell_volume 2497.150109
_symmetry_space_group_name_H-M "C 2/C"
_symmetry_group_IT_number 15
_symmetry_cell_setting 'monoclinic'
loop_
_space_group_symop_operation_xyz
x,y,z
-x,y,1/2-z
-x,-y,-z
x,-y,1/2+z
1/2+x,1/2+y,z
1/2-x,1/2+y,1/2-z
1/2-x,1/2-y,-z
1/2+x,1/2-y,1/2+z
loop_
_atom_site_type_symbol
_atom_site_label
_atom_site_fract_x
_atom_site_fract_y
_atom_site_fract_z
Si Si1 0.243204 0.428597 0.477696
Si Si2 0.543947 0.975885 0.143598
Si Si3 0.288828 0.365984 0.738987
Si Si4 0.500000 0.181135 0.250000
Si Si5 0.478592 0.376782 0.024252
Si Si6 0.141989 0.027398 0.863603
Si Si7 0.420540 0.255241 0.008677
Si Si8 0.000000 0.774516 0.750000
O O1 0.242759 0.405229 0.618285
O O2 0.353846 0.393335 0.429917
O O3 0.315351 0.486056 0.515808
O O4 0.080078 0.431051 0.381437
O O5 0.500000 0.011521 0.250000
O O6 0.714741 0.967458 0.183743
O O7 0.500000 0.000000 0.000000
O O8 0.360886 0.313595 0.698275
O O9 0.148347 0.351536 0.784001
O O10 0.412196 0.386544 0.867085
O O11 0.501005 0.216736 0.125582
O O12 0.393896 0.415797 0.091923
O O13 0.459650 0.315757 0.044362
O O14 0.000000 0.008913 0.750000
O O15 0.250000 0.250000 0.000000
O O16 0.463505 0.246046 0.872821
#
# Coordination Sequence:
#
# PCOD9278800 Si02
#       8
#     8   8   8   4   8   8   8   4
#     4  11  22  42  70 100 139 186 237 290 338 425
#     4  10  24  43  64  98 141 182 233 286 345 409
#     4  11  22  42  70 102 134 188 241 286 349 437
#     4  12  26  42  74 105 137 178 244 294 374 420
#     4  11  22  41  68  96 139 183 239 284 351 425
#     4  11  24  40  66 100 140 185 232 286 354 411
#     4  11  23  45  70 105 140 180 236 306 355 429
#     4  10  20  46  72  99 143 178 240 286 356 430
#
# _framework density 22.425564000000001
#
# number of rings (size 3 to 8) (size 9 to 14) (size 15 to 20)
#    0.000    1.143    5.714    2.143    3.000    6.286 
#    1.286    0.000    3.143    0.000    0.000    0.000 
#    0.000    0.000    0.000    0.000    0.000    0.000 
#
# Total GULP energy -156420.013709 kJ/mol
# GULP energy per Si atom -5586.429061 kJ/mol
# Density = 2.237452 g / cm^3
# Si number density = 22.425564 Si / 1000 Ang^3
#
#
#
# Elastic Constant Matrix: (Units=GPa)
#
#
# Indices 1 2 3 4 5 6 
#
# 1 185.1703 34.1202 46.9614 0.0000 2.9781 0.0000
# 2 34.1202 57.7014 9.9875 0.0000 -4.6244 0.0000
# 3 46.9614 9.9875 106.0908 0.0000 -1.1425 0.0000
# 4 0.0000 0.0000 0.0000 23.9812 0.0000 -7.5938
# 5 2.9781 -4.6244 -1.1425 0.0000 55.0349 0.0000
# 6 0.0000 0.0000 0.0000 -7.5938 0.0000 35.0701
#
#
#
# Elastic Compliance Matrix: (Units=1/GPa)
#
#
# Indices 1 2 3 4 5 6 
#
# 1 0.006747 -0.003588 -0.002657 0.000000 -0.000722 0.000000
# 2 -0.003588 0.019641 -0.000241 0.000000 0.001840 0.000000
# 3 -0.002657 -0.000241 0.010628 0.000000 0.000344 0.000000
# 4 0.000000 0.000000 0.000000 0.044769 0.000000 0.009694
# 5 -0.000722 0.001840 0.000344 0.000000 0.018371 0.000000
# 6 0.000000 0.000000 0.000000 0.009694 0.000000 0.030613
#
#
# Mechanical properties :
#
#
# Convention : Reuss Voigt Hill
#
# Bulk Modulus (GPa) = 41.58755 59.01117 50.29936
# Shear Modulus (GPa) = 32.94774 40.01014 36.47894
#
# Velocity S-wave (km/s) = 3.83718 4.22848 4.03757
# Velocity P-wave (km/s) = 6.18198 7.08600 6.64937
#
# Compressibility (1/GPa) = 0.02404566
#
# Stress axis : x y z
#
# Youngs Moduli (GPa) = 148.21768 50.91342 94.08912
#
# Poissons Ratio (x) = 0.18266 0.24995
# Poissons Ratio (y) = 0.53174 0.02269
# Poissons Ratio (z) = 0.39375 0.01228
#
# Static dielectric constant tensor:
#      x y z
#    x 1.854360 0.000000 -0.041030 
#    y 0.000000 1.831500 0.000000 
#    z -0.041030 0.000000 1.952140 
# 
# From -- ./inp_files/82292.got.cif
#   From: 2010.05.17/outbox.cif.g08.bks.cpg/sg15_42_cif.got.tgz:82292.got - 2010.06.03 18:47:42.
