data_PCOD9278880
_publ_section_title
;
Structure prediction by ZEFSAII (Michael W. Deem and Ramdas Pophale) SiO2 
 PCOD9278880
Probable space group: C 2/C
;
_chemical_formula_sum "Si O2"
_cell_formula_units_Z 48
_cell_length_a 10.533456
_cell_length_b 24.206810
_cell_length_c 8.982292
_cell_angle_alpha 90.000000
_cell_angle_beta 87.189250
_cell_angle_gamma 90.000000
_cell_volume 2287.561746
_symmetry_space_group_name_H-M "C 2/C"
_symmetry_group_IT_number 15
_symmetry_cell_setting 'monoclinic'
loop_
_space_group_symop_operation_xyz
x,y,z
-x,y,1/2-z
-x,-y,-z
x,-y,1/2+z
1/2+x,1/2+y,z
1/2-x,1/2+y,1/2-z
1/2-x,1/2-y,-z
1/2+x,1/2-y,1/2+z
loop_
_atom_site_type_symbol
_atom_site_label
_atom_site_fract_x
_atom_site_fract_y
_atom_site_fract_z
Si Si1 0.315102 0.202325 0.591892
Si Si2 0.444458 0.757192 0.588038
Si Si3 0.582930 0.928849 0.023762
Si Si4 0.222591 0.420435 0.463083
Si Si5 0.756310 0.678324 0.929023
Si Si6 0.197025 0.486459 0.737836
O O1 0.250000 0.250000 0.500000
O O2 0.458985 0.212580 0.529814
O O3 0.247003 0.143840 0.558346
O O4 0.303021 0.204673 0.769970
O O5 0.500000 0.759820 0.750000
O O6 0.392926 0.695096 0.558330
O O7 0.319062 0.793864 0.570182
O O8 0.627025 0.947028 0.858294
O O9 0.433406 0.916150 0.034962
O O10 0.681916 0.882271 0.073078
O O11 0.605735 0.979961 0.132070
O O12 0.267769 0.446559 0.616742
O O13 0.260984 0.465062 0.333936
#
# Coordination Sequence:
#
# PCOD9278880 Si02
#       6
#     8   8   8   8   8   8
#     4  12  24  40  62  88 127 166 207 254 308 365
#     4  11  24  41  59  87 119 162 209 247 298 368
#     4  11  19  33  54  83 118 156 192 247 310 364
#     4  11  20  33  55  84 121 157 196 246 307 374
#     4  11  24  39  61  85 122 168 200 246 310 360
#     4  10  21  32  52  86 119 155 196 246 309 374
#
# _framework density 20.983041
#
# number of rings (size 3 to 8) (size 9 to 14) (size 15 to 20)
#    0.000    1.000    5.000    4.500    2.333    0.000 
#    0.000    0.000    0.000    0.000    0.000   12.833 
#    0.000    0.000    0.000    0.000    0.000    0.000 
#
# Total GULP energy -133658.094907 kJ/mol
# GULP energy per Si atom -5569.087288 kJ/mol
# Density = 2.093528 g / cm^3
# Si number density = 20.983041 Si / 1000 Ang^3
#
#
#
# Elastic Constant Matrix: (Units=GPa)
#
#
# Indices 1 2 3 4 5 6 
#
# 1 21.6826 22.6959 22.6425 0.0000 1.1167 0.0000
# 2 22.6959 117.2654 45.7195 0.0000 4.2183 0.0000
# 3 22.6425 45.7195 132.1662 0.0000 9.6761 0.0000
# 4 0.0000 0.0000 0.0000 37.3402 0.0000 4.8876
# 5 1.1167 4.2183 9.6761 0.0000 22.8163 0.0000
# 6 0.0000 0.0000 0.0000 4.8876 0.0000 24.9282
#
#
#
# Elastic Compliance Matrix: (Units=1/GPa)
#
#
# Indices 1 2 3 4 5 6 
#
# 1 0.064079 -0.009405 -0.007867 0.000000 0.001939 0.000000
# 2 -0.009405 0.011241 -0.002228 0.000000 -0.000673 0.000000
# 3 -0.007867 -0.002228 0.009935 0.000000 -0.003416 0.000000
# 4 0.000000 0.000000 0.000000 0.027486 0.000000 -0.005389
# 5 0.001939 -0.000673 -0.003416 0.000000 0.045307 0.000000
# 6 0.000000 0.000000 0.000000 -0.005389 0.000000 0.041172
#
#
# Mechanical properties :
#
#
# Convention : Reuss Voigt Hill
#
# Bulk Modulus (GPa) = 21.61877 50.35891 35.98884
# Shear Modulus (GPa) = 19.71323 29.02068 24.36696
#
# Velocity S-wave (km/s) = 3.06843 3.72298 3.41144
# Velocity P-wave (km/s) = 4.78320 6.52171 5.71890
#
# Compressibility (1/GPa) = 0.04625609
#
# Stress axis : x y z
#
# Youngs Moduli (GPa) = 15.60568 88.96208 100.65705
#
# Poissons Ratio (x) = 0.83667 0.79182
# Poissons Ratio (y) = 0.14677 0.22426
# Poissons Ratio (z) = 0.12276 0.19820
#
# Static dielectric constant tensor:
#      x y z
#    x 1.893290 0.000000 -0.042560 
#    y 0.000000 1.899390 0.000000 
#    z -0.042560 0.000000 1.783750 
# 
# From -- ./inp_files/32137.got.cif
#   From: 2010.05.17/outbox.cif.g08.bks.cpg/sg15_17_cif.got.tgz:32137.got - 2010.06.03 18:47:42.
