data_PCOD9278707
_publ_section_title
;
Structure prediction by ZEFSAII (Michael W. Deem and Ramdas Pophale) SiO2 
 PCOD9278707
Probable space group: C 2/C
;
_chemical_formula_sum "Si O2"
_cell_formula_units_Z 52
_cell_length_a 20.059635
_cell_length_b 16.231127
_cell_length_c 7.998807
_cell_angle_alpha 90.000000
_cell_angle_beta 122.325364
_cell_angle_gamma 90.000000
_cell_volume 2200.729074
_symmetry_space_group_name_H-M "C 2/C"
_symmetry_group_IT_number 15
_symmetry_cell_setting 'monoclinic'
loop_
_space_group_symop_operation_xyz
x,y,z
-x,y,1/2-z
-x,-y,-z
x,-y,1/2+z
1/2+x,1/2+y,z
1/2-x,1/2+y,1/2-z
1/2-x,1/2-y,-z
1/2+x,1/2-y,1/2+z
loop_
_atom_site_type_symbol
_atom_site_label
_atom_site_fract_x
_atom_site_fract_y
_atom_site_fract_z
Si Si1 0.049475 0.746038 0.113264
Si Si2 0.213675 0.621065 0.856438
Si Si3 0.529790 0.088161 0.599561
Si Si4 0.500000 0.642263 0.250000
Si Si5 0.638174 0.465870 0.071573
Si Si6 0.725774 0.788735 0.721031
Si Si7 0.637380 0.371663 0.421119
O O1 0.135440 0.729007 0.143904
O O2 0.076745 0.797497 0.311613
O O3 0.999738 0.800393 0.913943
O O4 0.006893 0.659208 0.065254
O O5 0.123982 0.593753 0.718235
O O6 0.274958 0.550731 0.885094
O O7 0.233633 0.702451 0.774689
O O8 0.227972 0.651074 0.064522
O O9 0.500000 0.103016 0.750000
O O10 0.500000 0.000000 0.500000
O O11 0.575841 0.585063 0.377683
O O12 0.635077 0.425615 0.249633
O O13 0.617853 0.562065 0.037186
O O14 0.777425 0.832387 0.931919
#
# Coordination Sequence:
#
# PCOD9278707 Si02
#       7
#     8   8   8   4   8   8   8
#     4  11  22  45  72  98 139 189 233 301 357 431
#     4  11  24  44  75 104 137 187 248 292 369 427
#     4  12  28  49  72 104 148 192 241 304 362 431
#     4  10  20  44  72  98 136 184 232 286 384 408
#     4  11  25  43  70 104 142 188 234 310 356 444
#     4  11  22  44  74 102 134 187 243 295 353 442
#     4  11  25  44  70 104 144 185 242 295 369 428
#
# _framework density 23.628532
#
# number of rings (size 3 to 8) (size 9 to 14) (size 15 to 20)
#    0.000    0.923    5.385    1.385    4.308    4.923 
#    2.769    0.000    0.000    0.000    0.000    0.000 
#    0.000    0.000    0.000    0.000    0.000    0.000 
#
# Total GULP energy -145736.759534 kJ/mol
# GULP energy per Si atom -5605.259982 kJ/mol
# Density = 2.357475 g / cm^3
# Si number density = 23.628532 Si / 1000 Ang^3
#
#
#
# Elastic Constant Matrix: (Units=GPa)
#
#
# Indices 1 2 3 4 5 6 
#
# 1 94.7833 22.4947 47.5656 0.0000 21.7132 0.0000
# 2 22.4947 157.9837 73.8665 0.0000 16.2224 0.0000
# 3 47.5656 73.8665 150.4727 0.0000 17.8234 0.0000
# 4 0.0000 0.0000 0.0000 35.3362 0.0000 -8.0661
# 5 21.7132 16.2224 17.8234 0.0000 37.8685 0.0000
# 6 0.0000 0.0000 0.0000 -8.0661 0.0000 21.1606
#
#
#
# Elastic Compliance Matrix: (Units=1/GPa)
#
#
# Indices 1 2 3 4 5 6 
#
# 1 0.013818 0.000485 -0.003858 0.000000 -0.006315 0.000000
# 2 0.000485 0.008339 -0.004015 0.000000 -0.001961 0.000000
# 3 -0.003858 -0.004015 0.009924 0.000000 -0.000739 0.000000
# 4 0.000000 0.000000 0.000000 0.030997 0.000000 0.011816
# 5 -0.006315 -0.001961 -0.000739 0.000000 0.031216 0.000000
# 6 0.000000 0.000000 0.000000 0.011816 0.000000 0.051762
#
#
# Mechanical properties :
#
#
# Convention : Reuss Voigt Hill
#
# Bulk Modulus (GPa) = 57.78664 76.78814 67.28739
# Shear Modulus (GPa) = 30.01223 36.16057 33.08640
#
# Velocity S-wave (km/s) = 3.56781 3.91625 3.74608
# Velocity P-wave (km/s) = 6.44063 7.28134 6.87385
#
# Compressibility (1/GPa) = 0.01730504
#
# Stress axis : x y z
#
# Youngs Moduli (GPa) = 72.36922 119.91600 100.77050
#
# Poissons Ratio (x) = -0.05813 0.38877
# Poissons Ratio (y) = -0.03508 0.40456
# Poissons Ratio (z) = 0.27920 0.48142
#
# Static dielectric constant tensor:
#      x y z
#    x 1.919070 0.000000 -0.070090 
#    y 0.000000 1.870250 0.000000 
#    z -0.070090 0.000000 1.883130 
# 
# From -- ./inp_files/57090.got.cif
#   From: 2010.05.17/outbox.cif.g08.bks.cpg/sg15_29_cif.got.tgz:57090.got - 2010.06.03 18:47:42.
