data_PCOD9278112
_publ_section_title
;
Structure prediction by ZEFSAII (Michael W. Deem and Ramdas Pophale) SiO2 
 PCOD9278112
Probable space group: C 2/C
;
_chemical_formula_sum "Si O2"
_cell_formula_units_Z 36
_cell_length_a 11.715627
_cell_length_b 10.130343
_cell_length_c 15.147485
_cell_angle_alpha 90.000000
_cell_angle_beta 64.368221
_cell_angle_gamma 90.000000
_cell_volume 1620.841768
_symmetry_space_group_name_H-M "C 2/C"
_symmetry_group_IT_number 15
_symmetry_cell_setting 'monoclinic'
loop_
_space_group_symop_operation_xyz
x,y,z
-x,y,1/2-z
-x,-y,-z
x,-y,1/2+z
1/2+x,1/2+y,z
1/2-x,1/2+y,1/2-z
1/2-x,1/2-y,-z
1/2+x,1/2-y,1/2+z
loop_
_atom_site_type_symbol
_atom_site_label
_atom_site_fract_x
_atom_site_fract_y
_atom_site_fract_z
Si Si1 0.000000 0.973796 0.250000
Si Si2 0.118281 0.712400 0.266581
Si Si3 0.665377 0.288473 0.943619
Si Si4 0.664662 0.556961 0.033216
Si Si5 0.405093 0.835799 0.525135
O O1 0.914061 0.051832 0.348449
O O2 0.913443 0.869819 0.223547
O O3 0.246545 0.695743 0.170408
O O4 0.119277 0.653478 0.362737
O O5 0.000000 0.655598 0.250000
O O6 0.750000 0.250000 0.000000
O O7 0.621704 0.432613 0.989781
O O8 0.555517 0.182167 0.962599
O O9 0.815417 0.560782 0.004748
O O10 0.640706 0.691858 0.990749
#
# Coordination Sequence:
#
# PCOD9278112 Si02
#       5
#     4   8   8   8   8
#     4  10  20  42  66  90 130 182 222 256 346 398
#     4  10  21  40  65  96 124 176 222 265 337 403
#     4  12  21  43  66  93 135 169 218 279 331 391
#     4  11  25  42  66  98 134 181 218 278 336 396
#     4  11  25  43  64  99 136 171 231 271 332 409
#
# _framework density 22.210681000000001
#
# number of rings (size 3 to 8) (size 9 to 14) (size 15 to 20)
#    0.667    0.444    6.667    0.667    3.111    0.889 
#    0.000    0.000    0.000    0.000    0.000    0.000 
#    0.000    0.000    0.000    0.000    0.000    0.000 
#
# Total GULP energy -100488.282953 kJ/mol
# GULP energy per Si atom -5582.682386 kJ/mol
# Density = 2.216013 g / cm^3
# Si number density = 22.210681 Si / 1000 Ang^3
#
#
#
# Elastic Constant Matrix: (Units=GPa)
#
#
# Indices 1 2 3 4 5 6 
#
# 1 113.9340 14.2624 22.1721 0.0000 -17.6623 0.0000
# 2 14.2624 50.8391 -1.7229 0.0000 1.7124 0.0000
# 3 22.1721 -1.7229 78.7383 0.0000 -34.4158 0.0000
# 4 0.0000 0.0000 0.0000 -63.7751 0.0000 5.1689
# 5 -17.6623 1.7124 -34.4158 0.0000 36.7180 0.0000
# 6 0.0000 0.0000 0.0000 5.1689 0.0000 28.1866
#
#
#
# Elastic Compliance Matrix: (Units=1/GPa)
#
#
# Indices 1 2 3 4 5 6 
#
# 1 0.009973 -0.002967 -0.001213 0.000000 0.003799 0.000000
# 2 -0.002967 0.020584 0.000411 0.000000 -0.002002 0.000000
# 3 -0.001213 0.000411 0.021662 0.000000 0.019701 0.000000
# 4 0.000000 0.000000 0.000000 -0.015450 0.000000 0.002833
# 5 0.003799 -0.002002 0.019701 0.000000 0.047621 0.000000
# 6 0.000000 0.000000 0.000000 0.002833 0.000000 0.034958
#
#
# Mechanical properties :
#
#
# Convention : Reuss Voigt Hill
#
# Bulk Modulus (GPa) = 22.38090 34.77053 28.57572
# Shear Modulus (GPa) = 35.26590 14.14588 24.70589
#
# Velocity S-wave (km/s) = 3.98903 2.52642 3.33880
# Velocity P-wave (km/s) = 5.59598 4.91927 5.26850
#
# Compressibility (1/GPa) = 0.04468095
#
# Stress axis : x y z
#
# Youngs Moduli (GPa) = 100.26692 48.58237 46.16367
#
# Poissons Ratio (x) = 0.14414 0.05599
# Poissons Ratio (y) = 0.29749 -0.01896
# Poissons Ratio (z) = 0.12161 -0.01996
#
# Static dielectric constant tensor:
#      x y z
#    x 1.952630 0.000000 0.016740 
#    y 0.000000 1.800150 0.000000 
#    z 0.016740 0.000000 1.797640 
# 
# From -- ./inp_files/141623.got.cif
#   From: 2010.05.17/outbox.cif.g08.bks.cpg/sg15_71_cif.got.tgz:141623.got - 2010.06.03 18:47:42.
