data_PCOD9278066
_publ_section_title
;
Structure prediction by ZEFSAII (Michael W. Deem and Ramdas Pophale) SiO2 
 PCOD9278066
Probable space group: C 2/C
;
_chemical_formula_sum "Si O2"
_cell_formula_units_Z 44
_cell_length_a 20.521689
_cell_length_b 10.962858
_cell_length_c 11.697305
_cell_angle_alpha 90.000000
_cell_angle_beta 45.508644
_cell_angle_gamma 90.000000
_cell_volume 1877.280355
_symmetry_space_group_name_H-M "C 2/C"
_symmetry_group_IT_number 15
_symmetry_cell_setting 'monoclinic'
loop_
_space_group_symop_operation_xyz
x,y,z
-x,y,1/2-z
-x,-y,-z
x,-y,1/2+z
1/2+x,1/2+y,z
1/2-x,1/2+y,1/2-z
1/2-x,1/2-y,-z
1/2+x,1/2-y,1/2+z
loop_
_atom_site_type_symbol
_atom_site_label
_atom_site_fract_x
_atom_site_fract_y
_atom_site_fract_z
Si Si1 0.604149 0.776808 0.662052
Si Si2 0.223046 0.053422 0.529532
Si Si3 0.627994 0.930057 0.287454
Si Si4 0.615830 0.168943 0.410961
Si Si5 0.500000 0.863268 0.250000
Si Si6 0.206314 0.189690 0.169869
O O1 0.500000 0.798469 0.750000
O O2 0.690965 0.866705 0.525598
O O3 0.644510 0.643595 0.584330
O O4 0.600016 0.780945 0.805556
O O5 0.271703 0.980880 0.366173
O O6 0.186491 0.949381 0.660027
O O7 0.571378 0.938703 0.238550
O O8 0.631267 0.786245 0.305311
O O9 0.594812 0.023205 0.424030
O O10 0.554756 0.214652 0.590189
O O11 0.717582 0.187846 0.326910
O O12 0.250000 0.250000 0.000000
#
# Coordination Sequence:
#
# PCOD9278066 Si02
#       6
#     8   8   8   8   4   8
#     4  10  23  43  67 105 144 172 228 287 337 411
#     4   9  20  41  68  96 135 186 218 272 351 399
#     4  10  23  40  68  98 135 173 231 280 337 399
#     4  11  24  38  68  99 131 181 228 282 340 399
#     4  12  22  42  62 102 132 182 224 288 324 402
#     4  10  20  42  65  94 135 173 221 275 333 412
#
# _framework density 23.438161999999998
#
# number of rings (size 3 to 8) (size 9 to 14) (size 15 to 20)
#    0.000    1.818    3.636    0.545    7.636    1.455 
#    8.182    0.000    0.000    5.455    0.000    1.273 
#    0.000    0.000    0.000    0.000    0.000    0.000 
#
# Total GULP energy -122713.270809 kJ/mol
# GULP energy per Si atom -5577.875946 kJ/mol
# Density = 2.338482 g / cm^3
# Si number density = 23.438162 Si / 1000 Ang^3
#
#
#
# Elastic Constant Matrix: (Units=GPa)
#
#
# Indices 1 2 3 4 5 6 
#
# 1 131.3307 23.0600 4.9612 0.0000 3.1640 0.0000
# 2 23.0600 110.2230 14.0717 0.0000 -13.3707 0.0000
# 3 4.9612 14.0717 66.0400 0.0000 7.2014 0.0000
# 4 0.0000 0.0000 0.0000 14.8667 0.0000 4.8021
# 5 3.1640 -13.3707 7.2014 0.0000 33.9620 0.0000
# 6 0.0000 0.0000 0.0000 4.8021 0.0000 28.9799
#
#
#
# Elastic Compliance Matrix: (Units=1/GPa)
#
#
# Indices 1 2 3 4 5 6 
#
# 1 0.007974 -0.001839 -0.000048 0.000000 -0.001457 0.000000
# 2 -0.001839 0.010371 -0.002596 0.000000 0.004805 0.000000
# 3 -0.000048 -0.002596 0.016184 0.000000 -0.004449 0.000000
# 4 0.000000 0.000000 0.000000 0.071068 0.000000 -0.011776
# 5 -0.001457 0.004805 -0.004449 0.000000 0.032416 0.000000
# 6 0.000000 0.000000 0.000000 -0.011776 0.000000 0.036458
#
#
# Mechanical properties :
#
#
# Convention : Reuss Voigt Hill
#
# Bulk Modulus (GPa) = 39.11761 43.53105 41.32433
# Shear Modulus (GPa) = 26.04722 33.26175 29.65449
#
# Velocity S-wave (km/s) = 3.33726 3.77122 3.56086
# Velocity P-wave (km/s) = 5.61922 6.12991 5.88011
#
# Compressibility (1/GPa) = 0.02556393
#
# Stress axis : x y z
#
# Youngs Moduli (GPa) = 125.40511 96.41828 61.78847
#
# Poissons Ratio (x) = 0.17729 0.00299
# Poissons Ratio (y) = 0.23059 0.16039
# Poissons Ratio (z) = 0.00607 0.25028
#
# Static dielectric constant tensor:
#      x y z
#    x 1.905360 0.000000 -0.032990 
#    y 0.000000 1.962550 0.000000 
#    z -0.032990 0.000000 1.959810 
# 
# From -- ./inp_files/110837.got.cif
#   From: 2010.05.17/outbox.cif.g08.bks.cpg/sg15_56_cif.got.tgz:110837.got - 2010.06.03 18:47:42.
