data_PCOD9278931
_publ_section_title
;
Structure prediction by ZEFSAII (Michael W. Deem and Ramdas Pophale) SiO2 
 PCOD9278931
Probable space group: C 2/C
;
_chemical_formula_sum "Si O2"
_cell_formula_units_Z 44
_cell_length_a 21.891511
_cell_length_b 14.348025
_cell_length_c 9.078997
_cell_angle_alpha 90.000000
_cell_angle_beta 63.193916
_cell_angle_gamma 90.000000
_cell_volume 2545.261571
_symmetry_space_group_name_H-M "C 2/C"
_symmetry_group_IT_number 15
_symmetry_cell_setting 'monoclinic'
loop_
_space_group_symop_operation_xyz
x,y,z
-x,y,1/2-z
-x,-y,-z
x,-y,1/2+z
1/2+x,1/2+y,z
1/2-x,1/2+y,1/2-z
1/2-x,1/2-y,-z
1/2+x,1/2-y,1/2+z
loop_
_atom_site_type_symbol
_atom_site_label
_atom_site_fract_x
_atom_site_fract_y
_atom_site_fract_z
Si Si1 0.500000 0.736400 0.750000
Si Si2 0.759575 0.885312 0.573930
Si Si3 0.359675 0.548867 0.438892
Si Si4 0.205603 0.794701 0.676210
Si Si5 0.148900 0.710956 0.015119
Si Si6 0.945521 0.928915 0.126987
O O1 0.431158 0.791453 0.865168
O O2 0.519913 0.667082 0.862194
O O3 0.749328 0.852800 0.753953
O O4 0.818235 0.809520 0.460346
O O5 0.693769 0.867430 0.545974
O O6 0.791396 0.987329 0.532812
O O7 0.346287 0.633073 0.342172
O O8 0.413433 0.479235 0.304065
O O9 0.387546 0.582322 0.565414
O O10 0.250000 0.750000 0.500000
O O11 0.166780 0.720408 0.822651
O O12 0.000000 0.000000 0.000000
#
# Coordination Sequence:
#
# PCOD9278931 Si02
#       6
#     4   8   8   8   8   8
#     4  12  20  34  54  76 116 150 176 220 278 334
#     4   9  19  37  52  75 106 148 190 217 262 327
#     4  12  21  33  52  79 111 144 182 222 269 329
#     4  10  21  33  52  80 108 136 185 232 271 316
#     4   9  20  36  52  76 109 144 186 212 271 324
#     4  12  20  31  48  78 115 145 171 210 268 343
#
# _framework density 17.287025
#
# number of rings (size 3 to 8) (size 9 to 14) (size 15 to 20)
#    1.091    0.364    5.455    1.091    5.091    0.000 
#    0.000    0.000    0.000    0.000    0.000    5.091 
#    0.000    0.000    0.000    0.000    0.000    0.000 
#
# Total GULP energy -122575.908641 kJ/mol
# GULP energy per Si atom -5571.632211 kJ/mol
# Density = 1.724768 g / cm^3
# Si number density = 17.287025 Si / 1000 Ang^3
#
#
#
# Elastic Constant Matrix: (Units=GPa)
#
#
# Indices 1 2 3 4 5 6 
#
# 1 117.3953 32.3814 48.0738 0.0000 5.3449 0.0000
# 2 32.3814 20.2300 12.8137 0.0000 7.1309 0.0000
# 3 48.0738 12.8137 96.8429 0.0000 0.4095 0.0000
# 4 0.0000 0.0000 0.0000 17.3406 0.0000 1.1606
# 5 5.3449 7.1309 0.4095 0.0000 36.7171 0.0000
# 6 0.0000 0.0000 0.0000 1.1606 0.0000 27.0230
#
#
#
# Elastic Compliance Matrix: (Units=1/GPa)
#
#
# Indices 1 2 3 4 5 6 
#
# 1 0.017754 -0.025880 -0.005400 0.000000 0.002502 0.000000
# 2 -0.025880 0.095964 0.000213 0.000000 -0.014872 0.000000
# 3 -0.005400 0.000213 0.012976 0.000000 0.000600 0.000000
# 4 0.000000 0.000000 0.000000 0.057834 0.000000 -0.002484
# 5 0.002502 -0.014872 0.000600 0.000000 0.029753 0.000000
# 6 0.000000 0.000000 0.000000 -0.002484 0.000000 0.037112
#
#
# Mechanical properties :
#
#
# Convention : Reuss Voigt Hill
#
# Bulk Modulus (GPa) = 15.48942 46.77843 31.13392
# Shear Modulus (GPa) = 14.92325 25.62943 20.27634
#
# Velocity S-wave (km/s) = 2.94132 3.85461 3.42851
# Velocity P-wave (km/s) = 4.52932 6.85049 5.80707
#
# Compressibility (1/GPa) = 0.06456019
#
# Stress axis : x y z
#
# Youngs Moduli (GPa) = 56.32538 10.42052 77.06688
#
# Poissons Ratio (x) = 0.26968 0.41613
# Poissons Ratio (y) = 1.45770 -0.01638
# Poissons Ratio (z) = 0.30413 -0.00221
#
# Static dielectric constant tensor:
#      x y z
#    x 1.608540 0.000000 -0.001070 
#    y 0.000000 1.581310 0.000000 
#    z -0.001070 0.000000 1.616550 
# 
# From -- ./inp_files/47918.got.cif
#   From: 2010.05.17/outbox.cif.g08.bks.cpg/sg15_24_cif.got.tgz:47918.got - 2010.06.03 18:47:42.
