data_PCOD9278948
_publ_section_title
;
Structure prediction by ZEFSAII (Michael W. Deem and Ramdas Pophale) SiO2 
 PCOD9278948
Probable space group: C 2/C
;
_chemical_formula_sum "Si O2"
_cell_formula_units_Z 32
_cell_length_a 19.347245
_cell_length_b 14.647220
_cell_length_c 8.240082
_cell_angle_alpha 90.000000
_cell_angle_beta 137.727124
_cell_angle_gamma 90.000000
_cell_volume 1570.735119
_symmetry_space_group_name_H-M "C 2/C"
_symmetry_group_IT_number 15
_symmetry_cell_setting 'monoclinic'
loop_
_space_group_symop_operation_xyz
x,y,z
-x,y,1/2-z
-x,-y,-z
x,-y,1/2+z
1/2+x,1/2+y,z
1/2-x,1/2+y,1/2-z
1/2-x,1/2-y,-z
1/2+x,1/2-y,1/2+z
loop_
_atom_site_type_symbol
_atom_site_label
_atom_site_fract_x
_atom_site_fract_y
_atom_site_fract_z
Si Si1 0.813523 0.226076 0.857566
Si Si2 0.397559 0.763768 0.667595
Si Si3 0.675332 0.066048 0.614704
Si Si4 0.107584 0.393030 0.344815
O O1 0.706246 0.269535 0.603336
O O2 0.891843 0.233143 0.842969
O O3 0.780160 0.122117 0.832803
O O4 0.854442 0.289079 0.071505
O O5 0.500000 0.739168 0.750000
O O6 0.379488 0.873287 0.620618
O O7 0.608203 0.078337 0.659435
O O8 0.682467 0.963522 0.567896
O O9 0.000000 0.402186 0.250000
#
# Coordination Sequence:
#
# PCOD9278948 Si02
#       4
#     8   8   8   8
#     4   9  21  35  54  84 114 146 180 227 277 327
#     4   9  17  35  57  78 111 144 184 219 278 320
#     4  10  21  33  54  82 115 138 181 227 276 322
#     4  12  21  34  57  85 112 142 185 230 277 323
#
# _framework density 20.372626
#
# number of rings (size 3 to 8) (size 9 to 14) (size 15 to 20)
#    1.500    0.500    0.000    5.250    0.000    0.000 
#    0.000    0.000    0.000    3.000    0.000    0.000 
#    0.000    0.000    0.000    0.000    0.000    0.000 
#
# Total GULP energy -89146.078684 kJ/mol
# GULP energy per Si atom -5571.629918 kJ/mol
# Density = 2.032626 g / cm^3
# Si number density = 20.372626 Si / 1000 Ang^3
#
#
#
# Elastic Constant Matrix: (Units=GPa)
#
#
# Indices 1 2 3 4 5 6 
#
# 1 99.1532 15.7468 1.0189 0.0000 14.8146 0.0000
# 2 15.7468 83.7959 18.4412 0.0000 6.8985 0.0000
# 3 1.0189 18.4412 23.3435 0.0000 1.1274 0.0000
# 4 0.0000 0.0000 0.0000 19.1114 0.0000 -0.1683
# 5 14.8146 6.8985 1.1274 0.0000 17.6126 0.0000
# 6 0.0000 0.0000 0.0000 -0.1683 0.0000 14.3875
#
#
#
# Elastic Compliance Matrix: (Units=1/GPa)
#
#
# Indices 1 2 3 4 5 6 
#
# 1 0.011732 -0.001727 0.001300 0.000000 -0.009275 0.000000
# 2 -0.001727 0.015142 -0.011706 0.000000 -0.003728 0.000000
# 3 0.001300 -0.011706 0.052022 0.000000 0.000161 0.000000
# 4 0.000000 0.000000 0.000000 0.052330 0.000000 0.000612
# 5 -0.009275 -0.003728 0.000161 0.000000 0.066029 0.000000
# 6 0.000000 0.000000 0.000000 0.000612 0.000000 0.069512
#
#
# Mechanical properties :
#
#
# Convention : Reuss Voigt Hill
#
# Bulk Modulus (GPa) = 18.30521 30.74514 24.52518
# Shear Modulus (GPa) = 16.16852 21.62801 18.89826
#
# Velocity S-wave (km/s) = 2.82022 3.26179 3.04901
# Velocity P-wave (km/s) = 4.42827 5.41386 4.94567
#
# Compressibility (1/GPa) = 0.05462925
#
# Stress axis : x y z
#
# Youngs Moduli (GPa) = 85.23591 66.04353 19.22269
#
# Poissons Ratio (x) = 0.11408 -0.02500
# Poissons Ratio (y) = 0.14723 0.22503
# Poissons Ratio (z) = -0.11084 0.77312
#
# Static dielectric constant tensor:
#      x y z
#    x 1.736590 0.000000 0.001820 
#    y 0.000000 1.729320 0.000000 
#    z 0.001820 0.000000 1.752860 
# 
# From -- ./inp_files/36868.got.cif
#   From: 2010.05.17/outbox.cif.g08.bks.cpg/sg15_19_cif.got.tgz:36868.got - 2010.06.03 18:47:42.
