data_PCOD9278011
_publ_section_title
;
Structure prediction by ZEFSAII (Michael W. Deem and Ramdas Pophale) SiO2 
 PCOD9278011
Probable space group: C 2/C
;
_chemical_formula_sum "Si O2"
_cell_formula_units_Z 44
_cell_length_a 8.581088
_cell_length_b 17.506296
_cell_length_c 15.719735
_cell_angle_alpha 90.000000
_cell_angle_beta 51.899233
_cell_angle_gamma 90.000000
_cell_volume 1858.301420
_symmetry_space_group_name_H-M "C 2/C"
_symmetry_group_IT_number 15
_symmetry_cell_setting 'monoclinic'
loop_
_space_group_symop_operation_xyz
x,y,z
-x,y,1/2-z
-x,-y,-z
x,-y,1/2+z
1/2+x,1/2+y,z
1/2-x,1/2+y,1/2-z
1/2-x,1/2-y,-z
1/2+x,1/2-y,1/2+z
loop_
_atom_site_type_symbol
_atom_site_label
_atom_site_fract_x
_atom_site_fract_y
_atom_site_fract_z
Si Si1 0.796269 0.388507 0.363021
Si Si2 0.666066 0.527151 0.764142
Si Si3 0.498825 0.083118 0.959382
Si Si4 0.617816 0.182068 0.079208
Si Si5 0.268718 0.356568 0.702541
Si Si6 0.000000 0.239167 0.250000
O O1 0.625103 0.429910 0.367234
O O2 0.825721 0.298692 0.335196
O O3 0.000000 0.422710 0.250000
O O4 0.815292 0.404347 0.456932
O O5 0.500000 0.513608 0.750000
O O6 0.811930 0.584867 0.665818
O O7 0.749258 0.443255 0.758080
O O8 0.537792 0.139111 0.023094
O O9 0.500000 0.000000 0.000000
O O10 0.414827 0.193022 0.199642
O O11 0.753473 0.141483 0.105902
O O12 0.750000 0.250000 0.000000
O O13 0.451064 0.314083 0.686107
#
# Coordination Sequence:
#
# PCOD9278011 Si02
#       6
#     8   8   8   8   8   4
#     4   8  20  37  64  86 125 169 207 263 331 382
#     4  11  22  40  67  97 128 175 224 272 328 394
#     4  11  20  40  66  93 128 171 218 266 331 395
#     4  11  25  41  66 101 134 177 223 272 330 405
#     4  11  23  43  68  94 140 176 217 276 339 385
#     4  10  20  42  64  92 130 174 214 264 342 388
#
# _framework density 23.677536
#
# number of rings (size 3 to 8) (size 9 to 14) (size 15 to 20)
#    0.545    1.091    2.727    2.182    5.091    1.455 
#    0.000   10.909    0.000    0.000    0.000    0.000 
#    0.000    0.000    0.000    0.000    0.000    0.000 
#
# Total GULP energy -122642.189820 kJ/mol
# GULP energy per Si atom -5574.644992 kJ/mol
# Density = 2.362364 g / cm^3
# Si number density = 23.677536 Si / 1000 Ang^3
#
#
#
# Elastic Constant Matrix: (Units=GPa)
#
#
# Indices 1 2 3 4 5 6 
#
# 1 125.1350 44.8036 56.2558 0.0000 67.8277 0.0000
# 2 44.8036 75.7083 34.2123 0.0000 21.6511 0.0000
# 3 56.2558 34.2123 94.7237 0.0000 40.9315 0.0000
# 4 0.0000 0.0000 0.0000 26.6006 0.0000 7.1075
# 5 67.8277 21.6511 40.9315 0.0000 55.7086 0.0000
# 6 0.0000 0.0000 0.0000 7.1075 0.0000 23.4946
#
#
#
# Elastic Compliance Matrix: (Units=1/GPa)
#
#
# Indices 1 2 3 4 5 6 
#
# 1 0.026692 -0.007144 -0.000628 0.000000 -0.029261 0.000000
# 2 -0.007144 0.018012 -0.004390 0.000000 0.004924 0.000000
# 3 -0.000628 -0.004390 0.016773 0.000000 -0.009853 0.000000
# 4 0.000000 0.000000 0.000000 0.040899 0.000000 -0.012373
# 5 -0.029261 0.004924 -0.009853 0.000000 0.058903 0.000000
# 6 0.000000 0.000000 0.000000 -0.012373 0.000000 0.046306
#
#
# Mechanical properties :
#
#
# Convention : Reuss Voigt Hill
#
# Bulk Modulus (GPa) = 26.91593 62.90115 44.90854
# Shear Modulus (GPa) = 20.46703 31.84711 26.15707
#
# Velocity S-wave (km/s) = 2.94327 3.67145 3.32734
# Velocity P-wave (km/s) = 4.78987 6.67804 5.81115
#
# Compressibility (1/GPa) = 0.03715272
#
# Stress axis : x y z
#
# Youngs Moduli (GPa) = 37.46439 55.51717 59.61817
#
# Poissons Ratio (x) = 0.39664 0.03743
# Poissons Ratio (y) = 0.26766 0.26175
# Poissons Ratio (z) = 0.02352 0.24374
#
# Static dielectric constant tensor:
#      x y z
#    x 2.097070 0.000000 0.010380 
#    y 0.000000 1.839780 0.000000 
#    z 0.010380 0.000000 2.065650 
# 
# From -- ./inp_files/134734.got.cif
#   From: 2010.05.17/outbox.cif.g08.bks.cpg/sg15_68_cif.got.tgz:134734.got - 2010.06.03 18:47:42.
