data_PCOD9278818
_publ_section_title
;
Structure prediction by ZEFSAII (Michael W. Deem and Ramdas Pophale) SiO2 
 PCOD9278818
Probable space group: C 2/C
;
_chemical_formula_sum "Si O2"
_cell_formula_units_Z 48
_cell_length_a 7.533403
_cell_length_b 22.742485
_cell_length_c 18.410666
_cell_angle_alpha 90.000000
_cell_angle_beta 36.380617
_cell_angle_gamma 90.000000
_cell_volume 1870.943327
_symmetry_space_group_name_H-M "C 2/C"
_symmetry_group_IT_number 15
_symmetry_cell_setting 'monoclinic'
loop_
_space_group_symop_operation_xyz
x,y,z
-x,y,1/2-z
-x,-y,-z
x,-y,1/2+z
1/2+x,1/2+y,z
1/2-x,1/2+y,1/2-z
1/2-x,1/2-y,-z
1/2+x,1/2-y,1/2+z
loop_
_atom_site_type_symbol
_atom_site_label
_atom_site_fract_x
_atom_site_fract_y
_atom_site_fract_z
Si Si1 0.618166 0.944934 0.323699
Si Si2 0.047672 0.129619 0.153680
Si Si3 0.293639 0.351005 0.124521
Si Si4 0.269784 0.846774 0.092828
Si Si5 0.923021 0.223641 0.092812
Si Si6 0.070869 0.989504 0.562125
O O1 0.435495 0.992641 0.433610
O O2 0.375839 0.906504 0.356693
O O3 0.718432 0.895055 0.347440
O O4 0.863170 0.975212 0.189395
O O5 0.390624 0.150616 0.046360
O O6 0.848805 0.183452 0.187333
O O7 0.000000 0.107562 0.250000
O O8 0.014868 0.076770 0.107770
O O9 0.518949 0.361088 0.116514
O O10 0.000000 0.315309 0.250000
O O11 0.503451 0.319710 0.997434
O O12 0.235498 0.779604 0.129952
O O13 0.250000 0.250000 0.000000
O O14 0.000000 0.000000 0.500000
#
# Coordination Sequence:
#
# PCOD9278818 Si02
#       6
#     8   8   8   8   8   8
#     4  11  25  52  81 120 168 212 285 344 410 498
#     4  10  23  50  75 115 163 205 275 342 406 490
#     4  12  24  46  79 115 165 212 270 338 409 504
#     4  10  24  50  80 121 159 215 270 338 422 488
#     4  10  20  47  79 114 158 203 270 335 411 496
#     4  11  23  50  79 115 160 220 272 345 409 478
#
# _framework density 25.655507
#
# number of rings (size 3 to 8) (size 9 to 14) (size 15 to 20)
#    0.000    1.333    5.000    2.000    0.000    3.333 
#   15.000    5.833    0.000    0.000    0.000    1.167 
#    0.000    0.000    0.000    0.000    0.000    0.000 
#
# Total GULP energy -133855.939570 kJ/mol
# GULP energy per Si atom -5577.330815 kJ/mol
# Density = 2.559711 g / cm^3
# Si number density = 25.655507 Si / 1000 Ang^3
#
#
#
# Elastic Constant Matrix: (Units=GPa)
#
#
# Indices 1 2 3 4 5 6 
#
# 1 170.4314 78.0248 50.3778 -0.0026 25.0377 0.0024
# 2 78.0248 130.9269 67.7832 0.0002 2.6394 -0.0002
# 3 50.3778 67.7832 186.6934 -0.0046 15.4539 0.0046
# 4 -0.0026 0.0002 -0.0046 6.5720 0.0036 34.1285
# 5 25.0377 2.6394 15.4539 0.0036 48.1005 -0.0034
# 6 0.0024 -0.0002 0.0046 34.1285 -0.0034 -37.5440
#
#
#
# Elastic Compliance Matrix: (Units=1/GPa)
#
#
# Indices 1 2 3 4 5 6 
#
# 1 0.008896 -0.005118 -0.000187 0.000000 -0.004290 0.000001
# 2 -0.005118 0.012367 -0.003363 0.000000 0.003066 -0.000001
# 3 -0.000187 -0.003363 0.006785 0.000000 -0.001898 0.000001
# 4 0.000000 0.000000 0.000000 0.026599 0.000000 0.024179
# 5 -0.004290 0.003066 -0.001898 0.000000 0.023464 -0.000003
# 6 0.000001 -0.000001 0.000001 0.024179 -0.000003 -0.004656
#
#
# Mechanical properties :
#
#
# Convention : Reuss Voigt Hill
#
# Bulk Modulus (GPa) = 93.35517 97.82481 95.58999
# Shear Modulus (GPa) = 52.98730 22.88344 37.93537
#
# Velocity S-wave (km/s) = 4.54953 2.98979 3.84949
# Velocity P-wave (km/s) = 8.00404 7.08035 7.55632
#
# Compressibility (1/GPa) = 0.01071178
#
# Stress axis : x y z
#
# Youngs Moduli (GPa) = 112.40845 80.85902 147.38487
#
# Poissons Ratio (x) = 0.41385 0.02759
# Poissons Ratio (y) = 0.57533 0.49564
# Poissons Ratio (z) = 0.02104 0.27192
#
# Static dielectric constant tensor:
#      x y z
#    x 2.073870 0.000000 -0.079440 
#    y 0.000000 0.694680 -0.000010 
#    z -0.079440 -0.000010 2.105940 
# 
# From -- ./inp_files/239441.got.cif
#   From: 2010.05.17/outbox.cif.g08.bks.cpg/sg15_120_cif.got.tgz:239441.got - 2010.06.03 18:47:42.
