data_PCOD9278613
_publ_section_title
;
Structure prediction by ZEFSAII (Michael W. Deem and Ramdas Pophale) SiO2 
 PCOD9278613
Probable space group: C 2/C
;
_chemical_formula_sum "Si O2"
_cell_formula_units_Z 40
_cell_length_a 7.757648
_cell_length_b 30.045935
_cell_length_c 13.385511
_cell_angle_alpha 90.000000
_cell_angle_beta 41.525842
_cell_angle_gamma 90.000000
_cell_volume 2068.409961
_symmetry_space_group_name_H-M "C 2/C"
_symmetry_group_IT_number 15
_symmetry_cell_setting 'monoclinic'
loop_
_space_group_symop_operation_xyz
x,y,z
-x,y,1/2-z
-x,-y,-z
x,-y,1/2+z
1/2+x,1/2+y,z
1/2-x,1/2+y,1/2-z
1/2-x,1/2-y,-z
1/2+x,1/2-y,1/2+z
loop_
_atom_site_type_symbol
_atom_site_label
_atom_site_fract_x
_atom_site_fract_y
_atom_site_fract_z
Si Si1 0.733629 0.009830 0.320277
Si Si2 0.949514 0.720993 0.480771
Si Si3 0.730451 0.200256 0.715282
Si Si4 0.764601 0.862575 0.499711
Si Si5 0.500000 0.928794 0.750000
Si Si6 0.000000 0.926885 0.250000
O O1 0.619714 0.039780 0.282767
O O2 0.000000 0.031112 0.250000
O O3 0.500000 0.000000 0.500000
O O4 0.849992 0.960967 0.241422
O O5 0.750000 0.750000 0.500000
O O6 0.845030 0.711571 0.637506
O O7 0.963107 0.673308 0.420577
O O8 0.195203 0.753172 0.371115
O O9 0.500000 0.179998 0.750000
O O10 0.973881 0.166672 0.608113
O O11 0.713281 0.895182 0.612955
O O12 0.796828 0.895378 0.392298
#
# Coordination Sequence:
#
# PCOD9278613 Si02
#       6
#     8   8   8   8   4   4
#     4  10  23  43  68  95 132 175 221 277 346 393
#     4  10  21  39  66  86 130 173 209 255 330 387
#     4  11  23  41  62  99 131 169 216 271 326 387
#     4  11  22  40  65  93 125 175 218 261 329 403
#     4  12  24  44  69  98 132 172 231 274 334 404
#     4  10  20  44  65  88 130 170 217 268 334 400
#
# _framework density 19.338526000000002
#
# number of rings (size 3 to 8) (size 9 to 14) (size 15 to 20)
#    0.600    0.800    4.000    2.400    5.600    3.200 
#    9.000    0.000    0.000    0.000    0.000    0.000 
#    0.000    0.000    0.000    0.000    0.000    0.000 
#
# Total GULP energy -111359.912966 kJ/mol
# GULP energy per Si atom -5567.995648 kJ/mol
# Density = 1.929451 g / cm^3
# Si number density = 19.338526 Si / 1000 Ang^3
#
#
#
# Elastic Constant Matrix: (Units=GPa)
#
#
# Indices 1 2 3 4 5 6 
#
# 1 103.0170 43.4041 47.7011 0.0000 4.2212 0.0000
# 2 43.4041 137.4242 37.4249 0.0000 12.1986 0.0000
# 3 47.7011 37.4249 71.6659 0.0000 12.3925 0.0000
# 4 0.0000 0.0000 0.0000 42.8744 0.0000 6.5183
# 5 4.2212 12.1986 12.3925 0.0000 28.5879 0.0000
# 6 0.0000 0.0000 0.0000 6.5183 0.0000 17.8248
#
#
#
# Elastic Compliance Matrix: (Units=1/GPa)
#
#
# Indices 1 2 3 4 5 6 
#
# 1 0.014828 -0.002462 -0.009067 0.000000 0.002791 0.000000
# 2 -0.002462 0.008982 -0.002651 0.000000 -0.002320 0.000000
# 3 -0.009067 -0.002651 0.022643 0.000000 -0.007346 0.000000
# 4 0.000000 0.000000 0.000000 0.024697 0.000000 -0.009031
# 5 0.002791 -0.002320 -0.007346 0.000000 0.038742 0.000000
# 6 0.000000 0.000000 0.000000 -0.009031 0.000000 0.059404
#
#
# Mechanical properties :
#
#
# Convention : Reuss Voigt Hill
#
# Bulk Modulus (GPa) = 55.26538 63.24080 59.25309
# Shear Modulus (GPa) = 24.54741 30.09588 27.32164
#
# Velocity S-wave (km/s) = 3.56666 3.94923 3.76281
# Velocity P-wave (km/s) = 6.75288 7.31903 7.04165
#
# Compressibility (1/GPa) = 0.01809451
#
# Stress axis : x y z
#
# Youngs Moduli (GPa) = 67.43823 111.33189 44.16376
#
# Poissons Ratio (x) = 0.27410 0.40043
# Poissons Ratio (y) = 0.16603 0.11706
# Poissons Ratio (z) = 0.61145 0.29510
#
# Static dielectric constant tensor:
#      x y z
#    x 1.717230 0.000000 -0.032970 
#    y 0.000000 1.685180 0.000000 
#    z -0.032970 0.000000 1.738470 
# 
# From -- ./inp_files/138165.got.cif
#   From: 2010.05.17/outbox.cif.g08.bks.cpg/sg15_70_cif.got.tgz:138165.got - 2010.06.03 18:47:42.
