data_PCOD9278866
_publ_section_title
;
Structure prediction by ZEFSAII (Michael W. Deem and Ramdas Pophale) SiO2 
 PCOD9278866
Probable space group: C 2/C
;
_chemical_formula_sum "Si O2"
_cell_formula_units_Z 52
_cell_length_a 14.892904
_cell_length_b 24.369383
_cell_length_c 8.114336
_cell_angle_alpha 90.000000
_cell_angle_beta 95.280661
_cell_angle_gamma 90.000000
_cell_volume 2932.444247
_symmetry_space_group_name_H-M "C 2/C"
_symmetry_group_IT_number 15
_symmetry_cell_setting 'monoclinic'
loop_
_space_group_symop_operation_xyz
x,y,z
-x,y,1/2-z
-x,-y,-z
x,-y,1/2+z
1/2+x,1/2+y,z
1/2-x,1/2+y,1/2-z
1/2-x,1/2-y,-z
1/2+x,1/2-y,1/2+z
loop_
_atom_site_type_symbol
_atom_site_label
_atom_site_fract_x
_atom_site_fract_y
_atom_site_fract_z
Si Si1 0.354889 0.707387 0.556673
Si Si2 0.180293 0.670144 0.394838
Si Si3 0.722488 0.692896 0.587937
Si Si4 0.403084 0.167540 0.485484
Si Si5 0.537265 0.293486 0.940165
Si Si6 0.932358 0.582742 0.963091
Si Si7 0.000000 0.500134 0.750000
O O1 0.287443 0.679669 0.414335
O O2 0.355486 0.773125 0.531775
O O3 0.309905 0.700245 0.729227
O O4 0.456971 0.688851 0.548882
O O5 0.151985 0.619130 0.500748
O O6 0.132961 0.663772 0.209212
O O7 0.750000 0.750000 0.500000
O O8 0.814341 0.658951 0.583190
O O9 0.630926 0.674645 0.482010
O O10 0.439562 0.229348 0.519461
O O11 0.483237 0.125076 0.532945
O O12 0.500000 0.297565 0.750000
O O13 0.957124 0.539982 0.110459
O O14 0.926156 0.542505 0.807629
#
# Coordination Sequence:
#
# PCOD9278866 Si02
#       7
#     8   8   8   8   8   8   4
#     4  11  22  33  51  75 106 144 188 218 260 331
#     4  11  21  34  52  73 105 145 183 220 270 324
#     4  10  21  32  46  73 104 139 185 220 249 321
#     4  11  21  34  51  73 104 148 181 217 275 315
#     4  11  22  33  49  73 106 144 183 220 253 315
#     4  11  22  38  57  76 110 141 184 233 278 317
#     4  10  24  38  54  82 102 140 192 236 274 328
#
# _framework density 17.732647
#
# number of rings (size 3 to 8) (size 9 to 14) (size 15 to 20)
#    0.000    1.231    6.154    1.385    9.692    0.000 
#    0.000    0.000    0.000    0.000    0.000    0.000 
#    0.000    7.385    0.000    0.000    0.000    0.000 
#
# Total GULP energy -144999.335012 kJ/mol
# GULP energy per Si atom -5576.897500 kJ/mol
# Density = 1.769229 g / cm^3
# Si number density = 17.732647 Si / 1000 Ang^3
#
#
#
# Elastic Constant Matrix: (Units=GPa)
#
#
# Indices 1 2 3 4 5 6 
#
# 1 113.3345 5.9443 4.5058 0.0000 -8.9674 0.0000
# 2 5.9443 52.7473 -2.6205 0.0000 -9.9993 0.0000
# 3 4.5058 -2.6205 43.0544 0.0000 -6.9550 0.0000
# 4 0.0000 0.0000 0.0000 18.9728 0.0000 -5.5259
# 5 -8.9674 -9.9993 -6.9550 0.0000 26.2197 0.0000
# 6 0.0000 0.0000 0.0000 -5.5259 0.0000 22.1101
#
#
#
# Elastic Compliance Matrix: (Units=1/GPa)
#
#
# Indices 1 2 3 4 5 6 
#
# 1 0.009091 -0.000527 -0.000537 0.000000 0.002766 0.000000
# 2 -0.000527 0.020752 0.002682 0.000000 0.008445 0.000000
# 3 -0.000537 0.002682 0.024637 0.000000 0.007375 0.000000
# 4 0.000000 0.000000 0.000000 0.056845 0.000000 0.014207
# 5 0.002766 0.008445 0.007375 0.000000 0.044262 0.000000
# 6 0.000000 0.000000 0.000000 0.014207 0.000000 0.048779
#
#
# Mechanical properties :
#
#
# Convention : Reuss Voigt Hill
#
# Bulk Modulus (GPa) = 17.32553 24.97727 21.15140
# Shear Modulus (GPa) = 22.68935 26.88097 24.78516
#
# Velocity S-wave (km/s) = 3.58092 3.89768 3.74266
# Velocity P-wave (km/s) = 5.18546 5.86276 5.53448
#
# Compressibility (1/GPa) = 0.05771829
#
# Stress axis : x y z
#
# Youngs Moduli (GPa) = 109.99566 48.18822 40.58914
#
# Poissons Ratio (x) = 0.02539 0.02178
# Poissons Ratio (y) = 0.05795 -0.10888
# Poissons Ratio (z) = 0.05903 -0.12926
#
# Static dielectric constant tensor:
#      x y z
#    x 1.655050 0.000000 -0.017210 
#    y 0.000000 1.573920 0.000000 
#    z -0.017210 0.000000 1.714100 
# 
# From -- ./inp_files/41773.got.cif
#   From: 2010.05.17/outbox.cif.g08.bks.cpg/sg15_21_cif.got.tgz:41773.got - 2010.06.03 18:47:42.
