data_PCOD9278125
_publ_section_title
;
Structure prediction by ZEFSAII (Michael W. Deem and Ramdas Pophale) SiO2 
 PCOD9278125
Probable space group: C 2/C
;
_chemical_formula_sum "Si O2"
_cell_formula_units_Z 52
_cell_length_a 9.953883
_cell_length_b 9.369013
_cell_length_c 27.277299
_cell_angle_alpha 90.000000
_cell_angle_beta 115.436815
_cell_angle_gamma 90.000000
_cell_volume 2297.228004
_symmetry_space_group_name_H-M "C 2/C"
_symmetry_group_IT_number 15
_symmetry_cell_setting 'monoclinic'
loop_
_space_group_symop_operation_xyz
x,y,z
-x,y,1/2-z
-x,-y,-z
x,-y,1/2+z
1/2+x,1/2+y,z
1/2-x,1/2+y,1/2-z
1/2-x,1/2-y,-z
1/2+x,1/2-y,1/2+z
loop_
_atom_site_type_symbol
_atom_site_label
_atom_site_fract_x
_atom_site_fract_y
_atom_site_fract_z
Si Si1 0.899483 0.015215 0.555312
Si Si2 0.500000 0.594736 0.250000
Si Si3 0.232174 0.963692 0.068140
Si Si4 0.107355 0.198016 0.363585
Si Si5 0.814737 0.883847 0.290688
Si Si6 0.917466 0.731804 0.119222
Si Si7 0.736384 0.310764 0.686423
O O1 0.803951 0.958482 0.495199
O O2 0.857442 0.943942 0.600520
O O3 0.872807 0.179770 0.563962
O O4 0.073604 0.991685 0.567845
O O5 0.600752 0.685547 0.303576
O O6 0.414324 0.491328 0.273159
O O7 0.284748 0.816202 0.098912
O O8 0.367922 0.071828 0.099384
O O9 0.935671 0.220961 0.351876
O O10 0.757463 0.772887 0.240895
O O11 0.918141 0.790558 0.342840
O O12 0.726707 0.016997 0.303231
O O13 0.833418 0.754591 0.158012
#
# Coordination Sequence:
#
# PCOD9278125 Si02
#       7
#     8   4   8   8   8   8   8
#     4  11  23  48  69  94 137 174 228 279 332 388
#     4  10  20  42  66  92 136 174 212 270 330 392
#     4  11  26  43  71 100 128 180 226 280 331 394
#     4  11  23  45  66  99 136 171 221 275 331 399
#     4  11  22  39  63  95 132 177 214 269 327 399
#     4  12  21  44  66  96 134 172 221 277 332 394
#     4  11  23  41  67  95 136 174 220 269 336 397
#
# _framework density 22.635977
#
# number of rings (size 3 to 8) (size 9 to 14) (size 15 to 20)
#    0.000    0.923    6.154    0.923    2.154    4.923 
#    2.769    0.769    0.000    0.000    0.000    0.000 
#    0.000    0.000    0.000    0.000    0.000    0.000 
#
# Total GULP energy -144988.604868 kJ/mol
# GULP energy per Si atom -5576.484803 kJ/mol
# Density = 2.258446 g / cm^3
# Si number density = 22.635977 Si / 1000 Ang^3
#
#
#
# Elastic Constant Matrix: (Units=GPa)
#
#
# Indices 1 2 3 4 5 6 
#
# 1 44.7012 20.4836 25.0849 0.0000 -5.4768 0.0000
# 2 20.4836 74.0022 22.4489 0.0000 14.8314 0.0000
# 3 25.0849 22.4489 136.1416 0.0000 -7.8398 0.0000
# 4 0.0000 0.0000 0.0000 39.1970 0.0000 4.5233
# 5 -5.4768 14.8314 -7.8398 0.0000 31.9611 0.0000
# 6 0.0000 0.0000 0.0000 4.5233 0.0000 18.9455
#
#
#
# Elastic Compliance Matrix: (Units=1/GPa)
#
#
# Indices 1 2 3 4 5 6 
#
# 1 0.029325 -0.008701 -0.003496 0.000000 0.008205 0.000000
# 2 -0.008701 0.018698 -0.002095 0.000000 -0.010682 0.000000
# 3 -0.003496 -0.002095 0.008476 0.000000 0.002452 0.000000
# 4 0.000000 0.000000 0.000000 0.026235 0.000000 -0.006264
# 5 0.008205 -0.010682 0.002452 0.000000 0.038252 0.000000
# 6 0.000000 0.000000 0.000000 -0.006264 0.000000 0.054278
#
#
# Mechanical properties :
#
#
# Convention : Reuss Voigt Hill
#
# Bulk Modulus (GPa) = 35.82333 43.43108 39.62720
# Shear Modulus (GPa) = 23.45725 30.47591 26.96658
#
# Velocity S-wave (km/s) = 3.22263 3.67324 3.45529
# Velocity P-wave (km/s) = 5.45044 6.10071 5.78472
#
# Compressibility (1/GPa) = 0.02791477
#
# Stress axis : x y z
#
# Youngs Moduli (GPa) = 34.10062 53.48213 117.97834
#
# Poissons Ratio (x) = 0.46535 0.41246
# Poissons Ratio (y) = 0.29671 0.24717
# Poissons Ratio (z) = 0.11922 0.11205
#
# Static dielectric constant tensor:
#      x y z
#    x 1.876490 0.000000 -0.005450 
#    y 0.000000 1.884730 0.000000 
#    z -0.005450 0.000000 1.896050 
# 
# From -- ./inp_files/310096.got.cif
#   From: 2010.05.17/outbox.cif.g08.bks.cpg/sg15_156_cif.got.tgz:310096.got - 2010.06.03 18:47:42.
