data_PCOD9278253
_publ_section_title
;
Structure prediction by ZEFSAII (Michael W. Deem and Ramdas Pophale) SiO2 
 PCOD9278253
Probable space group: C 2/C
;
_chemical_formula_sum "Si O2"
_cell_formula_units_Z 48
_cell_length_a 17.153206
_cell_length_b 9.242246
_cell_length_c 13.387233
_cell_angle_alpha 90.000000
_cell_angle_beta 69.152741
_cell_angle_gamma 90.000000
_cell_volume 1983.389633
_symmetry_space_group_name_H-M "C 2/C"
_symmetry_group_IT_number 15
_symmetry_cell_setting 'monoclinic'
loop_
_space_group_symop_operation_xyz
x,y,z
-x,y,1/2-z
-x,-y,-z
x,-y,1/2+z
1/2+x,1/2+y,z
1/2-x,1/2+y,1/2-z
1/2-x,1/2-y,-z
1/2+x,1/2-y,1/2+z
loop_
_atom_site_type_symbol
_atom_site_label
_atom_site_fract_x
_atom_site_fract_y
_atom_site_fract_z
Si Si1 0.833439 0.764844 0.893545
Si Si2 0.029026 0.784657 0.524527
Si Si3 0.167043 0.103769 0.632051
Si Si4 0.633335 0.576868 0.423451
Si Si5 0.788921 0.554646 0.737324
Si Si6 0.062722 0.660635 0.301632
O O1 0.813770 0.676596 0.804068
O O2 0.850933 0.931844 0.859108
O O3 0.750000 0.750000 0.000000
O O4 0.912885 0.708347 0.920374
O O5 0.018839 0.706121 0.423656
O O6 0.936286 0.826724 0.599279
O O7 0.082554 0.928956 0.473196
O O8 0.162315 0.140265 0.517193
O O9 0.103321 0.200950 0.725419
O O10 0.255562 0.115712 0.647971
O O11 0.711371 0.529721 0.322968
O O12 0.863808 0.443381 0.696948
O O13 0.000000 0.593650 0.250000
#
# Coordination Sequence:
#
# PCOD9278253 Si02
#       6
#     8   8   8   8   8   8
#     4  11  21  42  66  97 134 180 220 278 339 401
#     4  10  20  42  68  96 134 175 227 280 332 392
#     4  11  21  40  68  97 129 176 227 276 324 403
#     4  10  21  38  70 103 125 175 234 276 328 405
#     4  12  24  41  69 105 136 175 228 278 349 401
#     4  12  25  43  66  99 141 176 221 286 344 397
#
# _framework density 24.200994999999999
#
# number of rings (size 3 to 8) (size 9 to 14) (size 15 to 20)
#    0.000    1.000    6.667    2.000    0.000    0.667 
#    0.000    5.000    0.000    0.000    0.000    0.000 
#    0.000    0.000    0.000    0.000    0.000    0.000 
#
# Total GULP energy -134412.136944 kJ/mol
# GULP energy per Si atom -5600.505706 kJ/mol
# Density = 2.414591 g / cm^3
# Si number density = 24.200995 Si / 1000 Ang^3
#
#
#
# Elastic Constant Matrix: (Units=GPa)
#
#
# Indices 1 2 3 4 5 6 
#
# 1 171.5181 8.7451 46.9002 0.0000 27.6397 0.0000
# 2 8.7451 40.7272 20.3781 0.0000 -12.6675 0.0000
# 3 46.9002 20.3781 74.7649 0.0000 16.3953 0.0000
# 4 0.0000 0.0000 0.0000 19.8745 0.0000 7.4447
# 5 27.6397 -12.6675 16.3953 0.0000 51.0748 0.0000
# 6 0.0000 0.0000 0.0000 7.4447 0.0000 36.2910
#
#
#
# Elastic Compliance Matrix: (Units=1/GPa)
#
#
# Indices 1 2 3 4 5 6 
#
# 1 0.007376 -0.000566 -0.003836 0.000000 -0.002900 0.000000
# 2 -0.000566 0.034540 -0.011838 0.000000 0.012673 0.000000
# 3 -0.003836 -0.011838 0.020651 0.000000 -0.007489 0.000000
# 4 0.000000 0.000000 0.000000 0.054504 0.000000 -0.011181
# 5 -0.002900 0.012673 -0.007489 0.000000 0.026696 0.000000
# 6 0.000000 0.000000 0.000000 -0.011181 0.000000 0.029849
#
#
# Mechanical properties :
#
#
# Convention : Reuss Voigt Hill
#
# Bulk Modulus (GPa) = 33.23936 48.78412 41.01174
# Shear Modulus (GPa) = 23.13473 35.51385 29.32429
#
# Velocity S-wave (km/s) = 3.09518 3.83489 3.48472
# Velocity P-wave (km/s) = 5.15151 6.30953 5.75970
#
# Compressibility (1/GPa) = 0.03008482
#
# Stress axis : x y z
#
# Youngs Moduli (GPa) = 135.58304 28.95167 48.42435
#
# Poissons Ratio (x) = 0.01639 0.18577
# Poissons Ratio (y) = 0.07678 0.57326
# Poissons Ratio (z) = 0.52014 0.34274
#
# Static dielectric constant tensor:
#      x y z
#    x 1.988380 0.000000 -0.042010 
#    y 0.000000 1.986280 0.000000 
#    z -0.042010 0.000000 1.967170 
# 
# From -- ./inp_files/151954.got.cif
#   From: 2010.05.17/outbox.cif.g08.bks.cpg/sg15_76_cif.got.tgz:151954.got - 2010.06.03 18:47:42.
