data_PCOD9278733
_publ_section_title
;
Structure prediction by ZEFSAII (Michael W. Deem and Ramdas Pophale) SiO2 
 PCOD9278733
Probable space group: C 2/C
;
_chemical_formula_sum "Si O2"
_cell_formula_units_Z 40
_cell_length_a 9.175733
_cell_length_b 21.868018
_cell_length_c 9.681142
_cell_angle_alpha 90.000000
_cell_angle_beta 94.543684
_cell_angle_gamma 90.000000
_cell_volume 1936.465399
_symmetry_space_group_name_H-M "C 2/C"
_symmetry_group_IT_number 15
_symmetry_cell_setting 'monoclinic'
loop_
_space_group_symop_operation_xyz
x,y,z
-x,y,1/2-z
-x,-y,-z
x,-y,1/2+z
1/2+x,1/2+y,z
1/2-x,1/2+y,1/2-z
1/2-x,1/2-y,-z
1/2+x,1/2-y,1/2+z
loop_
_atom_site_type_symbol
_atom_site_label
_atom_site_fract_x
_atom_site_fract_y
_atom_site_fract_z
Si Si1 0.697754 0.434500 0.539852
Si Si2 0.423376 0.389677 0.388464
Si Si3 0.878063 0.252566 0.902105
Si Si4 0.827486 0.698894 0.093884
Si Si5 0.676557 0.037549 0.755239
O O1 0.521858 0.425856 0.507382
O O2 0.756692 0.366619 0.573456
O O3 0.752703 0.478049 0.666312
O O4 0.770479 0.456329 0.399956
O O5 0.500000 0.406341 0.250000
O O6 0.438498 0.316800 0.403736
O O7 0.255460 0.408849 0.351923
O O8 0.826064 0.275276 0.749042
O O9 0.005981 0.299965 0.946508
O O10 0.750000 0.250000 0.000000
O O11 0.750000 0.750000 0.000000
O O12 0.500000 0.037674 0.750000
#
# Coordination Sequence:
#
# PCOD9278733 Si02
#       5
#     8   8   8   8   8
#     4  11  24  44  68  94 142 182 223 281 339 407
#     4  10  20  45  65  93 132 179 219 284 337 401
#     4  11  24  40  68 100 132 172 231 278 345 406
#     4  11  22  45  68  97 140 175 219 288 345 397
#     4  11  25  41  66  98 130 178 229 274 337 400
#
# _framework density 20.656192000000001
#
# number of rings (size 3 to 8) (size 9 to 14) (size 15 to 20)
#    0.000    1.200    4.000    2.400    5.600    2.400 
#    0.000    2.000    0.000    0.000    0.000    0.000 
#    0.000    0.000    0.000    0.000    0.000    0.000 
#
# Total GULP energy -111627.689685 kJ/mol
# GULP energy per Si atom -5581.384484 kJ/mol
# Density = 2.060918 g / cm^3
# Si number density = 20.656192 Si / 1000 Ang^3
#
#
#
# Elastic Constant Matrix: (Units=GPa)
#
#
# Indices 1 2 3 4 5 6 
#
# 1 98.1061 8.1626 61.4678 0.0000 16.5461 0.0000
# 2 8.1626 107.5832 34.4394 0.0000 16.7147 0.0000
# 3 61.4678 34.4394 71.2245 0.0000 10.9947 0.0000
# 4 0.0000 0.0000 0.0000 38.9345 0.0000 14.2040
# 5 16.5461 16.7147 10.9947 0.0000 36.5405 0.0000
# 6 0.0000 0.0000 0.0000 14.2040 0.0000 19.6307
#
#
#
# Elastic Compliance Matrix: (Units=1/GPa)
#
#
# Indices 1 2 3 4 5 6 
#
# 1 0.026957 0.007378 -0.025617 0.000000 -0.007874 0.000000
# 2 0.007378 0.013487 -0.011977 0.000000 -0.005907 0.000000
# 3 -0.025617 -0.011977 0.041217 0.000000 0.004676 0.000000
# 4 0.000000 0.000000 0.000000 0.034896 0.000000 -0.025249
# 5 -0.007874 -0.005907 0.004676 0.000000 0.032227 0.000000
# 6 0.000000 0.000000 0.000000 -0.025249 0.000000 0.069210
#
#
# Mechanical properties :
#
#
# Convention : Reuss Voigt Hill
#
# Bulk Modulus (GPa) = 47.10262 53.89484 50.49873
# Shear Modulus (GPa) = 17.51302 30.54405 24.02854
#
# Velocity S-wave (km/s) = 2.91492 3.84954 3.41436
# Velocity P-wave (km/s) = 5.84651 6.77544 6.32804
#
# Compressibility (1/GPa) = 0.02123024
#
# Stress axis : x y z
#
# Youngs Moduli (GPa) = 37.09608 74.14458 24.26174
#
# Poissons Ratio (x) = -0.54706 0.62150
# Poissons Ratio (y) = -0.27371 0.29059
# Poissons Ratio (z) = 0.95027 0.88806
#
# Static dielectric constant tensor:
#      x y z
#    x 1.794750 0.000000 0.030750 
#    y 0.000000 1.723260 0.000000 
#    z 0.030750 0.000000 1.714690 
# 
# From -- ./inp_files/23731.got.cif
#   From: 2010.05.17/outbox.cif.g08.bks.cpg/sg15_12_cif.got.tgz:23731.got - 2010.06.03 18:47:42.
