data_PCOD9278264
_publ_section_title
;
Structure prediction by ZEFSAII (Michael W. Deem and Ramdas Pophale) SiO2 
 PCOD9278264
Probable space group: C 2/C
;
_chemical_formula_sum "Si O2"
_cell_formula_units_Z 64
_cell_length_a 13.554826
_cell_length_b 27.852277
_cell_length_c 9.369749
_cell_angle_alpha 90.000000
_cell_angle_beta 59.348629
_cell_angle_gamma 90.000000
_cell_volume 3043.162199
_symmetry_space_group_name_H-M "C 2/C"
_symmetry_group_IT_number 15
_symmetry_cell_setting 'monoclinic'
loop_
_space_group_symop_operation_xyz
x,y,z
-x,y,1/2-z
-x,-y,-z
x,-y,1/2+z
1/2+x,1/2+y,z
1/2-x,1/2+y,1/2-z
1/2-x,1/2-y,-z
1/2+x,1/2-y,1/2+z
loop_
_atom_site_type_symbol
_atom_site_label
_atom_site_fract_x
_atom_site_fract_y
_atom_site_fract_z
Si Si1 0.863043 0.194990 0.815385
Si Si2 0.056833 0.457764 0.363320
Si Si3 0.706583 0.202487 0.214184
Si Si4 0.559532 0.891480 0.854942
Si Si5 0.405235 0.654166 0.213215
Si Si6 0.790314 0.057714 0.296352
Si Si7 0.447973 0.395385 0.135305
Si Si8 0.186545 0.021179 0.915290
O O1 0.836688 0.243307 0.748088
O O2 0.850961 0.144368 0.744185
O O3 0.000000 0.197907 0.750000
O O4 0.775388 0.195515 0.013667
O O5 0.190365 0.467798 0.246482
O O6 0.000000 0.458492 0.250000
O O7 0.000000 0.500000 0.500000
O O8 0.030595 0.406859 0.457605
O O9 0.606095 0.162858 0.304980
O O10 0.803104 0.190399 0.259015
O O11 0.500000 0.905711 0.750000
O O12 0.671498 0.922300 0.818942
O O13 0.500000 0.673290 0.250000
O O14 0.352747 0.604730 0.310677
O O15 0.461548 0.635195 0.024912
O O16 0.791971 0.022797 0.431490
O O17 0.849140 0.030212 0.121818
O O18 0.500000 0.410714 0.250000
O O19 0.398839 0.438635 0.079667
#
# Coordination Sequence:
#
# PCOD9278264 Si02
#       8
#     8   8   8   8   8   8   8   8
#     4  10  20  42  68  99 123 161 206 268 314 378
#     4  12  23  41  60  88 130 176 215 264 325 376
#     4  10  22  40  70  95 128 160 215 258 318 381
#     4  11  24  39  63  95 127 171 214 266 318 382
#     4  11  22  44  64  91 134 171 199 262 321 378
#     4  11  26  40  63  91 127 171 218 259 320 371
#     4  11  24  42  66  94 127 167 215 257 320 377
#     4  12  25  41  62  92 127 172 218 265 309 385
#
# _framework density 21.030754999999999
#
# number of rings (size 3 to 8) (size 9 to 14) (size 15 to 20)
#    0.000    1.000    6.250    0.750    5.250    1.000 
#    0.000    0.625    0.000    1.500    0.000    0.000 
#    0.000    0.000    0.000    0.000    0.000    0.000 
#
# Total GULP energy -178678.994982 kJ/mol
# GULP energy per Si atom -5583.718593 kJ/mol
# Density = 2.098289 g / cm^3
# Si number density = 21.030755 Si / 1000 Ang^3
#
#
#
# Elastic Constant Matrix: (Units=GPa)
#
#
# Indices 1 2 3 4 5 6 
#
# 1 98.6082 22.9289 28.1996 0.0000 18.3538 0.0000
# 2 22.9289 68.1430 -4.7757 0.0000 14.7788 0.0000
# 3 28.1996 -4.7757 63.3457 0.0000 21.8450 0.0000
# 4 0.0000 0.0000 0.0000 31.0890 0.0000 -2.5667
# 5 18.3538 14.7788 21.8450 0.0000 41.0176 0.0000
# 6 0.0000 0.0000 0.0000 -2.5667 0.0000 21.9835
#
#
#
# Elastic Compliance Matrix: (Units=1/GPa)
#
#
# Indices 1 2 3 4 5 6 
#
# 1 0.013060 -0.004553 -0.005767 0.000000 -0.001132 0.000000
# 2 -0.004553 0.018331 0.006105 0.000000 -0.007819 0.000000
# 3 -0.005767 0.006105 0.022886 0.000000 -0.011808 0.000000
# 4 0.000000 0.000000 0.000000 0.032479 0.000000 0.003792
# 5 -0.001132 -0.007819 -0.011808 0.000000 0.033992 0.000000
# 6 0.000000 0.000000 0.000000 0.003792 0.000000 0.045931
#
#
# Mechanical properties :
#
#
# Convention : Reuss Voigt Hill
#
# Bulk Modulus (GPa) = 21.81163 35.86694 28.83928
# Shear Modulus (GPa) = 26.26196 31.06762 28.66479
#
# Velocity S-wave (km/s) = 3.53759 3.84767 3.69588
# Velocity P-wave (km/s) = 5.20383 6.06885 5.65291
#
# Compressibility (1/GPa) = 0.04584710
#
# Stress axis : x y z
#
# Youngs Moduli (GPa) = 76.57178 54.55360 43.69533
#
# Poissons Ratio (x) = 0.24838 0.25197
# Poissons Ratio (y) = 0.34863 -0.26677
# Poissons Ratio (z) = 0.44156 -0.33306
#
# Static dielectric constant tensor:
#      x y z
#    x 1.802220 0.000000 -0.027890 
#    y 0.000000 1.785020 0.000000 
#    z -0.027890 0.000000 1.784370 
# 
# From -- ./inp_files/43506.got.cif
#   From: 2010.05.17/outbox.cif.g08.bks.cpg/sg15_22_cif.got.tgz:43506.got - 2010.06.03 18:47:42.
