data_PCOD9278710
_publ_section_title
;
Structure prediction by ZEFSAII (Michael W. Deem and Ramdas Pophale) SiO2 
 PCOD9278710
Probable space group: C 2/C
;
_chemical_formula_sum "Si O2"
_cell_formula_units_Z 56
_cell_length_a 16.064621
_cell_length_b 16.149161
_cell_length_c 9.862788
_cell_angle_alpha 90.000000
_cell_angle_beta 60.706584
_cell_angle_gamma 90.000000
_cell_volume 2231.511518
_symmetry_space_group_name_H-M "C 2/C"
_symmetry_group_IT_number 15
_symmetry_cell_setting 'monoclinic'
loop_
_space_group_symop_operation_xyz
x,y,z
-x,y,1/2-z
-x,-y,-z
x,-y,1/2+z
1/2+x,1/2+y,z
1/2-x,1/2+y,1/2-z
1/2-x,1/2-y,-z
1/2+x,1/2-y,1/2+z
loop_
_atom_site_type_symbol
_atom_site_label
_atom_site_fract_x
_atom_site_fract_y
_atom_site_fract_z
Si Si1 0.588987 0.862884 0.915373
Si Si2 0.890392 0.778260 0.298229
Si Si3 0.359759 0.818647 0.332046
Si Si4 0.147452 0.857146 0.606537
Si Si5 0.748168 0.005160 0.323374
Si Si6 0.877034 0.363702 0.012843
Si Si7 0.583444 0.568150 0.912572
O O1 0.631148 0.779581 0.814105
O O2 0.664342 0.935664 0.839429
O O3 0.580608 0.847922 0.083683
O O4 0.490477 0.881331 0.915124
O O5 0.892664 0.873922 0.240019
O O6 0.000000 0.771267 0.250000
O O7 0.151437 0.721919 0.041830
O O8 0.250777 0.832128 0.464660
O O9 0.380652 0.722687 0.286081
O O10 0.367426 0.861097 0.182426
O O11 0.170123 0.940132 0.668893
O O12 0.071910 0.870749 0.548135
O O13 0.695556 0.938116 0.461993
O O14 0.811907 0.970986 0.150375
O O15 0.500000 0.500000 0.000000
#
# Coordination Sequence:
#
# PCOD9278710 Si02
#       7
#     8   8   8   8   8   8   8
#     4  10  22  44  73 105 147 188 236 291 363 452
#     4  10  25  46  70 106 148 189 242 303 367 434
#     4  10  20  44  73 103 140 190 240 288 350 450
#     4  10  23  45  70 101 138 189 247 290 356 438
#     4  11  26  42  69 110 144 184 240 305 366 429
#     4  11  23  43  74 111 145 185 235 303 376 429
#     4  12  27  49  72  98 144 196 253 302 363 433
#
# _framework density 25.095098
#
# number of rings (size 3 to 8) (size 9 to 14) (size 15 to 20)
#    0.000    1.429    2.857    0.857    4.000    2.857 
#    2.571    2.857    0.000    2.571    0.000    0.000 
#    0.000    0.000    0.000    0.000    0.000    0.000 
#
# Total GULP energy -155996.021409 kJ/mol
# GULP energy per Si atom -5571.286479 kJ/mol
# Density = 2.503798 g / cm^3
# Si number density = 25.095098 Si / 1000 Ang^3
#
#
#
# Elastic Constant Matrix: (Units=GPa)
#
#
# Indices 1 2 3 4 5 6 
#
# 1 93.7333 36.8090 26.6196 0.0000 -10.3834 0.0000
# 2 36.8090 123.5529 28.7023 0.0000 -11.9874 0.0000
# 3 26.6196 28.7023 73.3013 0.0000 6.6814 0.0000
# 4 0.0000 0.0000 0.0000 29.7159 0.0000 9.4276
# 5 -10.3834 -11.9874 6.6814 0.0000 42.5997 0.0000
# 6 0.0000 0.0000 0.0000 9.4276 0.0000 29.5061
#
#
#
# Elastic Compliance Matrix: (Units=1/GPa)
#
#
# Indices 1 2 3 4 5 6 
#
# 1 0.013215 -0.002703 -0.004023 0.000000 0.003091 0.000000
# 2 -0.002703 0.009878 -0.003124 0.000000 0.002611 0.000000
# 3 -0.004023 -0.003124 0.016735 0.000000 -0.004484 0.000000
# 4 0.000000 0.000000 0.000000 0.037448 0.000000 -0.011965
# 5 0.003091 0.002611 -0.004484 0.000000 0.025666 0.000000
# 6 0.000000 0.000000 0.000000 -0.011965 0.000000 0.037714
#
#
# Mechanical properties :
#
#
# Convention : Reuss Voigt Hill
#
# Bulk Modulus (GPa) = 49.67959 52.76103 51.22031
# Shear Modulus (GPa) = 29.92845 33.59477 31.76161
#
# Velocity S-wave (km/s) = 3.45715 3.66279 3.56146
# Velocity P-wave (km/s) = 5.98125 6.24165 6.11284
#
# Compressibility (1/GPa) = 0.02012899
#
# Stress axis : x y z
#
# Youngs Moduli (GPa) = 75.67340 101.23523 59.75390
#
# Poissons Ratio (x) = 0.27359 0.24036
# Poissons Ratio (y) = 0.20451 0.18670
# Poissons Ratio (z) = 0.30440 0.31630
#
# Static dielectric constant tensor:
#      x y z
#    x 1.985470 0.000000 -0.000420 
#    y 0.000000 2.209200 0.000000 
#    z -0.000420 0.000000 2.097650 
# 
# From -- ./inp_files/105656.got.cif
#   From: 2010.05.17/outbox.cif.g08.bks.cpg/sg15_53_cif.got.tgz:105656.got - 2010.06.03 18:47:42.
