data_PCOD9278415
_publ_section_title
;
Structure prediction by ZEFSAII (Michael W. Deem and Ramdas Pophale) SiO2 
 PCOD9278415
Probable space group: C 2/C
;
_chemical_formula_sum "Si O2"
_cell_formula_units_Z 52
_cell_length_a 27.352124
_cell_length_b 10.873397
_cell_length_c 8.671769
_cell_angle_alpha 90.000000
_cell_angle_beta 87.589337
_cell_angle_gamma 90.000000
_cell_volume 2576.792749
_symmetry_space_group_name_H-M "C 2/C"
_symmetry_group_IT_number 15
_symmetry_cell_setting 'monoclinic'
loop_
_space_group_symop_operation_xyz
x,y,z
-x,y,1/2-z
-x,-y,-z
x,-y,1/2+z
1/2+x,1/2+y,z
1/2-x,1/2+y,1/2-z
1/2-x,1/2-y,-z
1/2+x,1/2-y,1/2+z
loop_
_atom_site_type_symbol
_atom_site_label
_atom_site_fract_x
_atom_site_fract_y
_atom_site_fract_z
Si Si1 0.890078 0.831600 0.808544
Si Si2 0.191104 0.835348 0.223828
Si Si3 0.061094 0.616297 0.531202
Si Si4 0.142421 0.034122 0.459050
Si Si5 0.834296 0.583758 0.130221
Si Si6 0.500000 0.070091 0.250000
Si Si7 0.200976 0.650539 0.676962
O O1 0.929035 0.735956 0.867153
O O2 0.893505 0.881065 0.635777
O O3 0.837309 0.762465 0.821108
O O4 0.886962 0.947066 0.921760
O O5 0.178756 0.882163 0.054938
O O6 0.164776 0.706816 0.266712
O O7 0.248055 0.817278 0.251397
O O8 0.171547 0.942590 0.340771
O O9 0.113948 0.571329 0.463219
O O10 0.029518 0.639787 0.380716
O O11 0.036408 0.516135 0.645515
O O12 0.821948 0.463635 0.227709
O O13 0.794207 0.608232 0.001524
#
# Coordination Sequence:
#
# PCOD9278415 Si02
#       7
#     8   8   8   8   8   4   8
#     4  10  22  40  60  87 123 163 209 252 302 373
#     4  11  22  38  56  86 122 174 218 253 297 345
#     4  10  20  43  62 100 122 155 198 245 331 364
#     4  10  22  39  58  82 117 176 208 251 289 360
#     4  11  23  38  58  90 127 164 203 263 299 369
#     4  10  22  40  76  94 126 150 186 268 316 398
#     4  11  23  35  57  86 128 166 213 262 298 347
#
# _framework density 20.180126000000001
#
# number of rings (size 3 to 8) (size 9 to 14) (size 15 to 20)
#    0.000    1.538    3.077    3.231    6.462    0.615 
#    5.538    0.000    0.000    2.769    0.000    0.000 
#    0.000    0.000    0.000    0.000    0.000    0.000 
#
# Total GULP energy -145271.435433 kJ/mol
# GULP energy per Si atom -5587.362901 kJ/mol
# Density = 2.013419 g / cm^3
# Si number density = 20.180126 Si / 1000 Ang^3
#
#
#
# Elastic Constant Matrix: (Units=GPa)
#
#
# Indices 1 2 3 4 5 6 
#
# 1 62.0878 29.0882 23.1346 0.0000 13.1441 0.0000
# 2 29.0882 60.2924 48.6468 0.0000 3.9457 0.0000
# 3 23.1346 48.6468 118.5046 0.0000 26.5075 0.0000
# 4 0.0000 0.0000 0.0000 40.2357 0.0000 5.2777
# 5 13.1441 3.9457 26.5075 0.0000 33.7513 0.0000
# 6 0.0000 0.0000 0.0000 5.2777 0.0000 13.6064
#
#
#
# Elastic Compliance Matrix: (Units=1/GPa)
#
#
# Indices 1 2 3 4 5 6 
#
# 1 0.023135 -0.012935 0.002997 0.000000 -0.009851 0.000000
# 2 -0.012935 0.033143 -0.013757 0.000000 0.011967 0.000000
# 3 0.002997 -0.013757 0.016258 0.000000 -0.012328 0.000000
# 4 0.000000 0.000000 0.000000 0.026186 0.000000 -0.010157
# 5 -0.009851 0.011967 -0.012328 0.000000 0.041748 0.000000
# 6 0.000000 0.000000 0.000000 -0.010157 0.000000 0.077435
#
#
# Mechanical properties :
#
#
# Convention : Reuss Voigt Hill
#
# Bulk Modulus (GPa) = 39.76732 49.18043 44.47387
# Shear Modulus (GPa) = 18.26966 26.85302 22.56134
#
# Velocity S-wave (km/s) = 3.01213 3.65179 3.34728
# Velocity P-wave (km/s) = 5.64325 6.49649 6.08484
#
# Compressibility (1/GPa) = 0.02514628
#
# Stress axis : x y z
#
# Youngs Moduli (GPa) = 43.22421 30.17211 61.50688
#
# Poissons Ratio (x) = 0.39028 -0.18434
# Poissons Ratio (y) = 0.55911 0.84616
# Poissons Ratio (z) = -0.12955 0.41508
#
# Static dielectric constant tensor:
#      x y z
#    x 1.703760 0.000000 0.014640 
#    y 0.000000 1.701470 0.000000 
#    z 0.014640 0.000000 1.752260 
# 
# From -- ./inp_files/65184.got.cif
#   From: 2010.05.17/outbox.cif.g08.bks.cpg/sg15_33_cif.got.tgz:65184.got - 2010.06.03 18:47:42.
