data_PCOD9278766
_publ_section_title
;
Structure prediction by ZEFSAII (Michael W. Deem and Ramdas Pophale) SiO2 
 PCOD9278766
Probable space group: C 2/C
;
_chemical_formula_sum "Si O2"
_cell_formula_units_Z 36
_cell_length_a 11.519958
_cell_length_b 12.965285
_cell_length_c 10.839870
_cell_angle_alpha 90.000000
_cell_angle_beta 113.422898
_cell_angle_gamma 90.000000
_cell_volume 1485.622508
_symmetry_space_group_name_H-M "C 2/C"
_symmetry_group_IT_number 15
_symmetry_cell_setting 'monoclinic'
loop_
_space_group_symop_operation_xyz
x,y,z
-x,y,1/2-z
-x,-y,-z
x,-y,1/2+z
1/2+x,1/2+y,z
1/2-x,1/2+y,1/2-z
1/2-x,1/2-y,-z
1/2+x,1/2-y,1/2+z
loop_
_atom_site_type_symbol
_atom_site_label
_atom_site_fract_x
_atom_site_fract_y
_atom_site_fract_z
Si Si1 0.604256 0.960303 0.895865
Si Si2 0.935885 0.143403 0.855379
Si Si3 0.910689 0.660257 0.480055
Si Si4 0.153759 0.078284 0.142592
Si Si5 0.000000 0.211910 0.250000
O O1 0.500000 0.994684 0.750000
O O2 0.712946 0.903995 0.865640
O O3 0.656811 0.056613 0.998448
O O4 0.532221 0.884990 0.958940
O O5 0.000000 0.159630 0.750000
O O6 0.047733 0.111271 0.997765
O O7 0.848937 0.042396 0.822698
O O8 0.865730 0.245778 0.874194
O O9 0.949627 0.718612 0.619644
O O10 0.111523 0.140133 0.244971
#
# Coordination Sequence:
#
# PCOD9278766 Si02
#       5
#     8   8   8   8   4
#     4  11  24  46  65  97 136 180 212 268 322 399
#     4  10  21  42  67 100 125 170 217 275 320 386
#     4  10  23  43  64  96 135 170 227 256 334 384
#     4  10  23  42  71  95 134 166 221 270 329 381
#     4  10  20  46  64 100 128 174 212 284 318 386
#
# _framework density 24.232267
#
# number of rings (size 3 to 8) (size 9 to 14) (size 15 to 20)
#    0.000    1.778    2.222    0.667    0.000    8.000 
#    8.000    0.000    0.000    0.000    0.000    0.000 
#    0.000    0.000    0.000    0.000    0.000    0.000 
#
# Total GULP energy -100682.870585 kJ/mol
# GULP energy per Si atom -5593.492810 kJ/mol
# Density = 2.417711 g / cm^3
# Si number density = 24.232267 Si / 1000 Ang^3
#
#
#
# Elastic Constant Matrix: (Units=GPa)
#
#
# Indices 1 2 3 4 5 6 
#
# 1 95.3118 28.0391 37.9681 0.0000 -28.4395 0.0000
# 2 28.0391 149.1249 56.2442 0.0000 -25.3126 0.0000
# 3 37.9681 56.2442 113.5573 0.0000 -37.3077 0.0000
# 4 0.0000 0.0000 0.0000 35.6149 0.0000 -0.3984
# 5 -28.4395 -25.3126 -37.3077 0.0000 43.6756 0.0000
# 6 0.0000 0.0000 0.0000 -0.3984 0.0000 2.1629
#
#
#
# Elastic Compliance Matrix: (Units=1/GPa)
#
#
# Indices 1 2 3 4 5 6 
#
# 1 0.013472 -0.000648 -0.001981 0.000000 0.006705 0.000000
# 2 -0.000648 0.008380 -0.003443 0.000000 0.001494 0.000000
# 3 -0.001981 -0.003443 0.014032 0.000000 0.008701 0.000000
# 4 0.000000 0.000000 0.000000 0.028136 0.000000 0.005182
# 5 0.006705 0.001494 0.008701 0.000000 0.035560 0.000000
# 6 0.000000 0.000000 0.000000 0.005182 0.000000 0.463298
#
#
# Mechanical properties :
#
#
# Convention : Reuss Voigt Hill
#
# Bulk Modulus (GPa) = 42.12151 66.94411 54.53281
# Shear Modulus (GPa) = 8.57728 32.00684 20.29206
#
# Velocity S-wave (km/s) = 1.88343 3.63827 2.89692
# Velocity P-wave (km/s) = 4.70636 6.73315 5.80884
#
# Compressibility (1/GPa) = 0.02374084
#
# Stress axis : x y z
#
# Youngs Moduli (GPa) = 74.22702 119.33535 71.26368
#
# Poissons Ratio (x) = 0.07732 0.14115
# Poissons Ratio (y) = 0.04809 0.24537
# Poissons Ratio (z) = 0.14702 0.41088
#
# Static dielectric constant tensor:
#      x y z
#    x 1.877580 0.000000 0.042440 
#    y 0.000000 1.929850 0.000000 
#    z 0.042440 0.000000 1.946860 
# 
# From -- ./inp_files/84333.got.cif
#   From: 2010.05.17/outbox.cif.g08.bks.cpg/sg15_43_cif.got.tgz:84333.got - 2010.06.03 18:47:42.
