data_PCOD9278307
_publ_section_title
;
Structure prediction by ZEFSAII (Michael W. Deem and Ramdas Pophale) SiO2 
 PCOD9278307
Probable space group: C 2/C
;
_chemical_formula_sum "Si O2"
_cell_formula_units_Z 40
_cell_length_a 17.482346
_cell_length_b 9.292506
_cell_length_c 14.303050
_cell_angle_alpha 90.000000
_cell_angle_beta 129.939962
_cell_angle_gamma 90.000000
_cell_volume 1781.544342
_symmetry_space_group_name_H-M "C 2/C"
_symmetry_group_IT_number 15
_symmetry_cell_setting 'monoclinic'
loop_
_space_group_symop_operation_xyz
x,y,z
-x,y,1/2-z
-x,-y,-z
x,-y,1/2+z
1/2+x,1/2+y,z
1/2-x,1/2+y,1/2-z
1/2-x,1/2-y,-z
1/2+x,1/2-y,1/2+z
loop_
_atom_site_type_symbol
_atom_site_label
_atom_site_fract_x
_atom_site_fract_y
_atom_site_fract_z
Si Si1 0.194038 0.343143 0.227989
Si Si2 0.918627 0.272025 0.616121
Si Si3 0.770060 0.952790 0.952076
Si Si4 0.733746 0.929165 0.613830
Si Si5 0.016792 0.575608 0.873799
O O1 0.241584 0.443818 0.345998
O O2 0.224343 0.183122 0.279181
O O3 0.228176 0.414486 0.158247
O O4 0.075772 0.361318 0.144322
O O5 0.863547 0.152335 0.512107
O O6 0.828549 0.356792 0.599777
O O7 0.978311 0.401683 0.613811
O O8 0.000000 0.205683 0.750000
O O9 0.790783 0.047812 0.061361
O O10 0.623577 0.877280 0.496335
O O11 0.000000 0.606012 0.750000
#
# Coordination Sequence:
#
# PCOD9278307 Si02
#       5
#     8   8   8   8   8
#     4  12  24  43  66  94 132 168 212 264 318 381
#     4   9  17  35  67  91 116 166 213 251 317 370
#     4  10  21  39  64  91 129 166 213 262 310 376
#     4  11  26  41  66  97 125 171 214 263 320 374
#     4  10  20  42  70  87 125 175 209 254 321 383
#
# _framework density 22.452428999999999
#
# number of rings (size 3 to 8) (size 9 to 14) (size 15 to 20)
#    0.000    1.600    6.000    1.200    8.400    0.000 
#    3.600    1.000    0.000    0.000    0.000    0.000 
#    0.000    0.000    0.000    0.000    0.000    0.000 
#
# Total GULP energy -111802.642934 kJ/mol
# GULP energy per Si atom -5590.132147 kJ/mol
# Density = 2.240133 g / cm^3
# Si number density = 22.452429 Si / 1000 Ang^3
#
#
#
# Elastic Constant Matrix: (Units=GPa)
#
#
# Indices 1 2 3 4 5 6 
#
# 1 28.8780 22.9827 25.3587 0.0000 -0.1577 0.0000
# 2 22.9827 73.2976 26.3146 0.0000 13.1490 0.0000
# 3 25.3587 26.3146 98.8579 0.0000 1.5055 0.0000
# 4 0.0000 0.0000 0.0000 56.5029 0.0000 -0.0958
# 5 -0.1577 13.1490 1.5055 0.0000 41.9376 0.0000
# 6 0.0000 0.0000 0.0000 -0.0958 0.0000 22.8786
#
#
#
# Elastic Compliance Matrix: (Units=1/GPa)
#
#
# Indices 1 2 3 4 5 6 
#
# 1 0.055378 -0.014549 -0.010411 0.000000 0.005144 0.000000
# 2 -0.014549 0.019844 -0.001455 0.000000 -0.006224 0.000000
# 3 -0.010411 -0.001455 0.013174 0.000000 -0.000056 0.000000
# 4 0.000000 0.000000 0.000000 0.017698 0.000000 0.000074
# 5 0.005144 -0.006224 -0.000056 0.000000 0.025818 0.000000
# 6 0.000000 0.000000 0.000000 0.000074 0.000000 0.043709
#
#
# Mechanical properties :
#
#
# Convention : Reuss Voigt Hill
#
# Bulk Modulus (GPa) = 28.11711 38.92729 33.52220
# Shear Modulus (GPa) = 20.80674 32.68899 26.74787
#
# Velocity S-wave (km/s) = 3.04748 3.81979 3.45528
# Velocity P-wave (km/s) = 4.99330 6.06875 5.55710
#
# Compressibility (1/GPa) = 0.03556553
#
# Stress axis : x y z
#
# Youngs Moduli (GPa) = 18.05786 50.39321 75.90514
#
# Poissons Ratio (x) = 0.73317 0.79024
# Poissons Ratio (y) = 0.26272 0.11047
# Poissons Ratio (z) = 0.18800 0.07334
#
# Static dielectric constant tensor:
#      x y z
#    x 1.832820 0.000000 -0.038370 
#    y 0.000000 1.838560 0.000000 
#    z -0.038370 0.000000 1.875920 
# 
# From -- ./inp_files/159132.got.cif
#   From: 2010.05.17/outbox.cif.g08.bks.cpg/sg15_80_cif.got.tgz:159132.got - 2010.06.03 18:47:42.
