data_PCOD9278754
_publ_section_title
;
Structure prediction by ZEFSAII (Michael W. Deem and Ramdas Pophale) SiO2 
 PCOD9278754
Probable space group: C 2/C
;
_chemical_formula_sum "Si O2"
_cell_formula_units_Z 44
_cell_length_a 17.953734
_cell_length_b 9.875918
_cell_length_c 13.974850
_cell_angle_alpha 90.000000
_cell_angle_beta 66.345680
_cell_angle_gamma 90.000000
_cell_volume 2269.690905
_symmetry_space_group_name_H-M "C 2/C"
_symmetry_group_IT_number 15
_symmetry_cell_setting 'monoclinic'
loop_
_space_group_symop_operation_xyz
x,y,z
-x,y,1/2-z
-x,-y,-z
x,-y,1/2+z
1/2+x,1/2+y,z
1/2-x,1/2+y,1/2-z
1/2-x,1/2-y,-z
1/2+x,1/2-y,1/2+z
loop_
_atom_site_type_symbol
_atom_site_label
_atom_site_fract_x
_atom_site_fract_y
_atom_site_fract_z
Si Si1 0.330039 0.158001 0.052646
Si Si2 0.000000 0.768410 0.250000
Si Si3 0.944227 0.111978 0.977413
Si Si4 0.773864 0.038337 0.552311
Si Si5 0.873434 0.552540 0.240674
Si Si6 0.990477 0.628235 0.575834
O O1 0.298131 0.310615 0.072405
O O2 0.346602 0.105516 0.150292
O O3 0.267101 0.061257 0.030273
O O4 0.415705 0.162502 0.950433
O O5 0.979655 0.854189 0.354536
O O6 0.925034 0.669684 0.264815
O O7 0.951161 0.247997 0.037669
O O8 0.853090 0.055631 0.013864
O O9 0.000000 0.000000 0.000000
O O10 0.704306 0.983570 0.657423
O O11 0.933104 0.425005 0.189784
O O12 0.000000 0.500000 0.500000
#
# Coordination Sequence:
#
# PCOD9278754 Si02
#       6
#     8   4   8   8   8   8
#     4  10  22  45  61  96 143 172 231 291 340 425
#     4  12  24  46  72 100 136 192 236 276 360 432
#     4  12  25  47  71 104 143 180 236 300 348 422
#     4  11  25  40  67 101 137 180 229 291 354 405
#     4  11  24  41  70  98 130 183 233 279 350 420
#     4  10  20  45  70  91 137 180 220 285 341 415
#
# _framework density 19.385899999999999
#
# number of rings (size 3 to 8) (size 9 to 14) (size 15 to 20)
#    0.000    1.091    5.455    1.091    5.091    3.636 
#    3.273    0.000    0.000    0.000    0.000    0.000 
#    0.000    0.000    0.000    0.000    0.000    0.000 
#
# Total GULP energy -122944.251291 kJ/mol
# GULP energy per Si atom -5588.375059 kJ/mol
# Density = 1.934178 g / cm^3
# Si number density = 19.385900 Si / 1000 Ang^3
#
#
#
# Elastic Constant Matrix: (Units=GPa)
#
#
# Indices 1 2 3 4 5 6 
#
# 1 153.8796 73.9047 60.9120 0.0000 -13.1542 0.0000
# 2 73.9047 113.0625 68.1382 0.0000 -4.5078 0.0000
# 3 60.9120 68.1382 117.2663 0.0000 -19.0982 0.0000
# 4 0.0000 0.0000 0.0000 13.1545 0.0000 -4.0854
# 5 -13.1542 -4.5078 -19.0982 0.0000 41.9760 0.0000
# 6 0.0000 0.0000 0.0000 -4.0854 0.0000 52.5430
#
#
#
# Elastic Compliance Matrix: (Units=1/GPa)
#
#
# Indices 1 2 3 4 5 6 
#
# 1 0.009912 -0.005351 -0.001757 0.000000 0.001732 0.000000
# 2 -0.005351 0.016710 -0.007464 0.000000 -0.003278 0.000000
# 3 -0.001757 -0.007464 0.014642 0.000000 0.005310 0.000000
# 4 0.000000 0.000000 0.000000 0.077901 0.000000 0.006057
# 5 0.001732 -0.003278 0.005310 0.000000 0.026430 0.000000
# 6 0.000000 0.000000 0.000000 0.006057 0.000000 0.019503
#
#
# Mechanical properties :
#
#
# Convention : Reuss Voigt Hill
#
# Bulk Modulus (GPa) = 82.51022 87.79090 85.15056
# Shear Modulus (GPa) = 25.21660 33.61826 29.41743
#
# Velocity S-wave (km/s) = 3.61053 4.16884 3.89969
# Velocity P-wave (km/s) = 7.74827 8.27989 8.01849
#
# Compressibility (1/GPa) = 0.01211971
#
# Stress axis : x y z
#
# Youngs Moduli (GPa) = 100.88456 59.84488 68.29670
#
# Poissons Ratio (x) = 0.32024 0.12002
# Poissons Ratio (y) = 0.53985 0.50975
# Poissons Ratio (z) = 0.17729 0.44666
#
# Static dielectric constant tensor:
#      x y z
#    x 1.705430 0.000000 0.013850 
#    y 0.000000 1.687150 0.000000 
#    z 0.013850 0.000000 1.696350 
# 
# From -- ./inp_files/159199.got.cif
#   From: 2010.05.17/outbox.cif.g08.bks.cpg/sg15_80_cif.got.tgz:159199.got - 2010.06.03 18:47:42.
