data_PCOD9278265
_publ_section_title
;
Structure prediction by ZEFSAII (Michael W. Deem and Ramdas Pophale) SiO2 
 PCOD9278265
Probable space group: C 2/C
;
_chemical_formula_sum "Si O2"
_cell_formula_units_Z 40
_cell_length_a 24.203185
_cell_length_b 6.955721
_cell_length_c 10.139636
_cell_angle_alpha 90.000000
_cell_angle_beta 117.429779
_cell_angle_gamma 90.000000
_cell_volume 1515.104641
_symmetry_space_group_name_H-M "C 2/C"
_symmetry_group_IT_number 15
_symmetry_cell_setting 'monoclinic'
loop_
_space_group_symop_operation_xyz
x,y,z
-x,y,1/2-z
-x,-y,-z
x,-y,1/2+z
1/2+x,1/2+y,z
1/2-x,1/2+y,1/2-z
1/2-x,1/2-y,-z
1/2+x,1/2-y,1/2+z
loop_
_atom_site_type_symbol
_atom_site_label
_atom_site_fract_x
_atom_site_fract_y
_atom_site_fract_z
Si Si1 0.334370 0.618208 0.061614
Si Si2 0.780933 0.158809 0.711248
Si Si3 0.351366 0.202206 0.051786
Si Si4 0.477917 0.204428 0.096519
Si Si5 0.552691 0.825501 0.205250
O O1 0.293426 0.535778 0.138495
O O2 0.378908 0.780453 0.167433
O O3 0.301373 0.661192 0.885555
O O4 0.373073 0.425326 0.072045
O O5 0.707835 0.189516 0.609188
O O6 0.820664 0.311900 0.665027
O O7 0.412215 0.099886 0.062464
O O8 0.500000 0.314920 0.250000
O O9 0.533543 0.045195 0.143437
O O10 0.461748 0.297159 0.941356
O O11 0.500000 0.773809 0.250000
#
# Coordination Sequence:
#
# PCOD9278265 Si02
#       5
#     8   8   8   8   8
#     4  10  20  42  68  99 134 177 231 280 340 413
#     4   9  21  42  68 101 136 180 224 288 348 404
#     4   9  21  43  68  98 138 179 223 284 347 407
#     4  10  22  44  64  94 140 180 223 284 343 398
#     4  10  23  41  64 101 133 179 229 279 337 408
#
# _framework density 26.400818000000001
#
# number of rings (size 3 to 8) (size 9 to 14) (size 15 to 20)
#    1.200    1.200    0.000    1.200    2.800    0.800 
#   18.000    5.000    0.000    0.000    0.000    0.000 
#    0.000    0.000    0.000    0.000    0.000    0.000 
#
# Total GULP energy -111426.271702 kJ/mol
# GULP energy per Si atom -5571.313585 kJ/mol
# Density = 2.634073 g / cm^3
# Si number density = 26.400818 Si / 1000 Ang^3
#
#
#
# Elastic Constant Matrix: (Units=GPa)
#
#
# Indices 1 2 3 4 5 6 
#
# 1 97.7012 9.8305 68.9013 0.0000 11.1595 0.0000
# 2 9.8305 50.0862 0.0121 0.0000 3.2131 0.0000
# 3 68.9013 0.0121 255.1764 0.0000 -21.4632 0.0000
# 4 0.0000 0.0000 0.0000 25.1725 0.0000 8.7517
# 5 11.1595 3.2131 -21.4632 0.0000 56.0303 0.0000
# 6 0.0000 0.0000 0.0000 8.7517 0.0000 30.0892
#
#
#
# Elastic Compliance Matrix: (Units=1/GPa)
#
#
# Indices 1 2 3 4 5 6 
#
# 1 0.013844 -0.002448 -0.004090 0.000000 -0.004183 0.000000
# 2 -0.002448 0.020475 0.000622 0.000000 -0.000448 0.000000
# 3 -0.004090 0.000622 0.005258 0.000000 0.002793 0.000000
# 4 0.000000 0.000000 0.000000 0.044195 0.000000 -0.012854
# 5 -0.004183 -0.000448 0.002793 0.000000 0.019776 0.000000
# 6 0.000000 0.000000 0.000000 -0.012854 0.000000 0.036973
#
#
# Mechanical properties :
#
#
# Convention : Reuss Voigt Hill
#
# Bulk Modulus (GPa) = 36.04147 62.27239 49.15693
# Shear Modulus (GPa) = 30.94064 43.87307 37.40685
#
# Velocity S-wave (km/s) = 3.42710 4.08095 3.76823
# Velocity P-wave (km/s) = 5.41676 6.77082 6.13129
#
# Compressibility (1/GPa) = 0.02774581
#
# Stress axis : x y z
#
# Youngs Moduli (GPa) = 72.23557 48.84097 190.18494
#
# Poissons Ratio (x) = 0.11955 0.77781
# Poissons Ratio (y) = 0.17681 -0.11834
# Poissons Ratio (z) = 0.29542 -0.03039
#
# Static dielectric constant tensor:
#      x y z
#    x 2.127150 0.000000 -0.077000 
#    y 0.000000 2.373190 0.000000 
#    z -0.077000 0.000000 2.128400 
# 
# From -- ./inp_files/125730.got.cif
#   From: 2010.05.17/outbox.cif.g08.bks.cpg/sg15_63_cif.got.tgz:125730.got - 2010.06.03 18:47:42.
