data_PCOD9278933
_publ_section_title
;
Structure prediction by ZEFSAII (Michael W. Deem and Ramdas Pophale) SiO2 
 PCOD9278933
Probable space group: C 2/C
;
_chemical_formula_sum "Si O2"
_cell_formula_units_Z 44
_cell_length_a 21.925490
_cell_length_b 17.676168
_cell_length_c 5.489239
_cell_angle_alpha 90.000000
_cell_angle_beta 119.486504
_cell_angle_gamma 90.000000
_cell_volume 1851.843178
_symmetry_space_group_name_H-M "C 2/C"
_symmetry_group_IT_number 15
_symmetry_cell_setting 'monoclinic'
loop_
_space_group_symop_operation_xyz
x,y,z
-x,y,1/2-z
-x,-y,-z
x,-y,1/2+z
1/2+x,1/2+y,z
1/2-x,1/2+y,1/2-z
1/2-x,1/2-y,-z
1/2+x,1/2-y,1/2+z
loop_
_atom_site_type_symbol
_atom_site_label
_atom_site_fract_x
_atom_site_fract_y
_atom_site_fract_z
Si Si1 0.500000 0.047090 0.750000
Si Si2 0.358475 0.308827 0.630883
Si Si3 0.728012 0.039981 0.072246
Si Si4 0.370436 0.844633 0.929836
Si Si5 0.718335 0.196922 0.648946
Si Si6 0.602729 0.460495 0.602892
O O1 0.566744 0.101185 0.887932
O O2 0.500000 0.000000 0.500000
O O3 0.389623 0.242843 0.521751
O O4 0.320088 0.257576 0.756620
O O5 0.290575 0.345817 0.362707
O O6 0.408171 0.373096 0.836946
O O7 0.693818 0.123337 0.031312
O O8 0.704290 0.002135 0.773949
O O9 0.812231 0.037105 0.250737
O O10 0.341682 0.850926 0.599585
O O11 0.750000 0.250000 0.500000
O O12 0.578919 0.487663 0.286767
#
# Coordination Sequence:
#
# PCOD9278933 Si02
#       6
#     4   8   8   8   8   8
#     4  12  30  52  68  96 136 182 242 286 320 376
#     4  10  21  36  58  90 124 166 214 269 332 408
#     4  10  21  33  52  81 118 163 205 247 314 381
#     4  11  24  39  65  84 123 173 226 280 325 374
#     4   9  19  33  58  89 123 157 216 266 330 389
#     4  10  22  34  52  85 127 159 190 244 317 400
#
# _framework density 23.760111999999999
#
# number of rings (size 3 to 8) (size 9 to 14) (size 15 to 20)
#    0.000    1.818    0.000    4.364   17.818    0.000 
#    0.000    0.000    0.000    0.000    0.000    1.273 
#    0.000    0.000    0.000    0.000    0.000    0.000 
#
# Total GULP energy -122817.024025 kJ/mol
# GULP energy per Si atom -5582.592001 kJ/mol
# Density = 2.370603 g / cm^3
# Si number density = 23.760112 Si / 1000 Ang^3
#
#
#
# Elastic Constant Matrix: (Units=GPa)
#
#
# Indices 1 2 3 4 5 6 
#
# 1 32.6565 2.6599 16.2141 0.0000 -1.6281 0.0000
# 2 2.6599 114.9696 38.5332 0.0000 -8.1760 0.0000
# 3 16.2141 38.5332 104.9351 0.0000 -12.8174 0.0000
# 4 0.0000 0.0000 0.0000 42.3826 0.0000 -4.7356
# 5 -1.6281 -8.1760 -12.8174 0.0000 31.4858 0.0000
# 6 0.0000 0.0000 0.0000 -4.7356 0.0000 36.4858
#
#
#
# Elastic Compliance Matrix: (Units=1/GPa)
#
#
# Indices 1 2 3 4 5 6 
#
# 1 0.033287 0.001078 -0.005572 0.000000 -0.000267 0.000000
# 2 0.001078 0.009993 -0.003696 0.000000 0.001146 0.000000
# 3 -0.005572 -0.003696 0.012202 0.000000 0.003719 0.000000
# 4 0.000000 0.000000 0.000000 0.023942 0.000000 0.003107
# 5 -0.000267 0.001146 0.003719 0.000000 0.033558 0.000000
# 6 0.000000 0.000000 0.000000 0.003107 0.000000 0.027811
#
#
# Mechanical properties :
#
#
# Convention : Reuss Voigt Hill
#
# Bulk Modulus (GPa) = 25.57348 40.81950 33.19649
# Shear Modulus (GPa) = 29.37579 35.08110 32.22845
#
# Velocity S-wave (km/s) = 3.51999 3.84666 3.68694
# Velocity P-wave (km/s) = 5.22561 6.07833 5.66803
#
# Compressibility (1/GPa) = 0.03910301
#
# Stress axis : x y z
#
# Youngs Moduli (GPa) = 30.04164 100.06652 81.95185
#
# Poissons Ratio (x) = -0.10791 0.45663
# Poissons Ratio (y) = -0.03240 0.30292
# Poissons Ratio (z) = 0.16739 0.36988
#
# Static dielectric constant tensor:
#      x y z
#    x 1.964800 0.000000 -0.104950 
#    y 0.000000 1.978690 0.000000 
#    z -0.104950 0.000000 2.077400 
# 
# From -- ./inp_files/12969.got.cif
#   From: 2010.05.17/outbox.cif.g08.bks.cpg/sg15_7_cif.got.tgz:12969.got - 2010.06.03 18:47:42.
