data_PCOD9278692
_publ_section_title
;
Structure prediction by ZEFSAII (Michael W. Deem and Ramdas Pophale) SiO2 
 PCOD9278692
Probable space group: C 2/C
;
_chemical_formula_sum "Si O2"
_cell_formula_units_Z 36
_cell_length_a 12.636713
_cell_length_b 7.256819
_cell_length_c 16.219120
_cell_angle_alpha 90.000000
_cell_angle_beta 62.562499
_cell_angle_gamma 90.000000
_cell_volume 1320.027279
_symmetry_space_group_name_H-M "C 2/C"
_symmetry_group_IT_number 15
_symmetry_cell_setting 'monoclinic'
loop_
_space_group_symop_operation_xyz
x,y,z
-x,y,1/2-z
-x,-y,-z
x,-y,1/2+z
1/2+x,1/2+y,z
1/2-x,1/2+y,1/2-z
1/2-x,1/2-y,-z
1/2+x,1/2-y,1/2+z
loop_
_atom_site_type_symbol
_atom_site_label
_atom_site_fract_x
_atom_site_fract_y
_atom_site_fract_z
Si Si1 0.289920 0.195647 0.394794
Si Si2 0.164152 0.281282 0.110971
Si Si3 0.886277 0.677000 0.123295
Si Si4 0.949999 0.247832 0.087435
Si Si5 0.500000 0.327430 0.250000
O O1 0.250000 0.250000 0.500000
O O2 0.174896 0.149561 0.380770
O O3 0.357505 0.001101 0.374514
O O4 0.372207 0.366960 0.338584
O O5 0.247937 0.222871 0.156324
O O6 0.033071 0.203244 0.135655
O O7 0.250000 0.250000 0.000000
O O8 0.032532 0.227013 0.976732
O O9 0.909267 0.460458 0.104383
O O10 0.935495 0.735679 0.193329
#
# Coordination Sequence:
#
# PCOD9278692 Si02
#       5
#     8   8   8   8   4
#     4  12  23  43  72  98 136 183 219 281 344 395
#     4  10  22  41  71 100 129 175 229 276 337 408
#     4  10  21  42  69 100 133 178 223 284 335 405
#     4  10  20  44  70  94 135 178 223 276 344 392
#     4  12  24  42  70 100 140 178 230 276 342 406
#
# _framework density 27.272164
#
# number of rings (size 3 to 8) (size 9 to 14) (size 15 to 20)
#    0.000    1.333    4.444    2.667    0.000    5.333 
#    4.000    0.000    0.000    1.333    0.000    0.000 
#    0.000    0.000    0.000    0.000    0.000    0.000 
#
# Total GULP energy -100593.746539 kJ/mol
# GULP energy per Si atom -5588.541474 kJ/mol
# Density = 2.721009 g / cm^3
# Si number density = 27.272164 Si / 1000 Ang^3
#
#
#
# Elastic Constant Matrix: (Units=GPa)
#
#
# Indices 1 2 3 4 5 6 
#
# 1 266.9452 36.7037 29.7080 0.0000 14.0223 0.0000
# 2 36.7037 69.5275 -19.3228 0.0000 14.6957 0.0000
# 3 29.7080 -19.3228 62.7281 0.0000 24.2552 0.0000
# 4 0.0000 0.0000 0.0000 1.6092 0.0000 7.1702
# 5 14.0223 14.6957 24.2552 0.0000 51.3980 0.0000
# 6 0.0000 0.0000 0.0000 7.1702 0.0000 49.9724
#
#
#
# Elastic Compliance Matrix: (Units=1/GPa)
#
#
# Indices 1 2 3 4 5 6 
#
# 1 0.004661 -0.004000 -0.004147 0.000000 0.001829 0.000000
# 2 -0.004000 0.022707 0.013428 0.000000 -0.011738 0.000000
# 3 -0.004147 0.013428 0.028243 0.000000 -0.016036 0.000000
# 4 0.000000 0.000000 0.000000 1.722969 0.000000 -0.247217
# 5 0.001829 -0.011738 -0.016036 0.000000 0.029881 0.000000
# 6 0.000000 0.000000 0.000000 -0.247217 0.000000 0.055482
#
#
# Mechanical properties :
#
#
# Convention : Reuss Voigt Hill
#
# Bulk Modulus (GPa) = 15.11191 54.81985 34.96588
# Shear Modulus (GPa) = 2.66604 44.07004 23.36804
#
# Velocity S-wave (km/s) = 0.98979 4.02423 2.93037
# Velocity P-wave (km/s) = 2.61905 6.46044 4.92933
#
# Compressibility (1/GPa) = 0.06617298
#
# Stress axis : x y z
#
# Youngs Moduli (GPa) = 214.52326 44.03911 35.40733
#
# Poissons Ratio (x) = 0.17615 0.14683
# Poissons Ratio (y) = 0.85807 -0.47544
# Poissons Ratio (z) = 0.88963 -0.59135
#
# Static dielectric constant tensor:
#      x y z
#    x 2.111160 0.000000 -0.059660 
#    y 0.000000 2.286890 0.000000 
#    z -0.059660 0.000000 2.129900 
# 
# From -- ./inp_files/141672.got.cif
#   From: 2010.05.17/outbox.cif.g08.bks.cpg/sg15_71_cif.got.tgz:141672.got - 2010.06.03 18:47:42.
