data_PCOD9278301
_publ_section_title
;
Structure prediction by ZEFSAII (Michael W. Deem and Ramdas Pophale) SiO2 
 PCOD9278301
Probable space group: C 2/C
;
_chemical_formula_sum "Si O2"
_cell_formula_units_Z 32
_cell_length_a 12.139918
_cell_length_b 7.089753
_cell_length_c 13.742219
_cell_angle_alpha 90.000000
_cell_angle_beta 88.672440
_cell_angle_gamma 90.000000
_cell_volume 1182.461842
_symmetry_space_group_name_H-M "C 2/C"
_symmetry_group_IT_number 15
_symmetry_cell_setting 'monoclinic'
loop_
_space_group_symop_operation_xyz
x,y,z
-x,y,1/2-z
-x,-y,-z
x,-y,1/2+z
1/2+x,1/2+y,z
1/2-x,1/2+y,1/2-z
1/2-x,1/2-y,-z
1/2+x,1/2-y,1/2+z
loop_
_atom_site_type_symbol
_atom_site_label
_atom_site_fract_x
_atom_site_fract_y
_atom_site_fract_z
Si Si1 0.500000 0.800600 0.750000
Si Si2 0.306098 0.716473 0.631753
Si Si3 0.545274 0.170574 0.648306
Si Si4 0.000000 0.000000 0.500000
Si Si5 0.700927 0.560715 0.538912
O O1 0.514074 0.951952 0.660450
O O2 0.383977 0.709779 0.721581
O O3 0.178669 0.665820 0.649963
O O4 0.352621 0.564511 0.551531
O O5 0.288486 0.923892 0.585714
O O6 0.500000 0.258148 0.750000
O O7 0.498222 0.282926 0.558282
O O8 0.917477 0.921739 0.410916
O O9 0.750000 0.750000 0.500000
#
# Coordination Sequence:
#
# PCOD9278301 Si02
#       5
#     4   8   8   4   8
#     4  10  22  44  66 106 150 192 252 318 364 452
#     4  10  22  44  68  99 141 195 239 299 387 431
#     4   9  22  42  69 105 149 195 251 318 372 443
#     4  10  20  42  70 106 142 196 240 306 384 440
#     4  10  22  41  69 102 138 186 244 303 367 457
#
# _framework density 27.062183999999998
#
# number of rings (size 3 to 8) (size 9 to 14) (size 15 to 20)
#    0.750    1.500    0.000    1.500    0.000    4.000 
#   11.250    8.750    0.000    0.000    0.000    0.000 
#    0.000    0.000    0.000    0.000    0.000    0.000 
#
# Total GULP energy -89100.089801 kJ/mol
# GULP energy per Si atom -5568.755613 kJ/mol
# Density = 2.700059 g / cm^3
# Si number density = 27.062184 Si / 1000 Ang^3
#
#
#
# Elastic Constant Matrix: (Units=GPa)
#
#
# Indices 1 2 3 4 5 6 
#
# 1 199.8177 18.8652 55.9304 0.0000 44.6088 0.0000
# 2 18.8652 84.3420 33.8246 0.0000 15.0243 0.0000
# 3 55.9304 33.8246 136.2820 0.0000 43.2711 0.0000
# 4 0.0000 0.0000 0.0000 21.2008 0.0000 22.7905
# 5 44.6088 15.0243 43.2711 0.0000 65.3320 0.0000
# 6 0.0000 0.0000 0.0000 22.7905 0.0000 10.9375
#
#
#
# Elastic Compliance Matrix: (Units=1/GPa)
#
#
# Indices 1 2 3 4 5 6 
#
# 1 0.006143 -0.000224 -0.001456 0.000000 -0.003178 0.000000
# 2 -0.000224 0.013237 -0.002882 0.000000 -0.000983 0.000000
# 3 -0.001456 -0.002882 0.010288 0.000000 -0.005157 0.000000
# 4 0.000000 0.000000 0.000000 -0.038040 0.000000 0.079265
# 5 -0.003178 -0.000983 -0.005157 0.000000 0.021118 0.000000
# 6 0.000000 0.000000 0.000000 0.079265 0.000000 -0.073736
#
#
# Mechanical properties :
#
#
# Convention : Reuss Voigt Hill
#
# Bulk Modulus (GPa) = 48.67412 70.85357 59.76384
# Shear Modulus (GPa) = -111.06523 40.28217 -35.39153
#
# Velocity S-wave (km/s) = -6.41326 3.86230 -3.62025
# Velocity P-wave (km/s) = 6.06751 6.79179 2.15797
#
# Compressibility (1/GPa) = 0.02054480
#
# Stress axis : x y z
#
# Youngs Moduli (GPa) = 162.78992 75.54450 97.20070
#
# Poissons Ratio (x) = 0.01691 0.14156
# Poissons Ratio (y) = 0.03643 0.28009
# Poissons Ratio (z) = 0.23708 0.21768
#
# Static dielectric constant tensor:
#      x y z
#    x 2.740120 0.000000 -0.378290 
#    y 0.000000 2.192320 0.000000 
#    z -0.378290 0.000000 2.369330 
# 
# From -- ./inp_files/93530.got.cif
#   From: 2010.05.17/outbox.cif.g08.bks.cpg/sg15_47_cif.got.tgz:93530.got - 2010.06.03 18:47:42.
