data_PCOD9278115
_publ_section_title
;
Structure prediction by ZEFSAII (Michael W. Deem and Ramdas Pophale) SiO2 
 PCOD9278115
Probable space group: C 2/C
;
_chemical_formula_sum "Si O2"
_cell_formula_units_Z 44
_cell_length_a 7.776146
_cell_length_b 26.363025
_cell_length_c 16.433351
_cell_angle_alpha 90.000000
_cell_angle_beta 41.787564
_cell_angle_gamma 90.000000
_cell_volume 2244.923981
_symmetry_space_group_name_H-M "C 2/C"
_symmetry_group_IT_number 15
_symmetry_cell_setting 'monoclinic'
loop_
_space_group_symop_operation_xyz
x,y,z
-x,y,1/2-z
-x,-y,-z
x,-y,1/2+z
1/2+x,1/2+y,z
1/2-x,1/2+y,1/2-z
1/2-x,1/2-y,-z
1/2+x,1/2-y,1/2+z
loop_
_atom_site_type_symbol
_atom_site_label
_atom_site_fract_x
_atom_site_fract_y
_atom_site_fract_z
Si Si1 0.474486 0.118014 0.039372
Si Si2 0.103856 0.034667 0.120792
Si Si3 0.267723 0.374487 0.701223
Si Si4 0.008378 0.079137 0.845812
Si Si5 0.500000 0.867053 0.250000
Si Si6 0.246511 0.190209 0.988791
O O1 0.376383 0.064562 0.033038
O O2 0.298393 0.128003 0.179836
O O3 0.421442 0.162117 0.994456
O O4 0.771374 0.113798 0.958675
O O5 0.000000 0.031828 0.250000
O O6 0.923537 0.073102 0.134658
O O7 0.071369 0.977973 0.100223
O O8 0.458470 0.330588 0.605629
O O9 0.000000 0.374417 0.750000
O O10 0.281813 0.098090 0.783453
O O11 0.000000 0.081830 0.750000
O O12 0.645115 0.831156 0.134214
O O13 0.250000 0.250000 0.000000
#
# Coordination Sequence:
#
# PCOD9278115 Si02
#       6
#     8   8   8   8   4   8
#     4  10  20  42  66  91 131 174 215 267 317 378
#     4   8  18  34  64  92 130 176 206 255 321 377
#     4  10  21  41  63  97 126 167 226 261 306 393
#     4  11  21  40  62  99 141 170 207 263 326 381
#     4  12  26  42  66 102 130 168 216 264 326 394
#     4  11  25  45  67  91 127 169 217 276 326 378
#
# _framework density 19.599772999999999
#
# number of rings (size 3 to 8) (size 9 to 14) (size 15 to 20)
#    0.000    1.818    1.818    3.273    3.818    0.000 
#    3.273    6.364    0.000    0.000    0.000    0.000 
#    0.000    0.000    0.000    0.000    0.000    0.000 
#
# Total GULP energy -122820.074180 kJ/mol
# GULP energy per Si atom -5582.730645 kJ/mol
# Density = 1.955516 g / cm^3
# Si number density = 19.599773 Si / 1000 Ang^3
#
#
#
# Elastic Constant Matrix: (Units=GPa)
#
#
# Indices 1 2 3 4 5 6 
#
# 1 132.1036 69.3220 44.3242 0.0000 -29.4251 0.0000
# 2 69.3220 124.5705 35.6933 0.0000 -3.5906 0.0000
# 3 44.3242 35.6933 94.0339 0.0000 -7.8533 0.0000
# 4 0.0000 0.0000 0.0000 18.2436 0.0000 4.0607
# 5 -29.4251 -3.5906 -7.8533 0.0000 41.9267 0.0000
# 6 0.0000 0.0000 0.0000 4.0607 0.0000 3.4555
#
#
#
# Elastic Compliance Matrix: (Units=1/GPa)
#
#
# Indices 1 2 3 4 5 6 
#
# 1 0.014142 -0.006639 -0.003418 0.000000 0.008717 0.000000
# 2 -0.006639 0.012125 -0.001803 0.000000 -0.003959 0.000000
# 3 -0.003418 -0.001803 0.012919 0.000000 -0.000133 0.000000
# 4 0.000000 0.000000 0.000000 0.074230 0.000000 -0.087232
# 5 0.008717 -0.003959 -0.000133 0.000000 0.029605 0.000000
# 6 0.000000 0.000000 0.000000 -0.087232 0.000000 0.391909
#
#
# Mechanical properties :
#
#
# Convention : Reuss Voigt Hill
#
# Bulk Modulus (GPa) = 64.66425 72.15411 68.40918
# Shear Modulus (GPa) = 8.86830 26.14973 17.50902
#
# Velocity S-wave (km/s) = 2.12944 3.65661 2.99210
# Velocity P-wave (km/s) = 6.25380 7.39739 6.84950
#
# Compressibility (1/GPa) = 0.01546450
#
# Stress axis : x y z
#
# Youngs Moduli (GPa) = 70.71023 82.47457 77.40543
#
# Poissons Ratio (x) = 0.54758 0.26457
# Poissons Ratio (y) = 0.46947 0.13960
# Poissons Ratio (z) = 0.24169 0.14874
#
# Static dielectric constant tensor:
#      x y z
#    x 1.701220 0.000000 0.016410 
#    y 0.000000 1.669410 0.000000 
#    z 0.016410 0.000000 1.711270 
# 
# From -- ./inp_files/193150.got.cif
#   From: 2010.05.17/outbox.cif.g08.bks.cpg/sg15_97_cif.got.tgz:193150.got - 2010.06.03 18:47:42.
