data_PCOD9278058
_publ_section_title
;
Structure prediction by ZEFSAII (Michael W. Deem and Ramdas Pophale) SiO2 
 PCOD9278058
Probable space group: C 2/C
;
_chemical_formula_sum "Si O2"
_cell_formula_units_Z 48
_cell_length_a 10.987032
_cell_length_b 8.675658
_cell_length_c 22.926447
_cell_angle_alpha 90.000000
_cell_angle_beta 103.805421
_cell_angle_gamma 90.000000
_cell_volume 2122.211962
_symmetry_space_group_name_H-M "C 2/C"
_symmetry_group_IT_number 15
_symmetry_cell_setting 'monoclinic'
loop_
_space_group_symop_operation_xyz
x,y,z
-x,y,1/2-z
-x,-y,-z
x,-y,1/2+z
1/2+x,1/2+y,z
1/2-x,1/2+y,1/2-z
1/2-x,1/2-y,-z
1/2+x,1/2-y,1/2+z
loop_
_atom_site_type_symbol
_atom_site_label
_atom_site_fract_x
_atom_site_fract_y
_atom_site_fract_z
Si Si1 0.130633 0.337489 0.241511
Si Si2 0.202159 0.079723 0.420445
Si Si3 0.976094 0.399895 0.939301
Si Si4 0.110688 0.876399 0.502405
Si Si5 0.456975 0.779582 0.390927
Si Si6 0.641786 0.485475 0.788271
O O1 0.099052 0.244801 0.178224
O O2 0.250057 0.440638 0.239611
O O3 0.000000 0.411840 0.250000
O O4 0.159860 0.199719 0.289129
O O5 0.334282 0.160226 0.425586
O O6 0.090618 0.200195 0.415381
O O7 0.213216 0.975461 0.479969
O O8 0.167091 0.977590 0.359324
O O9 0.975917 0.535489 0.892046
O O10 0.065839 0.255068 0.952098
O O11 0.000000 0.500000 0.000000
O O12 0.126974 0.788869 0.565862
O O13 0.000000 0.000000 0.500000
O O14 0.500000 0.521419 0.750000
#
# Coordination Sequence:
#
# PCOD9278058 Si02
#       6
#     8   8   8   8   8   8
#     4  11  23  46  66  95 135 178 226 282 338 398
#     4  11  21  43  66  91 135 171 217 281 331 400
#     4  10  22  39  63  96 130 166 218 265 330 398
#     4   9  22  39  65  97 131 167 217 260 340 393
#     4  10  20  42  65  92 132 175 213 273 338 395
#     4  11  24  44  70  95 131 175 229 280 334 393
#
# _framework density 22.617909000000001
#
# number of rings (size 3 to 8) (size 9 to 14) (size 15 to 20)
#    0.000    1.667    5.000    0.000    0.000   10.667 
#    3.000    3.333    0.000    0.000    0.000    0.000 
#    0.000    0.000    0.000    0.000    0.000    0.000 
#
# Total GULP energy -133858.304270 kJ/mol
# GULP energy per Si atom -5577.429345 kJ/mol
# Density = 2.256643 g / cm^3
# Si number density = 22.617909 Si / 1000 Ang^3
#
#
#
# Elastic Constant Matrix: (Units=GPa)
#
#
# Indices 1 2 3 4 5 6 
#
# 1 127.4008 19.9866 -4.6884 0.0000 -5.2116 0.0000
# 2 19.9866 66.2892 -14.0129 0.0000 -10.3326 0.0000
# 3 -4.6884 -14.0129 63.5775 0.0000 -15.1222 0.0000
# 4 0.0000 0.0000 0.0000 21.4756 0.0000 -3.7132
# 5 -5.2116 -10.3326 -15.1222 0.0000 32.0294 0.0000
# 6 0.0000 0.0000 0.0000 -3.7132 0.0000 36.8660
#
#
#
# Elastic Compliance Matrix: (Units=1/GPa)
#
#
# Indices 1 2 3 4 5 6 
#
# 1 0.008252 -0.002319 0.000269 0.000000 0.000722 0.000000
# 2 -0.002319 0.018309 0.005835 0.000000 0.008284 0.000000
# 3 0.000269 0.005835 0.019706 0.000000 0.011230 0.000000
# 4 0.000000 0.000000 0.000000 0.047390 0.000000 0.004773
# 5 0.000722 0.008284 0.011230 0.000000 0.039313 0.000000
# 6 0.000000 0.000000 0.000000 0.004773 0.000000 0.027606
#
#
# Mechanical properties :
#
#
# Convention : Reuss Voigt Hill
#
# Bulk Modulus (GPa) = 18.57422 28.87091 23.72257
# Shear Modulus (GPa) = 29.24799 35.13967 32.19383
#
# Velocity S-wave (km/s) = 3.59992 3.94588 3.77686
# Velocity P-wave (km/s) = 5.05067 5.79243 5.43422
#
# Compressibility (1/GPa) = 0.05383807
#
# Stress axis : x y z
#
# Youngs Moduli (GPa) = 121.17621 54.61736 50.74642
#
# Poissons Ratio (x) = 0.12664 -0.01366
# Poissons Ratio (y) = 0.28098 -0.29610
# Poissons Ratio (z) = -0.03262 -0.31868
#
# Static dielectric constant tensor:
#      x y z
#    x 1.878170 0.000000 -0.059280 
#    y 0.000000 1.951680 0.000000 
#    z -0.059280 0.000000 2.004200 
# 
# From -- ./inp_files/267642.got.cif
#   From: 2010.05.17/outbox.cif.g08.bks.cpg/sg15_134_cif.got.tgz:267642.got - 2010.06.03 18:47:42.
