data_PCOD9278461
_publ_section_title
;
Structure prediction by ZEFSAII (Michael W. Deem and Ramdas Pophale) SiO2 
 PCOD9278461
Probable space group: C 2/C
;
_chemical_formula_sum "Si O2"
_cell_formula_units_Z 44
_cell_length_a 19.322210
_cell_length_b 11.088652
_cell_length_c 30.799144
_cell_angle_alpha 90.000000
_cell_angle_beta 159.904631
_cell_angle_gamma 90.000000
_cell_volume 2267.288913
_symmetry_space_group_name_H-M "C 2/C"
_symmetry_group_IT_number 15
_symmetry_cell_setting 'monoclinic'
loop_
_space_group_symop_operation_xyz
x,y,z
-x,y,1/2-z
-x,-y,-z
x,-y,1/2+z
1/2+x,1/2+y,z
1/2-x,1/2+y,1/2-z
1/2-x,1/2-y,-z
1/2+x,1/2-y,1/2+z
loop_
_atom_site_type_symbol
_atom_site_label
_atom_site_fract_x
_atom_site_fract_y
_atom_site_fract_z
Si Si1 0.080542 0.460315 0.001449
Si Si2 0.157377 0.626905 0.405724
Si Si3 0.552089 0.230727 0.137647
Si Si4 0.000000 0.168787 0.750000
Si Si5 0.609107 0.149141 0.859083
Si Si6 0.001527 0.308310 0.395250
O O1 0.308069 0.415582 0.141554
O O2 0.059045 0.569225 0.954495
O O3 0.000000 0.500000 0.000000
O O4 0.959929 0.342410 0.914143
O O5 0.394769 0.658389 0.546223
O O6 0.127258 0.495841 0.368409
O O7 0.050921 0.637629 0.389433
O O8 0.051660 0.738085 0.318766
O O9 0.779422 0.268991 0.279787
O O10 0.500000 0.188969 0.750000
O O11 0.504431 0.177687 0.844225
O O12 0.827975 0.210926 0.991886
#
# Coordination Sequence:
#
# PCOD9278461 Si02
#       6
#     8   8   8   4   8   8
#     4  11  24  40  64  95 128 168 216 262 315 383
#     4  10  20  43  66  92 126 166 213 265 315 379
#     4  10  23  41  65  93 126 171 213 263 318 378
#     4  10  22  40  66  92 124 166 214 260 314 372
#     4  11  25  44  66  93 132 169 213 267 326 380
#     4  11  26  43  65  97 131 170 214 266 324 380
#
# _framework density 19.406437
#
# number of rings (size 3 to 8) (size 9 to 14) (size 15 to 20)
#    0.000    1.455    2.727    1.091    6.364    1.455 
#    0.000    1.818    0.000    0.000    0.000    0.000 
#    0.000    0.000    0.000    0.000    0.000    0.000 
#
# Total GULP energy -122728.728468 kJ/mol
# GULP energy per Si atom -5578.578567 kJ/mol
# Density = 1.936227 g / cm^3
# Si number density = 19.406437 Si / 1000 Ang^3
#
#
#
# Elastic Constant Matrix: (Units=GPa)
#
#
# Indices 1 2 3 4 5 6 
#
# 1 108.1752 45.0446 42.6051 -0.0017 -16.5263 0.0042
# 2 45.0446 93.6545 66.7598 0.0063 9.1777 0.0021
# 3 42.6051 66.7598 125.8350 0.0203 -3.8459 0.0133
# 4 -0.0017 0.0063 0.0203 19.5739 -0.0094 -8.4413
# 5 -16.5263 9.1777 -3.8459 -0.0094 19.3047 -0.0038
# 6 0.0042 0.0021 0.0133 -8.4413 -0.0038 20.2314
#
#
#
# Elastic Compliance Matrix: (Units=1/GPa)
#
#
# Indices 1 2 3 4 5 6 
#
# 1 0.015959 -0.009679 0.000292 0.000016 0.018321 0.000008
# 2 -0.009679 0.025221 -0.010789 -0.000009 -0.022426 -0.000002
# 3 0.000292 -0.010789 0.013821 -0.000012 0.008132 -0.000011
# 4 0.000016 -0.000009 -0.000012 0.062298 0.000052 0.025993
# 5 0.018321 -0.022426 0.008132 0.000052 0.079767 0.000030
# 6 0.000008 -0.000002 -0.000011 0.025993 0.000030 0.060273
#
#
# Mechanical properties :
#
#
# Convention : Reuss Voigt Hill
#
# Bulk Modulus (GPa) = 68.26868 70.72041 69.49455
# Shear Modulus (GPa) = 16.52492 23.37237 19.94865
#
# Velocity S-wave (km/s) = 2.92124 3.47416 3.20963
# Velocity P-wave (km/s) = 6.82883 7.25354 7.04439
#
# Compressibility (1/GPa) = 0.01464800
#
# Stress axis : x y z
#
# Youngs Moduli (GPa) = 62.66152 39.64947 72.35574
#
# Poissons Ratio (x) = 0.38376 -0.02110
# Poissons Ratio (y) = 0.60650 0.78064
# Poissons Ratio (z) = -0.01827 0.42778
#
# Static dielectric constant tensor:
#      x y z
#    x 1.824140 0.000000 -0.033300 
#    y 0.000000 1.657310 0.000000 
#    z -0.033300 0.000000 1.684770 
# 
# From -- ./inp_files/104101.got.cif
#   From: 2010.05.17/outbox.cif.g08.bks.cpg/sg15_53_cif.got.tgz:104101.got - 2010.06.03 18:47:42.
