data_PCOD9278903
_publ_section_title
;
Structure prediction by ZEFSAII (Michael W. Deem and Ramdas Pophale) SiO2 
 PCOD9278903
Probable space group: C 2/C
;
_chemical_formula_sum "Si O2"
_cell_formula_units_Z 56
_cell_length_a 18.969077
_cell_length_b 18.201705
_cell_length_c 14.037626
_cell_angle_alpha 90.000000
_cell_angle_beta 28.402485
_cell_angle_gamma 90.000000
_cell_volume 2305.423548
_symmetry_space_group_name_H-M "C 2/C"
_symmetry_group_IT_number 15
_symmetry_cell_setting 'monoclinic'
loop_
_space_group_symop_operation_xyz
x,y,z
-x,y,1/2-z
-x,-y,-z
x,-y,1/2+z
1/2+x,1/2+y,z
1/2-x,1/2+y,1/2-z
1/2-x,1/2-y,-z
1/2+x,1/2-y,1/2+z
loop_
_atom_site_type_symbol
_atom_site_label
_atom_site_fract_x
_atom_site_fract_y
_atom_site_fract_z
Si Si1 0.072737 0.522104 0.569665
Si Si2 0.518575 0.898378 0.934270
Si Si3 0.617276 0.571598 0.321467
Si Si4 0.688739 0.619810 0.877951
Si Si5 0.662483 0.323981 0.600888
Si Si6 0.970346 0.845737 0.389670
Si Si7 0.310529 0.253411 0.260491
O O1 0.963494 0.452972 0.676275
O O2 0.253070 0.515692 0.363439
O O3 0.000000 0.557422 0.750000
O O4 0.065350 0.567797 0.479974
O O5 0.341527 0.896782 0.146379
O O6 0.590570 0.819168 0.844564
O O7 0.446160 0.565485 0.488634
O O8 0.662215 0.643024 0.205958
O O9 0.598888 0.597221 0.452448
O O10 0.661233 0.703798 0.872967
O O11 0.721566 0.619815 0.951076
O O12 0.500000 0.311509 0.750000
O O13 0.750000 0.250000 0.500000
O O14 0.854326 0.777159 0.526824
O O15 0.000000 0.876152 0.250000
O O16 0.126094 0.813848 0.242284
#
# Coordination Sequence:
#
# PCOD9278903 Si02
#       7
#     8   8   8   8   8   8   8
#     4  11  25  46  69  91 126 181 225 272 322 385
#     4  11  24  43  67  95 132 168 226 268 319 395
#     4  10  22  42  61  92 134 165 224 268 320 393
#     4  10  22  39  65 100 133 170 207 272 340 394
#     4  10  21  32  57  95 132 165 204 254 329 392
#     4  11  22  38  62  95 131 173 215 267 333 384
#     4  11  21  40  64  97 135 166 212 271 326 402
#
# _framework density 24.290548999999999
#
# number of rings (size 3 to 8) (size 9 to 14) (size 15 to 20)
#    0.000    1.429    2.857    2.143    4.000    1.714 
#    5.143    0.000    0.000    0.857    0.000    0.000 
#    0.000    0.000    0.000    0.000    0.000    0.000 
#
# Total GULP energy -156253.619998 kJ/mol
# GULP energy per Si atom -5580.486428 kJ/mol
# Density = 2.423526 g / cm^3
# Si number density = 24.290549 Si / 1000 Ang^3
#
#
#
# Elastic Constant Matrix: (Units=GPa)
#
#
# Indices 1 2 3 4 5 6 
#
# 1 91.0330 26.3817 38.0858 0.0005 22.4602 -0.0001
# 2 26.3817 62.2777 13.8541 0.0000 -2.1544 0.0003
# 3 38.0858 13.8541 70.1634 0.0000 14.0449 0.0007
# 4 0.0005 0.0000 0.0000 31.8171 -0.0005 -8.2154
# 5 22.4602 -2.1544 14.0449 -0.0005 46.8923 -0.0001
# 6 -0.0001 0.0003 0.0007 -8.2154 -0.0001 9.1037
#
#
#
# Elastic Compliance Matrix: (Units=1/GPa)
#
#
# Indices 1 2 3 4 5 6 
#
# 1 0.017174 -0.005974 -0.006852 0.000000 -0.006448 0.000001
# 2 -0.005974 0.019030 -0.001343 0.000000 0.004138 0.000000
# 3 -0.006852 -0.001343 0.018714 0.000000 -0.002385 -0.000002
# 4 0.000000 0.000000 0.000000 0.040978 0.000001 0.036979
# 5 -0.006448 0.004138 -0.002385 0.000001 0.025318 0.000001
# 6 0.000001 0.000000 -0.000002 0.036979 0.000001 0.143216
#
#
# Mechanical properties :
#
#
# Convention : Reuss Voigt Hill
#
# Bulk Modulus (GPa) = 37.62211 42.23525 39.92868
# Shear Modulus (GPa) = 16.57671 27.23945 21.90808
#
# Velocity S-wave (km/s) = 2.61518 3.35237 3.00645
# Velocity P-wave (km/s) = 4.96396 5.69296 5.34091
#
# Compressibility (1/GPa) = 0.02658012
#
# Stress axis : x y z
#
# Youngs Moduli (GPa) = 58.22806 52.54958 53.43484
#
# Poissons Ratio (x) = 0.31393 0.36613
# Poissons Ratio (y) = 0.34785 0.07177
# Poissons Ratio (z) = 0.39897 0.07058
#
# Static dielectric constant tensor:
#      x y z
#    x 1.946480 0.000000 -0.033280 
#    y 0.000000 1.933520 0.000000 
#    z -0.033280 0.000000 1.998960 
# 
# From -- ./inp_files/169097.got.cif
#   From: 2010.05.17/outbox.cif.g08.bks.cpg/sg15_85_cif.got.tgz:169097.got - 2010.06.03 18:47:42.
