data_PCOD9278862
_publ_section_title
;
Structure prediction by ZEFSAII (Michael W. Deem and Ramdas Pophale) SiO2 
 PCOD9278862
Probable space group: C 2/C
;
_chemical_formula_sum "Si O2"
_cell_formula_units_Z 64
_cell_length_a 5.352179
_cell_length_b 21.312794
_cell_length_c 29.422288
_cell_angle_alpha 90.000000
_cell_angle_beta 98.092707
_cell_angle_gamma 90.000000
_cell_volume 3322.774706
_symmetry_space_group_name_H-M "C 2/C"
_symmetry_group_IT_number 15
_symmetry_cell_setting 'monoclinic'
loop_
_space_group_symop_operation_xyz
x,y,z
-x,y,1/2-z
-x,-y,-z
x,-y,1/2+z
1/2+x,1/2+y,z
1/2-x,1/2+y,1/2-z
1/2-x,1/2-y,-z
1/2+x,1/2-y,1/2+z
loop_
_atom_site_type_symbol
_atom_site_label
_atom_site_fract_x
_atom_site_fract_y
_atom_site_fract_z
Si Si1 0.630460 0.314020 0.859352
Si Si2 0.529237 0.467741 0.435965
Si Si3 0.616956 0.959671 0.799223
Si Si4 0.536046 0.271598 0.958735
Si Si5 0.416474 0.808463 0.697328
Si Si6 0.302853 0.848954 0.485400
Si Si7 0.311575 0.057128 0.501831
Si Si8 0.155172 0.035213 0.348485
O O1 0.626515 0.287696 0.910584
O O2 0.367275 0.294150 0.827663
O O3 0.645555 0.390631 0.861790
O O4 0.869683 0.293060 0.834838
O O5 0.691492 0.407566 0.455183
O O6 0.579822 0.532613 0.465599
O O7 0.259453 0.444434 0.446987
O O8 0.588537 0.489088 0.387629
O O9 0.500000 0.984870 0.750000
O O10 0.588047 0.884216 0.798870
O O11 0.429690 0.979678 0.835048
O O12 0.913517 0.972770 0.809542
O O13 0.351718 0.210800 0.955048
O O14 0.750000 0.250000 0.000000
O O15 0.376251 0.327055 0.978426
O O16 0.500000 0.785270 0.750000
O O17 0.564772 0.878483 0.510248
O O18 0.500000 0.000000 0.500000
#
# Coordination Sequence:
#
# PCOD9278862 Si02
#       8
#     8   8   8   8   8   8   8   8
#     4  10  22  34  57  89 119 153 197 236 294 365
#     4  10  21  35  54  85 111 151 194 242 287 331
#     4   9  18  34  52  82 120 151 176 226 301 365
#     4  11  25  39  57  79 119 164 205 245 292 349
#     4   9  18  36  58  84 118 149 184 244 309 361
#     4  10  23  39  55  75 114 161 200 238 290 336
#     4   9  20  34  54  76 111 150 187 242 280 332
#     4  10  21  31  57  86 116 150 189 237 283 359
#
# _framework density 19.261011
#
# number of rings (size 3 to 8) (size 9 to 14) (size 15 to 20)
#    0.000    2.250    0.000    1.500   14.000    4.000 
#    0.000    0.000    0.000    0.000    0.000    3.500 
#    0.000    0.000    0.000    0.000    0.000    0.000 
#
# Total GULP energy -178195.772608 kJ/mol
# GULP energy per Si atom -5568.617894 kJ/mol
# Density = 1.921717 g / cm^3
# Si number density = 19.261011 Si / 1000 Ang^3
#
#
#
# Elastic Constant Matrix: (Units=GPa)
#
#
# Indices 1 2 3 4 5 6 
#
# 1 82.8782 16.3316 14.8050 0.0000 -15.7184 0.0000
# 2 16.3316 63.9113 21.3120 0.0000 0.5123 0.0000
# 3 14.8050 21.3120 87.4855 0.0000 -11.1742 0.0000
# 4 0.0000 0.0000 0.0000 17.7582 0.0000 -5.7205
# 5 -15.7184 0.5123 -11.1742 0.0000 24.6228 0.0000
# 6 0.0000 0.0000 0.0000 -5.7205 0.0000 28.5181
#
#
#
# Elastic Compliance Matrix: (Units=1/GPa)
#
#
# Indices 1 2 3 4 5 6 
#
# 1 0.014610 -0.003674 -0.000400 0.000000 0.009222 0.000000
# 2 -0.003674 0.018086 -0.004386 0.000000 -0.004712 0.000000
# 3 -0.000400 -0.004386 0.013318 0.000000 0.005880 0.000000
# 4 0.000000 0.000000 0.000000 0.060202 0.000000 0.012076
# 5 0.009222 -0.004712 0.005880 0.000000 0.049266 0.000000
# 6 0.000000 0.000000 0.000000 0.012076 0.000000 0.037488
#
#
# Mechanical properties :
#
#
# Convention : Reuss Voigt Hill
#
# Bulk Modulus (GPa) = 34.37084 37.68581 36.02833
# Shear Modulus (GPa) = 22.77000 26.30158 24.53579
#
# Velocity S-wave (km/s) = 3.44202 3.69932 3.57299
# Velocity P-wave (km/s) = 5.80346 6.15264 5.98060
#
# Compressibility (1/GPa) = 0.02909443
#
# Stress axis : x y z
#
# Youngs Moduli (GPa) = 68.44509 55.29178 75.08895
#
# Poissons Ratio (x) = 0.20315 0.03000
# Poissons Ratio (y) = 0.25148 0.32934
# Poissons Ratio (z) = 0.02735 0.24251
#
# Static dielectric constant tensor:
#      x y z
#    x 1.838980 0.000000 0.036420 
#    y 0.000000 1.663350 0.000000 
#    z 0.036420 0.000000 1.718250 
# 
# From -- ./inp_files/261712.got.cif
#   From: 2010.05.17/outbox.cif.g08.bks.cpg/sg15_131_cif.got.tgz:261712.got - 2010.06.03 18:47:42.
