data_PCOD9278386
_publ_section_title
;
Structure prediction by ZEFSAII (Michael W. Deem and Ramdas Pophale) SiO2 
 PCOD9278386
Probable space group: C 2/C
;
_chemical_formula_sum "Si O2"
_cell_formula_units_Z 48
_cell_length_a 5.445291
_cell_length_b 22.962391
_cell_length_c 17.764591
_cell_angle_alpha 90.000000
_cell_angle_beta 60.558906
_cell_angle_gamma 90.000000
_cell_volume 1934.383170
_symmetry_space_group_name_H-M "C 2/C"
_symmetry_group_IT_number 15
_symmetry_cell_setting 'monoclinic'
loop_
_space_group_symop_operation_xyz
x,y,z
-x,y,1/2-z
-x,-y,-z
x,-y,1/2+z
1/2+x,1/2+y,z
1/2-x,1/2+y,1/2-z
1/2-x,1/2-y,-z
1/2+x,1/2-y,1/2+z
loop_
_atom_site_type_symbol
_atom_site_label
_atom_site_fract_x
_atom_site_fract_y
_atom_site_fract_z
Si Si1 0.842604 0.995619 0.441795
Si Si2 0.228390 0.869242 0.069030
Si Si3 0.808341 0.667811 0.714452
Si Si4 0.786556 0.116009 0.395675
Si Si5 0.997760 0.797118 0.980770
Si Si6 0.408572 0.791940 0.687957
O O1 0.909534 0.932217 0.398066
O O2 0.500000 0.000000 0.500000
O O3 0.903461 0.050490 0.377230
O O4 0.000000 0.000000 0.500000
O O5 0.397970 0.842530 0.114839
O O6 0.020916 0.822127 0.062150
O O7 0.459901 0.883180 0.970440
O O8 0.500000 0.641047 0.750000
O O9 0.739770 0.733444 0.755802
O O10 0.000000 0.641133 0.750000
O O11 0.944634 0.146035 0.440163
O O12 0.780185 0.164935 0.332462
O O13 0.191982 0.722107 0.096587
O O14 0.750000 0.750000 0.000000
O O15 0.500000 0.824806 0.750000
#
# Coordination Sequence:
#
# PCOD9278386 Si02
#       6
#     8   8   8   8   8   8
#     4  10  20  42  73 105 135 174 241 309 359 414
#     4  10  24  44  69 105 137 188 245 302 357 433
#     4  11  28  44  68  97 147 193 230 286 363 434
#     4  10  23  40  71 102 137 185 238 299 359 420
#     4  11  25  40  71 107 140 186 245 296 362 436
#     4  10  26  43  63 100 149 195 231 291 368 437
#
# _framework density 24.814111
#
# number of rings (size 3 to 8) (size 9 to 14) (size 15 to 20)
#    0.000    1.667    1.667    0.000   16.333    1.333 
#    0.000    3.333    3.667    0.000    0.000    0.000 
#    0.000    0.000    0.000    0.000    0.000    0.000 
#
# Total GULP energy -133778.627941 kJ/mol
# GULP energy per Si atom -5574.109498 kJ/mol
# Density = 2.475763 g / cm^3
# Si number density = 24.814111 Si / 1000 Ang^3
#
#
#
# Elastic Constant Matrix: (Units=GPa)
#
#
# Indices 1 2 3 4 5 6 
#
# 1 155.6648 56.6069 43.0576 0.0000 46.5711 0.0000
# 2 56.6069 195.1363 69.2379 0.0000 22.8559 0.0000
# 3 43.0576 69.2379 107.2200 0.0000 30.1329 0.0000
# 4 0.0000 0.0000 0.0000 26.8087 0.0000 11.4636
# 5 46.5711 22.8559 30.1329 0.0000 59.0909 0.0000
# 6 0.0000 0.0000 0.0000 11.4636 0.0000 26.6927
#
#
#
# Elastic Compliance Matrix: (Units=1/GPa)
#
#
# Indices 1 2 3 4 5 6 
#
# 1 0.009072 -0.001600 -0.000904 0.000000 -0.006070 0.000000
# 2 -0.001600 0.006940 -0.004014 0.000000 0.000624 0.000000
# 3 -0.000904 -0.004014 0.013593 0.000000 -0.004667 0.000000
# 4 0.000000 0.000000 0.000000 0.045692 0.000000 -0.019623
# 5 -0.006070 0.000624 -0.004667 0.000000 0.023845 0.000000
# 6 0.000000 0.000000 0.000000 -0.019623 0.000000 0.045891
#
#
# Mechanical properties :
#
#
# Convention : Reuss Voigt Hill
#
# Bulk Modulus (GPa) = 60.35459 88.42510 74.38984
# Shear Modulus (GPa) = 30.56347 41.79303 36.17825
#
# Velocity S-wave (km/s) = 3.51336 4.10841 3.82248
# Velocity P-wave (km/s) = 6.39013 7.63005 7.03745
#
# Compressibility (1/GPa) = 0.01656875
#
# Stress axis : x y z
#
# Youngs Moduli (GPa) = 110.23033 144.09087 73.56469
#
# Poissons Ratio (x) = 0.23053 0.06651
# Poissons Ratio (y) = 0.17636 0.29532
# Poissons Ratio (z) = 0.09966 0.57843
#
# Static dielectric constant tensor:
#      x y z
#    x 2.223590 0.000000 -0.105320 
#    y 0.000000 2.020970 0.000000 
#    z -0.105320 0.000000 2.365940 
# 
# From -- ./inp_files/185228.got.cif
#   From: 2010.05.17/outbox.cif.g08.bks.cpg/sg15_93_cif.got.tgz:185228.got - 2010.06.03 18:47:42.
