data_PCOD9278753
_publ_section_title
;
Structure prediction by ZEFSAII (Michael W. Deem and Ramdas Pophale) SiO2 
 PCOD9278753
Probable space group: C 2/C
;
_chemical_formula_sum "Si O2"
_cell_formula_units_Z 40
_cell_length_a 17.254903
_cell_length_b 18.990733
_cell_length_c 8.426325
_cell_angle_alpha 90.000000
_cell_angle_beta 140.693531
_cell_angle_gamma 90.000000
_cell_volume 1749.110718
_symmetry_space_group_name_H-M "C 2/C"
_symmetry_group_IT_number 15
_symmetry_cell_setting 'monoclinic'
loop_
_space_group_symop_operation_xyz
x,y,z
-x,y,1/2-z
-x,-y,-z
x,-y,1/2+z
1/2+x,1/2+y,z
1/2-x,1/2+y,1/2-z
1/2-x,1/2-y,-z
1/2+x,1/2-y,1/2+z
loop_
_atom_site_type_symbol
_atom_site_label
_atom_site_fract_x
_atom_site_fract_y
_atom_site_fract_z
Si Si1 0.500000 0.213198 0.250000
Si Si2 0.500000 0.079510 0.750000
Si Si3 0.718048 0.782373 0.280348
Si Si4 0.360985 0.431994 0.972660
Si Si5 0.834282 0.326806 0.756071
Si Si6 0.736145 0.062350 0.941308
O O1 0.583502 0.246404 0.518069
O O2 0.602292 0.173026 0.312565
O O3 0.421058 0.129355 0.510382
O O4 0.604463 0.041389 0.811105
O O5 0.750000 0.750000 0.500000
O O6 0.809497 0.749532 0.294322
O O7 0.717994 0.865770 0.313338
O O8 0.293886 0.366945 0.951027
O O9 0.290069 0.501599 0.918150
O O10 0.330867 0.425047 0.737524
O O11 0.500000 0.435782 0.250000
#
# Coordination Sequence:
#
# PCOD9278753 Si02
#       6
#     4   4   8   8   8   8
#     4  12  26  45  72 112 145 184 258 310 364 445
#     4  10  20  45  70 108 137 190 242 306 356 441
#     4  12  24  48  71 109 147 200 240 305 374 437
#     4  11  26  47  71 109 146 196 244 303 372 447
#     4  11  24  45  75 105 148 185 251 299 372 433
#     4  11  25  46  74 102 149 188 248 303 367 440
#
# _framework density 22.868763000000001
#
# number of rings (size 3 to 8) (size 9 to 14) (size 15 to 20)
#    0.000    0.800    6.000    1.200    4.200    4.000 
#    5.400    0.000    0.000    0.000    0.000    0.000 
#    0.000    0.000    0.000    0.000    0.000    0.000 
#
# Total GULP energy -111775.837349 kJ/mol
# GULP energy per Si atom -5588.791867 kJ/mol
# Density = 2.281671 g / cm^3
# Si number density = 22.868763 Si / 1000 Ang^3
#
#
#
# Elastic Constant Matrix: (Units=GPa)
#
#
# Indices 1 2 3 4 5 6 
#
# 1 119.8960 64.8092 39.7154 0.0000 3.7574 0.0000
# 2 64.8092 89.2012 30.0225 0.0000 8.4005 0.0000
# 3 39.7154 30.0225 170.0446 0.0000 13.6574 0.0000
# 4 0.0000 0.0000 0.0000 16.9625 0.0000 -3.5410
# 5 3.7574 8.4005 13.6574 0.0000 35.3584 0.0000
# 6 0.0000 0.0000 0.0000 -3.5410 0.0000 42.7380
#
#
#
# Elastic Compliance Matrix: (Units=1/GPa)
#
#
# Indices 1 2 3 4 5 6 
#
# 1 0.014198 -0.009888 -0.001690 0.000000 0.001493 0.000000
# 2 -0.009888 0.018955 -0.000784 0.000000 -0.003150 0.000000
# 3 -0.001690 -0.000784 0.006589 0.000000 -0.002179 0.000000
# 4 0.000000 0.000000 0.000000 0.059991 0.000000 0.004971
# 5 0.001493 -0.003150 -0.002179 0.000000 0.029713 0.000000
# 6 0.000000 0.000000 0.000000 0.004971 0.000000 0.023810
#
#
# Mechanical properties :
#
#
# Convention : Reuss Voigt Hill
#
# Bulk Modulus (GPa) = 66.58672 72.02621 69.30646
# Shear Modulus (GPa) = 27.32428 35.31809 31.32119
#
# Velocity S-wave (km/s) = 3.46038 3.93413 3.70483
# Velocity P-wave (km/s) = 6.71906 7.22498 6.97660
#
# Compressibility (1/GPa) = 0.01501801
#
# Stress axis : x y z
#
# Youngs Moduli (GPa) = 70.43080 52.75652 151.76556
#
# Poissons Ratio (x) = 0.52163 0.25654
# Poissons Ratio (y) = 0.69638 0.11904
# Poissons Ratio (z) = 0.11905 0.04138
#
# Static dielectric constant tensor:
#      x y z
#    x 1.880980 0.000000 -0.019340 
#    y 0.000000 1.877500 0.000000 
#    z -0.019340 0.000000 1.940440 
# 
# From -- ./inp_files/50494.got.cif
#   From: 2010.05.17/outbox.cif.g08.bks.cpg/sg15_26_cif.got.tgz:50494.got - 2010.06.03 18:47:42.
