data_PCOD9278382
_publ_section_title
;
Structure prediction by ZEFSAII (Michael W. Deem and Ramdas Pophale) SiO2 
 PCOD9278382
Probable space group: C 2/C
;
_chemical_formula_sum "Si O2"
_cell_formula_units_Z 48
_cell_length_a 22.679246
_cell_length_b 6.726789
_cell_length_c 18.553550
_cell_angle_alpha 90.000000
_cell_angle_beta 144.699397
_cell_angle_gamma 90.000000
_cell_volume 1635.651360
_symmetry_space_group_name_H-M "C 2/C"
_symmetry_group_IT_number 15
_symmetry_cell_setting 'monoclinic'
loop_
_space_group_symop_operation_xyz
x,y,z
-x,y,1/2-z
-x,-y,-z
x,-y,1/2+z
1/2+x,1/2+y,z
1/2-x,1/2+y,1/2-z
1/2-x,1/2-y,-z
1/2+x,1/2-y,1/2+z
loop_
_atom_site_type_symbol
_atom_site_label
_atom_site_fract_x
_atom_site_fract_y
_atom_site_fract_z
Si Si1 0.474981 0.483321 0.367964
Si Si2 0.884758 0.343928 0.699126
Si Si3 0.879336 0.250125 0.130782
Si Si4 0.190283 0.024797 0.073208
Si Si5 0.226654 0.132779 0.322091
Si Si6 0.961356 0.438707 0.039452
O O1 0.321354 0.682007 0.145752
O O2 0.584643 0.382318 0.496119
O O3 0.365871 0.497801 0.300732
O O4 0.511976 0.707649 0.419698
O O5 0.868189 0.505196 0.618850
O O6 0.774081 0.326119 0.625441
O O7 0.939855 0.131273 0.759153
O O8 0.962868 0.456951 0.829372
O O9 0.000000 0.230480 0.250000
O O10 0.843607 0.106621 0.030904
O O11 0.251751 0.861584 0.182599
O O12 0.339607 0.043662 0.428504
O O13 0.000000 0.500000 0.000000
#
# Coordination Sequence:
#
# PCOD9278382 Si02
#       6
#     8   8   8   8   8   8
#     4  11  23  45  72 105 146 194 252 318 369 460
#     4  11  24  42  69 105 148 191 249 313 370 457
#     4  11  19  43  74 108 156 205 237 299 385 458
#     4  10  21  42  74 104 156 199 239 304 383 457
#     4  10  20  42  72  98 147 192 243 319 367 450
#     4  11  25  49  73  99 137 196 255 324 395 432
#
# _framework density 29.346108000000001
#
# number of rings (size 3 to 8) (size 9 to 14) (size 15 to 20)
#    0.000    1.333    5.000    3.000    2.333    0.667 
#    6.000    1.667    0.000    0.000    0.000    0.000 
#    0.000    0.000    0.000    0.000    0.000    0.000 
#
# Total GULP energy -133777.617965 kJ/mol
# GULP energy per Si atom -5574.067415 kJ/mol
# Density = 2.927931 g / cm^3
# Si number density = 29.346108 Si / 1000 Ang^3
#
#
#
# Elastic Constant Matrix: (Units=GPa)
#
#
# Indices 1 2 3 4 5 6 
#
# 1 215.8115 53.2916 105.3790 0.0000 48.5624 0.0000
# 2 53.2916 127.7065 42.2666 0.0000 16.7335 0.0000
# 3 105.3790 42.2666 143.5370 0.0000 68.4586 0.0000
# 4 0.0000 0.0000 0.0000 45.3936 0.0000 33.9100
# 5 48.5624 16.7335 68.4586 0.0000 92.7820 0.0000
# 6 0.0000 0.0000 0.0000 33.9100 0.0000 27.5615
#
#
#
# Elastic Compliance Matrix: (Units=1/GPa)
#
#
# Indices 1 2 3 4 5 6 
#
# 1 0.007455 -0.001436 -0.005112 0.000000 0.000129 0.000000
# 2 -0.001436 0.008967 -0.001811 0.000000 0.000470 0.000000
# 3 -0.005112 -0.001811 0.015154 0.000000 -0.008179 0.000000
# 4 0.000000 0.000000 0.000000 0.272283 0.000000 -0.335002
# 5 0.000129 0.000470 -0.008179 0.000000 0.016661 0.000000
# 6 0.000000 0.000000 0.000000 -0.335002 0.000000 0.448449
#
#
# Mechanical properties :
#
#
# Convention : Reuss Voigt Hill
#
# Bulk Modulus (GPa) = 67.29689 98.76993 83.03341
# Shear Modulus (GPa) = 6.32399 52.22194 29.27296
#
# Velocity S-wave (km/s) = 1.46957 4.22301 3.16176
# Velocity P-wave (km/s) = 5.08541 7.58343 6.45639
#
# Compressibility (1/GPa) = 0.01485953
#
# Stress axis : x y z
#
# Youngs Moduli (GPa) = 134.12918 111.51571 65.98965
#
# Poissons Ratio (x) = 0.16015 0.33734
# Poissons Ratio (y) = 0.19263 0.11947
# Poissons Ratio (z) = 0.68567 0.20190
#
# Static dielectric constant tensor:
#      x y z
#    x 2.356110 0.000000 -0.029800 
#    y 0.000000 2.535230 0.000000 
#    z -0.029800 0.000000 2.476780 
# 
# From -- ./inp_files/214900.got.cif
#   From: 2010.05.17/outbox.cif.g08.bks.cpg/sg15_108_cif.got.tgz:214900.got - 2010.06.03 18:47:42.
