data_PCOD9278213
_publ_section_title
;
Structure prediction by ZEFSAII (Michael W. Deem and Ramdas Pophale) SiO2 
 PCOD9278213
Probable space group: C 2/C
;
_chemical_formula_sum "Si O2"
_cell_formula_units_Z 36
_cell_length_a 30.681340
_cell_length_b 11.031863
_cell_length_c 14.535594
_cell_angle_alpha 90.000000
_cell_angle_beta 162.172516
_cell_angle_gamma 90.000000
_cell_volume 1506.236122
_symmetry_space_group_name_H-M "C 2/C"
_symmetry_group_IT_number 15
_symmetry_cell_setting 'monoclinic'
loop_
_space_group_symop_operation_xyz
x,y,z
-x,y,1/2-z
-x,-y,-z
x,-y,1/2+z
1/2+x,1/2+y,z
1/2-x,1/2+y,1/2-z
1/2-x,1/2-y,-z
1/2+x,1/2-y,1/2+z
loop_
_atom_site_type_symbol
_atom_site_label
_atom_site_fract_x
_atom_site_fract_y
_atom_site_fract_z
Si Si1 0.460211 0.291931 0.277142
Si Si2 0.593257 0.926564 0.115527
Si Si3 0.101183 0.068570 0.331882
Si Si4 0.000000 0.427461 0.250000
Si Si5 0.337741 0.703967 0.863592
O O1 0.500000 0.275162 0.250000
O O2 0.562416 0.215588 0.547091
O O3 0.460512 0.434071 0.295024
O O4 0.304989 0.231077 0.976868
O O5 0.532232 0.986767 0.899613
O O6 0.500000 0.000000 0.000000
O O7 0.763450 0.935705 0.462846
O O8 0.167245 0.102520 0.566145
O O9 0.969519 0.163131 0.063776
O O10 0.128679 0.329514 0.514390
#
# Coordination Sequence:
#
# PCOD9278213 Si02
#       5
#     8   8   8   4   8
#     4  12  21  38  71  92 124 173 213 267 324 379
#     4  12  25  41  67  99 132 175 218 263 324 388
#     4  10  21  40  62  97 129 163 223 261 319 388
#     4  10  20  42  68  88 138 164 214 276 318 378
#     4  10  21  38  70  96 124 172 217 266 329 382
#
# _framework density 23.900635999999999
#
# number of rings (size 3 to 8) (size 9 to 14) (size 15 to 20)
#    0.000    1.333    7.778    0.000    0.000    0.889 
#    0.000    5.556    0.000    0.000    0.000    0.000 
#    0.000    0.000    0.000    0.000    0.000    0.000 
#
# Total GULP energy -100555.351597 kJ/mol
# GULP energy per Si atom -5586.408422 kJ/mol
# Density = 2.384624 g / cm^3
# Si number density = 23.900636 Si / 1000 Ang^3
#
#
#
# Elastic Constant Matrix: (Units=GPa)
#
#
# Indices 1 2 3 4 5 6 
#
# 1 66.6105 15.6130 34.0539 0.0000 22.4330 0.0000
# 2 15.6130 135.3141 26.3052 0.0000 -4.0231 0.0000
# 3 34.0539 26.3052 80.1879 0.0000 35.2073 0.0000
# 4 0.0000 0.0000 0.0000 38.6924 0.0000 4.1873
# 5 22.4330 -4.0231 35.2073 0.0000 27.7970 0.0000
# 6 0.0000 0.0000 0.0000 4.1873 0.0000 15.9013
#
#
#
# Elastic Compliance Matrix: (Units=1/GPa)
#
#
# Indices 1 2 3 4 5 6 
#
# 1 0.021829 -0.002832 -0.000961 0.000000 -0.016809 0.000000
# 2 -0.002832 0.009710 -0.008118 0.000000 0.013972 0.000000
# 3 -0.000961 -0.008118 0.035407 0.000000 -0.045246 0.000000
# 4 0.000000 0.000000 0.000000 0.026603 0.000000 -0.007005
# 5 -0.016809 0.013972 -0.045246 0.000000 0.108870 0.000000
# 6 0.000000 0.000000 0.000000 -0.007005 0.000000 0.064733
#
#
# Mechanical properties :
#
#
# Convention : Reuss Voigt Hill
#
# Bulk Modulus (GPa) = 23.18801 48.22850 35.70826
# Shear Modulus (GPa) = 16.37478 30.22082 23.29780
#
# Velocity S-wave (km/s) = 2.62032 3.55975 3.12553
# Velocity P-wave (km/s) = 4.34484 6.09248 5.29131
#
# Compressibility (1/GPa) = 0.04312573
#
# Stress axis : x y z
#
# Youngs Moduli (GPa) = 45.81160 102.98242 28.24272
#
# Poissons Ratio (x) = 0.29160 0.02715
# Poissons Ratio (y) = 0.12972 0.22926
# Poissons Ratio (z) = 0.04403 0.83596
#
# Static dielectric constant tensor:
#      x y z
#    x 1.868260 0.000000 0.167310 
#    y 0.000000 1.897560 0.000000 
#    z 0.167310 0.000000 1.747740 
# 
# From -- ./inp_files/181861.got.cif
#   From: 2010.05.17/outbox.cif.g08.bks.cpg/sg15_91_cif.got.tgz:181861.got - 2010.06.03 18:47:42.
