data_PCOD9278259
_publ_section_title
;
Structure prediction by ZEFSAII (Michael W. Deem and Ramdas Pophale) SiO2 
 PCOD9278259
Probable space group: C 2/C
;
_chemical_formula_sum "Si O2"
_cell_formula_units_Z 36
_cell_length_a 16.112583
_cell_length_b 11.618331
_cell_length_c 11.459283
_cell_angle_alpha 90.000000
_cell_angle_beta 118.431339
_cell_angle_gamma 90.000000
_cell_volume 1886.457545
_symmetry_space_group_name_H-M "C 2/C"
_symmetry_group_IT_number 15
_symmetry_cell_setting 'monoclinic'
loop_
_space_group_symop_operation_xyz
x,y,z
-x,y,1/2-z
-x,-y,-z
x,-y,1/2+z
1/2+x,1/2+y,z
1/2-x,1/2+y,1/2-z
1/2-x,1/2-y,-z
1/2+x,1/2-y,1/2+z
loop_
_atom_site_type_symbol
_atom_site_label
_atom_site_fract_x
_atom_site_fract_y
_atom_site_fract_z
Si Si1 0.508529 0.227821 0.388330
Si Si2 0.712754 0.153449 0.564458
Si Si3 0.812506 0.768225 0.363730
Si Si4 0.500000 0.454949 0.250000
Si Si5 0.308416 0.579466 0.089684
O O1 0.500000 0.179689 0.250000
O O2 0.601964 0.175991 0.506783
O O3 0.412670 0.213253 0.395031
O O4 0.517936 0.365587 0.368855
O O5 0.750000 0.250000 0.500000
O O6 0.770052 0.169898 0.722076
O O7 0.738511 0.029003 0.531345
O O8 0.739976 0.670878 0.357207
O O9 0.824543 0.857381 0.477497
O O10 0.407504 0.531062 0.202791
#
# Coordination Sequence:
#
# PCOD9278259 Si02
#       5
#     8   8   8   4   8
#     4  10  21  41  64 103 122 171 229 262 327 389
#     4  12  22  42  71  94 135 176 217 276 329 393
#     4  11  26  44  63 103 138 168 226 272 332 397
#     4  10  20  42  68  98 122 178 226 274 314 390
#     4  11  26  43  65 102 135 175 218 279 335 382
#
# _framework density 19.083387999999999
#
# number of rings (size 3 to 8) (size 9 to 14) (size 15 to 20)
#    0.667    0.444    6.667    0.000    6.222    1.778 
#    0.000    0.000    0.000    0.000    0.000    0.000 
#    0.000    0.000    0.000    0.000    0.000    0.000 
#
# Total GULP energy -100497.938062 kJ/mol
# GULP energy per Si atom -5583.218781 kJ/mol
# Density = 1.903995 g / cm^3
# Si number density = 19.083388 Si / 1000 Ang^3
#
#
#
# Elastic Constant Matrix: (Units=GPa)
#
#
# Indices 1 2 3 4 5 6 
#
# 1 142.7498 24.7949 49.5473 0.0000 20.6230 0.0000
# 2 24.7949 69.3193 12.3424 0.0000 5.1744 0.0000
# 3 49.5473 12.3424 39.0943 0.0000 14.2281 0.0000
# 4 0.0000 0.0000 0.0000 19.2225 0.0000 13.0034
# 5 20.6230 5.1744 14.2281 0.0000 44.5427 0.0000
# 6 0.0000 0.0000 0.0000 13.0034 0.0000 16.7592
#
#
#
# Elastic Compliance Matrix: (Units=1/GPa)
#
#
# Indices 1 2 3 4 5 6 
#
# 1 0.012736 -0.001773 -0.015288 0.000000 -0.000807 0.000000
# 2 -0.001773 0.015535 -0.002601 0.000000 -0.000153 0.000000
# 3 -0.015288 -0.002601 0.048758 0.000000 -0.008194 0.000000
# 4 0.000000 0.000000 0.000000 0.109491 0.000000 -0.084953
# 5 -0.000807 -0.000153 -0.008194 0.000000 0.025459 0.000000
# 6 0.000000 0.000000 0.000000 -0.084953 0.000000 0.125584
#
#
# Mechanical properties :
#
#
# Convention : Reuss Voigt Hill
#
# Bulk Modulus (GPa) = 26.52237 47.17027 36.84632
# Shear Modulus (GPa) = 12.83840 27.07015 19.95427
#
# Velocity S-wave (km/s) = 2.59656 3.77041 3.23714
# Velocity P-wave (km/s) = 4.78726 6.61259 5.77253
#
# Compressibility (1/GPa) = 0.03770402
#
# Stress axis : x y z
#
# Youngs Moduli (GPa) = 78.51602 64.37122 20.50932
#
# Poissons Ratio (x) = 0.11415 0.31355
# Poissons Ratio (y) = 0.13924 0.05335
# Poissons Ratio (z) = 1.20035 0.16746
#
# Static dielectric constant tensor:
#      x y z
#    x 1.677070 0.000000 0.000270 
#    y 0.000000 1.650430 0.000000 
#    z 0.000270 0.000000 1.652900 
# 
# From -- ./inp_files/94755.got.cif
#   From: 2010.05.17/outbox.cif.g08.bks.cpg/sg15_48_cif.got.tgz:94755.got - 2010.06.03 18:47:42.
