data_PCOD9278711
_publ_section_title
;
Structure prediction by ZEFSAII (Michael W. Deem and Ramdas Pophale) SiO2 
 PCOD9278711
Probable space group: C 2/C
;
_chemical_formula_sum "Si O2"
_cell_formula_units_Z 28
_cell_length_a 20.248873
_cell_length_b 11.756961
_cell_length_c 5.334257
_cell_angle_alpha 90.000000
_cell_angle_beta 56.162283
_cell_angle_gamma 90.000000
_cell_volume 1054.802752
_symmetry_space_group_name_H-M "C 2/C"
_symmetry_group_IT_number 15
_symmetry_cell_setting 'monoclinic'
loop_
_space_group_symop_operation_xyz
x,y,z
-x,y,1/2-z
-x,-y,-z
x,-y,1/2+z
1/2+x,1/2+y,z
1/2-x,1/2+y,1/2-z
1/2-x,1/2-y,-z
1/2+x,1/2-y,1/2+z
loop_
_atom_site_type_symbol
_atom_site_label
_atom_site_fract_x
_atom_site_fract_y
_atom_site_fract_z
Si Si1 0.705903 0.383178 0.046595
Si Si2 0.359919 0.364229 0.815823
Si Si3 0.000000 0.751495 0.250000
Si Si4 0.609100 0.932537 0.786345
O O1 0.665431 0.317477 0.361433
O O2 0.657018 0.501226 0.120719
O O3 0.695592 0.326675 0.798402
O O4 0.795895 0.412376 0.925949
O O5 0.446856 0.328753 0.545209
O O6 0.943257 0.670761 0.205524
O O7 0.592754 0.029759 0.607716
#
# Coordination Sequence:
#
# PCOD9278711 Si02
#       4
#     8   8   4   8
#     4  10  20  44  73  89 134 184 227 251 340 407
#     4  10  22  42  67 104 127 179 216 285 320 402
#     4  12  30  40  68 110 144 158 228 290 342 376
#     4  12  24  48  71  96 133 189 220 273 334 408
#
# _framework density 26.545249999999999
#
# number of rings (size 3 to 8) (size 9 to 14) (size 15 to 20)
#    0.000    1.143    5.714    0.857    0.000   12.571 
#    0.000    0.000    0.000    0.000    0.000    0.000 
#    0.000    0.000    0.000    0.000    0.000    0.000 
#
# Total GULP energy -78464.741790 kJ/mol
# GULP energy per Si atom -5604.624414 kJ/mol
# Density = 2.648483 g / cm^3
# Si number density = 26.545250 Si / 1000 Ang^3
#
#
#
# Elastic Constant Matrix: (Units=GPa)
#
#
# Indices 1 2 3 4 5 6 
#
# 1 150.3976 30.6849 59.1445 0.0000 9.5381 0.0000
# 2 30.6849 91.9780 20.2305 0.0000 -17.6577 0.0000
# 3 59.1445 20.2305 111.8245 0.0000 38.0198 0.0000
# 4 0.0000 0.0000 0.0000 40.2436 0.0000 -7.2624
# 5 9.5381 -17.6577 38.0198 0.0000 72.3340 0.0000
# 6 0.0000 0.0000 0.0000 -7.2624 0.0000 47.8125
#
#
#
# Elastic Compliance Matrix: (Units=1/GPa)
#
#
# Indices 1 2 3 4 5 6 
#
# 1 0.008763 -0.001751 -0.004602 0.000000 0.000836 0.000000
# 2 -0.001751 0.013140 -0.003191 0.000000 0.005115 0.000000
# 3 -0.004602 -0.003191 0.014626 0.000000 -0.007860 0.000000
# 4 0.000000 0.000000 0.000000 0.025549 0.000000 0.003881
# 5 0.000836 0.005115 -0.007860 0.000000 0.019094 0.000000
# 6 0.000000 0.000000 0.000000 0.003881 0.000000 0.021505
#
#
# Mechanical properties :
#
#
# Convention : Reuss Voigt Hill
#
# Bulk Modulus (GPa) = 57.33208 63.81333 60.57270
# Shear Modulus (GPa) = 39.19150 48.35404 43.77277
#
# Velocity S-wave (km/s) = 3.84657 4.27262 4.06518
# Velocity P-wave (km/s) = 6.43217 6.95931 6.70093
#
# Compressibility (1/GPa) = 0.01744224
#
# Stress axis : x y z
#
# Youngs Moduli (GPa) = 114.11467 76.10353 68.36981
#
# Poissons Ratio (x) = 0.13323 0.31467
# Poissons Ratio (y) = 0.19977 0.21814
# Poissons Ratio (z) = 0.52521 0.24281
#
# Static dielectric constant tensor:
#      x y z
#    x 2.039200 0.000000 0.043500 
#    y 0.000000 2.199980 0.000000 
#    z 0.043500 0.000000 2.099590 
# 
# From -- ./inp_files/9443.got.cif
#   From: 2010.05.17/outbox.cif.g08.bks.cpg/sg15_5_cif.got.tgz:9443.got - 2010.06.03 18:47:42.
