data_PCOD9278559
_publ_section_title
;
Structure prediction by ZEFSAII (Michael W. Deem and Ramdas Pophale) SiO2 
 PCOD9278559
Probable space group: C 2/C
;
_chemical_formula_sum "Si O2"
_cell_formula_units_Z 32
_cell_length_a 21.245080
_cell_length_b 4.886855
_cell_length_c 10.909747
_cell_angle_alpha 90.000000
_cell_angle_beta 103.928199
_cell_angle_gamma 90.000000
_cell_volume 1099.365121
_symmetry_space_group_name_H-M "C 2/C"
_symmetry_group_IT_number 15
_symmetry_cell_setting 'monoclinic'
loop_
_space_group_symop_operation_xyz
x,y,z
-x,y,1/2-z
-x,-y,-z
x,-y,1/2+z
1/2+x,1/2+y,z
1/2-x,1/2+y,1/2-z
1/2-x,1/2-y,-z
1/2+x,1/2-y,1/2+z
loop_
_atom_site_type_symbol
_atom_site_label
_atom_site_fract_x
_atom_site_fract_y
_atom_site_fract_z
Si Si1 0.436074 0.867094 0.679311
Si Si2 0.707038 0.937939 0.888903
Si Si3 0.409360 0.793969 0.393403
Si Si4 0.669822 0.719626 0.590196
O O1 0.500000 0.700097 0.750000
O O2 0.360854 0.771344 0.660966
O O3 0.441870 0.896506 0.535314
O O4 0.439424 0.120055 0.778291
O O5 0.764526 0.075400 0.835800
O O6 0.750000 0.750000 0.000000
O O7 0.679037 0.198951 0.952493
O O8 0.389422 0.483362 0.409466
O O9 0.344656 0.983131 0.360765
#
# Coordination Sequence:
#
# PCOD9278559 Si02
#       4
#     8   8   8   8
#     4  11  25  48  74 109 150 199 245 303 371 445
#     4  10  20  43  78 103 149 185 253 300 367 427
#     4  11  25  46  75 106 151 188 250 300 370 435
#     4  10  21  43  74 111 138 190 242 308 365 425
#
# _framework density 29.107709
#
# number of rings (size 3 to 8) (size 9 to 14) (size 15 to 20)
#    0.000    1.500    5.000    0.750    0.000    6.000 
#    0.000   17.500    0.000    0.000    0.000    0.000 
#    0.000    0.000    0.000    0.000    0.000    0.000 
#
# Total GULP energy -89181.805621 kJ/mol
# GULP energy per Si atom -5573.862851 kJ/mol
# Density = 2.904146 g / cm^3
# Si number density = 29.107709 Si / 1000 Ang^3
#
#
#
# Elastic Constant Matrix: (Units=GPa)
#
#
# Indices 1 2 3 4 5 6 
#
# 1 176.1207 24.7938 54.4615 0.0000 26.0402 0.0000
# 2 24.7938 150.6921 30.5640 0.0000 -2.8102 0.0000
# 3 54.4615 30.5640 150.1072 0.0000 13.5029 0.0000
# 4 0.0000 0.0000 0.0000 31.6015 0.0000 -12.5639
# 5 26.0402 -2.8102 13.5029 0.0000 66.3752 0.0000
# 6 0.0000 0.0000 0.0000 -12.5639 0.0000 30.6202
#
#
#
# Elastic Compliance Matrix: (Units=1/GPa)
#
#
# Indices 1 2 3 4 5 6 
#
# 1 0.006764 -0.000729 -0.002103 0.000000 -0.002257 0.000000
# 2 -0.000729 0.007023 -0.001241 0.000000 0.000836 0.000000
# 3 -0.002103 -0.001241 0.007750 0.000000 -0.000804 0.000000
# 4 0.000000 0.000000 0.000000 0.037812 0.000000 0.015515
# 5 -0.002257 0.000836 -0.000804 0.000000 0.016150 0.000000
# 6 0.000000 0.000000 0.000000 0.015515 0.000000 0.039024
#
#
# Mechanical properties :
#
#
# Convention : Reuss Voigt Hill
#
# Bulk Modulus (GPa) = 74.66651 77.39541 76.03096
# Shear Modulus (GPa) = 39.32879 50.19275 44.76077
#
# Velocity S-wave (km/s) = 3.67978 4.15707 3.92569
# Velocity P-wave (km/s) = 6.61528 7.04902 6.83559
#
# Compressibility (1/GPa) = 0.01339289
#
# Stress axis : x y z
#
# Youngs Moduli (GPa) = 147.83166 142.38573 129.03451
#
# Poissons Ratio (x) = 0.10373 0.27135
# Poissons Ratio (y) = 0.10770 0.16011
# Poissons Ratio (z) = 0.31088 0.17668
#
# Static dielectric constant tensor:
#      x y z
#    x 2.340600 0.000000 -0.089130 
#    y 0.000000 2.265980 0.000000 
#    z -0.089130 0.000000 3.069430 
# 
# From -- ./inp_files/115479.got.cif
#   From: 2010.05.17/outbox.cif.g08.bks.cpg/sg15_58_cif.got.tgz:115479.got - 2010.06.03 18:47:42.
