data_PCOD9278063
_publ_section_title
;
Structure prediction by ZEFSAII (Michael W. Deem and Ramdas Pophale) SiO2 
 PCOD9278063
Probable space group: C 2/C
;
_chemical_formula_sum "Si O2"
_cell_formula_units_Z 48
_cell_length_a 6.318279
_cell_length_b 20.416294
_cell_length_c 19.417748
_cell_angle_alpha 90.000000
_cell_angle_beta 61.442020
_cell_angle_gamma 90.000000
_cell_volume 2200.058199
_symmetry_space_group_name_H-M "C 2/C"
_symmetry_group_IT_number 15
_symmetry_cell_setting 'monoclinic'
loop_
_space_group_symop_operation_xyz
x,y,z
-x,y,1/2-z
-x,-y,-z
x,-y,1/2+z
1/2+x,1/2+y,z
1/2-x,1/2+y,1/2-z
1/2-x,1/2-y,-z
1/2+x,1/2-y,1/2+z
loop_
_atom_site_type_symbol
_atom_site_label
_atom_site_fract_x
_atom_site_fract_y
_atom_site_fract_z
Si Si1 0.000000 0.883457 0.750000
Si Si2 0.496433 0.584483 0.551545
Si Si3 0.500000 0.324816 0.250000
Si Si4 0.126610 0.053054 0.085985
Si Si5 0.976530 0.343007 0.358387
Si Si6 0.176081 0.267446 0.838056
Si Si7 0.539665 0.844210 0.505639
O O1 0.009907 0.923758 0.676591
O O2 0.224913 0.833153 0.713558
O O3 0.491487 0.574364 0.469321
O O4 0.607105 0.524660 0.578245
O O5 0.227899 0.601759 0.618323
O O6 0.678353 0.643217 0.534881
O O7 0.478993 0.276535 0.188526
O O8 0.752907 0.362669 0.204936
O O9 0.388427 0.088374 0.044687
O O10 0.892770 0.278508 0.331404
O O11 0.971405 0.325383 0.439393
O O12 0.037985 0.292195 0.926366
#
# Coordination Sequence:
#
# PCOD9278063 Si02
#       7
#     4   8   4   8   8   8   8
#     4  10  20  42  65  94 133 172 220 278 326 396
#     4  10  21  41  66  96 131 173 223 272 326 400
#     4  12  24  38  61  90 133 174 212 272 336 390
#     4   9  21  40  66  97 132 169 222 272 324 391
#     4  11  23  41  61  92 130 172 217 274 331 392
#     4  11  23  39  62  96 130 167 218 272 332 395
#     4  10  22  38  69  94 127 172 220 266 329 397
#
# _framework density 21.817603999999999
#
# number of rings (size 3 to 8) (size 9 to 14) (size 15 to 20)
#    0.000    1.667    1.667    2.000    2.333    4.000 
#    0.000    5.000    0.000    8.000    0.000    0.000 
#    0.000    0.000    0.000    0.000    0.000    0.000 
#
# Total GULP energy -134007.375574 kJ/mol
# GULP energy per Si atom -5583.640649 kJ/mol
# Density = 2.176795 g / cm^3
# Si number density = 21.817604 Si / 1000 Ang^3
#
#
#
# Elastic Constant Matrix: (Units=GPa)
#
#
# Indices 1 2 3 4 5 6 
#
# 1 75.0933 24.0072 46.9677 0.0000 -19.5974 0.0000
# 2 24.0072 53.2177 67.6396 0.0000 -6.8377 0.0000
# 3 46.9677 67.6396 150.0513 0.0000 4.0169 0.0000
# 4 0.0000 0.0000 0.0000 30.8502 0.0000 15.0618
# 5 -19.5974 -6.8377 4.0169 0.0000 20.3057 0.0000
# 6 0.0000 0.0000 0.0000 15.0618 0.0000 68.9119
#
#
#
# Elastic Compliance Matrix: (Units=1/GPa)
#
#
# Indices 1 2 3 4 5 6 
#
# 1 0.027095 0.008680 -0.013242 0.000000 0.031693 0.000000
# 2 0.008680 0.055345 -0.028539 0.000000 0.032660 0.000000
# 3 -0.013242 -0.028539 0.024403 0.000000 -0.027218 0.000000
# 4 0.000000 0.000000 0.000000 0.036287 0.000000 -0.007931
# 5 0.031693 0.032660 -0.027218 0.000000 0.096217 0.000000
# 6 0.000000 0.000000 0.000000 -0.007931 0.000000 0.016245
#
#
# Mechanical properties :
#
#
# Convention : Reuss Voigt Hill
#
# Bulk Modulus (GPa) = 24.60661 61.73236 43.16949
# Shear Modulus (GPa) = 14.91020 33.33008 24.12014
#
# Velocity S-wave (km/s) = 2.61703 3.91278 3.32857
# Velocity P-wave (km/s) = 4.52047 6.98350 5.88234
#
# Compressibility (1/GPa) = 0.04063948
#
# Stress axis : x y z
#
# Youngs Moduli (GPa) = 36.90688 18.06852 40.97887
#
# Poissons Ratio (x) = -0.15683 0.54265
# Poissons Ratio (y) = -0.32034 1.16951
# Poissons Ratio (z) = 0.48873 0.51566
#
# Static dielectric constant tensor:
#      x y z
#    x 1.790970 0.000000 -0.018020 
#    y 0.000000 1.790370 0.000000 
#    z -0.018020 0.000000 1.831940 
# 
# From -- ./inp_files/185263.got.cif
#   From: 2010.05.17/outbox.cif.g08.bks.cpg/sg15_93_cif.got.tgz:185263.got - 2010.06.03 18:47:42.
