data_PCOD9278998
_publ_section_title
;
Structure prediction by ZEFSAII (Michael W. Deem and Ramdas Pophale) SiO2 
 PCOD9278998
Probable space group: C 2/C
;
_chemical_formula_sum "Si O2"
_cell_formula_units_Z 48
_cell_length_a 12.527668
_cell_length_b 21.375243
_cell_length_c 8.982555
_cell_angle_alpha 90.000000
_cell_angle_beta 100.089568
_cell_angle_gamma 90.000000
_cell_volume 2368.167311
_symmetry_space_group_name_H-M "C 2/C"
_symmetry_group_IT_number 15
_symmetry_cell_setting 'monoclinic'
loop_
_space_group_symop_operation_xyz
x,y,z
-x,y,1/2-z
-x,-y,-z
x,-y,1/2+z
1/2+x,1/2+y,z
1/2-x,1/2+y,1/2-z
1/2-x,1/2-y,-z
1/2+x,1/2-y,1/2+z
loop_
_atom_site_type_symbol
_atom_site_label
_atom_site_fract_x
_atom_site_fract_y
_atom_site_fract_z
Si Si1 0.830484 0.305816 0.248684
Si Si2 0.159706 0.800886 0.430138
Si Si3 0.162568 0.356164 0.574371
Si Si4 0.000000 0.716040 0.250000
Si Si5 0.381513 0.342211 0.781368
Si Si6 0.048281 0.582001 0.549818
Si Si7 0.000000 0.523373 0.250000
O O1 0.710429 0.319648 0.284594
O O2 0.868916 0.233989 0.273018
O O3 0.903762 0.354957 0.363793
O O4 0.828534 0.315797 0.072465
O O5 0.250000 0.750000 0.500000
O O6 0.052141 0.761298 0.383558
O O7 0.141363 0.853357 0.548798
O O8 0.281582 0.370015 0.663947
O O9 0.093798 0.322289 0.688898
O O10 0.081831 0.409878 0.497578
O O11 0.500000 0.359057 0.750000
O O12 0.068758 0.524443 0.664436
O O13 0.072392 0.564131 0.383496
#
# Coordination Sequence:
#
# PCOD9278998 Si02
#       7
#     8   8   8   4   8   8   4
#     4  11  21  37  54  84 120 157 193 235 290 359
#     4  10  21  34  48  78 114 158 205 228 274 344
#     4  12  22  35  58  85 115 166 190 239 297 349
#     4  12  21  34  56  80 122 168 202 229 280 354
#     4  11  23  36  53  82 125 164 200 228 275 360
#     4  11  22  39  61  87 120 150 198 246 309 354
#     4  10  23  40  60  86 118 146 196 263 304 356
#
# _framework density 20.268837000000001
#
# number of rings (size 3 to 8) (size 9 to 14) (size 15 to 20)
#    0.000    1.000    5.000    5.000    4.667    0.000 
#    0.000    0.000    0.000    0.000    0.000    1.167 
#   10.000    0.167    0.000    0.000    0.000    0.000 
#
# Total GULP energy -133695.136298 kJ/mol
# GULP energy per Si atom -5570.630679 kJ/mol
# Density = 2.022270 g / cm^3
# Si number density = 20.268837 Si / 1000 Ang^3
#
#
#
# Elastic Constant Matrix: (Units=GPa)
#
#
# Indices 1 2 3 4 5 6 
#
# 1 115.5157 -3.9825 17.7990 0.0000 0.3509 0.0000
# 2 -3.9825 33.2588 4.1416 0.0000 1.4532 0.0000
# 3 17.7990 4.1416 95.2480 0.0000 -14.2656 0.0000
# 4 0.0000 0.0000 0.0000 24.6767 0.0000 -2.8733
# 5 0.3509 1.4532 -14.2656 0.0000 35.6172 0.0000
# 6 0.0000 0.0000 0.0000 -2.8733 0.0000 10.9893
#
#
#
# Elastic Compliance Matrix: (Units=1/GPa)
#
#
# Indices 1 2 3 4 5 6 
#
# 1 0.008995 0.001349 -0.001873 0.000000 -0.000894 0.000000
# 2 0.001349 0.030551 -0.001882 0.000000 -0.002014 0.000000
# 3 -0.001873 -0.001882 0.011644 0.000000 0.004759 0.000000
# 4 0.000000 0.000000 0.000000 0.041797 0.000000 0.010928
# 5 -0.000894 -0.002014 0.004759 0.000000 0.030073 0.000000
# 6 0.000000 0.000000 0.000000 0.010928 0.000000 0.093855
#
#
# Mechanical properties :
#
#
# Convention : Reuss Voigt Hill
#
# Bulk Modulus (GPa) = 21.56239 31.10430 26.33334
# Shear Modulus (GPa) = 21.08056 29.32761 25.20409
#
# Velocity S-wave (km/s) = 3.22848 3.80798 3.53014
# Velocity P-wave (km/s) = 4.95567 5.89181 5.44390
#
# Compressibility (1/GPa) = 0.04637704
#
# Stress axis : x y z
#
# Youngs Moduli (GPa) = 111.17624 32.73200 85.88424
#
# Poissons Ratio (x) = -0.04417 0.16090
# Poissons Ratio (y) = -0.15002 0.16165
# Poissons Ratio (z) = 0.20828 0.06161
#
# Static dielectric constant tensor:
#      x y z
#    x 1.819330 0.000000 -0.069550 
#    y 0.000000 1.765720 0.000000 
#    z -0.069550 0.000000 1.890230 
# 
# From -- ./inp_files/32182.got.cif
#   From: 2010.05.17/outbox.cif.g08.bks.cpg/sg15_17_cif.got.tgz:32182.got - 2010.06.03 18:47:42.
