data_PCOD9278758
_publ_section_title
;
Structure prediction by ZEFSAII (Michael W. Deem and Ramdas Pophale) SiO2 
 PCOD9278758
Probable space group: C 2/C
;
_chemical_formula_sum "Si O2"
_cell_formula_units_Z 64
_cell_length_a 9.171840
_cell_length_b 33.224809
_cell_length_c 10.611278
_cell_angle_alpha 90.000000
_cell_angle_beta 89.797074
_cell_angle_gamma 90.000000
_cell_volume 3233.582395
_symmetry_space_group_name_H-M "C 2/C"
_symmetry_group_IT_number 15
_symmetry_cell_setting 'monoclinic'
loop_
_space_group_symop_operation_xyz
x,y,z
-x,y,1/2-z
-x,-y,-z
x,-y,1/2+z
1/2+x,1/2+y,z
1/2-x,1/2+y,1/2-z
1/2-x,1/2-y,-z
1/2+x,1/2-y,1/2+z
loop_
_atom_site_type_symbol
_atom_site_label
_atom_site_fract_x
_atom_site_fract_y
_atom_site_fract_z
Si Si1 0.667444 0.203083 0.214974
Si Si2 0.439352 0.562029 0.392509
Si Si3 0.833926 0.591350 0.708373
Si Si4 0.341682 0.710284 0.465740
Si Si5 0.749335 0.872161 0.032409
Si Si6 0.084341 0.347096 0.498205
Si Si7 0.113061 0.029377 0.631502
Si Si8 0.905873 0.741404 0.621837
O O1 0.500000 0.212704 0.250000
O O2 0.770698 0.196160 0.334117
O O3 0.746132 0.240998 0.147976
O O4 0.658232 0.162944 0.130817
O O5 0.500000 0.569278 0.250000
O O6 0.337817 0.598817 0.438176
O O7 0.554079 0.552188 0.505960
O O8 0.363033 0.518108 0.388511
O O9 0.752332 0.607273 0.831644
O O10 0.831066 0.623421 0.594975
O O11 0.762420 0.550294 0.667231
O O12 0.000000 0.586981 0.750000
O O13 0.250000 0.750000 0.500000
O O14 0.319702 0.671794 0.551297
O O15 0.506349 0.724762 0.455276
O O16 0.581160 0.863654 0.991304
O O17 0.081197 0.302390 0.437902
O O18 0.000000 0.033535 0.750000
O O19 0.000000 0.738725 0.750000
#
# Coordination Sequence:
#
# PCOD9278758 Si02
#       8
#     8   8   8   8   8   8   8   8
#     4  11  22  39  58  83 128 170 222 283 336 395
#     4  10  23  40  74 102 136 180 212 280 348 411
#     4  10  23  40  69  96 133 177 221 279 336 409
#     4  11  22  38  62  88 127 176 221 271 338 397
#     4  11  21  40  65  94 132 173 223 263 342 401
#     4  11  22  40  60  89 131 174 218 280 335 391
#     4  10  20  45  71 102 140 169 223 276 342 411
#     4  10  21  37  59  84 117 173 222 265 329 390
#
# _framework density 19.792290999999999
#
# number of rings (size 3 to 8) (size 9 to 14) (size 15 to 20)
#    0.000    1.500    3.750    1.500    1.750    3.500 
#    0.000    3.125    2.750    0.000    0.000    0.000 
#    0.000    0.000    0.000    0.000    0.000    0.000 
#
# Total GULP energy -178574.852704 kJ/mol
# GULP energy per Si atom -5580.464147 kJ/mol
# Density = 1.974724 g / cm^3
# Si number density = 19.792291 Si / 1000 Ang^3
#
#
#
# Elastic Constant Matrix: (Units=GPa)
#
#
# Indices 1 2 3 4 5 6 
#
# 1 59.5788 41.7462 23.1944 0.0000 -13.6437 0.0000
# 2 41.7462 104.2085 34.3711 0.0000 -7.8699 0.0000
# 3 23.1944 34.3711 80.2917 0.0000 -9.5459 0.0000
# 4 0.0000 0.0000 0.0000 32.4870 0.0000 0.4316
# 5 -13.6437 -7.8699 -9.5459 0.0000 27.6198 0.0000
# 6 0.0000 0.0000 0.0000 0.4316 0.0000 34.2779
#
#
#
# Elastic Compliance Matrix: (Units=1/GPa)
#
#
# Indices 1 2 3 4 5 6 
#
# 1 0.026241 -0.008927 -0.002628 0.000000 0.009510 0.000000
# 2 -0.008927 0.014279 -0.003727 0.000000 -0.001629 0.000000
# 3 -0.002628 -0.003727 0.015151 0.000000 0.002876 0.000000
# 4 0.000000 0.000000 0.000000 0.030787 0.000000 -0.000388
# 5 0.009510 -0.001629 0.002876 0.000000 0.041434 0.000000
# 6 0.000000 0.000000 0.000000 -0.000388 0.000000 0.029178
#
#
# Mechanical properties :
#
#
# Convention : Reuss Voigt Hill
#
# Bulk Modulus (GPa) = 39.83157 49.18915 44.51036
# Shear Modulus (GPa) = 25.50986 28.52810 27.01898
#
# Velocity S-wave (km/s) = 3.59399 3.80066 3.69877
# Velocity P-wave (km/s) = 6.11480 6.64580 6.38582
#
# Compressibility (1/GPa) = 0.02510571
#
# Stress axis : x y z
#
# Youngs Moduli (GPa) = 38.10888 70.03466 66.00082
#
# Poissons Ratio (x) = 0.62520 0.17346
# Poissons Ratio (y) = 0.34020 0.24601
# Poissons Ratio (z) = 0.10016 0.26104
#
# Static dielectric constant tensor:
#      x y z
#    x 1.695510 0.000000 -0.016330 
#    y 0.000000 1.678290 0.000000 
#    z -0.016330 0.000000 1.808510 
# 
# From -- ./inp_files/82583.got.cif
#   From: 2010.05.17/outbox.cif.g08.bks.cpg/sg15_42_cif.got.tgz:82583.got - 2010.06.03 18:47:42.
