data_PCOD9278624
_publ_section_title
;
Structure prediction by ZEFSAII (Michael W. Deem and Ramdas Pophale) SiO2 
 PCOD9278624
Probable space group: C 2/C
;
_chemical_formula_sum "Si O2"
_cell_formula_units_Z 52
_cell_length_a 10.770095
_cell_length_b 9.357349
_cell_length_c 26.348598
_cell_angle_alpha 90.000000
_cell_angle_beta 62.646266
_cell_angle_gamma 90.000000
_cell_volume 2358.490552
_symmetry_space_group_name_H-M "C 2/C"
_symmetry_group_IT_number 15
_symmetry_cell_setting 'monoclinic'
loop_
_space_group_symop_operation_xyz
x,y,z
-x,y,1/2-z
-x,-y,-z
x,-y,1/2+z
1/2+x,1/2+y,z
1/2-x,1/2+y,1/2-z
1/2-x,1/2-y,-z
1/2+x,1/2-y,1/2+z
loop_
_atom_site_type_symbol
_atom_site_label
_atom_site_fract_x
_atom_site_fract_y
_atom_site_fract_z
Si Si1 0.746100 0.980079 0.867656
Si Si2 0.310520 0.605188 0.054758
Si Si3 0.840551 0.949440 0.186408
Si Si4 0.413761 0.253367 0.636971
Si Si5 0.109608 0.853336 0.073942
Si Si6 0.284746 0.820291 0.375928
Si Si7 0.500000 0.535706 0.750000
O O1 0.656882 0.097704 0.854435
O O2 0.781189 0.047581 0.915623
O O3 0.889413 0.960231 0.808081
O O4 0.691225 0.822322 0.887909
O O5 0.398683 0.678729 0.083383
O O6 0.165659 0.695080 0.076350
O O7 0.274603 0.444891 0.077384
O O8 0.383549 0.618852 0.986858
O O9 0.706392 0.887613 0.182692
O O10 0.965050 0.899512 0.125743
O O11 0.894033 0.890269 0.230116
O O12 0.840344 0.122771 0.185193
O O13 0.569392 0.229478 0.627426
#
# Coordination Sequence:
#
# PCOD9278624 Si02
#       7
#     8   8   8   8   8   8   4
#     4  10  22  40  65  85 125 156 206 257 306 357
#     4   9  21  37  64  88 128 168 205 242 315 360
#     4  10  22  40  64  84 123 158 203 254 312 357
#     4  10  21  42  60  90 124 159 198 258 299 373
#     4   9  18  42  59  90 128 166 202 258 296 371
#     4  11  22  39  62  95 121 161 204 254 300 374
#     4  10  20  44  66  84 116 166 192 258 316 358
#
# _framework density 22.047999000000001
#
# number of rings (size 3 to 8) (size 9 to 14) (size 15 to 20)
#    0.000    2.154    3.077    0.000    2.154    4.308 
#    2.769    2.308    0.000    3.692    0.000    0.000 
#    0.000    0.000    0.000    0.000    0.000    0.000 
#
# Total GULP energy -144902.765249 kJ/mol
# GULP energy per Si atom -5573.183279 kJ/mol
# Density = 2.199782 g / cm^3
# Si number density = 22.047999 Si / 1000 Ang^3
#
#
#
# Elastic Constant Matrix: (Units=GPa)
#
#
# Indices 1 2 3 4 5 6 
#
# 1 96.8351 33.9676 26.4574 0.0000 22.8686 0.0000
# 2 33.9676 153.0098 14.4906 0.0000 -9.8959 0.0000
# 3 26.4574 14.4906 77.6510 0.0000 17.8220 0.0000
# 4 0.0000 0.0000 0.0000 4.3209 0.0000 -0.2356
# 5 22.8686 -9.8959 17.8220 0.0000 22.8399 0.0000
# 6 0.0000 0.0000 0.0000 -0.2356 0.0000 20.3364
#
#
#
# Elastic Compliance Matrix: (Units=1/GPa)
#
#
# Indices 1 2 3 4 5 6 
#
# 1 0.016414 -0.004759 -0.000560 0.000000 -0.018060 0.000000
# 2 -0.004759 0.008473 -0.002309 0.000000 0.010238 0.000000
# 3 -0.000560 -0.002309 0.016568 0.000000 -0.013368 0.000000
# 4 0.000000 0.000000 0.000000 0.231578 0.000000 0.002683
# 5 -0.018060 0.010238 -0.013368 0.000000 0.076733 0.000000
# 6 0.000000 0.000000 0.000000 0.002683 0.000000 0.049204
#
#
# Mechanical properties :
#
#
# Convention : Reuss Voigt Hill
#
# Bulk Modulus (GPa) = 38.16914 53.03636 45.60275
# Shear Modulus (GPa) = 11.82147 26.33812 19.07979
#
# Velocity S-wave (km/s) = 2.31805 3.46002 2.94492
# Velocity P-wave (km/s) = 4.95115 6.33005 5.68258
#
# Compressibility (1/GPa) = 0.02619918
#
# Stress axis : x y z
#
# Youngs Moduli (GPa) = 60.92323 118.02416 60.35729
#
# Poissons Ratio (x) = 0.56167 0.03377
# Poissons Ratio (y) = 0.28993 0.13939
# Poissons Ratio (z) = 0.03409 0.27257
#
# Static dielectric constant tensor:
#      x y z
#    x 1.897680 0.000000 0.015930 
#    y 0.000000 1.853760 0.000000 
#    z 0.015930 0.000000 1.814070 
# 
# From -- ./inp_files/291103.got.cif
#   From: 2010.05.17/outbox.cif.g08.bks.cpg/sg15_146_cif.got.tgz:291103.got - 2010.06.03 18:47:42.
