data_PCOD9278830
_publ_section_title
;
Structure prediction by ZEFSAII (Michael W. Deem and Ramdas Pophale) SiO2 
 PCOD9278830
Probable space group: C 2/C
;
_chemical_formula_sum "Si O2"
_cell_formula_units_Z 24
_cell_length_a 4.912172
_cell_length_b 20.898983
_cell_length_c 8.888316
_cell_angle_alpha 90.000000
_cell_angle_beta 84.799014
_cell_angle_gamma 90.000000
_cell_volume 908.712397
_symmetry_space_group_name_H-M "C 2/C"
_symmetry_group_IT_number 15
_symmetry_cell_setting 'monoclinic'
loop_
_space_group_symop_operation_xyz
x,y,z
-x,y,1/2-z
-x,-y,-z
x,-y,1/2+z
1/2+x,1/2+y,z
1/2-x,1/2+y,1/2-z
1/2-x,1/2-y,-z
1/2+x,1/2-y,1/2+z
loop_
_atom_site_type_symbol
_atom_site_label
_atom_site_fract_x
_atom_site_fract_y
_atom_site_fract_z
Si Si1 0.552511 0.696538 0.077974
Si Si2 0.000000 0.490460 0.250000
Si Si3 0.500000 0.576779 0.250000
Si Si4 0.718848 0.130313 0.855698
O O1 0.500000 0.716911 0.250000
O O2 0.641620 0.622778 0.115807
O O3 0.208755 0.822044 0.012115
O O4 0.750000 0.750000 0.000000
O O5 0.740552 0.533544 0.301788
O O6 0.898854 0.441532 0.123745
O O7 0.500000 0.157398 0.750000
O O8 0.000000 0.124388 0.750000
#
# Coordination Sequence:
#
# PCOD9278830 Si02
#       4
#     8   4   4   8
#     4  10  26  55  82 120 169 227 285 340 412 502
#     4  10  20  48  79 127 164 208 268 352 430 500
#     4  10  24  46  85 121 164 216 278 344 418 500
#     4  10  23  48  82 120 167 212 268 346 430 492
#
# _framework density 26.410999
#
# number of rings (size 3 to 8) (size 9 to 14) (size 15 to 20)
#    2.000    0.000    1.667    0.000    0.000    6.667 
#    3.000    6.667    0.000    0.000    0.000    0.000 
#    0.000    0.000    0.000    0.000    0.000    0.000 
#
# Total GULP energy -66884.630124 kJ/mol
# GULP energy per Si atom -5573.719177 kJ/mol
# Density = 2.635089 g / cm^3
# Si number density = 26.410999 Si / 1000 Ang^3
#
#
#
# Elastic Constant Matrix: (Units=GPa)
#
#
# Indices 1 2 3 4 5 6 
#
# 1 220.8180 114.3675 88.9957 0.0000 26.5078 0.0000
# 2 114.3675 235.4447 80.2191 0.0000 3.1777 0.0000
# 3 88.9957 80.2191 159.0866 0.0000 32.6198 0.0000
# 4 0.0000 0.0000 0.0000 24.4239 0.0000 20.2137
# 5 26.5078 3.1777 32.6198 0.0000 56.3076 0.0000
# 6 0.0000 0.0000 0.0000 20.2137 0.0000 137.4980
#
#
#
# Elastic Compliance Matrix: (Units=1/GPa)
#
#
# Indices 1 2 3 4 5 6 
#
# 1 0.007003 -0.002623 -0.002212 0.000000 -0.001867 0.000000
# 2 -0.002623 0.006206 -0.002092 0.000000 0.002096 0.000000
# 3 -0.002212 -0.002092 0.009465 0.000000 -0.004324 0.000000
# 4 0.000000 0.000000 0.000000 0.046615 0.000000 -0.006853
# 5 -0.001867 0.002096 -0.004324 0.000000 0.021025 0.000000
# 6 0.000000 0.000000 0.000000 -0.006853 0.000000 0.008280
#
#
# Mechanical properties :
#
#
# Convention : Reuss Voigt Hill
#
# Bulk Modulus (GPa) = 113.38125 131.39043 122.38584
# Shear Modulus (GPa) = 43.33263 65.76370 54.54816
#
# Velocity S-wave (km/s) = 4.05495 4.99542 4.54955
# Velocity P-wave (km/s) = 8.05893 9.11749 8.60450
#
# Compressibility (1/GPa) = 0.00881980
#
# Stress axis : x y z
#
# Youngs Moduli (GPa) = 142.80382 161.14289 105.65562
#
# Poissons Ratio (x) = 0.42262 0.23372
# Poissons Ratio (y) = 0.37452 0.22102
# Poissons Ratio (z) = 0.31589 0.33709
#
# Static dielectric constant tensor:
#      x y z
#    x 2.020350 0.000000 0.077100 
#    y 0.000000 2.165140 0.000000 
#    z 0.077100 0.000000 1.987800 
# 
# From -- ./inp_files/127917.got.cif
#   From: 2010.05.17/outbox.cif.g08.bks.cpg/sg15_64_cif.got.tgz:127917.got - 2010.06.03 18:47:42.
