data_PCOD9278921
_publ_section_title
;
Structure prediction by ZEFSAII (Michael W. Deem and Ramdas Pophale) SiO2 
 PCOD9278921
Probable space group: C 2/C
;
_chemical_formula_sum "Si O2"
_cell_formula_units_Z 64
_cell_length_a 27.152079
_cell_length_b 21.678745
_cell_length_c 11.313934
_cell_angle_alpha 90.000000
_cell_angle_beta 31.708033
_cell_angle_gamma 90.000000
_cell_volume 3500.247305
_symmetry_space_group_name_H-M "C 2/C"
_symmetry_group_IT_number 15
_symmetry_cell_setting 'monoclinic'
loop_
_space_group_symop_operation_xyz
x,y,z
-x,y,1/2-z
-x,-y,-z
x,-y,1/2+z
1/2+x,1/2+y,z
1/2-x,1/2+y,1/2-z
1/2-x,1/2-y,-z
1/2+x,1/2-y,1/2+z
loop_
_atom_site_type_symbol
_atom_site_label
_atom_site_fract_x
_atom_site_fract_y
_atom_site_fract_z
Si Si1 0.444567 0.489223 0.239201
Si Si2 0.011513 0.725693 0.364271
Si Si3 0.630124 0.662936 0.912379
Si Si4 0.608856 0.808414 0.008410
Si Si5 0.700193 0.817083 0.589069
Si Si6 0.514184 0.633949 0.933017
Si Si7 0.683306 0.809658 0.116327
Si Si8 0.828747 0.101980 0.422239
O O1 0.500000 0.503256 0.250000
O O2 0.432735 0.415532 0.255961
O O3 0.352529 0.531525 0.410426
O O4 0.500000 0.500000 0.000000
O O5 0.917263 0.704550 0.621165
O O6 0.000000 0.718281 0.250000
O O7 0.102947 0.690078 0.219867
O O8 0.028910 0.797281 0.358841
O O9 0.607592 0.735860 0.972085
O O10 0.723537 0.648856 0.645785
O O11 0.550401 0.632227 0.994748
O O12 0.645571 0.639027 0.011634
O O13 0.668161 0.840270 0.782840
O O14 0.500000 0.826899 0.250000
O O15 0.664333 0.815580 0.016320
O O16 0.750000 0.750000 0.500000
O O17 0.404238 0.619240 0.166453
O O18 0.750000 0.750000 0.000000
O O19 0.731396 0.870172 0.074826
#
# Coordination Sequence:
#
# PCOD9278921 Si02
#       8
#     8   8   8   8   8   8   8   8
#     4  10  22  40  57  82 117 158 208 250 294 348
#     4  12  22  33  49  81 121 146 186 239 296 353
#     4  11  19  33  56  79 110 157 196 229 295 366
#     4  11  19  35  51  73 117 152 192 233 290 370
#     4  10  21  33  49  77 110 151 189 232 288 364
#     4  11  20  34  56  84 114 158 191 240 299 351
#     4  12  22  33  53  82 109 157 198 235 288 362
#     4  11  21  35  55  78 111 154 199 242 282 348
#
# _framework density 18.284423
#
# number of rings (size 3 to 8) (size 9 to 14) (size 15 to 20)
#    0.000    1.000    6.250    3.750    1.750    0.000 
#    4.500    0.000    0.000    0.000    0.000    0.875 
#    0.000    2.000    0.000    0.375    0.000    0.000 
#
# Total GULP energy -178407.128441 kJ/mol
# GULP energy per Si atom -5575.222764 kJ/mol
# Density = 1.824281 g / cm^3
# Si number density = 18.284423 Si / 1000 Ang^3
#
#
#
# Elastic Constant Matrix: (Units=GPa)
#
#
# Indices 1 2 3 4 5 6 
#
# 1 137.5612 15.2674 31.2912 0.0000 1.7995 0.0000
# 2 15.2674 53.2050 10.7066 0.0000 -5.7542 0.0000
# 3 31.2912 10.7066 103.5349 0.0000 0.5710 0.0000
# 4 0.0000 0.0000 0.0000 17.3806 0.0000 0.7807
# 5 1.7995 -5.7542 0.5710 0.0000 32.9480 0.0000
# 6 0.0000 0.0000 0.0000 0.7807 0.0000 18.9565
#
#
#
# Elastic Compliance Matrix: (Units=1/GPa)
#
#
# Indices 1 2 3 4 5 6 
#
# 1 0.007997 -0.001929 -0.002213 0.000000 -0.000735 0.000000
# 2 -0.001929 0.020045 -0.001510 0.000000 0.003632 0.000000
# 3 -0.002213 -0.001510 0.010485 0.000000 -0.000325 0.000000
# 4 0.000000 0.000000 0.000000 0.057642 0.000000 -0.002374
# 5 -0.000735 0.003632 -0.000325 0.000000 0.031031 0.000000
# 6 0.000000 0.000000 0.000000 -0.002374 0.000000 0.052850
#
#
# Mechanical properties :
#
#
# Convention : Reuss Voigt Hill
#
# Bulk Modulus (GPa) = 36.73327 45.42573 41.07950
# Shear Modulus (GPa) = 24.94646 29.65942 27.30294
#
# Velocity S-wave (km/s) = 3.69773 4.03192 3.86843
# Velocity P-wave (km/s) = 6.19390 6.82444 6.51680
#
# Compressibility (1/GPa) = 0.02722328
#
# Stress axis : x y z
#
# Youngs Moduli (GPa) = 125.05247 49.88675 95.37029
#
# Poissons Ratio (x) = 0.09622 0.21108
# Poissons Ratio (y) = 0.24120 0.14401
# Poissons Ratio (z) = 0.27678 0.07533
#
# Static dielectric constant tensor:
#      x y z
#    x 1.628300 0.000000 0.063730 
#    y 0.000000 1.673020 0.000000 
#    z 0.063730 0.000000 1.565120 
# 
# From -- ./inp_files/124439.got.cif
#   From: 2010.05.17/outbox.cif.g08.bks.cpg/sg15_63_cif.got.tgz:124439.got - 2010.06.03 18:47:42.
