data_PCOD9278515
_publ_section_title
;
Structure prediction by ZEFSAII (Michael W. Deem and Ramdas Pophale) SiO2 
 PCOD9278515
Probable space group: C 2/C
;
_chemical_formula_sum "Si O2"
_cell_formula_units_Z 56
_cell_length_a 9.014324
_cell_length_b 11.335972
_cell_length_c 26.691582
_cell_angle_alpha 90.000000
_cell_angle_beta 69.106568
_cell_angle_gamma 90.000000
_cell_volume 2548.162933
_symmetry_space_group_name_H-M "C 2/C"
_symmetry_group_IT_number 15
_symmetry_cell_setting 'monoclinic'
loop_
_space_group_symop_operation_xyz
x,y,z
-x,y,1/2-z
-x,-y,-z
x,-y,1/2+z
1/2+x,1/2+y,z
1/2-x,1/2+y,1/2-z
1/2-x,1/2-y,-z
1/2+x,1/2-y,1/2+z
loop_
_atom_site_type_symbol
_atom_site_label
_atom_site_fract_x
_atom_site_fract_y
_atom_site_fract_z
Si Si1 0.806697 0.669880 0.447793
Si Si2 0.326518 0.564957 0.487504
Si Si3 0.364598 0.576070 0.113284
Si Si4 0.375244 0.869734 0.341249
Si Si5 0.351366 0.773409 0.564319
Si Si6 0.360794 0.396033 0.729496
Si Si7 0.214963 0.645840 0.764116
O O1 0.750000 0.750000 0.500000
O O2 0.757461 0.540874 0.473713
O O3 0.707090 0.687440 0.408593
O O4 0.993603 0.695562 0.422221
O O5 0.483595 0.532693 0.436782
O O6 0.374412 0.667584 0.521168
O O7 0.202813 0.617891 0.462868
O O8 0.214027 0.487958 0.131021
O O9 0.411551 0.587354 0.165575
O O10 0.292041 0.767427 0.382881
O O11 0.333110 0.863826 0.288094
O O12 0.564640 0.866323 0.319436
O O13 0.500000 0.354523 0.750000
O O14 0.311501 0.523584 0.757876
O O15 0.236059 0.285312 0.739424
#
# Coordination Sequence:
#
# PCOD9278515 Si02
#       7
#     8   8   8   8   8   8   8
#     4  12  23  42  64  99 141 180 231 287 339 420
#     4  11  23  42  62  99 139 180 232 284 341 419
#     4  11  23  43  69  99 138 186 232 288 357 419
#     4  10  20  43  69  93 135 189 219 289 362 404
#     4  11  23  40  68  93 138 185 230 280 350 415
#     4  11  24  50  73 107 141 187 239 302 361 432
#     4  10  23  45  73  99 140 180 237 296 358 424
#
# _framework density 21.976616
#
# number of rings (size 3 to 8) (size 9 to 14) (size 15 to 20)
#    0.000    1.143    4.286    2.571    0.000    1.143 
#   12.857    0.000    0.000    0.000    0.000    0.000 
#    0.000    0.000    0.000    0.000    0.000    0.000 
#
# Total GULP energy -156074.832208 kJ/mol
# GULP energy per Si atom -5574.101150 kJ/mol
# Density = 2.192660 g / cm^3
# Si number density = 21.976616 Si / 1000 Ang^3
#
#
#
# Elastic Constant Matrix: (Units=GPa)
#
#
# Indices 1 2 3 4 5 6 
#
# 1 69.7573 15.7896 41.5045 0.0000 3.5352 0.0000
# 2 15.7896 96.3689 18.6134 0.0000 -10.0832 0.0000
# 3 41.5045 18.6134 126.6405 0.0000 -11.7415 0.0000
# 4 0.0000 0.0000 0.0000 34.3297 0.0000 -4.7843
# 5 3.5352 -10.0832 -11.7415 0.0000 30.7963 0.0000
# 6 0.0000 0.0000 0.0000 -4.7843 0.0000 37.2784
#
#
#
# Elastic Compliance Matrix: (Units=1/GPa)
#
#
# Indices 1 2 3 4 5 6 
#
# 1 0.018938 -0.002441 -0.006348 0.000000 -0.005394 0.000000
# 2 -0.002441 0.011270 -0.000506 0.000000 0.003777 0.000000
# 3 -0.006348 -0.000506 0.010474 0.000000 0.004556 0.000000
# 4 0.000000 0.000000 0.000000 0.029660 0.000000 0.003807
# 5 -0.005394 0.003777 0.004556 0.000000 0.036064 0.000000
# 6 0.000000 0.000000 0.000000 0.003807 0.000000 0.027314
#
#
# Mechanical properties :
#
#
# Convention : Reuss Voigt Hill
#
# Bulk Modulus (GPa) = 45.26729 49.39798 47.33264
# Shear Modulus (GPa) = 31.31382 34.93816 33.12599
#
# Velocity S-wave (km/s) = 3.77884 3.99154 3.88665
# Velocity P-wave (km/s) = 6.29938 6.61585 6.45955
#
# Compressibility (1/GPa) = 0.02209101
#
# Stress axis : x y z
#
# Youngs Moduli (GPa) = 52.80311 88.73315 95.47771
#
# Poissons Ratio (x) = 0.21661 0.60609
# Poissons Ratio (y) = 0.12890 0.04833
# Poissons Ratio (z) = 0.33519 0.04491
#
# Static dielectric constant tensor:
#      x y z
#    x 1.839270 0.000000 -0.003460 
#    y 0.000000 1.913540 0.000000 
#    z -0.003460 0.000000 1.808520 
# 
# From -- ./inp_files/287948.got.cif
#   From: 2010.05.17/outbox.cif.g08.bks.cpg/sg15_144_cif.got.tgz:287948.got - 2010.06.03 18:47:42.
