data_PCOD9278767
_publ_section_title
;
Structure prediction by ZEFSAII (Michael W. Deem and Ramdas Pophale) SiO2 
 PCOD9278767
Probable space group: C 2/C
;
_chemical_formula_sum "Si O2"
_cell_formula_units_Z 44
_cell_length_a 17.551489
_cell_length_b 7.418610
_cell_length_c 24.149274
_cell_angle_alpha 90.000000
_cell_angle_beta 32.248172
_cell_angle_gamma 90.000000
_cell_volume 1677.823450
_symmetry_space_group_name_H-M "C 2/C"
_symmetry_group_IT_number 15
_symmetry_cell_setting 'monoclinic'
loop_
_space_group_symop_operation_xyz
x,y,z
-x,y,1/2-z
-x,-y,-z
x,-y,1/2+z
1/2+x,1/2+y,z
1/2-x,1/2+y,1/2-z
1/2-x,1/2-y,-z
1/2+x,1/2-y,1/2+z
loop_
_atom_site_type_symbol
_atom_site_label
_atom_site_fract_x
_atom_site_fract_y
_atom_site_fract_z
Si Si1 0.296132 0.418717 0.549043
Si Si2 0.757682 0.257011 0.812189
Si Si3 0.000000 0.880851 0.750000
Si Si4 0.444083 0.244159 0.999043
Si Si5 0.706225 0.982451 0.487009
Si Si6 0.318007 0.637466 0.265497
O O1 0.199618 0.383544 0.663151
O O2 0.421827 0.550966 0.491968
O O3 0.335692 0.224949 0.498699
O O4 0.222585 0.515437 0.542196
O O5 0.717972 0.331735 0.776517
O O6 0.847250 0.076871 0.752197
O O7 0.597398 0.201278 0.929017
O O8 0.061954 0.783092 0.766936
O O9 0.141135 0.982761 0.638145
O O10 0.325792 0.203238 0.116915
O O11 0.408298 0.114351 0.969885
#
# Coordination Sequence:
#
# PCOD9278767 Si02
#       6
#     8   8   4   8   8   8
#     4  11  22  41  66  99 130 177 224 269 341 399
#     4  12  24  46  66 106 135 179 223 288 336 399
#     4  10  20  46  64  92 142 178 218 284 324 396
#     4  11  23  44  70 100 137 177 225 280 340 398
#     4  10  23  42  67 100 137 179 228 272 336 405
#     4  11  25  43  70  97 142 176 230 277 339 404
#
# _framework density 26.224450999999998
#
# number of rings (size 3 to 8) (size 9 to 14) (size 15 to 20)
#    0.000    1.091    3.636    3.818    0.000    2.909 
#    3.273    3.636    0.000    0.000    0.000    0.000 
#    0.000    0.000    0.000    0.000    0.000    0.000 
#
# Total GULP energy -122986.741019 kJ/mol
# GULP energy per Si atom -5590.306410 kJ/mol
# Density = 2.616476 g / cm^3
# Si number density = 26.224451 Si / 1000 Ang^3
#
#
#
# Elastic Constant Matrix: (Units=GPa)
#
#
# Indices 1 2 3 4 5 6 
#
# 1 162.9404 8.5882 36.9414 0.0009 67.4410 -0.0108
# 2 8.5882 84.8741 7.4347 0.0019 0.9054 -0.0146
# 3 36.9414 7.4347 58.2796 -0.0005 26.3438 0.0005
# 4 0.0009 0.0019 -0.0005 25.5929 0.0010 13.3029
# 5 67.4410 0.9054 26.3438 0.0010 60.0316 0.0035
# 6 -0.0108 -0.0146 0.0005 13.3029 0.0035 35.6909
#
#
#
# Elastic Compliance Matrix: (Units=1/GPa)
#
#
# Indices 1 2 3 4 5 6 
#
# 1 0.011693 -0.000902 -0.001703 -0.000003 -0.012375 0.000005
# 2 -0.000902 0.012003 -0.001666 -0.000004 0.001563 0.000006
# 3 -0.001703 -0.001666 0.021923 0.000002 -0.007683 -0.000001
# 4 -0.000003 -0.000004 0.000002 0.048462 0.000003 -0.018063
# 5 -0.012375 0.001563 -0.007683 0.000003 0.033908 -0.000007
# 6 0.000005 0.000006 -0.000001 -0.018063 -0.000007 0.034751
#
#
# Mechanical properties :
#
#
# Convention : Reuss Voigt Hill
#
# Bulk Modulus (GPa) = 26.97080 45.78029 36.37555
# Shear Modulus (GPa) = 27.22694 41.13838 34.18266
#
# Velocity S-wave (km/s) = 3.22565 3.96498 3.61427
# Velocity P-wave (km/s) = 4.91732 6.20133 5.59627
#
# Compressibility (1/GPa) = 0.03707713
#
# Stress axis : x y z
#
# Youngs Moduli (GPa) = 85.52167 83.31460 45.61366
#
# Poissons Ratio (x) = 0.07515 0.07767
# Poissons Ratio (y) = 0.07714 0.07600
# Poissons Ratio (z) = 0.14562 0.13881
#
# Static dielectric constant tensor:
#      x y z
#    x 2.086240 0.000000 0.091740 
#    y 0.000000 2.091300 0.000000 
#    z 0.091740 0.000000 2.115700 
# 
# From -- ./inp_files/276475.got.cif
#   From: 2010.05.17/outbox.cif.g08.bks.cpg/sg15_139_cif.got.tgz:276475.got - 2010.06.03 18:47:42.
