data_PCOD9278779
_publ_section_title
;
Structure prediction by ZEFSAII (Michael W. Deem and Ramdas Pophale) SiO2 
 PCOD9278779
Probable space group: C 2/C
;
_chemical_formula_sum "Si O2"
_cell_formula_units_Z 60
_cell_length_a 5.545898
_cell_length_b 26.603908
_cell_length_c 16.862830
_cell_angle_alpha 90.000000
_cell_angle_beta 110.953960
_cell_angle_gamma 90.000000
_cell_volume 2323.449906
_symmetry_space_group_name_H-M "C 2/C"
_symmetry_group_IT_number 15
_symmetry_cell_setting 'monoclinic'
loop_
_space_group_symop_operation_xyz
x,y,z
-x,y,1/2-z
-x,-y,-z
x,-y,1/2+z
1/2+x,1/2+y,z
1/2-x,1/2+y,1/2-z
1/2-x,1/2-y,-z
1/2+x,1/2-y,1/2+z
loop_
_atom_site_type_symbol
_atom_site_label
_atom_site_fract_x
_atom_site_fract_y
_atom_site_fract_z
Si Si1 0.419797 0.306759 0.830632
Si Si2 0.500000 0.072428 0.750000
Si Si3 0.831589 0.169651 0.983191
Si Si4 0.296886 0.868806 0.355500
Si Si5 0.293895 0.001057 0.592976
Si Si6 0.694382 0.423892 0.704981
Si Si7 0.098317 0.765188 0.400510
Si Si8 0.643371 0.423322 0.481328
O O1 0.500000 0.288453 0.750000
O O2 0.650297 0.309419 0.924788
O O3 0.346921 0.364843 0.810885
O O4 0.183748 0.278116 0.848056
O O5 0.696101 0.112672 0.733696
O O6 0.460399 0.034169 0.672560
O O7 0.581138 0.138081 0.929620
O O8 0.846573 0.211964 0.915937
O O9 0.081034 0.132272 0.007008
O O10 0.181318 0.814460 0.360356
O O11 0.167380 0.912202 0.391869
O O12 0.133443 0.961812 0.628054
O O13 0.379760 0.958220 0.539825
O O14 0.107804 0.043016 0.536950
O O15 0.500000 0.439537 0.750000
O O16 0.000000 0.430109 0.750000
O O17 0.250000 0.750000 0.500000
#
# Coordination Sequence:
#
# PCOD9278779 Si02
#       8
#     8   4   8   8   8   8   8   8
#     4  10  22  43  69 107 140 186 246 307 371 446
#     4  12  26  42  68 108 138 180 248 296 368 434
#     4  10  20  46  68 100 140 183 239 293 369 446
#     4  11  25  44  74 100 140 190 238 303 367 447
#     4  11  23  44  68 101 142 188 244 297 364 439
#     4  11  25  44  67 103 146 189 240 307 367 431
#     4   9  22  45  72  98 140 186 237 301 374 454
#     4  10  23  43  67  96 139 190 240 286 363 446
#
# _framework density 25.823668999999999
#
# number of rings (size 3 to 8) (size 9 to 14) (size 15 to 20)
#    0.000    1.600    3.333    0.000    2.800    4.800 
#    4.800    0.000    0.000    0.000    0.000    0.000 
#    0.000    0.000    0.000    0.000    0.000    0.000 
#
# Total GULP energy -167029.166007 kJ/mol
# GULP energy per Si atom -5567.638867 kJ/mol
# Density = 2.576489 g / cm^3
# Si number density = 25.823669 Si / 1000 Ang^3
#
#
#
# Elastic Constant Matrix: (Units=GPa)
#
#
# Indices 1 2 3 4 5 6 
#
# 1 53.4044 9.7973 38.0731 0.0000 1.7018 0.0000
# 2 9.7973 150.1424 39.5338 0.0000 -10.2729 0.0000
# 3 38.0731 39.5338 135.6072 0.0000 -14.3998 0.0000
# 4 0.0000 0.0000 0.0000 50.3686 0.0000 -18.4958
# 5 1.7018 -10.2729 -14.3998 0.0000 32.2317 0.0000
# 6 0.0000 0.0000 0.0000 -18.4958 0.0000 33.8980
#
#
#
# Elastic Compliance Matrix: (Units=1/GPa)
#
#
# Indices 1 2 3 4 5 6 
#
# 1 0.024015 0.000029 -0.007228 0.000000 -0.004488 0.000000
# 2 0.000029 0.007277 -0.001977 0.000000 0.001434 0.000000
# 3 -0.007228 -0.001977 0.010449 0.000000 0.004420 0.000000
# 4 0.000000 0.000000 0.000000 0.024828 0.000000 0.013547
# 5 -0.004488 0.001434 0.004420 0.000000 0.033694 0.000000
# 6 0.000000 0.000000 0.000000 0.013547 0.000000 0.036892
#
#
# Mechanical properties :
#
#
# Convention : Reuss Voigt Hill
#
# Bulk Modulus (GPa) = 42.75336 57.10691 49.93014
# Shear Modulus (GPa) = 30.61764 40.08300 35.35032
#
# Velocity S-wave (km/s) = 3.44705 3.94405 3.70389
# Velocity P-wave (km/s) = 5.69515 6.55003 6.13749
#
# Compressibility (1/GPa) = 0.02338997
#
# Stress axis : x y z
#
# Youngs Moduli (GPa) = 41.63992 137.41439 95.70091
#
# Poissons Ratio (x) = -0.00398 0.69168
# Poissons Ratio (y) = -0.00121 0.18923
# Poissons Ratio (z) = 0.30095 0.27172
#
# Static dielectric constant tensor:
#      x y z
#    x 2.229070 0.000000 -0.108810 
#    y 0.000000 2.044420 0.000000 
#    z -0.108810 0.000000 2.681690 
# 
# From -- ./inp_files/186174.got.cif
#   From: 2010.05.17/outbox.cif.g08.bks.cpg/sg15_94_cif.got.tgz:186174.got - 2010.06.03 18:47:42.
