data_PCOD9278641
_publ_section_title
;
Structure prediction by ZEFSAII (Michael W. Deem and Ramdas Pophale) SiO2 
 PCOD9278641
Probable space group: C 2/C
;
_chemical_formula_sum "Si O2"
_cell_formula_units_Z 52
_cell_length_a 14.858783
_cell_length_b 15.397864
_cell_length_c 16.638973
_cell_angle_alpha 90.000000
_cell_angle_beta 139.362499
_cell_angle_gamma 90.000000
_cell_volume 2479.316661
_symmetry_space_group_name_H-M "C 2/C"
_symmetry_group_IT_number 15
_symmetry_cell_setting 'monoclinic'
loop_
_space_group_symop_operation_xyz
x,y,z
-x,y,1/2-z
-x,-y,-z
x,-y,1/2+z
1/2+x,1/2+y,z
1/2-x,1/2+y,1/2-z
1/2-x,1/2-y,-z
1/2+x,1/2-y,1/2+z
loop_
_atom_site_type_symbol
_atom_site_label
_atom_site_fract_x
_atom_site_fract_y
_atom_site_fract_z
Si Si1 0.271608 0.642804 0.287138
Si Si2 0.658411 0.186025 0.382779
Si Si3 0.441360 0.432003 0.524545
Si Si4 0.000000 0.627896 0.750000
Si Si5 0.842100 0.480674 0.373477
Si Si6 0.778852 0.321171 0.221250
Si Si7 0.785887 0.500479 0.514113
O O1 0.246790 0.667103 0.362506
O O2 0.428056 0.626450 0.365288
O O3 0.198264 0.551534 0.220512
O O4 0.222068 0.727404 0.206148
O O5 0.500000 0.212508 0.250000
O O6 0.750000 0.250000 0.500000
O O7 0.652381 0.094132 0.424391
O O8 0.500000 0.500000 0.500000
O O9 0.334006 0.372128 0.405741
O O10 0.358095 0.480631 0.538104
O O11 0.088503 0.682645 0.746723
O O12 0.103262 0.568142 0.873442
O O13 0.814938 0.384177 0.321328
O O14 0.765229 0.502804 0.404474
O O15 0.000000 0.500000 0.500000
#
# Coordination Sequence:
#
# PCOD9278641 Si02
#       7
#     8   8   8   4   8   8   8
#     4  12  27  46  70 102 147 179 232 301 358 423
#     4  12  26  45  73 107 145 189 244 302 366 436
#     4  11  23  46  67  97 139 186 223 287 358 422
#     4  10  20  44  66  96 130 184 230 284 344 422
#     4  12  24  43  69 103 134 182 236 286 353 430
#     4  11  25  42  71  98 138 179 232 290 353 424
#     4  11  22  42  74  95 138 186 238 288 362 427
#
# _framework density 20.973521999999999
#
# number of rings (size 3 to 8) (size 9 to 14) (size 15 to 20)
#    0.000    0.615    5.385    2.769    4.308    1.846 
#    2.769    3.077    0.000    0.000    0.000    0.000 
#    0.000    0.000    0.000    0.000    0.000    0.000 
#
# Total GULP energy -145274.818334 kJ/mol
# GULP energy per Si atom -5587.493013 kJ/mol
# Density = 2.092579 g / cm^3
# Si number density = 20.973522 Si / 1000 Ang^3
#
#
#
# Elastic Constant Matrix: (Units=GPa)
#
#
# Indices 1 2 3 4 5 6 
#
# 1 107.3285 1.4313 16.2384 0.0001 -4.6991 0.0000
# 2 1.4313 58.0353 1.6153 0.0000 -2.8166 0.0000
# 3 16.2384 1.6153 75.0032 0.0001 12.5235 0.0000
# 4 0.0001 0.0000 0.0001 28.1088 0.0000 -4.4083
# 5 -4.6991 -2.8166 12.5235 0.0000 36.9441 0.0000
# 6 0.0000 0.0000 0.0000 -4.4083 0.0000 24.6705
#
#
#
# Elastic Compliance Matrix: (Units=1/GPa)
#
#
# Indices 1 2 3 4 5 6 
#
# 1 0.009781 -0.000072 -0.002462 0.000000 0.002073 0.000000
# 2 -0.000072 0.017323 -0.000611 0.000000 0.001519 0.000000
# 3 -0.002462 -0.000611 0.014775 0.000000 -0.005368 0.000000
# 4 0.000000 0.000000 0.000000 0.036602 0.000000 0.006540
# 5 0.002073 0.001519 -0.005368 0.000000 0.029267 0.000000
# 6 0.000000 0.000000 0.000000 0.006540 0.000000 0.041703
#
#
# Mechanical properties :
#
#
# Convention : Reuss Voigt Hill
#
# Bulk Modulus (GPa) = 28.09834 30.99300 29.54567
# Shear Modulus (GPa) = 29.83183 32.68348 31.25765
#
# Velocity S-wave (km/s) = 3.77551 3.95184 3.86468
# Velocity P-wave (km/s) = 5.69492 5.96925 5.83370
#
# Compressibility (1/GPa) = 0.03558929
#
# Stress axis : x y z
#
# Youngs Moduli (GPa) = 102.23409 57.72539 67.68004
#
# Poissons Ratio (x) = 0.00416 0.16665
# Poissons Ratio (y) = 0.00737 0.04136
# Poissons Ratio (z) = 0.25174 0.03527
#
# Static dielectric constant tensor:
#      x y z
#    x 1.799040 0.000000 0.031620 
#    y 0.000000 1.736080 0.000000 
#    z 0.031620 0.000000 1.786330 
# 
# From -- ./inp_files/205792.got.cif
#   From: 2010.05.17/outbox.cif.g08.bks.cpg/sg15_103_cif.got.tgz:205792.got - 2010.06.03 18:47:42.
