data_PCOD9278196
_publ_section_title
;
Structure prediction by ZEFSAII (Michael W. Deem and Ramdas Pophale) SiO2 
 PCOD9278196
Probable space group: C 2/C
;
_chemical_formula_sum "Si O2"
_cell_formula_units_Z 64
_cell_length_a 29.809070
_cell_length_b 8.762180
_cell_length_c 14.680587
_cell_angle_alpha 90.000000
_cell_angle_beta 129.111391
_cell_angle_gamma 90.000000
_cell_volume 2975.236741
_symmetry_space_group_name_H-M "C 2/C"
_symmetry_group_IT_number 15
_symmetry_cell_setting 'monoclinic'
loop_
_space_group_symop_operation_xyz
x,y,z
-x,y,1/2-z
-x,-y,-z
x,-y,1/2+z
1/2+x,1/2+y,z
1/2-x,1/2+y,1/2-z
1/2-x,1/2-y,-z
1/2+x,1/2-y,1/2+z
loop_
_atom_site_type_symbol
_atom_site_label
_atom_site_fract_x
_atom_site_fract_y
_atom_site_fract_z
Si Si1 0.113738 0.903058 0.364538
Si Si2 0.643028 0.055340 0.964567
Si Si3 0.460651 0.651537 0.460512
Si Si4 0.957561 0.341842 0.626245
Si Si5 0.805820 0.672974 0.116031
Si Si6 0.717734 0.224607 0.211874
Si Si7 0.332866 0.435617 0.871198
Si Si8 0.944609 0.783864 0.743143
O O1 0.062996 0.801539 0.340584
O O2 0.144986 0.801006 0.330295
O O3 0.155013 0.934927 0.504350
O O4 0.088386 0.055924 0.293572
O O5 0.600298 0.169616 0.858907
O O6 0.600502 0.939167 0.963701
O O7 0.676547 0.963356 0.928728
O O8 0.684517 0.142907 0.086832
O O9 0.500000 0.500000 0.500000
O O10 0.481751 0.767825 0.565994
O O11 0.395360 0.597930 0.405301
O O12 0.461956 0.746522 0.368790
O O13 0.000000 0.429616 0.750000
O O14 0.796488 0.642301 0.210095
O O15 0.750000 0.750000 0.000000
O O16 0.696161 0.400451 0.189850
O O17 0.786393 0.196292 0.288276
O O18 0.000000 0.800708 0.750000
#
# Coordination Sequence:
#
# PCOD9278196 Si02
#       8
#     8   8   8   8   8   8   8   8
#     4  10  20  42  67  97 137 176 228 281 342 413
#     4  11  27  43  66 104 144 183 228 293 351 416
#     4  11  25  44  78 105 133 186 242 287 351 416
#     4  10  22  44  67  97 136 179 232 284 343 409
#     4  11  23  44  69  99 137 187 229 278 353 421
#     4  12  25  44  73  98 149 183 230 287 355 422
#     4  11  24  43  70 108 137 185 231 287 347 420
#     4  12  24  45  67 101 141 176 238 294 342 413
#
# _framework density 21.510894
#
# number of rings (size 3 to 8) (size 9 to 14) (size 15 to 20)
#    0.000    1.000    2.500    4.500    5.250    1.000 
#    0.000    3.125    0.000    0.000    0.000    0.000 
#    0.000    0.000    0.000    0.000    0.000    0.000 
#
# Total GULP energy -178897.211756 kJ/mol
# GULP energy per Si atom -5590.537867 kJ/mol
# Density = 2.146193 g / cm^3
# Si number density = 21.510894 Si / 1000 Ang^3
#
#
#
# Elastic Constant Matrix: (Units=GPa)
#
#
# Indices 1 2 3 4 5 6 
#
# 1 105.2150 17.7157 52.0681 0.0000 -10.3170 0.0000
# 2 17.7157 45.0901 8.5360 0.0000 -1.6658 0.0000
# 3 52.0681 8.5360 112.5916 0.0000 1.0056 0.0000
# 4 0.0000 0.0000 0.0000 39.3175 0.0000 8.9064
# 5 -10.3170 -1.6658 1.0056 0.0000 29.3417 0.0000
# 6 0.0000 0.0000 0.0000 8.9064 0.0000 -27.3340
#
#
#
# Elastic Compliance Matrix: (Units=1/GPa)
#
#
# Indices 1 2 3 4 5 6 
#
# 1 0.013645 -0.004040 -0.006047 0.000000 0.004776 0.000000
# 2 -0.004040 0.023749 0.000068 0.000000 -0.000075 0.000000
# 3 -0.006047 0.000068 0.011695 0.000000 -0.002523 0.000000
# 4 0.000000 0.000000 0.000000 0.023686 0.000000 0.007718
# 5 0.004776 -0.000075 -0.002523 0.000000 0.035843 0.000000
# 6 0.000000 0.000000 0.000000 0.007718 0.000000 -0.034070
#
#
# Mechanical properties :
#
#
# Convention : Reuss Voigt Hill
#
# Bulk Modulus (GPa) = 34.41927 46.61516 40.51721
# Shear Modulus (GPa) = 47.95272 20.57014 34.26143
#
# Velocity S-wave (km/s) = 4.72659 3.09571 3.99525
# Velocity P-wave (km/s) = 6.76928 5.87328 6.33714
#
# Compressibility (1/GPa) = 0.02905349
#
# Stress axis : x y z
#
# Youngs Moduli (GPa) = 73.28592 42.10632 85.50471
#
# Poissons Ratio (x) = 0.17011 0.51701
# Poissons Ratio (y) = 0.29608 -0.00585
# Poissons Ratio (z) = 0.44313 -0.00288
#
# Static dielectric constant tensor:
#      x y z
#    x 1.818470 0.000000 0.025240 
#    y 0.000000 1.785630 0.000000 
#    z 0.025240 0.000000 1.819060 
# 
# From -- ./inp_files/181199.got.cif
#   From: 2010.05.17/outbox.cif.g08.bks.cpg/sg15_91_cif.got.tgz:181199.got - 2010.06.03 18:47:42.
