data_PCOD9278135
_publ_section_title
;
Structure prediction by ZEFSAII (Michael W. Deem and Ramdas Pophale) SiO2 
 PCOD9278135
Probable space group: C 2/C
;
_chemical_formula_sum "Si O2"
_cell_formula_units_Z 60
_cell_length_a 12.093942
_cell_length_b 23.694226
_cell_length_c 9.714695
_cell_angle_alpha 90.000000
_cell_angle_beta 85.958972
_cell_angle_gamma 90.000000
_cell_volume 2776.888934
_symmetry_space_group_name_H-M "C 2/C"
_symmetry_group_IT_number 15
_symmetry_cell_setting 'monoclinic'
loop_
_space_group_symop_operation_xyz
x,y,z
-x,y,1/2-z
-x,-y,-z
x,-y,1/2+z
1/2+x,1/2+y,z
1/2-x,1/2+y,1/2-z
1/2-x,1/2-y,-z
1/2+x,1/2-y,1/2+z
loop_
_atom_site_type_symbol
_atom_site_label
_atom_site_fract_x
_atom_site_fract_y
_atom_site_fract_z
Si Si1 0.809489 0.008666 0.337006
Si Si2 0.063833 0.541111 0.888360
Si Si3 0.128561 0.167008 0.772220
Si Si4 0.701036 0.639910 0.074904
Si Si5 0.121796 0.054512 0.428991
Si Si6 0.199821 0.635399 0.987220
Si Si7 0.000000 0.139165 0.250000
Si Si8 0.373514 0.198417 0.247830
O O1 0.803035 0.073763 0.384510
O O2 0.856278 0.005764 0.181088
O O3 0.686716 0.984021 0.354520
O O4 0.893144 0.973868 0.424558
O O5 0.089482 0.604271 0.942056
O O6 0.000000 0.542822 0.750000
O O7 0.000000 0.500000 0.000000
O O8 0.214281 0.149142 0.643672
O O9 0.128667 0.234975 0.777993
O O10 0.000000 0.149846 0.750000
O O11 0.173934 0.146543 0.916585
O O12 0.604346 0.670116 0.175803
O O13 0.812112 0.666550 0.128176
O O14 0.237379 0.088210 0.427934
O O15 0.038347 0.098952 0.372123
O O16 0.179232 0.684926 0.097699
O O17 0.500000 0.178774 0.250000
#
# Coordination Sequence:
#
# PCOD9278135 Si02
#       8
#     8   8   8   8   8   8   4   8
#     4  10  22  38  59  89 134 169 215 269 330 403
#     4  11  25  38  65  98 137 180 231 271 336 421
#     4  11  26  45  70 102 134 175 238 299 354 414
#     4  11  24  42  72  95 137 176 230 284 357 419
#     4  10  21  37  60  91 124 169 211 261 329 407
#     4  11  23  43  67  96 140 176 225 283 351 409
#     4  10  20  42  66  94 130 172 220 268 346 400
#     4  11  25  46  71  97 134 181 234 292 361 418
#
# _framework density 21.606914
#
# number of rings (size 3 to 8) (size 9 to 14) (size 15 to 20)
#    0.000    1.333    2.667    3.200    7.467    2.133 
#    1.200    0.000    0.000    0.000    0.000    0.000 
#    0.000    0.000    0.000    0.000    0.000    0.000 
#
# Total GULP energy -167546.638663 kJ/mol
# GULP energy per Si atom -5584.887955 kJ/mol
# Density = 2.155774 g / cm^3
# Si number density = 21.606914 Si / 1000 Ang^3
#
#
#
# Elastic Constant Matrix: (Units=GPa)
#
#
# Indices 1 2 3 4 5 6 
#
# 1 114.1812 11.1863 54.1401 0.0000 22.8163 0.0000
# 2 11.1863 42.0063 15.3856 0.0000 17.4010 0.0000
# 3 54.1401 15.3856 122.8669 0.0000 27.3467 0.0000
# 4 0.0000 0.0000 0.0000 24.2656 0.0000 -1.0204
# 5 22.8163 17.4010 27.3467 0.0000 43.2818 0.0000
# 6 0.0000 0.0000 0.0000 -1.0204 0.0000 27.1793
#
#
#
# Elastic Compliance Matrix: (Units=1/GPa)
#
#
# Indices 1 2 3 4 5 6 
#
# 1 0.011467 -0.000119 -0.004309 0.000000 -0.003275 0.000000
# 2 -0.000119 0.028714 -0.001149 0.000000 -0.010755 0.000000
# 3 -0.004309 -0.001149 0.011140 0.000000 -0.004305 0.000000
# 4 0.000000 0.000000 0.000000 0.041276 0.000000 0.001550
# 5 -0.003275 -0.010755 -0.004305 0.000000 0.031874 0.000000
# 6 0.000000 0.000000 0.000000 0.001550 0.000000 0.036851
#
#
# Mechanical properties :
#
#
# Convention : Reuss Voigt Hill
#
# Bulk Modulus (GPa) = 24.89677 48.94205 36.91941
# Shear Modulus (GPa) = 26.90113 32.16816 29.53465
#
# Velocity S-wave (km/s) = 3.53232 3.86267 3.70118
# Velocity P-wave (km/s) = 5.30886 6.52640 5.94886
#
# Compressibility (1/GPa) = 0.04016586
#
# Stress axis : x y z
#
# Youngs Moduli (GPa) = 87.20483 34.82625 89.76877
#
# Poissons Ratio (x) = 0.00414 0.38683
# Poissons Ratio (y) = 0.01037 0.10318
# Poissons Ratio (z) = 0.37579 0.04003
#
# Static dielectric constant tensor:
#      x y z
#    x 1.837310 0.000000 -0.002260 
#    y 0.000000 1.804880 0.000000 
#    z -0.002260 0.000000 1.796590 
# 
# From -- ./inp_files/34295.got.cif
#   From: 2010.05.17/outbox.cif.g08.bks.cpg/sg15_18_cif.got.tgz:34295.got - 2010.06.03 18:47:42.
