data_PCOD9278144
_publ_section_title
;
Structure prediction by ZEFSAII (Michael W. Deem and Ramdas Pophale) SiO2 
 PCOD9278144
Probable space group: C 2/C
;
_chemical_formula_sum "Si O2"
_cell_formula_units_Z 48
_cell_length_a 17.372985
_cell_length_b 8.311831
_cell_length_c 25.807596
_cell_angle_alpha 90.000000
_cell_angle_beta 32.583972
_cell_angle_gamma 90.000000
_cell_volume 2006.932247
_symmetry_space_group_name_H-M "C 2/C"
_symmetry_group_IT_number 15
_symmetry_cell_setting 'monoclinic'
loop_
_space_group_symop_operation_xyz
x,y,z
-x,y,1/2-z
-x,-y,-z
x,-y,1/2+z
1/2+x,1/2+y,z
1/2-x,1/2+y,1/2-z
1/2-x,1/2-y,-z
1/2+x,1/2-y,1/2+z
loop_
_atom_site_type_symbol
_atom_site_label
_atom_site_fract_x
_atom_site_fract_y
_atom_site_fract_z
Si Si1 0.058386 0.718561 0.052973
Si Si2 0.727438 0.926505 0.768440
Si Si3 0.524908 0.119641 0.616913
Si Si4 0.550710 0.453671 0.616800
Si Si5 0.773799 0.311084 0.847143
Si Si6 0.000000 0.941861 0.250000
Si Si7 0.000000 0.555430 0.750000
O O1 0.887402 0.699742 0.143215
O O2 0.098060 0.550997 0.060049
O O3 0.138335 0.741986 0.953769
O O4 0.090365 0.877776 0.067997
O O5 0.877933 0.937818 0.710119
O O6 0.751374 0.882185 0.694904
O O7 0.629158 0.088607 0.823232
O O8 0.599125 0.288418 0.561406
O O9 0.498249 0.131160 0.693815
O O10 0.585307 0.462251 0.658062
O O11 0.893056 0.172492 0.779215
O O12 0.856000 0.448202 0.832838
#
# Coordination Sequence:
#
# PCOD9278144 Si02
#       7
#     8   8   8   8   8   4   4
#     4  10  22  39  69  93 125 176 213 268 322 385
#     4   9  21  42  65  91 130 171 212 270 317 380
#     4   9  21  36  59  92 125 164 212 267 319 375
#     4  12  21  41  65  94 131 171 218 262 328 385
#     4  10  20  42  66  95 128 170 222 258 328 391
#     4  11  23  38  68  99 129 178 215 269 326 387
#     4   9  17  38  60  87 129 168 199 271 328 371
#
# _framework density 23.917100999999999
#
# number of rings (size 3 to 8) (size 9 to 14) (size 15 to 20)
#    1.000    1.000    1.667    2.500    0.000    3.333 
#    0.000   10.000    0.000    0.000    0.000    0.000 
#    0.000    0.000    0.000    0.000    0.000    0.000 
#
# Total GULP energy -133884.542790 kJ/mol
# GULP energy per Si atom -5578.522616 kJ/mol
# Density = 2.386266 g / cm^3
# Si number density = 23.917101 Si / 1000 Ang^3
#
#
#
# Elastic Constant Matrix: (Units=GPa)
#
#
# Indices 1 2 3 4 5 6 
#
# 1 58.6940 -1.9925 -10.5353 -0.0003 -5.0308 0.0006
# 2 -1.9925 163.1046 2.9181 0.0003 12.4923 0.0000
# 3 -10.5353 2.9181 71.7423 -0.0014 8.5744 0.0014
# 4 -0.0003 0.0003 -0.0014 -71.4092 0.0007 81.0551
# 5 -5.0308 12.4923 8.5744 0.0007 22.0298 -0.0008
# 6 0.0006 0.0000 0.0014 81.0551 -0.0008 -49.9243
#
#
#
# Elastic Compliance Matrix: (Units=1/GPa)
#
#
# Indices 1 2 3 4 5 6 
#
# 1 0.017709 -0.000070 0.002219 0.000000 0.003220 0.000000
# 2 -0.000070 0.006412 0.000173 0.000000 -0.003719 0.000000
# 3 0.002219 0.000173 0.014902 0.000000 -0.005392 0.000000
# 4 0.000000 0.000000 0.000000 0.016614 0.000001 0.026975
# 5 0.003220 -0.003719 -0.005392 0.000001 0.050336 0.000000
# 6 0.000000 0.000000 0.000000 0.026975 0.000000 0.023764
#
#
# Mechanical properties :
#
#
# Convention : Reuss Voigt Hill
#
# Bulk Modulus (GPa) = 22.90044 30.48017 26.69030
# Shear Modulus (GPa) = 35.80376 0.34930 18.07653
#
# Velocity S-wave (km/s) = 3.87330 0.38257 2.75216
# Velocity P-wave (km/s) = 5.44049 3.60096 4.61334
#
# Compressibility (1/GPa) = 0.04366729
#
# Stress axis : x y z
#
# Youngs Moduli (GPa) = 56.46728 155.95875 67.10541
#
# Poissons Ratio (x) = 0.01092 -0.14888
# Poissons Ratio (y) = 0.00395 -0.01164
# Poissons Ratio (z) = -0.12528 -0.02705
#
# Static dielectric constant tensor:
#      x y z
#    x 1.865940 0.000000 -0.036980 
#    y 0.000000 2.058400 0.000000 
#    z -0.036980 0.000000 1.919470 
# 
# From -- ./inp_files/300479.got.cif
#   From: 2010.05.17/outbox.cif.g08.bks.cpg/sg15_151_cif.got.tgz:300479.got - 2010.06.03 18:47:42.
