data_PCOD9278118
_publ_section_title
;
Structure prediction by ZEFSAII (Michael W. Deem and Ramdas Pophale) SiO2 
 PCOD9278118
Probable space group: C 2/C
;
_chemical_formula_sum "Si O2"
_cell_formula_units_Z 60
_cell_length_a 11.571603
_cell_length_b 26.458043
_cell_length_c 9.153392
_cell_angle_alpha 90.000000
_cell_angle_beta 98.418657
_cell_angle_gamma 90.000000
_cell_volume 2772.223637
_symmetry_space_group_name_H-M "C 2/C"
_symmetry_group_IT_number 15
_symmetry_cell_setting 'monoclinic'
loop_
_space_group_symop_operation_xyz
x,y,z
-x,y,1/2-z
-x,-y,-z
x,-y,1/2+z
1/2+x,1/2+y,z
1/2-x,1/2+y,1/2-z
1/2-x,1/2-y,-z
1/2+x,1/2-y,1/2+z
loop_
_atom_site_type_symbol
_atom_site_label
_atom_site_fract_x
_atom_site_fract_y
_atom_site_fract_z
Si Si1 0.648351 0.403246 0.441208
Si Si2 0.742424 0.246487 0.173787
Si Si3 0.259231 0.997036 0.883166
Si Si4 0.344748 0.708262 0.463038
Si Si5 0.783980 0.862283 0.342540
Si Si6 0.377740 0.952319 0.151016
Si Si7 0.431919 0.411819 0.594884
Si Si8 0.500000 0.747300 0.750000
O O1 0.738706 0.449109 0.456915
O O2 0.685837 0.350861 0.525131
O O3 0.639217 0.388090 0.269764
O O4 0.531579 0.423227 0.494939
O O5 0.844065 0.220752 0.289318
O O6 0.739263 0.306001 0.211230
O O7 0.616163 0.225336 0.207593
O O8 0.750000 0.250000 0.000000
O O9 0.286960 0.012423 0.723399
O O10 0.148805 0.959917 0.881827
O O11 0.365533 0.968403 0.981660
O O12 0.250000 0.750000 0.500000
O O13 0.453240 0.717226 0.596036
O O14 0.667599 0.895347 0.336804
O O15 0.851274 0.869099 0.507008
O O16 0.500000 0.958702 0.250000
O O17 0.500000 0.394636 0.750000
#
# Coordination Sequence:
#
# PCOD9278118 Si02
#       8
#     8   8   8   8   8   8   8   4
#     4  11  20  37  63  89 128 174 200 258 334 383
#     4  11  24  43  64  95 132 171 221 274 330 387
#     4  10  22  38  61  91 127 159 212 263 316 387
#     4  10  21  40  66  91 133 169 222 267 318 406
#     4  10  22  40  61  93 125 167 217 259 319 395
#     4  10  21  41  64  85 119 167 211 261 313 373
#     4  11  23  36  59  98 133 162 210 262 331 399
#     4  10  20  42  66  92 122 172 212 260 338 384
#
# _framework density 21.643276
#
# number of rings (size 3 to 8) (size 9 to 14) (size 15 to 20)
#    0.000    1.600    2.667    2.800    1.867    2.667 
#    2.400    0.000    5.867    0.000    0.000    0.000 
#    0.000    0.000    0.000    0.000    0.000    0.000 
#
# Total GULP energy -167213.114906 kJ/mol
# GULP energy per Si atom -5573.770497 kJ/mol
# Density = 2.159402 g / cm^3
# Si number density = 21.643276 Si / 1000 Ang^3
#
#
#
# Elastic Constant Matrix: (Units=GPa)
#
#
# Indices 1 2 3 4 5 6 
#
# 1 46.7849 16.6917 24.0792 0.0000 7.4713 0.0000
# 2 16.6917 69.4763 28.2747 0.0000 21.9940 0.0000
# 3 24.0792 28.2747 139.6543 0.0000 18.8304 0.0000
# 4 0.0000 0.0000 0.0000 26.6489 0.0000 -6.5991
# 5 7.4713 21.9940 18.8304 0.0000 28.7098 0.0000
# 6 0.0000 0.0000 0.0000 -6.5991 0.0000 11.3110
#
#
#
# Elastic Compliance Matrix: (Units=1/GPa)
#
#
# Indices 1 2 3 4 5 6 
#
# 1 0.024748 -0.004300 -0.003261 0.000000 -0.001008 0.000000
# 2 -0.004300 0.020309 -0.001562 0.000000 -0.013415 0.000000
# 3 -0.003261 -0.001562 0.008516 0.000000 -0.003541 0.000000
# 4 0.000000 0.000000 0.000000 0.043862 0.000000 0.025590
# 5 -0.001008 -0.013415 -0.003541 0.000000 0.047693 0.000000
# 6 0.000000 0.000000 0.000000 0.025590 0.000000 0.103340
#
#
# Mechanical properties :
#
#
# Convention : Reuss Voigt Hill
#
# Bulk Modulus (GPa) = 28.30540 43.77852 36.04196
# Shear Modulus (GPa) = 17.95415 25.79191 21.87303
#
# Velocity S-wave (km/s) = 2.88331 3.45582 3.18247
# Velocity P-wave (km/s) = 4.91846 6.01621 5.49482
#
# Compressibility (1/GPa) = 0.03532895
#
# Stress axis : x y z
#
# Youngs Moduli (GPa) = 40.40810 49.24007 117.42135
#
# Poissons Ratio (x) = 0.21171 0.38286
# Poissons Ratio (y) = 0.17374 0.18336
# Poissons Ratio (z) = 0.13175 0.07689
#
# Static dielectric constant tensor:
#      x y z
#    x 1.845190 0.000000 -0.038060 
#    y 0.000000 1.766820 0.000000 
#    z -0.038060 0.000000 1.876710 
# 
# From -- ./inp_files/35261.got.cif
#   From: 2010.05.17/outbox.cif.g08.bks.cpg/sg15_18_cif.got.tgz:35261.got - 2010.06.03 18:47:42.
