data_PCOD9278123
_publ_section_title
;
Structure prediction by ZEFSAII (Michael W. Deem and Ramdas Pophale) SiO2 
 PCOD9278123
Probable space group: C 2/C
;
_chemical_formula_sum "Si O2"
_cell_formula_units_Z 44
_cell_length_a 24.934379
_cell_length_b 7.603059
_cell_length_c 23.407971
_cell_angle_alpha 90.000000
_cell_angle_beta 22.227681
_cell_angle_gamma 90.000000
_cell_volume 1678.700865
_symmetry_space_group_name_H-M "C 2/C"
_symmetry_group_IT_number 15
_symmetry_cell_setting 'monoclinic'
loop_
_space_group_symop_operation_xyz
x,y,z
-x,y,1/2-z
-x,-y,-z
x,-y,1/2+z
1/2+x,1/2+y,z
1/2-x,1/2+y,1/2-z
1/2-x,1/2-y,-z
1/2+x,1/2-y,1/2+z
loop_
_atom_site_type_symbol
_atom_site_label
_atom_site_fract_x
_atom_site_fract_y
_atom_site_fract_z
Si Si1 0.500000 0.876201 0.750000
Si Si2 0.495461 0.892776 0.443089
Si Si3 0.762045 0.355039 0.161641
Si Si4 0.190596 0.947849 0.361679
Si Si5 0.975563 0.088516 0.694623
Si Si6 0.214242 0.058770 0.014896
O O1 0.552856 0.757604 0.645191
O O2 0.634541 0.972094 0.643036
O O3 0.657010 0.887450 0.262947
O O4 0.432058 0.696904 0.508730
O O5 0.500000 0.000000 0.500000
O O6 0.383972 0.013571 0.519298
O O7 0.714272 0.431315 0.270001
O O8 0.621800 0.364046 0.261861
O O9 0.105325 0.950460 0.568954
O O10 0.179483 0.155355 0.388140
O O11 0.866774 0.026545 0.851161
O O12 0.250000 0.250000 0.000000
#
# Coordination Sequence:
#
# PCOD9278123 Si02
#       6
#     4   8   8   8   8   8
#     4  10  20  42  66  92 132 172 212 280 352 420
#     4  10  23  43  66  94 134 189 237 298 352 408
#     4  11  23  43  67 100 142 186 238 288 349 421
#     4  11  23  45  68  95 142 192 240 299 354 408
#     4  10  22  41  68  99 134 178 224 276 352 423
#     4  10  21  44  69  99 135 170 221 290 351 419
#
# _framework density 26.210744999999999
#
# number of rings (size 3 to 8) (size 9 to 14) (size 15 to 20)
#    0.000    1.818    3.636    3.273    0.000    7.273 
#    9.818    0.000    0.000    0.000    0.000    0.000 
#    0.000    0.000    0.000    0.000    0.000    0.000 
#
# Total GULP energy -123115.034187 kJ/mol
# GULP energy per Si atom -5596.137918 kJ/mol
# Density = 2.615109 g / cm^3
# Si number density = 26.210745 Si / 1000 Ang^3
#
#
#
# Elastic Constant Matrix: (Units=GPa)
#
#
# Indices 1 2 3 4 5 6 
#
# 1 179.9723 63.8256 24.2244 -0.0012 -31.1143 0.0007
# 2 63.8256 145.8681 27.7748 0.0020 -15.0267 -0.0005
# 3 24.2244 27.7748 81.8923 0.0000 -29.7359 0.0002
# 4 -0.0012 0.0020 0.0000 72.7115 0.0003 -25.7237
# 5 -31.1143 -15.0267 -29.7359 0.0003 45.8011 0.0000
# 6 0.0007 -0.0005 0.0002 -25.7237 0.0000 47.1018
#
#
#
# Elastic Compliance Matrix: (Units=1/GPa)
#
#
# Indices 1 2 3 4 5 6 
#
# 1 0.007230 -0.002794 0.000340 0.000000 0.004216 0.000000
# 2 -0.002794 0.008446 -0.002252 0.000000 -0.000589 0.000000
# 3 0.000340 -0.002252 0.016604 0.000000 0.010272 0.000000
# 4 0.000000 0.000000 0.000000 0.017047 0.000000 0.009310
# 5 0.004216 -0.000589 0.010272 0.000000 0.031173 0.000000
# 6 0.000000 0.000000 0.000000 0.009310 0.000000 0.026315
#
#
# Mechanical properties :
#
#
# Convention : Reuss Voigt Hill
#
# Bulk Modulus (GPa) = 43.72949 71.04250 57.38599
# Shear Modulus (GPa) = 40.37100 52.58341 46.47721
#
# Velocity S-wave (km/s) = 3.92885 4.48390 4.21552
# Velocity P-wave (km/s) = 6.10747 7.34645 6.75542
#
# Compressibility (1/GPa) = 0.02286786
#
# Stress axis : x y z
#
# Youngs Moduli (GPa) = 138.30447 118.39635 60.22499
#
# Poissons Ratio (x) = 0.33081 -0.02045
# Poissons Ratio (y) = 0.38644 0.13563
# Poissons Ratio (z) = -0.04696 0.26664
#
# Static dielectric constant tensor:
#      x y z
#    x 3.286960 0.000100 -3.810750 
#    y 0.000100 2.155930 -0.000310 
#    z -3.810750 -0.000310 14.379060 
# 
# From -- ./inp_files/257462.got.cif
#   From: 2010.05.17/outbox.cif.g08.bks.cpg/sg15_129_cif.got.tgz:257462.got - 2010.06.03 18:47:42.
