data_PCOD9278218
_publ_section_title
;
Structure prediction by ZEFSAII (Michael W. Deem and Ramdas Pophale) SiO2 
 PCOD9278218
Probable space group: C 2/C
;
_chemical_formula_sum "Si O2"
_cell_formula_units_Z 48
_cell_length_a 31.716306
_cell_length_b 9.183148
_cell_length_c 19.250707
_cell_angle_alpha 90.000000
_cell_angle_beta 25.199919
_cell_angle_gamma 90.000000
_cell_volume 2387.284054
_symmetry_space_group_name_H-M "C 2/C"
_symmetry_group_IT_number 15
_symmetry_cell_setting 'monoclinic'
loop_
_space_group_symop_operation_xyz
x,y,z
-x,y,1/2-z
-x,-y,-z
x,-y,1/2+z
1/2+x,1/2+y,z
1/2-x,1/2+y,1/2-z
1/2-x,1/2-y,-z
1/2+x,1/2-y,1/2+z
loop_
_atom_site_type_symbol
_atom_site_label
_atom_site_fract_x
_atom_site_fract_y
_atom_site_fract_z
Si Si1 0.730567 0.040404 0.625431
Si Si2 0.115297 0.630802 0.412681
Si Si3 0.786399 0.361001 0.588954
Si Si4 0.602553 0.420868 0.337537
Si Si5 0.854185 0.191954 0.875165
Si Si6 0.418574 0.007335 0.779834
O O1 0.760886 0.204114 0.595872
O O2 0.659798 0.984519 0.792213
O O3 0.822291 0.926719 0.480005
O O4 0.669348 0.034344 0.645061
O O5 0.190005 0.653840 0.365091
O O6 0.104633 0.778346 0.383568
O O7 0.015184 0.570178 0.597628
O O8 0.697594 0.476596 0.710061
O O9 0.882783 0.416354 0.403508
O O10 0.500000 0.500000 0.500000
O O11 0.600551 0.381532 0.259538
O O12 0.918233 0.334381 0.797191
O O13 0.750000 0.250000 0.000000
#
# Coordination Sequence:
#
# PCOD9278218 Si02
#       6
#     8   8   8   8   8   8
#     4  11  22  41  70  94 125 175 220 265 318 397
#     4  12  25  42  65  98 137 167 218 274 335 387
#     4  12  25  42  65  98 138 169 207 282 342 373
#     4  12  25  43  68  98 126 174 226 271 314 401
#     4  10  20  42  68  90 124 164 224 267 308 380
#     4  11  22  42  68  94 125 179 217 265 318 400
#
# _framework density 20.106532000000001
#
# number of rings (size 3 to 8) (size 9 to 14) (size 15 to 20)
#    0.000    0.667    6.667    3.500    4.667    0.000 
#    0.000    0.000    3.667    0.000    0.000    0.000 
#    0.000    0.000    0.000    0.000    0.000    0.000 
#
# Total GULP energy -134059.346291 kJ/mol
# GULP energy per Si atom -5585.806095 kJ/mol
# Density = 2.006077 g / cm^3
# Si number density = 20.106532 Si / 1000 Ang^3
#
#
#
# Elastic Constant Matrix: (Units=GPa)
#
#
# Indices 1 2 3 4 5 6 
#
# 1 40.7011 -0.5021 0.7084 0.0001 8.5449 -0.0001
# 2 -0.5021 137.0013 66.2944 0.0002 -6.8125 -0.0002
# 3 0.7084 66.2944 145.4998 0.0002 17.2828 -0.0001
# 4 0.0001 0.0002 0.0002 46.6052 -0.0001 11.8699
# 5 8.5449 -6.8125 17.2828 -0.0001 25.3909 0.0001
# 6 -0.0001 -0.0002 -0.0001 11.8699 0.0001 5.6906
#
#
#
# Elastic Compliance Matrix: (Units=1/GPa)
#
#
# Indices 1 2 3 4 5 6 
#
# 1 0.026722 -0.001233 0.001674 0.000000 -0.010463 0.000001
# 2 -0.001233 0.010308 -0.005514 0.000000 0.006934 0.000000
# 3 0.001674 -0.005514 0.010466 0.000000 -0.009167 0.000001
# 4 0.000000 0.000000 0.000000 0.045775 0.000001 -0.095482
# 5 -0.010463 0.006934 -0.009167 0.000001 0.051005 -0.000002
# 6 0.000001 0.000000 0.000001 -0.095482 -0.000002 0.374893
#
#
# Mechanical properties :
#
#
# Convention : Reuss Voigt Hill
#
# Bulk Modulus (GPa) = 26.77332 50.68929 38.73131
# Shear Modulus (GPa) = 9.22911 32.65076 20.93994
#
# Velocity S-wave (km/s) = 2.14478 4.03412 3.23065
# Velocity P-wave (km/s) = 4.41340 6.85302 5.76377
#
# Compressibility (1/GPa) = 0.03735062
#
# Stress axis : x y z
#
# Youngs Moduli (GPa) = 37.42285 97.01447 95.54762
#
# Poissons Ratio (x) = 0.11957 -0.15998
# Poissons Ratio (y) = 0.04613 0.52686
# Poissons Ratio (z) = -0.06266 0.53495
#
# Static dielectric constant tensor:
#      x y z
#    x 1.683540 0.000000 -0.034680 
#    y 0.000000 1.732840 0.000000 
#    z -0.034680 0.000000 1.681380 
# 
# From -- ./inp_files/224554.got.cif
#   From: 2010.05.17/outbox.cif.g08.bks.cpg/sg15_113_cif.got.tgz:224554.got - 2010.06.03 18:47:42.
