data_PCOD9278913
_publ_section_title
;
Structure prediction by ZEFSAII (Michael W. Deem and Ramdas Pophale) SiO2 
 PCOD9278913
Probable space group: C 2/C
;
_chemical_formula_sum "Si O2"
_cell_formula_units_Z 48
_cell_length_a 20.843685
_cell_length_b 19.881790
_cell_length_c 5.225255
_cell_angle_alpha 90.000000
_cell_angle_beta 79.267962
_cell_angle_gamma 90.000000
_cell_volume 2127.521377
_symmetry_space_group_name_H-M "C 2/C"
_symmetry_group_IT_number 15
_symmetry_cell_setting 'monoclinic'
loop_
_space_group_symop_operation_xyz
x,y,z
-x,y,1/2-z
-x,-y,-z
x,-y,1/2+z
1/2+x,1/2+y,z
1/2-x,1/2+y,1/2-z
1/2-x,1/2-y,-z
1/2+x,1/2-y,1/2+z
loop_
_atom_site_type_symbol
_atom_site_label
_atom_site_fract_x
_atom_site_fract_y
_atom_site_fract_z
Si Si1 0.666504 0.746290 0.784387
Si Si2 0.794644 0.323195 0.245078
Si Si3 0.305851 0.964066 0.990522
Si Si4 0.962177 0.119786 0.027693
Si Si5 0.018536 0.734258 0.485900
Si Si6 0.351186 0.463431 0.436647
O O1 0.715709 0.684274 0.790139
O O2 0.677627 0.770389 0.485184
O O3 0.591222 0.737324 0.908513
O O4 0.688160 0.802730 0.978050
O O5 0.819778 0.393677 0.119786
O O6 0.226944 0.962080 0.012607
O O7 0.327689 0.019458 0.185323
O O8 0.000000 0.094088 0.250000
O O9 0.887578 0.100256 0.032797
O O10 0.000000 0.094107 0.750000
O O11 0.971704 0.200214 0.027001
O O12 0.000000 0.693759 0.250000
O O13 0.000000 0.694393 0.750000
O O14 0.370917 0.520486 0.630713
#
# Coordination Sequence:
#
# PCOD9278913 Si02
#       6
#     8   8   8   8   8   8
#     4  10  21  38  57  87 113 150 201 234 301 340
#     4  10  21  37  61  83 114 154 187 255 284 354
#     4  10  21  37  56  84 114 150 192 242 289 333
#     4  10  21  33  47  70  93 147 185 231 275 306
#     4  10  21  36  54  80 111 148 186 234 281 349
#     4  10  21  35  49  70 104 145 193 239 262 306
#
# _framework density 22.561464999999998
#
# number of rings (size 3 to 8) (size 9 to 14) (size 15 to 20)
#    0.000    2.000    0.000    3.000    4.667    2.000 
#   12.000    0.000    0.000    0.000    0.000    0.000 
#    0.000   46.667    0.000    0.000    0.000    0.000 
#
# Total GULP energy -133868.793507 kJ/mol
# GULP energy per Si atom -5577.866396 kJ/mol
# Density = 2.251011 g / cm^3
# Si number density = 22.561465 Si / 1000 Ang^3
#
#
#
# Elastic Constant Matrix: (Units=GPa)
#
#
# Indices 1 2 3 4 5 6 
#
# 1 44.7020 -7.9272 19.6009 0.0000 -0.5147 0.0000
# 2 -7.9272 31.7596 -11.9250 0.0000 11.6182 0.0000
# 3 19.6009 -11.9250 148.8338 0.0000 9.2296 0.0000
# 4 0.0000 0.0000 0.0000 18.3472 0.0000 6.3211
# 5 -0.5147 11.6182 9.2296 0.0000 24.6534 0.0000
# 6 0.0000 0.0000 0.0000 6.3211 0.0000 7.7317
#
#
#
# Elastic Compliance Matrix: (Units=1/GPa)
#
#
# Indices 1 2 3 4 5 6 
#
# 1 0.024526 0.005483 -0.002725 0.000000 -0.001052 0.000000
# 2 0.005483 0.042105 0.003967 0.000000 -0.021213 0.000000
# 3 -0.002725 0.003967 0.007694 0.000000 -0.004807 0.000000
# 4 0.000000 0.000000 0.000000 0.075877 0.000000 -0.062034
# 5 -0.001052 -0.021213 -0.004807 0.000000 0.052337 0.000000
# 6 0.000000 0.000000 0.000000 -0.062034 0.000000 0.180055
#
#
# Mechanical properties :
#
#
# Convention : Reuss Voigt Hill
#
# Bulk Modulus (GPa) = 11.39305 24.97698 18.18501
# Shear Modulus (GPa) = 12.55015 25.18290 18.86653
#
# Velocity S-wave (km/s) = 2.36109 3.34457 2.89490
# Velocity P-wave (km/s) = 3.53464 5.09995 4.38767
#
# Compressibility (1/GPa) = 0.08777282
#
# Stress axis : x y z
#
# Youngs Moduli (GPa) = 40.77369 23.75042 129.97572
#
# Poissons Ratio (x) = -0.13022 0.35424
# Poissons Ratio (y) = -0.22356 -0.51560
# Poissons Ratio (z) = 0.11113 -0.09422
#
# Static dielectric constant tensor:
#      x y z
#    x 1.865420 0.000000 0.041580 
#    y 0.000000 1.881710 0.000000 
#    z 0.041580 0.000000 1.969990 
# 
# From -- ./inp_files/13553.got.cif
#   From: 2010.05.17/outbox.cif.g08.bks.cpg/sg15_7_cif.got.tgz:13553.got - 2010.06.03 18:47:42.
