data_PCOD9278258
_publ_section_title
;
Structure prediction by ZEFSAII (Michael W. Deem and Ramdas Pophale) SiO2 
 PCOD9278258
Probable space group: C 2/C
;
_chemical_formula_sum "Si O2"
_cell_formula_units_Z 36
_cell_length_a 11.461542
_cell_length_b 12.505006
_cell_length_c 23.017835
_cell_angle_alpha 90.000000
_cell_angle_beta 147.749533
_cell_angle_gamma 90.000000
_cell_volume 1760.453963
_symmetry_space_group_name_H-M "C 2/C"
_symmetry_group_IT_number 15
_symmetry_cell_setting 'monoclinic'
loop_
_space_group_symop_operation_xyz
x,y,z
-x,y,1/2-z
-x,-y,-z
x,-y,1/2+z
1/2+x,1/2+y,z
1/2-x,1/2+y,1/2-z
1/2-x,1/2-y,-z
1/2+x,1/2-y,1/2+z
loop_
_atom_site_type_symbol
_atom_site_label
_atom_site_fract_x
_atom_site_fract_y
_atom_site_fract_z
Si Si1 0.390904 0.146619 0.577627
Si Si2 0.255910 0.315244 0.139888
Si Si3 0.213558 0.074513 0.961120
Si Si4 0.500000 0.793378 0.250000
Si Si5 0.533944 0.253473 0.082057
O O1 0.250000 0.250000 0.500000
O O2 0.621080 0.154987 0.640032
O O3 0.431245 0.143162 0.663417
O O4 0.260605 0.042508 0.502244
O O5 0.500000 0.270679 0.250000
O O6 0.287894 0.416047 0.109442
O O7 0.097367 0.240396 0.034244
O O8 0.006680 0.136869 0.900583
O O9 0.412809 0.155081 0.062660
O O10 0.284879 0.728600 0.177213
#
# Coordination Sequence:
#
# PCOD9278258 Si02
#       5
#     8   8   8   4   8
#     4  12  24  44  63  96 135 172 220 270 325 390
#     4  10  20  42  68  97 127 169 221 267 323 388
#     4   9  21  44  65  93 130 168 219 266 327 387
#     4  12  24  44  62 102 136 170 220 268 330 390
#     4   9  21  44  66  95 134 165 222 267 326 389
#
# _framework density 20.449272000000001
#
# number of rings (size 3 to 8) (size 9 to 14) (size 15 to 20)
#    1.333    0.444    2.222    2.000    0.000    0.889 
#   14.000    0.000    0.000    0.000    0.000    0.000 
#    0.000    0.000    0.000    0.000    0.000    0.000 
#
# Total GULP energy -100268.199334 kJ/mol
# GULP energy per Si atom -5570.455519 kJ/mol
# Density = 2.040273 g / cm^3
# Si number density = 20.449272 Si / 1000 Ang^3
#
#
#
# Elastic Constant Matrix: (Units=GPa)
#
#
# Indices 1 2 3 4 5 6 
#
# 1 93.9143 39.4200 33.7651 0.0000 -21.7439 0.0000
# 2 39.4200 95.6769 31.4349 0.0000 8.9586 0.0000
# 3 33.7651 31.4349 105.3666 0.0001 11.7622 -0.0001
# 4 0.0000 0.0000 0.0001 14.2578 0.0000 -9.3351
# 5 -21.7439 8.9586 11.7622 0.0000 39.8503 0.0000
# 6 0.0000 0.0000 -0.0001 -9.3351 0.0000 7.9898
#
#
#
# Elastic Compliance Matrix: (Units=1/GPa)
#
#
# Indices 1 2 3 4 5 6 
#
# 1 0.018689 -0.007201 -0.005336 0.000000 0.013391 0.000000
# 2 -0.007201 0.014467 -0.001248 0.000000 -0.006813 0.000000
# 3 -0.005336 -0.001248 0.012271 0.000000 -0.006253 0.000000
# 4 0.000000 0.000000 0.000000 0.298443 0.000000 0.348697
# 5 0.013391 -0.006813 -0.006253 0.000000 0.035778 0.000000
# 6 0.000000 0.000000 0.000000 0.348697 0.000000 0.532573
#
#
# Mechanical properties :
#
#
# Convention : Reuss Voigt Hill
#
# Bulk Modulus (GPa) = 55.99789 56.02197 56.00993
# Shear Modulus (GPa) = 5.28685 25.10876 15.19780
#
# Velocity S-wave (km/s) = 1.60965 3.50788 2.72912
# Velocity P-wave (km/s) = 5.55859 6.62284 6.11391
#
# Compressibility (1/GPa) = 0.01785782
#
# Stress axis : x y z
#
# Youngs Moduli (GPa) = 53.50610 69.12428 81.49466
#
# Poissons Ratio (x) = 0.49777 0.43482
# Poissons Ratio (y) = 0.38530 0.10169
# Poissons Ratio (z) = 0.28549 0.08625
#
# Static dielectric constant tensor:
#      x y z
#    x 1.890940 0.000000 0.009830 
#    y 0.000000 1.687450 0.000000 
#    z 0.009830 0.000000 1.769480 
# 
# From -- ./inp_files/269398.got.cif
#   From: 2010.05.17/outbox.cif.g08.bks.cpg/sg15_135_cif.got.tgz:269398.got - 2010.06.03 18:47:42.
