data_PCOD9278377
_publ_section_title
;
Structure prediction by ZEFSAII (Michael W. Deem and Ramdas Pophale) SiO2 
 PCOD9278377
Probable space group: C 2/C
;
_chemical_formula_sum "Si O2"
_cell_formula_units_Z 60
_cell_length_a 8.743728
_cell_length_b 26.507205
_cell_length_c 24.960962
_cell_angle_alpha 90.000000
_cell_angle_beta 149.572597
_cell_angle_gamma 90.000000
_cell_volume 2929.916419
_symmetry_space_group_name_H-M "C 2/C"
_symmetry_group_IT_number 15
_symmetry_cell_setting 'monoclinic'
loop_
_space_group_symop_operation_xyz
x,y,z
-x,y,1/2-z
-x,-y,-z
x,-y,1/2+z
1/2+x,1/2+y,z
1/2-x,1/2+y,1/2-z
1/2-x,1/2-y,-z
1/2+x,1/2-y,1/2+z
loop_
_atom_site_type_symbol
_atom_site_label
_atom_site_fract_x
_atom_site_fract_y
_atom_site_fract_z
Si Si1 0.817543 0.278186 0.834835
Si Si2 0.341230 0.016941 0.088549
Si Si3 0.322470 0.928571 0.375998
Si Si4 0.474460 0.680456 0.540496
Si Si5 0.412860 0.579076 0.576540
Si Si6 0.318692 0.733172 0.324582
Si Si7 0.500000 0.992161 0.250000
Si Si8 0.190767 0.327335 0.471337
O O1 0.500000 0.305572 0.750000
O O2 0.753770 0.253792 0.758100
O O3 0.117441 0.311201 0.924335
O O4 0.886793 0.233091 0.896934
O O5 0.512272 0.974521 0.104880
O O6 0.495255 0.023019 0.193040
O O7 0.299972 0.064722 0.037886
O O8 0.000000 0.000000 0.000000
O O9 0.251593 0.933517 0.417592
O O10 0.531563 0.879740 0.433805
O O11 0.000000 0.920438 0.250000
O O12 0.511783 0.636645 0.595933
O O13 0.633192 0.668836 0.532054
O O14 0.708587 0.543986 0.663514
O O15 0.574220 0.691358 0.412602
O O16 0.441915 0.782946 0.391404
O O17 0.000000 0.714602 0.250000
#
# Coordination Sequence:
#
# PCOD9278377 Si02
#       8
#     8   8   8   8   8   8   4   8
#     4  11  24  41  64  89 131 177 220 273 323 383
#     4  10  22  45  69  95 132 166 208 268 327 390
#     4  12  25  42  70 102 132 170 222 270 326 388
#     4  11  25  41  63  98 129 173 223 270 327 387
#     4  11  25  41  69  98 133 164 217 271 320 389
#     4  11  23  41  62  90 132 179 222 270 330 381
#     4  10  20  42  72  98 126 174 206 256 332 390
#     4  11  24  39  64  98 133 172 222 279 319 388
#
# _framework density 20.478399
#
# number of rings (size 3 to 8) (size 9 to 14) (size 15 to 20)
#    0.000    1.067    4.000    2.400    6.533    0.000 
#    0.000    4.667    1.467    0.000    0.000    0.000 
#    0.000    0.000    0.000    0.000    0.000    0.000 
#
# Total GULP energy -167523.031429 kJ/mol
# GULP energy per Si atom -5584.101048 kJ/mol
# Density = 2.043179 g / cm^3
# Si number density = 20.478399 Si / 1000 Ang^3
#
#
#
# Elastic Constant Matrix: (Units=GPa)
#
#
# Indices 1 2 3 4 5 6 
#
# 1 117.3730 29.5972 42.9464 0.0009 -5.0592 -0.0025
# 2 29.5972 40.3066 8.3204 -0.0032 1.8122 0.0037
# 3 42.9464 8.3204 101.6086 -0.0108 0.9465 0.0067
# 4 0.0009 -0.0032 -0.0108 18.6116 0.0006 3.3440
# 5 -5.0592 1.8122 0.9465 0.0006 35.9528 -0.0010
# 6 -0.0025 0.0037 0.0067 3.3440 -0.0010 13.4229
#
#
#
# Elastic Compliance Matrix: (Units=1/GPa)
#
#
# Indices 1 2 3 4 5 6 
#
# 1 0.012370 -0.008241 -0.004575 -0.000006 0.002277 0.000009
# 2 -0.008241 0.030781 0.000988 0.000009 -0.002737 -0.000013
# 3 -0.004575 0.000988 0.011704 0.000009 -0.001002 -0.000009
# 4 -0.000006 0.000009 0.000009 0.056248 -0.000003 -0.014013
# 5 0.002277 -0.002737 -0.001002 -0.000003 0.028299 0.000004
# 6 0.000009 -0.000013 -0.000009 -0.014013 0.000004 0.077991
#
#
# Mechanical properties :
#
#
# Convention : Reuss Voigt Hill
#
# Bulk Modulus (GPa) = 32.05263 46.77959 39.41611
# Shear Modulus (GPa) = 19.88494 25.49240 22.68867
#
# Velocity S-wave (km/s) = 3.11950 3.53206 3.33217
# Velocity P-wave (km/s) = 5.35359 6.28704 5.83900
#
# Compressibility (1/GPa) = 0.03119869
#
# Stress axis : x y z
#
# Youngs Moduli (GPa) = 80.84069 32.48808 85.44335
#
# Poissons Ratio (x) = 0.26774 0.39088
# Poissons Ratio (y) = 0.66623 -0.08444
# Poissons Ratio (z) = 0.36982 -0.03211
#
# Static dielectric constant tensor:
#      x y z
#    x 1.809020 0.000000 0.000700 
#    y 0.000000 1.701730 0.000000 
#    z 0.000700 0.000000 1.735760 
# 
# From -- ./inp_files/266662.got.cif
#   From: 2010.05.17/outbox.cif.g08.bks.cpg/sg15_134_cif.got.tgz:266662.got - 2010.06.03 18:47:42.
