data_PCOD9278322
_publ_section_title
;
Structure prediction by ZEFSAII (Michael W. Deem and Ramdas Pophale) SiO2 
 PCOD9278322
Probable space group: C 2/C
;
_chemical_formula_sum "Si O2"
_cell_formula_units_Z 60
_cell_length_a 24.707042
_cell_length_b 7.589032
_cell_length_c 25.416886
_cell_angle_alpha 90.000000
_cell_angle_beta 147.632132
_cell_angle_gamma 90.000000
_cell_volume 2551.349087
_symmetry_space_group_name_H-M "C 2/C"
_symmetry_group_IT_number 15
_symmetry_cell_setting 'monoclinic'
loop_
_space_group_symop_operation_xyz
x,y,z
-x,y,1/2-z
-x,-y,-z
x,-y,1/2+z
1/2+x,1/2+y,z
1/2-x,1/2+y,1/2-z
1/2-x,1/2-y,-z
1/2+x,1/2-y,1/2+z
loop_
_atom_site_type_symbol
_atom_site_label
_atom_site_fract_x
_atom_site_fract_y
_atom_site_fract_z
Si Si1 0.627025 0.812642 0.490675
Si Si2 0.283979 0.181339 0.111922
Si Si3 0.734384 0.665475 0.297135
Si Si4 0.095742 0.061493 0.016035
Si Si5 0.423412 0.930104 0.282268
Si Si6 0.000000 0.808123 0.750000
Si Si7 0.622488 0.628973 0.650386
Si Si8 0.210670 0.033675 0.450409
O O1 0.688311 0.866628 0.592484
O O2 0.589695 0.614381 0.474327
O O3 0.529572 0.931060 0.399359
O O4 0.708240 0.832696 0.510013
O O5 0.257487 0.044916 0.042574
O O6 0.379530 0.110513 0.223094
O O7 0.293392 0.368846 0.093272
O O8 0.189098 0.172322 0.072601
O O9 0.662462 0.828792 0.254688
O O10 0.667457 0.496741 0.231311
O O11 0.801736 0.715186 0.301783
O O12 0.114833 0.987032 0.090272
O O13 0.992525 0.170347 0.930526
O O14 0.447174 0.808724 0.251220
O O15 0.906934 0.909440 0.646222
#
# Coordination Sequence:
#
# PCOD9278322 Si02
#       8
#     8   8   8   8   8   4   8   8
#     4  11  22  43  68 100 132 171 234 265 332 411
#     4  11  24  44  66 100 143 175 221 282 343 395
#     4  11  23  44  66 103 131 177 227 283 336 406
#     4  10  20  42  70  94 130 182 223 280 337 398
#     4  12  23  42  73  98 133 181 223 276 334 409
#     4  12  24  40  70  98 132 180 220 272 332 414
#     4  10  22  41  67  96 132 176 230 283 337 394
#     4  11  26  42  65 105 139 175 222 277 339 411
#
# _framework density 23.516971000000002
#
# number of rings (size 3 to 8) (size 9 to 14) (size 15 to 20)
#    0.000    1.067    5.333    1.600    0.000    5.333 
#    2.400    0.667    0.000    0.000    0.000    0.000 
#    0.000    0.000    0.000    0.000    0.000    0.000 
#
# Total GULP energy -167978.167712 kJ/mol
# GULP energy per Si atom -5599.272257 kJ/mol
# Density = 2.346345 g / cm^3
# Si number density = 23.516971 Si / 1000 Ang^3
#
#
#
# Elastic Constant Matrix: (Units=GPa)
#
#
# Indices 1 2 3 4 5 6 
#
# 1 86.4330 10.4991 26.9068 0.0000 16.5312 0.0000
# 2 10.4991 27.5166 9.0736 0.0000 9.7582 -0.0002
# 3 26.9068 9.0736 139.3217 0.0000 18.8452 0.0000
# 4 0.0000 0.0000 0.0000 21.4034 0.0000 -7.0046
# 5 16.5312 9.7582 18.8452 0.0000 38.9445 0.0000
# 6 0.0000 -0.0002 0.0000 -7.0046 0.0000 28.1227
#
#
#
# Elastic Compliance Matrix: (Units=1/GPa)
#
#
# Indices 1 2 3 4 5 6 
#
# 1 0.013270 -0.003048 -0.001825 0.000000 -0.003986 0.000000
# 2 -0.003048 0.040819 -0.000922 0.000000 -0.008488 0.000000
# 3 -0.001825 -0.000922 0.007976 0.000000 -0.002854 0.000000
# 4 0.000000 0.000000 0.000000 0.050868 0.000000 0.012670
# 5 -0.003986 -0.008488 -0.002854 0.000000 0.030877 0.000000
# 6 0.000000 0.000000 0.000000 0.012670 0.000000 0.038714
#
#
# Mechanical properties :
#
#
# Convention : Reuss Voigt Hill
#
# Bulk Modulus (GPa) = 19.81150 38.47003 29.14076
# Shear Modulus (GPa) = 23.70344 31.48024 27.59184
#
# Velocity S-wave (km/s) = 3.17823 3.66268 3.42902
# Velocity P-wave (km/s) = 4.68090 5.85499 5.30055
#
# Compressibility (1/GPa) = 0.05047574
#
# Stress axis : x y z
#
# Youngs Moduli (GPa) = 75.35526 24.49856 125.37311
#
# Poissons Ratio (x) = 0.07467 0.22883
# Poissons Ratio (y) = 0.22968 0.11555
# Poissons Ratio (z) = 0.13754 0.02258
#
# Static dielectric constant tensor:
#      x y z
#    x 1.907810 0.000000 -0.024780 
#    y 0.000000 1.904180 0.000000 
#    z -0.024780 0.000000 1.855550 
# 
# From -- ./inp_files/303105.got.cif
#   From: 2010.05.17/outbox.cif.g08.bks.cpg/sg15_152_cif.got.tgz:303105.got - 2010.06.03 18:47:42.
