data_PCOD9278596
_publ_section_title
;
Structure prediction by ZEFSAII (Michael W. Deem and Ramdas Pophale) SiO2 
 PCOD9278596
Probable space group: C 2/C
;
_chemical_formula_sum "Si O2"
_cell_formula_units_Z 48
_cell_length_a 8.529321
_cell_length_b 21.536244
_cell_length_c 17.347949
_cell_angle_alpha 90.000000
_cell_angle_beta 129.445226
_cell_angle_gamma 90.000000
_cell_volume 2460.823861
_symmetry_space_group_name_H-M "C 2/C"
_symmetry_group_IT_number 15
_symmetry_cell_setting 'monoclinic'
loop_
_space_group_symop_operation_xyz
x,y,z
-x,y,1/2-z
-x,-y,-z
x,-y,1/2+z
1/2+x,1/2+y,z
1/2-x,1/2+y,1/2-z
1/2-x,1/2-y,-z
1/2+x,1/2-y,1/2+z
loop_
_atom_site_type_symbol
_atom_site_label
_atom_site_fract_x
_atom_site_fract_y
_atom_site_fract_z
Si Si1 0.895731 0.015006 0.883747
Si Si2 0.744075 0.154821 0.819462
Si Si3 0.225620 0.251954 0.789688
Si Si4 0.542388 0.245135 0.486017
Si Si5 0.161877 0.640165 0.160367
Si Si6 0.000000 0.570209 0.250000
Si Si7 0.000000 0.962417 0.750000
O O1 0.830713 0.086852 0.861540
O O2 0.696937 0.972115 0.817729
O O3 0.997931 0.999575 0.831338
O O4 0.000000 0.000000 0.000000
O O5 0.500000 0.155922 0.750000
O O6 0.782143 0.183048 0.746896
O O7 0.874108 0.203843 0.910782
O O8 0.274696 0.303891 0.741123
O O9 0.000000 0.264918 0.750000
O O10 0.389430 0.255729 0.906606
O O11 0.750000 0.250000 0.500000
O O12 0.452930 0.176667 0.442633
O O13 0.308702 0.584342 0.184715
O O14 0.010626 0.611548 0.176568
#
# Coordination Sequence:
#
# PCOD9278596 Si02
#       7
#     8   8   8   8   8   4   4
#     4  11  26  45  71  93 136 187 229 277 353 397
#     4  11  26  44  65 101 139 171 229 289 344 408
#     4  11  22  39  67  97 134 176 219 285 345 409
#     4  11  22  38  68  99 127 180 220 269 355 414
#     4  10  21  40  64  92 132 163 231 284 334 399
#     4  10  20  44  64  90 126 178 228 282 332 410
#     4  10  26  44  66 100 128 178 234 292 318 420
#
# _framework density 19.505662000000001
#
# number of rings (size 3 to 8) (size 9 to 14) (size 15 to 20)
#    0.000    1.333    5.000    0.000   12.833    2.000 
#    0.000    1.667    0.000    0.000    0.000    0.000 
#    0.000    0.000    0.000    0.000    0.000    0.000 
#
# Total GULP energy -133773.837485 kJ/mol
# GULP energy per Si atom -5573.909895 kJ/mol
# Density = 1.946127 g / cm^3
# Si number density = 19.505662 Si / 1000 Ang^3
#
#
#
# Elastic Constant Matrix: (Units=GPa)
#
#
# Indices 1 2 3 4 5 6 
#
# 1 73.1372 39.3261 38.2180 0.0000 0.9372 0.0000
# 2 39.3261 126.4548 51.4336 0.0000 3.2029 0.0000
# 3 38.2180 51.4336 149.2208 0.0000 -3.6734 0.0000
# 4 0.0000 0.0000 0.0000 31.9963 0.0000 32.8081
# 5 0.9372 3.2029 -3.6734 0.0000 22.2600 0.0000
# 6 0.0000 0.0000 0.0000 32.8081 0.0000 213.6717
#
#
#
# Elastic Compliance Matrix: (Units=1/GPa)
#
#
# Indices 1 2 3 4 5 6 
#
# 1 0.017535 -0.004192 -0.003062 0.000000 -0.000641 0.000000
# 2 -0.004192 0.010276 -0.002511 0.000000 -0.001716 0.000000
# 3 -0.003062 -0.002511 0.008397 0.000000 0.001876 0.000000
# 4 0.000000 0.000000 0.000000 0.037094 0.000000 -0.005696
# 5 -0.000641 -0.001716 0.001876 0.000000 0.045507 0.000000
# 6 0.000000 0.000000 0.000000 -0.005696 0.000000 0.005555
#
#
# Mechanical properties :
#
#
# Convention : Reuss Voigt Hill
#
# Bulk Modulus (GPa) = 59.95256 67.41870 63.68563
# Shear Modulus (GPa) = 33.45547 68.24127 50.84837
#
# Velocity S-wave (km/s) = 4.14595 5.92126 5.11127
# Velocity P-wave (km/s) = 7.32948 9.02148 8.21913
#
# Compressibility (1/GPa) = 0.01667986
#
# Stress axis : x y z
#
# Youngs Moduli (GPa) = 57.02875 97.31247 119.08585
#
# Poissons Ratio (x) = 0.40789 0.36465
# Poissons Ratio (y) = 0.23904 0.29899
# Poissons Ratio (z) = 0.17462 0.24433
#
# Static dielectric constant tensor:
#      x y z
#    x 1.727300 0.000000 -0.047580 
#    y 0.000000 1.670560 0.000000 
#    z -0.047580 0.000000 1.603240 
# 
# From -- ./inp_files/192329.got.cif
#   From: 2010.05.17/outbox.cif.g08.bks.cpg/sg15_97_cif.got.tgz:192329.got - 2010.06.03 18:47:42.
