data_PCOD9278439
_publ_section_title
;
Structure prediction by ZEFSAII (Michael W. Deem and Ramdas Pophale) SiO2 
 PCOD9278439
Probable space group: C 2/C
;
_chemical_formula_sum "Si O2"
_cell_formula_units_Z 56
_cell_length_a 14.717973
_cell_length_b 21.076602
_cell_length_c 14.093345
_cell_angle_alpha 90.000000
_cell_angle_beta 31.852202
_cell_angle_gamma 90.000000
_cell_volume 2307.142344
_symmetry_space_group_name_H-M "C 2/C"
_symmetry_group_IT_number 15
_symmetry_cell_setting 'monoclinic'
loop_
_space_group_symop_operation_xyz
x,y,z
-x,y,1/2-z
-x,-y,-z
x,-y,1/2+z
1/2+x,1/2+y,z
1/2-x,1/2+y,1/2-z
1/2-x,1/2-y,-z
1/2+x,1/2-y,1/2+z
loop_
_atom_site_type_symbol
_atom_site_label
_atom_site_fract_x
_atom_site_fract_y
_atom_site_fract_z
Si Si1 0.045796 0.181020 0.809637
Si Si2 0.752222 0.556725 0.813270
Si Si3 0.467679 0.684980 0.468940
Si Si4 0.500000 0.898326 0.250000
Si Si5 0.375664 0.457825 0.439845
Si Si6 0.170887 0.315940 0.949458
Si Si7 0.500000 0.081922 0.250000
Si Si8 0.084147 0.628516 0.983045
O O1 0.953058 0.111986 0.888634
O O2 0.000000 0.213368 0.750000
O O3 0.250045 0.169446 0.634317
O O4 0.994073 0.208718 0.957056
O O5 0.835390 0.563930 0.635526
O O6 0.906915 0.561723 0.751684
O O7 0.640539 0.620714 0.924405
O O8 0.644232 0.496946 0.945476
O O9 0.641977 0.672927 0.258724
O O10 0.362157 0.741041 0.512902
O O11 0.363190 0.853708 0.424269
O O12 0.500000 0.488458 0.250000
O O13 0.183761 0.450596 0.568899
O O14 0.028816 0.341592 0.000427
O O15 0.528005 0.118669 0.323874
#
# Coordination Sequence:
#
# PCOD9278439 Si02
#       8
#     8   8   8   4   8   8   4   8
#     4  10  20  43  64  94 133 169 212 270 319 385
#     4  10  24  42  65  95 130 169 218 271 317 388
#     4  11  24  42  65  94 132 164 218 269 322 390
#     4  10  23  44  66  94 130 166 217 268 324 386
#     4  11  23  40  64  97 130 176 220 264 321 388
#     4  11  24  43  65  96 127 170 217 265 330 385
#     4  12  21  42  68  94 138 172 217 266 330 376
#     4  10  22  41  66  96 130 169 217 267 323 387
#
# _framework density 24.272452000000001
#
# number of rings (size 3 to 8) (size 9 to 14) (size 15 to 20)
#    0.000    1.429    2.857    3.857    2.000    5.143 
#    1.286    1.429    0.000    0.000    0.000    0.000 
#    0.000    0.000    0.000    0.000    0.000    0.000 
#
# Total GULP energy -156632.010652 kJ/mol
# GULP energy per Si atom -5594.000380 kJ/mol
# Density = 2.421721 g / cm^3
# Si number density = 24.272452 Si / 1000 Ang^3
#
#
#
# Elastic Constant Matrix: (Units=GPa)
#
#
# Indices 1 2 3 4 5 6 
#
# 1 94.1989 -13.0549 22.2562 0.0462 1.2957 0.0058
# 2 -13.0549 40.6755 5.5974 0.0719 0.9181 0.0002
# 3 22.2562 5.5974 143.3249 0.0595 10.3327 0.0285
# 4 0.0462 0.0719 0.0595 -43.8337 -0.0460 -9.1858
# 5 1.2957 0.9181 10.3327 -0.0460 51.0359 -0.0145
# 6 0.0058 0.0002 0.0285 -9.1858 -0.0145 17.1508
#
#
#
# Elastic Compliance Matrix: (Units=1/GPa)
#
#
# Indices 1 2 3 4 5 6 
#
# 1 0.011635 0.004004 -0.001965 0.000015 0.000030 0.000007
# 2 0.004004 0.026099 -0.001624 0.000040 -0.000242 0.000022
# 3 -0.001965 -0.001624 0.007449 0.000009 -0.001429 -0.000008
# 4 0.000015 0.000040 0.000009 -0.020511 -0.000024 -0.010986
# 5 0.000030 -0.000242 -0.001429 -0.000024 0.019887 0.000006
# 6 0.000007 0.000022 -0.000008 -0.010986 0.000006 0.052422
#
#
# Mechanical properties :
#
#
# Convention : Reuss Voigt Hill
#
# Bulk Modulus (GPa) = 21.73335 34.19964 27.96649
# Shear Modulus (GPa) = 44.84808 22.43064 33.63936
#
# Velocity S-wave (km/s) = 4.30314 3.04323 3.72682
# Velocity P-wave (km/s) = 5.80196 5.14479 5.48323
#
# Compressibility (1/GPa) = 0.04601224
#
# Stress axis : x y z
#
# Youngs Moduli (GPa) = 85.95036 38.31608 134.25066
#
# Poissons Ratio (x) = -0.15341 0.26384
# Poissons Ratio (y) = -0.34414 0.21796
# Poissons Ratio (z) = 0.16891 0.06221
#
# Static dielectric constant tensor:
#      x y z
#    x 1.978240 -0.000010 0.024130 
#    y -0.000010 1.986860 0.000010 
#    z 0.024130 0.000010 1.903370 
# 
# From -- ./inp_files/156931.got.cif
#   From: 2010.05.17/outbox.cif.g08.bks.cpg/sg15_79_cif.got.tgz:156931.got - 2010.06.03 18:47:42.
