data_PCOD9278704
_publ_section_title
;
Structure prediction by ZEFSAII (Michael W. Deem and Ramdas Pophale) SiO2 
 PCOD9278704
Probable space group: C 2/C
;
_chemical_formula_sum "Si O2"
_cell_formula_units_Z 36
_cell_length_a 20.347911
_cell_length_b 8.491542
_cell_length_c 11.749288
_cell_angle_alpha 90.000000
_cell_angle_beta 52.152341
_cell_angle_gamma 90.000000
_cell_volume 1603.060031
_symmetry_space_group_name_H-M "C 2/C"
_symmetry_group_IT_number 15
_symmetry_cell_setting 'monoclinic'
loop_
_space_group_symop_operation_xyz
x,y,z
-x,y,1/2-z
-x,-y,-z
x,-y,1/2+z
1/2+x,1/2+y,z
1/2-x,1/2+y,1/2-z
1/2-x,1/2-y,-z
1/2+x,1/2-y,1/2+z
loop_
_atom_site_type_symbol
_atom_site_label
_atom_site_fract_x
_atom_site_fract_y
_atom_site_fract_z
Si Si1 0.601375 0.306334 0.870579
Si Si2 0.925163 0.130237 0.523556
Si Si3 0.839602 0.324035 0.427284
Si Si4 0.500000 0.599673 0.750000
Si Si5 0.161944 0.304550 0.542041
O O1 0.502757 0.286880 0.002178
O O2 0.611248 0.235366 0.735757
O O3 0.620639 0.494830 0.854996
O O4 0.654935 0.227944 0.913529
O O5 0.870262 0.252156 0.513884
O O6 0.969586 0.021526 0.379883
O O7 0.750000 0.250000 0.500000
O O8 0.844158 0.510819 0.427978
O O9 0.582465 0.708569 0.676838
O O10 0.250000 0.250000 0.500000
#
# Coordination Sequence:
#
# PCOD9278704 Si02
#       5
#     8   8   8   4   8
#     4  10  23  45  69 102 134 187 225 286 362 406
#     4  10  21  44  74  99 138 178 240 277 354 427
#     4  12  25  44  72 102 142 182 235 297 349 425
#     4  10  20  44  72  94 144 178 220 304 340 414
#     4  11  27  46  66 106 144 182 238 290 350 425
#
# _framework density 22.457052000000001
#
# number of rings (size 3 to 8) (size 9 to 14) (size 15 to 20)
#    0.000    1.333    2.222    2.667    3.111    4.444 
#   16.000    0.000    0.000    0.000    0.000    0.000 
#    0.000    0.000    0.000    0.000    0.000    0.000 
#
# Total GULP energy -100514.414274 kJ/mol
# GULP energy per Si atom -5584.134126 kJ/mol
# Density = 2.240594 g / cm^3
# Si number density = 22.457052 Si / 1000 Ang^3
#
#
#
# Elastic Constant Matrix: (Units=GPa)
#
#
# Indices 1 2 3 4 5 6 
#
# 1 162.2842 62.5384 -0.9159 0.0000 -22.3784 0.0000
# 2 62.5384 153.9698 32.6679 0.0000 -5.8712 0.0000
# 3 -0.9159 32.6679 27.2548 0.0000 -13.2328 0.0000
# 4 0.0000 0.0000 0.0000 26.8719 0.0000 4.3348
# 5 -22.3784 -5.8712 -13.2328 0.0000 37.1860 0.0000
# 6 0.0000 0.0000 0.0000 4.3348 0.0000 49.8849
#
#
#
# Elastic Compliance Matrix: (Units=1/GPa)
#
#
# Indices 1 2 3 4 5 6 
#
# 1 0.009992 -0.006363 0.012566 0.000000 0.009480 0.000000
# 2 -0.006363 0.013015 -0.020158 0.000000 -0.008948 0.000000
# 3 0.012566 -0.020158 0.076643 0.000000 0.031653 0.000000
# 4 0.000000 0.000000 0.000000 0.037743 0.000000 -0.003280
# 5 0.009480 -0.008948 0.031653 0.000000 0.042448 0.000000
# 6 0.000000 0.000000 0.000000 -0.003280 0.000000 0.020331
#
#
# Mechanical properties :
#
#
# Convention : Reuss Voigt Hill
#
# Bulk Modulus (GPa) = 13.93943 59.12106 36.53025
# Shear Modulus (GPa) = 19.84150 39.40313 29.62231
#
# Velocity S-wave (km/s) = 2.97565 4.19334 3.63583
# Velocity P-wave (km/s) = 4.24578 7.05896 5.82475
#
# Compressibility (1/GPa) = 0.07173894
#
# Stress axis : x y z
#
# Youngs Moduli (GPa) = 100.07618 76.83355 13.04750
#
# Poissons Ratio (x) = 0.48891 -0.16395
# Poissons Ratio (y) = 0.63681 0.26302
# Poissons Ratio (z) = -1.25752 1.54883
#
# Static dielectric constant tensor:
#      x y z
#    x 1.947420 0.000000 0.105330 
#    y 0.000000 1.723640 0.000000 
#    z 0.105330 0.000000 2.063690 
# 
# From -- ./inp_files/159045.got.cif
#   From: 2010.05.17/outbox.cif.g08.bks.cpg/sg15_80_cif.got.tgz:159045.got - 2010.06.03 18:47:42.
