data_PCOD9278043
_publ_section_title
;
Structure prediction by ZEFSAII (Michael W. Deem and Ramdas Pophale) SiO2 
 PCOD9278043
Probable space group: C 2/C
;
_chemical_formula_sum "Si O2"
_cell_formula_units_Z 52
_cell_length_a 10.394502
_cell_length_b 13.733852
_cell_length_c 16.989426
_cell_angle_alpha 90.000000
_cell_angle_beta 55.785135
_cell_angle_gamma 90.000000
_cell_volume 2005.607670
_symmetry_space_group_name_H-M "C 2/C"
_symmetry_group_IT_number 15
_symmetry_cell_setting 'monoclinic'
loop_
_space_group_symop_operation_xyz
x,y,z
-x,y,1/2-z
-x,-y,-z
x,-y,1/2+z
1/2+x,1/2+y,z
1/2-x,1/2+y,1/2-z
1/2-x,1/2-y,-z
1/2+x,1/2-y,1/2+z
loop_
_atom_site_type_symbol
_atom_site_label
_atom_site_fract_x
_atom_site_fract_y
_atom_site_fract_z
Si Si1 0.658226 0.461648 0.596013
Si Si2 0.827924 0.426160 0.782372
Si Si3 0.769385 0.903927 0.282235
Si Si4 0.833907 0.746347 0.160785
Si Si5 0.252873 0.864895 0.976135
Si Si6 0.000000 0.193366 0.250000
Si Si7 0.510028 0.854191 0.013297
O O1 0.670230 0.528211 0.669629
O O2 0.637091 0.545757 0.538147
O O3 0.534569 0.377694 0.662680
O O4 0.824908 0.406439 0.527560
O O5 0.749414 0.526024 0.785534
O O6 0.834310 0.358483 0.703216
O O7 0.763558 0.368393 0.878953
O O8 0.000000 0.451928 0.750000
O O9 0.880554 0.819266 0.213275
O O10 0.607599 0.859945 0.373305
O O11 0.652940 0.758371 0.203864
O O12 0.933201 0.746559 0.047126
O O13 0.404572 0.896474 0.977162
O O14 0.250000 0.750000 0.000000
#
# Coordination Sequence:
#
# PCOD9278043 Si02
#       7
#     8   8   8   8   8   4   8
#     4  10  20  42  65  83 125 178 209 252 335 391
#     4  12  21  40  66  97 123 158 225 272 305 386
#     4  11  22  39  68  94 124 169 223 266 315 385
#     4  11  24  42  61  94 129 168 215 268 327 389
#     4  11  22  37  63 100 127 161 210 277 328 380
#     4  10  22  44  60  84 130 174 206 254 330 402
#     4  10  20  43  64  85 129 172 210 253 330 390
#
# _framework density 25.927306000000002
#
# number of rings (size 3 to 8) (size 9 to 14) (size 15 to 20)
#    0.000    1.231    4.615    4.615    1.077    1.231 
#    5.538    2.308    0.000    0.000    0.000    0.000 
#    0.000    0.000    0.000    0.000    0.000    0.000 
#
# Total GULP energy -145113.167298 kJ/mol
# GULP energy per Si atom -5581.275665 kJ/mol
# Density = 2.586829 g / cm^3
# Si number density = 25.927306 Si / 1000 Ang^3
#
#
#
# Elastic Constant Matrix: (Units=GPa)
#
#
# Indices 1 2 3 4 5 6 
#
# 1 42.9517 -19.6007 3.5537 0.0000 -13.0340 0.0000
# 2 -19.6007 78.6550 39.8952 0.0000 7.6900 0.0000
# 3 3.5537 39.8952 140.4538 0.0000 0.9486 0.0000
# 4 0.0000 0.0000 0.0000 48.5854 0.0000 11.8906
# 5 -13.0340 7.6900 0.9486 0.0000 32.5383 0.0000
# 6 0.0000 0.0000 0.0000 11.8906 0.0000 16.7596
#
#
#
# Elastic Compliance Matrix: (Units=1/GPa)
#
#
# Indices 1 2 3 4 5 6 
#
# 1 0.030410 0.008170 -0.003160 0.000000 0.010343 0.000000
# 2 0.008170 0.017432 -0.005153 0.000000 -0.000697 0.000000
# 3 -0.003160 -0.005153 0.008666 0.000000 -0.000300 0.000000
# 4 0.000000 0.000000 0.000000 0.024907 0.000000 -0.017671
# 5 0.010343 -0.000697 -0.000300 0.000000 0.035050 0.000000
# 6 0.000000 0.000000 0.000000 -0.017671 0.000000 0.072204
#
#
# Mechanical properties :
#
#
# Convention : Reuss Voigt Hill
#
# Bulk Modulus (GPa) = 17.78716 34.41743 26.10229
# Shear Modulus (GPa) = 24.07370 35.45748 29.76559
#
# Velocity S-wave (km/s) = 3.05045 3.70208 3.39195
# Velocity P-wave (km/s) = 4.39116 5.61937 5.04279
#
# Compressibility (1/GPa) = 0.05622034
#
# Stress axis : x y z
#
# Youngs Moduli (GPa) = 32.88372 57.36697 115.39962
#
# Poissons Ratio (x) = -0.46867 0.36464
# Poissons Ratio (y) = -0.26865 0.59470
# Poissons Ratio (z) = 0.10391 0.29563
#
# Static dielectric constant tensor:
#      x y z
#    x 2.157370 0.000000 -0.071910 
#    y 0.000000 2.052360 0.000000 
#    z -0.071910 0.000000 2.075220 
# 
# From -- ./inp_files/197685.got.cif
#   From: 2010.05.17/outbox.cif.g08.bks.cpg/sg15_99_cif.got.tgz:197685.got - 2010.06.03 18:47:42.
