data_PCOD9278201
_publ_section_title
;
Structure prediction by ZEFSAII (Michael W. Deem and Ramdas Pophale) SiO2 
 PCOD9278201
Probable space group: C 2/C
;
_chemical_formula_sum "Si O2"
_cell_formula_units_Z 60
_cell_length_a 14.063241
_cell_length_b 7.986398
_cell_length_c 23.323250
_cell_angle_alpha 90.000000
_cell_angle_beta 107.441891
_cell_angle_gamma 90.000000
_cell_volume 2499.099619
_symmetry_space_group_name_H-M "C 2/C"
_symmetry_group_IT_number 15
_symmetry_cell_setting 'monoclinic'
loop_
_space_group_symop_operation_xyz
x,y,z
-x,y,1/2-z
-x,-y,-z
x,-y,1/2+z
1/2+x,1/2+y,z
1/2-x,1/2+y,1/2-z
1/2-x,1/2-y,-z
1/2+x,1/2-y,1/2+z
loop_
_atom_site_type_symbol
_atom_site_label
_atom_site_fract_x
_atom_site_fract_y
_atom_site_fract_z
Si Si1 0.700935 0.725701 0.182497
Si Si2 0.339728 0.103470 0.291083
Si Si3 0.500000 0.000000 0.500000
Si Si4 0.232285 0.567712 0.023774
Si Si5 0.006845 0.046156 0.187795
Si Si6 0.193183 0.765461 0.856087
Si Si7 0.258657 0.902976 0.581974
Si Si8 0.477590 0.771206 0.609388
O O1 0.689966 0.916329 0.198034
O O2 0.807787 0.651959 0.221247
O O3 0.615442 0.623254 0.199188
O O4 0.687495 0.695403 0.112328
O O5 0.266060 0.220346 0.315339
O O6 0.451292 0.133977 0.331706
O O7 0.384310 0.028282 0.496420
O O8 0.490657 0.152555 0.446574
O O9 0.272849 0.586481 0.094661
O O10 0.250000 0.750000 0.000000
O O11 0.282710 0.437690 0.989020
O O12 0.993117 0.921336 0.131637
O O13 0.000000 0.963834 0.250000
O O14 0.922750 0.191960 0.174012
O O15 0.215006 0.585901 0.887572
O O16 0.362393 0.808189 0.597779
#
# Coordination Sequence:
#
# PCOD9278201 Si02
#       8
#     8   8   4   8   8   8   8   8
#     4  12  26  43  65  99 130 174 223 273 339 408
#     4  12  24  42  68  94 130 172 219 277 334 405
#     4  10  20  42  68 100 130 182 224 284 344 410
#     4   9  20  39  69  96 135 172 224 277 344 406
#     4  12  26  43  65  99 136 177 226 280 334 407
#     4  11  21  44  67  98 132 174 219 277 336 395
#     4  10  23  42  68  99 131 171 219 276 339 407
#     4  11  24  43  68  99 133 177 226 280 341 407
#
# _framework density 24.008645999999999
#
# number of rings (size 3 to 8) (size 9 to 14) (size 15 to 20)
#    0.000    1.067    2.667    4.000    3.733    0.000 
#    2.400    2.667    0.000    0.000    0.000    0.000 
#    0.000    0.000    0.000    0.000    0.000    0.000 
#
# Total GULP energy -167283.487295 kJ/mol
# GULP energy per Si atom -5576.116243 kJ/mol
# Density = 2.395400 g / cm^3
# Si number density = 24.008646 Si / 1000 Ang^3
#
#
#
# Elastic Constant Matrix: (Units=GPa)
#
#
# Indices 1 2 3 4 5 6 
#
# 1 55.7101 1.8194 16.8089 0.0000 -2.0045 0.0000
# 2 1.8194 99.7706 4.0230 0.0000 2.1451 0.0000
# 3 16.8089 4.0230 52.4132 0.0000 -7.3918 0.0000
# 4 0.0000 0.0000 0.0000 31.0089 0.0000 1.1189
# 5 -2.0045 2.1451 -7.3918 0.0000 39.1591 0.0000
# 6 0.0000 0.0000 0.0000 1.1189 0.0000 21.5466
#
#
#
# Elastic Compliance Matrix: (Units=1/GPa)
#
#
# Indices 1 2 3 4 5 6 
#
# 1 0.019875 -0.000101 -0.006392 0.000000 -0.000184 0.000000
# 2 -0.000101 0.010074 -0.000842 0.000000 -0.000716 0.000000
# 3 -0.006392 -0.000842 0.021733 0.000000 0.003821 0.000000
# 4 0.000000 0.000000 0.000000 0.032309 0.000000 -0.001678
# 5 -0.000184 -0.000716 0.003821 0.000000 0.026288 0.000000
# 6 0.000000 0.000000 0.000000 -0.001678 0.000000 0.046498
#
#
# Mechanical properties :
#
#
# Convention : Reuss Voigt Hill
#
# Bulk Modulus (GPa) = 27.01789 28.13296 27.57543
# Shear Modulus (GPa) = 27.20572 30.69244 28.94908
#
# Velocity S-wave (km/s) = 3.36990 3.57934 3.47620
# Velocity P-wave (km/s) = 5.13999 5.36894 5.25571
#
# Compressibility (1/GPa) = 0.03701251
#
# Stress axis : x y z
#
# Youngs Moduli (GPa) = 50.31343 99.26373 46.01362
#
# Poissons Ratio (x) = 0.01000 0.29413
# Poissons Ratio (y) = 0.00507 0.03874
# Poissons Ratio (z) = 0.32161 0.08357
#
# Static dielectric constant tensor:
#      x y z
#    x 1.833290 0.000000 -0.009660 
#    y 0.000000 1.934280 0.000000 
#    z -0.009660 0.000000 2.041580 
# 
# From -- ./inp_files/273206.got.cif
#   From: 2010.05.17/outbox.cif.g08.bks.cpg/sg15_137_cif.got.tgz:273206.got - 2010.06.03 18:47:42.
