data_PCOD9278186
_publ_section_title
;
Structure prediction by ZEFSAII (Michael W. Deem and Ramdas Pophale) SiO2 
 PCOD9278186
Probable space group: C 2/C
;
_chemical_formula_sum "Si O2"
_cell_formula_units_Z 64
_cell_length_a 26.034947
_cell_length_b 11.888946
_cell_length_c 13.457718
_cell_angle_alpha 90.000000
_cell_angle_beta 43.240941
_cell_angle_gamma 90.000000
_cell_volume 2853.678501
_symmetry_space_group_name_H-M "C 2/C"
_symmetry_group_IT_number 15
_symmetry_cell_setting 'monoclinic'
loop_
_space_group_symop_operation_xyz
x,y,z
-x,y,1/2-z
-x,-y,-z
x,-y,1/2+z
1/2+x,1/2+y,z
1/2-x,1/2+y,1/2-z
1/2-x,1/2-y,-z
1/2+x,1/2-y,1/2+z
loop_
_atom_site_type_symbol
_atom_site_label
_atom_site_fract_x
_atom_site_fract_y
_atom_site_fract_z
Si Si1 0.285208 0.560095 0.457960
Si Si2 0.415190 0.754655 0.126080
Si Si3 0.440465 0.920686 0.911103
Si Si4 0.089491 0.008501 0.366478
Si Si5 0.335080 0.781418 0.444037
Si Si6 0.942075 0.332501 0.460653
Si Si7 0.333297 0.724531 0.747750
Si Si8 0.688358 0.137175 0.041108
O O1 0.366774 0.526288 0.300224
O O2 0.302947 0.656859 0.512529
O O3 0.231782 0.628109 0.454426
O O4 0.238306 0.446448 0.539605
O O5 0.396479 0.632083 0.107505
O O6 0.358442 0.784424 0.294748
O O7 0.495690 0.760382 0.069687
O O8 0.420352 0.842629 0.030844
O O9 0.500000 0.870822 0.750000
O O10 0.368425 0.935308 0.943092
O O11 0.468895 0.039492 0.913076
O O12 0.127530 0.891163 0.343734
O O13 0.000000 0.000000 0.500000
O O14 0.411614 0.797779 0.396037
O O15 0.865016 0.320450 0.631871
O O16 0.352109 0.771505 0.831986
O O17 0.245889 0.697528 0.884694
#
# Coordination Sequence:
#
# PCOD9278186 Si02
#       8
#     8   8   8   8   8   8   8   8
#     4   9  20  38  65  93 133 170 216 281 328 395
#     4  11  24  41  68  94 136 180 220 281 341 403
#     4  12  26  42  67 100 137 176 227 278 341 416
#     4  10  20  42  67  93 128 173 223 279 332 398
#     4  10  21  39  63  99 133 173 223 276 339 402
#     4  12  23  40  65 100 135 177 225 279 337 406
#     4  10  23  42  71  94 133 179 222 285 342 394
#     4  10  22  45  66  97 137 178 225 281 340 405
#
# _framework density 22.427195000000001
#
# number of rings (size 3 to 8) (size 9 to 14) (size 15 to 20)
#    0.000    1.500    2.500    2.250    1.750    3.000 
#    0.000    3.750    0.000    0.000    0.000    0.000 
#    0.000    0.000    0.000    0.000    0.000    0.000 
#
# Total GULP energy -178194.358078 kJ/mol
# GULP energy per Si atom -5568.573690 kJ/mol
# Density = 2.237615 g / cm^3
# Si number density = 22.427195 Si / 1000 Ang^3
#
#
#
# Elastic Constant Matrix: (Units=GPa)
#
#
# Indices 1 2 3 4 5 6 
#
# 1 51.9291 25.2387 18.4330 0.0000 -7.7200 0.0000
# 2 25.2387 86.5169 21.1767 0.0000 2.8609 0.0000
# 3 18.4330 21.1767 95.3707 0.0000 1.6826 0.0000
# 4 0.0000 0.0000 0.0000 27.0168 0.0000 1.5523
# 5 -7.7200 2.8609 1.6826 0.0000 21.1050 0.0000
# 6 0.0000 0.0000 0.0000 1.5523 0.0000 23.2158
#
#
#
# Elastic Compliance Matrix: (Units=1/GPa)
#
#
# Indices 1 2 3 4 5 6 
#
# 1 0.025441 -0.006895 -0.003572 0.000000 0.010525 0.000000
# 2 -0.006895 0.014136 -0.001730 0.000000 -0.004300 0.000000
# 3 -0.003572 -0.001730 0.011595 0.000000 -0.001996 0.000000
# 4 0.000000 0.000000 0.000000 0.037157 0.000000 -0.002484
# 5 0.010525 -0.004300 -0.001996 0.000000 0.051974 0.000000
# 6 0.000000 0.000000 0.000000 -0.002484 0.000000 0.043240
#
#
# Mechanical properties :
#
#
# Convention : Reuss Voigt Hill
#
# Bulk Modulus (GPa) = 37.34538 40.39037 38.86788
# Shear Modulus (GPa) = 23.05598 25.53207 24.29403
#
# Velocity S-wave (km/s) = 3.20978 3.37774 3.29483
# Velocity P-wave (km/s) = 5.51588 5.76722 5.64295
#
# Compressibility (1/GPa) = 0.02677707
#
# Stress axis : x y z
#
# Youngs Moduli (GPa) = 39.30670 70.74302 86.24298
#
# Poissons Ratio (x) = 0.48780 0.30804
# Poissons Ratio (y) = 0.27104 0.14922
# Poissons Ratio (z) = 0.14039 0.12240
#
# Static dielectric constant tensor:
#      x y z
#    x 1.872260 0.000000 -0.013020 
#    y 0.000000 1.917240 0.000000 
#    z -0.013020 0.000000 1.878820 
# 
# From -- ./inp_files/181755.got.cif
#   From: 2010.05.17/outbox.cif.g08.bks.cpg/sg15_91_cif.got.tgz:181755.got - 2010.06.03 18:47:42.
