data_PCOD9278419
_publ_section_title
;
Structure prediction by ZEFSAII (Michael W. Deem and Ramdas Pophale) SiO2 
 PCOD9278419
Probable space group: C 2/C
;
_chemical_formula_sum "Si O2"
_cell_formula_units_Z 44
_cell_length_a 8.362686
_cell_length_b 15.380022
_cell_length_c 25.120735
_cell_angle_alpha 90.000000
_cell_angle_beta 144.292596
_cell_angle_gamma 90.000000
_cell_volume 1885.752587
_symmetry_space_group_name_H-M "C 2/C"
_symmetry_group_IT_number 15
_symmetry_cell_setting 'monoclinic'
loop_
_space_group_symop_operation_xyz
x,y,z
-x,y,1/2-z
-x,-y,-z
x,-y,1/2+z
1/2+x,1/2+y,z
1/2-x,1/2+y,1/2-z
1/2-x,1/2-y,-z
1/2+x,1/2-y,1/2+z
loop_
_atom_site_type_symbol
_atom_site_label
_atom_site_fract_x
_atom_site_fract_y
_atom_site_fract_z
Si Si1 0.208850 0.804687 0.575678
Si Si2 0.000000 0.795103 0.250000
Si Si3 0.500000 0.500000 0.000000
Si Si4 0.500000 0.600041 0.250000
Si Si5 0.140544 0.924967 0.124040
Si Si6 0.857125 0.275321 0.899205
Si Si7 0.848024 0.548416 0.797403
O O1 0.365098 0.764315 0.668206
O O2 0.424865 0.807941 0.585229
O O3 0.984088 0.736349 0.491697
O O4 0.071946 0.897770 0.545231
O O5 0.231252 0.862087 0.289622
O O6 0.374065 0.465380 0.027312
O O7 0.405096 0.663832 0.177277
O O8 0.262677 0.533872 0.201960
O O9 0.191869 0.823055 0.134787
O O10 0.323240 0.957288 0.121067
O O11 0.233936 0.956076 0.206155
#
# Coordination Sequence:
#
# PCOD9278419 Si02
#       7
#     8   4   4   4   8   8   8
#     4  10  22  41  67  96 132 169 225 271 328 396
#     4  11  22  42  65 100 122 176 217 286 314 393
#     4  10  22  38  62  96 122 170 216 272 334 384
#     4  11  22  38  63 102 130 176 215 278 330 389
#     4  10  20  43  62  87 130 175 216 271 319 401
#     4  10  21  40  68  91 129 179 218 263 338 396
#     4  10  22  39  62  93 133 165 230 264 325 389
#
# _framework density 23.332858999999999
#
# number of rings (size 3 to 8) (size 9 to 14) (size 15 to 20)
#    0.000    1.818    1.818    2.182    0.000    2.909 
#    3.273    4.545    0.000    0.000    0.000    0.000 
#    0.000    0.000    0.000    0.000    0.000    0.000 
#
# Total GULP energy -122478.542126 kJ/mol
# GULP energy per Si atom -5567.206460 kJ/mol
# Density = 2.327975 g / cm^3
# Si number density = 23.332859 Si / 1000 Ang^3
#
#
#
# Elastic Constant Matrix: (Units=GPa)
#
#
# Indices 1 2 3 4 5 6 
#
# 1 46.8359 37.9295 23.5962 0.0000 -3.3166 0.0000
# 2 37.9295 181.0861 84.9698 0.0000 -12.8098 0.0000
# 3 23.5962 84.9698 169.9366 -0.0003 -34.9926 0.0003
# 4 0.0000 0.0000 -0.0003 33.8219 0.0001 -0.3296
# 5 -3.3166 -12.8098 -34.9926 0.0001 36.0735 0.0001
# 6 0.0000 0.0000 0.0003 -0.3296 0.0001 3.9383
#
#
#
# Elastic Compliance Matrix: (Units=1/GPa)
#
#
# Indices 1 2 3 4 5 6 
#
# 1 0.025895 -0.004862 -0.001287 0.000000 -0.000594 0.000000
# 2 -0.004862 0.008168 -0.003628 0.000000 -0.001066 0.000000
# 3 -0.001287 -0.003628 0.009482 0.000000 0.007791 -0.000001
# 4 0.000000 0.000000 0.000000 0.029591 0.000000 0.002476
# 5 -0.000594 -0.001066 0.007791 0.000000 0.034845 -0.000002
# 6 0.000000 0.000000 -0.000001 0.002476 -0.000002 0.254126
#
#
# Mechanical properties :
#
#
# Convention : Reuss Voigt Hill
#
# Bulk Modulus (GPa) = 41.68449 76.76106 59.22277
# Shear Modulus (GPa) = 12.83179 31.52429 22.17804
#
# Velocity S-wave (km/s) = 2.34764 3.67968 3.08637
# Velocity P-wave (km/s) = 5.02518 7.14304 6.17558
#
# Compressibility (1/GPa) = 0.02398974
#
# Stress axis : x y z
#
# Youngs Moduli (GPa) = 38.61776 122.43339 105.46619
#
# Poissons Ratio (x) = 0.59527 0.13572
# Poissons Ratio (y) = 0.18776 0.38267
# Poissons Ratio (z) = 0.04970 0.44424
#
# Static dielectric constant tensor:
#      x y z
#    x 1.942800 0.000000 0.089860 
#    y 0.000000 1.867570 0.000000 
#    z 0.089860 0.000000 2.112650 
# 
# From -- ./inp_files/288962.got.cif
#   From: 2010.05.17/outbox.cif.g08.bks.cpg/sg15_145_cif.got.tgz:288962.got - 2010.06.03 18:47:42.
