data_PCOD9278889
_publ_section_title
;
Structure prediction by ZEFSAII (Michael W. Deem and Ramdas Pophale) SiO2 
 PCOD9278889
Probable space group: C 2/C
;
_chemical_formula_sum "Si O2"
_cell_formula_units_Z 64
_cell_length_a 15.583639
_cell_length_b 9.144730
_cell_length_c 17.526978
_cell_angle_alpha 90.000000
_cell_angle_beta 106.674981
_cell_angle_gamma 90.000000
_cell_volume 2392.702428
_symmetry_space_group_name_H-M "C 2/C"
_symmetry_group_IT_number 15
_symmetry_cell_setting 'monoclinic'
loop_
_space_group_symop_operation_xyz
x,y,z
-x,y,1/2-z
-x,-y,-z
x,-y,1/2+z
1/2+x,1/2+y,z
1/2-x,1/2+y,1/2-z
1/2-x,1/2-y,-z
1/2+x,1/2-y,1/2+z
loop_
_atom_site_type_symbol
_atom_site_label
_atom_site_fract_x
_atom_site_fract_y
_atom_site_fract_z
Si Si1 0.006654 0.591292 0.663752
Si Si2 0.392935 0.836157 0.761656
Si Si3 0.616626 0.359903 0.502452
Si Si4 0.753898 0.508871 0.637306
Si Si5 0.116845 0.004552 0.744681
Si Si6 0.740136 0.163498 0.127728
Si Si7 0.899246 0.441628 0.458773
Si Si8 0.967638 0.878339 0.597141
O O1 0.020752 0.415263 0.678283
O O2 0.093822 0.614797 0.628877
O O3 0.941656 0.709118 0.606298
O O4 0.000000 0.640243 0.750000
O O5 0.348345 0.949581 0.690891
O O6 0.321794 0.824399 0.812388
O O7 0.401709 0.671225 0.734760
O O8 0.707159 0.396407 0.569433
O O9 0.618401 0.188307 0.486561
O O10 0.532146 0.369069 0.539155
O O11 0.599612 0.490635 0.439802
O O12 0.689477 0.513040 0.694805
O O13 0.751863 0.671382 0.603213
O O14 0.166709 0.906118 0.820024
O O15 0.030849 0.934506 0.681838
O O16 0.680115 0.058521 0.059853
O O17 0.000000 0.500000 0.500000
#
# Coordination Sequence:
#
# PCOD9278889 Si02
#       8
#     8   8   8   8   8   8   8   8
#     4  10  21  36  52  75 108 146 184 220 265 321
#     4   9  17  29  49  71 102 138 176 218 264 316
#     4   9  18  29  48  77 106 132 164 217 272 316
#     4   9  16  27  47  75 106 135 168 216 273 318
#     4   9  16  28  47  74 106 132 169 221 273 314
#     4   9  17  27  46  77 106 133 170 221 273 316
#     4  10  21  32  54  81 111 140 180 219 272 325
#     4   9  18  30  50  72 103 136 170 215 265 317
#
# _framework density 26.747997999999999
#
# number of rings (size 3 to 8) (size 9 to 14) (size 15 to 20)
#    0.000    2.750    0.000    1.500   10.500    6.000 
#    0.000    0.625    0.000    0.750    0.000    1.750 
#    0.000    0.000    0.000    0.000    0.000    0.000 
#
# Total GULP energy -178673.990065 kJ/mol
# GULP energy per Si atom -5583.562190 kJ/mol
# Density = 2.668712 g / cm^3
# Si number density = 26.747998 Si / 1000 Ang^3
#
#
#
# Elastic Constant Matrix: (Units=GPa)
#
#
# Indices 1 2 3 4 5 6 
#
# 1 94.0643 10.4884 28.8880 0.0000 9.6150 0.0000
# 2 10.4884 181.0667 41.5503 0.0000 38.4130 0.0000
# 3 28.8880 41.5503 89.0245 0.0000 24.4608 0.0000
# 4 0.0000 0.0000 0.0000 41.9221 0.0000 4.1955
# 5 9.6150 38.4130 24.4608 0.0000 57.9966 0.0000
# 6 0.0000 0.0000 0.0000 4.1955 0.0000 3.2731
#
#
#
# Elastic Compliance Matrix: (Units=1/GPa)
#
#
# Indices 1 2 3 4 5 6 
#
# 1 0.011830 0.000311 -0.003832 0.000000 -0.000551 0.000000
# 2 0.000311 0.006790 -0.002285 0.000000 -0.003585 0.000000
# 3 -0.003832 -0.002285 0.014650 0.000000 -0.004030 0.000000
# 4 0.000000 0.000000 0.000000 0.027364 0.000000 -0.035075
# 5 -0.000551 -0.003585 -0.004030 0.000000 0.021408 0.000000
# 6 0.000000 0.000000 0.000000 -0.035075 0.000000 0.350482
#
#
# Mechanical properties :
#
#
# Convention : Reuss Voigt Hill
#
# Bulk Modulus (GPa) = 46.17445 58.44543 52.30994
# Shear Modulus (GPa) = 11.07776 39.52028 25.29902
#
# Velocity S-wave (km/s) = 2.03728 3.84800 3.07877
# Velocity P-wave (km/s) = 4.77852 6.45296 5.67780
#
# Compressibility (1/GPa) = 0.02165700
#
# Stress axis : x y z
#
# Youngs Moduli (GPa) = 84.53346 147.28281 68.25814
#
# Poissons Ratio (x) = -0.04582 0.26160
# Poissons Ratio (y) = -0.02630 0.15596
# Poissons Ratio (z) = 0.32397 0.33652
#
# Static dielectric constant tensor:
#      x y z
#    x 2.168570 0.000000 -0.076010 
#    y 0.000000 2.095800 0.000000 
#    z -0.076010 0.000000 2.105140 
# 
# From -- ./inp_files/218244.got.cif
#   From: 2010.05.17/outbox.cif.g08.bks.cpg/sg15_110_cif.got.tgz:218244.got - 2010.06.03 18:47:42.
