data_PCOD9278053
_publ_section_title
;
Structure prediction by ZEFSAII (Michael W. Deem and Ramdas Pophale) SiO2 
 PCOD9278053
Probable space group: C 2/C
;
_chemical_formula_sum "Si O2"
_cell_formula_units_Z 40
_cell_length_a 30.084517
_cell_length_b 8.599449
_cell_length_c 13.520802
_cell_angle_alpha 90.000000
_cell_angle_beta 149.431256
_cell_angle_gamma 90.000000
_cell_volume 1778.969025
_symmetry_space_group_name_H-M "C 2/C"
_symmetry_group_IT_number 15
_symmetry_cell_setting 'monoclinic'
loop_
_space_group_symop_operation_xyz
x,y,z
-x,y,1/2-z
-x,-y,-z
x,-y,1/2+z
1/2+x,1/2+y,z
1/2-x,1/2+y,1/2-z
1/2-x,1/2-y,-z
1/2+x,1/2-y,1/2+z
loop_
_atom_site_type_symbol
_atom_site_label
_atom_site_fract_x
_atom_site_fract_y
_atom_site_fract_z
Si Si1 0.299163 0.249637 0.489608
Si Si2 0.713857 0.895563 0.052334
Si Si3 0.461102 0.327393 0.924108
Si Si4 0.133559 0.663018 0.189195
Si Si5 0.634838 0.146686 0.585903
O O1 0.250000 0.250000 0.500000
O O2 0.394977 0.303118 0.704762
O O3 0.239388 0.358744 0.308753
O O4 0.288048 0.077479 0.424235
O O5 0.804782 0.800981 0.234536
O O6 0.637546 0.819916 0.974385
O O7 0.688816 0.899055 0.888629
O O8 0.412198 0.269175 0.931066
O O9 0.500000 0.500000 0.000000
O O10 0.544259 0.222003 0.063998
O O11 0.106876 0.525508 0.063880
#
# Coordination Sequence:
#
# PCOD9278053 Si02
#       5
#     8   8   8   8   8
#     4  10  20  42  65  90 128 173 208 269 331 388
#     4  11  23  40  69  94 134 168 223 267 329 402
#     4  11  24  42  68  92 133 172 221 276 330 384
#     4  11  23  41  67  96 128 173 215 274 330 384
#     4  11  23  42  68  97 127 176 222 263 334 397
#
# _framework density 22.484932000000001
#
# number of rings (size 3 to 8) (size 9 to 14) (size 15 to 20)
#    0.000    1.200    4.000    4.200    2.800    0.800 
#    0.000    3.000    8.800    0.000    0.000    0.000 
#    0.000    0.000    0.000    0.000    0.000    0.000 
#
# Total GULP energy -111557.901932 kJ/mol
# GULP energy per Si atom -5577.895097 kJ/mol
# Density = 2.243376 g / cm^3
# Si number density = 22.484932 Si / 1000 Ang^3
#
#
#
# Elastic Constant Matrix: (Units=GPa)
#
#
# Indices 1 2 3 4 5 6 
#
# 1 129.9743 19.9302 3.4316 0.0000 10.7084 0.0000
# 2 19.9302 92.8350 29.5446 0.0000 10.9282 0.0000
# 3 3.4316 29.5446 56.5924 0.0000 21.9141 0.0000
# 4 0.0000 0.0000 0.0000 28.9198 0.0000 5.6869
# 5 10.7084 10.9282 21.9141 0.0000 24.8005 0.0000
# 6 0.0000 0.0000 0.0000 5.6869 0.0000 27.4700
#
#
#
# Elastic Compliance Matrix: (Units=1/GPa)
#
#
# Indices 1 2 3 4 5 6 
#
# 1 0.008334 -0.001985 0.002410 0.000000 -0.004854 0.000000
# 2 -0.001985 0.013394 -0.007477 0.000000 0.001562 0.000000
# 3 0.002410 -0.007477 0.031246 0.000000 -0.025355 0.000000
# 4 0.000000 0.000000 0.000000 0.036046 0.000000 -0.007462
# 5 -0.004854 0.001562 -0.025355 0.000000 0.064134 0.000000
# 6 0.000000 0.000000 0.000000 -0.007462 0.000000 0.037948
#
#
# Mechanical properties :
#
#
# Convention : Reuss Voigt Hill
#
# Bulk Modulus (GPa) = 25.72593 42.80161 34.26377
# Shear Modulus (GPa) = 22.91890 31.33775 27.12833
#
# Velocity S-wave (km/s) = 3.19611 3.73731 3.47726
# Velocity P-wave (km/s) = 5.00864 6.14006 5.60298
#
# Compressibility (1/GPa) = 0.03887128
#
# Stress axis : x y z
#
# Youngs Moduli (GPa) = 119.98350 74.66294 32.00458
#
# Poissons Ratio (x) = 0.14821 -0.07715
# Poissons Ratio (y) = 0.23817 0.23928
# Poissons Ratio (z) = -0.28922 0.55822
#
# Static dielectric constant tensor:
#      x y z
#    x 1.918670 0.000000 -0.075420 
#    y 0.000000 1.886820 0.000000 
#    z -0.075420 0.000000 1.872080 
# 
# From -- ./inp_files/150772.got.cif
#   From: 2010.05.17/outbox.cif.g08.bks.cpg/sg15_76_cif.got.tgz:150772.got - 2010.06.03 18:47:42.
