data_PCOD9278361
_publ_section_title
;
Structure prediction by ZEFSAII (Michael W. Deem and Ramdas Pophale) SiO2 
 PCOD9278361
Probable space group: C 2/C
;
_chemical_formula_sum "Si O2"
_cell_formula_units_Z 52
_cell_length_a 11.060707
_cell_length_b 11.376368
_cell_length_c 19.793390
_cell_angle_alpha 90.000000
_cell_angle_beta 71.535691
_cell_angle_gamma 90.000000
_cell_volume 2362.401508
_symmetry_space_group_name_H-M "C 2/C"
_symmetry_group_IT_number 15
_symmetry_cell_setting 'monoclinic'
loop_
_space_group_symop_operation_xyz
x,y,z
-x,y,1/2-z
-x,-y,-z
x,-y,1/2+z
1/2+x,1/2+y,z
1/2-x,1/2+y,1/2-z
1/2-x,1/2-y,-z
1/2+x,1/2-y,1/2+z
loop_
_atom_site_type_symbol
_atom_site_label
_atom_site_fract_x
_atom_site_fract_y
_atom_site_fract_z
Si Si1 0.025128 0.091650 0.324270
Si Si2 0.500000 0.211719 0.250000
Si Si3 0.855972 0.238927 0.899999
Si Si4 0.124169 0.483340 0.085404
Si Si5 0.889369 0.660218 0.638868
Si Si6 0.693609 0.000640 0.222648
Si Si7 0.117845 0.013232 0.529437
O O1 0.043709 0.227521 0.339924
O O2 0.000000 0.078247 0.250000
O O3 0.159362 0.028560 0.315846
O O4 0.916917 0.041088 0.392081
O O5 0.541384 0.285553 0.177912
O O6 0.617112 0.123616 0.246673
O O7 0.880819 0.374673 0.912942
O O8 0.720043 0.210113 0.890334
O O9 0.867990 0.152098 0.960125
O O10 0.138217 0.449828 0.162390
O O11 0.996402 0.419789 0.083661
O O12 0.253756 0.457084 0.022786
O O13 0.828108 0.581741 0.709409
O O14 0.000000 0.000000 0.500000
#
# Coordination Sequence:
#
# PCOD9278361 Si02
#       7
#     8   4   8   8   8   8   8
#     4  12  26  43  67 109 143 183 243 297 365 434
#     4  10  20  42  72 104 130 176 246 288 352 426
#     4  11  24  43  71 104 136 185 249 292 359 444
#     4  11  23  46  70  99 136 192 242 288 370 432
#     4  12  23  44  75 101 144 184 237 310 357 433
#     4  11  20  42  68 102 138 180 237 293 362 430
#     4  12  26  46  69 100 151 193 232 305 360 431
#
# _framework density 22.011500999999999
#
# number of rings (size 3 to 8) (size 9 to 14) (size 15 to 20)
#    0.000    0.615    7.692    2.308    3.231    1.231 
#    2.769    0.000    0.000    0.000    0.000    0.000 
#    0.000    0.000    0.000    0.000    0.000    0.000 
#
# Total GULP energy -145530.508588 kJ/mol
# GULP energy per Si atom -5597.327253 kJ/mol
# Density = 2.196140 g / cm^3
# Si number density = 22.011501 Si / 1000 Ang^3
#
#
#
# Elastic Constant Matrix: (Units=GPa)
#
#
# Indices 1 2 3 4 5 6 
#
# 1 71.2327 21.6884 27.5292 0.0000 -19.5759 0.0000
# 2 21.6884 79.7712 24.1711 0.0000 -3.7084 0.0000
# 3 27.5292 24.1711 117.8433 0.0000 -25.7414 0.0000
# 4 0.0000 0.0000 0.0000 25.4150 0.0000 -8.6123
# 5 -19.5759 -3.7084 -25.7414 0.0000 47.0404 0.0000
# 6 0.0000 0.0000 0.0000 -8.6123 0.0000 30.0569
#
#
#
# Elastic Compliance Matrix: (Units=1/GPa)
#
#
# Indices 1 2 3 4 5 6 
#
# 1 0.017639 -0.003907 -0.002025 0.000000 0.005924 0.000000
# 2 -0.003907 0.014242 -0.002406 0.000000 -0.001820 0.000000
# 3 -0.002025 -0.002406 0.010480 0.000000 0.004702 0.000000
# 4 0.000000 0.000000 0.000000 0.043578 0.000000 0.012486
# 5 0.005924 -0.001820 0.004702 0.000000 0.026153 0.000000
# 6 0.000000 0.000000 0.000000 0.012486 0.000000 0.036848
#
#
# Mechanical properties :
#
#
# Convention : Reuss Voigt Hill
#
# Bulk Modulus (GPa) = 38.93350 46.18051 42.55701
# Shear Modulus (GPa) = 28.70632 33.53304 31.11968
#
# Velocity S-wave (km/s) = 3.61522 3.90735 3.76412
# Velocity P-wave (km/s) = 5.92897 6.43290 6.18607
#
# Compressibility (1/GPa) = 0.02568482
#
# Stress axis : x y z
#
# Youngs Moduli (GPa) = 56.69359 70.21248 95.42346
#
# Poissons Ratio (x) = 0.27429 0.19325
# Poissons Ratio (y) = 0.22148 0.22960
# Poissons Ratio (z) = 0.11482 0.16894
#
# Static dielectric constant tensor:
#      x y z
#    x 1.820540 0.000000 -0.009940 
#    y 0.000000 1.814920 0.000000 
#    z -0.009940 0.000000 1.846090 
# 
# From -- ./inp_files/236896.got.cif
#   From: 2010.05.17/outbox.cif.g08.bks.cpg/sg15_119_cif.got.tgz:236896.got - 2010.06.03 18:47:42.
