data_PCOD9278744
_publ_section_title
;
Structure prediction by ZEFSAII (Michael W. Deem and Ramdas Pophale) SiO2 
 PCOD9278744
Probable space group: C 2/C
;
_chemical_formula_sum "Si O2"
_cell_formula_units_Z 44
_cell_length_a 8.257986
_cell_length_b 10.706094
_cell_length_c 21.475337
_cell_angle_alpha 90.000000
_cell_angle_beta 69.159729
_cell_angle_gamma 90.000000
_cell_volume 1774.433543
_symmetry_space_group_name_H-M "C 2/C"
_symmetry_group_IT_number 15
_symmetry_cell_setting 'monoclinic'
loop_
_space_group_symop_operation_xyz
x,y,z
-x,y,1/2-z
-x,-y,-z
x,-y,1/2+z
1/2+x,1/2+y,z
1/2-x,1/2+y,1/2-z
1/2-x,1/2-y,-z
1/2+x,1/2-y,1/2+z
loop_
_atom_site_type_symbol
_atom_site_label
_atom_site_fract_x
_atom_site_fract_y
_atom_site_fract_z
Si Si1 0.697003 0.522247 0.899595
Si Si2 0.370771 0.871304 0.979922
Si Si3 0.214280 0.705342 0.357623
Si Si4 0.302577 0.076170 0.266400
Si Si5 0.841231 0.046631 0.890995
Si Si6 0.000000 0.094999 0.750000
O O1 0.785078 0.479531 0.950175
O O2 0.772803 0.655229 0.865896
O O3 0.736615 0.410807 0.845529
O O4 0.491389 0.543511 0.922592
O O5 0.544085 0.825799 0.922180
O O6 0.250000 0.750000 0.000000
O O7 0.345462 0.921216 0.054166
O O8 0.192239 0.685141 0.286019
O O9 0.337848 0.592453 0.362483
O O10 0.500000 0.032947 0.250000
O O11 0.163813 0.979309 0.257399
O O12 0.905876 0.139034 0.827075
#
# Coordination Sequence:
#
# PCOD9278744 Si02
#       6
#     8   8   8   8   8   4
#     4  11  24  47  67 100 146 175 233 302 341 419
#     4  12  24  44  69 101 141 186 232 286 358 423
#     4  11  24  46  69 100 139 181 235 291 351 424
#     4  10  20  45  68 101 136 182 234 287 359 414
#     4  10  22  44  68  98 136 180 231 285 354 415
#     4   8  20  40  68  98 136 174 238 292 340 422
#
# _framework density 24.796644000000001
#
# number of rings (size 3 to 8) (size 9 to 14) (size 15 to 20)
#    0.000    1.455    3.636    1.091    0.000    0.727 
#   32.727    0.000    0.000    0.000    0.000    0.000 
#    0.000    0.000    0.000    0.000    0.000    0.000 
#
# Total GULP energy -122606.892734 kJ/mol
# GULP energy per Si atom -5573.040579 kJ/mol
# Density = 2.474021 g / cm^3
# Si number density = 24.796644 Si / 1000 Ang^3
#
#
#
# Elastic Constant Matrix: (Units=GPa)
#
#
# Indices 1 2 3 4 5 6 
#
# 1 79.6967 13.7328 13.3602 0.0000 -5.3063 0.0000
# 2 13.7328 143.8926 35.1877 0.0000 6.8869 0.0000
# 3 13.3602 35.1877 155.5136 0.0000 -18.8331 0.0000
# 4 0.0000 0.0000 0.0000 37.0217 0.0000 -9.9578
# 5 -5.3063 6.8869 -18.8331 0.0000 32.1544 0.0000
# 6 0.0000 0.0000 0.0000 -9.9578 0.0000 17.5899
#
#
#
# Elastic Compliance Matrix: (Units=1/GPa)
#
#
# Indices 1 2 3 4 5 6 
#
# 1 0.012990 -0.001191 -0.000598 0.000000 0.002048 0.000000
# 2 -0.001191 0.007698 -0.002005 0.000000 -0.003020 0.000000
# 3 -0.000598 -0.002005 0.007508 0.000000 0.004728 0.000000
# 4 0.000000 0.000000 0.000000 0.031863 0.000000 0.018038
# 5 0.002048 -0.003020 0.004728 0.000000 0.034854 0.000000
# 6 0.000000 0.000000 0.000000 0.018038 0.000000 0.067062
#
#
# Mechanical properties :
#
#
# Convention : Reuss Voigt Hill
#
# Bulk Modulus (GPa) = 48.52975 55.96271 52.24623
# Shear Modulus (GPa) = 28.33931 38.47471 33.40701
#
# Velocity S-wave (km/s) = 3.38430 3.94332 3.67446
# Velocity P-wave (km/s) = 5.90635 6.58412 6.25442
#
# Compressibility (1/GPa) = 0.02060592
#
# Stress axis : x y z
#
# Youngs Moduli (GPa) = 76.98501 129.89992 133.19072
#
# Poissons Ratio (x) = 0.15477 0.07969
# Poissons Ratio (y) = 0.09172 0.26708
# Poissons Ratio (z) = 0.04606 0.26048
#
# Static dielectric constant tensor:
#      x y z
#    x 1.979210 0.000000 -0.008130 
#    y 0.000000 2.085690 0.000000 
#    z -0.008130 0.000000 2.065120 
# 
# From -- ./inp_files/230146.got.cif
#   From: 2010.05.17/outbox.cif.g08.bks.cpg/sg15_116_cif.got.tgz:230146.got - 2010.06.03 18:47:42.
