data_PCOD9278139
_publ_section_title
;
Structure prediction by ZEFSAII (Michael W. Deem and Ramdas Pophale) SiO2 
 PCOD9278139
Probable space group: C 2/C
;
_chemical_formula_sum "Si O2"
_cell_formula_units_Z 44
_cell_length_a 29.314259
_cell_length_b 14.810795
_cell_length_c 15.052613
_cell_angle_alpha 90.000000
_cell_angle_beta 19.669209
_cell_angle_gamma 90.000000
_cell_volume 2199.730321
_symmetry_space_group_name_H-M "C 2/C"
_symmetry_group_IT_number 15
_symmetry_cell_setting 'monoclinic'
loop_
_space_group_symop_operation_xyz
x,y,z
-x,y,1/2-z
-x,-y,-z
x,-y,1/2+z
1/2+x,1/2+y,z
1/2-x,1/2+y,1/2-z
1/2-x,1/2-y,-z
1/2+x,1/2-y,1/2+z
loop_
_atom_site_type_symbol
_atom_site_label
_atom_site_fract_x
_atom_site_fract_y
_atom_site_fract_z
Si Si1 0.432577 0.560402 0.699862
Si Si2 0.288090 0.892491 0.241995
Si Si3 0.344396 0.014435 0.815163
Si Si4 0.148853 0.430861 0.991190
Si Si5 0.405837 0.697351 0.007263
Si Si6 0.500000 0.442113 0.750000
O O1 0.500000 0.500000 0.500000
O O2 0.507901 0.655939 0.569386
O O3 0.469816 0.506316 0.721679
O O4 0.269826 0.563711 0.987505
O O5 0.291284 0.912511 0.341411
O O6 0.370787 0.802113 0.076581
O O7 0.133989 0.883482 0.491794
O O8 0.341169 0.980520 0.090654
O O9 0.500000 0.000000 0.500000
O O10 0.339068 0.041511 0.927696
O O11 0.000000 0.390458 0.250000
O O12 0.269868 0.362321 0.748098
O O13 0.500000 0.684943 0.750000
#
# Coordination Sequence:
#
# PCOD9278139 Si02
#       6
#     8   8   8   8   8   4
#     4  11  20  42  68  95 130 180 224 269 337 400
#     4  11  24  43  70 101 139 175 233 279 341 403
#     4  11  23  41  71  97 137 183 223 275 348 406
#     4  12  24  45  70  98 141 182 223 286 345 405
#     4  12  25  43  69 103 134 180 229 287 337 405
#     4  10  20  42  66  94 134 180 220 276 334 406
#
# _framework density 20.002452999999999
#
# number of rings (size 3 to 8) (size 9 to 14) (size 15 to 20)
#    0.000    0.727    6.364    1.636    1.273    0.727 
#    0.000    2.727    0.000    0.000    0.000    0.000 
#    0.000    0.000    0.000    0.000    0.000    0.000 
#
# Total GULP energy -122803.378588 kJ/mol
# GULP energy per Si atom -5581.971754 kJ/mol
# Density = 1.995693 g / cm^3
# Si number density = 20.002453 Si / 1000 Ang^3
#
#
#
# Elastic Constant Matrix: (Units=GPa)
#
#
# Indices 1 2 3 4 5 6 
#
# 1 105.1895 9.1751 16.9051 0.0000 5.9156 -0.0001
# 2 9.1751 70.1822 19.8027 0.0000 3.7992 -0.0001
# 3 16.9051 19.8027 119.8469 0.0000 -25.4191 0.0000
# 4 0.0000 0.0000 0.0000 40.0957 0.0000 -3.2701
# 5 5.9156 3.7992 -25.4191 0.0000 50.6937 0.0000
# 6 -0.0001 -0.0001 0.0000 -3.2701 0.0000 18.6626
#
#
#
# Elastic Compliance Matrix: (Units=1/GPa)
#
#
# Indices 1 2 3 4 5 6 
#
# 1 0.009953 -0.000715 -0.001702 0.000000 -0.001961 0.000000
# 2 -0.000715 0.015319 -0.002972 0.000000 -0.002555 0.000000
# 3 -0.001702 -0.002972 0.010255 0.000000 0.005564 0.000000
# 4 0.000000 0.000000 0.000000 0.025302 0.000000 0.004434
# 5 -0.001961 -0.002555 0.005564 0.000000 0.022936 0.000000
# 6 0.000000 0.000000 0.000000 0.004434 0.000000 0.054360
#
#
# Mechanical properties :
#
#
# Convention : Reuss Voigt Hill
#
# Bulk Modulus (GPa) = 40.40524 42.99825 41.70175
# Shear Modulus (GPa) = 31.81616 38.51277 35.16446
#
# Velocity S-wave (km/s) = 3.99258 4.39270 4.19741
# Velocity P-wave (km/s) = 6.44191 6.87538 6.66217
#
# Compressibility (1/GPa) = 0.02474926
#
# Stress axis : x y z
#
# Youngs Moduli (GPa) = 100.47443 65.27820 97.51197
#
# Poissons Ratio (x) = 0.04666 0.16594
# Poissons Ratio (y) = 0.07182 0.28984
# Poissons Ratio (z) = 0.17098 0.19403
#
# Static dielectric constant tensor:
#      x y z
#    x 1.547720 0.000000 -0.127780 
#    y 0.000000 1.719330 0.000000 
#    z -0.127780 0.000000 1.695720 
# 
# From -- ./inp_files/182229.got.cif
#   From: 2010.05.17/outbox.cif.g08.bks.cpg/sg15_92_cif.got.tgz:182229.got - 2010.06.03 18:47:42.
