data_PCOD9278108
_publ_section_title
;
Structure prediction by ZEFSAII (Michael W. Deem and Ramdas Pophale) SiO2 
 PCOD9278108
Probable space group: C 2/C
;
_chemical_formula_sum "Si O2"
_cell_formula_units_Z 40
_cell_length_a 8.721236
_cell_length_b 12.050045
_cell_length_c 16.902987
_cell_angle_alpha 90.000000
_cell_angle_beta 59.928997
_cell_angle_gamma 90.000000
_cell_volume 1537.268137
_symmetry_space_group_name_H-M "C 2/C"
_symmetry_group_IT_number 15
_symmetry_cell_setting 'monoclinic'
loop_
_space_group_symop_operation_xyz
x,y,z
-x,y,1/2-z
-x,-y,-z
x,-y,1/2+z
1/2+x,1/2+y,z
1/2-x,1/2+y,1/2-z
1/2-x,1/2-y,-z
1/2+x,1/2-y,1/2+z
loop_
_atom_site_type_symbol
_atom_site_label
_atom_site_fract_x
_atom_site_fract_y
_atom_site_fract_z
Si Si1 0.631133 0.012993 0.573918
Si Si2 0.204879 0.278550 0.622353
Si Si3 0.382021 0.644658 0.219808
Si Si4 0.760465 0.455256 0.129968
Si Si5 0.907602 0.833117 0.986255
O O1 0.615889 0.888287 0.610435
O O2 0.677479 0.006717 0.469031
O O3 0.446193 0.077757 0.625800
O O4 0.801084 0.077295 0.565582
O O5 0.226164 0.298903 0.711470
O O6 0.146490 0.151673 0.635180
O O7 0.407773 0.279533 0.530811
O O8 0.500000 0.716364 0.250000
O O9 0.681704 0.543226 0.210879
O O10 0.508771 0.612640 0.114317
O O11 0.750000 0.750000 0.000000
#
# Coordination Sequence:
#
# PCOD9278108 Si02
#       5
#     8   8   8   8   8
#     4  11  21  40  68  93 135 173 227 281 343 423
#     4  10  23  40  66  98 127 179 231 276 349 418
#     4  10  22  43  61  93 135 169 222 285 342 402
#     4  11  22  42  61  97 137 173 219 291 348 413
#     4  10  20  42  66  90 127 171 233 270 338 414
#
# _framework density 26.020184
#
# number of rings (size 3 to 8) (size 9 to 14) (size 15 to 20)
#    1.200    0.400    4.000    1.200    0.000    0.800 
#   10.800    2.000    0.000    0.000    0.000    0.000 
#    0.000    0.000    0.000    0.000    0.000    0.000 
#
# Total GULP energy -111453.986517 kJ/mol
# GULP energy per Si atom -5572.699326 kJ/mol
# Density = 2.596096 g / cm^3
# Si number density = 26.020184 Si / 1000 Ang^3
#
#
#
# Elastic Constant Matrix: (Units=GPa)
#
#
# Indices 1 2 3 4 5 6 
#
# 1 44.2363 -1.0764 3.4769 0.0000 -6.9021 0.0000
# 2 -1.0764 103.7919 36.8410 0.0000 -5.0200 0.0000
# 3 3.4769 36.8410 73.8725 0.0000 2.6492 0.0000
# 4 0.0000 0.0000 0.0000 41.9320 0.0000 6.5035
# 5 -6.9021 -5.0200 2.6492 0.0000 28.0192 0.0000
# 6 0.0000 0.0000 0.0000 6.5035 0.0000 39.7815
#
#
#
# Elastic Compliance Matrix: (Units=1/GPa)
#
#
# Indices 1 2 3 4 5 6 
#
# 1 0.023768 0.001247 -0.001965 0.000000 0.006264 0.000000
# 2 0.001247 0.011973 -0.006139 0.000000 0.003033 0.000000
# 3 -0.001965 -0.006139 0.016805 0.000000 -0.003173 0.000000
# 4 0.000000 0.000000 0.000000 0.024469 0.000000 -0.004000
# 5 0.006264 0.003033 -0.003173 0.000000 0.038076 0.000000
# 6 0.000000 0.000000 0.000000 -0.004000 0.000000 0.025791
#
#
# Mechanical properties :
#
#
# Convention : Reuss Voigt Hill
#
# Bulk Modulus (GPa) = 25.75188 33.37598 29.56393
# Shear Modulus (GPa) = 29.84371 34.12381 31.98376
#
# Velocity S-wave (km/s) = 3.39033 3.62530 3.50978
# Velocity P-wave (km/s) = 5.02436 5.51168 5.27365
#
# Compressibility (1/GPa) = 0.03883212
#
# Stress axis : x y z
#
# Youngs Moduli (GPa) = 42.07325 83.52002 59.50781
#
# Poissons Ratio (x) = -0.10415 0.11695
# Poissons Ratio (y) = -0.05247 0.36530
# Poissons Ratio (z) = 0.08268 0.51270
#
# Static dielectric constant tensor:
#      x y z
#    x 2.406690 0.000000 0.031660 
#    y 0.000000 2.123630 0.000000 
#    z 0.031660 0.000000 2.019940 
# 
# From -- ./inp_files/188382.got.cif
#   From: 2010.05.17/outbox.cif.g08.bks.cpg/sg15_95_cif.got.tgz:188382.got - 2010.06.03 18:47:42.
