data_PCOD9278503
_publ_section_title
;
Structure prediction by ZEFSAII (Michael W. Deem and Ramdas Pophale) SiO2 
 PCOD9278503
Probable space group: C 2/C
;
_chemical_formula_sum "Si O2"
_cell_formula_units_Z 44
_cell_length_a 8.255919
_cell_length_b 23.236428
_cell_length_c 12.139460
_cell_angle_alpha 90.000000
_cell_angle_beta 59.327012
_cell_angle_gamma 90.000000
_cell_volume 2002.993348
_symmetry_space_group_name_H-M "C 2/C"
_symmetry_group_IT_number 15
_symmetry_cell_setting 'monoclinic'
loop_
_space_group_symop_operation_xyz
x,y,z
-x,y,1/2-z
-x,-y,-z
x,-y,1/2+z
1/2+x,1/2+y,z
1/2-x,1/2+y,1/2-z
1/2-x,1/2-y,-z
1/2+x,1/2-y,1/2+z
loop_
_atom_site_type_symbol
_atom_site_label
_atom_site_fract_x
_atom_site_fract_y
_atom_site_fract_z
Si Si1 0.500000 0.172494 0.250000
Si Si2 0.593184 0.076309 0.397538
Si Si3 0.000000 0.285933 0.250000
Si Si4 0.885598 0.149983 0.679578
Si Si5 0.368472 0.051349 0.695145
Si Si6 0.410077 0.302283 0.603724
Si Si7 0.500000 0.605017 0.250000
O O1 0.527132 0.129838 0.345343
O O2 0.312090 0.210264 0.328717
O O3 0.451328 0.073158 0.549612
O O4 0.809975 0.077962 0.364517
O O5 0.607727 0.017342 0.323470
O O6 0.182958 0.321100 0.223708
O O7 0.973744 0.245414 0.367668
O O8 0.830814 0.081844 0.709492
O O9 0.000000 0.163660 0.750000
O O10 0.008997 0.175388 0.538014
O O11 0.500000 0.068748 0.750000
O O12 0.419651 0.357002 0.680052
#
# Coordination Sequence:
#
# PCOD9278503 Si02
#       7
#     4   8   4   8   8   8   4
#     4  10  20  43  68  94 130 175 224 276 332 398
#     4  10  21  38  62  95 129 176 219 268 327 398
#     4  11  26  47  70 100 132 173 228 289 346 390
#     4  12  26  44  68 102 133 178 225 279 336 400
#     4  11  22  40  62  93 137 174 218 271 330 393
#     4  10  23  45  68  97 132 176 227 281 339 397
#     4   9  20  38  64  88 128 176 220 267 330 396
#
# _framework density 21.967120999999999
#
# number of rings (size 3 to 8) (size 9 to 14) (size 15 to 20)
#    0.000    1.455    1.818    2.727    2.545    0.727 
#    6.545    2.727    0.000    0.000    0.000    0.000 
#    0.000    0.000    0.000    0.000    0.000    0.000 
#
# Total GULP energy -122585.513563 kJ/mol
# GULP energy per Si atom -5572.068798 kJ/mol
# Density = 2.191712 g / cm^3
# Si number density = 21.967121 Si / 1000 Ang^3
#
#
#
# Elastic Constant Matrix: (Units=GPa)
#
#
# Indices 1 2 3 4 5 6 
#
# 1 138.8595 23.8457 30.9386 0.0000 6.0997 0.0000
# 2 23.8457 50.2817 11.5577 0.0000 7.9127 0.0000
# 3 30.9386 11.5577 52.6814 0.0000 10.0412 0.0000
# 4 0.0000 0.0000 0.0000 -78.3149 0.0000 -58.3394
# 5 6.0997 7.9127 10.0412 0.0000 29.8999 0.0000
# 6 0.0000 0.0000 0.0000 -58.3394 0.0000 2.4464
#
#
#
# Elastic Compliance Matrix: (Units=1/GPa)
#
#
# Indices 1 2 3 4 5 6 
#
# 1 0.008736 -0.003191 -0.004542 0.000000 0.000588 0.000000
# 2 -0.003191 0.022634 -0.002216 0.000000 -0.004595 0.000000
# 3 -0.004542 -0.002216 0.023341 0.000000 -0.006326 0.000000
# 4 0.000000 0.000000 0.000000 -0.000680 0.000000 -0.016228
# 5 0.000588 -0.004595 -0.006326 0.000000 0.036665 0.000000
# 6 0.000000 0.000000 0.000000 -0.016228 0.000000 0.021784
#
#
# Mechanical properties :
#
#
# Convention : Reuss Voigt Hill
#
# Bulk Modulus (GPa) = 28.72530 41.61184 35.16857
# Shear Modulus (GPa) = 34.72657 2.50500 18.61579
#
# Velocity S-wave (km/s) = 3.98030 1.06903 2.91424
# Velocity P-wave (km/s) = 5.85052 4.52854 5.23145
#
# Compressibility (1/GPa) = 0.03481252
#
# Stress axis : x y z
#
# Youngs Moduli (GPa) = 114.47199 44.18187 42.84244
#
# Poissons Ratio (x) = 0.14100 0.19460
# Poissons Ratio (y) = 0.36531 0.09492
# Poissons Ratio (z) = 0.51996 0.09789
#
# Static dielectric constant tensor:
#      x y z
#    x 1.864830 0.000000 -0.061680 
#    y 0.000000 1.879760 0.000000 
#    z -0.061680 0.000000 1.808430 
# 
# From -- ./inp_files/79723.got.cif
#   From: 2010.05.17/outbox.cif.g08.bks.cpg/sg15_40_cif.got.tgz:79723.got - 2010.06.03 18:47:42.
