data_PCOD9278297
_publ_section_title
;
Structure prediction by ZEFSAII (Michael W. Deem and Ramdas Pophale) SiO2 
 PCOD9278297
Probable space group: C 2/C
;
_chemical_formula_sum "Si O2"
_cell_formula_units_Z 40
_cell_length_a 21.858360
_cell_length_b 5.621221
_cell_length_c 15.279941
_cell_angle_alpha 90.000000
_cell_angle_beta 59.365272
_cell_angle_gamma 90.000000
_cell_volume 1615.426253
_symmetry_space_group_name_H-M "C 2/C"
_symmetry_group_IT_number 15
_symmetry_cell_setting 'monoclinic'
loop_
_space_group_symop_operation_xyz
x,y,z
-x,y,1/2-z
-x,-y,-z
x,-y,1/2+z
1/2+x,1/2+y,z
1/2-x,1/2+y,1/2-z
1/2-x,1/2-y,-z
1/2+x,1/2-y,1/2+z
loop_
_atom_site_type_symbol
_atom_site_label
_atom_site_fract_x
_atom_site_fract_y
_atom_site_fract_z
Si Si1 0.275438 0.796949 0.817517
Si Si2 0.750000 0.750000 0.500000
Si Si3 0.625700 0.140184 0.672015
Si Si4 0.000000 0.724626 0.250000
Si Si5 0.633434 0.529620 0.332668
Si Si6 0.901245 0.984333 0.449073
O O1 0.343237 0.735743 0.711189
O O2 0.298202 0.997520 0.873990
O O3 0.209964 0.861011 0.806396
O O4 0.261618 0.593644 0.898537
O O5 0.831133 0.829975 0.477398
O O6 0.613303 0.322213 0.761566
O O7 0.615241 0.265899 0.586621
O O8 0.565277 0.943356 0.725699
O O9 0.029426 0.882229 0.149355
O O10 0.589323 0.521055 0.453498
#
# Coordination Sequence:
#
# PCOD9278297 Si02
#       6
#     8   4   8   4   8   8
#     4  11  22  40  68 108 145 177 238 296 363 417
#     4  10  20  42  70 102 136 182 240 304 340 430
#     4  12  24  45  74  99 147 191 235 302 359 436
#     4  12  26  50  68 104 146 202 244 290 360 450
#     4  11  24  42  70 111 145 182 236 303 361 434
#     4  11  26  45  73 103 146 195 244 296 372 426
#
# _framework density 24.761265000000002
#
# number of rings (size 3 to 8) (size 9 to 14) (size 15 to 20)
#    0.000    0.800    6.000    0.600    0.000    7.200 
#    0.000    7.000    0.000    0.000    0.000    0.000 
#    0.000    0.000    0.000    0.000    0.000    0.000 
#
# Total GULP energy -111390.014684 kJ/mol
# GULP energy per Si atom -5569.500734 kJ/mol
# Density = 2.470491 g / cm^3
# Si number density = 24.761265 Si / 1000 Ang^3
#
#
#
# Elastic Constant Matrix: (Units=GPa)
#
#
# Indices 1 2 3 4 5 6 
#
# 1 60.2310 4.2797 9.0515 0.0030 -12.6734 0.0028
# 2 4.2797 40.5868 15.0312 0.0030 -7.3135 0.0132
# 3 9.0515 15.0312 158.5634 0.0021 -9.3694 -0.0024
# 4 0.0030 0.0030 0.0021 27.7939 0.0005 4.1143
# 5 -12.6734 -7.3135 -9.3694 0.0005 45.4323 -0.0004
# 6 0.0028 0.0132 -0.0024 4.1143 -0.0004 41.8812
#
#
#
# Elastic Compliance Matrix: (Units=1/GPa)
#
#
# Indices 1 2 3 4 5 6 
#
# 1 0.017744 -0.000781 -0.000662 -0.000002 0.004687 -0.000001
# 2 -0.000781 0.026184 -0.002228 -0.000001 0.003537 -0.000008
# 3 -0.000662 -0.002228 0.006604 0.000000 0.000819 0.000001
# 4 -0.000002 -0.000001 0.000000 0.036510 -0.000001 -0.003587
# 5 0.004687 0.003537 0.000819 -0.000001 0.024057 -0.000001
# 6 -0.000001 -0.000008 0.000001 -0.003587 -0.000001 0.024229
#
#
# Mechanical properties :
#
#
# Convention : Reuss Voigt Hill
#
# Bulk Modulus (GPa) = 23.15434 35.12289 29.13862
# Shear Modulus (GPa) = 31.83353 38.42276 35.12815
#
# Velocity S-wave (km/s) = 3.58944 3.94347 3.77061
# Velocity P-wave (km/s) = 5.15268 5.91186 5.54528
#
# Compressibility (1/GPa) = 0.04318844
#
# Stress axis : x y z
#
# Youngs Moduli (GPa) = 56.35699 38.19178 151.42278
#
# Poissons Ratio (x) = 0.02984 0.10022
# Poissons Ratio (y) = 0.04403 0.33744
# Poissons Ratio (z) = 0.03730 0.08511
#
# Static dielectric constant tensor:
#      x y z
#    x 1.978700 0.000000 0.025660 
#    y 0.000000 1.770960 -0.000020 
#    z 0.025660 -0.000020 1.619600 
# 
# From -- ./inp_files/170764.got.cif
#   From: 2010.05.17/outbox.cif.g08.bks.cpg/sg15_86_cif.got.tgz:170764.got - 2010.06.03 18:47:42.
