data_PCOD9278810
_publ_section_title
;
Structure prediction by ZEFSAII (Michael W. Deem and Ramdas Pophale) SiO2 
 PCOD9278810
Probable space group: C 2/C
;
_chemical_formula_sum "Si O2"
_cell_formula_units_Z 36
_cell_length_a 27.400517
_cell_length_b 8.270790
_cell_length_c 7.540596
_cell_angle_alpha 90.000000
_cell_angle_beta 118.799209
_cell_angle_gamma 90.000000
_cell_volume 1497.513834
_symmetry_space_group_name_H-M "C 2/C"
_symmetry_group_IT_number 15
_symmetry_cell_setting 'monoclinic'
loop_
_space_group_symop_operation_xyz
x,y,z
-x,y,1/2-z
-x,-y,-z
x,-y,1/2+z
1/2+x,1/2+y,z
1/2-x,1/2+y,1/2-z
1/2-x,1/2-y,-z
1/2+x,1/2-y,1/2+z
loop_
_atom_site_type_symbol
_atom_site_label
_atom_site_fract_x
_atom_site_fract_y
_atom_site_fract_z
Si Si1 0.801714 0.604533 0.178584
Si Si2 0.652449 0.684889 0.048389
Si Si3 0.000000 0.634398 0.750000
Si Si4 0.075699 0.375669 0.685075
Si Si5 0.302190 0.361304 0.488614
O O1 0.804992 0.281594 0.509324
O O2 0.866862 0.552455 0.297329
O O3 0.754367 0.468258 0.085100
O O4 0.795373 0.715073 0.341044
O O5 0.656329 0.494637 0.017978
O O6 0.671843 0.698205 0.282831
O O7 0.594822 0.756381 0.875981
O O8 0.041237 0.519613 0.710529
O O9 0.960242 0.711989 0.531183
#
# Coordination Sequence:
#
# PCOD9278810 Si02
#       5
#     8   8   4   8   8
#     4  10  26  43  67 112 146 199 240 289 356 440
#     4  10  23  42  63 105 146 190 239 294 351 427
#     4  10  20  46  78  96 142 180 252 320 364 420
#     4   9  23  42  68 109 133 183 242 310 365 407
#     4  12  23  44  71 101 159 201 238 281 361 442
#
# _framework density 24.039843999999999
#
# number of rings (size 3 to 8) (size 9 to 14) (size 15 to 20)
#    1.333    0.444    2.222    0.667    0.000    9.778 
#    0.000    0.000    0.000   16.000    0.000    0.000 
#    0.000    0.000    0.000    0.000    0.000    0.000 
#
# Total GULP energy -100612.972068 kJ/mol
# GULP energy per Si atom -5589.609559 kJ/mol
# Density = 2.398513 g / cm^3
# Si number density = 24.039844 Si / 1000 Ang^3
#
#
#
# Elastic Constant Matrix: (Units=GPa)
#
#
# Indices 1 2 3 4 5 6 
#
# 1 82.6607 20.5750 50.9331 0.0000 5.7000 0.0000
# 2 20.5750 66.0271 62.6285 0.0000 5.3772 0.0000
# 3 50.9331 62.6285 275.0451 0.0000 -13.7804 0.0000
# 4 0.0000 0.0000 0.0000 25.6201 0.0000 -6.8757
# 5 5.7000 5.3772 -13.7804 0.0000 42.0372 0.0000
# 6 0.0000 0.0000 0.0000 -6.8757 0.0000 21.2247
#
#
#
# Elastic Compliance Matrix: (Units=1/GPa)
#
#
# Indices 1 2 3 4 5 6 
#
# 1 0.014180 -0.002063 -0.002276 0.000000 -0.002405 0.000000
# 2 -0.002063 0.020295 -0.004428 0.000000 -0.003768 0.000000
# 3 -0.002276 -0.004428 0.005195 0.000000 0.002578 0.000000
# 4 0.000000 0.000000 0.000000 0.042748 0.000000 0.013848
# 5 -0.002405 -0.003768 0.002578 0.000000 0.025442 0.000000
# 6 0.000000 0.000000 0.000000 0.013848 0.000000 0.051601
#
#
# Mechanical properties :
#
#
# Convention : Reuss Voigt Hill
#
# Bulk Modulus (GPa) = 45.17945 76.88957 61.03451
# Shear Modulus (GPa) = 27.11877 37.08283 32.10080
#
# Velocity S-wave (km/s) = 3.36233 3.93180 3.65816
# Velocity P-wave (km/s) = 5.82306 7.25712 6.57928
#
# Compressibility (1/GPa) = 0.02213396
#
# Stress axis : x y z
#
# Youngs Moduli (GPa) = 70.52291 49.27282 192.50254
#
# Poissons Ratio (x) = 0.10167 0.43822
# Poissons Ratio (y) = 0.14552 0.85239
# Poissons Ratio (z) = 0.16054 0.21818
#
# Static dielectric constant tensor:
#      x y z
#    x 1.983400 0.000000 0.020980 
#    y 0.000000 1.955010 0.000000 
#    z 0.020980 0.000000 1.976650 
# 
# From -- ./inp_files/68462.got.cif
#   From: 2010.05.17/outbox.cif.g08.bks.cpg/sg15_35_cif.got.tgz:68462.got - 2010.06.03 18:47:42.
