data_PCOD9278577
_publ_section_title
;
Structure prediction by ZEFSAII (Michael W. Deem and Ramdas Pophale) SiO2 
 PCOD9278577
Probable space group: C 2/C
;
_chemical_formula_sum "Si O2"
_cell_formula_units_Z 56
_cell_length_a 8.593991
_cell_length_b 31.182039
_cell_length_c 14.142716
_cell_angle_alpha 90.000000
_cell_angle_beta 46.108048
_cell_angle_gamma 90.000000
_cell_volume 2731.213899
_symmetry_space_group_name_H-M "C 2/C"
_symmetry_group_IT_number 15
_symmetry_cell_setting 'monoclinic'
loop_
_space_group_symop_operation_xyz
x,y,z
-x,y,1/2-z
-x,-y,-z
x,-y,1/2+z
1/2+x,1/2+y,z
1/2-x,1/2+y,1/2-z
1/2-x,1/2-y,-z
1/2+x,1/2-y,1/2+z
loop_
_atom_site_type_symbol
_atom_site_label
_atom_site_fract_x
_atom_site_fract_y
_atom_site_fract_z
Si Si1 0.043655 0.155563 0.424769
Si Si2 0.738853 0.532800 0.688197
Si Si3 0.000000 0.383915 0.750000
Si Si4 0.582986 0.943234 0.881731
Si Si5 0.000000 0.884604 0.750000
Si Si6 0.966362 0.752772 0.473151
Si Si7 0.266304 0.883610 0.300580
Si Si8 0.142521 0.710690 0.787599
O O1 0.294226 0.145027 0.320116
O O2 0.963235 0.146505 0.353945
O O3 0.011150 0.201788 0.482755
O O4 0.914867 0.122437 0.544228
O O5 0.500000 0.523493 0.750000
O O6 0.828768 0.488629 0.694199
O O7 0.722131 0.573956 0.761212
O O8 0.913307 0.546094 0.535139
O O9 0.033887 0.414744 0.646967
O O10 0.790901 0.915161 0.825975
O O11 0.750000 0.750000 0.500000
O O12 0.962558 0.720957 0.565643
O O13 0.168444 0.754741 0.315319
O O14 0.500000 0.887692 0.250000
O O15 0.271284 0.838314 0.242147
O O16 0.000000 0.711698 0.750000
#
# Coordination Sequence:
#
# PCOD9278577 Si02
#       8
#     8   8   4   8   4   8   8   8
#     4  10  23  40  65  93 123 167 208 258 317 377
#     4  11  22  38  61  88 123 160 209 252 320 365
#     4  10  22  40  58  88 126 156 214 246 314 370
#     4  10  22  39  59  90 121 163 203 262 306 377
#     4  10  20  44  62  88 128 156 212 258 310 382
#     4  11  24  41  65  97 132 167 213 269 325 386
#     4  10  22  41  62  92 120 161 212 256 314 376
#     4  10  23  43  64  93 130 167 220 261 322 390
#
# _framework density 20.503703999999999
#
# number of rings (size 3 to 8) (size 9 to 14) (size 15 to 20)
#    0.000    1.714    0.714    2.571    4.000    3.429 
#    2.571    2.143    0.000    0.000    0.000    0.000 
#    0.000    0.000    0.000    0.000    0.000    0.000 
#
# Total GULP energy -156279.193048 kJ/mol
# GULP energy per Si atom -5581.399752 kJ/mol
# Density = 2.045704 g / cm^3
# Si number density = 20.503704 Si / 1000 Ang^3
#
#
#
# Elastic Constant Matrix: (Units=GPa)
#
#
# Indices 1 2 3 4 5 6 
#
# 1 29.3438 5.1243 -7.5329 0.0000 5.9281 0.0000
# 2 5.1243 60.1389 13.6391 0.0000 19.4722 0.0000
# 3 -7.5329 13.6391 55.2441 0.0000 6.8374 0.0000
# 4 0.0000 0.0000 0.0000 38.7277 0.0000 6.8992
# 5 5.9281 19.4722 6.8374 0.0000 29.6236 0.0000
# 6 0.0000 0.0000 0.0000 6.8992 0.0000 35.1765
#
#
#
# Elastic Compliance Matrix: (Units=1/GPa)
#
#
# Indices 1 2 3 4 5 6 
#
# 1 0.037712 -0.002261 0.006640 0.000000 -0.007593 0.000000
# 2 -0.002261 0.021979 -0.004120 0.000000 -0.013044 0.000000
# 3 0.006640 -0.004120 0.020437 0.000000 -0.003338 0.000000
# 4 0.000000 0.000000 0.000000 0.026756 0.000000 -0.005248
# 5 -0.007593 -0.013044 -0.003338 0.000000 0.044621 0.000000
# 6 0.000000 0.000000 0.000000 -0.005248 0.000000 0.029457
#
#
# Mechanical properties :
#
#
# Convention : Reuss Voigt Hill
#
# Bulk Modulus (GPa) = 12.39974 18.57642 15.48808
# Shear Modulus (GPa) = 24.11666 29.60533 26.86100
#
# Velocity S-wave (km/s) = 3.43331 3.80399 3.62340
# Velocity P-wave (km/s) = 4.66664 5.32668 5.00755
#
# Compressibility (1/GPa) = 0.08064687
#
# Stress axis : x y z
#
# Youngs Moduli (GPa) = 26.51662 45.49879 48.93034
#
# Poissons Ratio (x) = 0.10286 -0.32491
# Poissons Ratio (y) = 0.05995 0.20160
# Poissons Ratio (z) = -0.17608 0.18746
#
# Static dielectric constant tensor:
#      x y z
#    x 1.723080 0.000000 0.018020 
#    y 0.000000 1.713520 0.000000 
#    z 0.018020 0.000000 1.699790 
# 
# From -- ./inp_files/139486.got.cif
#   From: 2010.05.17/outbox.cif.g08.bks.cpg/sg15_70_cif.got.tgz:139486.got - 2010.06.03 18:47:42.
