data_PCOD9278840
_publ_section_title
;
Structure prediction by ZEFSAII (Michael W. Deem and Ramdas Pophale) SiO2 
 PCOD9278840
Probable space group: C 2/C
;
_chemical_formula_sum "Si O2"
_cell_formula_units_Z 40
_cell_length_a 21.570740
_cell_length_b 12.382206
_cell_length_c 19.017158
_cell_angle_alpha 90.000000
_cell_angle_beta 17.251379
_cell_angle_gamma 90.000000
_cell_volume 1506.357088
_symmetry_space_group_name_H-M "C 2/C"
_symmetry_group_IT_number 15
_symmetry_cell_setting 'monoclinic'
loop_
_space_group_symop_operation_xyz
x,y,z
-x,y,1/2-z
-x,-y,-z
x,-y,1/2+z
1/2+x,1/2+y,z
1/2-x,1/2+y,1/2-z
1/2-x,1/2-y,-z
1/2+x,1/2-y,1/2+z
loop_
_atom_site_type_symbol
_atom_site_label
_atom_site_fract_x
_atom_site_fract_y
_atom_site_fract_z
Si Si1 0.424335 0.649594 0.532021
Si Si2 0.593625 0.592297 0.499399
Si Si3 0.892560 0.205858 0.303949
Si Si4 0.789721 0.467013 0.020263
Si Si5 0.038435 0.414056 0.518994
O O1 0.554561 0.622033 0.460698
O O2 0.395512 0.538667 0.518271
O O3 0.529848 0.726285 0.360862
O O4 0.199785 0.669586 0.810765
O O5 0.817580 0.634587 0.280378
O O6 0.406784 0.613696 0.756710
O O7 0.649108 0.270014 0.561374
O O8 0.803045 0.081254 0.404695
O O9 0.000000 0.439520 0.750000
O O10 0.863423 0.475048 0.021337
O O11 0.000000 0.500000 0.500000
#
# Coordination Sequence:
#
# PCOD9278840 Si02
#       5
#     8   8   8   8   8
#     4   8  16  31  48  67  86 120 179 225 252 308
#     4   8  15  30  50  72  88 116 164 222 272 312
#     4  11  23  37  45  63 102 147 191 222 251 293
#     4  10  21  30  48  74 101 130 174 219 260 318
#     4   9  16  29  52  71  87 123 170 219 273 314
#
# _framework density 26.554127999999999
#
# number of rings (size 3 to 8) (size 9 to 14) (size 15 to 20)
#    0.000    2.800    0.000    4.200    8.400    0.000 
#    3.600    0.000    0.000    0.000    0.000    0.000 
#    0.000    0.000    0.000   28.800    3.200   56.000 
#
# Total GULP energy -111491.648506 kJ/mol
# GULP energy per Si atom -5574.582425 kJ/mol
# Density = 2.649369 g / cm^3
# Si number density = 26.554128 Si / 1000 Ang^3
#
#
#
# Elastic Constant Matrix: (Units=GPa)
#
#
# Indices 1 2 3 4 5 6 
#
# 1 133.3277 24.2504 81.7497 0.0019 10.8719 0.0006
# 2 24.2504 60.9808 29.4415 0.0086 6.4708 -0.0062
# 3 81.7497 29.4415 307.4477 -0.0020 12.5819 0.0017
# 4 0.0019 0.0086 -0.0020 4.4840 -0.0018 -0.2977
# 5 10.8719 6.4708 12.5819 -0.0018 44.7874 0.0035
# 6 0.0006 -0.0062 0.0017 -0.2977 0.0035 24.3339
#
#
#
# Elastic Compliance Matrix: (Units=1/GPa)
#
#
# Indices 1 2 3 4 5 6 
#
# 1 0.009423 -0.002543 -0.002209 -0.000001 -0.001299 -0.000001
# 2 -0.002543 0.018067 -0.000984 -0.000034 -0.001717 0.000005
# 3 -0.002209 -0.000984 0.003952 0.000004 -0.000432 0.000000
# 4 -0.000001 -0.000034 0.000004 0.223197 0.000013 0.002731
# 5 -0.001299 -0.001717 -0.000432 0.000013 0.023012 -0.000004
# 6 -0.000001 0.000005 0.000000 0.002731 -0.000004 0.041128
#
#
# Mechanical properties :
#
#
# Convention : Reuss Voigt Hill
#
# Bulk Modulus (GPa) = 50.07309 85.84882 67.96096
# Shear Modulus (GPa) = 14.84084 39.14203 26.99143
#
# Velocity S-wave (km/s) = 2.36665 3.84350 3.19167
# Velocity P-wave (km/s) = 5.13478 7.21779 6.26349
#
# Compressibility (1/GPa) = 0.01997080
#
# Stress axis : x y z
#
# Youngs Moduli (GPa) = 106.12098 55.34960 253.04914
#
# Poissons Ratio (x) = 0.14075 0.55896
# Poissons Ratio (y) = 0.26987 0.24892
# Poissons Ratio (z) = 0.23441 0.05445
#
# Static dielectric constant tensor:
#      x y z
#    x 2.083740 0.000000 -0.163470 
#    y 0.000000 2.079600 0.000000 
#    z -0.163470 0.000000 2.408320 
# 
# From -- ./inp_files/215976.got.cif
#   From: 2010.05.17/outbox.cif.g08.bks.cpg/sg15_108_cif.got.tgz:215976.got - 2010.06.03 18:47:42.
