data_PCOD9278230
_publ_section_title
;
Structure prediction by ZEFSAII (Michael W. Deem and Ramdas Pophale) SiO2 
 PCOD9278230
Probable space group: C 2/C
;
_chemical_formula_sum "Si O2"
_cell_formula_units_Z 52
_cell_length_a 12.136979
_cell_length_b 14.287774
_cell_length_c 15.007175
_cell_angle_alpha 90.000000
_cell_angle_beta 72.320801
_cell_angle_gamma 90.000000
_cell_volume 2479.493718
_symmetry_space_group_name_H-M "C 2/C"
_symmetry_group_IT_number 15
_symmetry_cell_setting 'monoclinic'
loop_
_space_group_symop_operation_xyz
x,y,z
-x,y,1/2-z
-x,-y,-z
x,-y,1/2+z
1/2+x,1/2+y,z
1/2-x,1/2+y,1/2-z
1/2-x,1/2-y,-z
1/2+x,1/2-y,1/2+z
loop_
_atom_site_type_symbol
_atom_site_label
_atom_site_fract_x
_atom_site_fract_y
_atom_site_fract_z
Si Si1 0.359795 0.959950 0.452595
Si Si2 0.417669 0.813761 0.570745
Si Si3 0.782120 0.616527 0.251768
Si Si4 0.000000 0.509247 0.750000
Si Si5 0.605127 0.380409 0.495871
Si Si6 0.169332 0.678751 0.071763
Si Si7 0.449303 0.502050 0.666064
O O1 0.422517 0.913757 0.520969
O O2 0.437079 0.940072 0.346512
O O3 0.237271 0.908928 0.475596
O O4 0.328734 0.070473 0.461950
O O5 0.304950 0.819919 0.660665
O O6 0.409576 0.730444 0.502567
O O7 0.534566 0.795728 0.597386
O O8 0.898134 0.553729 0.232750
O O9 0.783814 0.677855 0.339872
O O10 0.671113 0.550292 0.281707
O O11 0.531215 0.429005 0.592300
O O12 0.569137 0.419189 0.405882
O O13 0.250000 0.750000 0.000000
O O14 0.500000 0.532183 0.750000
#
# Coordination Sequence:
#
# PCOD9278230 Si02
#       7
#     8   8   8   4   8   8   8
#     4  11  23  46  69  95 144 181 222 292 342 411
#     4  12  24  42  70 104 135 184 230 279 354 412
#     4  11  21  45  66  98 141 175 232 291 328 412
#     4  10  20  42  68  92 130 182 224 276 336 396
#     4  11  25  46  67 102 145 176 235 290 341 418
#     4  11  23  42  67 102 137 180 232 283 339 405
#     4  11  24  45  71  98 138 192 226 284 359 410
#
# _framework density 20.972024000000001
#
# number of rings (size 3 to 8) (size 9 to 14) (size 15 to 20)
#    0.000    0.923    6.154    2.769    2.154    1.231 
#    9.692    0.000    0.000    0.000    0.000    0.000 
#    0.000    0.000    0.000    0.000    0.000    0.000 
#
# Total GULP energy -145199.697007 kJ/mol
# GULP energy per Si atom -5584.603731 kJ/mol
# Density = 2.092429 g / cm^3
# Si number density = 20.972024 Si / 1000 Ang^3
#
#
#
# Elastic Constant Matrix: (Units=GPa)
#
#
# Indices 1 2 3 4 5 6 
#
# 1 82.8341 -2.3021 27.2646 0.0000 -13.7037 0.0000
# 2 -2.3021 63.9870 26.3707 0.0000 -5.5746 0.0000
# 3 27.2646 26.3707 105.1522 0.0000 2.7364 0.0000
# 4 0.0000 0.0000 0.0000 32.4201 0.0000 -2.8316
# 5 -13.7037 -5.5746 2.7364 0.0000 37.1839 0.0000
# 6 0.0000 0.0000 0.0000 -2.8316 0.0000 19.6924
#
#
#
# Elastic Compliance Matrix: (Units=1/GPa)
#
#
# Indices 1 2 3 4 5 6 
#
# 1 0.014752 0.003031 -0.004747 0.000000 0.006240 0.000000
# 2 0.003031 0.018379 -0.005506 0.000000 0.004278 0.000000
# 3 -0.004747 -0.005506 0.012212 0.000000 -0.003474 0.000000
# 4 0.000000 0.000000 0.000000 0.031237 0.000000 0.004492
# 5 0.006240 0.004278 -0.003474 0.000000 0.030090 0.000000
# 6 0.000000 0.000000 0.000000 0.004492 0.000000 0.051427
#
#
# Mechanical properties :
#
#
# Convention : Reuss Voigt Hill
#
# Bulk Modulus (GPa) = 32.36540 39.40443 35.88492
# Shear Modulus (GPa) = 27.34594 31.23527 29.29061
#
# Velocity S-wave (km/s) = 3.61491 3.86343 3.74123
# Velocity P-wave (km/s) = 5.73494 6.22345 5.98418
#
# Compressibility (1/GPa) = 0.03089719
#
# Stress axis : x y z
#
# Youngs Moduli (GPa) = 67.78970 54.40919 81.88456
#
# Poissons Ratio (x) = -0.16491 0.38874
# Poissons Ratio (y) = -0.20547 0.45089
# Poissons Ratio (z) = 0.32182 0.29960
#
# Static dielectric constant tensor:
#      x y z
#    x 1.768450 0.000000 0.015850 
#    y 0.000000 1.741420 0.000000 
#    z 0.015850 0.000000 1.811850 
# 
# From -- ./inp_files/144191.got.cif
#   From: 2010.05.17/outbox.cif.g08.bks.cpg/sg15_73_cif.got.tgz:144191.got - 2010.06.03 18:47:42.
