data_PCOD9278267
_publ_section_title
;
Structure prediction by ZEFSAII (Michael W. Deem and Ramdas Pophale) SiO2 
 PCOD9278267
Probable space group: C 2/C
;
_chemical_formula_sum "Si O2"
_cell_formula_units_Z 36
_cell_length_a 4.974306
_cell_length_b 26.494324
_cell_length_c 10.390178
_cell_angle_alpha 90.000000
_cell_angle_beta 87.938667
_cell_angle_gamma 90.000000
_cell_volume 1368.444549
_symmetry_space_group_name_H-M "C 2/C"
_symmetry_group_IT_number 15
_symmetry_cell_setting 'monoclinic'
loop_
_space_group_symop_operation_xyz
x,y,z
-x,y,1/2-z
-x,-y,-z
x,-y,1/2+z
1/2+x,1/2+y,z
1/2-x,1/2+y,1/2-z
1/2-x,1/2-y,-z
1/2+x,1/2-y,1/2+z
loop_
_atom_site_type_symbol
_atom_site_label
_atom_site_fract_x
_atom_site_fract_y
_atom_site_fract_z
Si Si1 0.832591 0.012372 0.875505
Si Si2 0.693267 0.166141 0.124940
Si Si3 0.000000 0.179748 0.750000
Si Si4 0.500000 0.419842 0.750000
Si Si5 0.381910 0.115759 0.610116
Si Si6 0.000000 0.751296 0.750000
O O1 0.622079 0.055730 0.914349
O O2 0.000000 0.035085 0.750000
O O3 0.778917 0.957325 0.816444
O O4 0.000000 0.000000 0.000000
O O5 0.500000 0.172953 0.250000
O O6 0.865816 0.115756 0.148124
O O7 0.897148 0.213140 0.134274
O O8 0.514231 0.151385 0.005311
O O9 0.090351 0.142529 0.633967
O O10 0.245198 0.216197 0.782958
O O11 0.500000 0.120803 0.750000
#
# Coordination Sequence:
#
# PCOD9278267 Si02
#       6
#     8   8   4   4   8   4
#     4  10  20  42  69 102 148 196 248 303 381 451
#     4  11  25  47  74 108 152 203 261 317 383 466
#     4  12  25  52  75 120 149 204 253 332 388 452
#     4   9  21  42  70  98 146 206 251 309 368 462
#     4  12  26  45  77 114 155 198 257 323 388 460
#     4  11  26  52  77 112 153 204 262 321 390 462
#
# _framework density 26.307241000000001
#
# number of rings (size 3 to 8) (size 9 to 14) (size 15 to 20)
#    0.667    0.444    5.556    0.000    0.000    8.000 
#    0.000    3.333    0.000    0.000    0.000    0.000 
#    0.000    0.000    0.000    0.000    0.000    0.000 
#
# Total GULP energy -100493.753441 kJ/mol
# GULP energy per Si atom -5582.986302 kJ/mol
# Density = 2.624736 g / cm^3
# Si number density = 26.307241 Si / 1000 Ang^3
#
#
#
# Elastic Constant Matrix: (Units=GPa)
#
#
# Indices 1 2 3 4 5 6 
#
# 1 94.9455 43.6064 32.2661 0.0000 15.9264 0.0000
# 2 43.6064 181.8508 27.3310 0.0000 21.4213 0.0000
# 3 32.2661 27.3310 143.7652 0.0000 31.0499 0.0000
# 4 0.0000 0.0000 0.0000 23.7169 0.0000 6.1896
# 5 15.9264 21.4213 31.0499 0.0000 46.5629 0.0000
# 6 0.0000 0.0000 0.0000 6.1896 0.0000 14.3403
#
#
#
# Elastic Compliance Matrix: (Units=1/GPa)
#
#
# Indices 1 2 3 4 5 6 
#
# 1 0.012671 -0.002524 -0.001961 0.000000 -0.001865 0.000000
# 2 -0.002524 0.006364 -0.000231 0.000000 -0.001911 0.000000
# 3 -0.001961 -0.000231 0.008496 0.000000 -0.004888 0.000000
# 4 0.000000 0.000000 0.000000 0.047517 0.000000 -0.020509
# 5 -0.001865 -0.001911 -0.004888 0.000000 0.026253 0.000000
# 6 0.000000 0.000000 0.000000 -0.020509 0.000000 0.078586
#
#
# Mechanical properties :
#
#
# Convention : Reuss Voigt Hill
#
# Bulk Modulus (GPa) = 55.25256 69.66314 62.45785
# Shear Modulus (GPa) = 25.59503 38.08120 31.83811
#
# Velocity S-wave (km/s) = 3.12256 3.80880 3.48263
# Velocity P-wave (km/s) = 5.83514 6.77353 6.32177
#
# Compressibility (1/GPa) = 0.01809871
#
# Stress axis : x y z
#
# Youngs Moduli (GPa) = 78.92115 157.13456 117.70869
#
# Poissons Ratio (x) = 0.39660 0.23085
# Poissons Ratio (y) = 0.19919 0.02716
# Poissons Ratio (z) = 0.15478 0.03626
#
# Static dielectric constant tensor:
#      x y z
#    x 2.155230 0.000000 -0.038550 
#    y 0.000000 2.061110 0.000000 
#    z -0.038550 0.000000 2.245070 
# 
# From -- ./inp_files/72644.got.cif
#   From: 2010.05.17/outbox.cif.g08.bks.cpg/sg15_37_cif.got.tgz:72644.got - 2010.06.03 18:47:42.
