data_PCOD9278599
_publ_section_title
;
Structure prediction by ZEFSAII (Michael W. Deem and Ramdas Pophale) SiO2 
 PCOD9278599
Probable space group: C 2/C
;
_chemical_formula_sum "Si O2"
_cell_formula_units_Z 60
_cell_length_a 23.223895
_cell_length_b 13.309747
_cell_length_c 16.387594
_cell_angle_alpha 90.000000
_cell_angle_beta 32.199369
_cell_angle_gamma 90.000000
_cell_volume 2699.223497
_symmetry_space_group_name_H-M "C 2/C"
_symmetry_group_IT_number 15
_symmetry_cell_setting 'monoclinic'
loop_
_space_group_symop_operation_xyz
x,y,z
-x,y,1/2-z
-x,-y,-z
x,-y,1/2+z
1/2+x,1/2+y,z
1/2-x,1/2+y,1/2-z
1/2-x,1/2-y,-z
1/2+x,1/2-y,1/2+z
loop_
_atom_site_type_symbol
_atom_site_label
_atom_site_fract_x
_atom_site_fract_y
_atom_site_fract_z
Si Si1 0.650691 0.443931 0.357539
Si Si2 0.191579 0.654935 0.956572
Si Si3 0.071434 0.152146 0.416646
Si Si4 0.500000 0.274041 0.750000
Si Si5 0.998573 0.356758 0.936438
Si Si6 0.734508 0.873111 0.595409
Si Si7 0.587828 0.828222 0.290556
Si Si8 0.698235 0.413819 0.478678
O O1 0.711393 0.402226 0.205804
O O2 0.645571 0.564831 0.363337
O O3 0.527677 0.405024 0.507868
O O4 0.706060 0.400061 0.371456
O O5 0.211995 0.775119 0.928066
O O6 0.084082 0.618755 0.037691
O O7 0.197058 0.639732 0.046542
O O8 0.013262 0.233906 0.544781
O O9 0.130140 0.224442 0.281586
O O10 0.500054 0.205518 0.669551
O O11 0.603951 0.345929 0.626265
O O12 0.120728 0.390167 0.777301
O O13 0.040549 0.613678 0.925528
O O14 0.814843 0.967363 0.496395
O O15 0.684731 0.883114 0.129148
#
# Coordination Sequence:
#
# PCOD9278599 Si02
#       8
#     8   8   8   4   8   8   8   8
#     4  11  19  40  69  96 131 174 231 268 329 395
#     4  11  22  43  64  94 141 177 211 285 326 394
#     4   9  20  36  70  97 125 174 222 276 319 397
#     4  12  26  48  66 100 134 172 226 294 334 392
#     4  10  20  44  64  91 134 173 216 266 338 397
#     4  11  26  40  64 103 136 174 228 268 333 402
#     4  10  23  45  69  94 134 172 223 281 339 395
#     4  12  25  44  67 100 131 178 227 275 338 403
#
# _framework density 22.228612999999999
#
# number of rings (size 3 to 8) (size 9 to 14) (size 15 to 20)
#    0.800    0.533    4.000    1.600    1.867    0.533 
#    7.200    0.000    0.000    0.000    0.000    0.000 
#    0.000    0.000    0.000    0.000    0.000    0.000 
#
# Total GULP energy -167333.414660 kJ/mol
# GULP energy per Si atom -5577.780489 kJ/mol
# Density = 2.217802 g / cm^3
# Si number density = 22.228613 Si / 1000 Ang^3
#
#
#
# Elastic Constant Matrix: (Units=GPa)
#
#
# Indices 1 2 3 4 5 6 
#
# 1 59.7915 -9.4230 1.4442 0.0000 2.3987 0.0000
# 2 -9.4230 56.7497 -7.9237 0.0000 6.8153 0.0000
# 3 1.4442 -7.9237 48.7703 0.0000 5.6508 0.0000
# 4 0.0000 0.0000 0.0000 25.1869 0.0000 -6.9946
# 5 2.3987 6.8153 5.6508 0.0000 22.4828 0.0000
# 6 0.0000 0.0000 0.0000 -6.9946 0.0000 19.8023
#
#
#
# Elastic Compliance Matrix: (Units=1/GPa)
#
#
# Indices 1 2 3 4 5 6 
#
# 1 0.017352 0.003284 0.000360 0.000000 -0.002937 0.000000
# 2 0.003284 0.019589 0.003928 0.000000 -0.007276 0.000000
# 3 0.000360 0.003928 0.021912 0.000000 -0.006737 0.000000
# 4 0.000000 0.000000 0.000000 0.044021 0.000000 0.015549
# 5 -0.002937 -0.007276 -0.006737 0.000000 0.048691 0.000000
# 6 0.000000 0.000000 0.000000 0.015549 0.000000 0.055992
#
#
# Mechanical properties :
#
#
# Convention : Reuss Voigt Hill
#
# Bulk Modulus (GPa) = 13.51388 14.83405 14.17397
# Shear Modulus (GPa) = 23.03328 25.57532 24.30430
#
# Velocity S-wave (km/s) = 3.22250 3.39567 3.31022
# Velocity P-wave (km/s) = 4.46528 4.69702 4.58261
#
# Compressibility (1/GPa) = 0.07399797
#
# Stress axis : x y z
#
# Youngs Moduli (GPa) = 57.63190 51.04948 45.63625
#
# Poissons Ratio (x) = -0.16765 -0.01643
# Poissons Ratio (y) = -0.18927 -0.17928
# Poissons Ratio (z) = -0.02075 -0.20054
#
# Static dielectric constant tensor:
#      x y z
#    x 1.839520 0.000000 0.003090 
#    y 0.000000 1.875180 0.000000 
#    z 0.003090 0.000000 1.782250 
# 
# From -- ./inp_files/222526.got.cif
#   From: 2010.05.17/outbox.cif.g08.bks.cpg/sg15_112_cif.got.tgz:222526.got - 2010.06.03 18:47:42.
