data_PCOD9278184
_publ_section_title
;
Structure prediction by ZEFSAII (Michael W. Deem and Ramdas Pophale) SiO2 
 PCOD9278184
Probable space group: C 2/C
;
_chemical_formula_sum "Si O2"
_cell_formula_units_Z 40
_cell_length_a 10.253694
_cell_length_b 10.635059
_cell_length_c 19.030575
_cell_angle_alpha 90.000000
_cell_angle_beta 45.122579
_cell_angle_gamma 90.000000
_cell_volume 1470.565309
_symmetry_space_group_name_H-M "C 2/C"
_symmetry_group_IT_number 15
_symmetry_cell_setting 'monoclinic'
loop_
_space_group_symop_operation_xyz
x,y,z
-x,y,1/2-z
-x,-y,-z
x,-y,1/2+z
1/2+x,1/2+y,z
1/2-x,1/2+y,1/2-z
1/2-x,1/2-y,-z
1/2+x,1/2-y,1/2+z
loop_
_atom_site_type_symbol
_atom_site_label
_atom_site_fract_x
_atom_site_fract_y
_atom_site_fract_z
Si Si1 0.876290 0.485807 0.443897
Si Si2 0.449679 0.385940 0.840229
Si Si3 0.865177 0.722723 0.524976
Si Si4 0.207097 0.702294 0.804348
Si Si5 0.721505 0.636203 0.877332
O O1 0.688020 0.455555 0.556275
O O2 0.965251 0.599371 0.454051
O O3 0.816448 0.477945 0.384211
O O4 0.021390 0.374020 0.395465
O O5 0.500000 0.457821 0.750000
O O6 0.635855 0.338123 0.805895
O O7 0.342575 0.258814 0.854558
O O8 0.750000 0.750000 0.500000
O O9 0.721387 0.712664 0.643873
O O10 0.017401 0.829275 0.480374
O O11 0.284221 0.635340 0.705414
#
# Coordination Sequence:
#
# PCOD9278184 Si02
#       5
#     8   8   8   8   8
#     4  11  20  42  71  91 121 173 225 260 327 392
#     4   9  17  35  70  96 119 163 224 272 318 381
#     4  12  26  42  60  95 137 173 209 269 330 386
#     4  10  20  42  67  93 125 166 217 273 318 385
#     4  10  21  42  66  95 128 165 221 275 316 387
#
# _framework density 27.200423000000001
#
# number of rings (size 3 to 8) (size 9 to 14) (size 15 to 20)
#    0.000    1.600    4.000    3.600    0.000    1.600 
#   10.800    0.000    0.000    0.000    0.000    0.000 
#    0.000    0.000    0.000    0.000    0.000    0.000 
#
# Total GULP energy -111706.727169 kJ/mol
# GULP energy per Si atom -5585.336358 kJ/mol
# Density = 2.713851 g / cm^3
# Si number density = 27.200423 Si / 1000 Ang^3
#
#
#
# Elastic Constant Matrix: (Units=GPa)
#
#
# Indices 1 2 3 4 5 6 
#
# 1 82.5831 11.8861 16.0589 0.0000 57.1491 0.0000
# 2 11.8861 55.5540 4.6940 0.0000 4.9103 0.0000
# 3 16.0589 4.6940 142.9235 0.0000 51.1141 0.0000
# 4 0.0000 0.0000 0.0000 21.1708 0.0000 1.7117
# 5 57.1491 4.9103 51.1141 0.0000 66.9985 0.0000
# 6 0.0000 0.0000 0.0000 1.7117 0.0000 22.2097
#
#
#
# Elastic Compliance Matrix: (Units=1/GPa)
#
#
# Indices 1 2 3 4 5 6 
#
# 1 0.039382 -0.005673 0.010488 0.000000 -0.041178 0.000000
# 2 -0.005673 0.018938 -0.001676 0.000000 0.004729 0.000000
# 3 0.010488 -0.001676 0.012417 0.000000 -0.018296 0.000000
# 4 0.000000 0.000000 0.000000 0.047531 0.000000 -0.003663
# 5 -0.041178 0.004729 -0.018296 0.000000 0.063662 0.000000
# 6 0.000000 0.000000 0.000000 -0.003663 0.000000 0.045308
#
#
# Mechanical properties :
#
#
# Convention : Reuss Voigt Hill
#
# Bulk Modulus (GPa) = 12.98437 38.48207 25.73322
# Shear Modulus (GPa) = 20.27323 38.63725 29.45524
#
# Velocity S-wave (km/s) = 2.73303 3.77299 3.29431
# Velocity P-wave (km/s) = 3.83969 5.75838 4.89399
#
# Compressibility (1/GPa) = 0.07701568
#
# Stress axis : x y z
#
# Youngs Moduli (GPa) = 25.39217 52.80449 80.53669
#
# Poissons Ratio (x) = 0.29954 -0.84467
# Poissons Ratio (y) = 0.14404 0.13498
# Poissons Ratio (z) = -0.26631 0.08850
#
# Static dielectric constant tensor:
#      x y z
#    x 2.285230 0.000000 0.029020 
#    y 0.000000 4.222410 0.000000 
#    z 0.029020 0.000000 2.439090 
# 
# From -- ./inp_files/141905.got.cif
#   From: 2010.05.17/outbox.cif.g08.bks.cpg/sg15_71_cif.got.tgz:141905.got - 2010.06.03 18:47:42.
