data_PCOD9278197
_publ_section_title
;
Structure prediction by ZEFSAII (Michael W. Deem and Ramdas Pophale) SiO2 
 PCOD9278197
Probable space group: C 2/C
;
_chemical_formula_sum "Si O2"
_cell_formula_units_Z 60
_cell_length_a 12.433735
_cell_length_b 13.462461
_cell_length_c 19.305566
_cell_angle_alpha 90.000000
_cell_angle_beta 64.026568
_cell_angle_gamma 90.000000
_cell_volume 2905.139248
_symmetry_space_group_name_H-M "C 2/C"
_symmetry_group_IT_number 15
_symmetry_cell_setting 'monoclinic'
loop_
_space_group_symop_operation_xyz
x,y,z
-x,y,1/2-z
-x,-y,-z
x,-y,1/2+z
1/2+x,1/2+y,z
1/2-x,1/2+y,1/2-z
1/2-x,1/2-y,-z
1/2+x,1/2-y,1/2+z
loop_
_atom_site_type_symbol
_atom_site_label
_atom_site_fract_x
_atom_site_fract_y
_atom_site_fract_z
Si Si1 0.324603 0.295463 0.379604
Si Si2 0.581851 0.691503 0.011128
Si Si3 0.357506 0.880728 0.421316
Si Si4 0.285614 0.272592 0.728440
Si Si5 0.500000 0.824421 0.250000
Si Si6 0.271866 0.087034 0.466889
Si Si7 0.615569 0.449516 0.878688
Si Si8 0.929947 0.824059 0.139605
O O1 0.249285 0.289683 0.330614
O O2 0.318358 0.187363 0.417813
O O3 0.275953 0.378466 0.445685
O O4 0.464863 0.314710 0.335037
O O5 0.577949 0.796915 0.050817
O O6 0.509174 0.609773 0.075802
O O7 0.719489 0.658290 0.960359
O O8 0.525087 0.700532 0.950808
O O9 0.417739 0.882420 0.328475
O O10 0.358052 0.992571 0.449416
O O11 0.407010 0.239518 0.731259
O O12 0.303159 0.383735 0.695391
O O13 0.177813 0.249013 0.810881
O O14 0.172518 0.050747 0.439393
O O15 0.606833 0.560832 0.854394
#
# Coordination Sequence:
#
# PCOD9278197 Si02
#       8
#     8   8   8   8   4   8   8   8
#     4  10  23  41  68  94 137 167 224 276 323 398
#     4  11  21  38  68 102 124 165 229 276 313 390
#     4  11  23  39  66 100 134 174 221 271 334 393
#     4  11  25  44  62  97 134 175 213 276 339 391
#     4  12  22  46  64  90 144 174 210 280 338 392
#     4  10  20  42  67  98 128 179 215 268 333 395
#     4  11  21  42  73  91 132 176 222 266 337 395
#     4  12  22  44  69 100 130 178 221 275 331 406
#
# _framework density 20.653054999999998
#
# number of rings (size 3 to 8) (size 9 to 14) (size 15 to 20)
#    0.000    1.067    5.333    1.600    0.000    0.000 
#   12.000    1.333    0.000    0.000    0.000    0.000 
#    0.000    0.000    0.000    0.000    0.000    0.000 
#
# Total GULP energy -167517.692779 kJ/mol
# GULP energy per Si atom -5583.923093 kJ/mol
# Density = 2.060605 g / cm^3
# Si number density = 20.653055 Si / 1000 Ang^3
#
#
#
# Elastic Constant Matrix: (Units=GPa)
#
#
# Indices 1 2 3 4 5 6 
#
# 1 81.6152 32.1390 18.9547 0.0000 14.4812 0.0000
# 2 32.1390 96.4910 40.0659 0.0000 -4.0207 0.0000
# 3 18.9547 40.0659 91.1332 0.0000 -10.6815 0.0000
# 4 0.0000 0.0000 0.0000 15.7035 0.0000 -8.4041
# 5 14.4812 -4.0207 -10.6815 0.0000 29.3035 0.0000
# 6 0.0000 0.0000 0.0000 -8.4041 0.0000 -40.0187
#
#
#
# Elastic Compliance Matrix: (Units=1/GPa)
#
#
# Indices 1 2 3 4 5 6 
#
# 1 0.016452 -0.004883 -0.002410 0.000000 -0.009679 0.000000
# 2 -0.004883 0.014130 -0.004896 0.000000 0.002567 0.000000
# 3 -0.002410 -0.004896 0.014298 0.000000 0.005731 0.000000
# 4 0.000000 0.000000 0.000000 0.057246 0.000000 -0.012022
# 5 -0.009679 0.002567 0.005731 0.000000 0.041350 0.000000
# 6 0.000000 0.000000 0.000000 -0.012022 0.000000 -0.022464
#
#
# Mechanical properties :
#
#
# Convention : Reuss Voigt Hill
#
# Bulk Modulus (GPa) = 48.77021 50.17320 49.47170
# Shear Modulus (GPa) = 32.84654 12.86965 22.85809
#
# Velocity S-wave (km/s) = 3.99230 2.49898 3.33042
# Velocity P-wave (km/s) = 6.70199 5.71600 6.22853
#
# Compressibility (1/GPa) = 0.02050432
#
# Stress axis : x y z
#
# Youngs Moduli (GPa) = 60.78188 70.77283 69.93906
#
# Poissons Ratio (x) = 0.34556 0.16853
# Poissons Ratio (y) = 0.29677 0.34239
# Poissons Ratio (z) = 0.14647 0.34648
#
# Static dielectric constant tensor:
#      x y z
#    x 1.798870 0.000000 -0.006320 
#    y 0.000000 1.710450 0.000000 
#    z -0.006320 0.000000 1.762950 
# 
# From -- ./inp_files/198277.got.cif
#   From: 2010.05.17/outbox.cif.g08.bks.cpg/sg15_100_cif.got.tgz:198277.got - 2010.06.03 18:47:42.
