data_PCOD9278321
_publ_section_title
;
Structure prediction by ZEFSAII (Michael W. Deem and Ramdas Pophale) SiO2 
 PCOD9278321
Probable space group: C 2/C
;
_chemical_formula_sum "Si O2"
_cell_formula_units_Z 44
_cell_length_a 4.911697
_cell_length_b 23.159760
_cell_length_c 15.407153
_cell_angle_alpha 90.000000
_cell_angle_beta 104.322809
_cell_angle_gamma 90.000000
_cell_volume 1698.144878
_symmetry_space_group_name_H-M "C 2/C"
_symmetry_group_IT_number 15
_symmetry_cell_setting 'monoclinic'
loop_
_space_group_symop_operation_xyz
x,y,z
-x,y,1/2-z
-x,-y,-z
x,-y,1/2+z
1/2+x,1/2+y,z
1/2-x,1/2+y,1/2-z
1/2-x,1/2-y,-z
1/2+x,1/2-y,1/2+z
loop_
_atom_site_type_symbol
_atom_site_label
_atom_site_fract_x
_atom_site_fract_y
_atom_site_fract_z
Si Si1 0.441231 0.229745 0.598372
Si Si2 0.045575 0.854416 0.882704
Si Si3 0.862494 0.360748 0.505917
Si Si4 0.866115 0.546127 0.872666
Si Si5 0.000000 0.642759 0.750000
Si Si6 0.123356 0.977719 0.666605
O O1 0.250000 0.250000 0.500000
O O2 0.548926 0.289732 0.647010
O O3 0.664003 0.192294 0.562375
O O4 0.350360 0.186124 0.668859
O O5 0.383350 0.853033 0.905212
O O6 0.934759 0.865307 0.971804
O O7 0.898676 0.909300 0.828585
O O8 0.969743 0.414843 0.460049
O O9 0.825815 0.597210 0.796102
O O10 0.086711 0.501450 0.847324
O O11 0.623344 0.510072 0.903044
O O12 0.000000 0.998877 0.750000
#
# Coordination Sequence:
#
# PCOD9278321 Si02
#       6
#     8   8   8   8   4   8
#     4   9  21  41  68  99 137 172 230 281 335 409
#     4  11  23  40  64  94 131 173 207 278 341 389
#     4  10  22  41  66  94 127 168 222 272 331 394
#     4  11  23  42  65  93 125 172 223 271 326 400
#     4  10  20  42  70  94 128 184 222 278 348 400
#     4  12  24  40  62  91 136 167 219 276 325 399
#
# _framework density 25.910625
#
# number of rings (size 3 to 8) (size 9 to 14) (size 15 to 20)
#    0.000    1.455    1.818    2.727    1.273    4.364 
#    0.000    5.455    0.000    0.000    0.000    0.000 
#    0.000    0.000    0.000    0.000    0.000    0.000 
#
# Total GULP energy -122481.694830 kJ/mol
# GULP energy per Si atom -5567.349765 kJ/mol
# Density = 2.585165 g / cm^3
# Si number density = 25.910625 Si / 1000 Ang^3
#
#
#
# Elastic Constant Matrix: (Units=GPa)
#
#
# Indices 1 2 3 4 5 6 
#
# 1 120.2360 25.2052 10.6231 0.0000 -5.3140 0.0000
# 2 25.2052 173.0314 31.9112 0.0000 -7.0487 0.0000
# 3 10.6231 31.9112 69.2423 0.0000 -15.4441 0.0000
# 4 0.0000 0.0000 0.0000 57.4458 0.0000 -51.5762
# 5 -5.3140 -7.0487 -15.4441 0.0000 17.2985 0.0000
# 6 0.0000 0.0000 0.0000 -51.5762 0.0000 65.9223
#
#
#
# Elastic Compliance Matrix: (Units=1/GPa)
#
#
# Indices 1 2 3 4 5 6 
#
# 1 0.008668 -0.001113 -0.000405 0.000000 0.001848 0.000000
# 2 -0.001113 0.006459 -0.002866 0.000000 -0.000269 0.000000
# 3 -0.000405 -0.002866 0.019400 0.000000 0.016028 0.000000
# 4 0.000000 0.000000 0.000000 0.058501 0.000000 0.045770
# 5 0.001848 -0.000269 0.016028 0.000000 0.072577 0.000000
# 6 0.000000 0.000000 0.000000 0.045770 0.000000 0.050979
#
#
# Mechanical properties :
#
#
# Convention : Reuss Voigt Hill
#
# Bulk Modulus (GPa) = 38.82031 55.33207 47.07619
# Shear Modulus (GPa) = 21.37334 47.78466 34.57900
#
# Velocity S-wave (km/s) = 2.87520 4.29909 3.65711
# Velocity P-wave (km/s) = 5.10267 6.78559 6.00339
#
# Compressibility (1/GPa) = 0.02575971
#
# Stress axis : x y z
#
# Youngs Moduli (GPa) = 115.37133 154.82321 51.54655
#
# Poissons Ratio (x) = 0.17227 0.02087
# Poissons Ratio (y) = 0.12837 0.14773
# Poissons Ratio (z) = 0.04671 0.44371
#
# Static dielectric constant tensor:
#      x y z
#    x -1.352460 0.000000 -3.475780 
#    y 0.000000 2.080570 0.000000 
#    z -3.475780 0.000000 -1.510700 
# 
# From -- ./inp_files/184953.got.cif
#   From: 2010.05.17/outbox.cif.g08.bks.cpg/sg15_93_cif.got.tgz:184953.got - 2010.06.03 18:47:42.
