data_PCOD9278798
_publ_section_title
;
Structure prediction by ZEFSAII (Michael W. Deem and Ramdas Pophale) SiO2 
 PCOD9278798
Probable space group: C 2/C
;
_chemical_formula_sum "Si O2"
_cell_formula_units_Z 44
_cell_length_a 5.007698
_cell_length_b 22.963622
_cell_length_c 13.874419
_cell_angle_alpha 90.000000
_cell_angle_beta 89.082078
_cell_angle_gamma 90.000000
_cell_volume 1595.282455
_symmetry_space_group_name_H-M "C 2/C"
_symmetry_group_IT_number 15
_symmetry_cell_setting 'monoclinic'
loop_
_space_group_symop_operation_xyz
x,y,z
-x,y,1/2-z
-x,-y,-z
x,-y,1/2+z
1/2+x,1/2+y,z
1/2-x,1/2+y,1/2-z
1/2-x,1/2-y,-z
1/2+x,1/2-y,1/2+z
loop_
_atom_site_type_symbol
_atom_site_label
_atom_site_fract_x
_atom_site_fract_y
_atom_site_fract_z
Si Si1 0.366356 0.409706 0.646759
Si Si2 0.250000 0.750000 0.500000
Si Si3 0.239283 0.389784 0.015850
Si Si4 0.231529 0.094160 0.644522
Si Si5 0.500000 0.993745 0.750000
Si Si6 0.683671 0.723085 0.347677
Si Si7 0.000000 0.194000 0.750000
O O1 0.500000 0.407442 0.750000
O O2 0.601226 0.422512 0.570144
O O3 0.132322 0.455506 0.664813
O O4 0.255386 0.344242 0.633028
O O5 0.257503 0.677967 0.490129
O O6 0.516909 0.753834 0.430235
O O7 0.436934 0.401707 0.103708
O O8 0.945078 0.404075 0.056328
O O9 0.286687 0.036709 0.703752
O O10 0.232852 0.150558 0.715256
O O11 0.500000 0.726922 0.250000
O O12 0.967029 0.758448 0.336863
#
# Coordination Sequence:
#
# PCOD9278798 Si02
#       7
#     8   4   8   8   4   8   4
#     4  10  26  49  77 108 154 211 268 329 411 472
#     4  10  20  46  72 116 164 200 246 330 402 494
#     4  11  26  49  75 121 155 202 265 330 402 482
#     4  12  28  46  77 113 158 206 267 326 399 472
#     4  12  29  50  76 106 157 220 272 336 388 482
#     4  10  21  42  72 109 153 197 258 322 402 484
#     4  12  23  42  74 110 151 202 252 322 402 478
#
# _framework density 27.581323000000001
#
# number of rings (size 3 to 8) (size 9 to 14) (size 15 to 20)
#    0.000    1.091    1.818    2.727    7.636    2.182 
#    9.818    0.000    0.000    0.000    0.000    0.000 
#    0.000    0.000    0.000    0.000    0.000    0.000 
#
# Total GULP energy -122877.762757 kJ/mol
# GULP energy per Si atom -5585.352853 kJ/mol
# Density = 2.751855 g / cm^3
# Si number density = 27.581323 Si / 1000 Ang^3
#
#
#
# Elastic Constant Matrix: (Units=GPa)
#
#
# Indices 1 2 3 4 5 6 
#
# 1 90.5778 47.3145 32.4407 0.0000 -7.9371 0.0000
# 2 47.3145 154.5993 39.5777 0.0000 -29.8398 0.0000
# 3 32.4407 39.5777 158.9888 0.0000 -56.7022 0.0000
# 4 0.0000 0.0000 0.0000 63.8734 0.0000 -26.9425
# 5 -7.9371 -29.8398 -56.7022 0.0000 70.0043 0.0000
# 6 0.0000 0.0000 0.0000 -26.9425 0.0000 44.0472
#
#
#
# Elastic Compliance Matrix: (Units=1/GPa)
#
#
# Indices 1 2 3 4 5 6 
#
# 1 0.013884 -0.004012 -0.002648 0.000000 -0.002280 0.000000
# 2 -0.004012 0.008313 -0.000210 0.000000 0.002919 0.000000
# 3 -0.002648 -0.000210 0.009483 0.000000 0.007291 0.000000
# 4 0.000000 0.000000 0.000000 0.021100 0.000000 0.012906
# 5 -0.002280 0.002919 0.007291 0.000000 0.021176 0.000000
# 6 0.000000 0.000000 0.000000 0.012906 0.000000 0.030597
#
#
# Mechanical properties :
#
#
# Convention : Reuss Voigt Hill
#
# Bulk Modulus (GPa) = 55.73652 71.42573 63.58112
# Shear Modulus (GPa) = 40.23438 54.57386 47.40412
#
# Velocity S-wave (km/s) = 3.82351 4.45303 4.15022
# Velocity P-wave (km/s) = 6.30430 7.23823 6.78735
#
# Compressibility (1/GPa) = 0.01794156
#
# Stress axis : x y z
#
# Youngs Moduli (GPa) = 72.02472 120.29161 105.45708
#
# Poissons Ratio (x) = 0.48255 0.27921
# Poissons Ratio (y) = 0.28893 0.02215
# Poissons Ratio (z) = 0.19069 0.02526
#
# Static dielectric constant tensor:
#      x y z
#    x 2.200680 0.000000 0.039560 
#    y 0.000000 2.083340 0.000000 
#    z 0.039560 0.000000 2.017550 
# 
# From -- ./inp_files/185201.got.cif
#   From: 2010.05.17/outbox.cif.g08.bks.cpg/sg15_93_cif.got.tgz:185201.got - 2010.06.03 18:47:42.
