data_PCOD9278266
_publ_section_title
;
Structure prediction by ZEFSAII (Michael W. Deem and Ramdas Pophale) SiO2 
 PCOD9278266
Probable space group: C 2/C
;
_chemical_formula_sum "Si O2"
_cell_formula_units_Z 56
_cell_length_a 8.928086
_cell_length_b 26.698501
_cell_length_c 17.501703
_cell_angle_alpha 90.000000
_cell_angle_beta 143.152968
_cell_angle_gamma 90.000000
_cell_volume 2501.759835
_symmetry_space_group_name_H-M "C 2/C"
_symmetry_group_IT_number 15
_symmetry_cell_setting 'monoclinic'
loop_
_space_group_symop_operation_xyz
x,y,z
-x,y,1/2-z
-x,-y,-z
x,-y,1/2+z
1/2+x,1/2+y,z
1/2-x,1/2+y,1/2-z
1/2-x,1/2-y,-z
1/2+x,1/2-y,1/2+z
loop_
_atom_site_type_symbol
_atom_site_label
_atom_site_fract_x
_atom_site_fract_y
_atom_site_fract_z
Si Si1 0.489238 0.750886 0.653663
Si Si2 0.772007 0.690513 0.524746
Si Si3 0.145851 0.120922 0.589783
Si Si4 0.283248 0.981628 0.097222
Si Si5 0.820394 0.840277 0.746668
Si Si6 0.710040 0.643570 0.777575
Si Si7 0.090152 0.585181 0.374666
O O1 0.500000 0.767074 0.750000
O O2 0.250000 0.750000 0.500000
O O3 0.677140 0.787915 0.688455
O O4 0.578609 0.694262 0.695154
O O5 0.750000 0.750000 0.500000
O O6 0.761041 0.673233 0.608239
O O7 0.514363 0.664392 0.394720
O O8 0.017198 0.665022 0.585922
O O9 0.231727 0.077287 0.565927
O O10 0.240563 0.110083 0.714689
O O11 0.848162 0.115892 0.478617
O O12 0.500000 0.982061 0.250000
O O13 0.371410 0.028177 0.080182
O O14 0.000000 0.000000 0.000000
O O15 0.620525 0.884030 0.668716
O O16 0.000000 0.846248 0.750000
O O17 0.500000 0.622152 0.750000
O O18 0.000000 0.583055 0.250000
#
# Coordination Sequence:
#
# PCOD9278266 Si02
#       7
#     8   8   8   8   8   8   8
#     4  11  26  44  67  95 139 198 249 292 355 429
#     4  12  26  42  62  98 138 183 240 285 342 422
#     4  11  23  43  71  96 136 178 235 288 350 422
#     4   9  19  37  69 103 125 164 224 293 347 419
#     4  12  27  39  65  98 143 183 234 297 356 423
#     4  11  26  41  62  94 141 186 235 286 353 423
#     4  10  20  42  69 101 128 171 232 289 353 422
#
# _framework density 22.384242
#
# number of rings (size 3 to 8) (size 9 to 14) (size 15 to 20)
#    0.000    1.143    2.857    2.571   10.000    0.000 
#    0.000    0.000    0.000    8.571    0.000    0.000 
#    0.000    0.000    0.000    0.000    0.000    0.000 
#
# Total GULP energy -155922.853936 kJ/mol
# GULP energy per Si atom -5568.673355 kJ/mol
# Density = 2.233329 g / cm^3
# Si number density = 22.384242 Si / 1000 Ang^3
#
#
#
# Elastic Constant Matrix: (Units=GPa)
#
#
# Indices 1 2 3 4 5 6 
#
# 1 116.1625 47.1614 27.3979 0.0000 14.8874 -0.0005
# 2 47.1614 107.4707 21.5881 0.0002 5.9715 -0.0002
# 3 27.3979 21.5881 133.6673 -0.0010 41.5935 -0.0039
# 4 0.0000 0.0002 -0.0010 29.7713 -0.0003 -1.1232
# 5 14.8874 5.9715 41.5935 -0.0003 37.1586 -0.0016
# 6 -0.0005 -0.0002 -0.0039 -1.1232 -0.0016 -145.4793
#
#
#
# Elastic Compliance Matrix: (Units=1/GPa)
#
#
# Indices 1 2 3 4 5 6 
#
# 1 0.010971 -0.004531 -0.000577 0.000000 -0.003022 0.000000
# 2 -0.004531 0.011490 -0.001408 0.000000 0.001544 0.000000
# 3 -0.000577 -0.001408 0.011792 0.000000 -0.012742 0.000000
# 4 0.000000 0.000000 0.000000 0.033580 0.000000 -0.000259
# 5 -0.003022 0.001544 -0.012742 0.000000 0.042137 0.000000
# 6 0.000000 0.000000 0.000000 -0.000259 0.000000 -0.006872
#
#
# Mechanical properties :
#
#
# Convention : Reuss Voigt Hill
#
# Bulk Modulus (GPa) = 47.11876 61.06612 54.09244
# Shear Modulus (GPa) = 40.58358 1.70031 21.14195
#
# Velocity S-wave (km/s) = 4.26260 0.87250 3.07661
# Velocity P-wave (km/s) = 6.73217 5.32495 6.06948
#
# Compressibility (1/GPa) = 0.02122297
#
# Stress axis : x y z
#
# Youngs Moduli (GPa) = 91.14558 87.03162 84.80544
#
# Poissons Ratio (x) = 0.39433 0.04891
# Poissons Ratio (y) = 0.41297 0.11937
# Poissons Ratio (z) = 0.05256 0.12250
#
# Static dielectric constant tensor:
#      x y z
#    x 1.948530 0.000000 -0.209390 
#    y 0.000000 1.881290 0.000000 
#    z -0.209390 0.000000 2.532110 
# 
# From -- ./inp_files/194101.got.cif
#   From: 2010.05.17/outbox.cif.g08.bks.cpg/sg15_98_cif.got.tgz:194101.got - 2010.06.03 18:47:42.
