data_PCOD9278760
_publ_section_title
;
Structure prediction by ZEFSAII (Michael W. Deem and Ramdas Pophale) SiO2 
 PCOD9278760
Probable space group: C 2/C
;
_chemical_formula_sum "Si O2"
_cell_formula_units_Z 56
_cell_length_a 9.024597
_cell_length_b 24.278856
_cell_length_c 11.636929
_cell_angle_alpha 90.000000
_cell_angle_beta 67.924807
_cell_angle_gamma 90.000000
_cell_volume 2362.814190
_symmetry_space_group_name_H-M "C 2/C"
_symmetry_group_IT_number 15
_symmetry_cell_setting 'monoclinic'
loop_
_space_group_symop_operation_xyz
x,y,z
-x,y,1/2-z
-x,-y,-z
x,-y,1/2+z
1/2+x,1/2+y,z
1/2-x,1/2+y,1/2-z
1/2-x,1/2-y,-z
1/2+x,1/2-y,1/2+z
loop_
_atom_site_type_symbol
_atom_site_label
_atom_site_fract_x
_atom_site_fract_y
_atom_site_fract_z
Si Si1 0.641589 0.491871 0.614400
Si Si2 0.319491 0.340405 0.755199
Si Si3 0.557464 0.411817 0.966884
Si Si4 0.391788 0.951938 0.174703
Si Si5 0.410753 0.152784 0.962683
Si Si6 0.209988 0.731256 0.883531
Si Si7 0.322892 0.355270 0.179452
O O1 0.500000 0.495297 0.750000
O O2 0.595536 0.437987 0.555065
O O3 0.627831 0.541765 0.528219
O O4 0.812525 0.499576 0.624349
O O5 0.500000 0.338260 0.750000
O O6 0.320358 0.389891 0.662846
O O7 0.286308 0.284598 0.697421
O O8 0.198509 0.347787 0.893932
O O9 0.488594 0.363080 0.065097
O O10 0.500000 0.970934 0.250000
O O11 0.495998 0.905141 0.080321
O O12 0.239223 0.915657 0.262769
O O13 0.537926 0.201701 0.935408
O O14 0.306979 0.162838 0.877984
O O15 0.317911 0.685790 0.787067
O O16 0.250000 0.750000 0.000000
#
# Coordination Sequence:
#
# PCOD9278760 Si02
#       7
#     8   8   8   8   8   8   8
#     4  11  23  43  74 107 147 191 259 308 372 452
#     4  12  25  43  72 100 145 194 240 304 368 443
#     4  11  25  41  73 109 143 195 251 308 376 438
#     4   9  20  43  74 102 140 199 238 303 379 438
#     4  10  23  45  68 104 149 189 245 298 372 456
#     4  11  27  44  67 106 142 186 249 299 376 445
#     4  10  20  45  73 100 142 192 236 300 367 453
#
# _framework density 23.700551999999998
#
# number of rings (size 3 to 8) (size 9 to 14) (size 15 to 20)
#    0.000    1.429    2.857    2.571    6.000    1.714 
#    0.000    2.857    0.000    0.000    0.000    0.000 
#    0.000    0.000    0.000    0.000    0.000    0.000 
#
# Total GULP energy -156912.857292 kJ/mol
# GULP energy per Si atom -5604.030618 kJ/mol
# Density = 2.364661 g / cm^3
# Si number density = 23.700552 Si / 1000 Ang^3
#
#
#
# Elastic Constant Matrix: (Units=GPa)
#
#
# Indices 1 2 3 4 5 6 
#
# 1 90.6843 48.6373 56.1639 0.0000 14.1815 0.0000
# 2 48.6373 80.9005 47.0368 0.0000 24.6818 0.0000
# 3 56.1639 47.0368 166.2141 0.0000 5.7015 0.0000
# 4 0.0000 0.0000 0.0000 39.9375 0.0000 13.6166
# 5 14.1815 24.6818 5.7015 0.0000 34.8838 0.0000
# 6 0.0000 0.0000 0.0000 13.6166 0.0000 21.2128
#
#
#
# Elastic Compliance Matrix: (Units=1/GPa)
#
#
# Indices 1 2 3 4 5 6 
#
# 1 0.017921 -0.008436 -0.003644 0.000000 -0.000722 0.000000
# 2 -0.008436 0.023110 -0.003265 0.000000 -0.012388 0.000000
# 3 -0.003644 -0.003265 0.008087 0.000000 0.002469 0.000000
# 4 0.000000 0.000000 0.000000 0.032054 0.000000 -0.020576
# 5 -0.000722 -0.012388 0.002469 0.000000 0.037322 0.000000
# 6 0.000000 0.000000 0.000000 -0.020576 0.000000 0.060349
#
#
# Mechanical properties :
#
#
# Convention : Reuss Voigt Hill
#
# Bulk Modulus (GPa) = 54.25882 71.27500 62.76691
# Shear Modulus (GPa) = 23.18320 31.60421 27.39370
#
# Velocity S-wave (km/s) = 3.13097 3.65565 3.40343
# Velocity P-wave (km/s) = 6.00115 6.92508 6.47960
#
# Compressibility (1/GPa) = 0.01843018
#
# Stress axis : x y z
#
# Youngs Moduli (GPa) = 55.80044 43.27158 123.66069
#
# Poissons Ratio (x) = 0.36502 0.45057
# Poissons Ratio (y) = 0.47071 0.40369
# Poissons Ratio (z) = 0.20332 0.14126
#
# Static dielectric constant tensor:
#      x y z
#    x 1.911590 0.000000 -0.004000 
#    y 0.000000 1.885640 0.000000 
#    z -0.004000 0.000000 1.896830 
# 
# From -- ./inp_files/81237.got.cif
#   From: 2010.05.17/outbox.cif.g08.bks.cpg/sg15_41_cif.got.tgz:81237.got - 2010.06.03 18:47:42.
