data_PCOD9278528
_publ_section_title
;
Structure prediction by ZEFSAII (Michael W. Deem and Ramdas Pophale) SiO2 
 PCOD9278528
Probable space group: C 2/C
;
_chemical_formula_sum "Si O2"
_cell_formula_units_Z 40
_cell_length_a 15.357050
_cell_length_b 12.025996
_cell_length_c 16.170499
_cell_angle_alpha 90.000000
_cell_angle_beta 35.340288
_cell_angle_gamma 90.000000
_cell_volume 1727.444496
_symmetry_space_group_name_H-M "C 2/C"
_symmetry_group_IT_number 15
_symmetry_cell_setting 'monoclinic'
loop_
_space_group_symop_operation_xyz
x,y,z
-x,y,1/2-z
-x,-y,-z
x,-y,1/2+z
1/2+x,1/2+y,z
1/2-x,1/2+y,1/2-z
1/2-x,1/2-y,-z
1/2+x,1/2-y,1/2+z
loop_
_atom_site_type_symbol
_atom_site_label
_atom_site_fract_x
_atom_site_fract_y
_atom_site_fract_z
Si Si1 0.929409 0.524796 0.643368
Si Si2 0.947007 0.685791 0.384254
Si Si3 0.120763 0.079304 0.949010
Si Si4 0.632406 0.584779 0.583230
Si Si5 0.918702 0.266655 0.397889
O O1 0.000000 0.500000 0.500000
O O2 0.930717 0.399488 0.677070
O O3 0.034436 0.608012 0.614629
O O4 0.766019 0.582248 0.776797
O O5 0.782520 0.628352 0.512894
O O6 0.925974 0.812257 0.429216
O O7 0.000000 0.703632 0.250000
O O8 0.057959 0.193602 0.036631
O O9 0.172967 0.015258 0.991930
O O10 0.000000 0.000000 0.000000
O O11 0.500000 0.554461 0.750000
O O12 0.750000 0.250000 0.500000
O O13 0.000000 0.232266 0.250000
#
# Coordination Sequence:
#
# PCOD9278528 Si02
#       5
#     8   8   8   8   8
#     4  12  28  46  71 104 147 188 235 300 366 424
#     4  10  20  43  70  95 132 179 230 278 343 421
#     4  12  28  46  70 106 147 183 240 300 362 429
#     4  10  22  40  70 102 129 177 229 285 342 425
#     4  12  26  51  80 105 144 203 255 299 362 447
#
# _framework density 23.155593
#
# number of rings (size 3 to 8) (size 9 to 14) (size 15 to 20)
#    0.000    0.800    4.000    2.400    8.400    0.000 
#    0.000    0.000    0.000    0.000    0.000    0.000 
#    0.000    0.000    0.000    0.000    0.000    0.000 
#
# Total GULP energy -111672.764734 kJ/mol
# GULP energy per Si atom -5583.638237 kJ/mol
# Density = 2.310289 g / cm^3
# Si number density = 23.155593 Si / 1000 Ang^3
#
#
#
# Elastic Constant Matrix: (Units=GPa)
#
#
# Indices 1 2 3 4 5 6 
#
# 1 50.6297 2.1169 21.9543 0.0000 -2.7843 0.0000
# 2 2.1169 86.3411 0.8314 0.0000 14.0286 0.0000
# 3 21.9543 0.8314 167.3816 0.0000 -2.5483 0.0000
# 4 0.0000 0.0000 0.0000 24.8819 0.0000 6.7700
# 5 -2.7843 14.0286 -2.5483 0.0000 34.3178 0.0000
# 6 0.0000 0.0000 0.0000 6.7700 0.0000 46.1720
#
#
#
# Elastic Compliance Matrix: (Units=1/GPa)
#
#
# Indices 1 2 3 4 5 6 
#
# 1 0.021069 -0.000787 -0.002732 0.000000 0.001828 0.000000
# 2 -0.000787 0.012439 -0.000037 0.000000 -0.005151 0.000000
# 3 -0.002732 -0.000037 0.006337 0.000000 0.000264 0.000000
# 4 0.000000 0.000000 0.000000 0.041860 0.000000 -0.006138
# 5 0.001828 -0.005151 0.000264 0.000000 0.031413 0.000000
# 6 0.000000 0.000000 0.000000 -0.006138 0.000000 0.022558
#
#
# Mechanical properties :
#
#
# Convention : Reuss Voigt Hill
#
# Bulk Modulus (GPa) = 30.55050 39.35083 34.95066
# Shear Modulus (GPa) = 32.53117 39.70434 36.11776
#
# Velocity S-wave (km/s) = 3.75226 4.14536 3.95370
# Velocity P-wave (km/s) = 5.65640 6.32004 5.99741
#
# Compressibility (1/GPa) = 0.03273269
#
# Stress axis : x y z
#
# Youngs Moduli (GPa) = 47.46242 80.39483 157.80631
#
# Poissons Ratio (x) = 0.06330 0.43109
# Poissons Ratio (y) = 0.03737 0.00583
# Poissons Ratio (z) = 0.12966 0.00297
#
# Static dielectric constant tensor:
#      x y z
#    x 1.918180 0.000000 0.005320 
#    y 0.000000 1.984340 0.000000 
#    z 0.005320 0.000000 1.872430 
# 
# From -- ./inp_files/210778.got.cif
#   From: 2010.05.17/outbox.cif.g08.bks.cpg/sg15_106_cif.got.tgz:210778.got - 2010.06.03 18:47:42.
