data_PCOD9278994
_publ_section_title
;
Structure prediction by ZEFSAII (Michael W. Deem and Ramdas Pophale) SiO2 
 PCOD9278994
Probable space group: C 2/C
;
_chemical_formula_sum "Si O2"
_cell_formula_units_Z 60
_cell_length_a 16.744557
_cell_length_b 25.808199
_cell_length_c 9.855986
_cell_angle_alpha 90.000000
_cell_angle_beta 68.354045
_cell_angle_gamma 90.000000
_cell_volume 3958.876202
_symmetry_space_group_name_H-M "C 2/C"
_symmetry_group_IT_number 15
_symmetry_cell_setting 'monoclinic'
loop_
_space_group_symop_operation_xyz
x,y,z
-x,y,1/2-z
-x,-y,-z
x,-y,1/2+z
1/2+x,1/2+y,z
1/2-x,1/2+y,1/2-z
1/2-x,1/2-y,-z
1/2+x,1/2-y,1/2+z
loop_
_atom_site_type_symbol
_atom_site_label
_atom_site_fract_x
_atom_site_fract_y
_atom_site_fract_z
Si Si1 0.173774 0.814179 0.239512
Si Si2 0.046963 0.124230 0.010266
Si Si3 0.096715 0.975316 0.650270
Si Si4 0.095447 0.712485 0.158151
Si Si5 0.845552 0.256692 0.179952
Si Si6 0.262613 0.656960 0.099192
Si Si7 0.500000 0.714731 0.250000
Si Si8 0.131937 0.937981 0.916300
O O1 0.113363 0.854835 0.355771
O O2 0.118654 0.763612 0.231623
O O3 0.261670 0.793452 0.257770
O O4 0.203686 0.835670 0.075404
O O5 0.090265 0.079564 0.075546
O O6 0.025011 0.175120 0.113041
O O7 0.957137 0.096454 0.020888
O O8 0.138033 0.966624 0.769283
O O9 0.000000 0.990970 0.750000
O O10 0.132831 0.019866 0.533385
O O11 0.162958 0.669318 0.159058
O O12 0.000000 0.697189 0.250000
O O13 0.111717 0.724727 0.988993
O O14 0.807238 0.200305 0.165574
O O15 0.918610 0.248425 0.248133
O O16 0.290244 0.601152 0.126357
#
# Coordination Sequence:
#
# PCOD9278994 Si02
#       8
#     8   8   8   8   8   8   4   8
#     4   9  20  29  48  72  95 132 167 200 237 291
#     4  11  19  31  46  68  97 138 165 191 246 294
#     4  10  21  34  45  70 102 128 167 206 233 298
#     4   9  17  32  49  73  94 122 168 205 240 291
#     4   9  18  33  43  70 100 127 169 201 236 286
#     4   9  18  32  50  66 100 125 160 212 240 290
#     4  12  18  30  48  60 102 142 156 204 242 284
#     4  11  21  34  49  71 100 132 166 203 249 290
#
# _framework density 15.155816
#
# number of rings (size 3 to 8) (size 9 to 14) (size 15 to 20)
#    0.000    2.133    3.333    4.000    5.600    0.533 
#    0.000    1.333    0.000    0.000    0.000    0.933 
#    2.000    0.000    0.000    0.000    0.000    0.000 
#
# Total GULP energy -167137.886564 kJ/mol
# GULP energy per Si atom -5571.262885 kJ/mol
# Density = 1.512132 g / cm^3
# Si number density = 15.155816 Si / 1000 Ang^3
#
#
#
# Elastic Constant Matrix: (Units=GPa)
#
#
# Indices 1 2 3 4 5 6 
#
# 1 100.4301 35.4230 42.1461 0.0000 3.7962 0.0000
# 2 35.4230 55.9838 28.3175 0.0000 4.4309 0.0000
# 3 42.1461 28.3175 48.3157 0.0000 -9.3411 0.0000
# 4 0.0000 0.0000 0.0000 30.3560 0.0000 -19.9440
# 5 3.7962 4.4309 -9.3411 0.0000 18.8713 0.0000
# 6 0.0000 0.0000 0.0000 -19.9440 0.0000 9.4969
#
#
#
# Elastic Compliance Matrix: (Units=1/GPa)
#
#
# Indices 1 2 3 4 5 6 
#
# 1 0.018222 -0.002052 -0.016928 0.000000 -0.011563 0.000000
# 2 -0.002052 0.029960 -0.018854 0.000000 -0.015954 0.000000
# 3 -0.016928 -0.018854 0.053110 0.000000 0.034121 0.000000
# 4 0.000000 0.000000 0.000000 -0.086750 0.000000 -0.182180
# 5 -0.011563 -0.015954 0.034121 0.000000 0.075952 0.000000
# 6 0.000000 0.000000 0.000000 -0.182180 0.000000 -0.277290
#
#
# Mechanical properties :
#
#
# Convention : Reuss Voigt Hill
#
# Bulk Modulus (GPa) = 39.02472 46.27810 42.65141
# Shear Modulus (GPa) = -48.73965 18.33439 -15.20263
#
# Velocity S-wave (km/s) = -5.67705 3.48189 -3.17059
# Velocity P-wave (km/s) = 4.14330 6.83856 3.84701
#
# Compressibility (1/GPa) = 0.02562478
#
# Stress axis : x y z
#
# Youngs Moduli (GPa) = 54.87888 33.37784 18.82869
#
# Poissons Ratio (x) = 0.06850 0.31873
# Poissons Ratio (y) = 0.11262 0.35499
# Poissons Ratio (z) = 0.92898 0.62930
#
# Static dielectric constant tensor:
#      x y z
#    x 1.494480 0.000000 -0.006030 
#    y 0.000000 1.496700 0.000000 
#    z -0.006030 0.000000 1.484400 
# 
# From -- ./inp_files/42587.got.cif
#   From: 2010.05.17/outbox.cif.g08.bks.cpg/sg15_22_cif.got.tgz:42587.got - 2010.06.03 18:47:42.
