data_PCOD9278691
_publ_section_title
;
Structure prediction by ZEFSAII (Michael W. Deem and Ramdas Pophale) SiO2 
 PCOD9278691
Probable space group: C 2/C
;
_chemical_formula_sum "Si O2"
_cell_formula_units_Z 52
_cell_length_a 26.811915
_cell_length_b 10.754490
_cell_length_c 17.133338
_cell_angle_alpha 90.000000
_cell_angle_beta 26.685205
_cell_angle_gamma 90.000000
_cell_volume 2218.663166
_symmetry_space_group_name_H-M "C 2/C"
_symmetry_group_IT_number 15
_symmetry_cell_setting 'monoclinic'
loop_
_space_group_symop_operation_xyz
x,y,z
-x,y,1/2-z
-x,-y,-z
x,-y,1/2+z
1/2+x,1/2+y,z
1/2-x,1/2+y,1/2-z
1/2-x,1/2-y,-z
1/2+x,1/2-y,1/2+z
loop_
_atom_site_type_symbol
_atom_site_label
_atom_site_fract_x
_atom_site_fract_y
_atom_site_fract_z
Si Si1 0.268424 0.039360 0.031998
Si Si2 0.304458 0.412892 0.025697
Si Si3 0.139897 0.614063 0.292453
Si Si4 0.000000 0.893819 0.250000
Si Si5 0.750000 0.250000 0.000000
Si Si6 0.737350 0.182083 0.312956
Si Si7 0.956211 0.699139 0.435856
Si Si8 0.000000 0.496379 0.250000
O O1 0.399140 0.074586 0.851254
O O2 0.199563 0.109244 0.061317
O O3 0.265487 0.895846 0.010056
O O4 0.227150 0.074931 0.175784
O O5 0.186803 0.476874 0.211148
O O6 0.315053 0.291890 0.062557
O O7 0.398811 0.515316 0.911031
O O8 0.221703 0.703673 0.128841
O O9 0.151932 0.638244 0.366765
O O10 0.024350 0.647087 0.413542
O O11 0.972117 0.802028 0.215448
O O12 0.845066 0.235479 0.118503
O O13 0.944148 0.587047 0.392076
#
# Coordination Sequence:
#
# PCOD9278691 Si02
#       8
#     8   8   8   4   4   8   8   4
#     4  11  25  45  71 102 142 189 232 290 351 431
#     4  11  25  47  67 100 145 185 228 294 361 423
#     4  11  23  43  67 103 140 179 234 297 342 420
#     4  11  24  43  74 100 134 191 241 284 356 423
#     4  10  20  44  70  92 138 184 230 276 342 414
#     4  12  28  42  70 107 147 176 237 299 358 407
#     4  11  23  41  72 105 134 184 241 289 343 425
#     4  11  22  41  74  98 134 195 237 266 362 433
#
# _framework density 23.437536000000001
#
# number of rings (size 3 to 8) (size 9 to 14) (size 15 to 20)
#    0.000    0.923    4.615    3.231    6.462    3.692 
#    0.000    2.308    0.000    0.000    0.000    0.000 
#    0.000    0.000    0.000    0.000    0.000    0.000 
#
# Total GULP energy -144995.473616 kJ/mol
# GULP energy per Si atom -5576.748985 kJ/mol
# Density = 2.338419 g / cm^3
# Si number density = 23.437536 Si / 1000 Ang^3
#
#
#
# Elastic Constant Matrix: (Units=GPa)
#
#
# Indices 1 2 3 4 5 6 
#
# 1 187.9495 40.4990 14.5087 0.0000 23.2467 0.0000
# 2 40.4990 83.4711 21.0195 0.0000 16.8080 0.0000
# 3 14.5087 21.0195 67.5845 0.0000 6.8737 0.0000
# 4 0.0000 0.0000 0.0000 39.4541 0.0000 13.4822
# 5 23.2467 16.8080 6.8737 0.0000 34.2264 0.0000
# 6 0.0000 0.0000 0.0000 13.4822 0.0000 14.8041
#
#
#
# Elastic Compliance Matrix: (Units=1/GPa)
#
#
# Indices 1 2 3 4 5 6 
#
# 1 0.006220 -0.002334 -0.000302 0.000000 -0.003018 0.000000
# 2 -0.002334 0.015057 -0.003666 0.000000 -0.005073 0.000000
# 3 -0.000302 -0.003666 0.016127 0.000000 -0.001233 0.000000
# 4 0.000000 0.000000 0.000000 0.036797 0.000000 -0.033512
# 5 -0.003018 -0.005073 -0.001233 0.000000 0.034006 0.000000
# 6 0.000000 0.000000 0.000000 -0.033512 0.000000 0.098068
#
#
# Mechanical properties :
#
#
# Convention : Reuss Voigt Hill
#
# Bulk Modulus (GPa) = 40.32397 54.56217 47.44307
# Shear Modulus (GPa) = 22.01218 35.22879 28.62048
#
# Velocity S-wave (km/s) = 3.06794 3.88118 3.49827
# Velocity P-wave (km/s) = 5.45819 6.58901 6.05008
#
# Compressibility (1/GPa) = 0.02479915
#
# Stress axis : x y z
#
# Youngs Moduli (GPa) = 160.76839 66.41299 62.00867
#
# Poissons Ratio (x) = 0.15501 0.01875
# Poissons Ratio (y) = 0.37525 0.22732
# Poissons Ratio (z) = 0.04863 0.24347
#
# Static dielectric constant tensor:
#      x y z
#    x 1.808470 0.000000 0.105700 
#    y 0.000000 1.591820 0.000000 
#    z 0.105700 0.000000 1.781780 
# 
# From -- ./inp_files/222456.got.cif
#   From: 2010.05.17/outbox.cif.g08.bks.cpg/sg15_112_cif.got.tgz:222456.got - 2010.06.03 18:47:42.
