data_PCOD9278900
_publ_section_title
;
Structure prediction by ZEFSAII (Michael W. Deem and Ramdas Pophale) SiO2 
 PCOD9278900
Probable space group: C 2/C
;
_chemical_formula_sum "Si O2"
_cell_formula_units_Z 52
_cell_length_a 5.627813
_cell_length_b 21.881991
_cell_length_c 24.478682
_cell_angle_alpha 90.000000
_cell_angle_beta 54.836158
_cell_angle_gamma 90.000000
_cell_volume 2464.375061
_symmetry_space_group_name_H-M "C 2/C"
_symmetry_group_IT_number 15
_symmetry_cell_setting 'monoclinic'
loop_
_space_group_symop_operation_xyz
x,y,z
-x,y,1/2-z
-x,-y,-z
x,-y,1/2+z
1/2+x,1/2+y,z
1/2-x,1/2+y,1/2-z
1/2-x,1/2-y,-z
1/2+x,1/2-y,1/2+z
loop_
_atom_site_type_symbol
_atom_site_label
_atom_site_fract_x
_atom_site_fract_y
_atom_site_fract_z
Si Si1 0.000000 0.391689 0.750000
Si Si2 0.513300 0.734513 0.579290
Si Si3 0.052298 0.356277 0.859932
Si Si4 0.079389 0.694941 0.554205
Si Si5 0.678573 0.475144 0.054439
Si Si6 0.050553 0.973112 0.679818
Si Si7 0.013021 0.904539 0.520518
O O1 0.089429 0.352535 0.790252
O O2 0.737404 0.436594 0.799550
O O3 0.750000 0.750000 0.500000
O O4 0.355316 0.795948 0.621056
O O5 0.248949 0.695668 0.589480
O O6 0.735656 0.706273 0.594625
O O7 0.203666 0.420100 0.855944
O O8 0.715722 0.360500 0.920565
O O9 0.250000 0.750000 0.500000
O O10 0.177717 0.629360 0.516851
O O11 0.623156 0.474491 0.126589
O O12 0.590368 0.419055 0.027574
O O13 0.493108 0.532021 0.055118
O O14 0.000000 0.500000 0.000000
O O15 0.000000 0.991056 0.750000
#
# Coordination Sequence:
#
# PCOD9278900 Si02
#       7
#     4   8   8   8   8   8   8
#     4  10  22  36  56  80 120 160 192 256 302 390
#     4  10  21  32  56  86 115 157 188 240 298 356
#     4  11  20  35  56  85 121 152 200 243 315 372
#     4  10  21  34  54  87 118 157 186 239 302 362
#     4  11  23  35  57  85 122 157 200 265 310 370
#     4  10  22  36  57  82 118 160 203 253 316 379
#     4  11  22  34  55  85 124 155 196 251 313 366
#
# _framework density 21.100683
#
# number of rings (size 3 to 8) (size 9 to 14) (size 15 to 20)
#    0.000    1.538    6.154    0.000    8.615    0.000 
#    0.000    0.000    0.000    0.000    2.000    2.154 
#    0.000    0.000    0.000    0.000    0.000    0.000 
#
# Total GULP energy -144955.781025 kJ/mol
# GULP energy per Si atom -5575.222347 kJ/mol
# Density = 2.105266 g / cm^3
# Si number density = 21.100683 Si / 1000 Ang^3
#
#
#
# Elastic Constant Matrix: (Units=GPa)
#
#
# Indices 1 2 3 4 5 6 
#
# 1 96.6384 -1.0273 12.3170 0.0000 0.7511 0.0000
# 2 -1.0273 28.3358 12.6142 0.0000 8.3868 0.0000
# 3 12.3170 12.6142 88.6935 0.0000 17.9848 0.0000
# 4 0.0000 0.0000 0.0000 25.4890 0.0000 5.6212
# 5 0.7511 8.3868 17.9848 0.0000 25.1042 0.0000
# 6 0.0000 0.0000 0.0000 5.6212 0.0000 31.8682
#
#
#
# Elastic Compliance Matrix: (Units=1/GPa)
#
#
# Indices 1 2 3 4 5 6 
#
# 1 0.010574 0.000976 -0.001728 0.000000 0.000595 0.000000
# 2 0.000976 0.040157 -0.003651 0.000000 -0.010829 0.000000
# 3 -0.001728 -0.003651 0.013778 0.000000 -0.008599 0.000000
# 4 0.000000 0.000000 0.000000 0.040821 0.000000 -0.007200
# 5 0.000595 -0.010829 -0.008599 0.000000 0.049594 0.000000
# 6 0.000000 0.000000 0.000000 -0.007200 0.000000 0.032649
#
#
# Mechanical properties :
#
#
# Convention : Reuss Voigt Hill
#
# Bulk Modulus (GPa) = 17.95224 29.05284 23.50254
# Shear Modulus (GPa) = 23.26171 29.14320 26.20245
#
# Velocity S-wave (km/s) = 3.32387 3.72041 3.52772
# Velocity P-wave (km/s) = 4.82257 5.67925 5.26835
#
# Compressibility (1/GPa) = 0.05570335
#
# Stress axis : x y z
#
# Youngs Moduli (GPa) = 94.57292 24.90232 72.58125
#
# Poissons Ratio (x) = -0.02431 0.12542
# Poissons Ratio (y) = -0.09234 0.26499
# Poissons Ratio (z) = 0.16342 0.09092
#
# Static dielectric constant tensor:
#      x y z
#    x 1.877760 0.000000 0.029100 
#    y 0.000000 1.794940 0.000000 
#    z 0.029100 0.000000 1.763280 
# 
# From -- ./inp_files/227466.got.cif
#   From: 2010.05.17/outbox.cif.g08.bks.cpg/sg15_114_cif.got.tgz:227466.got - 2010.06.03 18:47:42.
