data_PCOD9278850
_publ_section_title
;
Structure prediction by ZEFSAII (Michael W. Deem and Ramdas Pophale) SiO2 
 PCOD9278850
Probable space group: C 2/C
;
_chemical_formula_sum "Si O2"
_cell_formula_units_Z 64
_cell_length_a 27.306887
_cell_length_b 13.562148
_cell_length_c 11.694573
_cell_angle_alpha 90.000000
_cell_angle_beta 110.584068
_cell_angle_gamma 90.000000
_cell_volume 4054.468084
_symmetry_space_group_name_H-M "C 2/C"
_symmetry_group_IT_number 15
_symmetry_cell_setting 'monoclinic'
loop_
_space_group_symop_operation_xyz
x,y,z
-x,y,1/2-z
-x,-y,-z
x,-y,1/2+z
1/2+x,1/2+y,z
1/2-x,1/2+y,1/2-z
1/2-x,1/2-y,-z
1/2+x,1/2-y,1/2+z
loop_
_atom_site_type_symbol
_atom_site_label
_atom_site_fract_x
_atom_site_fract_y
_atom_site_fract_z
Si Si1 0.736835 0.382133 0.583790
Si Si2 0.664264 0.208896 0.465552
Si Si3 0.278741 0.804057 0.853890
Si Si4 0.262606 0.901077 0.085253
Si Si5 0.890563 0.372524 0.929469
Si Si6 0.441595 0.143320 0.238706
Si Si7 0.860819 0.408581 0.329561
Si Si8 0.439500 0.092616 0.707797
O O1 0.689867 0.317225 0.493504
O O2 0.790987 0.355032 0.562179
O O3 0.745944 0.347464 0.721681
O O4 0.729762 0.498895 0.568249
O O5 0.607826 0.198281 0.359163
O O6 0.657189 0.164844 0.586685
O O7 0.262210 0.694140 0.874310
O O8 0.339349 0.807207 0.869045
O O9 0.272219 0.871384 0.961622
O O10 0.316581 0.920925 0.196685
O O11 0.933593 0.350774 0.868544
O O12 0.872470 0.485379 0.894215
O O13 0.910827 0.364066 0.074217
O O14 0.500000 0.174094 0.250000
O O15 0.435527 0.027183 0.201099
O O16 0.912208 0.375248 0.302850
O O17 0.500000 0.118098 0.750000
#
# Coordination Sequence:
#
# PCOD9278850 Si02
#       8
#     8   8   8   8   8   8   8   8
#     4  11  22  35  54  76 108 141 172 214 258 316
#     4  11  21  34  50  79 103 140 174 207 259 311
#     4  11  21  35  52  77 107 137 177 208 263 310
#     4  11  22  34  52  79 105 141 172 214 255 309
#     4  11  19  33  50  71 104 139 170 207 259 314
#     4  10  21  32  49  74 104 135 173 216 255 306
#     4  11  19  30  51  70 107 134 167 209 253 306
#     4  10  21  31  48  73 101 141 171 208 257 313
#
# _framework density 15.785055
#
# number of rings (size 3 to 8) (size 9 to 14) (size 15 to 20)
#    0.000    1.250    6.250    1.500    1.750    1.500 
#    0.000    0.000    0.000    0.000    0.000    1.750 
#    0.000    0.000    0.000    0.000    0.000    0.000 
#
# Total GULP energy -178566.848563 kJ/mol
# GULP energy per Si atom -5580.214018 kJ/mol
# Density = 1.574913 g / cm^3
# Si number density = 15.785055 Si / 1000 Ang^3
#
#
#
# Elastic Constant Matrix: (Units=GPa)
#
#
# Indices 1 2 3 4 5 6 
#
# 1 85.3261 23.1176 20.2039 0.0000 -11.6762 0.0000
# 2 23.1176 68.1689 21.9750 0.0000 -9.0971 0.0000
# 3 20.2039 21.9750 64.1730 0.0000 -10.1635 0.0000
# 4 0.0000 0.0000 0.0000 12.4261 0.0000 0.6806
# 5 -11.6762 -9.0971 -10.1635 0.0000 27.3037 0.0000
# 6 0.0000 0.0000 0.0000 0.6806 0.0000 15.1919
#
#
#
# Elastic Compliance Matrix: (Units=1/GPa)
#
#
# Indices 1 2 3 4 5 6 
#
# 1 0.013754 -0.003321 -0.002589 0.000000 0.003811 0.000000
# 2 -0.003321 0.017632 -0.004555 0.000000 0.002759 0.000000
# 3 -0.002589 -0.004555 0.018641 0.000000 0.004314 0.000000
# 4 0.000000 0.000000 0.000000 0.080674 0.000000 -0.003614
# 5 0.003811 0.002759 0.004314 0.000000 0.040780 0.000000
# 6 0.000000 0.000000 0.000000 -0.003614 0.000000 0.065986
#
#
# Mechanical properties :
#
#
# Convention : Reuss Voigt Hill
#
# Bulk Modulus (GPa) = 34.36880 38.69568 36.53224
# Shear Modulus (GPa) = 18.64985 21.14242 19.89613
#
# Velocity S-wave (km/s) = 3.44101 3.66374 3.55412
# Velocity P-wave (km/s) = 6.13251 6.51650 6.32741
#
# Compressibility (1/GPa) = 0.02909615
#
# Stress axis : x y z
#
# Youngs Moduli (GPa) = 72.70496 56.71399 53.64436
#
# Poissons Ratio (x) = 0.18835 0.13891
# Poissons Ratio (y) = 0.24145 0.24437
# Poissons Ratio (z) = 0.18827 0.25836
#
# Static dielectric constant tensor:
#      x y z
#    x 1.531870 0.000000 -0.009910 
#    y 0.000000 1.509130 0.000000 
#    z -0.009910 0.000000 1.542780 
# 
# From -- ./inp_files/122457.got.cif
#   From: 2010.05.17/outbox.cif.g08.bks.cpg/sg15_62_cif.got.tgz:122457.got - 2010.06.03 18:47:42.
