data_PCOD9278729
_publ_section_title
;
Structure prediction by ZEFSAII (Michael W. Deem and Ramdas Pophale) SiO2 
 PCOD9278729
Probable space group: C 2/C
;
_chemical_formula_sum "Si O2"
_cell_formula_units_Z 44
_cell_length_a 17.928244
_cell_length_b 17.724350
_cell_length_c 9.075450
_cell_angle_alpha 90.000000
_cell_angle_beta 146.865136
_cell_angle_gamma 90.000000
_cell_volume 1576.358844
_symmetry_space_group_name_H-M "C 2/C"
_symmetry_group_IT_number 15
_symmetry_cell_setting 'monoclinic'
loop_
_space_group_symop_operation_xyz
x,y,z
-x,y,1/2-z
-x,-y,-z
x,-y,1/2+z
1/2+x,1/2+y,z
1/2-x,1/2+y,1/2-z
1/2-x,1/2-y,-z
1/2+x,1/2-y,1/2+z
loop_
_atom_site_type_symbol
_atom_site_label
_atom_site_fract_x
_atom_site_fract_y
_atom_site_fract_z
Si Si1 0.966748 0.877712 0.031056
Si Si2 0.057360 0.643779 0.033021
Si Si3 0.808996 0.206953 0.743894
Si Si4 0.000000 0.586224 0.250000
Si Si5 0.254917 0.865934 0.057223
Si Si6 0.756336 0.990880 0.782720
O O1 0.106563 0.865723 0.173931
O O2 0.000000 0.846334 0.250000
O O3 0.852995 0.836903 0.740745
O O4 0.894332 0.958103 0.940817
O O5 0.091205 0.726744 0.039158
O O6 0.177027 0.584313 0.203118
O O7 0.039882 0.637674 0.180129
O O8 0.903635 0.623554 0.730639
O O9 0.750000 0.250000 0.500000
O O10 0.737965 0.181047 0.778420
O O11 0.132438 0.534342 0.495953
O O12 0.208484 0.949457 0.031844
#
# Coordination Sequence:
#
# PCOD9278729 Si02
#       6
#     8   8   8   4   8   8
#     4  12  29  49  76 113 156 204 261 322 396 465
#     4  11  24  44  79 109 155 198 259 311 390 467
#     4  12  28  50  75 110 158 209 255 319 392 474
#     4  10  20  44  80 116 152 204 254 326 380 470
#     4  11  27  52  80 114 160 203 262 327 390 470
#     4  11  23  46  80 117 153 201 261 323 393 468
#
# _framework density 27.912426
#
# number of rings (size 3 to 8) (size 9 to 14) (size 15 to 20)
#    0.000    0.727    0.000    8.182    6.364    5.091 
#    9.818    0.000    0.000    0.000    0.000    0.000 
#    0.000    0.000    0.000    0.000    0.000    0.000 
#
# Total GULP energy -123116.369970 kJ/mol
# GULP energy per Si atom -5596.198635 kJ/mol
# Density = 2.784890 g / cm^3
# Si number density = 27.912426 Si / 1000 Ang^3
#
#
#
# Elastic Constant Matrix: (Units=GPa)
#
#
# Indices 1 2 3 4 5 6 
#
# 1 119.9430 65.8390 69.7435 0.0000 -6.4759 0.0000
# 2 65.8390 160.2054 37.3491 0.0000 30.4700 0.0000
# 3 69.7435 37.3491 154.4149 0.0000 -17.9654 0.0000
# 4 0.0000 0.0000 0.0000 32.3029 0.0000 20.8154
# 5 -6.4759 30.4700 -17.9654 0.0000 69.2834 0.0000
# 6 0.0000 0.0000 0.0000 20.8154 0.0000 68.0054
#
#
#
# Elastic Compliance Matrix: (Units=1/GPa)
#
#
# Indices 1 2 3 4 5 6 
#
# 1 0.014083 -0.005090 -0.004863 0.000000 0.002294 0.000000
# 2 -0.005090 0.009351 -0.000512 0.000000 -0.004721 0.000000
# 3 -0.004863 -0.000512 0.009042 0.000000 0.002115 0.000000
# 4 0.000000 0.000000 0.000000 0.038563 0.000000 -0.011804
# 5 0.002294 -0.004721 0.002115 0.000000 0.017273 0.000000
# 6 0.000000 0.000000 0.000000 -0.011804 0.000000 0.018318
#
#
# Mechanical properties :
#
#
# Convention : Reuss Voigt Hill
#
# Bulk Modulus (GPa) = 86.60583 86.71406 86.65995
# Shear Modulus (GPa) = 38.04949 51.36045 44.70497
#
# Velocity S-wave (km/s) = 3.69612 4.29424 4.00636
# Velocity P-wave (km/s) = 7.02212 7.46467 7.24677
#
# Compressibility (1/GPa) = 0.01154657
#
# Stress axis : x y z
#
# Youngs Moduli (GPa) = 71.00912 106.93826 110.59195
#
# Poissons Ratio (x) = 0.54434 0.53776
# Poissons Ratio (y) = 0.36145 0.05663
# Poissons Ratio (z) = 0.34528 0.05476
#
# Static dielectric constant tensor:
#      x y z
#    x 2.193310 0.000000 -0.086820 
#    y 0.000000 2.096280 0.000000 
#    z -0.086820 0.000000 2.307550 
# 
# From -- ./inp_files/173534.got.cif
#   From: 2010.05.17/outbox.cif.g08.bks.cpg/sg15_87_cif.got.tgz:173534.got - 2010.06.03 18:47:42.
