data_PCOD9278120
_publ_section_title
;
Structure prediction by ZEFSAII (Michael W. Deem and Ramdas Pophale) SiO2 
 PCOD9278120
Probable space group: C 2/C
;
_chemical_formula_sum "Si O2"
_cell_formula_units_Z 60
_cell_length_a 4.951793
_cell_length_b 19.594440
_cell_length_c 28.013293
_cell_angle_alpha 90.000000
_cell_angle_beta 80.464874
_cell_angle_gamma 90.000000
_cell_volume 2680.510763
_symmetry_space_group_name_H-M "C 2/C"
_symmetry_group_IT_number 15
_symmetry_cell_setting 'monoclinic'
loop_
_space_group_symop_operation_xyz
x,y,z
-x,y,1/2-z
-x,-y,-z
x,-y,1/2+z
1/2+x,1/2+y,z
1/2-x,1/2+y,1/2-z
1/2-x,1/2-y,-z
1/2+x,1/2-y,1/2+z
loop_
_atom_site_type_symbol
_atom_site_label
_atom_site_fract_x
_atom_site_fract_y
_atom_site_fract_z
Si Si1 0.943211 0.461524 0.120678
Si Si2 0.719439 0.813424 0.402577
Si Si3 0.500000 0.122324 0.750000
Si Si4 0.216113 0.122630 0.328445
Si Si5 0.117915 0.976734 0.312668
Si Si6 0.345470 0.108596 0.104684
Si Si7 0.283624 0.271811 0.298892
Si Si8 0.669978 0.244740 0.447434
O O1 0.876160 0.391659 0.095917
O O2 0.702037 0.469932 0.167358
O O3 0.925581 0.530849 0.090356
O O4 0.226131 0.461235 0.141595
O O5 0.877229 0.793092 0.349059
O O6 0.444409 0.768093 0.411682
O O7 0.919841 0.793318 0.439543
O O8 0.751624 0.074874 0.728265
O O9 0.443079 0.172570 0.707741
O O10 0.496083 0.124160 0.350336
O O11 0.182665 0.194122 0.303220
O O12 0.975080 0.112442 0.374034
O O13 0.195913 0.054539 0.297573
O O14 0.409883 0.168097 0.065680
O O15 0.500000 0.277381 0.250000
O O16 0.750000 0.250000 0.500000
#
# Coordination Sequence:
#
# PCOD9278120 Si02
#       8
#     8   8   4   8   8   8   8   8
#     4  10  21  40  65  89 122 169 211 255 327 384
#     4  12  24  44  67  96 133 171 215 270 330 386
#     4  12  26  38  60  92 134 166 222 270 314 378
#     4  10  22  40  63  89 128 174 217 259 317 375
#     4  10  22  39  59  87 126 172 214 258 314 379
#     4  10  20  42  66  92 124 169 211 267 320 390
#     4  12  26  38  63  97 134 170 218 267 319 381
#     4  12  25  44  70  99 130 170 218 274 339 396
#
# _framework density 22.383793000000001
#
# number of rings (size 3 to 8) (size 9 to 14) (size 15 to 20)
#    0.000    1.067    4.000    2.000    4.667    0.000 
#    0.000    1.333    0.000    0.000    0.000    0.000 
#    0.000    0.000    0.000    0.000    0.000    0.000 
#
# Total GULP energy -167877.953537 kJ/mol
# GULP energy per Si atom -5595.931785 kJ/mol
# Density = 2.233285 g / cm^3
# Si number density = 22.383793 Si / 1000 Ang^3
#
#
#
# Elastic Constant Matrix: (Units=GPa)
#
#
# Indices 1 2 3 4 5 6 
#
# 1 62.4520 6.3060 1.3787 0.0000 13.1047 0.0000
# 2 6.3060 187.0537 45.1622 0.0000 23.6961 0.0000
# 3 1.3787 45.1622 53.8155 0.0000 16.5676 0.0000
# 4 0.0000 0.0000 0.0000 10.5141 0.0000 11.2887
# 5 13.1047 23.6961 16.5676 0.0000 24.6314 0.0000
# 6 0.0000 0.0000 0.0000 11.2887 0.0000 20.6337
#
#
#
# Elastic Compliance Matrix: (Units=1/GPa)
#
#
# Indices 1 2 3 4 5 6 
#
# 1 0.018459 0.000155 0.003111 0.000000 -0.012062 0.000000
# 2 0.000155 0.006934 -0.004722 0.000000 -0.003577 0.000000
# 3 0.003111 -0.004722 0.027210 0.000000 -0.015415 0.000000
# 4 0.000000 0.000000 0.000000 0.230522 0.000000 -0.126118
# 5 -0.012062 -0.003577 -0.015415 0.000000 0.060826 0.000000
# 6 0.000000 0.000000 0.000000 -0.126118 0.000000 0.117464
#
#
# Mechanical properties :
#
#
# Convention : Reuss Voigt Hill
#
# Bulk Modulus (GPa) = 20.12448 45.44608 32.78528
# Shear Modulus (GPa) = 10.39737 27.85412 19.12574
#
# Velocity S-wave (km/s) = 2.15757 3.53142 2.92626
# Velocity P-wave (km/s) = 3.90090 6.08071 5.10843
#
# Compressibility (1/GPa) = 0.04969072
#
# Stress axis : x y z
#
# Youngs Moduli (GPa) = 54.17395 144.21664 36.75054
#
# Poissons Ratio (x) = -0.02231 -0.11432
# Poissons Ratio (y) = -0.00838 0.17353
# Poissons Ratio (z) = -0.16852 0.68096
#
# Static dielectric constant tensor:
#      x y z
#    x 1.830910 0.000000 0.008130 
#    y 0.000000 1.858360 0.000000 
#    z 0.008130 0.000000 1.838210 
# 
# From -- ./inp_files/286058.got.cif
#   From: 2010.05.17/outbox.cif.g08.bks.cpg/sg15_144_cif.got.tgz:286058.got - 2010.06.03 18:47:42.
