data_PCOD9278912
_publ_section_title
;
Structure prediction by ZEFSAII (Michael W. Deem and Ramdas Pophale) SiO2 
 PCOD9278912
Probable space group: C 2/C
;
_chemical_formula_sum "Si O2"
_cell_formula_units_Z 52
_cell_length_a 11.249446
_cell_length_b 20.300048
_cell_length_c 10.220507
_cell_angle_alpha 90.000000
_cell_angle_beta 71.468812
_cell_angle_gamma 90.000000
_cell_volume 2212.982878
_symmetry_space_group_name_H-M "C 2/C"
_symmetry_group_IT_number 15
_symmetry_cell_setting 'monoclinic'
loop_
_space_group_symop_operation_xyz
x,y,z
-x,y,1/2-z
-x,-y,-z
x,-y,1/2+z
1/2+x,1/2+y,z
1/2-x,1/2+y,1/2-z
1/2-x,1/2-y,-z
1/2+x,1/2-y,1/2+z
loop_
_atom_site_type_symbol
_atom_site_label
_atom_site_fract_x
_atom_site_fract_y
_atom_site_fract_z
Si Si1 0.090193 0.756851 0.933853
Si Si2 0.277451 0.340175 0.125372
Si Si3 0.174965 0.156401 0.612740
Si Si4 0.500000 0.167036 0.750000
Si Si5 0.618460 0.063707 0.365003
Si Si6 0.328664 0.039139 0.444006
Si Si7 0.778210 0.815865 0.839266
O O1 0.203083 0.705044 0.920739
O O2 0.995760 0.712490 0.882205
O O3 0.127886 0.812359 0.814443
O O4 0.075101 0.797607 0.071862
O O5 0.350252 0.363435 0.228257
O O6 0.262624 0.260385 0.138193
O O7 0.365714 0.132332 0.804597
O O8 0.325154 0.345677 0.960605
O O9 0.223868 0.092675 0.517697
O O10 0.468710 0.064591 0.432674
O O11 0.660334 0.029249 0.215203
O O12 0.663570 0.138297 0.339570
O O13 0.681427 0.025402 0.463215
#
# Coordination Sequence:
#
# PCOD9278912 Si02
#       7
#     8   8   8   4   8   8   8
#     4   9  17  31  50  70  96 124 164 198 251 287
#     4   9  19  29  48  74  97 125 162 198 252 294
#     4   9  17  31  48  67  96 124 160 204 233 295
#     4   8  16  28  44  74  92 118 156 196 236 306
#     4  10  21  33  47  66 101 134 167 202 227 293
#     4  10  21  34  45  70  97 134 171 194 238 282
#     4   9  17  32  46  66  98 128 161 200 239 288
#
# _framework density 23.497699000000001
#
# number of rings (size 3 to 8) (size 9 to 14) (size 15 to 20)
#    0.000    3.077    1.538    0.000    6.462    0.000 
#    0.000    0.000    0.000    7.385    0.000    4.308 
#    0.000    0.000    0.000    0.000    0.000    0.000 
#
# Total GULP energy -144960.639733 kJ/mol
# GULP energy per Si atom -5575.409220 kJ/mol
# Density = 2.344422 g / cm^3
# Si number density = 23.497699 Si / 1000 Ang^3
#
#
#
# Elastic Constant Matrix: (Units=GPa)
#
#
# Indices 1 2 3 4 5 6 
#
# 1 30.7835 14.0714 4.9469 0.0000 -0.5273 0.0000
# 2 14.0714 64.0586 16.0872 0.0000 0.8874 0.0000
# 3 4.9469 16.0872 81.2909 0.0000 11.9241 0.0000
# 4 0.0000 0.0000 0.0000 27.0516 0.0000 0.2770
# 5 -0.5273 0.8874 11.9241 0.0000 34.1636 0.0000
# 6 0.0000 0.0000 0.0000 0.2770 0.0000 13.7595
#
#
#
# Elastic Compliance Matrix: (Units=1/GPa)
#
#
# Indices 1 2 3 4 5 6 
#
# 1 0.036180 -0.007756 -0.000820 0.000000 0.001046 0.000000
# 2 -0.007756 0.018108 -0.003188 0.000000 0.000523 0.000000
# 3 -0.000820 -0.003188 0.013672 0.000000 -0.004702 0.000000
# 4 0.000000 0.000000 0.000000 0.036974 0.000000 -0.000744
# 5 0.001046 0.000523 -0.004702 0.000000 0.030915 0.000000
# 6 0.000000 0.000000 0.000000 -0.000744 0.000000 0.072692
#
#
# Mechanical properties :
#
#
# Convention : Reuss Voigt Hill
#
# Bulk Modulus (GPa) = 22.50680 27.37156 24.93918
# Shear Modulus (GPa) = 20.25278 24.39677 22.32477
#
# Velocity S-wave (km/s) = 2.93901 3.22570 3.08569
# Velocity P-wave (km/s) = 4.59523 5.05445 4.83030
#
# Compressibility (1/GPa) = 0.04443102
#
# Stress axis : x y z
#
# Youngs Moduli (GPa) = 27.63956 55.22480 73.14208
#
# Poissons Ratio (x) = 0.42832 0.06000
# Poissons Ratio (y) = 0.21437 0.23319
# Poissons Ratio (z) = 0.02267 0.17606
#
# Static dielectric constant tensor:
#      x y z
#    x 1.965280 0.000000 0.015470 
#    y 0.000000 1.864830 0.000000 
#    z 0.015470 0.000000 1.989590 
# 
# From -- ./inp_files/40757.got.cif
#   From: 2010.05.17/outbox.cif.g08.bks.cpg/sg15_21_cif.got.tgz:40757.got - 2010.06.03 18:47:42.
