data_PCOD9278511
_publ_section_title
;
Structure prediction by ZEFSAII (Michael W. Deem and Ramdas Pophale) SiO2 
 PCOD9278511
Probable space group: C 2/C
;
_chemical_formula_sum "Si O2"
_cell_formula_units_Z 48
_cell_length_a 13.927291
_cell_length_b 11.533380
_cell_length_c 22.742242
_cell_angle_alpha 90.000000
_cell_angle_beta 141.701374
_cell_angle_gamma 90.000000
_cell_volume 2264.019793
_symmetry_space_group_name_H-M "C 2/C"
_symmetry_group_IT_number 15
_symmetry_cell_setting 'monoclinic'
loop_
_space_group_symop_operation_xyz
x,y,z
-x,y,1/2-z
-x,-y,-z
x,-y,1/2+z
1/2+x,1/2+y,z
1/2-x,1/2+y,1/2-z
1/2-x,1/2-y,-z
1/2+x,1/2-y,1/2+z
loop_
_atom_site_type_symbol
_atom_site_label
_atom_site_fract_x
_atom_site_fract_y
_atom_site_fract_z
Si Si1 0.884157 0.299900 0.839100
Si Si2 0.641804 0.802772 0.136411
Si Si3 0.668527 0.126433 0.964100
Si Si4 0.316108 0.978039 0.905974
Si Si5 0.886119 0.576333 0.139020
Si Si6 0.456497 0.629077 0.500538
O O1 0.758305 0.272597 0.729629
O O2 0.805558 0.378626 0.851850
O O3 0.022983 0.367687 0.872657
O O4 0.946993 0.181261 0.898815
O O5 0.517925 0.865590 0.118539
O O6 0.526932 0.723058 0.043074
O O7 0.736615 0.898114 0.144442
O O8 0.681419 0.048588 0.912595
O O9 0.750000 0.250000 0.000000
O O10 0.735751 0.060970 0.054371
O O11 0.500000 0.000000 0.000000
O O12 0.727143 0.642619 0.075583
O O13 0.000000 0.572539 0.250000
O O14 0.500000 0.500000 0.500000
#
# Coordination Sequence:
#
# PCOD9278511 Si02
#       6
#     8   8   8   8   8   8
#     4  12  24  44  73  94 138 184 223 283 340 413
#     4  11  23  43  70  95 133 180 231 268 347 410
#     4  11  23  44  70  97 135 179 225 288 337 402
#     4  10  20  43  69  91 127 184 220 268 343 399
#     4  12  25  43  69 103 138 174 228 280 347 404
#     4  12  26  42  69 105 135 173 229 283 337 410
#
# _framework density 21.201228
#
# number of rings (size 3 to 8) (size 9 to 14) (size 15 to 20)
#    0.000    0.667    8.333    1.500    4.667    0.000 
#    0.000    0.000    0.000    0.000    0.000    0.000 
#    0.000    0.000    0.000    0.000    0.000    0.000 
#
# Total GULP energy -133937.254073 kJ/mol
# GULP energy per Si atom -5580.718920 kJ/mol
# Density = 2.115297 g / cm^3
# Si number density = 21.201228 Si / 1000 Ang^3
#
#
#
# Elastic Constant Matrix: (Units=GPa)
#
#
# Indices 1 2 3 4 5 6 
#
# 1 42.1317 7.2533 2.4873 0.0000 -2.8523 0.0000
# 2 7.2533 101.4557 7.1951 0.0000 -13.4030 0.0000
# 3 2.4873 7.1951 51.5068 0.0000 -12.1271 0.0000
# 4 0.0000 0.0000 0.0000 42.3283 0.0000 -6.6453
# 5 -2.8523 -13.4030 -12.1271 0.0000 24.9046 0.0000
# 6 0.0000 0.0000 0.0000 -6.6453 0.0000 37.4800
#
#
#
# Elastic Compliance Matrix: (Units=1/GPa)
#
#
# Indices 1 2 3 4 5 6 
#
# 1 0.024135 -0.001460 -0.000560 0.000000 0.001706 0.000000
# 2 -0.001460 0.010700 -0.000122 0.000000 0.005532 0.000000
# 3 -0.000560 -0.000122 0.021944 0.000000 0.010556 0.000000
# 4 0.000000 0.000000 0.000000 0.024301 0.000000 0.004309
# 5 0.001706 0.005532 0.010556 0.000000 0.048466 0.000000
# 6 0.000000 0.000000 0.000000 0.004309 0.000000 0.027445
#
#
# Mechanical properties :
#
#
# Convention : Reuss Voigt Hill
#
# Bulk Modulus (GPa) = 19.04921 25.44061 22.24491
# Shear Modulus (GPa) = 27.96821 32.81983 30.39402
#
# Velocity S-wave (km/s) = 3.63599 3.93875 3.79039
# Velocity P-wave (km/s) = 5.16059 5.71932 5.44713
#
# Compressibility (1/GPa) = 0.05249562
#
# Stress axis : x y z
#
# Youngs Moduli (GPa) = 41.43354 93.45454 45.56990
#
# Poissons Ratio (x) = 0.13648 0.02552
# Poissons Ratio (y) = 0.06051 0.00555
# Poissons Ratio (z) = 0.02320 0.01137
#
# Static dielectric constant tensor:
#      x y z
#    x 1.883380 0.000000 -0.017180 
#    y 0.000000 1.892680 0.000000 
#    z -0.017180 0.000000 1.731940 
# 
# From -- ./inp_files/243995.got.cif
#   From: 2010.05.17/outbox.cif.g08.bks.cpg/sg15_122_cif.got.tgz:243995.got - 2010.06.03 18:47:42.
