data_PCOD9278431
_publ_section_title
;
Structure prediction by ZEFSAII (Michael W. Deem and Ramdas Pophale) SiO2 
 PCOD9278431
Probable space group: C 2/C
;
_chemical_formula_sum "Si O2"
_cell_formula_units_Z 44
_cell_length_a 9.846836
_cell_length_b 16.482228
_cell_length_c 15.191613
_cell_angle_alpha 90.000000
_cell_angle_beta 40.389462
_cell_angle_gamma 90.000000
_cell_volume 1597.636579
_symmetry_space_group_name_H-M "C 2/C"
_symmetry_group_IT_number 15
_symmetry_cell_setting 'monoclinic'
loop_
_space_group_symop_operation_xyz
x,y,z
-x,y,1/2-z
-x,-y,-z
x,-y,1/2+z
1/2+x,1/2+y,z
1/2-x,1/2+y,1/2-z
1/2-x,1/2-y,-z
1/2+x,1/2-y,1/2+z
loop_
_atom_site_type_symbol
_atom_site_label
_atom_site_fract_x
_atom_site_fract_y
_atom_site_fract_z
Si Si1 0.738127 0.025845 0.406559
Si Si2 0.272731 0.324169 0.186749
Si Si3 0.000000 0.632386 0.250000
Si Si4 0.824543 0.994197 0.664259
Si Si5 0.779388 0.147743 0.956845
Si Si6 0.441560 0.196776 0.976622
O O1 0.710569 0.118344 0.453925
O O2 0.500000 0.000000 0.500000
O O3 0.859583 0.022656 0.252139
O O4 0.787737 0.950890 0.447824
O O5 0.215416 0.418379 0.208764
O O6 0.072026 0.281406 0.326290
O O7 0.480063 0.327659 0.147029
O O8 0.339548 0.276175 0.067902
O O9 0.164081 0.576873 0.220420
O O10 0.147040 0.676071 0.107132
O O11 0.000000 0.000000 0.500000
O O12 0.632691 0.171450 0.948169
#
# Coordination Sequence:
#
# PCOD9278431 Si02
#       6
#     8   8   4   8   8   8
#     4  10  20  43  64  85 129 181 215 258 339 402
#     4  12  25  39  65 100 137 171 221 278 344 402
#     4  12  22  38  70  98 126 160 236 284 312 388
#     4  12  24  41  67  97 128 175 229 278 327 402
#     4  11  22  39  65  95 132 175 218 271 339 400
#     4  11  24  40  62  95 141 173 211 275 349 400
#
# _framework density 27.540679999999998
#
# number of rings (size 3 to 8) (size 9 to 14) (size 15 to 20)
#    0.000    0.727    9.091    1.091    5.091    0.000 
#    0.000    0.000    0.000    6.545    0.000    0.000 
#    0.000    0.000    0.000    0.000    0.000    0.000 
#
# Total GULP energy -123189.630190 kJ/mol
# GULP energy per Si atom -5599.528645 kJ/mol
# Density = 2.747800 g / cm^3
# Si number density = 27.540680 Si / 1000 Ang^3
#
#
#
# Elastic Constant Matrix: (Units=GPa)
#
#
# Indices 1 2 3 4 5 6 
#
# 1 108.3253 21.9917 17.7664 0.0008 2.4618 -0.0019
# 2 21.9917 105.9729 9.9080 0.0014 -2.9874 -0.0009
# 3 17.7664 9.9080 198.8441 -0.0048 5.0280 0.0025
# 4 0.0008 0.0014 -0.0048 49.2172 0.0018 9.5065
# 5 2.4618 -2.9874 5.0280 0.0018 28.4256 0.0000
# 6 -0.0019 -0.0009 0.0025 9.5065 0.0000 33.0716
#
#
#
# Elastic Compliance Matrix: (Units=1/GPa)
#
#
# Indices 1 2 3 4 5 6 
#
# 1 0.009779 -0.001985 -0.000751 0.000000 -0.000923 0.000001
# 2 -0.001985 0.009917 -0.000349 0.000000 0.001276 0.000000
# 3 -0.000751 -0.000349 0.005136 0.000001 -0.000880 -0.000001
# 4 0.000000 0.000000 0.000001 0.021513 -0.000001 -0.006184
# 5 -0.000923 0.001276 -0.000880 -0.000001 0.035549 0.000000
# 6 0.000001 0.000000 -0.000001 -0.006184 0.000000 0.032015
#
#
# Mechanical properties :
#
#
# Convention : Reuss Voigt Hill
#
# Bulk Modulus (GPa) = 53.58961 56.94161 55.26561
# Shear Modulus (GPa) = 39.58846 46.37462 42.98154
#
# Velocity S-wave (km/s) = 3.79549 4.10794 3.95480
# Velocity P-wave (km/s) = 6.22160 6.57423 6.40034
#
# Compressibility (1/GPa) = 0.01866033
#
# Stress axis : x y z
#
# Youngs Moduli (GPa) = 102.26344 100.83783 194.70961
#
# Poissons Ratio (x) = 0.20017 0.14632
# Poissons Ratio (y) = 0.20300 0.06796
# Poissons Ratio (z) = 0.07685 0.03520
#
# Static dielectric constant tensor:
#      x y z
#    x 2.201050 0.000000 0.054190 
#    y 0.000000 2.190880 0.000000 
#    z 0.054190 0.000000 2.130730 
# 
# From -- ./inp_files/206226.got.cif
#   From: 2010.05.17/outbox.cif.g08.bks.cpg/sg15_104_cif.got.tgz:206226.got - 2010.06.03 18:47:42.
