data_PCOD9278786
_publ_section_title
;
Structure prediction by ZEFSAII (Michael W. Deem and Ramdas Pophale) SiO2 
 PCOD9278786
Probable space group: C 2/C
;
_chemical_formula_sum "Si O2"
_cell_formula_units_Z 60
_cell_length_a 32.093575
_cell_length_b 8.005847
_cell_length_c 11.305240
_cell_angle_alpha 90.000000
_cell_angle_beta 103.593951
_cell_angle_gamma 90.000000
_cell_volume 2823.352468
_symmetry_space_group_name_H-M "C 2/C"
_symmetry_group_IT_number 15
_symmetry_cell_setting 'monoclinic'
loop_
_space_group_symop_operation_xyz
x,y,z
-x,y,1/2-z
-x,-y,-z
x,-y,1/2+z
1/2+x,1/2+y,z
1/2-x,1/2+y,1/2-z
1/2-x,1/2-y,-z
1/2+x,1/2-y,1/2+z
loop_
_atom_site_type_symbol
_atom_site_label
_atom_site_fract_x
_atom_site_fract_y
_atom_site_fract_z
Si Si1 0.322895 0.168424 0.070220
Si Si2 0.000000 0.823633 0.750000
Si Si3 0.251481 0.693639 0.658461
Si Si4 0.360195 0.816787 0.159642
Si Si5 0.400076 0.805574 0.446954
Si Si6 0.062301 0.337422 0.470570
Si Si7 0.953753 0.988265 0.407132
Si Si8 0.222417 0.825857 0.878931
O O1 0.298274 0.221753 0.174262
O O2 0.331215 0.971851 0.095375
O O3 0.286803 0.241483 0.956798
O O4 0.367689 0.215686 0.036569
O O5 0.980069 0.705775 0.634806
O O6 0.963802 0.946051 0.781339
O O7 0.231069 0.714162 0.771526
O O8 0.259261 0.502950 0.639058
O O9 0.375789 0.839592 0.305359
O O10 0.399248 0.802087 0.095720
O O11 0.327989 0.662031 0.130706
O O12 0.424500 0.631461 0.445062
O O13 0.430421 0.969335 0.487315
O O14 0.062902 0.199341 0.576813
O O15 0.000000 0.000000 0.500000
O O16 0.250000 0.750000 0.000000
#
# Coordination Sequence:
#
# PCOD9278786 Si02
#       8
#     8   4   8   8   8   8   8   8
#     4  10  23  42  66  93 134 172 228 281 337 402
#     4  10  20  46  70 102 134 170 222 280 326 430
#     4  11  24  41  64  96 130 178 233 279 337 399
#     4  11  22  44  64  96 137 174 224 287 334 401
#     4  11  23  45  69 101 136 178 223 287 344 404
#     4  10  24  44  70  99 138 176 220 281 340 409
#     4  10  23  45  69  97 138 168 224 274 339 411
#     4  12  25  41  67  92 135 184 228 280 341 398
#
# _framework density 21.251332000000001
#
# number of rings (size 3 to 8) (size 9 to 14) (size 15 to 20)
#    0.000    1.333    4.000    0.800    3.733    2.133 
#   12.000    1.333    0.000    0.000    0.000    0.000 
#    0.000    0.000    0.000    0.000    0.000    0.000 
#
# Total GULP energy -167163.296953 kJ/mol
# GULP energy per Si atom -5572.109898 kJ/mol
# Density = 2.120296 g / cm^3
# Si number density = 21.251332 Si / 1000 Ang^3
#
#
#
# Elastic Constant Matrix: (Units=GPa)
#
#
# Indices 1 2 3 4 5 6 
#
# 1 82.2017 23.0615 -1.5435 0.0000 -9.9031 0.0000
# 2 23.0615 71.6381 -9.9918 0.0000 7.8138 0.0000
# 3 -1.5435 -9.9918 44.2105 0.0000 10.4058 0.0000
# 4 0.0000 0.0000 0.0000 24.1324 0.0000 -3.2195
# 5 -9.9031 7.8138 10.4058 0.0000 21.4043 0.0000
# 6 0.0000 0.0000 0.0000 -3.2195 0.0000 41.9013
#
#
#
# Elastic Compliance Matrix: (Units=1/GPa)
#
#
# Indices 1 2 3 4 5 6 
#
# 1 0.015330 -0.006673 -0.003631 0.000000 0.011294 0.000000
# 2 -0.006673 0.018548 0.007091 0.000000 -0.013306 0.000000
# 3 -0.003631 0.007091 0.028343 0.000000 -0.018048 0.000000
# 4 0.000000 0.000000 0.000000 0.041867 0.000000 0.003217
# 5 0.011294 -0.013306 -0.018048 0.000000 0.065576 0.000000
# 6 0.000000 0.000000 0.000000 0.003217 0.000000 0.024113
#
#
# Mechanical properties :
#
#
# Convention : Reuss Voigt Hill
#
# Bulk Modulus (GPa) = 17.92370 24.56697 21.24533
# Shear Modulus (GPa) = 22.85177 29.92256 26.38716
#
# Velocity S-wave (km/s) = 3.28275 3.75645 3.52756
# Velocity P-wave (km/s) = 4.77714 5.51360 5.15853
#
# Compressibility (1/GPa) = 0.05579205
#
# Stress axis : x y z
#
# Youngs Moduli (GPa) = 65.23234 53.91541 35.28254
#
# Poissons Ratio (x) = 0.35979 0.12812
# Poissons Ratio (y) = 0.43531 -0.25017
# Poissons Ratio (z) = 0.23688 -0.38229
#
# Static dielectric constant tensor:
#      x y z
#    x 1.727650 0.000000 0.044140 
#    y 0.000000 1.807190 0.000000 
#    z 0.044140 0.000000 1.750390 
# 
# From -- ./inp_files/125890.got.cif
#   From: 2010.05.17/outbox.cif.g08.bks.cpg/sg15_63_cif.got.tgz:125890.got - 2010.06.03 18:47:42.
