data_PCOD9278289
_publ_section_title
;
Structure prediction by ZEFSAII (Michael W. Deem and Ramdas Pophale) SiO2 
 PCOD9278289
Probable space group: C 2/C
;
_chemical_formula_sum "Si O2"
_cell_formula_units_Z 52
_cell_length_a 10.670655
_cell_length_b 29.625199
_cell_length_c 8.958867
_cell_angle_alpha 90.000000
_cell_angle_beta 98.369406
_cell_angle_gamma 90.000000
_cell_volume 2801.918431
_symmetry_space_group_name_H-M "C 2/C"
_symmetry_group_IT_number 15
_symmetry_cell_setting 'monoclinic'
loop_
_space_group_symop_operation_xyz
x,y,z
-x,y,1/2-z
-x,-y,-z
x,-y,1/2+z
1/2+x,1/2+y,z
1/2-x,1/2+y,1/2-z
1/2-x,1/2-y,-z
1/2+x,1/2-y,1/2+z
loop_
_atom_site_type_symbol
_atom_site_label
_atom_site_fract_x
_atom_site_fract_y
_atom_site_fract_z
Si Si1 0.500000 0.506971 0.250000
Si Si2 0.646358 0.122014 0.826150
Si Si3 0.240340 0.801608 0.952640
Si Si4 0.639722 0.775420 0.818590
Si Si5 0.005710 0.855868 0.572946
Si Si6 0.274789 0.679313 0.594522
Si Si7 0.864292 0.942420 0.460171
O O1 0.411676 0.476722 0.342052
O O2 0.596779 0.534806 0.374174
O O3 0.500000 0.114634 0.750000
O O4 0.721821 0.141751 0.695968
O O5 0.723750 0.078519 0.905142
O O6 0.665920 0.163026 0.949074
O O7 0.268215 0.799956 0.781934
O O8 0.098711 0.817145 0.961839
O O9 0.250000 0.750000 0.000000
O O10 0.500000 0.787433 0.750000
O O11 0.657178 0.721389 0.812700
O O12 0.665088 0.793965 0.987592
O O13 0.953219 0.898597 0.474725
O O14 0.000000 0.865957 0.750000
O O15 0.132965 0.841701 0.512862
#
# Coordination Sequence:
#
# PCOD9278289 Si02
#       7
#     4   8   8   8   8   8   8
#     4  10  20  42  70 100 124 150 196 262 322 398
#     4  11  24  41  61  90 129 168 209 257 315 377
#     4  11  21  36  56  81 121 170 213 264 302 346
#     4  11  22  36  50  79 114 163 222 257 299 355
#     4  11  21  37  59  88 121 153 208 261 312 357
#     4  11  23  37  56  81 117 166 210 263 305 360
#     4  10  22  39  67  97 123 154 196 256 323 386
#
# _framework density 18.558713000000001
#
# number of rings (size 3 to 8) (size 9 to 14) (size 15 to 20)
#    0.000    1.231    3.846    2.769    2.154    1.846 
#    0.000    0.769    0.000    0.000    0.000    0.000 
#    0.000    0.000    0.000    0.000    0.000    0.000 
#
# Total GULP energy -144926.363606 kJ/mol
# GULP energy per Si atom -5574.090908 kJ/mol
# Density = 1.851647 g / cm^3
# Si number density = 18.558713 Si / 1000 Ang^3
#
#
#
# Elastic Constant Matrix: (Units=GPa)
#
#
# Indices 1 2 3 4 5 6 
#
# 1 67.0563 34.1149 31.7468 0.0000 2.4344 0.0000
# 2 34.1149 88.3305 34.1255 0.0000 4.0659 0.0000
# 3 31.7468 34.1255 97.1405 0.0000 -2.5540 0.0000
# 4 0.0000 0.0000 0.0000 37.3188 0.0000 2.7588
# 5 2.4344 4.0659 -2.5540 0.0000 30.7784 0.0000
# 6 0.0000 0.0000 0.0000 2.7588 0.0000 19.2925
#
#
#
# Elastic Compliance Matrix: (Units=1/GPa)
#
#
# Indices 1 2 3 4 5 6 
#
# 1 0.020133 -0.005979 -0.004510 0.000000 -0.001177 0.000000
# 2 -0.005979 0.015014 -0.003367 0.000000 -0.001790 0.000000
# 3 -0.004510 -0.003367 0.013001 0.000000 0.001880 0.000000
# 4 0.000000 0.000000 0.000000 0.027082 0.000000 -0.003873
# 5 -0.001177 -0.001790 0.001880 0.000000 0.032976 0.000000
# 6 0.000000 0.000000 0.000000 -0.003873 0.000000 0.052387
#
#
# Mechanical properties :
#
#
# Convention : Reuss Voigt Hill
#
# Bulk Modulus (GPa) = 48.93789 50.27798 49.60793
# Shear Modulus (GPa) = 25.62566 27.64729 26.63648
#
# Velocity S-wave (km/s) = 3.71993 3.86388 3.79259
# Velocity P-wave (km/s) = 6.69903 6.85975 6.77986
#
# Compressibility (1/GPa) = 0.02043406
#
# Stress axis : x y z
#
# Youngs Moduli (GPa) = 49.67063 66.60612 76.91884
#
# Poissons Ratio (x) = 0.39824 0.34691
# Poissons Ratio (y) = 0.29698 0.25901
# Poissons Ratio (z) = 0.22402 0.22429
#
# Static dielectric constant tensor:
#      x y z
#    x 1.753560 0.000000 -0.047290 
#    y 0.000000 1.635660 0.000000 
#    z -0.047290 0.000000 1.753610 
# 
# From -- ./inp_files/33679.got.cif
#   From: 2010.05.17/outbox.cif.g08.bks.cpg/sg15_17_cif.got.tgz:33679.got - 2010.06.03 18:47:42.
