data_PCOD9278776
_publ_section_title
;
Structure prediction by ZEFSAII (Michael W. Deem and Ramdas Pophale) SiO2 
 PCOD9278776
Probable space group: C 2/C
;
_chemical_formula_sum "Si O2"
_cell_formula_units_Z 60
_cell_length_a 8.995027
_cell_length_b 29.569562
_cell_length_c 24.164257
_cell_angle_alpha 90.000000
_cell_angle_beta 29.224632
_cell_angle_gamma 90.000000
_cell_volume 3137.976030
_symmetry_space_group_name_H-M "C 2/C"
_symmetry_group_IT_number 15
_symmetry_cell_setting 'monoclinic'
loop_
_space_group_symop_operation_xyz
x,y,z
-x,y,1/2-z
-x,-y,-z
x,-y,1/2+z
1/2+x,1/2+y,z
1/2-x,1/2+y,1/2-z
1/2-x,1/2-y,-z
1/2+x,1/2-y,1/2+z
loop_
_atom_site_type_symbol
_atom_site_label
_atom_site_fract_x
_atom_site_fract_y
_atom_site_fract_z
Si Si1 0.768227 0.011380 0.205279
Si Si2 0.225904 0.586828 0.759744
Si Si3 0.834094 0.357616 0.859243
Si Si4 0.159855 0.198579 0.520279
Si Si5 0.500000 0.838895 0.250000
Si Si6 0.671512 0.075975 0.331170
Si Si7 0.126247 0.382043 0.472581
Si Si8 0.786652 0.915537 0.985232
O O1 0.500000 0.024044 0.250000
O O2 0.693651 0.029141 0.291211
O O3 0.779830 0.957538 0.204820
O O4 0.062064 0.039079 0.088942
O O5 0.056250 0.627009 0.782459
O O6 0.564743 0.605552 0.660101
O O7 0.000968 0.574191 0.882383
O O8 0.000000 0.341203 0.750000
O O9 0.066811 0.389357 0.817700
O O10 0.740392 0.319078 0.932767
O O11 0.545585 0.388220 0.934660
O O12 0.250000 0.250000 0.500000
O O13 0.325216 0.164952 0.510580
O O14 0.801094 0.190351 0.644703
O O15 0.437261 0.081646 0.457699
O O16 0.000000 0.086874 0.250000
O O17 0.846303 0.385290 0.521550
#
# Coordination Sequence:
#
# PCOD9278776 Si02
#       8
#     8   8   8   8   4   8   8   8
#     4  12  24  37  61  94 128 170 232 266 310 376
#     4  11  25  39  64  90 128 185 218 265 323 377
#     4  11  20  40  69  96 129 169 213 267 331 392
#     4  10  23  45  70 100 129 165 216 273 334 409
#     4  10  20  46  66  92 130 170 214 260 330 404
#     4  11  20  38  60  90 131 168 212 273 318 373
#     4  10  24  42  64  90 132 173 216 265 338 389
#     4  12  22  43  63  92 134 173 222 271 321 387
#
# _framework density 19.120605000000001
#
# number of rings (size 3 to 8) (size 9 to 14) (size 15 to 20)
#    0.000    1.067    6.000    0.400    1.867    2.133 
#    7.200    3.333    0.000    0.000    0.000    0.000 
#    0.000    0.000    0.000    0.000    0.000    0.000 
#
# Total GULP energy -167471.016332 kJ/mol
# GULP energy per Si atom -5582.367211 kJ/mol
# Density = 1.907709 g / cm^3
# Si number density = 19.120605 Si / 1000 Ang^3
#
#
#
# Elastic Constant Matrix: (Units=GPa)
#
#
# Indices 1 2 3 4 5 6 
#
# 1 128.3872 48.4652 47.4243 -0.0002 -16.2917 0.0010
# 2 48.4652 117.7003 67.6571 -0.0015 -6.6684 0.0004
# 3 47.4243 67.6571 119.3408 -0.0072 8.9511 0.0085
# 4 -0.0002 -0.0015 -0.0072 22.6666 0.0008 -0.9334
# 5 -16.2917 -6.6684 8.9511 0.0008 28.5169 -0.0008
# 6 0.0010 0.0004 0.0085 -0.9334 -0.0008 15.9492
#
#
#
# Elastic Compliance Matrix: (Units=1/GPa)
#
#
# Indices 1 2 3 4 5 6 
#
# 1 0.010747 -0.001908 -0.003703 -0.000001 0.006856 0.000002
# 2 -0.001908 0.013781 -0.007388 -0.000001 0.004452 0.000004
# 3 -0.003703 -0.007388 0.014673 0.000004 -0.008449 -0.000008
# 4 -0.000001 -0.000001 0.000004 0.044224 -0.000004 0.002588
# 5 0.006856 0.004452 -0.008449 -0.000004 0.042677 0.000006
# 6 0.000002 0.000004 -0.000008 0.002588 0.000006 0.062850
#
#
# Mechanical properties :
#
#
# Convention : Reuss Voigt Hill
#
# Bulk Modulus (GPa) = 75.74621 76.94683 76.34652
# Shear Modulus (GPa) = 22.79424 26.88533 24.83978
#
# Velocity S-wave (km/s) = 3.45647 3.75386 3.60823
# Velocity P-wave (km/s) = 7.45859 7.68888 7.57461
#
# Compressibility (1/GPa) = 0.01320198
#
# Stress axis : x y z
#
# Youngs Moduli (GPa) = 93.04775 72.56267 68.15065
#
# Poissons Ratio (x) = 0.13847 0.25237
# Poissons Ratio (y) = 0.17756 0.50353
# Poissons Ratio (z) = 0.34457 0.53613
#
# Static dielectric constant tensor:
#      x y z
#    x 1.676440 0.000000 0.012300 
#    y 0.000000 1.622790 0.000000 
#    z 0.012300 0.000000 1.695950 
# 
# From -- ./inp_files/266690.got.cif
#   From: 2010.05.17/outbox.cif.g08.bks.cpg/sg15_134_cif.got.tgz:266690.got - 2010.06.03 18:47:42.
