data_PCOD9278445
_publ_section_title
;
Structure prediction by ZEFSAII (Michael W. Deem and Ramdas Pophale) SiO2 
 PCOD9278445
Probable space group: C 2/C
;
_chemical_formula_sum "Si O2"
_cell_formula_units_Z 36
_cell_length_a 11.336640
_cell_length_b 15.631187
_cell_length_c 15.795272
_cell_angle_alpha 90.000000
_cell_angle_beta 146.021449
_cell_angle_gamma 90.000000
_cell_volume 1564.314034
_symmetry_space_group_name_H-M "C 2/C"
_symmetry_group_IT_number 15
_symmetry_cell_setting 'monoclinic'
loop_
_space_group_symop_operation_xyz
x,y,z
-x,y,1/2-z
-x,-y,-z
x,-y,1/2+z
1/2+x,1/2+y,z
1/2-x,1/2+y,1/2-z
1/2-x,1/2-y,-z
1/2+x,1/2-y,1/2+z
loop_
_atom_site_type_symbol
_atom_site_label
_atom_site_fract_x
_atom_site_fract_y
_atom_site_fract_z
Si Si1 0.000000 0.809097 0.750000
Si Si2 0.296872 0.426012 0.490482
Si Si3 0.298377 0.887503 0.574133
Si Si4 0.752012 0.710441 0.884035
Si Si5 0.329656 0.153258 0.740477
O O1 0.937126 0.868323 0.634669
O O2 0.830670 0.742035 0.687122
O O3 0.324954 0.526468 0.520691
O O4 0.318387 0.407446 0.403484
O O5 0.059305 0.393176 0.372698
O O6 0.500000 0.913750 0.750000
O O7 0.192902 0.809127 0.562811
O O8 0.362164 0.845504 0.522352
O O9 0.500000 0.704791 0.750000
O O10 0.790539 0.676780 0.813578
#
# Coordination Sequence:
#
# PCOD9278445 Si02
#       5
#     4   8   8   8   8
#     4  10  22  36  66  94 124 156 212 262 306 362
#     4  10  21  40  67  92 123 159 217 255 305 367
#     4  10  21  42  61  89 125 168 201 255 306 376
#     4  10  24  41  65  89 128 163 209 251 317 371
#     4  10  20  43  65  91 124 167 200 257 320 367
#
# _framework density 23.013282
#
# number of rings (size 3 to 8) (size 9 to 14) (size 15 to 20)
#    0.000    2.222    2.222    2.667    1.556   11.556 
#    4.000    2.222    0.000    0.000    0.000    0.000 
#    0.000    0.000    0.000    0.000    0.000    0.000 
#
# Total GULP energy -100562.742737 kJ/mol
# GULP energy per Si atom -5586.819041 kJ/mol
# Density = 2.296090 g / cm^3
# Si number density = 23.013282 Si / 1000 Ang^3
#
#
#
# Elastic Constant Matrix: (Units=GPa)
#
#
# Indices 1 2 3 4 5 6 
#
# 1 120.6156 32.7077 7.5537 0.0015 -36.7769 0.0004
# 2 32.7077 161.2752 15.2320 0.0026 -18.2995 0.0014
# 3 7.5537 15.2320 55.4171 0.0037 -25.8973 0.0030
# 4 0.0015 0.0026 0.0037 -27.2934 0.0022 -5.6904
# 5 -36.7769 -18.2995 -25.8973 0.0022 38.5703 0.0015
# 6 0.0004 0.0014 0.0030 -5.6904 0.0015 17.4898
#
#
#
# Elastic Compliance Matrix: (Units=1/GPa)
#
#
# Indices 1 2 3 4 5 6 
#
# 1 0.013155 -0.001432 0.006040 0.000003 0.015919 -0.000002
# 2 -0.001432 0.006719 -0.001166 0.000001 0.001040 0.000000
# 3 0.006040 -0.001166 0.029108 0.000007 0.024750 -0.000005
# 4 0.000003 0.000001 0.000007 -0.034311 0.000010 -0.011163
# 5 0.015919 0.001040 0.024750 0.000010 0.058216 -0.000006
# 6 -0.000002 0.000000 -0.000005 -0.011163 -0.000006 0.053544
#
#
# Mechanical properties :
#
#
# Convention : Reuss Voigt Hill
#
# Bulk Modulus (GPa) = 17.90011 49.81051 33.85531
# Shear Modulus (GPa) = 36.18754 24.54097 30.36426
#
# Velocity S-wave (km/s) = 3.96973 3.26909 3.63633
# Velocity P-wave (km/s) = 5.36719 5.99504 5.68978
#
# Compressibility (1/GPa) = 0.05586557
#
# Stress axis : x y z
#
# Youngs Moduli (GPa) = 76.01848 148.82994 34.35472
#
# Poissons Ratio (x) = 0.21313 -0.20749
# Poissons Ratio (y) = 0.10886 0.04005
# Poissons Ratio (z) = -0.45913 0.17350
#
# Static dielectric constant tensor:
#      x y z
#    x 1.906410 0.000000 0.069550 
#    y 0.000000 1.822630 0.000000 
#    z 0.069550 0.000000 1.889630 
# 
# From -- ./inp_files/144457.got.cif
#   From: 2010.05.17/outbox.cif.g08.bks.cpg/sg15_73_cif.got.tgz:144457.got - 2010.06.03 18:47:42.
