data_PCOD9278248
_publ_section_title
;
Structure prediction by ZEFSAII (Michael W. Deem and Ramdas Pophale) SiO2 
 PCOD9278248
Probable space group: C 2/C
;
_chemical_formula_sum "Si O2"
_cell_formula_units_Z 64
_cell_length_a 15.007832
_cell_length_b 11.980996
_cell_length_c 15.395229
_cell_angle_alpha 90.000000
_cell_angle_beta 91.666887
_cell_angle_gamma 90.000000
_cell_volume 2767.025875
_symmetry_space_group_name_H-M "C 2/C"
_symmetry_group_IT_number 15
_symmetry_cell_setting 'monoclinic'
loop_
_space_group_symop_operation_xyz
x,y,z
-x,y,1/2-z
-x,-y,-z
x,-y,1/2+z
1/2+x,1/2+y,z
1/2-x,1/2+y,1/2-z
1/2-x,1/2-y,-z
1/2+x,1/2-y,1/2+z
loop_
_atom_site_type_symbol
_atom_site_label
_atom_site_fract_x
_atom_site_fract_y
_atom_site_fract_z
Si Si1 0.182471 0.751149 0.413847
Si Si2 0.063418 0.427465 0.124013
Si Si3 0.325174 0.836346 0.032237
Si Si4 0.513050 0.870982 0.940214
Si Si5 0.756226 0.038313 0.693918
Si Si6 0.626647 0.658946 0.337073
Si Si7 0.939388 0.839069 0.863127
Si Si8 0.773662 0.968243 0.884486
O O1 0.250000 0.750000 0.500000
O O2 0.076556 0.734476 0.424098
O O3 0.203969 0.858281 0.357630
O O4 0.211788 0.638850 0.364352
O O5 0.150994 0.453894 0.179304
O O6 0.048203 0.295033 0.131894
O O7 0.996440 0.532216 0.133253
O O8 0.069419 0.428941 0.019461
O O9 0.354958 0.781403 0.125275
O O10 0.274870 0.952185 0.048708
O O11 0.250000 0.750000 0.000000
O O12 0.413708 0.839658 0.973371
O O13 0.791187 0.923832 0.652590
O O14 0.783981 0.036661 0.795411
O O15 0.598156 0.653880 0.235938
O O16 0.537691 0.614202 0.381367
O O17 0.866978 0.910019 0.914249
#
# Coordination Sequence:
#
# PCOD9278248 Si02
#       8
#     8   8   8   8   8   8   8   8
#     4  12  25  46  75 104 140 192 240 302 359 434
#     4  11  19  41  67  94 140 175 232 295 336 429
#     4  12  26  43  66 101 148 186 229 302 358 428
#     4  11  24  41  65 106 137 182 243 284 356 431
#     4  11  24  44  73 102 142 184 241 298 358 426
#     4  10  23  40  66  99 132 184 232 286 358 419
#     4  10  20  42  68  95 131 182 238 286 350 431
#     4  11  25  43  72 105 137 190 245 296 363 428
#
# _framework density 23.129527
#
# number of rings (size 3 to 8) (size 9 to 14) (size 15 to 20)
#    0.000    1.000    3.750    3.000    3.500    1.000 
#    0.000    1.250    0.000    0.000    0.000    0.000 
#    0.000    0.000    0.000    0.000    0.000    0.000 
#
# Total GULP energy -178425.677663 kJ/mol
# GULP energy per Si atom -5575.802427 kJ/mol
# Density = 2.307688 g / cm^3
# Si number density = 23.129527 Si / 1000 Ang^3
#
#
#
# Elastic Constant Matrix: (Units=GPa)
#
#
# Indices 1 2 3 4 5 6 
#
# 1 119.7966 38.3129 18.4514 0.0000 -13.3090 0.0000
# 2 38.3129 104.8853 22.6400 0.0000 -10.4904 0.0000
# 3 18.4514 22.6400 42.7610 0.0000 -5.1628 0.0000
# 4 0.0000 0.0000 0.0000 40.2109 0.0000 -3.9906
# 5 -13.3090 -10.4904 -5.1628 0.0000 26.0217 0.0000
# 6 0.0000 0.0000 0.0000 -3.9906 0.0000 41.7462
#
#
#
# Elastic Compliance Matrix: (Units=1/GPa)
#
#
# Indices 1 2 3 4 5 6 
#
# 1 0.009999 -0.002779 -0.002419 0.000000 0.003514 0.000000
# 2 -0.002779 0.011818 -0.004769 0.000000 0.002397 0.000000
# 3 -0.002419 -0.004769 0.027225 0.000000 0.002242 0.000000
# 4 0.000000 0.000000 0.000000 0.025107 0.000000 0.002400
# 5 0.003514 0.002397 0.002242 0.000000 0.041638 0.000000
# 6 0.000000 0.000000 0.000000 0.002400 0.000000 0.024184
#
#
# Mechanical properties :
#
#
# Convention : Reuss Voigt Hill
#
# Bulk Modulus (GPa) = 34.35339 47.36126 40.85733
# Shear Modulus (GPa) = 29.47972 34.13167 31.80569
#
# Velocity S-wave (km/s) = 3.57396 3.84562 3.71227
# Velocity P-wave (km/s) = 5.64940 6.34345 6.00646
#
# Compressibility (1/GPa) = 0.02910921
#
# Stress axis : x y z
#
# Youngs Moduli (GPa) = 100.00791 84.61356 36.73068
#
# Poissons Ratio (x) = 0.23513 0.08885
# Poissons Ratio (y) = 0.27791 0.17516
# Poissons Ratio (z) = 0.24193 0.40351
#
# Static dielectric constant tensor:
#      x y z
#    x 1.950340 0.000000 -0.071860 
#    y 0.000000 1.946610 0.000000 
#    z -0.071860 0.000000 1.938620 
# 
# From -- ./inp_files/204469.got.cif
#   From: 2010.05.17/outbox.cif.g08.bks.cpg/sg15_103_cif.got.tgz:204469.got - 2010.06.03 18:47:42.
