data_PCOD9278868
_publ_section_title
;
Structure prediction by ZEFSAII (Michael W. Deem and Ramdas Pophale) SiO2 
 PCOD9278868
Probable space group: C 2/C
;
_chemical_formula_sum "Si O2"
_cell_formula_units_Z 40
_cell_length_a 14.695467
_cell_length_b 22.274458
_cell_length_c 5.438378
_cell_angle_alpha 90.000000
_cell_angle_beta 101.458360
_cell_angle_gamma 90.000000
_cell_volume 1744.683804
_symmetry_space_group_name_H-M "C 2/C"
_symmetry_group_IT_number 15
_symmetry_cell_setting 'monoclinic'
loop_
_space_group_symop_operation_xyz
x,y,z
-x,y,1/2-z
-x,-y,-z
x,-y,1/2+z
1/2+x,1/2+y,z
1/2-x,1/2+y,1/2-z
1/2-x,1/2-y,-z
1/2+x,1/2-y,1/2+z
loop_
_atom_site_type_symbol
_atom_site_label
_atom_site_fract_x
_atom_site_fract_y
_atom_site_fract_z
Si Si1 0.321581 0.194998 0.563981
Si Si2 0.240039 0.517303 0.449020
Si Si3 0.397412 0.238114 0.109371
Si Si4 0.310520 0.635421 0.659514
Si Si5 0.066824 0.055568 0.475154
O O1 0.250000 0.250000 0.500000
O O2 0.365459 0.193589 0.315336
O O3 0.257710 0.142603 0.642073
O O4 0.389314 0.210583 0.831605
O O5 0.190491 0.505165 0.679994
O O6 0.265786 0.587407 0.452551
O O7 0.336130 0.478114 0.540393
O O8 0.500000 0.255834 0.250000
O O9 0.334685 0.298683 0.076308
O O10 0.402065 0.601905 0.802995
O O11 0.000000 0.090355 0.250000
O O12 0.000000 0.000000 0.500000
#
# Coordination Sequence:
#
# PCOD9278868 Si02
#       5
#     8   8   8   8   8
#     4  10  22  42  55  86 115 151 204 263 290 359
#     4  10  21  32  48  74 113 149 188 213 261 337
#     4  11  24  39  62  84 112 152 215 257 295 349
#     4  10  22  34  58  77 119 165 189 227 308 340
#     4  11  20  33  49  82 127 157 193 230 260 361
#
# _framework density 22.926791000000001
#
# number of rings (size 3 to 8) (size 9 to 14) (size 15 to 20)
#    0.000    1.600    4.000    3.000    2.800   12.800 
#    0.000    0.000    0.000    0.000    0.000    0.000 
#    0.000   64.000    0.000    0.000    0.000    0.000 
#
# Total GULP energy -111525.343330 kJ/mol
# GULP energy per Si atom -5576.267166 kJ/mol
# Density = 2.287461 g / cm^3
# Si number density = 22.926791 Si / 1000 Ang^3
#
#
#
# Elastic Constant Matrix: (Units=GPa)
#
#
# Indices 1 2 3 4 5 6 
#
# 1 29.3598 27.1297 19.7323 0.0000 -3.4500 0.0000
# 2 27.1297 93.3944 26.7915 0.0000 -1.4987 0.0000
# 3 19.7323 26.7915 150.0497 0.0000 1.0478 0.0000
# 4 0.0000 0.0000 0.0000 32.8092 0.0000 -1.6401
# 5 -3.4500 -1.4987 1.0478 0.0000 28.8990 0.0000
# 6 0.0000 0.0000 0.0000 -1.6401 0.0000 24.5137
#
#
#
# Elastic Compliance Matrix: (Units=1/GPa)
#
#
# Indices 1 2 3 4 5 6 
#
# 1 0.049666 -0.013129 -0.004225 0.000000 0.005401 0.000000
# 2 -0.013129 0.014768 -0.000905 0.000000 -0.000769 0.000000
# 3 -0.004225 -0.000905 0.007387 0.000000 -0.000819 0.000000
# 4 0.000000 0.000000 0.000000 0.030582 0.000000 0.002046
# 5 0.005401 -0.000769 -0.000819 0.000000 0.035238 0.000000
# 6 0.000000 0.000000 0.000000 0.002046 0.000000 0.040930
#
#
# Mechanical properties :
#
#
# Convention : Reuss Voigt Hill
#
# Bulk Modulus (GPa) = 28.32513 46.67900 37.50206
# Shear Modulus (GPa) = 22.04041 30.52109 26.28075
#
# Velocity S-wave (km/s) = 3.10391 3.65258 3.38936
# Velocity P-wave (km/s) = 5.02266 6.18002 5.63115
#
# Compressibility (1/GPa) = 0.03530434
#
# Stress axis : x y z
#
# Youngs Moduli (GPa) = 20.13463 67.71299 135.36615
#
# Poissons Ratio (x) = 0.88897 0.57191
# Poissons Ratio (y) = 0.26434 0.12251
# Poissons Ratio (z) = 0.08507 0.06128
#
# Static dielectric constant tensor:
#      x y z
#    x 1.912690 0.000000 -0.071500 
#    y 0.000000 1.875360 0.000000 
#    z -0.071500 0.000000 2.182970 
# 
# From -- ./inp_files/7388.got.cif
#   From: 2010.05.17/outbox.cif.g08.bks.cpg/sg15_4_cif.got.tgz:7388.got - 2010.06.03 18:47:42.
