data_PCOD9278741
_publ_section_title
;
Structure prediction by ZEFSAII (Michael W. Deem and Ramdas Pophale) SiO2 
 PCOD9278741
Probable space group: C 2/C
;
_chemical_formula_sum "Si O2"
_cell_formula_units_Z 56
_cell_length_a 10.817241
_cell_length_b 20.259497
_cell_length_c 12.004825
_cell_angle_alpha 90.000000
_cell_angle_beta 100.835020
_cell_angle_gamma 90.000000
_cell_volume 2583.977836
_symmetry_space_group_name_H-M "C 2/C"
_symmetry_group_IT_number 15
_symmetry_cell_setting 'monoclinic'
loop_
_space_group_symop_operation_xyz
x,y,z
-x,y,1/2-z
-x,-y,-z
x,-y,1/2+z
1/2+x,1/2+y,z
1/2-x,1/2+y,1/2-z
1/2-x,1/2-y,-z
1/2+x,1/2-y,1/2+z
loop_
_atom_site_type_symbol
_atom_site_label
_atom_site_fract_x
_atom_site_fract_y
_atom_site_fract_z
Si Si1 0.703236 0.592694 0.325605
Si Si2 0.115415 0.488823 0.097054
Si Si3 0.000000 0.017555 0.750000
Si Si4 0.343820 0.408124 0.075307
Si Si5 0.642419 0.695343 0.497996
Si Si6 0.245862 0.818282 0.244768
Si Si7 0.863024 0.194593 0.377327
Si Si8 0.000000 0.615590 0.750000
O O1 0.839390 0.558547 0.343827
O O2 0.616791 0.532022 0.271012
O O3 0.678748 0.626443 0.442118
O O4 0.666067 0.650431 0.235276
O O5 0.233647 0.462106 0.044039
O O6 0.062243 0.433538 0.171147
O O7 0.000000 0.500000 0.000000
O O8 0.023848 0.057710 0.869035
O O9 0.307386 0.374793 0.185806
O O10 0.339334 0.354370 0.977656
O O11 0.750000 0.750000 0.500000
O O12 0.642179 0.692484 0.631864
O O13 0.508286 0.714503 0.421922
O O14 0.280305 0.758910 0.335652
O O15 0.377390 0.838798 0.205956
#
# Coordination Sequence:
#
# PCOD9278741 Si02
#       8
#     8   8   4   8   8   8   8   4
#     4  11  23  42  67 105 133 173 231 288 350 416
#     4  10  23  42  65  95 135 177 231 280 347 421
#     4  10  20  45  66  97 134 172 230 282 342 424
#     4  10  24  42  64  97 136 181 222 282 354 415
#     4  12  23  40  68  98 133 177 229 289 344 413
#     4  11  23  43  66  95 133 179 231 280 345 416
#     4  12  24  42  68 100 140 176 232 287 347 425
#     4  10  22  41  68  91 130 178 226 286 336 408
#
# _framework density 21.672011000000001
#
# number of rings (size 3 to 8) (size 9 to 14) (size 15 to 20)
#    0.000    1.143    2.857    3.000    2.000    1.714 
#    7.714    0.000    0.000    0.000    0.000    0.000 
#    0.000    0.000    0.000    0.000    0.000    0.000 
#
# Total GULP energy -156006.706015 kJ/mol
# GULP energy per Si atom -5571.668072 kJ/mol
# Density = 2.162268 g / cm^3
# Si number density = 21.672011 Si / 1000 Ang^3
#
#
#
# Elastic Constant Matrix: (Units=GPa)
#
#
# Indices 1 2 3 4 5 6 
#
# 1 52.9068 14.3953 23.7623 0.0000 27.3585 0.0000
# 2 14.3953 65.5484 23.7035 0.0000 20.5351 0.0000
# 3 23.7623 23.7035 89.7307 0.0000 30.8695 0.0000
# 4 0.0000 0.0000 0.0000 -360.2670 0.0000 -400.1308
# 5 27.3585 20.5351 30.8695 0.0000 41.9290 0.0000
# 6 0.0000 0.0000 0.0000 -400.1308 0.0000 -358.1038
#
#
#
# Elastic Compliance Matrix: (Units=1/GPa)
#
#
# Indices 1 2 3 4 5 6 
#
# 1 0.028691 -0.000281 -0.001514 0.000000 -0.017468 0.000000
# 2 -0.000281 0.018388 -0.002341 0.000000 -0.007099 0.000000
# 3 -0.001514 -0.002341 0.015306 0.000000 -0.009135 0.000000
# 4 0.000000 0.000000 0.000000 0.011518 0.000000 -0.012869
# 5 -0.017468 -0.007099 -0.009135 0.000000 0.045450 0.000000
# 6 0.000000 0.000000 0.000000 -0.012869 0.000000 0.011587
#
#
# Mechanical properties :
#
#
# Convention : Reuss Voigt Hill
#
# Bulk Modulus (GPa) = 18.47973 36.87867 27.67920
# Shear Modulus (GPa) = 31.79672 -125.53338 -46.86833
#
# Velocity S-wave (km/s) = 3.83453 -7.61905 -4.65544
# Velocity P-wave (km/s) = 5.30569 7.76829 4.01222
#
# Compressibility (1/GPa) = 0.05411333
#
# Stress axis : x y z
#
# Youngs Moduli (GPa) = 34.85471 54.38299 65.33258
#
# Poissons Ratio (x) = 0.01527 0.09892
# Poissons Ratio (y) = 0.00979 0.15293
# Poissons Ratio (z) = 0.05278 0.12730
#
# Static dielectric constant tensor:
#      x y z
#    x 1.852810 0.000000 0.018830 
#    y 0.000000 1.906140 0.000000 
#    z 0.018830 0.000000 1.815930 
# 
# From -- ./inp_files/89680.got.cif
#   From: 2010.05.17/outbox.cif.g08.bks.cpg/sg15_45_cif.got.tgz:89680.got - 2010.06.03 18:47:42.
