data_PCOD9278375
_publ_section_title
;
Structure prediction by ZEFSAII (Michael W. Deem and Ramdas Pophale) SiO2 
 PCOD9278375
Probable space group: C 2/C
;
_chemical_formula_sum "Si O2"
_cell_formula_units_Z 48
_cell_length_a 20.642374
_cell_length_b 23.119359
_cell_length_c 13.774809
_cell_angle_alpha 90.000000
_cell_angle_beta 19.375347
_cell_angle_gamma 90.000000
_cell_volume 2180.915443
_symmetry_space_group_name_H-M "C 2/C"
_symmetry_group_IT_number 15
_symmetry_cell_setting 'monoclinic'
loop_
_space_group_symop_operation_xyz
x,y,z
-x,y,1/2-z
-x,-y,-z
x,-y,1/2+z
1/2+x,1/2+y,z
1/2-x,1/2+y,1/2-z
1/2-x,1/2-y,-z
1/2+x,1/2-y,1/2+z
loop_
_atom_site_type_symbol
_atom_site_label
_atom_site_fract_x
_atom_site_fract_y
_atom_site_fract_z
Si Si1 0.117634 0.417039 0.721117
Si Si2 0.674226 0.809205 0.351465
Si Si3 0.000000 0.880686 0.250000
Si Si4 0.500000 0.362799 0.750000
Si Si5 0.276677 0.025718 0.631104
Si Si6 0.482380 0.687751 0.576716
Si Si7 0.371174 0.417857 0.753187
O O1 0.301523 0.417943 0.532851
O O2 0.198146 0.431396 0.498243
O O3 0.996294 0.357368 0.903233
O O4 0.947535 0.464440 0.966053
O O5 0.586788 0.749040 0.439331
O O6 0.777411 0.804081 0.310717
O O7 0.853413 0.827698 0.027256
O O8 0.966139 0.840481 0.205184
O O9 0.355710 0.400126 0.886285
O O10 0.274777 0.961808 0.590791
O O11 0.073966 0.046077 0.962454
O O12 0.605004 0.640817 0.341502
#
# Coordination Sequence:
#
# PCOD9278375 Si02
#       7
#     8   8   4   4   8   8   8
#     4  11  21  42  66 105 132 179 228 287 353 409
#     4  11  24  43  72 100 143 182 236 290 350 422
#     4  12  24  39  70 100 144 173 236 294 356 412
#     4  10  22  45  68 102 134 195 230 280 350 426
#     4  10  20  42  72  95 141 176 223 293 350 411
#     4  11  23  44  64 104 139 187 232 289 351 421
#     4  10  21  43  69  98 140 189 222 289 343 419
#
# _framework density 22.009107
#
# number of rings (size 3 to 8) (size 9 to 14) (size 15 to 20)
#    0.000    1.333    5.000    2.000    0.000    7.333 
#    0.000   10.000    0.000    0.000    0.000    0.000 
#    0.000    0.000    0.000    0.000    0.000    0.000 
#
# Total GULP energy -134017.355223 kJ/mol
# GULP energy per Si atom -5584.056468 kJ/mol
# Density = 2.195901 g / cm^3
# Si number density = 22.009107 Si / 1000 Ang^3
#
#
#
# Elastic Constant Matrix: (Units=GPa)
#
#
# Indices 1 2 3 4 5 6 
#
# 1 106.8243 38.5589 30.4960 -0.1252 -26.5065 -0.0314
# 2 38.5589 132.5837 24.8704 0.2015 -32.2024 0.0118
# 3 30.4960 24.8704 91.7243 0.3474 -39.4185 0.0229
# 4 -0.1252 0.2015 0.3474 -33.7185 -0.0918 -17.3510
# 5 -26.5065 -32.2024 -39.4185 -0.0918 48.6873 -0.0205
# 6 -0.0314 0.0118 0.0229 -17.3510 -0.0205 22.2427
#
#
#
# Elastic Compliance Matrix: (Units=1/GPa)
#
#
# Indices 1 2 3 4 5 6 
#
# 1 0.011496 -0.002191 -0.001780 -0.000068 0.003368 -0.000030
# 2 -0.002191 0.009406 0.000520 0.000040 0.005449 0.000028
# 3 -0.001780 0.000520 0.016998 0.000109 0.013137 0.000077
# 4 -0.000068 0.000040 0.000109 -0.021161 0.000032 -0.016508
# 5 0.003368 0.005449 0.013137 0.000032 0.036613 0.000047
# 6 -0.000030 0.000028 0.000077 -0.016508 0.000047 0.032081
#
#
# Mechanical properties :
#
#
# Convention : Reuss Voigt Hill
#
# Bulk Modulus (GPa) = 32.26205 57.66476 44.96341
# Shear Modulus (GPa) = 48.70027 23.25611 35.97819
#
# Velocity S-wave (km/s) = 4.70907 3.25415 4.04752
# Velocity P-wave (km/s) = 6.65263 6.35426 6.50516
#
# Compressibility (1/GPa) = 0.03099617
#
# Stress axis : x y z
#
# Youngs Moduli (GPa) = 86.98724 106.31999 58.82874
#
# Poissons Ratio (x) = 0.23298 0.10474
# Poissons Ratio (y) = 0.19061 -0.03058
# Poissons Ratio (z) = 0.15487 -0.05527
#
# Static dielectric constant tensor:
#      x y z
#    x 1.814340 -0.000010 -0.008340 
#    y -0.000010 1.824230 0.000100 
#    z -0.008340 0.000100 1.890090 
# 
# From -- ./inp_files/169682.got.cif
#   From: 2010.05.17/outbox.cif.g08.bks.cpg/sg15_85_cif.got.tgz:169682.got - 2010.06.03 18:47:42.
