data_PCOD9278621
_publ_section_title
;
Structure prediction by ZEFSAII (Michael W. Deem and Ramdas Pophale) SiO2 
 PCOD9278621
Probable space group: C 2/C
;
_chemical_formula_sum "Si O2"
_cell_formula_units_Z 44
_cell_length_a 21.799379
_cell_length_b 12.009244
_cell_length_c 10.526414
_cell_angle_alpha 90.000000
_cell_angle_beta 40.425565
_cell_angle_gamma 90.000000
_cell_volume 1786.994359
_symmetry_space_group_name_H-M "C 2/C"
_symmetry_group_IT_number 15
_symmetry_cell_setting 'monoclinic'
loop_
_space_group_symop_operation_xyz
x,y,z
-x,y,1/2-z
-x,-y,-z
x,-y,1/2+z
1/2+x,1/2+y,z
1/2-x,1/2+y,1/2-z
1/2-x,1/2-y,-z
1/2+x,1/2-y,1/2+z
loop_
_atom_site_type_symbol
_atom_site_label
_atom_site_fract_x
_atom_site_fract_y
_atom_site_fract_z
Si Si1 0.384593 0.320631 0.741017
Si Si2 0.209972 0.382828 0.167788
Si Si3 0.078337 0.779729 0.346629
Si Si4 0.168398 0.964877 0.334535
Si Si5 0.000000 0.938769 0.250000
Si Si6 0.436501 0.033171 0.221959
O O1 0.354393 0.221236 0.692691
O O2 0.493944 0.290086 0.585117
O O3 0.360201 0.439230 0.718428
O O4 0.308828 0.322381 0.973751
O O5 0.234776 0.468468 0.239978
O O6 0.153329 0.449086 0.147131
O O7 0.165000 0.845877 0.271073
O O8 0.038038 0.859907 0.300514
O O9 0.094409 0.659376 0.262306
O O10 0.084947 0.985529 0.567640
O O11 0.500000 0.026647 0.250000
O O12 0.500000 0.000000 0.000000
#
# Coordination Sequence:
#
# PCOD9278621 Si02
#       6
#     8   8   8   8   4   8
#     4  10  23  43  62 100 139 182 237 295 356 439
#     4  11  25  42  68 101 144 185 244 298 364 437
#     4  11  22  44  72 101 143 189 246 301 371 435
#     4  11  23  39  72 100 138 180 238 296 373 424
#     4  10  20  44  66 104 138 184 234 306 358 452
#     4  12  28  50  74 106 150 200 250 304 374 450
#
# _framework density 24.622349
#
# number of rings (size 3 to 8) (size 9 to 14) (size 15 to 20)
#    0.000    1.091    2.727    4.364    5.091    1.455 
#    1.636    1.818    0.000    0.000    0.000    0.000 
#    0.000    0.000    0.000    0.000    0.000    0.000 
#
# Total GULP energy -122823.740311 kJ/mol
# GULP energy per Si atom -5582.897287 kJ/mol
# Density = 2.456631 g / cm^3
# Si number density = 24.622349 Si / 1000 Ang^3
#
#
#
# Elastic Constant Matrix: (Units=GPa)
#
#
# Indices 1 2 3 4 5 6 
#
# 1 104.4952 39.4898 -3.4548 0.0000 6.3443 0.0000
# 2 39.4898 124.1080 -8.0402 0.0000 -3.5953 0.0000
# 3 -3.4548 -8.0402 38.7788 0.0000 2.5260 0.0000
# 4 0.0000 0.0000 0.0000 20.6701 0.0000 -1.0125
# 5 6.3443 -3.5953 2.5260 0.0000 25.4502 0.0000
# 6 0.0000 0.0000 0.0000 -1.0125 0.0000 20.2022
#
#
#
# Elastic Compliance Matrix: (Units=1/GPa)
#
#
# Indices 1 2 3 4 5 6 
#
# 1 0.011154 -0.003616 0.000461 0.000000 -0.003337 0.000000
# 2 -0.003616 0.009364 0.001484 0.000000 0.002077 0.000000
# 3 0.000461 0.001484 0.026300 0.000000 -0.002516 0.000000
# 4 0.000000 0.000000 0.000000 0.048498 0.000000 0.002431
# 5 -0.003337 0.002077 -0.002516 0.000000 0.040667 0.000000
# 6 0.000000 0.000000 0.000000 0.002431 0.000000 0.049621
#
#
# Mechanical properties :
#
#
# Convention : Reuss Voigt Hill
#
# Bulk Modulus (GPa) = 23.00029 35.93018 29.46523
# Shear Modulus (GPa) = 24.57743 29.22366 26.90055
#
# Velocity S-wave (km/s) = 3.16282 3.44884 3.30892
# Velocity P-wave (km/s) = 4.76439 5.52119 5.15669
#
# Compressibility (1/GPa) = 0.04347771
#
# Stress axis : x y z
#
# Youngs Moduli (GPa) = 89.65250 106.78784 38.02287
#
# Poissons Ratio (x) = 0.38614 -0.01754
# Poissons Ratio (y) = 0.32418 -0.05643
# Poissons Ratio (z) = -0.04137 -0.15849
#
# Static dielectric constant tensor:
#      x y z
#    x 1.990770 0.000000 0.022270 
#    y 0.000000 1.953980 0.000000 
#    z 0.022270 0.000000 2.081570 
# 
# From -- ./inp_files/117906.got.cif
#   From: 2010.05.17/outbox.cif.g08.bks.cpg/sg15_59_cif.got.tgz:117906.got - 2010.06.03 18:47:42.
