data_PCOD9278944
_publ_section_title
;
Structure prediction by ZEFSAII (Michael W. Deem and Ramdas Pophale) SiO2 
 PCOD9278944
Probable space group: C 2/C
;
_chemical_formula_sum "Si O2"
_cell_formula_units_Z 56
_cell_length_a 17.664011
_cell_length_b 20.125859
_cell_length_c 17.683670
_cell_angle_alpha 90.000000
_cell_angle_beta 31.021403
_cell_angle_gamma 90.000000
_cell_volume 3239.853519
_symmetry_space_group_name_H-M "C 2/C"
_symmetry_group_IT_number 15
_symmetry_cell_setting 'monoclinic'
loop_
_space_group_symop_operation_xyz
x,y,z
-x,y,1/2-z
-x,-y,-z
x,-y,1/2+z
1/2+x,1/2+y,z
1/2-x,1/2+y,1/2-z
1/2-x,1/2-y,-z
1/2+x,1/2-y,1/2+z
loop_
_atom_site_type_symbol
_atom_site_label
_atom_site_fract_x
_atom_site_fract_y
_atom_site_fract_z
Si Si1 0.379657 0.489921 0.918614
Si Si2 0.544975 0.878569 0.349359
Si Si3 0.936000 0.567633 0.091062
Si Si4 0.568593 0.981718 0.615796
Si Si5 0.103950 0.060031 0.440686
Si Si6 0.088228 0.752946 0.605537
Si Si7 0.114967 0.866875 0.467805
O O1 0.500000 0.492719 0.750000
O O2 0.390489 0.422932 0.960422
O O3 0.230386 0.496078 0.999134
O O4 0.384965 0.547473 0.978873
O O5 0.462896 0.880509 0.500786
O O6 0.480086 0.818710 0.355412
O O7 0.515291 0.949835 0.335072
O O8 0.720405 0.871161 0.206383
O O9 0.767086 0.560220 0.263507
O O10 0.040381 0.571789 0.074653
O O11 0.000000 0.500000 0.000000
O O12 0.500000 0.953520 0.750000
O O13 0.009547 0.120763 0.488492
O O14 0.000000 0.000000 0.500000
O O15 0.250000 0.750000 0.500000
O O16 0.088404 0.797465 0.531312
O O17 0.000000 0.785359 0.750000
#
# Coordination Sequence:
#
# PCOD9278944 Si02
#       7
#     8   8   8   8   8   8   8
#     4  11  22  32  53  82 109 142 176 221 272 313
#     4  11  23  37  54  77 109 149 181 219 269 322
#     4  10  21  33  54  76 105 145 178 218 272 323
#     4  11  18  35  54  76 111 140 176 222 265 318
#     4  10  21  35  50  77 109 141 180 218 268 325
#     4  12  24  39  57  80 110 146 188 223 262 315
#     4  11  23  38  52  76 114 145 181 223 264 323
#
# _framework density 17.284732000000002
#
# number of rings (size 3 to 8) (size 9 to 14) (size 15 to 20)
#    0.000    1.143    4.286    4.286   12.000    0.000 
#    0.000    0.000    0.000    0.000    0.000    2.000 
#    0.000    0.000    0.000    0.000    0.000    0.000 
#
# Total GULP energy -156004.051964 kJ/mol
# GULP energy per Si atom -5571.573284 kJ/mol
# Density = 1.724539 g / cm^3
# Si number density = 17.284732 Si / 1000 Ang^3
#
#
#
# Elastic Constant Matrix: (Units=GPa)
#
#
# Indices 1 2 3 4 5 6 
#
# 1 85.7697 18.6312 35.5530 -0.0005 2.6196 0.0010
# 2 18.6312 37.6614 6.7640 -0.0001 0.7595 0.0012
# 3 35.5530 6.7640 135.9233 0.0015 1.5621 0.0016
# 4 -0.0005 -0.0001 0.0015 16.5254 0.0005 6.1100
# 5 2.6196 0.7595 1.5621 0.0005 37.3571 -0.0013
# 6 0.0010 0.0012 0.0016 6.1100 -0.0013 20.6956
#
#
#
# Elastic Compliance Matrix: (Units=1/GPa)
#
#
# Indices 1 2 3 4 5 6 
#
# 1 0.014544 -0.006557 -0.003469 0.000001 -0.000741 0.000000
# 2 -0.006557 0.029757 0.000236 0.000001 -0.000155 -0.000002
# 3 -0.003469 0.000236 0.008254 -0.000001 -0.000107 0.000000
# 4 0.000001 0.000001 -0.000001 0.067928 -0.000002 -0.020054
# 5 -0.000741 -0.000155 -0.000107 -0.000002 0.026828 0.000002
# 6 0.000000 -0.000002 0.000000 -0.020054 0.000002 0.054240
#
#
# Mechanical properties :
#
#
# Convention : Reuss Voigt Hill
#
# Bulk Modulus (GPa) = 30.32655 42.36119 36.34387
# Shear Modulus (GPa) = 21.54024 28.14269 24.84147
#
# Velocity S-wave (km/s) = 3.53399 4.03945 3.79514
# Velocity P-wave (km/s) = 5.85111 6.80568 6.34637
#
# Compressibility (1/GPa) = 0.03297441
#
# Stress axis : x y z
#
# Youngs Moduli (GPa) = 68.75558 33.60562 121.15241
#
# Poissons Ratio (x) = 0.22035 0.42033
# Poissons Ratio (y) = 0.45083 -0.02860
# Poissons Ratio (z) = 0.23855 -0.00793
#
# Static dielectric constant tensor:
#      x y z
#    x 1.680230 0.000010 -0.074680 
#    y 0.000010 1.645500 -0.000010 
#    z -0.074680 -0.000010 1.645180 
# 
# From -- ./inp_files/211866.got.cif
#   From: 2010.05.17/outbox.cif.g08.bks.cpg/sg15_106_cif.got.tgz:211866.got - 2010.06.03 18:47:42.
