data_PCOD9278160
_publ_section_title
;
Structure prediction by ZEFSAII (Michael W. Deem and Ramdas Pophale) SiO2 
 PCOD9278160
Probable space group: C 2/C
;
_chemical_formula_sum "Si O2"
_cell_formula_units_Z 36
_cell_length_a 4.847088
_cell_length_b 25.142455
_cell_length_c 12.141579
_cell_angle_alpha 90.000000
_cell_angle_beta 77.621503
_cell_angle_gamma 90.000000
_cell_volume 1445.268112
_symmetry_space_group_name_H-M "C 2/C"
_symmetry_group_IT_number 15
_symmetry_cell_setting 'monoclinic'
loop_
_space_group_symop_operation_xyz
x,y,z
-x,y,1/2-z
-x,-y,-z
x,-y,1/2+z
1/2+x,1/2+y,z
1/2-x,1/2+y,1/2-z
1/2-x,1/2-y,-z
1/2+x,1/2-y,1/2+z
loop_
_atom_site_type_symbol
_atom_site_label
_atom_site_fract_x
_atom_site_fract_y
_atom_site_fract_z
Si Si1 0.948741 0.389630 0.641787
Si Si2 0.799294 0.811174 0.022205
Si Si3 0.239541 0.457103 0.451026
Si Si4 0.747738 0.151618 0.854911
Si Si5 0.000000 0.977927 0.750000
O O1 0.785154 0.352308 0.568790
O O2 0.755653 0.438380 0.701336
O O3 0.000000 0.357728 0.750000
O O4 0.217756 0.418900 0.560827
O O5 0.750000 0.750000 0.000000
O O6 0.553389 0.822328 0.131340
O O7 0.104595 0.824104 0.046543
O O8 0.174750 0.411226 0.367937
O O9 0.497404 0.486642 0.364682
O O10 0.000000 0.500000 0.500000
O O11 0.000000 0.158852 0.750000
#
# Coordination Sequence:
#
# PCOD9278160 Si02
#       5
#     8   8   8   8   4
#     4  10  24  42  65 104 143 186 239 295 357 445
#     4  11  26  48  74 104 146 189 250 314 372 431
#     4   9  20  42  65 104 138 190 235 291 358 434
#     4  11  23  47  74 108 141 187 247 306 363 451
#     4  10  20  42  66  98 140 194 230 296 358 436
#
# _framework density 24.908874000000001
#
# number of rings (size 3 to 8) (size 9 to 14) (size 15 to 20)
#    0.000    1.778    1.111    1.333    6.222    1.778 
#   20.000    0.000    0.000    0.000    0.000    0.000 
#    0.000    0.000    0.000    0.000    0.000    0.000 
#
# Total GULP energy -100206.303457 kJ/mol
# GULP energy per Si atom -5567.016859 kJ/mol
# Density = 2.485218 g / cm^3
# Si number density = 24.908874 Si / 1000 Ang^3
#
#
#
# Elastic Constant Matrix: (Units=GPa)
#
#
# Indices 1 2 3 4 5 6 
#
# 1 96.0526 30.5912 17.7852 0.0000 -7.0824 0.0000
# 2 30.5912 132.7952 15.1589 0.0000 -12.5241 0.0000
# 3 17.7852 15.1589 152.0773 0.0000 -13.3276 0.0000
# 4 0.0000 0.0000 0.0000 -26.1269 0.0000 1.3339
# 5 -7.0824 -12.5241 -13.3276 0.0000 46.1203 0.0000
# 6 0.0000 0.0000 0.0000 1.3339 0.0000 34.8250
#
#
#
# Elastic Compliance Matrix: (Units=1/GPa)
#
#
# Indices 1 2 3 4 5 6 
#
# 1 0.011437 -0.002443 -0.001024 0.000000 0.000797 0.000000
# 2 -0.002443 0.008304 -0.000387 0.000000 0.001768 0.000000
# 3 -0.001024 -0.000387 0.006885 0.000000 0.001727 0.000000
# 4 0.000000 0.000000 0.000000 -0.038200 0.000000 0.001463
# 5 0.000797 0.001768 0.001727 0.000000 0.022784 0.000000
# 6 0.000000 0.000000 0.000000 0.001463 0.000000 0.028659
#
#
# Mechanical properties :
#
#
# Convention : Reuss Voigt Hill
#
# Bulk Modulus (GPa) = 52.85787 56.44395 54.65091
# Shear Modulus (GPa) = 92.79212 32.12302 62.45757
#
# Velocity S-wave (km/s) = 6.11012 3.59503 5.01287
# Velocity P-wave (km/s) = 8.42879 6.31994 7.44937
#
# Compressibility (1/GPa) = 0.01891866
#
# Stress axis : x y z
#
# Youngs Moduli (GPa) = 87.43302 120.42357 145.23589
#
# Poissons Ratio (x) = 0.29415 0.14876
# Poissons Ratio (y) = 0.21357 0.05623
# Poissons Ratio (z) = 0.08955 0.04662
#
# Static dielectric constant tensor:
#      x y z
#    x 1.998340 0.000000 0.092320 
#    y 0.000000 1.981240 0.000000 
#    z 0.092320 0.000000 2.022540 
# 
# From -- ./inp_files/73011.got.cif
#   From: 2010.05.17/outbox.cif.g08.bks.cpg/sg15_37_cif.got.tgz:73011.got - 2010.06.03 18:47:42.
