data_PCOD9278402
_publ_section_title
;
Structure prediction by ZEFSAII (Michael W. Deem and Ramdas Pophale) SiO2 
 PCOD9278402
Probable space group: C 2/C
;
_chemical_formula_sum "Si O2"
_cell_formula_units_Z 36
_cell_length_a 26.786665
_cell_length_b 6.983811
_cell_length_c 9.823653
_cell_angle_alpha 90.000000
_cell_angle_beta 132.806074
_cell_angle_gamma 90.000000
_cell_volume 1348.272559
_symmetry_space_group_name_H-M "C 2/C"
_symmetry_group_IT_number 15
_symmetry_cell_setting 'monoclinic'
loop_
_space_group_symop_operation_xyz
x,y,z
-x,y,1/2-z
-x,-y,-z
x,-y,1/2+z
1/2+x,1/2+y,z
1/2-x,1/2+y,1/2-z
1/2-x,1/2-y,-z
1/2+x,1/2-y,1/2+z
loop_
_atom_site_type_symbol
_atom_site_label
_atom_site_fract_x
_atom_site_fract_y
_atom_site_fract_z
Si Si1 0.538907 0.400646 0.191364
Si Si2 0.642970 0.979653 0.128336
Si Si3 0.733922 0.664652 0.771510
Si Si4 0.667798 0.625728 0.356745
Si Si5 0.500000 0.026582 0.250000
O O1 0.500000 0.478709 0.250000
O O2 0.613272 0.480375 0.316955
O O3 0.528709 0.173793 0.187585
O O4 0.500000 0.500000 0.000000
O O5 0.684979 0.867195 0.086776
O O6 0.635689 0.819125 0.232498
O O7 0.695696 0.149921 0.261371
O O8 0.569863 0.059252 0.941154
O O9 0.703331 0.490036 0.800621
O O10 0.712760 0.669208 0.572437
#
# Coordination Sequence:
#
# PCOD9278402 Si02
#       5
#     8   8   8   8   4
#     4  10  20  42  77 106 148 213 257 313 397 468
#     4  12  26  50  78 121 159 210 268 329 404 478
#     4  12  29  49  86 115 159 213 271 339 395 485
#     4  12  25  53  80 118 158 211 273 329 403 477
#     4  10  24  48  74 114 164 204 268 328 394 478
#
# _framework density 26.700831999999998
#
# number of rings (size 3 to 8) (size 9 to 14) (size 15 to 20)
#    0.667    0.000    4.444    3.333    0.000    4.444 
#    6.000    2.222    0.000    0.000    0.000    0.000 
#    0.000    0.000    0.000    0.000    0.000    0.000 
#
# Total GULP energy -100709.617402 kJ/mol
# GULP energy per Si atom -5594.978745 kJ/mol
# Density = 2.664006 g / cm^3
# Si number density = 26.700832 Si / 1000 Ang^3
#
#
#
# Elastic Constant Matrix: (Units=GPa)
#
#
# Indices 1 2 3 4 5 6 
#
# 1 126.9529 36.0235 39.5023 0.0000 6.7539 0.0000
# 2 36.0235 103.1330 12.1653 0.0000 2.6591 0.0000
# 3 39.5023 12.1653 86.2869 0.0000 0.6576 0.0000
# 4 0.0000 0.0000 0.0000 33.9558 0.0000 -3.3816
# 5 6.7539 2.6591 0.6576 0.0000 69.5605 0.0000
# 6 0.0000 0.0000 0.0000 -3.3816 0.0000 46.7021
#
#
#
# Elastic Compliance Matrix: (Units=1/GPa)
#
#
# Indices 1 2 3 4 5 6 
#
# 1 0.010075 -0.003004 -0.004182 0.000000 -0.000824 0.000000
# 2 -0.003004 0.010765 -0.000141 0.000000 -0.000118 0.000000
# 3 -0.004182 -0.000141 0.013522 0.000000 0.000284 0.000000
# 4 0.000000 0.000000 0.000000 0.029664 0.000000 0.002148
# 5 -0.000824 -0.000118 0.000284 0.000000 0.014458 0.000000
# 6 0.000000 0.000000 0.000000 0.002148 0.000000 0.021568
#
#
# Mechanical properties :
#
#
# Convention : Reuss Voigt Hill
#
# Bulk Modulus (GPa) = 50.74768 54.63946 52.69357
# Shear Modulus (GPa) = 41.22824 45.28914 43.25869
#
# Velocity S-wave (km/s) = 3.93374 4.12293 4.02944
# Velocity P-wave (km/s) = 6.29918 6.57059 6.43632
#
# Compressibility (1/GPa) = 0.01970534
#
# Stress axis : x y z
#
# Youngs Moduli (GPa) = 99.25918 92.89041 73.95524
#
# Poissons Ratio (x) = 0.27908 0.30930
# Poissons Ratio (y) = 0.29822 0.01046
# Poissons Ratio (z) = 0.41513 0.01314
#
# Static dielectric constant tensor:
#      x y z
#    x 2.104830 0.000000 0.069580 
#    y 0.000000 2.211700 0.000000 
#    z 0.069580 0.000000 2.155150 
# 
# From -- ./inp_files/116021.got.cif
#   From: 2010.05.17/outbox.cif.g08.bks.cpg/sg15_59_cif.got.tgz:116021.got - 2010.06.03 18:47:42.
