data_PCOD9278170
_publ_section_title
;
Structure prediction by ZEFSAII (Michael W. Deem and Ramdas Pophale) SiO2 
 PCOD9278170
Probable space group: C 2/C
;
_chemical_formula_sum "Si O2"
_cell_formula_units_Z 48
_cell_length_a 9.069429
_cell_length_b 19.556141
_cell_length_c 21.932932
_cell_angle_alpha 90.000000
_cell_angle_beta 41.036176
_cell_angle_gamma 90.000000
_cell_volume 2553.982722
_symmetry_space_group_name_H-M "C 2/C"
_symmetry_group_IT_number 15
_symmetry_cell_setting 'monoclinic'
loop_
_space_group_symop_operation_xyz
x,y,z
-x,y,1/2-z
-x,-y,-z
x,-y,1/2+z
1/2+x,1/2+y,z
1/2-x,1/2+y,1/2-z
1/2-x,1/2-y,-z
1/2+x,1/2-y,1/2+z
loop_
_atom_site_type_symbol
_atom_site_label
_atom_site_fract_x
_atom_site_fract_y
_atom_site_fract_z
Si Si1 0.250928 0.216593 0.689396
Si Si2 0.880353 0.955729 0.985212
Si Si3 0.417167 0.706244 0.491152
Si Si4 0.505539 0.448231 0.345304
Si Si5 0.737827 0.313836 0.325978
Si Si6 0.872399 0.567287 0.630685
O O1 0.344243 0.268993 0.610603
O O2 0.241213 0.234118 0.764342
O O3 0.397662 0.147763 0.637903
O O4 0.000000 0.195502 0.750000
O O5 0.612330 0.967471 0.062810
O O6 0.908058 0.875157 0.985713
O O7 0.000000 0.000000 0.000000
O O8 0.991395 0.984644 0.889916
O O9 0.250000 0.750000 0.500000
O O10 0.353605 0.717942 0.582255
O O11 0.587378 0.380549 0.356480
O O12 0.260996 0.437016 0.391299
O O13 0.694277 0.458814 0.235476
O O14 0.000000 0.335256 0.250000
#
# Coordination Sequence:
#
# PCOD9278170 Si02
#       6
#     8   8   8   8   8   8
#     4  11  22  42  66  92 127 171 223 269 327 407
#     4  12  24  39  64  98 131 165 220 276 329 399
#     4  12  23  41  65  96 133 173 217 278 337 397
#     4  10  21  39  64  92 121 171 221 263 331 395
#     4  11  20  38  67  95 123 174 226 271 333 411
#     4  10  20  42  67  87 126 175 216 265 328 409
#
# _framework density 18.794176
#
# number of rings (size 3 to 8) (size 9 to 14) (size 15 to 20)
#    0.000    1.000    8.333    1.500    0.000    0.667 
#    3.000    3.333    0.000    0.000    0.000    0.000 
#    0.000    0.000    0.000    0.000    0.000    0.000 
#
# Total GULP energy -133724.803236 kJ/mol
# GULP energy per Si atom -5571.866801 kJ/mol
# Density = 1.875140 g / cm^3
# Si number density = 18.794176 Si / 1000 Ang^3
#
#
#
# Elastic Constant Matrix: (Units=GPa)
#
#
# Indices 1 2 3 4 5 6 
#
# 1 113.5434 32.3420 50.8899 0.0051 2.4445 -0.0025
# 2 32.3420 66.2707 44.5857 0.0040 4.6563 -0.0031
# 3 50.8899 44.5857 108.8008 0.0036 13.5270 -0.0046
# 4 0.0051 0.0040 0.0036 37.1403 -0.0062 3.0747
# 5 2.4445 4.6563 13.5270 -0.0062 45.5821 0.0043
# 6 -0.0025 -0.0031 -0.0046 3.0747 0.0043 24.9626
#
#
#
# Elastic Compliance Matrix: (Units=1/GPa)
#
#
# Indices 1 2 3 4 5 6 
#
# 1 0.011536 -0.002743 -0.004392 -0.000001 0.000965 0.000000
# 2 -0.002743 0.021493 -0.007549 -0.000001 0.000192 0.000001
# 3 -0.004392 -0.007549 0.014758 -0.000001 -0.003373 0.000002
# 4 -0.000001 -0.000001 -0.000001 0.027202 0.000004 -0.003351
# 5 0.000965 0.000192 -0.003373 0.000004 0.022868 -0.000005
# 6 0.000000 0.000001 0.000002 -0.003351 -0.000005 0.040473
#
#
# Mechanical properties :
#
#
# Convention : Reuss Voigt Hill
#
# Bulk Modulus (GPa) = 54.28673 60.47222 57.37948
# Shear Modulus (GPa) = 28.76244 32.25681 30.50962
#
# Velocity S-wave (km/s) = 3.91627 4.14734 4.03346
# Velocity P-wave (km/s) = 7.02831 7.42831 7.23108
#
# Compressibility (1/GPa) = 0.01842071
#
# Stress axis : x y z
#
# Youngs Moduli (GPa) = 86.68410 46.52577 67.75986
#
# Poissons Ratio (x) = 0.12762 0.29758
# Poissons Ratio (y) = 0.23778 0.51150
# Poissons Ratio (z) = 0.38069 0.35121
#
# Static dielectric constant tensor:
#      x y z
#    x 1.727300 0.000000 0.006140 
#    y 0.000000 1.640200 0.000000 
#    z 0.006140 0.000000 1.700480 
# 
# From -- ./inp_files/190628.got.cif
#   From: 2010.05.17/outbox.cif.g08.bks.cpg/sg15_96_cif.got.tgz:190628.got - 2010.06.03 18:47:42.
