data_PCOD9278652
_publ_section_title
;
Structure prediction by ZEFSAII (Michael W. Deem and Ramdas Pophale) SiO2 
 PCOD9278652
Probable space group: C 2/C
;
_chemical_formula_sum "Si O2"
_cell_formula_units_Z 48
_cell_length_a 16.874038
_cell_length_b 7.480460
_cell_length_c 23.320314
_cell_angle_alpha 90.000000
_cell_angle_beta 54.977246
_cell_angle_gamma 90.000000
_cell_volume 2410.601506
_symmetry_space_group_name_H-M "C 2/C"
_symmetry_group_IT_number 15
_symmetry_cell_setting 'monoclinic'
loop_
_space_group_symop_operation_xyz
x,y,z
-x,y,1/2-z
-x,-y,-z
x,-y,1/2+z
1/2+x,1/2+y,z
1/2-x,1/2+y,1/2-z
1/2-x,1/2-y,-z
1/2+x,1/2-y,1/2+z
loop_
_atom_site_type_symbol
_atom_site_label
_atom_site_fract_x
_atom_site_fract_y
_atom_site_fract_z
Si Si1 0.409179 0.529580 0.465576
Si Si2 0.887005 0.130053 0.652749
Si Si3 0.886734 0.852542 0.286979
Si Si4 0.743309 0.450724 0.886076
Si Si5 0.088797 0.368695 0.958035
Si Si6 0.799790 0.151289 0.398785
O O1 0.503493 0.439056 0.400752
O O2 0.336889 0.405211 0.532261
O O3 0.438489 0.684212 0.498339
O O4 0.349703 0.618600 0.438712
O O5 0.864875 0.146046 0.728463
O O6 0.885307 0.315656 0.618021
O O7 0.814317 0.999390 0.648500
O O8 0.821394 0.701345 0.343979
O O9 0.000000 0.816680 0.250000
O O10 0.859343 0.041736 0.326760
O O11 0.789728 0.639474 0.887486
O O12 0.190284 0.425506 0.943826
O O13 0.000000 0.500000 0.000000
#
# Coordination Sequence:
#
# PCOD9278652 Si02
#       6
#     8   8   8   8   8   8
#     4  10  20  44  67  92 129 164 209 276 316 370
#     4  10  23  42  63  94 129 164 214 261 323 379
#     4  12  26  43  61  95 131 174 214 254 320 386
#     4  10  24  42  67  92 127 168 214 262 322 373
#     4  10  22  39  66 100 120 163 217 261 325 375
#     4  10  23  43  64  93 131 167 211 263 321 377
#
# _framework density 19.912043000000001
#
# number of rings (size 3 to 8) (size 9 to 14) (size 15 to 20)
#    0.000    2.000    1.667    4.000    9.333    4.000 
#    3.000    0.000    0.000    0.000    0.000    0.000 
#    0.000    0.000    0.000    0.000    0.000    0.000 
#
# Total GULP energy -134068.598782 kJ/mol
# GULP energy per Si atom -5586.191616 kJ/mol
# Density = 1.986672 g / cm^3
# Si number density = 19.912043 Si / 1000 Ang^3
#
#
#
# Elastic Constant Matrix: (Units=GPa)
#
#
# Indices 1 2 3 4 5 6 
#
# 1 76.5396 11.8207 9.0018 -0.0002 -0.9571 0.0001
# 2 11.8207 46.3714 24.9529 -0.0005 -13.0786 0.0002
# 3 9.0018 24.9529 86.5738 -0.0001 5.9114 0.0001
# 4 -0.0002 -0.0005 -0.0001 33.1248 0.0000 -10.4952
# 5 -0.9571 -13.0786 5.9114 0.0000 49.2014 -0.0001
# 6 0.0001 0.0002 0.0001 -10.4952 -0.0001 14.2919
#
#
#
# Elastic Compliance Matrix: (Units=1/GPa)
#
#
# Indices 1 2 3 4 5 6 
#
# 1 0.013634 -0.003438 -0.000386 0.000000 -0.000602 0.000000
# 2 -0.003438 0.029684 -0.008805 0.000000 0.008882 0.000000
# 3 -0.000386 -0.008805 0.014407 0.000000 -0.004079 0.000000
# 4 0.000000 0.000000 0.000000 0.039343 0.000000 0.028891
# 5 -0.000602 0.008882 -0.004079 0.000000 0.023164 0.000000
# 6 0.000000 0.000000 0.000000 0.028891 0.000000 0.091186
#
#
# Mechanical properties :
#
#
# Convention : Reuss Voigt Hill
#
# Bulk Modulus (GPa) = 30.79870 33.44840 32.12355
# Shear Modulus (GPa) = 20.20226 30.23759 25.21992
#
# Velocity S-wave (km/s) = 3.18869 3.90110 3.56275
# Velocity P-wave (km/s) = 5.39055 6.09311 5.75256
#
# Compressibility (1/GPa) = 0.03246890
#
# Stress axis : x y z
#
# Youngs Moduli (GPa) = 73.34662 33.68784 69.40953
#
# Poissons Ratio (x) = 0.11581 0.02677
# Poissons Ratio (y) = 0.25215 0.61114
# Poissons Ratio (z) = 0.02828 0.29662
#
# Static dielectric constant tensor:
#      x y z
#    x 1.714600 0.000000 -0.003600 
#    y 0.000000 1.708630 0.000000 
#    z -0.003600 0.000000 1.699840 
# 
# From -- ./inp_files/247283.got.cif
#   From: 2010.05.17/outbox.cif.g08.bks.cpg/sg15_124_cif.got.tgz:247283.got - 2010.06.03 18:47:42.
