data_PCOD9278536
_publ_section_title
;
Structure prediction by ZEFSAII (Michael W. Deem and Ramdas Pophale) SiO2 
 PCOD9278536
Probable space group: C 2/C
;
_chemical_formula_sum "Si O2"
_cell_formula_units_Z 44
_cell_length_a 5.604671
_cell_length_b 17.447487
_cell_length_c 22.777073
_cell_angle_alpha 90.000000
_cell_angle_beta 127.442661
_cell_angle_gamma 90.000000
_cell_volume 1768.400902
_symmetry_space_group_name_H-M "C 2/C"
_symmetry_group_IT_number 15
_symmetry_cell_setting 'monoclinic'
loop_
_space_group_symop_operation_xyz
x,y,z
-x,y,1/2-z
-x,-y,-z
x,-y,1/2+z
1/2+x,1/2+y,z
1/2-x,1/2+y,1/2-z
1/2-x,1/2-y,-z
1/2+x,1/2-y,1/2+z
loop_
_atom_site_type_symbol
_atom_site_label
_atom_site_fract_x
_atom_site_fract_y
_atom_site_fract_z
Si Si1 0.564999 0.418310 0.481932
Si Si2 0.519920 0.518452 0.850030
Si Si3 0.125504 0.622072 0.141606
Si Si4 0.500000 0.094469 0.250000
Si Si5 0.848926 0.818559 0.286489
Si Si6 0.938516 0.233564 0.921530
O O1 0.500000 0.500000 0.500000
O O2 0.660214 0.445256 0.430297
O O3 0.798309 0.383818 0.563334
O O4 0.329521 0.347925 0.433092
O O5 0.394625 0.590040 0.795659
O O6 0.742222 0.462236 0.849426
O O7 0.241186 0.461019 0.817687
O O8 0.260627 0.689949 0.119156
O O9 0.140090 0.636752 0.213828
O O10 0.500000 0.803824 0.250000
O O11 0.000000 0.790509 0.250000
O O12 0.025893 0.785012 0.367908
O O13 0.250000 0.250000 0.000000
#
# Coordination Sequence:
#
# PCOD9278536 Si02
#       6
#     8   8   8   4   8   8
#     4  10  20  43  71  95 133 178 234 292 352 428
#     4  11  23  40  66 101 131 181 232 296 347 427
#     4  11  23  41  65  96 137 179 230 291 362 426
#     4  12  22  36  64  92 136 168 232 278 354 414
#     4  11  24  44  73 104 144 190 247 305 367 436
#     4   9  23  45  67 102 143 185 241 295 368 438
#
# _framework density 24.881233999999999
#
# number of rings (size 3 to 8) (size 9 to 14) (size 15 to 20)
#    0.000    1.455    2.727    2.182    1.273    1.455 
#    0.000    1.818    0.000    0.000    0.000    0.000 
#    0.000    0.000    0.000    0.000    0.000    0.000 
#
# Total GULP energy -122511.172470 kJ/mol
# GULP energy per Si atom -5568.689658 kJ/mol
# Density = 2.482460 g / cm^3
# Si number density = 24.881234 Si / 1000 Ang^3
#
#
#
# Elastic Constant Matrix: (Units=GPa)
#
#
# Indices 1 2 3 4 5 6 
#
# 1 69.6836 16.0931 62.0236 0.0000 -23.8674 0.0000
# 2 16.0931 130.6876 48.3663 0.0000 -6.9731 0.0000
# 3 62.0236 48.3663 157.8055 0.0000 -26.0300 0.0000
# 4 0.0000 0.0000 0.0000 42.3438 0.0000 -9.1625
# 5 -23.8674 -6.9731 -26.0300 0.0000 21.4713 0.0000
# 6 0.0000 0.0000 0.0000 -9.1625 0.0000 30.7338
#
#
#
# Elastic Compliance Matrix: (Units=1/GPa)
#
#
# Indices 1 2 3 4 5 6 
#
# 1 0.029035 0.000531 -0.007778 0.000000 0.023018 0.000000
# 2 0.000531 0.008645 -0.002872 0.000000 -0.000084 0.000000
# 3 -0.007778 -0.002872 0.010867 0.000000 0.003596 0.000000
# 4 0.000000 0.000000 0.000000 0.025245 0.000000 0.007526
# 5 0.023018 -0.000084 0.003596 0.000000 0.076494 0.000000
# 6 0.000000 0.000000 0.000000 0.007526 0.000000 0.034781
#
#
# Mechanical properties :
#
#
# Convention : Reuss Voigt Hill
#
# Bulk Modulus (GPa) = 35.32376 67.90476 51.61426
# Shear Modulus (GPa) = 23.28394 34.35602 28.81998
#
# Velocity S-wave (km/s) = 3.06241 3.71994 3.40708
# Velocity P-wave (km/s) = 5.17032 6.76768 6.02220
#
# Compressibility (1/GPa) = 0.02830956
#
# Stress axis : x y z
#
# Youngs Moduli (GPa) = 34.44164 115.67464 92.01858
#
# Poissons Ratio (x) = -0.06145 0.71569
# Poissons Ratio (y) = -0.01830 0.26430
# Poissons Ratio (z) = 0.26788 0.33225
#
# Static dielectric constant tensor:
#      x y z
#    x 2.052670 0.000000 0.038080 
#    y 0.000000 2.129840 0.000000 
#    z 0.038080 0.000000 1.944100 
# 
# From -- ./inp_files/260927.got.cif
#   From: 2010.05.17/outbox.cif.g08.bks.cpg/sg15_131_cif.got.tgz:260927.got - 2010.06.03 18:47:42.
