data_PCOD9278030
_publ_section_title
;
Structure prediction by ZEFSAII (Michael W. Deem and Ramdas Pophale) SiO2 
 PCOD9278030
Probable space group: C 2/C
;
_chemical_formula_sum "Si O2"
_cell_formula_units_Z 60
_cell_length_a 19.855891
_cell_length_b 13.627361
_cell_length_c 14.560895
_cell_angle_alpha 90.000000
_cell_angle_beta 41.101706
_cell_angle_gamma 90.000000
_cell_volume 2590.105060
_symmetry_space_group_name_H-M "C 2/C"
_symmetry_group_IT_number 15
_symmetry_cell_setting 'monoclinic'
loop_
_space_group_symop_operation_xyz
x,y,z
-x,y,1/2-z
-x,-y,-z
x,-y,1/2+z
1/2+x,1/2+y,z
1/2-x,1/2+y,1/2-z
1/2-x,1/2-y,-z
1/2+x,1/2-y,1/2+z
loop_
_atom_site_type_symbol
_atom_site_label
_atom_site_fract_x
_atom_site_fract_y
_atom_site_fract_z
Si Si1 0.177281 0.814085 0.301582
Si Si2 0.140358 0.643939 0.012872
Si Si3 0.364195 0.182364 0.981629
Si Si4 0.000000 0.835595 0.750000
Si Si5 0.223197 0.489038 0.051006
Si Si6 0.996171 0.832173 0.354696
Si Si7 0.079637 0.970705 0.528846
Si Si8 0.481579 0.978904 0.124904
O O1 0.288442 0.840015 0.148716
O O2 0.178365 0.732953 0.381839
O O3 0.131209 0.911272 0.394453
O O4 0.098370 0.790339 0.298856
O O5 0.213015 0.596031 0.014904
O O6 0.083237 0.745610 0.083214
O O7 0.051154 0.562765 0.099365
O O8 0.402293 0.266078 0.872104
O O9 0.296573 0.098651 0.002083
O O10 0.467846 0.124960 0.903205
O O11 0.006891 0.903768 0.833385
O O12 0.132720 0.482037 0.219562
O O13 0.331161 0.478305 0.987191
O O14 0.000000 0.880826 0.250000
O O15 0.953710 0.919932 0.461016
O O16 0.500000 0.000000 0.000000
#
# Coordination Sequence:
#
# PCOD9278030 Si02
#       8
#     8   8   8   4   8   8   8   8
#     4  11  26  44  66 103 137 180 238 288 339 421
#     4  11  25  42  66 100 135 182 231 274 352 410
#     4  10  21  43  68  99 139 179 230 289 350 406
#     4  10  20  42  64  96 132 182 228 270 350 410
#     4  11  23  44  72 103 138 183 227 295 348 419
#     4  12  25  46  68  95 137 188 229 284 346 414
#     4  11  25  43  69 101 137 182 231 283 349 409
#     4  11  21  40  69 101 138 176 229 294 346 408
#
# _framework density 23.165082000000002
#
# number of rings (size 3 to 8) (size 9 to 14) (size 15 to 20)
#    0.000    1.067    2.000    4.800    0.000    8.533 
#    7.200    0.000    0.000    0.000    0.000    0.000 
#    0.000    0.000    0.000    0.000    0.000    0.000 
#
# Total GULP energy -167718.661263 kJ/mol
# GULP energy per Si atom -5590.622042 kJ/mol
# Density = 2.311236 g / cm^3
# Si number density = 23.165082 Si / 1000 Ang^3
#
#
#
# Elastic Constant Matrix: (Units=GPa)
#
#
# Indices 1 2 3 4 5 6 
#
# 1 90.1434 19.1595 19.3587 0.0000 0.1785 0.0000
# 2 19.1595 118.4705 29.7890 0.0000 -7.5329 0.0000
# 3 19.3587 29.7890 126.1945 0.0000 3.2473 0.0000
# 4 0.0000 0.0000 0.0000 21.5928 0.0000 8.4680
# 5 0.1785 -7.5329 3.2473 0.0000 21.9880 0.0000
# 6 0.0000 0.0000 0.0000 8.4680 0.0000 25.2137
#
#
#
# Elastic Compliance Matrix: (Units=1/GPa)
#
#
# Indices 1 2 3 4 5 6 
#
# 1 0.011732 -0.001567 -0.001419 0.000000 -0.000423 0.000000
# 2 -0.001567 0.009444 -0.002080 0.000000 0.003555 0.000000
# 3 -0.001419 -0.002080 0.008684 0.000000 -0.001984 0.000000
# 4 0.000000 0.000000 0.000000 0.053337 0.000000 -0.017913
# 5 -0.000423 0.003555 -0.001984 0.000000 0.046994 0.000000
# 6 0.000000 0.000000 0.000000 -0.017913 0.000000 0.045677
#
#
# Mechanical properties :
#
#
# Convention : Reuss Voigt Hill
#
# Bulk Modulus (GPa) = 50.69305 52.38029 51.53667
# Shear Modulus (GPa) = 25.96379 31.52565 28.74472
#
# Velocity S-wave (km/s) = 3.35149 3.69306 3.52641
# Velocity P-wave (km/s) = 6.07516 6.39107 6.23511
#
# Compressibility (1/GPa) = 0.01972657
#
# Stress axis : x y z
#
# Youngs Moduli (GPa) = 85.23597 105.89248 115.15392
#
# Poissons Ratio (x) = 0.16598 0.16339
# Poissons Ratio (y) = 0.13361 0.23955
# Poissons Ratio (z) = 0.12094 0.22028
#
# Static dielectric constant tensor:
#      x y z
#    x 1.979630 0.000000 0.027490 
#    y 0.000000 1.885700 0.000000 
#    z 0.027490 0.000000 1.867490 
# 
# From -- ./inp_files/168626.got.cif
#   From: 2010.05.17/outbox.cif.g08.bks.cpg/sg15_85_cif.got.tgz:168626.got - 2010.06.03 18:47:42.
