data_PCOD9278532
_publ_section_title
;
Structure prediction by ZEFSAII (Michael W. Deem and Ramdas Pophale) SiO2 
 PCOD9278532
Probable space group: C 2/C
;
_chemical_formula_sum "Si O2"
_cell_formula_units_Z 32
_cell_length_a 9.743467
_cell_length_b 11.569615
_cell_length_c 10.359091
_cell_angle_alpha 90.000000
_cell_angle_beta 91.721931
_cell_angle_gamma 90.000000
_cell_volume 1167.233964
_symmetry_space_group_name_H-M "C 2/C"
_symmetry_group_IT_number 15
_symmetry_cell_setting 'monoclinic'
loop_
_space_group_symop_operation_xyz
x,y,z
-x,y,1/2-z
-x,-y,-z
x,-y,1/2+z
1/2+x,1/2+y,z
1/2-x,1/2+y,1/2-z
1/2-x,1/2-y,-z
1/2+x,1/2-y,1/2+z
loop_
_atom_site_type_symbol
_atom_site_label
_atom_site_fract_x
_atom_site_fract_y
_atom_site_fract_z
Si Si1 0.356314 0.778802 0.320069
Si Si2 0.000000 0.426488 0.750000
Si Si3 0.215147 0.434507 0.950098
Si Si4 0.000000 0.000000 0.500000
Si Si5 0.139399 0.779658 0.106562
O O1 0.500000 0.768989 0.250000
O O2 0.310844 0.650860 0.365690
O O3 0.362318 0.860190 0.444715
O O4 0.231195 0.821511 0.228926
O O5 0.107705 0.489058 0.846577
O O6 0.076742 0.340785 0.654327
O O7 0.333346 0.506796 0.022339
O O8 0.980565 0.870774 0.429636
O O9 0.250000 0.750000 0.000000
#
# Coordination Sequence:
#
# PCOD9278532 Si02
#       5
#     8   4   8   4   8
#     4  10  20  43  70  99 141 189 228 289 365 426
#     4  10  22  48  70  98 140 188 234 292 368 432
#     4  10  22  41  70 101 139 180 236 295 353 432
#     4  12  24  44  68 106 140 184 250 294 350 448
#     4  11  23  43  69 103 143 188 236 294 368 427
#
# _framework density 27.415240000000001
#
# number of rings (size 3 to 8) (size 9 to 14) (size 15 to 20)
#    0.000    1.500    0.000    7.500    0.000    0.000 
#   36.000    2.500    0.000    0.000    0.000    0.000 
#    0.000    0.000    0.000    0.000    0.000    0.000 
#
# Total GULP energy -89164.762252 kJ/mol
# GULP energy per Si atom -5572.797641 kJ/mol
# Density = 2.735284 g / cm^3
# Si number density = 27.415240 Si / 1000 Ang^3
#
#
#
# Elastic Constant Matrix: (Units=GPa)
#
#
# Indices 1 2 3 4 5 6 
#
# 1 163.9854 5.3784 55.1320 0.0000 -12.0579 0.0000
# 2 5.3784 52.6390 -22.4417 0.0000 -20.9034 0.0000
# 3 55.1320 -22.4417 89.9147 0.0000 -5.8773 0.0000
# 4 0.0000 0.0000 0.0000 -42.2042 0.0000 -44.3535
# 5 -12.0579 -20.9034 -5.8773 0.0000 79.3656 0.0000
# 6 0.0000 0.0000 0.0000 -44.3535 0.0000 33.0644
#
#
#
# Elastic Compliance Matrix: (Units=1/GPa)
#
#
# Indices 1 2 3 4 5 6 
#
# 1 0.008171 -0.003361 -0.005854 0.000000 -0.000077 0.000000
# 2 -0.003361 0.025952 0.008995 0.000000 0.006991 0.000000
# 3 -0.005854 0.008995 0.017136 0.000000 0.002749 0.000000
# 4 0.000000 0.000000 0.000000 -0.009833 0.000000 -0.013190
# 5 -0.000077 0.006991 0.002749 0.000000 0.014633 0.000000
# 6 0.000000 0.000000 0.000000 -0.013190 0.000000 0.012551
#
#
# Mechanical properties :
#
#
# Convention : Reuss Voigt Hill
#
# Bulk Modulus (GPa) = 19.67800 42.51962 31.09881
# Shear Modulus (GPa) = 58.14705 31.94319 45.04512
#
# Velocity S-wave (km/s) = 4.61040 3.41715 4.05788
# Velocity P-wave (km/s) = 5.96107 5.57785 5.77264
#
# Compressibility (1/GPa) = 0.05081819
#
# Stress axis : x y z
#
# Youngs Moduli (GPa) = 122.38747 38.53304 58.35715
#
# Poissons Ratio (x) = 0.12952 0.34162
# Poissons Ratio (y) = 0.41139 -0.52494
# Poissons Ratio (z) = 0.71646 -0.34661
#
# Static dielectric constant tensor:
#      x y z
#    x 2.142540 0.000000 0.103790 
#    y 0.000000 2.542780 0.000000 
#    z 0.103790 0.000000 2.247540 
# 
# From -- ./inp_files/75644.got.cif
#   From: 2010.05.17/outbox.cif.g08.bks.cpg/sg15_38_cif.got.tgz:75644.got - 2010.06.03 18:47:42.
