data_PCOD9278885
_publ_section_title
;
Structure prediction by ZEFSAII (Michael W. Deem and Ramdas Pophale) SiO2 
 PCOD9278885
Probable space group: C 2/C
;
_chemical_formula_sum "Si O2"
_cell_formula_units_Z 48
_cell_length_a 5.564597
_cell_length_b 19.858060
_cell_length_c 21.156904
_cell_angle_alpha 90.000000
_cell_angle_beta 105.248884
_cell_angle_gamma 90.000000
_cell_volume 2255.571228
_symmetry_space_group_name_H-M "C 2/C"
_symmetry_group_IT_number 15
_symmetry_cell_setting 'monoclinic'
loop_
_space_group_symop_operation_xyz
x,y,z
-x,y,1/2-z
-x,-y,-z
x,-y,1/2+z
1/2+x,1/2+y,z
1/2-x,1/2+y,1/2-z
1/2-x,1/2-y,-z
1/2+x,1/2-y,1/2+z
loop_
_atom_site_type_symbol
_atom_site_label
_atom_site_fract_x
_atom_site_fract_y
_atom_site_fract_z
Si Si1 0.072562 0.748939 0.322558
Si Si2 0.823211 0.550860 0.573212
Si Si3 0.333512 0.517465 0.083513
Si Si4 0.379358 0.200865 0.629361
Si Si5 0.289689 0.181452 0.039690
Si Si6 0.308532 0.345881 0.558533
O O1 0.330205 0.790334 0.332351
O O2 0.132667 0.696008 0.382664
O O3 0.000000 0.719240 0.250000
O O4 0.834507 0.790335 0.332352
O O5 0.745848 0.529961 0.495848
O O6 0.598810 0.519419 0.599801
O O7 0.844550 0.629069 0.594551
O O8 0.100789 0.519419 0.599801
O O9 0.361233 0.594204 0.111234
O O10 0.331983 0.267786 0.581985
O O11 0.518338 0.145397 0.023072
O O12 0.027804 0.145397 0.023072
O O13 0.250000 0.250000 0.000000
#
# Coordination Sequence:
#
# PCOD9278885 Si02
#       6
#     8   8   8   8   8   8
#     4  10  21  36  55  86 118 149 190 247 300 346
#     4  10  21  35  49  79 113 158 182 228 289 341
#     4  10  21  34  51  75 121 154 186 225 287 350
#     4  10  21  36  59  83 108 150 198 238 281 345
#     4  10  21  32  53  86 116 150 183 242 290 347
#     4  10  21  34  53  83 110 151 189 234 285 343
#
# _framework density 21.280639999999998
#
# number of rings (size 3 to 8) (size 9 to 14) (size 15 to 20)
#    0.000    2.000    0.000    3.000    9.333    0.000 
#    0.000    0.000    0.000    0.000    0.000   93.333 
#    0.000    0.000    0.000    0.000    0.000    0.000 
#
# Total GULP energy -133726.544573 kJ/mol
# GULP energy per Si atom -5571.939357 kJ/mol
# Density = 2.123220 g / cm^3
# Si number density = 21.280640 Si / 1000 Ang^3
#
#
#
# Elastic Constant Matrix: (Units=GPa)
#
#
# Indices 1 2 3 4 5 6 
#
# 1 248.4419 51.3154 17.1077 0.0000 -8.5886 0.0000
# 2 51.3154 123.9221 -0.8021 0.0000 -2.0953 0.0000
# 3 17.1077 -0.8021 58.2096 0.0000 0.9439 0.0000
# 4 0.0000 0.0000 0.0000 10.3390 0.0000 -1.3044
# 5 -8.5886 -2.0953 0.9439 0.0000 9.2202 0.0000
# 6 0.0000 0.0000 0.0000 -1.3044 0.0000 42.7755
#
#
#
# Elastic Compliance Matrix: (Units=1/GPa)
#
#
# Indices 1 2 3 4 5 6 
#
# 1 0.004651 -0.001867 -0.001459 0.000000 0.004058 0.000000
# 2 -0.001867 0.008850 0.000667 0.000000 0.000204 0.000000
# 3 -0.001459 0.000667 0.017666 0.000000 -0.003016 0.000000
# 4 0.000000 0.000000 0.000000 0.097094 0.000000 0.002961
# 5 0.004058 0.000204 -0.003016 0.000000 0.112592 0.000000
# 6 0.000000 0.000000 0.000000 0.002961 0.000000 0.023468
#
#
# Mechanical properties :
#
#
# Convention : Reuss Voigt Hill
#
# Bulk Modulus (GPa) = 38.68241 62.86842 50.77542
# Shear Modulus (GPa) = 17.96905 36.66379 27.31642
#
# Velocity S-wave (km/s) = 2.90898 4.15525 3.58666
# Velocity P-wave (km/s) = 5.43136 7.25453 6.40811
#
# Compressibility (1/GPa) = 0.02585154
#
# Stress axis : x y z
#
# Youngs Moduli (GPa) = 214.98805 112.98868 56.60574
#
# Poissons Ratio (x) = 0.21094 0.08256
# Poissons Ratio (y) = 0.40137 -0.03778
# Poissons Ratio (z) = 0.31358 -0.07540
#
# Static dielectric constant tensor:
#      x y z
#    x 1.849510 0.000000 -0.001890 
#    y 0.000000 1.883650 0.000000 
#    z -0.001890 0.000000 1.802590 
# 
# From -- ./inp_files/260761.got.cif
#   From: 2010.05.17/outbox.cif.g08.bks.cpg/sg15_131_cif.got.tgz:260761.got - 2010.06.03 18:47:42.
