data_PCOD9278709
_publ_section_title
;
Structure prediction by ZEFSAII (Michael W. Deem and Ramdas Pophale) SiO2 
 PCOD9278709
Probable space group: C 2/C
;
_chemical_formula_sum "Si O2"
_cell_formula_units_Z 40
_cell_length_a 10.494284
_cell_length_b 14.897756
_cell_length_c 13.698027
_cell_angle_alpha 90.000000
_cell_angle_beta 57.605337
_cell_angle_gamma 90.000000
_cell_volume 1808.291794
_symmetry_space_group_name_H-M "C 2/C"
_symmetry_group_IT_number 15
_symmetry_cell_setting 'monoclinic'
loop_
_space_group_symop_operation_xyz
x,y,z
-x,y,1/2-z
-x,-y,-z
x,-y,1/2+z
1/2+x,1/2+y,z
1/2-x,1/2+y,1/2-z
1/2-x,1/2-y,-z
1/2+x,1/2-y,1/2+z
loop_
_atom_site_type_symbol
_atom_site_label
_atom_site_fract_x
_atom_site_fract_y
_atom_site_fract_z
Si Si1 0.376052 0.393160 0.717285
Si Si2 0.422187 0.754927 0.890818
Si Si3 0.916283 0.690784 0.680125
Si Si4 0.938256 0.596105 0.050321
Si Si5 0.404426 0.587565 0.687182
O O1 0.500000 0.383983 0.750000
O O2 0.366358 0.293200 0.676892
O O3 0.226093 0.410741 0.839943
O O4 0.400316 0.485777 0.647668
O O5 0.500000 0.751711 0.750000
O O6 0.466952 0.852995 0.907535
O O7 0.506056 0.667681 0.903436
O O8 0.250000 0.750000 0.000000
O O9 0.766352 0.627678 0.732198
O O10 0.000000 0.685167 0.750000
O O11 0.040450 0.658171 0.552466
O O12 0.000000 0.500000 0.000000
O O13 0.500000 0.576059 0.750000
#
# Coordination Sequence:
#
# PCOD9278709 Si02
#       5
#     8   8   8   8   8
#     4  10  23  42  70  96 143 187 240 294 380 434
#     4  11  25  45  78 108 143 191 255 308 366 440
#     4  11  24  44  68 104 144 187 244 299 369 439
#     4  12  24  43  72  99 143 194 240 310 374 433
#     4  10  20  44  73 100 137 189 238 294 362 435
#
# _framework density 22.120324
#
# number of rings (size 3 to 8) (size 9 to 14) (size 15 to 20)
#    0.000    1.200    4.000    2.400    2.800    4.000 
#    0.000    2.000    4.400    0.000    0.000    0.000 
#    0.000    0.000    0.000    0.000    0.000    0.000 
#
# Total GULP energy -111383.162845 kJ/mol
# GULP energy per Si atom -5569.158142 kJ/mol
# Density = 2.206998 g / cm^3
# Si number density = 22.120324 Si / 1000 Ang^3
#
#
#
# Elastic Constant Matrix: (Units=GPa)
#
#
# Indices 1 2 3 4 5 6 
#
# 1 84.7257 21.6029 35.0207 0.0000 -28.6892 0.0000
# 2 21.6029 191.6361 40.9980 0.0000 -0.1420 0.0000
# 3 35.0207 40.9980 125.5017 0.0000 -12.3488 0.0000
# 4 0.0000 0.0000 0.0000 30.9561 0.0000 -13.2150
# 5 -28.6892 -0.1420 -12.3488 0.0000 38.5971 0.0000
# 6 0.0000 0.0000 0.0000 -13.2150 0.0000 47.3280
#
#
#
# Elastic Compliance Matrix: (Units=1/GPa)
#
#
# Indices 1 2 3 4 5 6 
#
# 1 0.017548 -0.001262 -0.003305 0.000000 0.011981 0.000000
# 2 -0.001262 0.005714 -0.001657 0.000000 -0.001447 0.000000
# 3 -0.003305 -0.001657 0.009488 0.000000 0.000573 0.000000
# 4 0.000000 0.000000 0.000000 0.036675 0.000000 0.010241
# 5 0.011981 -0.001447 0.000573 0.000000 0.034992 0.000000
# 6 0.000000 0.000000 0.000000 0.010241 0.000000 0.023988
#
#
# Mechanical properties :
#
#
# Convention : Reuss Voigt Hill
#
# Bulk Modulus (GPa) = 49.25869 66.34519 57.80194
# Shear Modulus (GPa) = 33.87039 43.65902 38.76470
#
# Velocity S-wave (km/s) = 3.91729 4.44746 4.19077
# Velocity P-wave (km/s) = 6.54042 7.51207 7.04302
#
# Compressibility (1/GPa) = 0.02030099
#
# Stress axis : x y z
#
# Youngs Moduli (GPa) = 56.98694 175.01264 105.39675
#
# Poissons Ratio (x) = 0.22089 0.34839
# Poissons Ratio (y) = 0.07192 0.17462
# Poissons Ratio (z) = 0.18837 0.28996
#
# Static dielectric constant tensor:
#      x y z
#    x 1.738820 0.000000 -0.130510 
#    y 0.000000 1.854770 0.000000 
#    z -0.130510 0.000000 1.486270 
# 
# From -- ./inp_files/85709.got.cif
#   From: 2010.05.17/outbox.cif.g08.bks.cpg/sg15_43_cif.got.tgz:85709.got - 2010.06.03 18:47:42.
