data_PCOD9278009
_publ_section_title
;
Structure prediction by ZEFSAII (Michael W. Deem and Ramdas Pophale) SiO2 
 PCOD9278009
Probable space group: C 2/C
;
_chemical_formula_sum "Si O2"
_cell_formula_units_Z 32
_cell_length_a 8.781552
_cell_length_b 22.114420
_cell_length_c 12.656660
_cell_angle_alpha 90.000000
_cell_angle_beta 138.929397
_cell_angle_gamma 90.000000
_cell_volume 1614.818547
_symmetry_space_group_name_H-M "C 2/C"
_symmetry_group_IT_number 15
_symmetry_cell_setting 'monoclinic'
loop_
_space_group_symop_operation_xyz
x,y,z
-x,y,1/2-z
-x,-y,-z
x,-y,1/2+z
1/2+x,1/2+y,z
1/2-x,1/2+y,1/2-z
1/2-x,1/2-y,-z
1/2+x,1/2-y,1/2+z
loop_
_atom_site_type_symbol
_atom_site_label
_atom_site_fract_x
_atom_site_fract_y
_atom_site_fract_z
Si Si1 0.978308 0.429632 0.465127
Si Si2 0.000000 0.139649 0.750000
Si Si3 0.536261 0.704332 0.549172
Si Si4 0.226928 0.826388 0.795144
Si Si5 0.500000 0.127597 0.750000
O O1 0.724564 0.402743 0.356167
O O2 0.026325 0.412860 0.368067
O O3 0.000000 0.500000 0.500000
O O4 0.160978 0.391409 0.629318
O O5 0.974155 0.181290 0.633028
O O6 0.589455 0.775454 0.573638
O O7 0.348647 0.687026 0.363650
O O8 0.775452 0.670035 0.644688
O O9 0.000000 0.820447 0.750000
#
# Coordination Sequence:
#
# PCOD9278009 Si02
#       5
#     8   4   8   8   4
#     4  11  26  43  66  94 131 177 221 261 320 388
#     4  10  26  44  62 100 136 168 214 276 330 378
#     4  11  22  40  69  98 133 163 215 274 331 380
#     4  12  23  40  70  99 129 172 222 264 324 394
#     4  10  20  42  64  92 128 174 212 268 314 390
#
# _framework density 19.816468
#
# number of rings (size 3 to 8) (size 9 to 14) (size 15 to 20)
#    0.000    1.000    3.750    3.750    1.750    7.000 
#    0.000    5.000    0.000    0.000    0.000    0.000 
#    0.000    0.000    0.000    0.000    0.000    0.000 
#
# Total GULP energy -89587.647233 kJ/mol
# GULP energy per Si atom -5599.227952 kJ/mol
# Density = 1.977137 g / cm^3
# Si number density = 19.816468 Si / 1000 Ang^3
#
#
#
# Elastic Constant Matrix: (Units=GPa)
#
#
# Indices 1 2 3 4 5 6 
#
# 1 96.9036 34.3513 25.7217 0.0000 -11.8603 0.0000
# 2 34.3513 174.7425 50.9613 0.0000 -9.0497 0.0000
# 3 25.7217 50.9613 121.7232 0.0000 -20.0573 0.0000
# 4 0.0000 0.0000 0.0000 32.3446 0.0000 0.4249
# 5 -11.8603 -9.0497 -20.0573 0.0000 24.7652 0.0000
# 6 0.0000 0.0000 0.0000 0.4249 0.0000 10.5012
#
#
#
# Elastic Compliance Matrix: (Units=1/GPa)
#
#
# Indices 1 2 3 4 5 6 
#
# 1 0.011736 -0.001787 -0.001054 0.000000 0.004114 0.000000
# 2 -0.001787 0.006791 -0.002536 0.000000 -0.000428 0.000000
# 3 -0.001054 -0.002536 0.010691 0.000000 0.007227 0.000000
# 4 0.000000 0.000000 0.000000 0.030933 0.000000 -0.001252
# 5 0.004114 -0.000428 0.007227 0.000000 0.048046 0.000000
# 6 0.000000 0.000000 0.000000 -0.001252 0.000000 0.095278
#
#
# Mechanical properties :
#
#
# Convention : Reuss Voigt Hill
#
# Bulk Modulus (GPa) = 54.15876 68.38198 61.27037
# Shear Modulus (GPa) = 22.68759 32.34455 27.51607
#
# Velocity S-wave (km/s) = 3.38729 4.04444 3.73036
# Velocity P-wave (km/s) = 6.53359 7.50950 7.03848
#
# Compressibility (1/GPa) = 0.01846423
#
# Stress axis : x y z
#
# Youngs Moduli (GPa) = 85.20647 147.24396 93.53839
#
# Poissons Ratio (x) = 0.26307 0.09860
# Poissons Ratio (y) = 0.15223 0.23725
# Poissons Ratio (z) = 0.08982 0.37346
#
# Static dielectric constant tensor:
#      x y z
#    x 1.709110 0.000000 0.003990 
#    y 0.000000 1.642830 0.000000 
#    z 0.003990 0.000000 1.689440 
# 
# From -- ./inp_files/22161.got.cif
#   From: 2010.05.17/outbox.cif.g08.bks.cpg/sg15_12_cif.got.tgz:22161.got - 2010.06.03 18:47:42.
