data_PCOD9278158
_publ_section_title
;
Structure prediction by ZEFSAII (Michael W. Deem and Ramdas Pophale) SiO2 
 PCOD9278158
Probable space group: C 2/C
;
_chemical_formula_sum "Si O2"
_cell_formula_units_Z 32
_cell_length_a 11.941152
_cell_length_b 7.068476
_cell_length_c 13.448875
_cell_angle_alpha 90.000000
_cell_angle_beta 92.255118
_cell_angle_gamma 90.000000
_cell_volume 1134.283177
_symmetry_space_group_name_H-M "C 2/C"
_symmetry_group_IT_number 15
_symmetry_cell_setting 'monoclinic'
loop_
_space_group_symop_operation_xyz
x,y,z
-x,y,1/2-z
-x,-y,-z
x,-y,1/2+z
1/2+x,1/2+y,z
1/2-x,1/2+y,1/2-z
1/2-x,1/2-y,-z
1/2+x,1/2-y,1/2+z
loop_
_atom_site_type_symbol
_atom_site_label
_atom_site_fract_x
_atom_site_fract_y
_atom_site_fract_z
Si Si1 0.129521 0.986606 0.330791
Si Si2 0.000000 0.364308 0.750000
Si Si3 0.869551 0.477410 0.429363
Si Si4 0.250000 0.750000 0.000000
Si Si5 0.387937 0.567508 0.389355
O O1 0.099941 0.773581 0.294027
O O2 0.238946 0.040245 0.397793
O O3 0.138455 0.101906 0.228669
O O4 0.019646 0.028540 0.390013
O O5 0.945999 0.478748 0.838175
O O6 0.874349 0.621543 0.519293
O O7 0.865153 0.257304 0.449097
O O8 0.183802 0.891931 0.077836
#
# Coordination Sequence:
#
# PCOD9278158 Si02
#       5
#     8   4   8   4   8
#     4  10  21  44  69  94 125 172 226 260 312 390
#     4  10  20  42  66  98 126 162 228 272 298 394
#     4  12  23  42  71  91 130 176 210 268 329 376
#     4  12  24  44  62 100 144 158 212 280 320 380
#     4  10  23  43  65  98 130 169 220 268 313 389
#
# _framework density 28.211652000000001
#
# number of rings (size 3 to 8) (size 9 to 14) (size 15 to 20)
#    0.000    1.500    5.000    3.750    0.000    1.000 
#    4.500    2.500    0.000    0.000    0.000    0.000 
#    0.000    0.000    0.000    0.000    0.000    0.000 
#
# Total GULP energy -89368.440254 kJ/mol
# GULP energy per Si atom -5585.527516 kJ/mol
# Density = 2.814744 g / cm^3
# Si number density = 28.211652 Si / 1000 Ang^3
#
#
#
# Elastic Constant Matrix: (Units=GPa)
#
#
# Indices 1 2 3 4 5 6 
#
# 1 136.7028 49.6193 84.9221 0.0000 -20.4726 0.0000
# 2 49.6193 213.8702 39.8557 0.0000 -34.7929 0.0000
# 3 84.9221 39.8557 125.1522 0.0000 -27.4415 0.0000
# 4 0.0000 0.0000 0.0000 47.4296 0.0000 -13.2401
# 5 -20.4726 -34.7929 -27.4415 0.0000 69.0745 0.0000
# 6 0.0000 0.0000 0.0000 -13.2401 0.0000 50.6316
#
#
#
# Elastic Compliance Matrix: (Units=1/GPa)
#
#
# Indices 1 2 3 4 5 6 
#
# 1 0.013067 -0.001497 -0.008442 0.000000 -0.000235 0.000000
# 2 -0.001497 0.005423 -0.000230 0.000000 0.002197 0.000000
# 3 -0.008442 -0.000230 0.014479 0.000000 0.003134 0.000000
# 4 0.000000 0.000000 0.000000 0.022744 0.000000 0.005948
# 5 -0.000235 0.002197 0.003134 0.000000 0.016759 0.000000
# 6 0.000000 0.000000 0.000000 0.005948 0.000000 0.021306
#
#
# Mechanical properties :
#
#
# Convention : Reuss Voigt Hill
#
# Bulk Modulus (GPa) = 79.15772 91.61326 85.38549
# Shear Modulus (GPa) = 42.25615 53.51569 47.88592
#
# Velocity S-wave (km/s) = 3.87437 4.36011 4.12440
# Velocity P-wave (km/s) = 6.93785 7.60864 7.28098
#
# Compressibility (1/GPa) = 0.01263301
#
# Stress axis : x y z
#
# Youngs Moduli (GPa) = 76.52636 184.39366 69.06649
#
# Poissons Ratio (x) = 0.27599 0.58304
# Poissons Ratio (y) = 0.11454 0.01587
# Poissons Ratio (z) = 0.64601 0.04237
#
# Static dielectric constant tensor:
#      x y z
#    x 2.293930 0.000000 0.211890 
#    y 0.000000 3.797610 0.000000 
#    z 0.211890 0.000000 3.075880 
# 
# From -- ./inp_files/194727.got.cif
#   From: 2010.05.17/outbox.cif.g08.bks.cpg/sg15_98_cif.got.tgz:194727.got - 2010.06.03 18:47:42.
