data_PCOD9278630
_publ_section_title
;
Structure prediction by ZEFSAII (Michael W. Deem and Ramdas Pophale) SiO2 
 PCOD9278630
Probable space group: C 2/C
;
_chemical_formula_sum "Si O2"
_cell_formula_units_Z 40
_cell_length_a 8.989984
_cell_length_b 22.006387
_cell_length_c 8.983094
_cell_angle_alpha 90.000000
_cell_angle_beta 87.716732
_cell_angle_gamma 90.000000
_cell_volume 1775.778010
_symmetry_space_group_name_H-M "C 2/C"
_symmetry_group_IT_number 15
_symmetry_cell_setting 'monoclinic'
loop_
_space_group_symop_operation_xyz
x,y,z
-x,y,1/2-z
-x,-y,-z
x,-y,1/2+z
1/2+x,1/2+y,z
1/2-x,1/2+y,1/2-z
1/2-x,1/2-y,-z
1/2+x,1/2-y,1/2+z
loop_
_atom_site_type_symbol
_atom_site_label
_atom_site_fract_x
_atom_site_fract_y
_atom_site_fract_z
Si Si1 0.242911 0.517153 0.432211
Si Si2 0.500000 0.420534 0.750000
Si Si3 0.500000 0.908498 0.750000
Si Si4 0.675619 0.294391 0.215780
Si Si5 0.740536 0.331248 0.875315
Si Si6 0.176506 0.584269 0.733961
O O1 0.401367 0.540174 0.366764
O O2 0.219961 0.536219 0.603223
O O3 0.228608 0.447167 0.385709
O O4 0.109482 0.551205 0.347514
O O5 0.615373 0.377396 0.828428
O O6 0.398059 0.865095 0.854501
O O7 0.500000 0.290259 0.250000
O O8 0.749975 0.228313 0.231525
O O9 0.746097 0.351266 0.300285
O O10 0.705568 0.310635 0.042687
O O11 0.000000 0.592337 0.750000
#
# Coordination Sequence:
#
# PCOD9278630 Si02
#       6
#     8   4   4   8   8   8
#     4  11  25  42  67  96 132 173 218 268 322 380
#     4  10  24  42  66  94 130 168 216 268 324 382
#     4  10  20  44  66  90 130 170 220 262 326 380
#     4  11  24  42  65  95 131 169 215 262 327 383
#     4  10  22  43  66  92 127 173 210 269 322 387
#     4  12  26  42  67  98 132 173 218 269 317 388
#
# _framework density 22.525338000000001
#
# number of rings (size 3 to 8) (size 9 to 14) (size 15 to 20)
#    0.000    1.200    2.000    3.000    8.400    0.800 
#    0.000    3.000    0.000    0.000    0.000    0.000 
#    0.000    0.000    0.000    0.000    0.000    0.000 
#
# Total GULP energy -112007.006324 kJ/mol
# GULP energy per Si atom -5600.350316 kJ/mol
# Density = 2.247407 g / cm^3
# Si number density = 22.525338 Si / 1000 Ang^3
#
#
#
# Elastic Constant Matrix: (Units=GPa)
#
#
# Indices 1 2 3 4 5 6 
#
# 1 133.4118 43.6736 26.1776 0.0000 -32.2120 0.0000
# 2 43.6736 117.8236 12.6942 0.0000 -2.4614 0.0000
# 3 26.1776 12.6942 78.9000 0.0000 -16.5501 0.0000
# 4 0.0000 0.0000 0.0000 39.9734 0.0000 9.7094
# 5 -32.2120 -2.4614 -16.5501 0.0000 27.8591 0.0000
# 6 0.0000 0.0000 0.0000 9.7094 0.0000 16.5849
#
#
#
# Elastic Compliance Matrix: (Units=1/GPa)
#
#
# Indices 1 2 3 4 5 6 
#
# 1 0.012218 -0.004188 -0.000565 0.000000 0.013421 0.000000
# 2 -0.004188 0.010072 -0.001211 0.000000 -0.004671 0.000000
# 3 -0.000565 -0.001211 0.014733 0.000000 0.007992 0.000000
# 4 0.000000 0.000000 0.000000 0.029164 0.000000 -0.017073
# 5 0.013421 -0.004671 0.007992 0.000000 0.055749 0.000000
# 6 0.000000 0.000000 0.000000 -0.017073 0.000000 0.070291
#
#
# Mechanical properties :
#
#
# Convention : Reuss Voigt Hill
#
# Bulk Modulus (GPa) = 39.84602 55.02513 47.43557
# Shear Modulus (GPa) = 23.52736 33.38948 28.45842
#
# Velocity S-wave (km/s) = 3.23535 3.85425 3.55828
# Velocity P-wave (km/s) = 5.62890 6.65493 6.16330
#
# Compressibility (1/GPa) = 0.02509661
#
# Stress axis : x y z
#
# Youngs Moduli (GPa) = 81.84793 99.28171 67.87504
#
# Poissons Ratio (x) = 0.41575 0.03832
# Poissons Ratio (y) = 0.34274 0.08220
# Poissons Ratio (z) = 0.04621 0.12024
#
# Static dielectric constant tensor:
#      x y z
#    x 1.781860 0.000000 0.009970 
#    y 0.000000 1.869530 0.000000 
#    z 0.009970 0.000000 1.840220 
# 
# From -- ./inp_files/23517.got.cif
#   From: 2010.05.17/outbox.cif.g08.bks.cpg/sg15_12_cif.got.tgz:23517.got - 2010.06.03 18:47:42.
