data_PCOD9278134
_publ_section_title
;
Structure prediction by ZEFSAII (Michael W. Deem and Ramdas Pophale) SiO2 
 PCOD9278134
Probable space group: C 2/C
;
_chemical_formula_sum "Si O2"
_cell_formula_units_Z 44
_cell_length_a 18.542000
_cell_length_b 18.067964
_cell_length_c 5.090556
_cell_angle_alpha 90.000000
_cell_angle_beta 102.990031
_cell_angle_gamma 90.000000
_cell_volume 1661.775623
_symmetry_space_group_name_H-M "C 2/C"
_symmetry_group_IT_number 15
_symmetry_cell_setting 'monoclinic'
loop_
_space_group_symop_operation_xyz
x,y,z
-x,y,1/2-z
-x,-y,-z
x,-y,1/2+z
1/2+x,1/2+y,z
1/2-x,1/2+y,1/2-z
1/2-x,1/2-y,-z
1/2+x,1/2-y,1/2+z
loop_
_atom_site_type_symbol
_atom_site_label
_atom_site_fract_x
_atom_site_fract_y
_atom_site_fract_z
Si Si1 0.586319 0.046202 0.814884
Si Si2 0.500000 0.697309 0.750000
Si Si3 0.645001 0.701383 0.616626
Si Si4 0.428305 0.581418 0.287880
Si Si5 0.270035 0.454543 0.798449
Si Si6 0.204382 0.664019 0.856875
O O1 0.500000 0.066012 0.750000
O O2 0.635360 0.112102 0.741258
O O3 0.599998 0.977888 0.627077
O O4 0.574843 0.737290 0.708976
O O5 0.464177 0.645304 0.497294
O O6 0.611071 0.624887 0.483062
O O7 0.727010 0.678415 0.786469
O O8 0.669207 0.758153 0.410946
O O9 0.500000 0.536196 0.250000
O O10 0.359723 0.546467 0.381251
O O11 0.247922 0.517017 0.565490
O O12 0.240420 0.379617 0.638518
#
# Coordination Sequence:
#
# PCOD9278134 Si02
#       6
#     8   4   8   8   8   8
#     4  10  22  43  67  98 134 175 222 275 331 394
#     4  10  20  42  66  94 130 172 216 282 334 402
#     4   9  21  42  64  99 127 171 222 270 340 394
#     4   9  21  39  63  90 132 167 216 273 325 391
#     4  11  25  41  64  96 130 175 223 268 326 389
#     4  10  21  43  66  94 134 172 218 279 330 402
#
# _framework density 26.477702000000001
#
# number of rings (size 3 to 8) (size 9 to 14) (size 15 to 20)
#    0.000    2.182    0.000    1.091    7.636    2.909 
#   14.727    2.727    0.000    0.000    0.000    0.000 
#    0.000    0.000    0.000    0.000    0.000    0.000 
#
# Total GULP energy -122908.810570 kJ/mol
# GULP energy per Si atom -5586.764117 kJ/mol
# Density = 2.641744 g / cm^3
# Si number density = 26.477702 Si / 1000 Ang^3
#
#
#
# Elastic Constant Matrix: (Units=GPa)
#
#
# Indices 1 2 3 4 5 6 
#
# 1 268.7583 28.4089 16.1969 0.0000 2.4732 0.0000
# 2 28.4089 79.4803 -3.5636 0.0000 5.1564 0.0000
# 3 16.1969 -3.5636 69.0648 0.0000 -0.1972 0.0000
# 4 0.0000 0.0000 0.0000 17.8634 0.0000 -5.4685
# 5 2.4732 5.1564 -0.1972 0.0000 21.7931 0.0000
# 6 0.0000 0.0000 0.0000 -5.4685 0.0000 35.1851
#
#
#
# Elastic Compliance Matrix: (Units=1/GPa)
#
#
# Indices 1 2 3 4 5 6 
#
# 1 0.003935 -0.001444 -0.000998 0.000000 -0.000114 0.000000
# 2 -0.001444 0.013337 0.001018 0.000000 -0.002983 0.000000
# 3 -0.000998 0.001018 0.014766 0.000000 0.000006 0.000000
# 4 0.000000 0.000000 0.000000 0.058777 0.000000 0.009135
# 5 -0.000114 -0.002983 0.000006 0.000000 0.046605 0.000000
# 6 0.000000 0.000000 0.000000 0.009135 0.000000 0.029841
#
#
# Mechanical properties :
#
#
# Convention : Reuss Voigt Hill
#
# Bulk Modulus (GPa) = 34.25700 55.48752 44.87226
# Shear Modulus (GPa) = 27.80307 40.05239 33.92773
#
# Velocity S-wave (km/s) = 3.24397 3.89354 3.58351
# Velocity P-wave (km/s) = 5.19589 6.41987 5.84003
#
# Compressibility (1/GPa) = 0.02919111
#
# Stress axis : x y z
#
# Youngs Moduli (GPa) = 254.15635 74.97989 67.72478
#
# Poissons Ratio (x) = 0.10825 0.06756
# Poissons Ratio (y) = 0.36692 -0.06896
# Poissons Ratio (z) = 0.25353 -0.07635
#
# Static dielectric constant tensor:
#      x y z
#    x 2.185880 0.000000 -0.022770 
#    y 0.000000 2.057760 0.000000 
#    z -0.022770 0.000000 2.129910 
# 
# From -- ./inp_files/10418.got.cif
#   From: 2010.05.17/outbox.cif.g08.bks.cpg/sg15_6_cif.got.tgz:10418.got - 2010.06.03 18:47:42.
