data_PCOD9278254
_publ_section_title
;
Structure prediction by ZEFSAII (Michael W. Deem and Ramdas Pophale) SiO2 
 PCOD9278254
Probable space group: C 2/C
;
_chemical_formula_sum "Si O2"
_cell_formula_units_Z 44
_cell_length_a 13.304306
_cell_length_b 11.898304
_cell_length_c 23.843576
_cell_angle_alpha 90.000000
_cell_angle_beta 31.507871
_cell_angle_gamma 90.000000
_cell_volume 1972.564084
_symmetry_space_group_name_H-M "C 2/C"
_symmetry_group_IT_number 15
_symmetry_cell_setting 'monoclinic'
loop_
_space_group_symop_operation_xyz
x,y,z
-x,y,1/2-z
-x,-y,-z
x,-y,1/2+z
1/2+x,1/2+y,z
1/2-x,1/2+y,1/2-z
1/2-x,1/2-y,-z
1/2+x,1/2-y,1/2+z
loop_
_atom_site_type_symbol
_atom_site_label
_atom_site_fract_x
_atom_site_fract_y
_atom_site_fract_z
Si Si1 0.968063 0.768603 0.910974
Si Si2 0.000000 0.576141 0.250000
Si Si3 0.649696 0.629664 0.555901
Si Si4 0.913212 0.038258 0.231538
Si Si5 0.032364 0.517462 0.857888
Si Si6 0.930529 0.126427 0.023763
O O1 0.058847 0.650186 0.852037
O O2 0.986569 0.795698 0.967733
O O3 0.750000 0.750000 0.000000
O O4 0.035889 0.873778 0.842009
O O5 0.940185 0.511762 0.221207
O O6 0.802046 0.638341 0.360637
O O7 0.750000 0.750000 0.500000
O O8 0.517278 0.581618 0.668446
O O9 0.511298 0.639649 0.567965
O O10 0.821223 0.536227 0.470244
O O11 0.684250 0.030275 0.331028
O O12 0.000000 0.075568 0.250000
O O13 0.000000 0.000000 0.000000
#
# Coordination Sequence:
#
# PCOD9278254 Si02
#       6
#     8   4   8   8   8   8
#     4  12  24  46  71 101 140 184 234 299 347 411
#     4  10  20  42  68  96 134 176 242 280 332 424
#     4  11  26  47  69 101 138 188 233 287 350 419
#     4  12  28  47  66 107 146 181 231 287 361 420
#     4  11  25  44  71 101 140 184 238 284 356 411
#     4  11  21  43  70  96 135 177 240 283 338 415
#
# _framework density 22.305993000000001
#
# number of rings (size 3 to 8) (size 9 to 14) (size 15 to 20)
#    0.000    0.727    5.455    1.091    6.364    2.182 
#    1.636    0.000    0.000    0.000    0.000    0.000 
#    0.000    0.000    0.000    0.000    0.000    0.000 
#
# Total GULP energy -122610.335475 kJ/mol
# GULP energy per Si atom -5573.197067 kJ/mol
# Density = 2.225522 g / cm^3
# Si number density = 22.305993 Si / 1000 Ang^3
#
#
#
# Elastic Constant Matrix: (Units=GPa)
#
#
# Indices 1 2 3 4 5 6 
#
# 1 154.6972 4.9274 9.6237 0.0001 -8.2791 0.0000
# 2 4.9274 65.4111 -14.0921 0.0000 -4.3821 0.0000
# 3 9.6237 -14.0921 53.0022 -0.0004 -15.2121 0.0001
# 4 0.0001 0.0000 -0.0004 22.4925 -0.0002 -5.3573
# 5 -8.2791 -4.3821 -15.2121 -0.0002 31.8607 0.0000
# 6 0.0000 0.0000 0.0001 -5.3573 0.0000 43.0952
#
#
#
# Elastic Compliance Matrix: (Units=1/GPa)
#
#
# Indices 1 2 3 4 5 6 
#
# 1 0.006611 -0.000648 -0.001049 0.000000 0.001128 0.000000
# 2 -0.000648 0.016989 0.006092 0.000000 0.005077 0.000000
# 3 -0.001049 0.006092 0.024149 0.000000 0.012095 0.000000
# 4 0.000000 0.000000 0.000000 0.045816 0.000000 0.005696
# 5 0.001128 0.005077 0.012095 0.000000 0.038153 0.000000
# 6 0.000000 0.000000 0.000000 0.005696 0.000000 0.023912
#
#
# Mechanical properties :
#
#
# Convention : Reuss Voigt Hill
#
# Bulk Modulus (GPa) = 17.68732 30.44760 24.06746
# Shear Modulus (GPa) = 30.17742 37.66644 33.92193
#
# Velocity S-wave (km/s) = 3.68215 4.11375 3.90392
# Velocity P-wave (km/s) = 5.10140 6.02025 5.57977
#
# Compressibility (1/GPa) = 0.05653768
#
# Stress axis : x y z
#
# Youngs Moduli (GPa) = 151.27433 58.86046 41.40989
#
# Poissons Ratio (x) = 0.03817 0.04344
# Poissons Ratio (y) = 0.09809 -0.25227
# Poissons Ratio (z) = 0.15869 -0.35857
#
# Static dielectric constant tensor:
#      x y z
#    x 1.727040 0.000000 0.052680 
#    y 0.000000 0.919440 0.000010 
#    z 0.052680 0.000010 1.803430 
# 
# From -- ./inp_files/142227.got.cif
#   From: 2010.05.17/outbox.cif.g08.bks.cpg/sg15_72_cif.got.tgz:142227.got - 2010.06.03 18:47:42.
