data_PCOD9278825
_publ_section_title
;
Structure prediction by ZEFSAII (Michael W. Deem and Ramdas Pophale) SiO2 
 PCOD9278825
Probable space group: C 2/C
;
_chemical_formula_sum "Si O2"
_cell_formula_units_Z 44
_cell_length_a 20.385929
_cell_length_b 4.953156
_cell_length_c 19.663426
_cell_angle_alpha 90.000000
_cell_angle_beta 114.633597
_cell_angle_gamma 90.000000
_cell_volume 1804.810851
_symmetry_space_group_name_H-M "C 2/C"
_symmetry_group_IT_number 15
_symmetry_cell_setting 'monoclinic'
loop_
_space_group_symop_operation_xyz
x,y,z
-x,y,1/2-z
-x,-y,-z
x,-y,1/2+z
1/2+x,1/2+y,z
1/2-x,1/2+y,1/2-z
1/2-x,1/2-y,-z
1/2+x,1/2-y,1/2+z
loop_
_atom_site_type_symbol
_atom_site_label
_atom_site_fract_x
_atom_site_fract_y
_atom_site_fract_z
Si Si1 0.649843 0.617445 0.853108
Si Si2 0.564563 0.802956 0.510646
Si Si3 0.443797 0.449261 0.869559
Si Si4 0.676055 0.891203 0.449161
Si Si5 0.704794 0.324509 0.742375
Si Si6 0.500000 0.653017 0.750000
O O1 0.635996 0.341563 0.888224
O O2 0.687204 0.500625 0.802177
O O3 0.574734 0.780608 0.807251
O O4 0.691961 0.835855 0.915332
O O5 0.588098 0.671600 0.591840
O O6 0.519176 0.609958 0.440471
O O7 0.628198 0.938886 0.495644
O O8 0.500000 0.000000 0.500000
O O9 0.372460 0.265260 0.827233
O O10 0.469484 0.508050 0.804109
O O11 0.750000 0.750000 0.500000
O O12 0.744738 0.043058 0.774758
#
# Coordination Sequence:
#
# PCOD9278825 Si02
#       6
#     8   8   8   8   8   4
#     4  11  25  46  72 105 140 192 242 299 370 434
#     4  11  25  44  73 104 143 195 248 302 365 439
#     4  10  24  44  70 101 142 186 243 300 362 437
#     4  12  27  46  73 105 149 193 243 305 369 443
#     4  11  26  45  72 105 146 188 239 301 369 436
#     4  10  20  48  70 104 140 184 244 306 358 440
#
# _framework density 24.379283999999998
#
# number of rings (size 3 to 8) (size 9 to 14) (size 15 to 20)
#    0.000    1.091    1.818    2.727   10.182    0.727 
#    3.273    0.000    0.000    0.000    0.000    0.000 
#    0.000    0.000    0.000    0.000    0.000    0.000 
#
# Total GULP energy -122636.861920 kJ/mol
# GULP energy per Si atom -5574.402815 kJ/mol
# Density = 2.432380 g / cm^3
# Si number density = 24.379284 Si / 1000 Ang^3
#
#
#
# Elastic Constant Matrix: (Units=GPa)
#
#
# Indices 1 2 3 4 5 6 
#
# 1 97.9031 2.3351 27.0903 0.0000 -12.3715 0.0000
# 2 2.3351 83.1662 18.7215 0.0005 -11.3400 -0.0002
# 3 27.0903 18.7215 80.3486 0.0001 -14.3149 -0.0001
# 4 0.0000 0.0005 0.0001 8.4128 0.0001 -2.1151
# 5 -12.3715 -11.3400 -14.3149 0.0001 46.9402 0.0000
# 6 0.0000 -0.0002 -0.0001 -2.1151 0.0000 23.8326
#
#
#
# Elastic Compliance Matrix: (Units=1/GPa)
#
#
# Indices 1 2 3 4 5 6 
#
# 1 0.011479 0.000792 -0.003682 0.000000 0.002094 0.000000
# 2 0.000792 0.012981 -0.002851 -0.000001 0.002475 0.000000
# 3 -0.003682 -0.002851 0.014863 0.000000 0.002874 0.000000
# 4 0.000000 -0.000001 0.000000 0.121580 -0.000001 0.010790
# 5 0.002094 0.002475 0.002874 -0.000001 0.023330 0.000000
# 6 0.000000 0.000000 0.000000 0.010790 0.000000 0.042917
#
#
# Mechanical properties :
#
#
# Convention : Reuss Voigt Hill
#
# Bulk Modulus (GPa) = 35.91642 39.74576 37.83109
# Shear Modulus (GPa) = 20.16853 30.05519 25.11186
#
# Velocity S-wave (km/s) = 2.87937 3.51496 3.21292
# Velocity P-wave (km/s) = 5.08121 5.72815 5.41435
#
# Compressibility (1/GPa) = 0.02784242
#
# Stress axis : x y z
#
# Youngs Moduli (GPa) = 87.11858 77.03497 67.28007
#
# Poissons Ratio (x) = -0.06101 0.24770
# Poissons Ratio (y) = -0.06900 0.19179
# Poissons Ratio (z) = 0.32074 0.21960
#
# Static dielectric constant tensor:
#      x y z
#    x 1.974330 0.000000 0.031100 
#    y 0.000000 2.163940 0.000000 
#    z 0.031100 0.000000 1.976920 
# 
# From -- ./inp_files/212950.got.cif
#   From: 2010.05.17/outbox.cif.g08.bks.cpg/sg15_107_cif.got.tgz:212950.got - 2010.06.03 18:47:42.
