data_PCOD9278529
_publ_section_title
;
Structure prediction by ZEFSAII (Michael W. Deem and Ramdas Pophale) SiO2 
 PCOD9278529
Probable space group: C 2/C
;
_chemical_formula_sum "Si O2"
_cell_formula_units_Z 60
_cell_length_a 11.536074
_cell_length_b 17.606565
_cell_length_c 14.017727
_cell_angle_alpha 90.000000
_cell_angle_beta 85.048557
_cell_angle_gamma 90.000000
_cell_volume 2836.524473
_symmetry_space_group_name_H-M "C 2/C"
_symmetry_group_IT_number 15
_symmetry_cell_setting 'monoclinic'
loop_
_space_group_symop_operation_xyz
x,y,z
-x,y,1/2-z
-x,-y,-z
x,-y,1/2+z
1/2+x,1/2+y,z
1/2-x,1/2+y,1/2-z
1/2-x,1/2-y,-z
1/2+x,1/2-y,1/2+z
loop_
_atom_site_type_symbol
_atom_site_label
_atom_site_fract_x
_atom_site_fract_y
_atom_site_fract_z
Si Si1 0.783984 0.741242 0.242678
Si Si2 0.500000 0.349567 0.250000
Si Si3 0.563095 0.885712 0.846155
Si Si4 0.340718 0.703680 0.060004
Si Si5 0.291402 0.035475 0.655831
Si Si6 0.963179 0.648385 0.543792
Si Si7 0.625069 0.125230 0.687071
Si Si8 0.939053 0.938483 0.435812
O O1 0.845278 0.682554 0.168026
O O2 0.721767 0.696926 0.333399
O O3 0.692191 0.796754 0.199502
O O4 0.887519 0.796077 0.273563
O O5 0.514803 0.398204 0.346186
O O6 0.500000 0.892736 0.750000
O O7 0.629150 0.962817 0.863852
O O8 0.468910 0.866918 0.932312
O O9 0.447509 0.762732 0.064862
O O10 0.250000 0.750000 0.000000
O O11 0.384844 0.627647 0.006682
O O12 0.353943 0.105496 0.597603
O O13 0.299769 0.060020 0.766566
O O14 0.165768 0.025640 0.619288
O O15 0.082036 0.616651 0.582291
O O16 0.500000 0.126715 0.750000
O O17 0.000000 0.000000 0.500000
#
# Coordination Sequence:
#
# PCOD9278529 Si02
#       8
#     8   4   8   8   8   8   8   8
#     4  12  23  41  75  99 137 190 234 298 350 434
#     4  12  22  48  70 104 150 186 244 294 372 428
#     4  12  26  39  65 109 137 168 239 304 353 412
#     4  12  20  44  72  96 134 192 248 275 355 454
#     4  11  23  46  66  97 145 188 229 286 375 426
#     4  11  22  42  73  98 132 189 238 291 351 431
#     4  10  20  43  70  95 133 188 230 276 349 432
#     4  12  28  45  73 108 147 197 238 304 376 446
#
# _framework density 21.152646000000001
#
# number of rings (size 3 to 8) (size 9 to 14) (size 15 to 20)
#    0.000    0.533    7.333    3.200    0.000    3.733 
#    0.000    0.000    0.000    0.000    0.000    0.000 
#    0.000    0.000    0.000    0.000    0.000    0.000 
#
# Total GULP energy -167672.296229 kJ/mol
# GULP energy per Si atom -5589.076541 kJ/mol
# Density = 2.110450 g / cm^3
# Si number density = 21.152646 Si / 1000 Ang^3
#
#
#
# Elastic Constant Matrix: (Units=GPa)
#
#
# Indices 1 2 3 4 5 6 
#
# 1 87.2460 24.4229 21.8071 0.0000 21.0174 0.0000
# 2 24.4229 85.4734 8.8786 0.0000 5.3256 0.0000
# 3 21.8071 8.8786 89.1961 0.0000 5.7947 0.0000
# 4 0.0000 0.0000 0.0000 20.7938 0.0000 5.0480
# 5 21.0174 5.3256 5.7947 0.0000 30.0729 0.0000
# 6 0.0000 0.0000 0.0000 5.0480 0.0000 27.1741
#
#
#
# Elastic Compliance Matrix: (Units=1/GPa)
#
#
# Indices 1 2 3 4 5 6 
#
# 1 0.015476 -0.003529 -0.002805 0.000000 -0.009650 0.000000
# 2 -0.003529 0.012734 -0.000424 0.000000 0.000293 0.000000
# 3 -0.002805 -0.000424 0.011957 0.000000 -0.000268 0.000000
# 4 0.000000 0.000000 0.000000 0.050363 0.000000 -0.009356
# 5 -0.009650 0.000293 -0.000268 0.000000 0.039997 0.000000
# 6 0.000000 0.000000 0.000000 -0.009356 0.000000 0.038538
#
#
# Mechanical properties :
#
#
# Convention : Reuss Voigt Hill
#
# Bulk Modulus (GPa) = 37.52421 41.34807 39.43614
# Shear Modulus (GPa) = 26.11475 29.39531 27.75503
#
# Velocity S-wave (km/s) = 3.51748 3.73188 3.62626
# Velocity P-wave (km/s) = 5.85449 6.17731 6.01807
#
# Compressibility (1/GPa) = 0.02664946
#
# Stress axis : x y z
#
# Youngs Moduli (GPa) = 64.61752 78.53155 83.63502
#
# Poissons Ratio (x) = 0.27716 0.23462
# Poissons Ratio (y) = 0.22805 0.03544
# Poissons Ratio (z) = 0.18127 0.03327
#
# Static dielectric constant tensor:
#      x y z
#    x 1.792780 0.000000 0.022700 
#    y 0.000000 1.765940 0.000000 
#    z 0.022700 0.000000 1.798590 
# 
# From -- ./inp_files/145646.got.cif
#   From: 2010.05.17/outbox.cif.g08.bks.cpg/sg15_73_cif.got.tgz:145646.got - 2010.06.03 18:47:42.
