data_PCOD9278953
_publ_section_title
;
Structure prediction by ZEFSAII (Michael W. Deem and Ramdas Pophale) SiO2 
 PCOD9278953
Probable space group: C 2/C
;
_chemical_formula_sum "Si O2"
_cell_formula_units_Z 64
_cell_length_a 14.814299
_cell_length_b 22.625262
_cell_length_c 13.226013
_cell_angle_alpha 90.000000
_cell_angle_beta 143.250782
_cell_angle_gamma 90.000000
_cell_volume 2652.360733
_symmetry_space_group_name_H-M "C 2/C"
_symmetry_group_IT_number 15
_symmetry_cell_setting 'monoclinic'
loop_
_space_group_symop_operation_xyz
x,y,z
-x,y,1/2-z
-x,-y,-z
x,-y,1/2+z
1/2+x,1/2+y,z
1/2-x,1/2+y,1/2-z
1/2-x,1/2-y,-z
1/2+x,1/2-y,1/2+z
loop_
_atom_site_type_symbol
_atom_site_label
_atom_site_fract_x
_atom_site_fract_y
_atom_site_fract_z
Si Si1 0.670835 0.154610 0.938480
Si Si2 0.737860 0.439710 0.520990
Si Si3 0.968531 0.218613 0.551649
Si Si4 0.299099 0.968686 0.230301
Si Si5 0.585497 0.408425 0.179974
Si Si6 0.637763 0.169631 0.266319
Si Si7 0.624006 0.081534 0.069020
Si Si8 0.086638 0.220317 0.434747
O O1 0.500000 0.145457 0.750000
O O2 0.663732 0.215575 0.995756
O O3 0.715565 0.102558 0.053375
O O4 0.784447 0.170271 0.950872
O O5 0.798715 0.501353 0.619262
O O6 0.691117 0.434578 0.363062
O O7 0.584022 0.429511 0.447756
O O8 0.847789 0.384785 0.642762
O O9 0.073159 0.162666 0.676894
O O10 0.014660 0.278912 0.648172
O O11 0.989721 0.221324 0.448990
O O12 0.796932 0.202849 0.419378
O O13 0.153492 0.932448 0.136571
O O14 0.451394 0.931884 0.384013
O O15 0.312499 0.024814 0.317375
O O16 0.627445 0.134822 0.151277
O O17 0.000000 0.212192 0.250000
#
# Coordination Sequence:
#
# PCOD9278953 Si02
#       8
#     8   8   8   8   8   8   8   8
#     4  10  21  33  55  82 124 162 203 263 317 371
#     4   9  21  45  64  93 131 169 214 284 330 387
#     4  11  23  37  66  93 130 176 223 268 338 396
#     4  10  22  39  69  92 121 171 221 269 337 386
#     4  10  22  40  68  93 129 169 218 272 336 396
#     4  10  22  39  64  92 132 172 215 276 327 395
#     4  10  21  40  60  90 129 166 213 274 327 387
#     4  10  21  35  53  87 123 167 210 255 321 393
#
# _framework density 24.129448
#
# number of rings (size 3 to 8) (size 9 to 14) (size 15 to 20)
#    0.000    2.000    1.250    1.125    7.000    1.500 
#    0.000    5.000    0.000    0.000    0.000    0.000 
#    0.000    0.000    0.000    0.000    0.000    0.000 
#
# Total GULP energy -178981.240719 kJ/mol
# GULP energy per Si atom -5593.163772 kJ/mol
# Density = 2.407453 g / cm^3
# Si number density = 24.129448 Si / 1000 Ang^3
#
#
#
# Elastic Constant Matrix: (Units=GPa)
#
#
# Indices 1 2 3 4 5 6 
#
# 1 60.5086 28.6058 24.0230 0.0000 -1.2975 0.0000
# 2 28.6058 99.2067 46.9631 0.0000 2.3286 0.0000
# 3 24.0230 46.9631 106.4674 0.0000 -8.3504 0.0000
# 4 0.0000 0.0000 0.0000 38.1802 0.0000 -4.2096
# 5 -1.2975 2.3286 -8.3504 0.0000 15.0256 0.0000
# 6 0.0000 0.0000 0.0000 -4.2096 0.0000 25.5531
#
#
#
# Elastic Compliance Matrix: (Units=1/GPa)
#
#
# Indices 1 2 3 4 5 6 
#
# 1 0.019642 -0.004592 -0.002318 0.000000 0.001119 0.000000
# 2 -0.004592 0.014236 -0.005696 0.000000 -0.005768 0.000000
# 3 -0.002318 -0.005696 0.013050 0.000000 0.007935 0.000000
# 4 0.000000 0.000000 0.000000 0.026676 0.000000 0.004395
# 5 0.001119 -0.005768 0.007935 0.000000 0.071954 0.000000
# 6 0.000000 0.000000 0.000000 0.004395 0.000000 0.039858
#
#
# Mechanical properties :
#
#
# Convention : Reuss Voigt Hill
#
# Bulk Modulus (GPa) = 46.05053 51.70739 48.87896
# Shear Modulus (GPa) = 22.94969 26.85783 24.90376
#
# Velocity S-wave (km/s) = 3.08735 3.33989 3.21610
# Velocity P-wave (km/s) = 5.64227 6.02900 5.83884
#
# Compressibility (1/GPa) = 0.02171528
#
# Stress axis : x y z
#
# Youngs Moduli (GPa) = 50.91085 70.24539 76.62600
#
# Poissons Ratio (x) = 0.32260 0.17765
# Poissons Ratio (y) = 0.23381 0.43643
# Poissons Ratio (z) = 0.11803 0.40009
#
# Static dielectric constant tensor:
#      x y z
#    x 1.938580 0.000000 -0.003770 
#    y 0.000000 1.914890 0.000000 
#    z -0.003770 0.000000 1.917870 
# 
# From -- ./inp_files/164250.got.cif
#   From: 2010.05.17/outbox.cif.g08.bks.cpg/sg15_83_cif.got.tgz:164250.got - 2010.06.03 18:47:42.
