data_PCOD9278731
_publ_section_title
;
Structure prediction by ZEFSAII (Michael W. Deem and Ramdas Pophale) SiO2 
 PCOD9278731
Probable space group: C 2/C
;
_chemical_formula_sum "Si O2"
_cell_formula_units_Z 56
_cell_length_a 24.876336
_cell_length_b 9.019985
_cell_length_c 10.325292
_cell_angle_alpha 90.000000
_cell_angle_beta 71.582229
_cell_angle_gamma 90.000000
_cell_volume 2198.159524
_symmetry_space_group_name_H-M "C 2/C"
_symmetry_group_IT_number 15
_symmetry_cell_setting 'monoclinic'
loop_
_space_group_symop_operation_xyz
x,y,z
-x,y,1/2-z
-x,-y,-z
x,-y,1/2+z
1/2+x,1/2+y,z
1/2-x,1/2+y,1/2-z
1/2-x,1/2-y,-z
1/2+x,1/2-y,1/2+z
loop_
_atom_site_type_symbol
_atom_site_label
_atom_site_fract_x
_atom_site_fract_y
_atom_site_fract_z
Si Si1 0.795886 0.800590 0.634838
Si Si2 0.426056 0.658528 0.368761
Si Si3 0.088619 0.819358 0.108632
Si Si4 0.324307 0.181413 0.899789
Si Si5 0.718428 0.015515 0.355165
Si Si6 0.525748 0.184269 0.920581
Si Si7 0.894735 0.564176 0.213780
O O1 0.850191 0.831553 0.507309
O O2 0.814254 0.738637 0.762847
O O3 0.755728 0.935130 0.704299
O O4 0.766863 0.649076 0.608033
O O5 0.436162 0.484162 0.364278
O O6 0.360569 0.692247 0.442051
O O7 0.441160 0.715445 0.212873
O O8 0.462733 0.759988 0.437789
O O9 0.096134 0.726700 0.234797
O O10 0.048588 0.726693 0.043080
O O11 0.365941 0.037741 0.848053
O O12 0.274636 0.122016 0.027618
O O13 0.653389 0.045876 0.359633
O O14 0.547135 0.018899 0.870052
#
# Coordination Sequence:
#
# PCOD9278731 Si02
#       7
#     8   8   8   8   8   8   8
#     4  11  24  40  65  93 136 170 228 275 333 395
#     4  10  23  38  70  94 129 177 217 271 340 391
#     4  12  22  42  68 101 137 169 224 284 323 400
#     4  10  20  45  62  89 135 179 213 277 338 391
#     4  11  23  41  63  96 131 180 226 270 333 401
#     4  10  21  48  63  96 139 172 221 270 337 409
#     4  10  21  42  68  91 136 175 217 280 326 397
#
# _framework density 25.475859
#
# number of rings (size 3 to 8) (size 9 to 14) (size 15 to 20)
#    0.000    1.429    5.714    0.857    2.000    2.857 
#    0.000   20.000    0.000    0.000    0.000    0.000 
#    0.000    0.000    0.000    0.000    0.000    0.000 
#
# Total GULP energy -156652.362846 kJ/mol
# GULP energy per Si atom -5594.727244 kJ/mol
# Density = 2.541787 g / cm^3
# Si number density = 25.475859 Si / 1000 Ang^3
#
#
#
# Elastic Constant Matrix: (Units=GPa)
#
#
# Indices 1 2 3 4 5 6 
#
# 1 51.9684 15.0789 12.9562 0.0000 1.9339 0.0000
# 2 15.0789 126.7876 22.1984 0.0000 2.8200 0.0000
# 3 12.9562 22.1984 91.7146 0.0000 -4.5819 0.0000
# 4 0.0000 0.0000 0.0000 34.0247 0.0000 -0.9246
# 5 1.9339 2.8200 -4.5819 0.0000 35.4049 0.0000
# 6 0.0000 0.0000 0.0000 -0.9246 0.0000 34.3123
#
#
#
# Elastic Compliance Matrix: (Units=1/GPa)
#
#
# Indices 1 2 3 4 5 6 
#
# 1 0.020481 -0.001973 -0.002480 0.000000 -0.001283 0.000000
# 2 -0.001973 0.008456 -0.001808 0.000000 -0.000800 0.000000
# 3 -0.002480 -0.001808 0.011781 0.000000 0.001804 0.000000
# 4 0.000000 0.000000 0.000000 0.029412 0.000000 0.000793
# 5 -0.001283 -0.000800 0.001804 0.000000 0.028612 0.000000
# 6 0.000000 0.000000 0.000000 0.000793 0.000000 0.029165
#
#
# Mechanical properties :
#
#
# Convention : Reuss Voigt Hill
#
# Bulk Modulus (GPa) = 35.46491 41.21531 38.34011
# Shear Modulus (GPa) = 33.37149 35.43085 34.40117
#
# Velocity S-wave (km/s) = 3.62322 3.73334 3.67869
# Velocity P-wave (km/s) = 5.60846 5.89890 5.75551
#
# Compressibility (1/GPa) = 0.02819689
#
# Stress axis : x y z
#
# Youngs Moduli (GPa) = 48.82588 118.25649 84.87939
#
# Poissons Ratio (x) = 0.23333 0.21048
# Poissons Ratio (y) = 0.09634 0.15346
# Poissons Ratio (z) = 0.12108 0.21380
#
# Static dielectric constant tensor:
#      x y z
#    x 2.095820 0.000000 -0.027840 
#    y 0.000000 2.053430 0.000000 
#    z -0.027840 0.000000 2.025870 
# 
# From -- ./inp_files/125834.got.cif
#   From: 2010.05.17/outbox.cif.g08.bks.cpg/sg15_63_cif.got.tgz:125834.got - 2010.06.03 18:47:42.
