data_PCOD9278357
_publ_section_title
;
Structure prediction by ZEFSAII (Michael W. Deem and Ramdas Pophale) SiO2 
 PCOD9278357
Probable space group: C 2/C
;
_chemical_formula_sum "Si O2"
_cell_formula_units_Z 52
_cell_length_a 11.760525
_cell_length_b 14.217012
_cell_length_c 14.903350
_cell_angle_alpha 90.000000
_cell_angle_beta 70.442607
_cell_angle_gamma 90.000000
_cell_volume 2348.070833
_symmetry_space_group_name_H-M "C 2/C"
_symmetry_group_IT_number 15
_symmetry_cell_setting 'monoclinic'
loop_
_space_group_symop_operation_xyz
x,y,z
-x,y,1/2-z
-x,-y,-z
x,-y,1/2+z
1/2+x,1/2+y,z
1/2-x,1/2+y,1/2-z
1/2-x,1/2-y,-z
1/2+x,1/2-y,1/2+z
loop_
_atom_site_type_symbol
_atom_site_label
_atom_site_fract_x
_atom_site_fract_y
_atom_site_fract_z
Si Si1 0.500000 0.476364 0.250000
Si Si2 0.894617 0.041183 0.466325
Si Si3 0.303266 0.014526 0.357259
Si Si4 0.583613 0.270206 0.602051
Si Si5 0.689692 0.680218 0.266446
Si Si6 0.005783 0.559711 0.908762
Si Si7 0.758351 0.877079 0.267495
O O1 0.438268 0.526887 0.352011
O O2 0.389248 0.417791 0.244587
O O3 0.877420 0.153379 0.482224
O O4 0.777696 0.984336 0.530950
O O5 0.000000 0.000000 0.500000
O O6 0.250172 0.087988 0.296474
O O7 0.441071 0.008664 0.353061
O O8 0.281258 0.912794 0.319225
O O9 0.445866 0.301770 0.662166
O O10 0.668573 0.297354 0.665579
O O11 0.564574 0.161289 0.577279
O O12 0.766505 0.767228 0.280420
O O13 0.145995 0.582786 0.854141
O O14 0.000000 0.500000 0.000000
#
# Coordination Sequence:
#
# PCOD9278357 Si02
#       7
#     4   8   8   8   8   8   8
#     4  12  24  46  72 106 144 186 246 310 368 436
#     4  12  23  41  71 108 137 182 245 311 355 433
#     4  12  23  44  71 108 143 185 254 304 364 440
#     4  10  20  42  72 100 140 194 246 292 369 440
#     4  10  21  41  73 100 139 197 236 299 371 426
#     4  11  25  46  68 103 150 199 240 301 378 452
#     4  11  23  46  69 101 146 189 241 302 372 439
#
# _framework density 22.145838999999999
#
# number of rings (size 3 to 8) (size 9 to 14) (size 15 to 20)
#    0.000    0.923    4.615    3.231    0.000    0.615 
#    8.308    2.308    0.000    0.000    0.000    0.000 
#    0.000    0.000    0.000    0.000    0.000    0.000 
#
# Total GULP energy -144758.274654 kJ/mol
# GULP energy per Si atom -5567.625948 kJ/mol
# Density = 2.209543 g / cm^3
# Si number density = 22.145839 Si / 1000 Ang^3
#
#
#
# Elastic Constant Matrix: (Units=GPa)
#
#
# Indices 1 2 3 4 5 6 
#
# 1 38.5957 10.7549 -7.6105 0.0000 13.1598 0.0000
# 2 10.7549 119.4674 39.2432 0.0000 6.6401 0.0000
# 3 -7.6105 39.2432 94.4071 0.0000 5.4809 0.0000
# 4 0.0000 0.0000 0.0000 26.4774 0.0000 -2.4626
# 5 13.1598 6.6401 5.4809 0.0000 31.1548 0.0000
# 6 0.0000 0.0000 0.0000 -2.4626 0.0000 14.8900
#
#
#
# Elastic Compliance Matrix: (Units=1/GPa)
#
#
# Indices 1 2 3 4 5 6 
#
# 1 0.032702 -0.003825 0.005032 0.000000 -0.013883 0.000000
# 2 -0.003825 0.010200 -0.004563 0.000000 0.000245 0.000000
# 3 0.005032 -0.004563 0.013095 0.000000 -0.003457 0.000000
# 4 0.000000 0.000000 0.000000 0.038358 0.000000 0.006344
# 5 -0.013883 0.000245 -0.003457 0.000000 0.038518 0.000000
# 6 0.000000 0.000000 0.000000 0.006344 0.000000 0.068208
#
#
# Mechanical properties :
#
#
# Convention : Reuss Voigt Hill
#
# Bulk Modulus (GPa) = 20.28978 37.47171 28.88074
# Shear Modulus (GPa) = 22.29942 28.50994 25.40468
#
# Velocity S-wave (km/s) = 3.17667 3.59189 3.39064
# Velocity P-wave (km/s) = 4.75781 5.84460 5.32898
#
# Compressibility (1/GPa) = 0.04928590
#
# Stress axis : x y z
#
# Youngs Moduli (GPa) = 30.57956 98.03945 76.36305
#
# Poissons Ratio (x) = 0.37503 -0.38428
# Poissons Ratio (y) = 0.11698 0.34841
# Poissons Ratio (z) = -0.15389 0.44731
#
# Static dielectric constant tensor:
#      x y z
#    x 1.883390 0.000000 -0.060100 
#    y 0.000000 1.878170 0.000000 
#    z -0.060100 0.000000 1.924690 
# 
# From -- ./inp_files/144152.got.cif
#   From: 2010.05.17/outbox.cif.g08.bks.cpg/sg15_73_cif.got.tgz:144152.got - 2010.06.03 18:47:42.
