data_PCOD9278510
_publ_section_title
;
Structure prediction by ZEFSAII (Michael W. Deem and Ramdas Pophale) SiO2 
 PCOD9278510
Probable space group: C 2/C
;
_chemical_formula_sum "Si O2"
_cell_formula_units_Z 56
_cell_length_a 17.514532
_cell_length_b 9.268243
_cell_length_c 18.986091
_cell_angle_alpha 90.000000
_cell_angle_beta 70.604983
_cell_angle_gamma 90.000000
_cell_volume 2907.093708
_symmetry_space_group_name_H-M "C 2/C"
_symmetry_group_IT_number 15
_symmetry_cell_setting 'monoclinic'
loop_
_space_group_symop_operation_xyz
x,y,z
-x,y,1/2-z
-x,-y,-z
x,-y,1/2+z
1/2+x,1/2+y,z
1/2-x,1/2+y,1/2-z
1/2-x,1/2-y,-z
1/2+x,1/2-y,1/2+z
loop_
_atom_site_type_symbol
_atom_site_label
_atom_site_fract_x
_atom_site_fract_y
_atom_site_fract_z
Si Si1 0.030464 0.072990 0.562339
Si Si2 0.537072 0.216289 0.311356
Si Si3 0.982846 0.190509 0.338632
Si Si4 0.895639 0.511731 0.889035
Si Si5 0.835037 0.738566 0.676124
Si Si6 0.804519 0.456910 0.776820
Si Si7 0.829793 0.697751 0.515403
O O1 0.103075 0.180533 0.521497
O O2 0.965707 0.171278 0.624101
O O3 0.000000 0.000000 0.500000
O O4 0.052308 0.949394 0.611899
O O5 0.500000 0.281205 0.250000
O O6 0.474583 0.085711 0.346803
O O7 0.624933 0.149828 0.272576
O O8 0.070572 0.224759 0.345155
O O9 0.000000 0.174983 0.250000
O O10 0.924608 0.325160 0.372418
O O11 0.827626 0.479975 0.851329
O O12 0.862126 0.452226 0.972830
O O13 0.812534 0.608783 0.735148
O O14 0.780752 0.879104 0.706960
O O15 0.817192 0.688829 0.602204
O O16 0.750000 0.750000 0.500000
#
# Coordination Sequence:
#
# PCOD9278510 Si02
#       7
#     8   8   8   8   8   8   8
#     4  11  24  38  63  96 130 164 215 273 317 378
#     4   9  19  39  64  89 121 175 215 248 322 397
#     4  12  23  42  67 100 130 166 221 274 318 377
#     4  10  20  43  69  88 130 174 212 260 323 391
#     4  12  25  40  69  97 133 170 219 269 325 385
#     4  11  23  41  64  99 132 168 214 273 327 378
#     4  11  24  45  66  91 132 177 212 259 332 394
#
# _framework density 19.263224999999998
#
# number of rings (size 3 to 8) (size 9 to 14) (size 15 to 20)
#    0.000    1.143    5.714    0.857    2.000    2.857 
#    0.000    0.714    0.000    0.000    0.000    0.000 
#    0.000    0.000    0.000    0.000    0.000    0.000 
#
# Total GULP energy -156437.525139 kJ/mol
# GULP energy per Si atom -5587.054469 kJ/mol
# Density = 1.921938 g / cm^3
# Si number density = 19.263225 Si / 1000 Ang^3
#
#
#
# Elastic Constant Matrix: (Units=GPa)
#
#
# Indices 1 2 3 4 5 6 
#
# 1 53.2941 -7.6545 -16.2832 0.0000 4.9968 0.0000
# 2 -7.6545 86.0575 6.2393 0.0000 0.9895 0.0000
# 3 -16.2832 6.2393 39.3023 0.0000 12.7549 0.0000
# 4 0.0000 0.0000 0.0000 30.9317 0.0000 7.5366
# 5 4.9968 0.9895 12.7549 0.0000 24.9244 0.0000
# 6 0.0000 0.0000 0.0000 7.5366 0.0000 20.8067
#
#
#
# Elastic Compliance Matrix: (Units=1/GPa)
#
#
# Indices 1 2 3 4 5 6 
#
# 1 0.024261 0.001301 0.013719 0.000000 -0.011936 0.000000
# 2 0.001301 0.011832 -0.001322 0.000000 -0.000054 0.000000
# 3 0.013719 -0.001322 0.038628 0.000000 -0.022466 0.000000
# 4 0.000000 0.000000 0.000000 0.035459 0.000000 -0.012844
# 5 -0.011936 -0.000054 -0.022466 0.000000 0.054013 0.000000
# 6 0.000000 0.000000 0.000000 -0.012844 0.000000 0.052714
#
#
# Mechanical properties :
#
#
# Convention : Reuss Voigt Hill
#
# Bulk Modulus (GPa) = 9.79274 15.91746 12.85510
# Shear Modulus (GPa) = 22.36619 28.42271 25.39445
#
# Velocity S-wave (km/s) = 3.41116 3.84538 3.63476
# Velocity P-wave (km/s) = 4.53976 5.29122 4.92983
#
# Compressibility (1/GPa) = 0.10211649
#
# Stress axis : x y z
#
# Youngs Moduli (GPa) = 41.21791 84.51455 25.88775
#
# Poissons Ratio (x) = -0.10992 -0.35515
# Poissons Ratio (y) = -0.05361 0.03422
# Poissons Ratio (z) = -0.56546 0.11173
#
# Static dielectric constant tensor:
#      x y z
#    x 1.647820 0.000000 0.008470 
#    y 0.000000 1.670580 0.000000 
#    z 0.008470 0.000000 1.669500 
# 
# From -- ./inp_files/209512.got.cif
#   From: 2010.05.17/outbox.cif.g08.bks.cpg/sg15_105_cif.got.tgz:209512.got - 2010.06.03 18:47:42.
