data_PCOD9278222
_publ_section_title
;
Structure prediction by ZEFSAII (Michael W. Deem and Ramdas Pophale) SiO2 
 PCOD9278222
Probable space group: C 2/C
;
_chemical_formula_sum "Si O2"
_cell_formula_units_Z 52
_cell_length_a 19.688504
_cell_length_b 22.640479
_cell_length_c 8.607917
_cell_angle_alpha 90.000000
_cell_angle_beta 136.167982
_cell_angle_gamma 90.000000
_cell_volume 2657.328685
_symmetry_space_group_name_H-M "C 2/C"
_symmetry_group_IT_number 15
_symmetry_cell_setting 'monoclinic'
loop_
_space_group_symop_operation_xyz
x,y,z
-x,y,1/2-z
-x,-y,-z
x,-y,1/2+z
1/2+x,1/2+y,z
1/2-x,1/2+y,1/2-z
1/2-x,1/2-y,-z
1/2+x,1/2-y,1/2+z
loop_
_atom_site_type_symbol
_atom_site_label
_atom_site_fract_x
_atom_site_fract_y
_atom_site_fract_z
Si Si1 0.171183 0.833371 0.814591
Si Si2 0.793594 0.058407 0.360432
Si Si3 0.500000 0.848282 0.250000
Si Si4 0.863888 0.699528 0.780650
Si Si5 0.401583 0.461659 0.353201
Si Si6 0.500000 0.374490 0.750000
Si Si7 0.500000 0.867468 0.750000
Si Si8 0.923704 0.555167 0.379842
O O1 0.193844 0.881973 0.720170
O O2 0.163386 0.767353 0.733311
O O3 0.070692 0.842861 0.743241
O O4 0.262006 0.834544 0.084965
O O5 0.866722 0.060794 0.628395
O O6 0.686496 0.042824 0.249952
O O7 0.822299 0.005807 0.292877
O O8 0.578462 0.808598 0.288053
O O9 0.542621 0.893817 0.445671
O O10 0.933944 0.672060 0.026871
O O11 0.500000 0.500000 0.500000
O O12 0.427375 0.412976 0.523144
O O13 0.571653 0.911514 0.776173
O O14 0.000000 0.500000 0.500000
#
# Coordination Sequence:
#
# PCOD9278222 Si02
#       8
#     8   8   4   8   8   4   4   8
#     4  11  24  44  70  96 129 178 227 268 329 389
#     4  12  25  42  68  94 134 177 217 273 325 398
#     4  10  20  42  68  90 138 170 212 272 334 382
#     4  10  23  45  68  97 131 171 223 279 328 386
#     4  12  24  42  63  95 136 170 217 269 326 385
#     4  12  25  42  67  95 130 179 216 276 324 392
#     4  10  25  44  65  97 140 163 216 282 328 390
#     4  11  25  40  65  99 131 174 214 263 332 406
#
# _framework density 19.568524
#
# number of rings (size 3 to 8) (size 9 to 14) (size 15 to 20)
#    0.000    0.923    4.615    0.923    6.462    2.462 
#    0.000    0.769    0.000    0.000    0.000    0.000 
#    0.000    0.000    0.000    0.000    0.000    0.000 
#
# Total GULP energy -145142.899177 kJ/mol
# GULP energy per Si atom -5582.419199 kJ/mol
# Density = 1.952399 g / cm^3
# Si number density = 19.568524 Si / 1000 Ang^3
#
#
#
# Elastic Constant Matrix: (Units=GPa)
#
#
# Indices 1 2 3 4 5 6 
#
# 1 132.3399 43.8069 39.9196 0.0000 15.3179 0.0000
# 2 43.8069 95.7656 64.8103 0.0000 -3.6723 0.0000
# 3 39.9196 64.8103 104.2497 0.0000 -3.9103 0.0000
# 4 0.0000 0.0000 0.0000 21.4270 0.0000 -1.4260
# 5 15.3179 -3.6723 -3.9103 0.0000 38.3187 0.0000
# 6 0.0000 0.0000 0.0000 -1.4260 0.0000 16.1204
#
#
#
# Elastic Compliance Matrix: (Units=1/GPa)
#
#
# Indices 1 2 3 4 5 6 
#
# 1 0.009731 -0.003430 -0.001759 0.000000 -0.004398 0.000000
# 2 -0.003430 0.019248 -0.010573 0.000000 0.002137 0.000000
# 3 -0.001759 -0.010573 0.016892 0.000000 0.001414 0.000000
# 4 0.000000 0.000000 0.000000 0.046946 0.000000 0.004153
# 5 -0.004398 0.002137 0.001414 0.000000 0.028204 0.000000
# 6 0.000000 0.000000 0.000000 0.004153 0.000000 0.062400
#
#
# Mechanical properties :
#
#
# Convention : Reuss Voigt Hill
#
# Bulk Modulus (GPa) = 69.69516 69.93651 69.81584
# Shear Modulus (GPa) = 22.75532 27.42777 25.09155
#
# Velocity S-wave (km/s) = 3.41376 3.74789 3.58472
# Velocity P-wave (km/s) = 7.15763 7.38551 7.27246
#
# Compressibility (1/GPa) = 0.01434820
#
# Stress axis : x y z
#
# Youngs Moduli (GPa) = 102.76120 51.95278 59.19953
#
# Poissons Ratio (x) = 0.17818 0.10414
# Poissons Ratio (y) = 0.35243 0.62591
# Poissons Ratio (z) = 0.18078 0.54929
#
# Static dielectric constant tensor:
#      x y z
#    x 1.771950 0.000000 0.016260 
#    y 0.000000 1.685710 0.000000 
#    z 0.016260 0.000000 1.699770 
# 
# From -- ./inp_files/40811.got.cif
#   From: 2010.05.17/outbox.cif.g08.bks.cpg/sg15_21_cif.got.tgz:40811.got - 2010.06.03 18:47:42.
