data_PCOD9278417
_publ_section_title
;
Structure prediction by ZEFSAII (Michael W. Deem and Ramdas Pophale) SiO2 
 PCOD9278417
Probable space group: C 2/C
;
_chemical_formula_sum "Si O2"
_cell_formula_units_Z 48
_cell_length_a 11.591994
_cell_length_b 29.462601
_cell_length_c 15.221721
_cell_angle_alpha 90.000000
_cell_angle_beta 152.589676
_cell_angle_gamma 90.000000
_cell_volume 2393.262499
_symmetry_space_group_name_H-M "C 2/C"
_symmetry_group_IT_number 15
_symmetry_cell_setting 'monoclinic'
loop_
_space_group_symop_operation_xyz
x,y,z
-x,y,1/2-z
-x,-y,-z
x,-y,1/2+z
1/2+x,1/2+y,z
1/2-x,1/2+y,1/2-z
1/2-x,1/2-y,-z
1/2+x,1/2-y,1/2+z
loop_
_atom_site_type_symbol
_atom_site_label
_atom_site_fract_x
_atom_site_fract_y
_atom_site_fract_z
Si Si1 0.251002 0.158008 0.368455
Si Si2 0.309667 0.990230 0.706859
Si Si3 0.168423 0.714487 0.578957
Si Si4 0.661127 0.390715 0.624381
Si Si5 0.417187 0.086899 0.796235
Si Si6 0.818373 0.811759 0.990191
O O1 0.414361 0.202075 0.455559
O O2 0.176335 0.134825 0.226625
O O3 0.417056 0.121694 0.535779
O O4 0.000000 0.169328 0.250000
O O5 0.500000 0.989908 0.750000
O O6 0.310521 0.937830 0.735692
O O7 0.422186 0.034355 0.832742
O O8 0.000000 0.000000 0.500000
O O9 0.221553 0.767291 0.597194
O O10 0.391501 0.692520 0.785573
O O11 0.179001 0.692842 0.488932
O O12 0.373708 0.400372 0.404334
O O13 0.742564 0.356944 0.602489
O O14 0.500000 0.087842 0.750000
#
# Coordination Sequence:
#
# PCOD9278417 Si02
#       6
#     8   8   8   8   8   8
#     4  12  24  38  65  97 127 177 219 257 328 395
#     4   9  21  39  66  96 127 173 222 272 335 394
#     4  10  22  40  63  93 129 169 214 259 327 386
#     4  11  22  38  66  93 125 167 216 271 319 386
#     4  10  20  43  62  86 131 170 212 265 323 384
#     4  10  21  41  65  91 129 167 208 274 322 380
#
# _framework density 20.056304999999998
#
# number of rings (size 3 to 8) (size 9 to 14) (size 15 to 20)
#    0.000    1.667    3.333    1.000    2.333    2.000 
#    0.000    4.167    0.000    0.000    0.000    0.000 
#    0.000    0.000    0.000    0.000    0.000    0.000 
#
# Total GULP energy -133715.922114 kJ/mol
# GULP energy per Si atom -5571.496755 kJ/mol
# Density = 2.001066 g / cm^3
# Si number density = 20.056305 Si / 1000 Ang^3
#
#
#
# Elastic Constant Matrix: (Units=GPa)
#
#
# Indices 1 2 3 4 5 6 
#
# 1 102.5412 33.6107 41.1795 0.0000 25.3645 0.0000
# 2 33.6107 80.2837 24.5467 0.0000 -1.6745 0.0000
# 3 41.1795 24.5467 87.0015 -0.0001 11.9844 0.0000
# 4 0.0000 0.0000 -0.0001 29.3139 0.0000 5.5524
# 5 25.3645 -1.6745 11.9844 0.0000 37.7978 0.0000
# 6 0.0000 0.0000 0.0000 5.5524 0.0000 21.5820
#
#
#
# Elastic Compliance Matrix: (Units=1/GPa)
#
#
# Indices 1 2 3 4 5 6 
#
# 1 0.015651 -0.005331 -0.004627 0.000000 -0.009272 0.000000
# 2 -0.005331 0.015580 -0.002573 0.000000 0.005083 0.000000
# 3 -0.004627 -0.002573 0.014637 0.000000 -0.001650 0.000000
# 4 0.000000 0.000000 0.000000 0.035861 0.000000 -0.009226
# 5 -0.009272 0.005083 -0.001650 0.000000 0.033427 0.000000
# 6 0.000000 0.000000 0.000000 -0.009226 0.000000 0.048708
#
#
# Mechanical properties :
#
#
# Convention : Reuss Voigt Hill
#
# Bulk Modulus (GPa) = 48.05951 52.05557 50.05754
# Shear Modulus (GPa) = 25.52817 29.10471 27.31644
#
# Velocity S-wave (km/s) = 3.57154 3.81353 3.69452
# Velocity P-wave (km/s) = 6.40485 6.73808 6.57358
#
# Compressibility (1/GPa) = 0.02080754
#
# Stress axis : x y z
#
# Youngs Moduli (GPa) = 63.89313 64.18345 68.31941
#
# Poissons Ratio (x) = 0.34217 0.31609
# Poissons Ratio (y) = 0.34062 0.17577
# Poissons Ratio (z) = 0.29561 0.16513
#
# Static dielectric constant tensor:
#      x y z
#    x 1.926700 0.000000 0.122520 
#    y 0.000000 1.727390 0.000000 
#    z 0.122520 0.000000 1.768980 
# 
# From -- ./inp_files/148829.got.cif
#   From: 2010.05.17/outbox.cif.g08.bks.cpg/sg15_75_cif.got.tgz:148829.got - 2010.06.03 18:47:42.
