data_PCOD9278454
_publ_section_title
;
Structure prediction by ZEFSAII (Michael W. Deem and Ramdas Pophale) SiO2 
 PCOD9278454
Probable space group: C 2/C
;
_chemical_formula_sum "Si O2"
_cell_formula_units_Z 40
_cell_length_a 24.226966
_cell_length_b 6.291536
_cell_length_c 13.436130
_cell_angle_alpha 90.000000
_cell_angle_beta 72.857122
_cell_angle_gamma 90.000000
_cell_volume 1957.012709
_symmetry_space_group_name_H-M "C 2/C"
_symmetry_group_IT_number 15
_symmetry_cell_setting 'monoclinic'
loop_
_space_group_symop_operation_xyz
x,y,z
-x,y,1/2-z
-x,-y,-z
x,-y,1/2+z
1/2+x,1/2+y,z
1/2-x,1/2+y,1/2-z
1/2-x,1/2-y,-z
1/2+x,1/2-y,1/2+z
loop_
_atom_site_type_symbol
_atom_site_label
_atom_site_fract_x
_atom_site_fract_y
_atom_site_fract_z
Si Si1 0.838572 0.294102 0.381066
Si Si2 0.629371 0.368713 0.849373
Si Si3 0.722044 0.451813 0.956607
Si Si4 0.032083 0.812321 0.425399
Si Si5 0.928751 0.435486 0.954857
O O1 0.863502 0.236120 0.261074
O O2 0.775460 0.395189 0.406431
O O3 0.880419 0.469404 0.408355
O O4 0.826344 0.080601 0.452990
O O5 0.690945 0.404478 0.868918
O O6 0.590594 0.580664 0.854568
O O7 0.598790 0.214726 0.945855
O O8 0.750000 0.250000 0.000000
O O9 0.048318 0.640726 0.499503
O O10 0.983815 0.695204 0.383238
O O11 0.000000 0.000000 0.500000
#
# Coordination Sequence:
#
# PCOD9278454 Si02
#       5
#     8   8   8   8   8
#     4  11  25  40  67  98 130 172 223 267 332 405
#     4  11  23  41  68  97 129 174 218 264 342 394
#     4  11  24  42  61  96 137 172 216 282 320 390
#     4   9  20  41  68  89 129 170 208 280 321 384
#     4  10  20  43  65  94 132 163 219 275 322 386
#
# _framework density 20.439316999999999
#
# number of rings (size 3 to 8) (size 9 to 14) (size 15 to 20)
#    0.000    1.600    4.000    0.000    2.800    1.600 
#    0.000   11.000    0.000    0.000    0.000    0.000 
#    0.000    0.000    0.000    0.000    0.000    0.000 
#
# Total GULP energy -111530.875419 kJ/mol
# GULP energy per Si atom -5576.543771 kJ/mol
# Density = 2.039280 g / cm^3
# Si number density = 20.439317 Si / 1000 Ang^3
#
#
#
# Elastic Constant Matrix: (Units=GPa)
#
#
# Indices 1 2 3 4 5 6 
#
# 1 126.5342 46.3992 41.0809 0.0000 10.4589 0.0000
# 2 46.3992 100.6387 32.0411 0.0000 2.5751 0.0000
# 3 41.0809 32.0411 90.6230 0.0000 8.0376 0.0000
# 4 0.0000 0.0000 0.0000 17.8950 0.0000 0.1219
# 5 10.4589 2.5751 8.0376 0.0000 7.2059 0.0000
# 6 0.0000 0.0000 0.0000 0.1219 0.0000 53.3422
#
#
#
# Elastic Compliance Matrix: (Units=1/GPa)
#
#
# Indices 1 2 3 4 5 6 
#
# 1 0.011213 -0.004038 -0.002597 0.000000 -0.011936 0.000000
# 2 -0.004038 0.012652 -0.003065 0.000000 0.004758 0.000000
# 3 -0.002597 -0.003065 0.014277 0.000000 -0.011060 0.000000
# 4 0.000000 0.000000 0.000000 0.055882 0.000000 -0.000128
# 5 -0.011936 0.004758 -0.011060 0.000000 0.166735 0.000000
# 6 0.000000 0.000000 0.000000 -0.000128 0.000000 0.018747
#
#
# Mechanical properties :
#
#
# Convention : Reuss Voigt Hill
#
# Bulk Modulus (GPa) = 53.35397 61.87093 57.61245
# Shear Modulus (GPa) = 16.38520 28.90694 22.64607
#
# Velocity S-wave (km/s) = 2.83442 3.76477 3.33222
# Velocity P-wave (km/s) = 6.07224 7.01671 6.56149
#
# Compressibility (1/GPa) = 0.01874275
#
# Stress axis : x y z
#
# Youngs Moduli (GPa) = 89.17985 79.03777 70.04477
#
# Poissons Ratio (x) = 0.31913 0.18191
# Poissons Ratio (y) = 0.36008 0.21469
# Poissons Ratio (z) = 0.23160 0.24225
#
# Static dielectric constant tensor:
#      x y z
#    x 3.239570 0.000000 -0.114890 
#    y 0.000000 1.754700 0.000000 
#    z -0.114890 0.000000 1.691690 
# 
# From -- ./inp_files/120733.got.cif
#   From: 2010.05.17/outbox.cif.g08.bks.cpg/sg15_61_cif.got.tgz:120733.got - 2010.06.03 18:47:42.
