data_PCOD9278034
_publ_section_title
;
Structure prediction by ZEFSAII (Michael W. Deem and Ramdas Pophale) SiO2 
 PCOD9278034
Probable space group: C 2/C
;
_chemical_formula_sum "Si O2"
_cell_formula_units_Z 64
_cell_length_a 18.569304
_cell_length_b 19.508926
_cell_length_c 16.004498
_cell_angle_alpha 90.000000
_cell_angle_beta 153.044529
_cell_angle_gamma 90.000000
_cell_volume 2628.177808
_symmetry_space_group_name_H-M "C 2/C"
_symmetry_group_IT_number 15
_symmetry_cell_setting 'monoclinic'
loop_
_space_group_symop_operation_xyz
x,y,z
-x,y,1/2-z
-x,-y,-z
x,-y,1/2+z
1/2+x,1/2+y,z
1/2-x,1/2+y,1/2-z
1/2-x,1/2-y,-z
1/2+x,1/2-y,1/2+z
loop_
_atom_site_type_symbol
_atom_site_label
_atom_site_fract_x
_atom_site_fract_y
_atom_site_fract_z
Si Si1 0.807272 0.440185 0.041123
Si Si2 0.302508 0.643328 0.933332
Si Si3 0.542625 0.156247 0.380572
Si Si4 0.637139 0.205167 0.965248
Si Si5 0.415674 0.308181 0.247651
Si Si6 0.977379 0.376174 0.001798
Si Si7 0.253385 0.490741 0.690323
Si Si8 0.983870 0.890741 0.473784
O O1 0.711660 0.426699 0.027312
O O2 0.776001 0.365029 0.969106
O O3 0.000000 0.447411 0.250000
O O4 0.739934 0.492019 0.903767
O O5 0.453955 0.645006 0.030938
O O6 0.148031 0.638026 0.717185
O O7 0.297959 0.718221 0.970118
O O8 0.500000 0.117337 0.250000
O O9 0.442034 0.226758 0.274553
O O10 0.729619 0.174561 0.566796
O O11 0.492312 0.124079 0.417097
O O12 0.500000 0.204942 0.750000
O O13 0.610890 0.185247 0.037548
O O14 0.500000 0.334206 0.250000
O O15 0.504436 0.339483 0.419216
O O16 0.911813 0.450622 0.963341
O O17 0.327953 0.562649 0.794418
O O18 0.368786 0.439569 0.859556
#
# Coordination Sequence:
#
# PCOD9278034 Si02
#       8
#     8   8   8   8   8   8   8   8
#     4  10  20  42  64  97 139 179 215 270 336 402
#     4  12  22  39  64 102 132 171 221 272 334 410
#     4  11  24  42  67 105 133 178 221 281 356 411
#     4  10  21  34  61 103 145 176 210 267 339 418
#     4  11  24  44  69  97 135 169 225 288 344 414
#     4  11  23  41  68  93 143 178 223 277 338 407
#     4  10  25  47  65  90 134 183 225 280 331 391
#     4  11  26  46  66  95 126 176 237 275 337 396
#
# _framework density 24.351474
#
# number of rings (size 3 to 8) (size 9 to 14) (size 15 to 20)
#    0.000    1.250    5.000    2.625    5.250    2.500 
#    4.500    0.625    0.000    0.000    0.000    0.000 
#    0.000    0.000    0.000    0.000    0.000    0.000 
#
# Total GULP energy -178377.906967 kJ/mol
# GULP energy per Si atom -5574.309593 kJ/mol
# Density = 2.429605 g / cm^3
# Si number density = 24.351474 Si / 1000 Ang^3
#
#
#
# Elastic Constant Matrix: (Units=GPa)
#
#
# Indices 1 2 3 4 5 6 
#
# 1 113.3393 -1.2728 4.5760 0.0000 -21.5595 0.0000
# 2 -1.2728 48.0399 10.4803 0.0000 -4.0089 0.0000
# 3 4.5760 10.4803 66.2348 0.0000 -21.2639 0.0001
# 4 0.0000 0.0000 0.0000 6.7045 0.0000 -31.2885
# 5 -21.5595 -4.0089 -21.2639 0.0000 32.8817 0.0000
# 6 0.0000 0.0000 0.0001 -31.2885 0.0000 11.1790
#
#
#
# Elastic Compliance Matrix: (Units=1/GPa)
#
#
# Indices 1 2 3 4 5 6 
#
# 1 0.010267 0.000552 0.001749 0.000000 0.007930 0.000000
# 2 0.000552 0.021597 -0.003147 0.000000 0.000960 0.000000
# 3 0.001749 -0.003147 0.019839 0.000000 0.013593 0.000000
# 4 0.000000 0.000000 0.000000 -0.012366 0.000000 -0.034610
# 5 0.007930 0.000960 0.013593 0.000000 0.044519 0.000000
# 6 0.000000 0.000000 0.000000 -0.034610 0.000000 -0.007416
#
#
# Mechanical properties :
#
#
# Convention : Reuss Voigt Hill
#
# Bulk Modulus (GPa) = 19.99540 28.35344 24.17442
# Shear Modulus (GPa) = 52.74141 24.40840 38.57490
#
# Velocity S-wave (km/s) = 4.65891 3.16941 3.98438
# Velocity P-wave (km/s) = 6.09668 5.00622 5.57816
#
# Compressibility (1/GPa) = 0.05001150
#
# Stress axis : x y z
#
# Youngs Moduli (GPa) = 97.39783 46.30187 50.40660
#
# Poissons Ratio (x) = -0.02557 -0.08817
# Poissons Ratio (y) = -0.05378 0.15865
# Poissons Ratio (z) = -0.17037 0.14573
#
# Static dielectric constant tensor:
#      x y z
#    x 2.222620 0.000000 -0.005460 
#    y 0.000000 1.922520 0.000000 
#    z -0.005460 0.000000 1.951190 
# 
# From -- ./inp_files/164286.got.cif
#   From: 2010.05.17/outbox.cif.g08.bks.cpg/sg15_83_cif.got.tgz:164286.got - 2010.06.03 18:47:42.
