data_PCOD9278592
_publ_section_title
;
Structure prediction by ZEFSAII (Michael W. Deem and Ramdas Pophale) SiO2 
 PCOD9278592
Probable space group: C 2/C
;
_chemical_formula_sum "Si O2"
_cell_formula_units_Z 56
_cell_length_a 17.095664
_cell_length_b 27.820294
_cell_length_c 5.478753
_cell_angle_alpha 90.000000
_cell_angle_beta 72.665876
_cell_angle_gamma 90.000000
_cell_volume 2487.386902
_symmetry_space_group_name_H-M "C 2/C"
_symmetry_group_IT_number 15
_symmetry_cell_setting 'monoclinic'
loop_
_space_group_symop_operation_xyz
x,y,z
-x,y,1/2-z
-x,-y,-z
x,-y,1/2+z
1/2+x,1/2+y,z
1/2-x,1/2+y,1/2-z
1/2-x,1/2-y,-z
1/2+x,1/2-y,1/2+z
loop_
_atom_site_type_symbol
_atom_site_label
_atom_site_fract_x
_atom_site_fract_y
_atom_site_fract_z
Si Si1 0.296482 0.197012 0.153380
Si Si2 0.000000 0.142309 0.250000
Si Si3 0.550577 0.129351 0.450787
Si Si4 0.382856 0.023885 0.212493
Si Si5 0.000000 0.203507 0.750000
Si Si6 0.198786 0.985870 0.401397
Si Si7 0.677171 0.377910 0.489811
Si Si8 0.174552 0.210203 0.692657
O O1 0.382434 0.170412 0.075179
O O2 0.235647 0.158674 0.082711
O O3 0.255883 0.205241 0.455844
O O4 0.314430 0.253960 0.086215
O O5 0.999149 0.174591 0.495217
O O6 0.913676 0.114383 0.317515
O O7 0.500000 0.139263 0.250000
O O8 0.594966 0.078465 0.361477
O O9 0.500000 0.125589 0.750000
O O10 0.412791 0.007496 0.452639
O O11 0.284485 0.015329 0.311553
O O12 0.910716 0.228643 0.844449
O O13 0.216769 0.929233 0.404631
O O14 0.155154 0.996913 0.187650
O O15 0.661319 0.345874 0.266192
#
# Coordination Sequence:
#
# PCOD9278592 Si02
#       8
#     8   4   8   8   4   8   8   8
#     4  11  24  45  69 104 141 187 248 285 368 423
#     4  10  22  40  68 103 136 180 220 287 348 428
#     4  12  29  47  68 102 145 191 234 302 357 418
#     4  10  21  40  66  95 127 181 232 287 347 416
#     4  10  20  44  64 105 136 178 226 283 354 412
#     4  10  23  39  68 102 132 182 231 293 353 419
#     4  11  23  43  72 102 144 182 244 290 367 432
#     4  10  24  41  75 103 141 189 237 303 352 443
#
# _framework density 22.513587999999999
#
# number of rings (size 3 to 8) (size 9 to 14) (size 15 to 20)
#    0.000    1.429    1.429    3.000    9.000    1.714 
#    5.143    0.714    0.000    0.000    0.000    0.000 
#    0.000    0.000    0.000    0.000    0.000    0.000 
#
# Total GULP energy -155986.984217 kJ/mol
# GULP energy per Si atom -5570.963722 kJ/mol
# Density = 2.246235 g / cm^3
# Si number density = 22.513588 Si / 1000 Ang^3
#
#
#
# Elastic Constant Matrix: (Units=GPa)
#
#
# Indices 1 2 3 4 5 6 
#
# 1 89.1809 2.1015 10.7847 0.0000 -3.8177 0.0000
# 2 2.1015 112.5996 16.8653 0.0000 1.9195 0.0000
# 3 10.7847 16.8653 103.7711 0.0000 16.7885 0.0000
# 4 0.0000 0.0000 0.0000 16.1550 0.0000 3.1086
# 5 -3.8177 1.9195 16.7885 0.0000 33.6107 0.0000
# 6 0.0000 0.0000 0.0000 3.1086 0.0000 44.9883
#
#
#
# Elastic Compliance Matrix: (Units=1/GPa)
#
#
# Indices 1 2 3 4 5 6 
#
# 1 0.011487 -0.000021 -0.001525 0.000000 0.002068 0.000000
# 2 -0.000021 0.009104 -0.001515 0.000000 0.000235 0.000000
# 3 -0.001525 -0.001515 0.010939 0.000000 -0.005551 0.000000
# 4 0.000000 0.000000 0.000000 0.062735 0.000000 -0.004335
# 5 0.002068 0.000235 -0.005551 0.000000 0.032747 0.000000
# 6 0.000000 0.000000 0.000000 -0.004335 0.000000 0.022528
#
#
# Mechanical properties :
#
#
# Convention : Reuss Voigt Hill
#
# Bulk Modulus (GPa) = 39.35859 40.56160 39.96009
# Shear Modulus (GPa) = 30.46344 37.33746 33.90045
#
# Velocity S-wave (km/s) = 3.68246 4.07681 3.88464
# Velocity P-wave (km/s) = 5.96664 6.34162 6.15699
#
# Compressibility (1/GPa) = 0.02540742
#
# Stress axis : x y z
#
# Youngs Moduli (GPa) = 87.05815 109.83691 91.41268
#
# Poissons Ratio (x) = 0.00233 0.13939
# Poissons Ratio (y) = 0.00185 0.13853
# Poissons Ratio (z) = 0.13275 0.16645
#
# Static dielectric constant tensor:
#      x y z
#    x 1.986710 0.000000 0.019910 
#    y 0.000000 1.834810 0.000000 
#    z 0.019910 0.000000 1.913490 
# 
# From -- ./inp_files/11515.got.cif
#   From: 2010.05.17/outbox.cif.g08.bks.cpg/sg15_6_cif.got.tgz:11515.got - 2010.06.03 18:47:42.
