data_PCOD9278794
_publ_section_title
;
Structure prediction by ZEFSAII (Michael W. Deem and Ramdas Pophale) SiO2 
 PCOD9278794
Probable space group: C 2/C
;
_chemical_formula_sum "Si O2"
_cell_formula_units_Z 60
_cell_length_a 11.109656
_cell_length_b 30.577587
_cell_length_c 8.087049
_cell_angle_alpha 90.000000
_cell_angle_beta 101.047631
_cell_angle_gamma 90.000000
_cell_volume 2696.311965
_symmetry_space_group_name_H-M "C 2/C"
_symmetry_group_IT_number 15
_symmetry_cell_setting 'monoclinic'
loop_
_space_group_symop_operation_xyz
x,y,z
-x,y,1/2-z
-x,-y,-z
x,-y,1/2+z
1/2+x,1/2+y,z
1/2-x,1/2+y,1/2-z
1/2-x,1/2-y,-z
1/2+x,1/2-y,1/2+z
loop_
_atom_site_type_symbol
_atom_site_label
_atom_site_fract_x
_atom_site_fract_y
_atom_site_fract_z
Si Si1 0.189324 0.600289 0.115619
Si Si2 0.468201 0.450571 0.937941
Si Si3 0.725731 0.056705 0.593608
Si Si4 0.227624 0.698916 0.514754
Si Si5 0.919190 0.139740 0.374791
Si Si6 0.645038 0.861002 0.255564
Si Si7 0.000000 0.660296 0.250000
Si Si8 0.368971 0.989742 0.728823
O O1 0.308566 0.613687 0.252395
O O2 0.076391 0.628753 0.151534
O O3 0.158591 0.549679 0.148954
O O4 0.202601 0.616650 0.932531
O O5 0.500000 0.452945 0.750000
O O6 0.504070 0.398700 0.978121
O O7 0.500000 0.500000 0.000000
O O8 0.344430 0.446365 0.014195
O O9 0.677957 0.104181 0.621511
O O10 0.630408 0.033369 0.447927
O O11 0.731299 0.026499 0.757744
O O12 0.250000 0.750000 0.500000
O O13 0.346324 0.672577 0.474733
O O14 0.201055 0.683393 0.696146
O O15 0.103982 0.686732 0.378192
O O16 0.000000 0.161265 0.250000
O O17 0.500000 0.857006 0.250000
O O18 0.500000 0.013345 0.750000
#
# Coordination Sequence:
#
# PCOD9278794 Si02
#       8
#     8   8   8   8   8   8   4   8
#     4  11  21  40  70  96 138 184 225 284 347 414
#     4  11  23  42  65  88 131 187 236 281 334 406
#     4  12  23  40  58  94 136 174 232 282 336 406
#     4  11  24  47  76 105 141 178 227 296 356 432
#     4  10  23  47  66  93 137 185 235 282 347 413
#     4  12  23  42  70 107 137 172 229 294 358 422
#     4  10  20  46  72 100 138 182 220 280 362 418
#     4  12  22  36  59  94 131 177 223 278 340 401
#
# _framework density 22.252618999999999
#
# number of rings (size 3 to 8) (size 9 to 14) (size 15 to 20)
#    0.000    0.800    4.667    4.000    1.867    0.533 
#    2.400    1.333    0.000    0.000    0.000    0.000 
#    0.000    0.000    0.000    0.000    0.000    0.000 
#
# Total GULP energy -167114.000770 kJ/mol
# GULP energy per Si atom -5570.466692 kJ/mol
# Density = 2.220197 g / cm^3
# Si number density = 22.252619 Si / 1000 Ang^3
#
#
#
# Elastic Constant Matrix: (Units=GPa)
#
#
# Indices 1 2 3 4 5 6 
#
# 1 107.4058 40.3186 21.5541 0.0000 -46.3694 0.0000
# 2 40.3186 156.4802 39.9015 0.0000 -24.0722 0.0000
# 3 21.5541 39.9015 76.5906 0.0000 -29.6581 0.0000
# 4 0.0000 0.0000 0.0000 22.0232 0.0000 -6.4657
# 5 -46.3694 -24.0722 -29.6581 0.0000 38.4818 0.0000
# 6 0.0000 0.0000 0.0000 -6.4657 0.0000 26.4748
#
#
#
# Elastic Compliance Matrix: (Units=1/GPa)
#
#
# Indices 1 2 3 4 5 6 
#
# 1 0.021916 -0.002794 0.006895 0.000000 0.029975 0.000000
# 2 -0.002794 0.007878 -0.003868 0.000000 -0.001419 0.000000
# 3 0.006895 -0.003868 0.021967 0.000000 0.022819 0.000000
# 4 0.000000 0.000000 0.000000 0.048914 0.000000 0.011946
# 5 0.029975 -0.001419 0.022819 0.000000 0.078804 0.000000
# 6 0.000000 0.000000 0.000000 0.011946 0.000000 0.040689
#
#
# Mechanical properties :
#
#
# Convention : Reuss Voigt Hill
#
# Bulk Modulus (GPa) = 19.14662 60.44723 39.79692
# Shear Modulus (GPa) = 21.08712 33.30945 27.19829
#
# Velocity S-wave (km/s) = 3.08169 3.87315 3.49986
# Velocity P-wave (km/s) = 4.61360 6.87203 5.85278
#
# Compressibility (1/GPa) = 0.05222855
#
# Stress axis : x y z
#
# Youngs Moduli (GPa) = 45.62799 126.92949 45.52251
#
# Poissons Ratio (x) = 0.35463 -0.31388
# Poissons Ratio (y) = 0.12748 0.17607
# Poissons Ratio (z) = -0.31460 0.49092
#
# Static dielectric constant tensor:
#      x y z
#    x 1.996310 0.000000 0.111540 
#    y 0.000000 1.815700 0.000000 
#    z 0.111540 0.000000 1.959550 
# 
# From -- ./inp_files/35248.got.cif
#   From: 2010.05.17/outbox.cif.g08.bks.cpg/sg15_18_cif.got.tgz:35248.got - 2010.06.03 18:47:42.
