data_PCOD9278793
_publ_section_title
;
Structure prediction by ZEFSAII (Michael W. Deem and Ramdas Pophale) SiO2 
 PCOD9278793
Probable space group: C 2/C
;
_chemical_formula_sum "Si O2"
_cell_formula_units_Z 52
_cell_length_a 14.894429
_cell_length_b 17.416344
_cell_length_c 28.774114
_cell_angle_alpha 90.000000
_cell_angle_beta 160.739959
_cell_angle_gamma 90.000000
_cell_volume 2462.109250
_symmetry_space_group_name_H-M "C 2/C"
_symmetry_group_IT_number 15
_symmetry_cell_setting 'monoclinic'
loop_
_space_group_symop_operation_xyz
x,y,z
-x,y,1/2-z
-x,-y,-z
x,-y,1/2+z
1/2+x,1/2+y,z
1/2-x,1/2+y,1/2-z
1/2-x,1/2-y,-z
1/2+x,1/2-y,1/2+z
loop_
_atom_site_type_symbol
_atom_site_label
_atom_site_fract_x
_atom_site_fract_y
_atom_site_fract_z
Si Si1 0.276766 0.945512 0.414331
Si Si2 0.500000 0.151870 0.250000
Si Si3 0.557244 0.768109 0.011821
Si Si4 0.027408 0.751778 0.607163
Si Si5 0.001842 0.196487 0.606083
Si Si6 0.243465 0.468340 0.987976
Si Si7 0.189194 0.920648 0.677394
O O1 0.377281 0.857012 0.464669
O O2 0.227557 0.973721 0.442594
O O3 0.000000 0.948084 0.250000
O O4 0.500000 0.000000 0.500000
O O5 0.320174 0.212578 0.133442
O O6 0.699968 0.097179 0.319626
O O7 0.481492 0.757542 0.029130
O O8 0.375676 0.734501 0.881263
O O9 0.257334 0.693686 0.738092
O O10 0.155108 0.835141 0.680158
O O11 0.750000 0.750000 0.500000
O O12 0.750000 0.250000 0.500000
O O13 0.881613 0.111834 0.540495
O O14 0.407186 0.535638 0.043105
O O15 0.926912 0.465300 0.820175
#
# Coordination Sequence:
#
# PCOD9278793 Si02
#       7
#     8   4   8   8   8   8   8
#     4  12  25  40  65  96 134 174 219 274 337 399
#     4  10  20  46  70  96 126 178 228 274 332 400
#     4  11  21  43  72  94 129 180 231 271 331 413
#     4  11  26  43  67  98 136 175 228 283 333 392
#     4  12  21  44  72  95 126 183 231 270 327 414
#     4  12  25  43  67 100 134 174 224 276 344 399
#     4  11  25  43  67  97 136 172 219 281 335 406
#
# _framework density 21.120103
#
# number of rings (size 3 to 8) (size 9 to 14) (size 15 to 20)
#    0.000    0.615    5.385    2.769    4.308    1.231 
#    0.000    0.000    0.000    0.000    0.000    0.000 
#    0.000    0.000    0.000    0.000    0.000    0.000 
#
# Total GULP energy -145288.269205 kJ/mol
# GULP energy per Si atom -5588.010354 kJ/mol
# Density = 2.107203 g / cm^3
# Si number density = 21.120103 Si / 1000 Ang^3
#
#
#
# Elastic Constant Matrix: (Units=GPa)
#
#
# Indices 1 2 3 4 5 6 
#
# 1 127.3588 20.1188 21.6462 0.0005 3.9690 -0.0127
# 2 20.1188 55.6355 -9.9746 -0.0078 8.8169 -0.0089
# 3 21.6462 -9.9746 45.9800 0.0085 8.3239 0.0320
# 4 0.0005 -0.0078 0.0085 24.4129 0.0011 12.1432
# 5 3.9690 8.8169 8.3239 0.0011 30.7262 -0.0070
# 6 -0.0127 -0.0089 0.0320 12.1432 -0.0070 28.1139
#
#
#
# Elastic Compliance Matrix: (Units=1/GPa)
#
#
# Indices 1 2 3 4 5 6 
#
# 1 0.009544 -0.004770 -0.005839 -0.000006 0.001718 0.000012
# 2 -0.004770 0.022542 0.008618 0.000010 -0.008187 -0.000011
# 3 -0.005839 0.008618 0.028054 0.000013 -0.009319 -0.000040
# 4 -0.000006 0.000010 0.000013 0.052171 -0.000013 -0.022534
# 5 0.001718 -0.008187 -0.009319 -0.000013 0.037197 0.000024
# 6 0.000012 -0.000011 -0.000040 -0.022534 0.000024 0.045303
#
#
# Mechanical properties :
#
#
# Convention : Reuss Voigt Hill
#
# Bulk Modulus (GPa) = 17.80727 32.50611 25.15669
# Shear Modulus (GPa) = 22.98715 29.79620 26.39167
#
# Velocity S-wave (km/s) = 3.30267 3.76013 3.53880
# Velocity P-wave (km/s) = 4.79513 5.85457 5.35113
#
# Compressibility (1/GPa) = 0.05615684
#
# Stress axis : x y z
#
# Youngs Moduli (GPa) = 104.77441 44.36215 35.64550
#
# Poissons Ratio (x) = 0.21163 0.20814
# Poissons Ratio (y) = 0.49983 -0.30719
# Poissons Ratio (z) = 0.61179 -0.38231
#
# Static dielectric constant tensor:
#      x y z
#    x 1.814580 0.000000 -0.023560 
#    y 0.000000 1.726070 -0.000020 
#    z -0.023560 -0.000020 1.731250 
# 
# From -- ./inp_files/314341.got.cif
#   From: 2010.05.17/outbox.cif.g08.bks.cpg/sg15_158_cif.got.tgz:314341.got - 2010.06.03 18:47:42.
