data_PCOD9278345
_publ_section_title
;
Structure prediction by ZEFSAII (Michael W. Deem and Ramdas Pophale) SiO2 
 PCOD9278345
Probable space group: C 2/C
;
_chemical_formula_sum "Si O2"
_cell_formula_units_Z 44
_cell_length_a 10.967926
_cell_length_b 25.863771
_cell_length_c 7.358578
_cell_angle_alpha 90.000000
_cell_angle_beta 70.545107
_cell_angle_gamma 90.000000
_cell_volume 1968.238537
_symmetry_space_group_name_H-M "C 2/C"
_symmetry_group_IT_number 15
_symmetry_cell_setting 'monoclinic'
loop_
_space_group_symop_operation_xyz
x,y,z
-x,y,1/2-z
-x,-y,-z
x,-y,1/2+z
1/2+x,1/2+y,z
1/2-x,1/2+y,1/2-z
1/2-x,1/2-y,-z
1/2+x,1/2-y,1/2+z
loop_
_atom_site_type_symbol
_atom_site_label
_atom_site_fract_x
_atom_site_fract_y
_atom_site_fract_z
Si Si1 0.834369 0.315409 0.107058
Si Si2 0.152025 0.869967 0.459208
Si Si3 0.500000 0.881549 0.750000
Si Si4 0.928002 0.791405 0.469603
Si Si5 0.756241 0.066603 0.253020
Si Si6 0.140820 0.036629 0.678732
O O1 0.777443 0.339590 0.319100
O O2 0.708327 0.313386 0.036039
O O3 0.938805 0.348197 0.944267
O O4 0.890171 0.257999 0.107502
O O5 0.138997 0.919023 0.330713
O O6 0.027848 0.832653 0.502478
O O7 0.821339 0.892931 0.857095
O O8 0.386483 0.915598 0.723035
O O9 0.000000 0.771958 0.250000
O O10 0.759325 0.009170 0.335889
O O11 0.833287 0.062045 0.027046
O O12 0.000000 0.010714 0.750000
#
# Coordination Sequence:
#
# PCOD9278345 Si02
#       6
#     8   8   4   8   8   8
#     4  10  20  42  71 107 150 195 241 300 366 433
#     4  11  24  45  78 109 147 197 248 305 366 437
#     4  12  26  44  70 102 152 198 240 304 370 446
#     4   9  19  39  78 105 144 196 245 304 368 428
#     4  12  28  46  74 108 145 197 245 301 377 441
#     4  12  25  48  75 111 149 185 244 315 368 433
#
# _framework density 22.355013
#
# number of rings (size 3 to 8) (size 9 to 14) (size 15 to 20)
#    0.000    1.091    4.545    2.182    0.000    1.455 
#    0.000    0.909   12.000    0.000    0.000    0.000 
#    0.000    0.000    0.000    0.000    0.000    0.000 
#
# Total GULP energy -123192.714194 kJ/mol
# GULP energy per Si atom -5599.668827 kJ/mol
# Density = 2.230413 g / cm^3
# Si number density = 22.355013 Si / 1000 Ang^3
#
#
#
# Elastic Constant Matrix: (Units=GPa)
#
#
# Indices 1 2 3 4 5 6 
#
# 1 108.8284 72.8731 68.9854 0.0000 5.2427 0.0000
# 2 72.8731 141.4143 46.6371 0.0000 -6.4258 0.0000
# 3 68.9854 46.6371 118.1870 0.0000 -9.7667 0.0000
# 4 0.0000 0.0000 0.0000 34.7406 0.0000 -4.9547
# 5 5.2427 -6.4258 -9.7667 0.0000 32.4600 0.0000
# 6 0.0000 0.0000 0.0000 -4.9547 0.0000 -30.2287
#
#
#
# Elastic Compliance Matrix: (Units=1/GPa)
#
#
# Indices 1 2 3 4 5 6 
#
# 1 0.021213 -0.008040 -0.009870 0.000000 -0.007987 0.000000
# 2 -0.008040 0.011190 0.000582 0.000000 0.003689 0.000000
# 3 -0.009870 0.000582 0.014494 0.000000 0.006070 0.000000
# 4 0.000000 0.000000 0.000000 0.028127 0.000000 -0.004610
# 5 -0.007987 0.003689 0.006070 0.000000 0.034654 0.000000
# 6 0.000000 0.000000 0.000000 -0.004610 0.000000 -0.032326
#
#
# Mechanical properties :
#
#
# Convention : Reuss Voigt Hill
#
# Bulk Modulus (GPa) = 81.68207 82.82454 82.25330
# Shear Modulus (GPa) = 43.07039 19.39000 31.23019
#
# Velocity S-wave (km/s) = 4.39413 2.94830 3.74172
# Velocity P-wave (km/s) = 7.89699 6.97998 7.45260
#
# Compressibility (1/GPa) = 0.01224259
#
# Stress axis : x y z
#
# Youngs Moduli (GPa) = 47.14012 89.36496 68.99332
#
# Poissons Ratio (x) = 0.71846 0.68095
# Poissons Ratio (y) = 0.37899 -0.04014
# Poissons Ratio (z) = 0.46526 -0.05200
#
# Static dielectric constant tensor:
#      x y z
#    x 1.805340 0.000000 0.010630 
#    y 0.000000 1.861450 0.000000 
#    z 0.010630 0.000000 1.825680 
# 
# From -- ./inp_files/34014.got.cif
#   From: 2010.05.17/outbox.cif.g08.bks.cpg/sg15_18_cif.got.tgz:34014.got - 2010.06.03 18:47:42.
