data_PCOD9278440
_publ_section_title
;
Structure prediction by ZEFSAII (Michael W. Deem and Ramdas Pophale) SiO2 
 PCOD9278440
Probable space group: C 2/C
;
_chemical_formula_sum "Si O2"
_cell_formula_units_Z 40
_cell_length_a 9.938462
_cell_length_b 10.862786
_cell_length_c 14.751196
_cell_angle_alpha 90.000000
_cell_angle_beta 83.921894
_cell_angle_gamma 90.000000
_cell_volume 1583.577617
_symmetry_space_group_name_H-M "C 2/C"
_symmetry_group_IT_number 15
_symmetry_cell_setting 'monoclinic'
loop_
_space_group_symop_operation_xyz
x,y,z
-x,y,1/2-z
-x,-y,-z
x,-y,1/2+z
1/2+x,1/2+y,z
1/2-x,1/2+y,1/2-z
1/2-x,1/2-y,-z
1/2+x,1/2-y,1/2+z
loop_
_atom_site_type_symbol
_atom_site_label
_atom_site_fract_x
_atom_site_fract_y
_atom_site_fract_z
Si Si1 0.831443 0.985379 0.819208
Si Si2 0.253526 0.527280 0.624590
Si Si3 0.967435 0.501733 0.609892
Si Si4 0.930726 0.253587 0.401232
Si Si5 0.125440 0.843232 0.024067
O O1 0.825958 0.021266 0.715076
O O2 0.677490 0.949187 0.859095
O O3 0.876203 0.101677 0.876107
O O4 0.915376 0.866006 0.842094
O O5 0.106874 0.456439 0.644658
O O6 0.202207 0.660783 0.594750
O O7 0.339224 0.458955 0.542869
O O8 0.958989 0.645898 0.640817
O O9 0.000000 0.500000 0.500000
O O10 0.988853 0.216149 0.495174
O O11 0.250000 0.750000 0.000000
#
# Coordination Sequence:
#
# PCOD9278440 Si02
#       5
#     8   8   8   8   8
#     4  12  23  41  72 102 133 186 231 284 349 410
#     4  10  25  42  68 103 135 181 236 279 349 411
#     4  10  20  43  64  94 133 179 222 280 345 402
#     4  10  25  43  69  98 141 179 232 286 344 408
#     4  12  23  44  74  97 141 185 229 285 352 411
#
# _framework density 25.259260000000001
#
# number of rings (size 3 to 8) (size 9 to 14) (size 15 to 20)
#    1.200    0.000    4.000    1.200    2.800    5.600 
#    0.000    2.000    4.400    0.000    0.000    0.000 
#    0.000    0.000    0.000    0.000    0.000    0.000 
#
# Total GULP energy -111889.919044 kJ/mol
# GULP energy per Si atom -5594.495952 kJ/mol
# Density = 2.520177 g / cm^3
# Si number density = 25.259260 Si / 1000 Ang^3
#
#
#
# Elastic Constant Matrix: (Units=GPa)
#
#
# Indices 1 2 3 4 5 6 
#
# 1 112.3089 43.0002 57.2381 0.0000 7.9528 0.0000
# 2 43.0002 125.7004 44.3754 0.0000 24.7653 0.0000
# 3 57.2381 44.3754 155.9714 0.0000 46.4787 0.0000
# 4 0.0000 0.0000 0.0000 21.5200 0.0000 19.7835
# 5 7.9528 24.7653 46.4787 0.0000 50.8195 0.0000
# 6 0.0000 0.0000 0.0000 19.7835 0.0000 50.3571
#
#
#
# Elastic Compliance Matrix: (Units=1/GPa)
#
#
# Indices 1 2 3 4 5 6 
#
# 1 0.012333 -0.003330 -0.004793 0.000000 0.004077 0.000000
# 2 -0.003330 0.010034 -0.000455 0.000000 -0.003953 0.000000
# 3 -0.004793 -0.000455 0.011011 0.000000 -0.009099 0.000000
# 4 0.000000 0.000000 0.000000 0.072739 0.000000 -0.028577
# 5 0.004077 -0.003953 -0.009099 0.000000 0.029288 0.000000
# 6 0.000000 0.000000 0.000000 -0.028577 0.000000 0.031085
#
#
# Mechanical properties :
#
#
# Convention : Reuss Voigt Hill
#
# Bulk Modulus (GPa) = 61.64499 75.91202 68.77850
# Shear Modulus (GPa) = 26.44742 41.16378 33.80560
#
# Velocity S-wave (km/s) = 3.23931 4.04127 3.66231
# Velocity P-wave (km/s) = 6.20070 7.20377 6.72097
#
# Compressibility (1/GPa) = 0.01622192
#
# Stress axis : x y z
#
# Youngs Moduli (GPa) = 81.08132 99.66234 90.81484
#
# Poissons Ratio (x) = 0.33188 0.43532
# Poissons Ratio (y) = 0.27000 0.04131
# Poissons Ratio (z) = 0.38866 0.04533
#
# Static dielectric constant tensor:
#      x y z
#    x 2.014160 0.000000 0.009850 
#    y 0.000000 2.031510 0.000000 
#    z 0.009850 0.000000 1.969790 
# 
# From -- ./inp_files/141836.got.cif
#   From: 2010.05.17/outbox.cif.g08.bks.cpg/sg15_71_cif.got.tgz:141836.got - 2010.06.03 18:47:42.
