data_PCOD9278477
_publ_section_title
;
Structure prediction by ZEFSAII (Michael W. Deem and Ramdas Pophale) SiO2 
 PCOD9278477
Probable space group: C 2/C
;
_chemical_formula_sum "Si O2"
_cell_formula_units_Z 32
_cell_length_a 14.396666
_cell_length_b 9.954078
_cell_length_c 10.479875
_cell_angle_alpha 90.000000
_cell_angle_beta 113.345294
_cell_angle_gamma 90.000000
_cell_volume 1378.874880
_symmetry_space_group_name_H-M "C 2/C"
_symmetry_group_IT_number 15
_symmetry_cell_setting 'monoclinic'
loop_
_space_group_symop_operation_xyz
x,y,z
-x,y,1/2-z
-x,-y,-z
x,-y,1/2+z
1/2+x,1/2+y,z
1/2-x,1/2+y,1/2-z
1/2-x,1/2-y,-z
1/2+x,1/2-y,1/2+z
loop_
_atom_site_type_symbol
_atom_site_label
_atom_site_fract_x
_atom_site_fract_y
_atom_site_fract_z
Si Si1 0.588069 0.488953 0.887124
Si Si2 0.683280 0.279902 0.587089
Si Si3 0.487102 0.184605 0.597145
Si Si4 0.723812 0.850775 0.603136
O O1 0.500000 0.550236 0.750000
O O2 0.546232 0.342752 0.906388
O O3 0.690654 0.463911 0.863018
O O4 0.625211 0.580625 0.022704
O O5 0.750000 0.250000 0.500000
O O6 0.591305 0.183183 0.577331
O O7 0.755523 0.287374 0.748656
O O8 0.500000 0.136368 0.750000
O O9 0.392634 0.114228 0.479132
O O10 0.750000 0.750000 0.500000
#
# Coordination Sequence:
#
# PCOD9278477 Si02
#       4
#     8   8   8   8
#     4  10  21  39  66  94 122 163 216 254 309 373
#     4  12  25  37  64 103 125 159 214 271 308 362
#     4  10  20  43  67  91 125 173 208 250 320 382
#     4  10  21  41  64  90 129 168 206 253 322 373
#
# _framework density 23.207326999999999
#
# number of rings (size 3 to 8) (size 9 to 14) (size 15 to 20)
#    0.000    1.500    7.500    0.750    3.500    2.000 
#    0.000    1.250    0.000    0.000    0.000    0.000 
#    0.000    0.000    0.000    0.000    0.000    0.000 
#
# Total GULP energy -89390.478025 kJ/mol
# GULP energy per Si atom -5586.904877 kJ/mol
# Density = 2.315451 g / cm^3
# Si number density = 23.207327 Si / 1000 Ang^3
#
#
#
# Elastic Constant Matrix: (Units=GPa)
#
#
# Indices 1 2 3 4 5 6 
#
# 1 225.6243 4.6488 102.9539 0.0000 9.0907 0.0000
# 2 4.6488 52.2485 37.1138 0.0000 3.7752 0.0000
# 3 102.9539 37.1138 204.9787 0.0000 16.4622 0.0000
# 4 0.0000 0.0000 0.0000 22.6114 0.0000 -3.6695
# 5 9.0907 3.7752 16.4622 0.0000 54.3713 0.0000
# 6 0.0000 0.0000 0.0000 -3.6695 0.0000 11.0660
#
#
#
# Elastic Compliance Matrix: (Units=1/GPa)
#
#
# Indices 1 2 3 4 5 6 
#
# 1 0.005896 0.001814 -0.003281 0.000000 -0.000119 0.000000
# 2 0.001814 0.022528 -0.004961 0.000000 -0.000366 0.000000
# 3 -0.003281 -0.004961 0.007536 0.000000 -0.001389 0.000000
# 4 0.000000 0.000000 0.000000 0.046741 0.000000 0.015499
# 5 -0.000119 -0.000366 -0.001389 0.000000 0.018858 0.000000
# 6 0.000000 0.000000 0.000000 0.015499 0.000000 0.095506
#
#
# Mechanical properties :
#
#
# Convention : Reuss Voigt Hill
#
# Bulk Modulus (GPa) = 43.27829 85.80939 64.54384
# Shear Modulus (GPa) = 22.97560 40.15206 31.56383
#
# Velocity S-wave (km/s) = 3.14986 4.16401 3.69193
# Velocity P-wave (km/s) = 5.64959 7.75720 6.78572
#
# Compressibility (1/GPa) = 0.02310627
#
# Stress axis : x y z
#
# Youngs Moduli (GPa) = 169.59227 44.38889 132.69569
#
# Poissons Ratio (x) = -0.08053 0.43532
# Poissons Ratio (y) = -0.30768 0.65829
# Poissons Ratio (z) = 0.55636 0.22021
#
# Static dielectric constant tensor:
#      x y z
#    x 1.907400 0.000000 -0.006530 
#    y 0.000000 1.965250 0.000000 
#    z -0.006530 0.000000 1.891330 
# 
# From -- ./inp_files/36752.got.cif
#   From: 2010.05.17/outbox.cif.g08.bks.cpg/sg15_19_cif.got.tgz:36752.got - 2010.06.03 18:47:42.
