data_PCOD9278829
_publ_section_title
;
Structure prediction by ZEFSAII (Michael W. Deem and Ramdas Pophale) SiO2 
 PCOD9278829
Probable space group: C 2/C
;
_chemical_formula_sum "Si O2"
_cell_formula_units_Z 28
_cell_length_a 8.666321
_cell_length_b 13.060676
_cell_length_c 9.818244
_cell_angle_alpha 90.000000
_cell_angle_beta 64.587775
_cell_angle_gamma 90.000000
_cell_volume 1003.781562
_symmetry_space_group_name_H-M "C 2/C"
_symmetry_group_IT_number 15
_symmetry_cell_setting 'monoclinic'
loop_
_space_group_symop_operation_xyz
x,y,z
-x,y,1/2-z
-x,-y,-z
x,-y,1/2+z
1/2+x,1/2+y,z
1/2-x,1/2+y,1/2-z
1/2-x,1/2-y,-z
1/2+x,1/2-y,1/2+z
loop_
_atom_site_type_symbol
_atom_site_label
_atom_site_fract_x
_atom_site_fract_y
_atom_site_fract_z
Si Si1 0.365203 0.683575 0.084138
Si Si2 0.000000 0.022200 0.250000
Si Si3 0.667081 0.027154 0.022724
Si Si4 0.270119 0.319641 0.129637
O O1 0.438650 0.593329 0.151239
O O2 0.191171 0.636139 0.088433
O O3 0.330404 0.774544 0.203329
O O4 0.526903 0.692200 0.922696
O O5 0.830132 0.968004 0.361992
O O6 0.703587 0.931734 0.110704
O O7 0.500000 0.000000 0.000000
O O8 0.250000 0.250000 0.000000
#
# Coordination Sequence:
#
# PCOD9278829 Si02
#       4
#     8   4   8   8
#     4  11  23  48  82 115 160 213 266 333 411 479
#     4  10  20  48  76 114 154 212 268 334 404 476
#     4  11  26  50  83 116 160 214 272 337 411 481
#     4  11  21  50  81 117 161 209 266 334 403 487
#
# _framework density 27.894514999999998
#
# number of rings (size 3 to 8) (size 9 to 14) (size 15 to 20)
#    0.000    1.143    5.714    3.429    0.000    1.143 
#   20.571    8.571    6.286    0.000    0.000    0.000 
#    0.000    0.000    0.000    0.000    0.000    0.000 
#
# Total GULP energy -78502.135931 kJ/mol
# GULP energy per Si atom -5607.295424 kJ/mol
# Density = 2.783103 g / cm^3
# Si number density = 27.894515 Si / 1000 Ang^3
#
#
#
# Elastic Constant Matrix: (Units=GPa)
#
#
# Indices 1 2 3 4 5 6 
#
# 1 212.9784 72.0274 57.2653 0.0000 -33.9931 0.0000
# 2 72.0274 103.5369 39.1856 0.0000 -29.6591 0.0000
# 3 57.2653 39.1856 159.7568 0.0000 -28.2821 0.0000
# 4 0.0000 0.0000 0.0000 35.9664 0.0000 5.2979
# 5 -33.9931 -29.6591 -28.2821 0.0000 33.3690 0.0000
# 6 0.0000 0.0000 0.0000 5.2979 0.0000 65.1302
#
#
#
# Elastic Compliance Matrix: (Units=1/GPa)
#
#
# Indices 1 2 3 4 5 6 
#
# 1 0.006560 -0.003368 -0.001026 0.000000 0.002820 0.000000
# 2 -0.003368 0.014935 -0.000839 0.000000 0.009132 0.000000
# 3 -0.001026 -0.000839 0.007666 0.000000 0.004706 0.000000
# 4 0.000000 0.000000 0.000000 0.028141 0.000000 -0.002289
# 5 0.002820 0.009132 0.004706 0.000000 0.044946 0.000000
# 6 0.000000 0.000000 0.000000 -0.002289 0.000000 0.015540
#
#
# Mechanical properties :
#
#
# Convention : Reuss Voigt Hill
#
# Bulk Modulus (GPa) = 53.49030 90.35875 71.92452
# Shear Modulus (GPa) = 37.17827 47.41270 42.29549
#
# Velocity S-wave (km/s) = 3.65474 4.12723 3.89815
# Velocity P-wave (km/s) = 6.08498 7.42801 6.78979
#
# Compressibility (1/GPa) = 0.01869498
#
# Stress axis : x y z
#
# Youngs Moduli (GPa) = 152.43403 66.95742 130.43885
#
# Poissons Ratio (x) = 0.22548 0.13387
# Poissons Ratio (y) = 0.51332 0.10949
# Poissons Ratio (z) = 0.15645 0.05621
#
# Static dielectric constant tensor:
#      x y z
#    x 2.213940 0.000000 0.040590 
#    y 0.000000 2.234760 0.000000 
#    z 0.040590 0.000000 2.144850 
# 
# From -- ./inp_files/75034.got.cif
#   From: 2010.05.17/outbox.cif.g08.bks.cpg/sg15_38_cif.got.tgz:75034.got - 2010.06.03 18:47:42.
