data_PCOD9278457
_publ_section_title
;
Structure prediction by ZEFSAII (Michael W. Deem and Ramdas Pophale) SiO2 
 PCOD9278457
Probable space group: C 2/C
;
_chemical_formula_sum "Si O2"
_cell_formula_units_Z 52
_cell_length_a 21.333091
_cell_length_b 15.113035
_cell_length_c 7.921874
_cell_angle_alpha 90.000000
_cell_angle_beta 125.727851
_cell_angle_gamma 90.000000
_cell_volume 2073.396361
_symmetry_space_group_name_H-M "C 2/C"
_symmetry_group_IT_number 15
_symmetry_cell_setting 'monoclinic'
loop_
_space_group_symop_operation_xyz
x,y,z
-x,y,1/2-z
-x,-y,-z
x,-y,1/2+z
1/2+x,1/2+y,z
1/2-x,1/2+y,1/2-z
1/2-x,1/2-y,-z
1/2+x,1/2-y,1/2+z
loop_
_atom_site_type_symbol
_atom_site_label
_atom_site_fract_x
_atom_site_fract_y
_atom_site_fract_z
Si Si1 0.500000 0.412474 0.250000
Si Si2 0.183822 0.429152 0.526852
Si Si3 0.462864 0.091354 0.507514
Si Si4 0.319878 0.220961 0.726463
Si Si5 0.751075 0.395065 0.356724
Si Si6 0.330122 0.538640 0.447279
Si Si7 0.013520 0.217983 0.067331
O O1 0.578296 0.463728 0.421111
O O2 0.481015 0.354470 0.387088
O O3 0.128036 0.406987 0.593320
O O4 0.157885 0.373764 0.325212
O O5 0.180338 0.534633 0.501265
O O6 0.273697 0.415749 0.719722
O O7 0.500000 0.099130 0.750000
O O8 0.483254 0.185616 0.458154
O O9 0.500000 0.000000 0.500000
O O10 0.250000 0.250000 0.500000
O O11 0.286085 0.197554 0.856645
O O12 0.394994 0.279700 0.826846
O O13 0.694504 0.409706 0.423414
O O14 0.703721 0.438982 0.124532
O O15 0.000000 0.205655 0.250000
#
# Coordination Sequence:
#
# PCOD9278457 Si02
#       7
#     4   8   8   8   8   8   8
#     4  12  28  50  66 106 144 188 258 290 360 428
#     4  10  20  43  65  98 137 171 234 279 354 430
#     4  11  23  37  65  97 132 182 226 287 357 430
#     4  12  23  42  71 102 137 184 236 293 364 423
#     4  10  22  43  69 102 137 175 238 296 351 428
#     4  10  24  42  73  99 137 187 235 299 348 429
#     4  11  26  47  66 102 146 187 228 298 368 421
#
# _framework density 25.079623000000002
#
# number of rings (size 3 to 8) (size 9 to 14) (size 15 to 20)
#    0.923    0.308    4.615    1.846    5.385    1.846 
#    0.000    2.308    0.000    0.000    0.000    0.000 
#    0.000    0.000    0.000    0.000    0.000    0.000 
#
# Total GULP energy -145089.464670 kJ/mol
# GULP energy per Si atom -5580.364026 kJ/mol
# Density = 2.502254 g / cm^3
# Si number density = 25.079623 Si / 1000 Ang^3
#
#
#
# Elastic Constant Matrix: (Units=GPa)
#
#
# Indices 1 2 3 4 5 6 
#
# 1 85.4922 1.6927 21.6067 0.0000 3.4294 0.0000
# 2 1.6927 32.0025 4.2771 0.0000 -2.2023 0.0000
# 3 21.6067 4.2771 81.4667 0.0000 -0.3488 0.0000
# 4 0.0000 0.0000 0.0000 24.7202 0.0000 -3.7748
# 5 3.4294 -2.2023 -0.3488 0.0000 50.3444 0.0000
# 6 0.0000 0.0000 0.0000 -3.7748 0.0000 23.6438
#
#
#
# Elastic Compliance Matrix: (Units=1/GPa)
#
#
# Indices 1 2 3 4 5 6 
#
# 1 0.012579 -0.000282 -0.003325 0.000000 -0.000892 0.000000
# 2 -0.000282 0.031569 -0.001577 0.000000 0.001389 0.000000
# 3 -0.003325 -0.001577 0.013241 0.000000 0.000249 0.000000
# 4 0.000000 0.000000 0.000000 0.041464 0.000000 0.006620
# 5 -0.000892 0.001389 0.000249 0.000000 0.019986 0.000000
# 6 0.000000 0.000000 0.000000 0.006620 0.000000 0.043351
#
#
# Mechanical properties :
#
#
# Convention : Reuss Voigt Hill
#
# Bulk Modulus (GPa) = 21.26748 28.23494 24.75121
# Shear Modulus (GPa) = 26.56313 31.16736 28.86524
#
# Velocity S-wave (km/s) = 3.25799 3.52907 3.39624
# Velocity P-wave (km/s) = 4.75931 5.28094 5.02690
#
# Compressibility (1/GPa) = 0.04702016
#
# Stress axis : x y z
#
# Youngs Moduli (GPa) = 79.49930 31.67683 75.52475
#
# Poissons Ratio (x) = 0.00894 0.25113
# Poissons Ratio (y) = 0.02245 0.11907
# Poissons Ratio (z) = 0.26435 0.04994
#
# Static dielectric constant tensor:
#      x y z
#    x 1.936870 0.000000 -0.098210 
#    y 0.000000 2.138930 0.000000 
#    z -0.098210 0.000000 1.922460 
# 
# From -- ./inp_files/49224.got.cif
#   From: 2010.05.17/outbox.cif.g08.bks.cpg/sg15_25_cif.got.tgz:49224.got - 2010.06.03 18:47:42.
