data_PCOD9278978
_publ_section_title
;
Structure prediction by ZEFSAII (Michael W. Deem and Ramdas Pophale) SiO2 
 PCOD9278978
Probable space group: C 2/C
;
_chemical_formula_sum "Si O2"
_cell_formula_units_Z 40
_cell_length_a 5.000036
_cell_length_b 20.222449
_cell_length_c 23.120165
_cell_angle_alpha 90.000000
_cell_angle_beta 118.864625
_cell_angle_gamma 90.000000
_cell_volume 2047.313145
_symmetry_space_group_name_H-M "C 2/C"
_symmetry_group_IT_number 15
_symmetry_cell_setting 'monoclinic'
loop_
_space_group_symop_operation_xyz
x,y,z
-x,y,1/2-z
-x,-y,-z
x,-y,1/2+z
1/2+x,1/2+y,z
1/2-x,1/2+y,1/2-z
1/2-x,1/2-y,-z
1/2+x,1/2-y,1/2+z
loop_
_atom_site_type_symbol
_atom_site_label
_atom_site_fract_x
_atom_site_fract_y
_atom_site_fract_z
Si Si1 0.659623 0.890535 0.828086
Si Si2 0.820227 0.184540 0.943821
Si Si3 0.829570 0.555282 0.400700
Si Si4 0.766429 0.766314 0.911365
Si Si5 0.872970 0.947625 0.034640
O O1 0.500000 0.897122 0.750000
O O2 0.508548 0.940366 0.859064
O O3 0.631940 0.817015 0.851219
O O4 0.019096 0.904638 0.861602
O O5 0.470179 0.205893 0.909345
O O6 0.998943 0.236168 0.921997
O O7 0.886134 0.110144 0.931318
O O8 0.988813 0.193601 0.023421
O O9 0.729012 0.485677 0.418388
O O10 0.067269 0.582811 0.473420
O O11 0.000000 0.000000 0.000000
#
# Coordination Sequence:
#
# PCOD9278978 Si02
#       5
#     8   8   8   8   8
#     4  12  24  42  62  87 125 165 212 258 297 378
#     4  10  21  33  59  87 122 150 187 261 303 368
#     4  11  23  37  61  94 121 161 211 247 319 363
#     4  10  21  35  55  89 119 152 202 239 315 354
#     4  11  22  37  64  92 135 154 196 267 320 372
#
# _framework density 19.537803
#
# number of rings (size 3 to 8) (size 9 to 14) (size 15 to 20)
#    0.000    1.200    4.000    1.800   11.200    0.000 
#    0.000    0.000    0.000    4.800    0.000    0.000 
#    0.000    0.000    0.000    0.000    0.000    0.000 
#
# Total GULP energy -111751.848972 kJ/mol
# GULP energy per Si atom -5587.592449 kJ/mol
# Density = 1.949333 g / cm^3
# Si number density = 19.537803 Si / 1000 Ang^3
#
#
#
# Elastic Constant Matrix: (Units=GPa)
#
#
# Indices 1 2 3 4 5 6 
#
# 1 86.4172 6.1750 24.9832 0.0000 -0.3829 0.0000
# 2 6.1750 60.6622 31.8949 0.0000 -3.3031 0.0000
# 3 24.9832 31.8949 92.8323 0.0000 -10.2320 0.0000
# 4 0.0000 0.0000 0.0000 22.5844 0.0000 -3.4824
# 5 -0.3829 -3.3031 -10.2320 0.0000 20.7089 0.0000
# 6 0.0000 0.0000 0.0000 -3.4824 0.0000 43.3895
#
#
#
# Elastic Compliance Matrix: (Units=1/GPa)
#
#
# Indices 1 2 3 4 5 6 
#
# 1 0.012612 0.000618 -0.003776 0.000000 -0.001534 0.000000
# 2 0.000618 0.020150 -0.007122 0.000000 -0.000293 0.000000
# 3 -0.003776 -0.007122 0.014914 0.000000 0.006163 0.000000
# 4 0.000000 0.000000 0.000000 0.044833 0.000000 0.003598
# 5 -0.001534 -0.000293 0.006163 0.000000 0.051258 0.000000
# 6 0.000000 0.000000 0.000000 0.003598 0.000000 0.023336
#
#
# Mechanical properties :
#
#
# Convention : Reuss Voigt Hill
#
# Bulk Modulus (GPa) = 36.87592 40.66865 38.77229
# Shear Modulus (GPa) = 25.41903 29.12714 27.27309
#
# Velocity S-wave (km/s) = 3.61088 3.86529 3.74025
# Velocity P-wave (km/s) = 6.02492 6.38601 6.20809
#
# Compressibility (1/GPa) = 0.02711796
#
# Stress axis : x y z
#
# Youngs Moduli (GPa) = 79.28737 49.62696 67.04936
#
# Poissons Ratio (x) = -0.03066 0.25315
# Poissons Ratio (y) = -0.04898 0.47751
# Poissons Ratio (z) = 0.29935 0.35343
#
# Static dielectric constant tensor:
#      x y z
#    x 1.726650 0.000000 -0.008990 
#    y 0.000000 1.729270 0.000000 
#    z -0.008990 0.000000 1.649240 
# 
# From -- ./inp_files/227194.got.cif
#   From: 2010.05.17/outbox.cif.g08.bks.cpg/sg15_114_cif.got.tgz:227194.got - 2010.06.03 18:47:42.
