data_PCOD9278117
_publ_section_title
;
Structure prediction by ZEFSAII (Michael W. Deem and Ramdas Pophale) SiO2 
 PCOD9278117
Probable space group: C 2/C
;
_chemical_formula_sum "Si O2"
_cell_formula_units_Z 52
_cell_length_a 18.355235
_cell_length_b 26.978653
_cell_length_c 8.962935
_cell_angle_alpha 90.000000
_cell_angle_beta 140.848407
_cell_angle_gamma 90.000000
_cell_volume 2802.317875
_symmetry_space_group_name_H-M "C 2/C"
_symmetry_group_IT_number 15
_symmetry_cell_setting 'monoclinic'
loop_
_space_group_symop_operation_xyz
x,y,z
-x,y,1/2-z
-x,-y,-z
x,-y,1/2+z
1/2+x,1/2+y,z
1/2-x,1/2+y,1/2-z
1/2-x,1/2-y,-z
1/2+x,1/2-y,1/2+z
loop_
_atom_site_type_symbol
_atom_site_label
_atom_site_fract_x
_atom_site_fract_y
_atom_site_fract_z
Si Si1 0.085653 0.568558 0.637268
Si Si2 0.935296 0.654178 0.485371
Si Si3 0.252216 0.655945 0.806292
Si Si4 0.000000 0.503291 0.750000
Si Si5 0.000000 0.189591 0.250000
Si Si6 0.000000 0.803129 0.250000
Si Si7 0.092792 0.262651 0.142678
Si Si8 0.267443 0.309750 0.003362
O O1 0.187272 0.608041 0.769063
O O2 0.087524 0.537152 0.792683
O O3 0.969292 0.601210 0.473943
O O4 0.068528 0.531163 0.474326
O O5 0.996726 0.694822 0.480183
O O6 0.803130 0.669225 0.251901
O O7 0.000000 0.657932 0.750000
O O8 0.207784 0.704496 0.828357
O O9 0.221213 0.665561 0.583613
O O10 0.389970 0.656628 0.033591
O O11 0.048895 0.227205 0.203267
O O12 0.902111 0.826124 0.200192
O O13 0.084509 0.770101 0.484014
O O14 0.250000 0.250000 0.000000
#
# Coordination Sequence:
#
# PCOD9278117 Si02
#       8
#     8   8   8   4   4   4   8   8
#     4  10  22  39  65  93 116 150 184 261 315 379
#     4  11  21  36  57  87 121 156 206 247 294 348
#     4  11  23  37  57  87 123 161 207 251 294 349
#     4  10  20  42  66  92 118 136 192 241 345 394
#     4  12  22  37  54  86 127 167 208 245 284 338
#     4  12  22  35  52  76 109 175 212 240 279 324
#     4  11  21  34  54  80 118 169 206 242 280 325
#     4  12  22  37  53  79 122 168 214 242 284 341
#
# _framework density 18.556069000000001
#
# number of rings (size 3 to 8) (size 9 to 14) (size 15 to 20)
#    0.000    0.923    6.154    1.385    0.000    4.923 
#    0.000    0.000    0.000    0.923    0.000    4.308 
#    0.000    0.000    0.000    0.000    0.000    0.000 
#
# Total GULP energy -144817.267888 kJ/mol
# GULP energy per Si atom -5569.894919 kJ/mol
# Density = 1.851383 g / cm^3
# Si number density = 18.556069 Si / 1000 Ang^3
#
#
#
# Elastic Constant Matrix: (Units=GPa)
#
#
# Indices 1 2 3 4 5 6 
#
# 1 112.3576 47.4110 48.1404 0.0000 0.0618 0.0000
# 2 47.4110 91.7711 43.5355 0.0000 -5.3386 0.0000
# 3 48.1404 43.5355 95.4393 0.0000 15.4250 0.0000
# 4 0.0000 0.0000 0.0000 15.4739 0.0000 -6.5100
# 5 0.0618 -5.3386 15.4250 0.0000 39.5608 0.0000
# 6 0.0000 0.0000 0.0000 -6.5100 0.0000 36.8395
#
#
#
# Elastic Compliance Matrix: (Units=1/GPa)
#
#
# Indices 1 2 3 4 5 6 
#
# 1 0.012699 -0.004286 -0.004647 0.000000 0.001214 0.000000
# 2 -0.004286 0.016200 -0.005958 0.000000 0.004516 0.000000
# 3 -0.004647 -0.005958 0.016722 0.000000 -0.007317 0.000000
# 4 0.000000 0.000000 0.000000 0.069815 0.000000 0.012337
# 5 0.001214 0.004516 -0.007317 0.000000 0.028738 0.000000
# 6 0.000000 0.000000 0.000000 0.012337 0.000000 0.029325
#
#
# Mechanical properties :
#
#
# Convention : Reuss Voigt Hill
#
# Bulk Modulus (GPa) = 63.12969 64.19353 63.66161
# Shear Modulus (GPa) = 23.97411 29.07359 26.52385
#
# Velocity S-wave (km/s) = 3.59831 3.96257 3.78483
# Velocity P-wave (km/s) = 7.16650 7.45691 7.31314
#
# Compressibility (1/GPa) = 0.01584041
#
# Stress axis : x y z
#
# Youngs Moduli (GPa) = 78.74825 61.72945 59.80183
#
# Poissons Ratio (x) = 0.26454 0.27787
# Poissons Ratio (y) = 0.33748 0.35629
# Poissons Ratio (z) = 0.36591 0.36777
#
# Static dielectric constant tensor:
#      x y z
#    x 1.717370 0.000000 -0.025650 
#    y 0.000000 1.634660 0.000000 
#    z -0.025650 0.000000 1.708450 
# 
# From -- ./inp_files/52239.got.cif
#   From: 2010.05.17/outbox.cif.g08.bks.cpg/sg15_27_cif.got.tgz:52239.got - 2010.06.03 18:47:42.
