data_PCOD9278223
_publ_section_title
;
Structure prediction by ZEFSAII (Michael W. Deem and Ramdas Pophale) SiO2 
 PCOD9278223
Probable space group: C 2/C
;
_chemical_formula_sum "Si O2"
_cell_formula_units_Z 56
_cell_length_a 8.547881
_cell_length_b 22.192376
_cell_length_c 22.307013
_cell_angle_alpha 90.000000
_cell_angle_beta 43.860021
_cell_angle_gamma 90.000000
_cell_volume 2932.064715
_symmetry_space_group_name_H-M "C 2/C"
_symmetry_group_IT_number 15
_symmetry_cell_setting 'monoclinic'
loop_
_space_group_symop_operation_xyz
x,y,z
-x,y,1/2-z
-x,-y,-z
x,-y,1/2+z
1/2+x,1/2+y,z
1/2-x,1/2+y,1/2-z
1/2-x,1/2-y,-z
1/2+x,1/2-y,1/2+z
loop_
_atom_site_type_symbol
_atom_site_label
_atom_site_fract_x
_atom_site_fract_y
_atom_site_fract_z
Si Si1 0.263179 0.594296 0.176149
Si Si2 0.996096 0.561842 0.463695
Si Si3 0.783078 0.799432 0.073164
Si Si4 0.428341 0.086048 0.836595
Si Si5 0.576119 0.404817 0.004602
Si Si6 0.736513 0.506755 0.214286
Si Si7 0.797180 0.168010 0.428902
O O1 0.327572 0.583893 0.088591
O O2 0.285272 0.536844 0.214193
O O3 0.450513 0.641450 0.148679
O O4 0.000000 0.613256 0.250000
O O5 0.144168 0.554103 0.362640
O O6 0.115669 0.615979 0.466060
O O7 0.000000 0.500000 0.500000
O O8 0.745366 0.574944 0.509233
O O9 0.584114 0.841872 0.153279
O O10 0.754496 0.729249 0.092881
O O11 0.780094 0.813139 0.003055
O O12 0.011702 0.833691 0.030692
O O13 0.500000 0.071268 0.750000
O O14 0.603754 0.051301 0.828881
O O15 0.172536 0.065752 0.921811
O O16 0.500000 0.491548 0.250000
#
# Coordination Sequence:
#
# PCOD9278223 Si02
#       7
#     8   8   8   8   8   8   8
#     4  11  21  41  62  94 128 174 211 260 327 398
#     4  12  25  37  62 101 131 163 210 273 335 382
#     4   8  20  44  67  86 121 176 214 262 320 383
#     4  10  23  43  61  90 124 171 219 258 320 394
#     4   9  23  43  64  92 125 177 216 258 332 384
#     4  12  25  38  60  97 130 164 210 271 327 381
#     4  10  20  42  68  91 130 164 220 268 323 380
#
# _framework density 19.099169
#
# number of rings (size 3 to 8) (size 9 to 14) (size 15 to 20)
#    0.857    0.857    2.857    1.286    2.000    2.286 
#    2.571    0.714    3.143    0.000    0.000    0.000 
#    0.000    0.000    0.000    0.000    0.000    0.000 
#
# Total GULP energy -156063.480659 kJ/mol
# GULP energy per Si atom -5573.695738 kJ/mol
# Density = 1.905570 g / cm^3
# Si number density = 19.099169 Si / 1000 Ang^3
#
#
#
# Elastic Constant Matrix: (Units=GPa)
#
#
# Indices 1 2 3 4 5 6 
#
# 1 124.6005 75.2042 29.6770 0.0000 -35.1349 -0.0001
# 2 75.2042 144.4116 29.9301 0.0000 -13.9106 0.0000
# 3 29.6770 29.9301 91.2285 0.0000 -17.8170 0.0000
# 4 0.0000 0.0000 0.0000 0.8560 0.0000 3.8665
# 5 -35.1349 -13.9106 -17.8170 0.0000 27.0100 0.0000
# 6 -0.0001 0.0000 0.0000 3.8665 0.0000 24.2459
#
#
#
# Elastic Compliance Matrix: (Units=1/GPa)
#
#
# Indices 1 2 3 4 5 6 
#
# 1 0.018158 -0.007632 0.000508 0.000000 0.020024 0.000000
# 2 -0.007632 0.010794 -0.002194 0.000000 -0.005817 0.000000
# 3 0.000508 -0.002194 0.013114 0.000000 0.008181 0.000000
# 4 0.000000 0.000000 0.000000 4.176495 -0.000001 -0.666025
# 5 0.020024 -0.005817 0.008181 -0.000001 0.065471 0.000000
# 6 0.000000 0.000000 0.000000 -0.666025 0.000000 0.147455
#
#
# Mechanical properties :
#
#
# Convention : Reuss Voigt Hill
#
# Bulk Modulus (GPa) = 42.68431 69.98482 56.33456
# Shear Modulus (GPa) = 1.12160 25.45101 13.28630
#
# Velocity S-wave (km/s) = 0.76715 3.65440 2.64038
# Velocity P-wave (km/s) = 4.81477 7.38435 6.23340
#
# Compressibility (1/GPa) = 0.02342781
#
# Stress axis : x y z
#
# Youngs Moduli (GPa) = 55.07354 92.64631 76.25458
#
# Poissons Ratio (x) = 0.70710 -0.03873
# Poissons Ratio (y) = 0.42033 0.16733
# Poissons Ratio (z) = -0.02797 0.20330
#
# Static dielectric constant tensor:
#      x y z
#    x 1.691180 0.000000 0.013410 
#    y 0.000000 1.700040 0.000000 
#    z 0.013410 0.000000 1.682290 
# 
# From -- ./inp_files/265462.got.cif
#   From: 2010.05.17/outbox.cif.g08.bks.cpg/sg15_133_cif.got.tgz:265462.got - 2010.06.03 18:47:42.
