data_PCOD9278042
_publ_section_title
;
Structure prediction by ZEFSAII (Michael W. Deem and Ramdas Pophale) SiO2 
 PCOD9278042
Probable space group: C 2/C
;
_chemical_formula_sum "Si O2"
_cell_formula_units_Z 40
_cell_length_a 15.930716
_cell_length_b 24.378764
_cell_length_c 13.515251
_cell_angle_alpha 90.000000
_cell_angle_beta 160.237843
_cell_angle_gamma 90.000000
_cell_volume 1774.750642
_symmetry_space_group_name_H-M "C 2/C"
_symmetry_group_IT_number 15
_symmetry_cell_setting 'monoclinic'
loop_
_space_group_symop_operation_xyz
x,y,z
-x,y,1/2-z
-x,-y,-z
x,-y,1/2+z
1/2+x,1/2+y,z
1/2-x,1/2+y,1/2-z
1/2-x,1/2-y,-z
1/2+x,1/2-y,1/2+z
loop_
_atom_site_type_symbol
_atom_site_label
_atom_site_fract_x
_atom_site_fract_y
_atom_site_fract_z
Si Si1 0.000000 0.849263 0.750000
Si Si2 0.500000 0.385070 0.250000
Si Si3 0.404318 0.867594 0.834036
Si Si4 0.240400 0.454927 0.135192
Si Si5 0.730892 0.217348 0.788866
Si Si6 0.832599 0.922698 0.742660
O O1 0.806005 0.812039 0.474748
O O2 0.873695 0.888273 0.690334
O O3 0.691833 0.347793 0.524484
O O4 0.373737 0.424406 0.192172
O O5 0.301765 0.883400 0.827738
O O6 0.486340 0.924574 0.875963
O O7 0.636984 0.827990 0.106399
O O8 0.411038 0.442267 0.420779
O O9 0.201068 0.519315 0.077797
O O10 0.484536 0.253916 0.533797
#
# Coordination Sequence:
#
# PCOD9278042 Si02
#       6
#     4   4   8   8   8   8
#     4  12  23  48  72 110 146 192 238 297 364 450
#     4  10  23  40  72  94 140 186 238 291 370 422
#     4  11  23  45  68 100 142 189 241 309 356 431
#     4  10  20  42  65 104 143 189 232 286 360 435
#     4  12  28  49  76 105 143 194 250 314 372 426
#     4  10  22  38  69 103 148 188 232 280 363 444
#
# _framework density 22.538377000000001
#
# number of rings (size 3 to 8) (size 9 to 14) (size 15 to 20)
#    0.000    1.200    2.000    3.600    2.800    2.400 
#    7.200    1.000    0.000    0.000    0.000    0.000 
#    0.000    0.000    0.000    0.000    0.000    0.000 
#
# Total GULP energy -111871.734535 kJ/mol
# GULP energy per Si atom -5593.586727 kJ/mol
# Density = 2.248708 g / cm^3
# Si number density = 22.538377 Si / 1000 Ang^3
#
#
#
# Elastic Constant Matrix: (Units=GPa)
#
#
# Indices 1 2 3 4 5 6 
#
# 1 84.8739 15.7984 15.6950 0.0010 1.5122 -0.0014
# 2 15.7984 92.9414 51.2619 -0.0010 -1.2766 -0.0015
# 3 15.6950 51.2619 117.7488 0.0014 -14.1718 -0.0021
# 4 0.0010 -0.0010 0.0014 22.7642 -0.0001 10.5272
# 5 1.5122 -1.2766 -14.1718 -0.0001 33.4429 -0.0009
# 6 -0.0014 -0.0015 -0.0021 10.5272 -0.0009 36.2108
#
#
#
# Elastic Compliance Matrix: (Units=1/GPa)
#
#
# Indices 1 2 3 4 5 6 
#
# 1 0.012285 -0.001484 -0.001122 -0.000001 -0.001088 0.000001
# 2 -0.001484 0.014492 -0.006361 0.000001 -0.002075 0.000000
# 3 -0.001122 -0.006361 0.012000 -0.000001 0.004893 0.000001
# 4 -0.000001 0.000001 -0.000001 0.050752 -0.000001 -0.014755
# 5 -0.001088 -0.002075 0.004893 -0.000001 0.031945 0.000001
# 6 0.000001 0.000000 0.000001 -0.014755 0.000001 0.031906
#
#
# Mechanical properties :
#
#
# Convention : Reuss Voigt Hill
#
# Bulk Modulus (GPa) = 47.97865 51.23050 49.60458
# Shear Modulus (GPa) = 28.04860 32.67085 30.35973
#
# Velocity S-wave (km/s) = 3.53155 3.81145 3.67416
# Velocity P-wave (km/s) = 6.16140 6.49224 6.32898
#
# Compressibility (1/GPa) = 0.02084260
#
# Stress axis : x y z
#
# Youngs Moduli (GPa) = 81.39761 69.00558 83.33085
#
# Poissons Ratio (x) = 0.10242 0.09352
# Poissons Ratio (y) = 0.12081 0.53005
# Poissons Ratio (z) = 0.09135 0.43893
#
# Static dielectric constant tensor:
#      x y z
#    x 1.832850 0.000000 -0.011390 
#    y 0.000000 1.841940 0.000000 
#    z -0.011390 0.000000 1.907990 
# 
# From -- ./inp_files/164151.got.cif
#   From: 2010.05.17/outbox.cif.g08.bks.cpg/sg15_83_cif.got.tgz:164151.got - 2010.06.03 18:47:42.
