data_PCOD9278119
_publ_section_title
;
Structure prediction by ZEFSAII (Michael W. Deem and Ramdas Pophale) SiO2 
 PCOD9278119
Probable space group: C 2/C
;
_chemical_formula_sum "Si O2"
_cell_formula_units_Z 56
_cell_length_a 20.807889
_cell_length_b 7.846715
_cell_length_c 15.235039
_cell_angle_alpha 90.000000
_cell_angle_beta 101.423908
_cell_angle_gamma 90.000000
_cell_volume 2438.198862
_symmetry_space_group_name_H-M "C 2/C"
_symmetry_group_IT_number 15
_symmetry_cell_setting 'monoclinic'
loop_
_space_group_symop_operation_xyz
x,y,z
-x,y,1/2-z
-x,-y,-z
x,-y,1/2+z
1/2+x,1/2+y,z
1/2-x,1/2+y,1/2-z
1/2-x,1/2-y,-z
1/2+x,1/2-y,1/2+z
loop_
_atom_site_type_symbol
_atom_site_label
_atom_site_fract_x
_atom_site_fract_y
_atom_site_fract_z
Si Si1 0.644616 0.785471 0.693815
Si Si2 0.262059 0.535791 0.251427
Si Si3 0.420689 0.821127 0.004312
Si Si4 0.294529 0.619664 0.456390
Si Si5 0.939822 0.148666 0.682857
Si Si6 0.334663 0.638097 0.105297
Si Si7 0.439092 0.219614 0.994161
O O1 0.696317 0.637557 0.734895
O O2 0.686062 0.959788 0.702753
O O3 0.612805 0.741606 0.591691
O O4 0.592143 0.779910 0.757060
O O5 0.265642 0.598213 0.352220
O O6 0.295042 0.653105 0.184351
O O7 0.493433 0.742758 0.040140
O O8 0.373201 0.794859 0.074019
O O9 0.426862 0.019122 0.982978
O O10 0.250000 0.750000 0.500000
O O11 0.293530 0.448173 0.515009
O O12 0.370213 0.682272 0.462848
O O13 0.959310 0.243065 0.599848
O O14 0.000000 0.066980 0.750000
O O15 0.888733 0.005010 0.641990
#
# Coordination Sequence:
#
# PCOD9278119 Si02
#       7
#     8   8   8   8   8   8   8
#     4  11  24  41  67  90 133 169 219 271 327 387
#     4  11  24  42  63 101 126 174 219 271 328 385
#     4  11  23  44  62  97 132 171 215 272 335 386
#     4  11  23  44  67  94 132 174 219 268 328 394
#     4  10  20  42  66  92 123 172 214 264 326 392
#     4  10  24  40  66  96 125 171 222 272 323 386
#     4  10  24  41  67  93 132 172 212 267 333 398
#
# _framework density 22.967773999999999
#
# number of rings (size 3 to 8) (size 9 to 14) (size 15 to 20)
#    0.000    1.429    2.857    2.571    4.000    7.429 
#    0.000    0.714    0.000    0.000    0.000    0.000 
#    0.000    0.000    0.000    0.000    0.000    0.000 
#
# Total GULP energy -156396.176860 kJ/mol
# GULP energy per Si atom -5585.577745 kJ/mol
# Density = 2.291550 g / cm^3
# Si number density = 22.967774 Si / 1000 Ang^3
#
#
#
# Elastic Constant Matrix: (Units=GPa)
#
#
# Indices 1 2 3 4 5 6 
#
# 1 63.0745 7.8222 28.2141 0.0000 5.0401 0.0000
# 2 7.8222 23.9044 3.2750 0.0000 -2.7835 0.0000
# 3 28.2141 3.2750 109.5135 0.0000 -11.6258 0.0000
# 4 0.0000 0.0000 0.0000 6.0511 0.0000 -10.7696
# 5 5.0401 -2.7835 -11.6258 0.0000 35.1711 0.0000
# 6 0.0000 0.0000 0.0000 -10.7696 0.0000 25.3692
#
#
#
# Elastic Compliance Matrix: (Units=1/GPa)
#
#
# Indices 1 2 3 4 5 6 
#
# 1 0.019422 -0.006209 -0.005354 0.000000 -0.005044 0.000000
# 2 -0.006209 0.044301 0.000769 0.000000 0.004650 0.000000
# 3 -0.005354 0.000769 0.010960 0.000000 0.004451 0.000000
# 4 0.000000 0.000000 0.000000 0.676023 0.000000 0.286981
# 5 -0.005044 0.004650 0.004451 0.000000 0.030995 0.000000
# 6 0.000000 0.000000 0.000000 0.286981 0.000000 0.161245
#
#
# Mechanical properties :
#
#
# Convention : Reuss Voigt Hill
#
# Bulk Modulus (GPa) = 18.83427 30.56834 24.70130
# Shear Modulus (GPa) = 5.09044 23.79701 14.44373
#
# Velocity S-wave (km/s) = 1.49035 3.22235 2.51045
# Velocity P-wave (km/s) = 3.34360 5.21372 4.37964
#
# Compressibility (1/GPa) = 0.05309471
#
# Stress axis : x y z
#
# Youngs Moduli (GPa) = 51.48767 22.57268 91.24045
#
# Poissons Ratio (x) = 0.14016 0.48846
# Poissons Ratio (y) = 0.31971 -0.07012
# Poissons Ratio (z) = 0.27564 -0.01735
#
# Static dielectric constant tensor:
#      x y z
#    x 1.921320 0.000000 0.007850 
#    y 0.000000 1.909050 0.000000 
#    z 0.007850 0.000000 1.809950 
# 
# From -- ./inp_files/166676.got.cif
#   From: 2010.05.17/outbox.cif.g08.bks.cpg/sg15_84_cif.got.tgz:166676.got - 2010.06.03 18:47:42.
