data_PCOD9278739
_publ_section_title
;
Structure prediction by ZEFSAII (Michael W. Deem and Ramdas Pophale) SiO2 
 PCOD9278739
Probable space group: C 2/C
;
_chemical_formula_sum "Si O2"
_cell_formula_units_Z 44
_cell_length_a 8.120311
_cell_length_b 29.349242
_cell_length_c 10.982003
_cell_angle_alpha 90.000000
_cell_angle_beta 55.514898
_cell_angle_gamma 90.000000
_cell_volume 2157.358969
_symmetry_space_group_name_H-M "C 2/C"
_symmetry_group_IT_number 15
_symmetry_cell_setting 'monoclinic'
loop_
_space_group_symop_operation_xyz
x,y,z
-x,y,1/2-z
-x,-y,-z
x,-y,1/2+z
1/2+x,1/2+y,z
1/2-x,1/2+y,1/2-z
1/2-x,1/2-y,-z
1/2+x,1/2-y,1/2+z
loop_
_atom_site_type_symbol
_atom_site_label
_atom_site_fract_x
_atom_site_fract_y
_atom_site_fract_z
Si Si1 0.000000 0.866299 0.750000
Si Si2 0.933958 0.448513 0.037755
Si Si3 0.074858 0.866518 0.457764
Si Si4 0.547072 0.856635 0.872750
Si Si5 0.669990 0.701131 0.573075
Si Si6 0.500000 0.889194 0.250000
Si Si7 0.500000 0.573838 0.750000
O O1 0.026929 0.889725 0.607081
O O2 0.226113 0.844665 0.676945
O O3 0.985891 0.422937 0.141548
O O4 0.696449 0.453022 0.137832
O O5 0.000000 0.500000 0.000000
O O6 0.012979 0.410967 0.908103
O O7 0.308658 0.858288 0.351534
O O8 0.943103 0.821973 0.493853
O O9 0.030606 0.896054 0.357393
O O10 0.500000 0.846585 0.750000
O O11 0.365256 0.830522 0.019178
O O12 0.500000 0.703120 0.750000
O O13 0.750000 0.750000 0.500000
#
# Coordination Sequence:
#
# PCOD9278739 Si02
#       7
#     4   8   8   8   8   4   4
#     4  12  24  39  73 110 134 178 230 289 345 414
#     4  11  23  39  65  96 134 178 234 289 341 419
#     4  11  21  43  73  96 138 183 228 287 348 416
#     4  12  24  46  70 100 145 185 228 288 361 413
#     4  12  25  45  75 100 133 187 234 285 353 427
#     4  10  22  42  65  98 132 184 234 277 354 424
#     4  10  20  45  66  94 130 194 230 272 359 418
#
# _framework density 20.395308
#
# number of rings (size 3 to 8) (size 9 to 14) (size 15 to 20)
#    0.000    0.727    6.364    1.636    1.273    0.727 
#    0.000    3.636    0.000    0.000    0.000    0.000 
#    0.000    0.000    0.000    0.000    0.000    0.000 
#
# Total GULP energy -122498.729151 kJ/mol
# GULP energy per Si atom -5568.124052 kJ/mol
# Density = 2.034889 g / cm^3
# Si number density = 20.395308 Si / 1000 Ang^3
#
#
#
# Elastic Constant Matrix: (Units=GPa)
#
#
# Indices 1 2 3 4 5 6 
#
# 1 131.6616 31.5756 59.3270 0.0000 -37.3794 0.0000
# 2 31.5756 101.3384 30.3556 0.0000 -29.4878 0.0000
# 3 59.3270 30.3556 142.9583 0.0000 -8.2534 0.0000
# 4 0.0000 0.0000 0.0000 73.9931 0.0000 -36.6260
# 5 -37.3794 -29.4878 -8.2534 0.0000 61.6151 0.0000
# 6 0.0000 0.0000 0.0000 -36.6260 0.0000 29.8601
#
#
#
# Elastic Compliance Matrix: (Units=1/GPa)
#
#
# Indices 1 2 3 4 5 6 
#
# 1 0.011360 -0.000493 -0.004258 0.000000 0.006085 0.000000
# 2 -0.000493 0.012171 -0.002077 0.000000 0.005247 0.000000
# 3 -0.004258 -0.002077 0.009067 0.000000 -0.002363 0.000000
# 4 0.000000 0.000000 0.000000 0.034402 0.000000 0.042197
# 5 0.006085 0.005247 -0.002363 0.000000 0.022116 0.000000
# 6 0.000000 0.000000 0.000000 0.042197 0.000000 0.085248
#
#
# Mechanical properties :
#
#
# Convention : Reuss Voigt Hill
#
# Bulk Modulus (GPa) = 52.79624 68.71939 60.75782
# Shear Modulus (GPa) = 25.72897 50.07367 37.90132
#
# Velocity S-wave (km/s) = 3.55563 4.96033 4.31552
# Velocity P-wave (km/s) = 6.54212 8.15925 7.39502
#
# Compressibility (1/GPa) = 0.01894074
#
# Stress axis : x y z
#
# Youngs Moduli (GPa) = 88.02891 82.16577 110.29330
#
# Poissons Ratio (x) = 0.04054 0.46965
# Poissons Ratio (y) = 0.04343 0.22903
# Poissons Ratio (z) = 0.37485 0.17062
#
# Static dielectric constant tensor:
#      x y z
#    x 1.880350 0.000000 -0.010690 
#    y 0.000000 1.716480 0.000000 
#    z -0.010690 0.000000 1.823230 
# 
# From -- ./inp_files/81131.got.cif
#   From: 2010.05.17/outbox.cif.g08.bks.cpg/sg15_41_cif.got.tgz:81131.got - 2010.06.03 18:47:42.
