data_PCOD9278556
_publ_section_title
;
Structure prediction by ZEFSAII (Michael W. Deem and Ramdas Pophale) SiO2 
 PCOD9278556
Probable space group: C 2/C
;
_chemical_formula_sum "Si O2"
_cell_formula_units_Z 44
_cell_length_a 8.344705
_cell_length_b 28.236354
_cell_length_c 10.109873
_cell_angle_alpha 90.000000
_cell_angle_beta 116.522998
_cell_angle_gamma 90.000000
_cell_volume 2131.422433
_symmetry_space_group_name_H-M "C 2/C"
_symmetry_group_IT_number 15
_symmetry_cell_setting 'monoclinic'
loop_
_space_group_symop_operation_xyz
x,y,z
-x,y,1/2-z
-x,-y,-z
x,-y,1/2+z
1/2+x,1/2+y,z
1/2-x,1/2+y,1/2-z
1/2-x,1/2-y,-z
1/2+x,1/2-y,1/2+z
loop_
_atom_site_type_symbol
_atom_site_label
_atom_site_fract_x
_atom_site_fract_y
_atom_site_fract_z
Si Si1 0.644461 0.650715 0.641285
Si Si2 0.865737 0.829731 0.814945
Si Si3 0.000000 0.064303 0.750000
Si Si4 0.000000 0.609680 0.750000
Si Si5 0.613758 0.952341 0.040380
Si Si6 0.500000 0.112428 0.250000
Si Si7 0.798980 0.240881 0.669368
O O1 0.489369 0.670015 0.491368
O O2 0.571323 0.600671 0.665756
O O3 0.694015 0.686864 0.778043
O O4 0.832916 0.641033 0.640913
O O5 0.678496 0.858034 0.769385
O O6 0.814745 0.774637 0.777106
O O7 0.000000 0.847653 0.750000
O O8 0.173225 0.037280 0.868642
O O9 0.060379 0.577900 0.649605
O O10 0.567657 0.920633 0.895652
O O11 0.500000 0.000000 0.000000
O O12 0.750000 0.250000 0.500000
O O13 0.000000 0.258811 0.750000
#
# Coordination Sequence:
#
# PCOD9278556 Si02
#       7
#     8   8   4   4   8   4   8
#     4  11  22  44  64  96 139 187 233 283 356 419
#     4  12  26  42  67 107 143 188 244 292 357 417
#     4  10  20  43  74  92 134 188 218 277 370 432
#     4  10  25  42  74  98 142 188 238 292 361 438
#     4  11  24  47  72 107 136 183 236 297 370 437
#     4  12  25  47  76 102 152 182 238 309 355 432
#     4  12  24  40  67  96 140 186 238 289 342 408
#
# _framework density 20.643491999999998
#
# number of rings (size 3 to 8) (size 9 to 14) (size 15 to 20)
#    0.000    0.727    5.455    1.636    3.818    2.182 
#    4.909    2.727    0.000    0.000    0.000    0.000 
#    0.000    0.000    0.000    0.000    0.000    0.000 
#
# Total GULP energy -122742.801215 kJ/mol
# GULP energy per Si atom -5579.218237 kJ/mol
# Density = 2.059651 g / cm^3
# Si number density = 20.643492 Si / 1000 Ang^3
#
#
#
# Elastic Constant Matrix: (Units=GPa)
#
#
# Indices 1 2 3 4 5 6 
#
# 1 159.5165 51.4834 48.9164 0.0000 28.9180 0.0000
# 2 51.4834 82.8569 27.4443 0.0000 16.7751 0.0000
# 3 48.9164 27.4443 118.2748 0.0000 19.2590 0.0000
# 4 0.0000 0.0000 0.0000 25.2301 0.0000 4.5345
# 5 28.9180 16.7751 19.2590 0.0000 46.9972 0.0000
# 6 0.0000 0.0000 0.0000 4.5345 0.0000 34.7064
#
#
#
# Elastic Compliance Matrix: (Units=1/GPa)
#
#
# Indices 1 2 3 4 5 6 
#
# 1 0.008833 -0.004143 -0.002194 0.000000 -0.003057 0.000000
# 2 -0.004143 0.015635 -0.001522 0.000000 -0.002408 0.000000
# 3 -0.002194 -0.001522 0.010080 0.000000 -0.002237 0.000000
# 4 0.000000 0.000000 0.000000 0.040588 0.000000 -0.005303
# 5 -0.003057 -0.002408 -0.002237 0.000000 0.024935 0.000000
# 6 0.000000 0.000000 0.000000 -0.005303 0.000000 0.029506
#
#
# Mechanical properties :
#
#
# Convention : Reuss Voigt Hill
#
# Bulk Modulus (GPa) = 53.10907 68.48182 60.79544
# Shear Modulus (GPa) = 32.98758 36.90703 34.94731
#
# Velocity S-wave (km/s) = 4.00179 4.23286 4.11895
# Velocity P-wave (km/s) = 6.86550 7.55877 7.22046
#
# Compressibility (1/GPa) = 0.01882918
#
# Stress axis : x y z
#
# Youngs Moduli (GPa) = 113.21093 63.95976 99.20754
#
# Poissons Ratio (x) = 0.26497 0.21767
# Poissons Ratio (y) = 0.46900 0.15104
# Poissons Ratio (z) = 0.24840 0.09738
#
# Static dielectric constant tensor:
#      x y z
#    x 1.804180 0.000000 -0.001800 
#    y 0.000000 1.745020 0.000000 
#    z -0.001800 0.000000 1.736290 
# 
# From -- ./inp_files/25767.got.cif
#   From: 2010.05.17/outbox.cif.g08.bks.cpg/sg15_13_cif.got.tgz:25767.got - 2010.06.03 18:47:42.
