data_PCOD9278074
_publ_section_title
;
Structure prediction by ZEFSAII (Michael W. Deem and Ramdas Pophale) SiO2 
 PCOD9278074
Probable space group: C 2/C
;
_chemical_formula_sum "Si O2"
_cell_formula_units_Z 60
_cell_length_a 18.526055
_cell_length_b 14.625532
_cell_length_c 24.399404
_cell_angle_alpha 90.000000
_cell_angle_beta 23.404560
_cell_angle_gamma 90.000000
_cell_volume 2626.067979
_symmetry_space_group_name_H-M "C 2/C"
_symmetry_group_IT_number 15
_symmetry_cell_setting 'monoclinic'
loop_
_space_group_symop_operation_xyz
x,y,z
-x,y,1/2-z
-x,-y,-z
x,-y,1/2+z
1/2+x,1/2+y,z
1/2-x,1/2+y,1/2-z
1/2-x,1/2-y,-z
1/2+x,1/2-y,1/2+z
loop_
_atom_site_type_symbol
_atom_site_label
_atom_site_fract_x
_atom_site_fract_y
_atom_site_fract_z
Si Si1 0.938541 0.190223 0.154714
Si Si2 0.260845 0.486176 0.793510
Si Si3 0.695764 0.701692 0.739422
Si Si4 0.701662 0.222676 0.959514
Si Si5 0.000000 0.643915 0.250000
Si Si6 0.188522 0.285141 0.150910
Si Si7 0.109427 0.476027 0.512776
Si Si8 0.415459 0.030406 0.750664
O O1 0.920652 0.080630 0.164005
O O2 0.836890 0.240823 0.176481
O O3 0.830030 0.217648 0.284993
O O4 0.144782 0.223890 0.006850
O O5 0.287274 0.592889 0.762049
O O6 0.079167 0.452913 0.888082
O O7 0.229718 0.481814 0.880770
O O8 0.744136 0.719385 0.642526
O O9 0.495451 0.735354 0.894085
O O10 0.852385 0.289596 0.880035
O O11 0.700393 0.115001 0.973712
O O12 0.105707 0.577804 0.220314
O O13 0.000000 0.271198 0.250000
O O14 0.221511 0.385256 0.157584
O O15 0.049147 0.536643 0.606034
O O16 0.500000 0.056118 0.750000
#
# Coordination Sequence:
#
# PCOD9278074 Si02
#       8
#     8   8   8   8   4   8   8   8
#     4  12  25  45  71 105 129 180 229 280 350 409
#     4  10  24  39  70 102 136 179 218 285 345 405
#     4  11  24  42  68 101 138 170 226 285 336 401
#     4  11  23  42  65  98 137 182 222 278 332 404
#     4  10  24  40  68  92 138 182 226 266 340 402
#     4  11  26  46  68  93 136 172 230 281 340 405
#     4  10  20  42  65  96 144 175 225 277 342 395
#     4   9  22  41  65  95 130 182 218 281 325 400
#
# _framework density 22.847847000000002
#
# number of rings (size 3 to 8) (size 9 to 14) (size 15 to 20)
#    0.400    1.067    1.333    2.800    7.467    2.133 
#    0.000    3.333    1.467    0.000    0.000    0.000 
#    0.000    0.000    0.000    0.000    0.000    0.000 
#
# Total GULP energy -167327.027652 kJ/mol
# GULP energy per Si atom -5577.567588 kJ/mol
# Density = 2.279584 g / cm^3
# Si number density = 22.847847 Si / 1000 Ang^3
#
#
#
# Elastic Constant Matrix: (Units=GPa)
#
#
# Indices 1 2 3 4 5 6 
#
# 1 62.6859 17.2455 5.4755 0.0001 14.2732 -0.0015
# 2 17.2455 112.4500 21.6991 0.0009 11.3136 0.0000
# 3 5.4755 21.6991 109.0003 -0.0037 3.1599 -0.0009
# 4 0.0001 0.0009 -0.0037 21.3991 -0.0023 6.8218
# 5 14.2732 11.3136 3.1599 -0.0023 32.2496 0.0007
# 6 -0.0015 0.0000 -0.0009 6.8218 0.0007 21.5196
#
#
#
# Elastic Compliance Matrix: (Units=1/GPa)
#
#
# Indices 1 2 3 4 5 6 
#
# 1 0.018195 -0.001995 -0.000305 -0.000001 -0.007323 0.000002
# 2 -0.001995 0.009781 -0.001778 -0.000001 -0.002374 0.000000
# 3 -0.000305 -0.001778 0.009549 0.000002 -0.000177 0.000000
# 4 -0.000001 -0.000001 0.000002 0.051985 0.000005 -0.016479
# 5 -0.007323 -0.002374 -0.000177 0.000005 0.035100 -0.000003
# 6 0.000002 0.000000 0.000000 -0.016479 -0.000003 0.051693
#
#
# Mechanical properties :
#
#
# Convention : Reuss Voigt Hill
#
# Bulk Modulus (GPa) = 34.04860 41.44183 37.74522
# Shear Modulus (GPa) = 25.74039 31.01472 28.37756
#
# Velocity S-wave (km/s) = 3.36013 3.68835 3.52806
# Velocity P-wave (km/s) = 5.47619 6.02629 5.75781
#
# Compressibility (1/GPa) = 0.02936978
#
# Stress axis : x y z
#
# Youngs Moduli (GPa) = 54.95872 102.24166 104.72643
#
# Poissons Ratio (x) = 0.20396 0.03190
# Poissons Ratio (y) = 0.10964 0.18621
# Poissons Ratio (z) = 0.01674 0.18179
#
# Static dielectric constant tensor:
#      x y z
#    x 1.847210 0.000000 0.000470 
#    y 0.000000 1.974130 0.000010 
#    z 0.000470 0.000010 1.844490 
# 
# From -- ./inp_files/301191.got.cif
#   From: 2010.05.17/outbox.cif.g08.bks.cpg/sg15_151_cif.got.tgz:301191.got - 2010.06.03 18:47:42.
