data_PCOD9278356
_publ_section_title
;
Structure prediction by ZEFSAII (Michael W. Deem and Ramdas Pophale) SiO2 
 PCOD9278356
Probable space group: C 2/C
;
_chemical_formula_sum "Si O2"
_cell_formula_units_Z 52
_cell_length_a 12.001438
_cell_length_b 14.489541
_cell_length_c 25.199273
_cell_angle_alpha 90.000000
_cell_angle_beta 154.040863
_cell_angle_gamma 90.000000
_cell_volume 1918.148641
_symmetry_space_group_name_H-M "C 2/C"
_symmetry_group_IT_number 15
_symmetry_cell_setting 'monoclinic'
loop_
_space_group_symop_operation_xyz
x,y,z
-x,y,1/2-z
-x,-y,-z
x,-y,1/2+z
1/2+x,1/2+y,z
1/2-x,1/2+y,1/2-z
1/2-x,1/2-y,-z
1/2+x,1/2-y,1/2+z
loop_
_atom_site_type_symbol
_atom_site_label
_atom_site_fract_x
_atom_site_fract_y
_atom_site_fract_z
Si Si1 0.738188 0.389848 0.526910
Si Si2 0.632779 0.516354 0.192254
Si Si3 0.462109 0.150326 0.635837
Si Si4 0.112808 0.135301 0.083479
Si Si5 0.000000 0.013520 0.750000
Si Si6 0.449885 0.837811 0.447886
Si Si7 0.649134 0.784496 0.642933
O O1 0.621503 0.464850 0.438195
O O2 0.546553 0.302670 0.443719
O O3 0.004694 0.356043 0.619084
O O4 0.726926 0.419755 0.583049
O O5 0.853808 0.438860 0.283460
O O6 0.676417 0.591584 0.166337
O O7 0.566129 0.539669 0.224375
O O8 0.194751 0.137964 0.550464
O O9 0.420265 0.162656 0.554514
O O10 0.607411 0.236126 0.726087
O O11 0.201908 0.240809 0.117754
O O12 0.246359 0.079762 0.865447
O O13 0.633466 0.829671 0.577515
#
# Coordination Sequence:
#
# PCOD9278356 Si02
#       7
#     8   8   8   8   4   8   8
#     4   9  18  35  63  95 132 169 231 286 343 423
#     4  10  21  41  65  98 141 192 234 288 368 433
#     4  10  23  42  67  97 145 192 231 295 373 418
#     4  11  23  40  62 103 146 179 231 306 363 419
#     4  10  20  42  72 100 138 194 250 286 352 436
#     4  10  21  39  69  99 134 179 246 301 341 431
#     4   9  18  37  66  98 126 178 240 288 342 418
#
# _framework density 27.109473999999999
#
# number of rings (size 3 to 8) (size 9 to 14) (size 15 to 20)
#    0.000    2.154    1.538    0.923    6.462    5.538 
#    2.769    6.154    0.000    0.000    0.000    0.000 
#    0.000    0.000    0.000    0.000    0.000    0.000 
#
# Total GULP energy -145854.581719 kJ/mol
# GULP energy per Si atom -5609.791605 kJ/mol
# Density = 2.704777 g / cm^3
# Si number density = 27.109474 Si / 1000 Ang^3
#
#
#
# Elastic Constant Matrix: (Units=GPa)
#
#
# Indices 1 2 3 4 5 6 
#
# 1 238.7895 53.0340 114.0039 -0.0004 -28.6356 0.0007
# 2 53.0340 46.0786 59.0488 -0.0024 -19.7244 0.0005
# 3 114.0039 59.0488 155.7555 -0.0065 -10.4521 0.0015
# 4 -0.0004 -0.0024 -0.0065 46.4808 0.0006 -1.5448
# 5 -28.6356 -19.7244 -10.4521 0.0006 59.8011 0.0000
# 6 0.0007 0.0005 0.0015 -1.5448 0.0000 51.0936
#
#
#
# Elastic Compliance Matrix: (Units=1/GPa)
#
#
# Indices 1 2 3 4 5 6 
#
# 1 0.006804 -0.001472 -0.004286 -0.000001 0.002023 0.000000
# 2 -0.001472 0.051630 -0.017607 0.000000 0.013247 0.000000
# 3 -0.004286 -0.017607 0.015891 0.000001 -0.005082 0.000000
# 4 -0.000001 0.000000 0.000001 0.021536 0.000000 0.000651
# 5 0.002023 0.013247 -0.005082 0.000000 0.021172 0.000000
# 6 0.000000 0.000000 0.000000 0.000651 0.000000 0.019592
#
#
# Mechanical properties :
#
#
# Convention : Reuss Voigt Hill
#
# Bulk Modulus (GPa) = 36.23887 99.19967 67.71927
# Shear Modulus (GPa) = 25.96683 45.77756 35.87220
#
# Velocity S-wave (km/s) = 3.09827 4.11374 3.64158
# Velocity P-wave (km/s) = 5.11817 7.69646 6.53572
#
# Compressibility (1/GPa) = 0.02759468
#
# Stress axis : x y z
#
# Youngs Moduli (GPa) = 146.98143 19.36852 62.92700
#
# Poissons Ratio (x) = 0.02851 0.26970
# Poissons Ratio (y) = 0.21638 1.10797
# Poissons Ratio (z) = 0.62995 0.34102
#
# Static dielectric constant tensor:
#      x y z
#    x 2.029400 0.000000 -0.039300 
#    y 0.000000 2.200310 0.000000 
#    z -0.039300 0.000000 2.113850 
# 
# From -- ./inp_files/314342.got.cif
#   From: 2010.05.17/outbox.cif.g08.bks.cpg/sg15_158_cif.got.tgz:314342.got - 2010.06.03 18:47:42.
