data_PCOD9278859
_publ_section_title
;
Structure prediction by ZEFSAII (Michael W. Deem and Ramdas Pophale) SiO2 
 PCOD9278859
Probable space group: C 2/C
;
_chemical_formula_sum "Si O2"
_cell_formula_units_Z 36
_cell_length_a 10.258916
_cell_length_b 22.361841
_cell_length_c 15.740650
_cell_angle_alpha 90.000000
_cell_angle_beta 32.964613
_cell_angle_gamma 90.000000
_cell_volume 1964.839771
_symmetry_space_group_name_H-M "C 2/C"
_symmetry_group_IT_number 15
_symmetry_cell_setting 'monoclinic'
loop_
_space_group_symop_operation_xyz
x,y,z
-x,y,1/2-z
-x,-y,-z
x,-y,1/2+z
1/2+x,1/2+y,z
1/2-x,1/2+y,1/2-z
1/2-x,1/2-y,-z
1/2+x,1/2-y,1/2+z
loop_
_atom_site_type_symbol
_atom_site_label
_atom_site_fract_x
_atom_site_fract_y
_atom_site_fract_z
Si Si1 0.000000 0.739396 0.250000
Si Si2 0.714581 0.577453 0.431222
Si Si3 0.419544 0.445276 0.932187
Si Si4 0.862327 0.667322 0.480457
Si Si5 0.374081 0.064392 0.061258
O O1 0.968758 0.699060 0.182615
O O2 0.775651 0.781738 0.392928
O O3 0.653182 0.512435 0.502126
O O4 0.529747 0.586318 0.454857
O O5 0.684891 0.628446 0.517896
O O6 0.000000 0.576482 0.250000
O O7 0.199761 0.421658 0.995553
O O8 0.641018 0.444499 0.746762
O O9 0.983226 0.618980 0.475203
O O10 0.500000 0.000000 0.000000
#
# Coordination Sequence:
#
# PCOD9278859 Si02
#       5
#     4   8   8   8   8
#     4  10  24  38  64  86 106 172 208 246 268 340
#     4  11  19  35  55  84 121 151 188 241 289 367
#     4  10  21  31  54  87 122 152 174 232 321 351
#     4  11  21  40  61  84 119 150 214 239 287 342
#     4  11  20  34  56  88 120 152 187 245 302 361
#
# _framework density 18.322105000000001
#
# number of rings (size 3 to 8) (size 9 to 14) (size 15 to 20)
#    0.000    1.333    5.556    0.000    3.111    0.000 
#    0.000    0.000    0.000   24.000    0.000    0.000 
#    0.000    0.000    0.000    0.000    0.000    0.000 
#
# Total GULP energy -100303.550185 kJ/mol
# GULP energy per Si atom -5572.419455 kJ/mol
# Density = 1.828040 g / cm^3
# Si number density = 18.322105 Si / 1000 Ang^3
#
#
#
# Elastic Constant Matrix: (Units=GPa)
#
#
# Indices 1 2 3 4 5 6 
#
# 1 191.8122 72.1393 24.9298 0.0038 7.7921 -0.0001
# 2 72.1393 111.5564 30.2943 -0.0119 0.7485 0.0048
# 3 24.9298 30.2943 23.8862 -0.0727 7.1123 0.0146
# 4 0.0038 -0.0119 -0.0727 41.5081 0.0120 -2.8457
# 5 7.7921 0.7485 7.1123 0.0120 16.9841 -0.0043
# 6 -0.0001 0.0048 0.0146 -2.8457 -0.0043 40.7769
#
#
#
# Elastic Compliance Matrix: (Units=1/GPa)
#
#
# Indices 1 2 3 4 5 6 
#
# 1 0.007063 -0.004197 -0.001301 -0.000003 -0.002511 0.000000
# 2 -0.004197 0.017086 -0.020151 -0.000033 0.009611 0.000004
# 3 -0.001301 -0.020151 0.078073 0.000139 -0.031209 -0.000019
# 4 -0.000003 -0.000033 0.000139 0.024208 -0.000072 0.001689
# 5 -0.002511 0.009611 -0.031209 -0.000072 0.072676 0.000013
# 6 0.000000 0.000004 -0.000019 0.001689 0.000013 0.024642
#
#
# Mechanical properties :
#
#
# Convention : Reuss Voigt Hill
#
# Bulk Modulus (GPa) = 19.63711 64.66462 42.15086
# Shear Modulus (GPa) = 17.12210 33.17991 25.15101
#
# Velocity S-wave (km/s) = 3.06028 4.26011 3.70903
# Velocity P-wave (km/s) = 4.81955 7.71802 6.43413
#
# Compressibility (1/GPa) = 0.05092399
#
# Stress axis : x y z
#
# Youngs Moduli (GPa) = 141.58131 58.52716 12.80855
#
# Poissons Ratio (x) = 0.24566 0.01666
# Poissons Ratio (y) = 0.59427 0.25811
# Poissons Ratio (z) = 0.18415 1.17938
#
# Static dielectric constant tensor:
#      x y z
#    x 1.670210 -0.000010 0.008810 
#    y -0.000010 1.620000 0.000000 
#    z 0.008810 0.000000 1.648090 
# 
# From -- ./inp_files/23867.got.cif
#   From: 2010.05.17/outbox.cif.g08.bks.cpg/sg15_12_cif.got.tgz:23867.got - 2010.06.03 18:47:42.
