data_PCOD9278013
_publ_section_title
;
Structure prediction by ZEFSAII (Michael W. Deem and Ramdas Pophale) SiO2 
 PCOD9278013
Probable space group: C 2/C
;
_chemical_formula_sum "Si O2"
_cell_formula_units_Z 40
_cell_length_a 9.343175
_cell_length_b 11.938420
_cell_length_c 15.931262
_cell_angle_alpha 90.000000
_cell_angle_beta 61.458485
_cell_angle_gamma 90.000000
_cell_volume 1561.057923
_symmetry_space_group_name_H-M "C 2/C"
_symmetry_group_IT_number 15
_symmetry_cell_setting 'monoclinic'
loop_
_space_group_symop_operation_xyz
x,y,z
-x,y,1/2-z
-x,-y,-z
x,-y,1/2+z
1/2+x,1/2+y,z
1/2-x,1/2+y,1/2-z
1/2-x,1/2-y,-z
1/2+x,1/2-y,1/2+z
loop_
_atom_site_type_symbol
_atom_site_label
_atom_site_fract_x
_atom_site_fract_y
_atom_site_fract_z
Si Si1 0.000000 0.254661 0.750000
Si Si2 0.505350 0.924849 0.881701
Si Si3 0.722739 0.558374 0.869182
Si Si4 0.983015 0.853048 0.560710
Si Si5 0.318214 0.858932 0.162329
Si Si6 0.250000 0.750000 0.000000
O O1 0.918357 0.335089 0.704438
O O2 0.151785 0.190249 0.663147
O O3 0.403961 0.843682 0.970039
O O4 0.383175 0.998449 0.859129
O O5 0.629583 0.016819 0.880690
O O6 0.584694 0.467362 0.879523
O O7 0.763196 0.625556 0.774057
O O8 0.652422 0.628715 0.966938
O O9 0.951083 0.740321 0.621650
O O10 0.854991 0.842546 0.520293
#
# Coordination Sequence:
#
# PCOD9278013 Si02
#       6
#     4   8   8   8   8   4
#     4  12  22  44  66  98 134 184 224 288 344 410
#     4  11  22  43  69  95 138 182 224 293 348 409
#     4  10  21  41  67  95 141 178 226 293 351 411
#     4  10  22  39  66 100 130 184 229 288 350 413
#     4  12  22  39  73  99 132 187 234 278 356 420
#     4  10  20  42  64  92 134 178 228 278 348 416
#
# _framework density 25.623649
#
# number of rings (size 3 to 8) (size 9 to 14) (size 15 to 20)
#    0.000    1.200    6.000    1.200    0.000    1.600 
#    0.000    0.000   26.400    0.000    0.000    0.000 
#    0.000    0.000    0.000    0.000    0.000    0.000 
#
# Total GULP energy -111365.180808 kJ/mol
# GULP energy per Si atom -5568.259040 kJ/mol
# Density = 2.556533 g / cm^3
# Si number density = 25.623649 Si / 1000 Ang^3
#
#
#
# Elastic Constant Matrix: (Units=GPa)
#
#
# Indices 1 2 3 4 5 6 
#
# 1 29.3208 20.0351 -2.8717 0.0000 -8.8093 0.0000
# 2 20.0351 187.1175 89.1297 0.0000 -15.4863 0.0000
# 3 -2.8717 89.1297 116.1392 0.0000 -24.3173 0.0000
# 4 0.0000 0.0000 0.0000 85.5080 0.0000 -11.9658
# 5 -8.8093 -15.4863 -24.3173 0.0000 35.6756 0.0000
# 6 0.0000 0.0000 0.0000 -11.9658 0.0000 56.9903
#
#
#
# Elastic Compliance Matrix: (Units=1/GPa)
#
#
# Indices 1 2 3 4 5 6 
#
# 1 0.045869 -0.008995 0.011188 0.000000 0.015048 0.000000
# 2 -0.008995 0.010211 -0.008860 0.000000 -0.003828 0.000000
# 3 0.011188 -0.008860 0.018033 0.000000 0.011209 0.000000
# 4 0.000000 0.000000 0.000000 0.012049 0.000000 0.002530
# 5 0.015048 -0.003828 0.011209 0.000000 0.037724 0.000000
# 6 0.000000 0.000000 0.000000 0.002530 0.000000 0.018078
#
#
# Mechanical properties :
#
#
# Convention : Reuss Voigt Hill
#
# Bulk Modulus (GPa) = 16.45319 60.57374 38.51347
# Shear Modulus (GPa) = 28.48060 50.72040 39.60050
#
# Velocity S-wave (km/s) = 3.33753 4.45391 3.93551
# Velocity P-wave (km/s) = 4.61380 7.08102 5.97612
#
# Compressibility (1/GPa) = 0.06077848
#
# Stress axis : x y z
#
# Youngs Moduli (GPa) = 21.80143 97.93446 55.45239
#
# Poissons Ratio (x) = 0.88093 -0.62040
# Poissons Ratio (y) = 0.19610 0.49132
# Poissons Ratio (z) = -0.24391 0.86772
#
# Static dielectric constant tensor:
#      x y z
#    x 2.097890 0.000000 0.034620 
#    y 0.000000 2.001790 0.000000 
#    z 0.034620 0.000000 2.147920 
# 
# From -- ./inp_files/236462.got.cif
#   From: 2010.05.17/outbox.cif.g08.bks.cpg/sg15_119_cif.got.tgz:236462.got - 2010.06.03 18:47:42.
