data_PCOD9278317
_publ_section_title
;
Structure prediction by ZEFSAII (Michael W. Deem and Ramdas Pophale) SiO2 
 PCOD9278317
Probable space group: C 2/C
;
_chemical_formula_sum "Si O2"
_cell_formula_units_Z 32
_cell_length_a 12.252471
_cell_length_b 7.222652
_cell_length_c 14.724935
_cell_angle_alpha 90.000000
_cell_angle_beta 66.458873
_cell_angle_gamma 90.000000
_cell_volume 1194.636737
_symmetry_space_group_name_H-M "C 2/C"
_symmetry_group_IT_number 15
_symmetry_cell_setting 'monoclinic'
loop_
_space_group_symop_operation_xyz
x,y,z
-x,y,1/2-z
-x,-y,-z
x,-y,1/2+z
1/2+x,1/2+y,z
1/2-x,1/2+y,1/2-z
1/2-x,1/2-y,-z
1/2+x,1/2-y,1/2+z
loop_
_atom_site_type_symbol
_atom_site_label
_atom_site_fract_x
_atom_site_fract_y
_atom_site_fract_z
Si Si1 0.126988 0.585614 0.433937
Si Si2 0.638276 0.447620 0.539871
Si Si3 0.500000 0.472119 0.750000
Si Si4 0.128742 0.665155 0.232345
Si Si5 0.250000 0.750000 0.000000
O O1 0.144405 0.795107 0.462957
O O2 0.161235 0.577667 0.317737
O O3 0.000000 0.500000 0.500000
O O4 0.769857 0.514686 0.538398
O O5 0.562120 0.366348 0.647684
O O6 0.716024 0.839405 0.618582
O O7 0.606906 0.659162 0.534501
O O8 0.403236 0.616576 0.742722
O O9 0.000000 0.580063 0.250000
#
# Coordination Sequence:
#
# PCOD9278317 Si02
#       5
#     8   8   4   8   4
#     4  11  24  44  66 103 141 188 236 300 368 448
#     4  10  23  45  66 100 139 181 241 293 369 442
#     4   8  20  44  62  98 128 176 232 286 362 424
#     4   9  20  41  64  96 134 171 235 291 365 435
#     4  10  20  42  70  92 134 186 230 302 360 428
#
# _framework density 26.786384000000002
#
# number of rings (size 3 to 8) (size 9 to 14) (size 15 to 20)
#    0.750    1.500    0.000    1.500    0.000    5.000 
#   24.750    0.000    0.000    0.000    0.000    0.000 
#    0.000    0.000    0.000    0.000    0.000    0.000 
#
# Total GULP energy -89111.862101 kJ/mol
# GULP energy per Si atom -5569.491381 kJ/mol
# Density = 2.672542 g / cm^3
# Si number density = 26.786384 Si / 1000 Ang^3
#
#
#
# Elastic Constant Matrix: (Units=GPa)
#
#
# Indices 1 2 3 4 5 6 
#
# 1 137.8481 46.1147 70.7921 0.0000 14.7951 0.0000
# 2 46.1147 130.8384 34.2132 0.0000 14.1351 0.0000
# 3 70.7921 34.2132 252.1867 0.0000 25.0574 0.0000
# 4 0.0000 0.0000 0.0000 38.6588 0.0000 -0.9459
# 5 14.7951 14.1351 25.0574 0.0000 43.0059 0.0000
# 6 0.0000 0.0000 0.0000 -0.9459 0.0000 3.4066
#
#
#
# Elastic Compliance Matrix: (Units=1/GPa)
#
#
# Indices 1 2 3 4 5 6 
#
# 1 0.009358 -0.002614 -0.002163 0.000000 -0.001100 0.000000
# 2 -0.002614 0.008837 -0.000282 0.000000 -0.001841 0.000000
# 3 -0.002163 -0.000282 0.004806 0.000000 -0.001963 0.000000
# 4 0.000000 0.000000 0.000000 0.026044 0.000000 0.007231
# 5 -0.001100 -0.001841 -0.001963 0.000000 0.025380 0.000000
# 6 0.000000 0.000000 0.000000 0.007231 0.000000 0.295555
#
#
# Mechanical properties :
#
#
# Convention : Reuss Voigt Hill
#
# Bulk Modulus (GPa) = 77.62431 91.45704 84.54067
# Shear Modulus (GPa) = 13.00756 41.66447 27.33601
#
# Velocity S-wave (km/s) = 2.20603 3.94818 3.19802
# Velocity P-wave (km/s) = 5.96076 7.41629 6.72800
#
# Compressibility (1/GPa) = 0.01288256
#
# Stress axis : x y z
#
# Youngs Moduli (GPa) = 106.86557 113.16163 208.08038
#
# Poissons Ratio (x) = 0.29577 0.45006
# Poissons Ratio (y) = 0.27932 0.05873
# Poissons Ratio (z) = 0.23114 0.03194
#
# Static dielectric constant tensor:
#      x y z
#    x 2.269430 0.000000 -0.042310 
#    y 0.000000 2.048860 0.000000 
#    z -0.042310 0.000000 2.108150 
# 
# From -- ./inp_files/229422.got.cif
#   From: 2010.05.17/outbox.cif.g08.bks.cpg/sg15_115_cif.got.tgz:229422.got - 2010.06.03 18:47:42.
