data_PCOD9278367
_publ_section_title
;
Structure prediction by ZEFSAII (Michael W. Deem and Ramdas Pophale) SiO2 
 PCOD9278367
Probable space group: C 2/C
;
_chemical_formula_sum "Si O2"
_cell_formula_units_Z 44
_cell_length_a 16.245117
_cell_length_b 5.576255
_cell_length_c 22.081661
_cell_angle_alpha 90.000000
_cell_angle_beta 62.295923
_cell_angle_gamma 90.000000
_cell_volume 1770.995153
_symmetry_space_group_name_H-M "C 2/C"
_symmetry_group_IT_number 15
_symmetry_cell_setting 'monoclinic'
loop_
_space_group_symop_operation_xyz
x,y,z
-x,y,1/2-z
-x,-y,-z
x,-y,1/2+z
1/2+x,1/2+y,z
1/2-x,1/2+y,1/2-z
1/2-x,1/2-y,-z
1/2+x,1/2-y,1/2+z
loop_
_atom_site_type_symbol
_atom_site_label
_atom_site_fract_x
_atom_site_fract_y
_atom_site_fract_z
Si Si1 0.888840 0.490127 0.679942
Si Si2 0.964783 0.755862 0.043613
Si Si3 0.500000 0.207356 0.250000
Si Si4 0.815632 0.722231 0.379600
Si Si5 0.649583 0.032323 0.001492
Si Si6 0.327913 0.486819 0.665300
O O1 0.936974 0.464189 0.598223
O O2 0.846628 0.751516 0.697769
O O3 0.826210 0.246626 0.698605
O O4 0.957907 0.449891 0.710882
O O5 0.922224 0.976719 0.093895
O O6 0.075004 0.739988 0.009789
O O7 0.901978 0.702302 0.006632
O O8 0.409253 0.323440 0.314791
O O9 0.744597 0.919669 0.431850
O O10 0.836526 0.557359 0.431428
O O11 0.758016 0.570142 0.349426
#
# Coordination Sequence:
#
# PCOD9278367 Si02
#       6
#     8   8   4   8   8   8
#     4  10  23  47  68 105 134 193 222 300 339 437
#     4   9  20  43  71 104 143 185 225 305 344 434
#     4  12  26  46  70  98 148 186 250 286 366 412
#     4  11  22  40  70 105 142 191 234 303 342 443
#     4  10  20  42  72 109 145 182 246 284 372 405
#     4  10  22  45  71 101 143 177 239 278 368 402
#
# _framework density 24.844788999999999
#
# number of rings (size 3 to 8) (size 9 to 14) (size 15 to 20)
#    1.091    0.727    3.636    0.000    0.000    3.636 
#    0.000    9.091    0.000    0.000    0.000    0.000 
#    0.000    0.000    0.000    0.000    0.000    0.000 
#
# Total GULP energy -122545.888985 kJ/mol
# GULP energy per Si atom -5570.267681 kJ/mol
# Density = 2.478824 g / cm^3
# Si number density = 24.844789 Si / 1000 Ang^3
#
#
#
# Elastic Constant Matrix: (Units=GPa)
#
#
# Indices 1 2 3 4 5 6 
#
# 1 139.9820 26.9950 44.4527 0.0341 10.2472 0.0063
# 2 26.9950 104.7427 20.1425 0.0998 -15.2554 0.0079
# 3 44.4527 20.1425 85.7042 0.0397 -32.6703 0.0000
# 4 0.0341 0.0998 0.0397 -180.6468 0.0027 17.7317
# 5 10.2472 -15.2554 -32.6703 0.0027 57.9994 0.0022
# 6 0.0063 0.0079 0.0000 17.7317 0.0022 9.1146
#
#
#
# Elastic Compliance Matrix: (Units=1/GPa)
#
#
# Indices 1 2 3 4 5 6 
#
# 1 0.010396 -0.002218 -0.007377 -0.000001 -0.006576 -0.000002
# 2 -0.002218 0.010600 -0.000164 0.000004 0.003088 -0.000016
# 3 -0.007377 -0.000164 0.020392 0.000003 0.012747 -0.000003
# 4 -0.000001 0.000004 0.000003 -0.004648 0.000003 0.009042
# 5 -0.006576 0.003088 0.012747 0.000003 0.026396 -0.000010
# 6 -0.000002 -0.000016 -0.000003 0.009042 -0.000010 0.092123
#
#
# Mechanical properties :
#
#
# Convention : Reuss Voigt Hill
#
# Bulk Modulus (GPa) = 45.72586 57.06771 51.39678
# Shear Modulus (GPa) = 27.46251 -6.78401 10.33925
#
# Velocity S-wave (km/s) = 3.32831 -1.65423 2.04220
# Velocity P-wave (km/s) = 5.76322 4.40124 5.12765
#
# Compressibility (1/GPa) = 0.02186946
#
# Stress axis : x y z
#
# Youngs Moduli (GPa) = 96.19407 94.33859 49.03878
#
# Poissons Ratio (x) = 0.20927 0.36177
# Poissons Ratio (y) = 0.21339 0.00802
# Poissons Ratio (z) = 0.70965 0.01544
#
# Static dielectric constant tensor:
#      x y z
#    x 1.937260 0.000000 -0.077960 
#    y 0.000000 1.977660 0.000000 
#    z -0.077960 0.000000 2.097620 
# 
# From -- ./inp_files/272236.got.cif
#   From: 2010.05.17/outbox.cif.g08.bks.cpg/sg15_137_cif.got.tgz:272236.got - 2010.06.03 18:47:42.
