data_PCOD9278048
_publ_section_title
;
Structure prediction by ZEFSAII (Michael W. Deem and Ramdas Pophale) SiO2 
 PCOD9278048
Probable space group: C 2/C
;
_chemical_formula_sum "Si O2"
_cell_formula_units_Z 64
_cell_length_a 7.869977
_cell_length_b 15.864558
_cell_length_c 24.990673
_cell_angle_alpha 90.000000
_cell_angle_beta 109.982888
_cell_angle_gamma 90.000000
_cell_volume 2932.326976
_symmetry_space_group_name_H-M "C 2/C"
_symmetry_group_IT_number 15
_symmetry_cell_setting 'monoclinic'
loop_
_space_group_symop_operation_xyz
x,y,z
-x,y,1/2-z
-x,-y,-z
x,-y,1/2+z
1/2+x,1/2+y,z
1/2-x,1/2+y,1/2-z
1/2-x,1/2-y,-z
1/2+x,1/2-y,1/2+z
loop_
_atom_site_type_symbol
_atom_site_label
_atom_site_fract_x
_atom_site_fract_y
_atom_site_fract_z
Si Si1 0.018476 0.346340 0.048390
Si Si2 0.015868 0.817652 0.617778
Si Si3 0.578704 0.670671 0.914586
Si Si4 0.539878 0.494686 0.131471
Si Si5 0.876060 0.499133 0.370070
Si Si6 0.341245 0.275777 0.199799
Si Si7 0.884587 0.663247 0.425126
Si Si8 0.309980 0.064774 0.752481
O O1 0.003256 0.252650 0.070265
O O2 0.219508 0.350469 0.044550
O O3 0.024075 0.416416 0.095682
O O4 0.875232 0.362410 0.986508
O O5 0.167132 0.782116 0.673616
O O6 0.814208 0.820050 0.619528
O O7 0.066953 0.913536 0.608887
O O8 0.456090 0.587658 0.905479
O O9 0.597606 0.695750 0.853268
O O10 0.496575 0.751684 0.933514
O O11 0.332196 0.494853 0.131242
O O12 0.680299 0.476475 0.194407
O O13 0.963216 0.583862 0.402128
O O14 0.864883 0.499015 0.305428
O O15 0.500000 0.232326 0.250000
O O16 0.289905 0.358697 0.228147
O O17 0.500000 0.096748 0.750000
#
# Coordination Sequence:
#
# PCOD9278048 Si02
#       8
#     8   8   8   8   8   8   8   8
#     4  10  20  42  65  88 131 173 207 260 314 358
#     4  10  23  38  62  93 128 162 212 255 307 366
#     4  10  21  38  64  85 127 164 212 253 308 372
#     4  10  21  40  61  87 129 170 195 250 319 378
#     4  10  21  42  64  90 128 168 206 253 313 378
#     4  11  21  42  65  82 125 169 200 254 325 374
#     4  11  23  38  65  99 121 168 220 258 302 368
#     4  12  23  38  65  93 122 157 208 260 316 378
#
# _framework density 21.825669000000001
#
# number of rings (size 3 to 8) (size 9 to 14) (size 15 to 20)
#    0.000    1.500    5.000    1.500    1.750    3.500 
#    0.000    1.875    0.000    0.000    0.000    0.000 
#    0.000    0.000    0.000    0.000    0.000    0.000 
#
# Total GULP energy -178701.121890 kJ/mol
# GULP energy per Si atom -5584.410059 kJ/mol
# Density = 2.177599 g / cm^3
# Si number density = 21.825669 Si / 1000 Ang^3
#
#
#
# Elastic Constant Matrix: (Units=GPa)
#
#
# Indices 1 2 3 4 5 6 
#
# 1 31.3611 -2.7855 2.1206 0.0000 8.8585 0.0000
# 2 -2.7855 134.5409 21.2828 0.0000 3.7593 0.0000
# 3 2.1206 21.2828 53.8767 0.0000 14.8221 0.0000
# 4 0.0000 0.0000 0.0000 25.8375 0.0000 -4.7455
# 5 8.8585 3.7593 14.8221 0.0000 19.6538 0.0000
# 6 0.0000 0.0000 0.0000 -4.7455 0.0000 13.1096
#
#
#
# Elastic Compliance Matrix: (Units=1/GPa)
#
#
# Indices 1 2 3 4 5 6 
#
# 1 0.037270 0.000743 0.003659 0.000000 -0.019700 0.000000
# 2 0.000743 0.007961 -0.003360 0.000000 0.000676 0.000000
# 3 0.003659 -0.003360 0.025262 0.000000 -0.020059 0.000000
# 4 0.000000 0.000000 0.000000 0.041460 0.000000 0.015008
# 5 -0.019700 0.000676 -0.020059 0.000000 0.074758 0.000000
# 6 0.000000 0.000000 0.000000 0.015008 0.000000 0.081712
#
#
# Mechanical properties :
#
#
# Convention : Reuss Voigt Hill
#
# Bulk Modulus (GPa) = 13.77826 29.00161 21.38994
# Shear Modulus (GPa) = 17.20987 24.99758 21.10372
#
# Velocity S-wave (km/s) = 2.81110 3.38794 3.11291
# Velocity P-wave (km/s) = 4.10645 5.34985 4.76885
#
# Compressibility (1/GPa) = 0.07257809
#
# Stress axis : x y z
#
# Youngs Moduli (GPa) = 26.83129 125.61733 39.58438
#
# Poissons Ratio (x) = -0.09336 -0.14485
# Poissons Ratio (y) = -0.01994 0.13300
# Poissons Ratio (z) = -0.09818 0.42207
#
# Static dielectric constant tensor:
#      x y z
#    x 1.835800 0.000000 0.021290 
#    y 0.000000 1.821030 0.000000 
#    z 0.021290 0.000000 1.775740 
# 
# From -- ./inp_files/288806.got.cif
#   From: 2010.05.17/outbox.cif.g08.bks.cpg/sg15_145_cif.got.tgz:288806.got - 2010.06.03 18:47:42.
