data_PCOD9278619
_publ_section_title
;
Structure prediction by ZEFSAII (Michael W. Deem and Ramdas Pophale) SiO2 
 PCOD9278619
Probable space group: C 2/C
;
_chemical_formula_sum "Si O2"
_cell_formula_units_Z 44
_cell_length_a 19.440334
_cell_length_b 4.912272
_cell_length_c 17.943737
_cell_angle_alpha 90.000000
_cell_angle_beta 83.291003
_cell_angle_gamma 90.000000
_cell_volume 1701.824940
_symmetry_space_group_name_H-M "C 2/C"
_symmetry_group_IT_number 15
_symmetry_cell_setting 'monoclinic'
loop_
_space_group_symop_operation_xyz
x,y,z
-x,y,1/2-z
-x,-y,-z
x,-y,1/2+z
1/2+x,1/2+y,z
1/2-x,1/2+y,1/2-z
1/2-x,1/2-y,-z
1/2+x,1/2-y,1/2+z
loop_
_atom_site_type_symbol
_atom_site_label
_atom_site_fract_x
_atom_site_fract_y
_atom_site_fract_z
Si Si1 0.717966 0.986060 0.084396
Si Si2 0.500000 0.128089 0.750000
Si Si3 0.634742 0.855440 0.315719
Si Si4 0.142083 0.869440 0.975331
Si Si5 0.905579 0.932287 0.877359
Si Si6 0.823305 0.189030 0.778942
O O1 0.796180 0.915691 0.050482
O O2 0.730587 0.195716 0.152075
O O3 0.666347 0.744523 0.114209
O O4 0.680368 0.148564 0.022792
O O5 0.434742 0.012354 0.712563
O O6 0.464902 0.294943 0.822503
O O7 0.619948 0.767821 0.401477
O O8 0.656864 0.591406 0.264738
O O9 0.687060 0.096883 0.286873
O O10 0.084836 0.998532 0.037159
O O11 0.887121 0.199093 0.831667
#
# Coordination Sequence:
#
# PCOD9278619 Si02
#       6
#     8   4   8   8   8   8
#     4  10  20  44  65  97 133 185 215 279 332 404
#     4  10  22  44  72  92 138 178 230 270 332 404
#     4  11  24  42  65 103 130 177 223 279 329 394
#     4  10  24  38  68  99 140 168 228 277 341 394
#     4  10  21  43  69  98 131 182 222 275 339 394
#     4  10  21  42  66  96 132 174 226 265 336 391
#
# _framework density 25.854599
#
# number of rings (size 3 to 8) (size 9 to 14) (size 15 to 20)
#    0.000    1.818    3.636    0.545    2.545    5.091 
#    0.000    0.909    0.000    0.000    0.000    0.000 
#    0.000    0.000    0.000    0.000    0.000    0.000 
#
# Total GULP energy -122574.749508 kJ/mol
# GULP energy per Si atom -5571.579523 kJ/mol
# Density = 2.579575 g / cm^3
# Si number density = 25.854599 Si / 1000 Ang^3
#
#
#
# Elastic Constant Matrix: (Units=GPa)
#
#
# Indices 1 2 3 4 5 6 
#
# 1 45.9777 -8.7704 39.6294 0.0000 -2.7006 0.0000
# 2 -8.7704 84.4805 32.5692 0.0000 -3.9782 0.0000
# 3 39.6294 32.5692 223.6472 0.0000 -2.6650 0.0000
# 4 0.0000 0.0000 0.0000 47.9853 0.0000 -0.1704
# 5 -2.7006 -3.9782 -2.6650 0.0000 49.0519 0.0000
# 6 0.0000 0.0000 0.0000 -0.1704 0.0000 -11.3048
#
#
#
# Elastic Compliance Matrix: (Units=1/GPa)
#
#
# Indices 1 2 3 4 5 6 
#
# 1 0.027675 0.005121 -0.005630 0.000000 0.001633 0.000000
# 2 0.005121 0.013530 -0.002863 0.000000 0.001224 0.000000
# 3 -0.005630 -0.002863 0.005883 0.000000 -0.000223 0.000000
# 4 0.000000 0.000000 0.000000 0.020839 0.000000 -0.000314
# 5 0.001633 0.001224 -0.000223 0.000000 0.020564 0.000000
# 6 0.000000 0.000000 0.000000 -0.000314 0.000000 -0.088453
#
#
# Mechanical properties :
#
#
# Convention : Reuss Voigt Hill
#
# Bulk Modulus (GPa) = 24.78740 53.44022 39.11381
# Shear Modulus (GPa) = 247.15168 36.52496 141.83832
#
# Velocity S-wave (km/s) = 9.78777 3.76268 7.41479
# Velocity P-wave (km/s) = 11.71930 6.29217 9.40567
#
# Compressibility (1/GPa) = 0.04034307
#
# Stress axis : x y z
#
# Youngs Moduli (GPa) = 36.13350 73.90945 169.97349
#
# Poissons Ratio (x) = -0.37846 0.95698
# Poissons Ratio (y) = -0.18502 0.48665
# Poissons Ratio (z) = 0.20344 0.21161
#
# Static dielectric constant tensor:
#      x y z
#    x 2.349980 0.000000 -0.134940 
#    y 0.000000 2.226660 0.000000 
#    z -0.134940 0.000000 2.148910 
# 
# From -- ./inp_files/212891.got.cif
#   From: 2010.05.17/outbox.cif.g08.bks.cpg/sg15_107_cif.got.tgz:212891.got - 2010.06.03 18:47:42.
