data_PCOD9278350
_publ_section_title
;
Structure prediction by ZEFSAII (Michael W. Deem and Ramdas Pophale) SiO2 
 PCOD9278350
Probable space group: C 2/C
;
_chemical_formula_sum "Si O2"
_cell_formula_units_Z 44
_cell_length_a 7.220611
_cell_length_b 18.046587
_cell_length_c 18.646191
_cell_angle_alpha 90.000000
_cell_angle_beta 61.320049
_cell_angle_gamma 90.000000
_cell_volume 2131.642110
_symmetry_space_group_name_H-M "C 2/C"
_symmetry_group_IT_number 15
_symmetry_cell_setting 'monoclinic'
loop_
_space_group_symop_operation_xyz
x,y,z
-x,y,1/2-z
-x,-y,-z
x,-y,1/2+z
1/2+x,1/2+y,z
1/2-x,1/2+y,1/2-z
1/2-x,1/2-y,-z
1/2+x,1/2-y,1/2+z
loop_
_atom_site_type_symbol
_atom_site_label
_atom_site_fract_x
_atom_site_fract_y
_atom_site_fract_z
Si Si1 0.000000 0.135430 0.750000
Si Si2 0.951911 0.579546 0.442522
Si Si3 0.109437 0.882194 0.896169
Si Si4 0.153966 0.010361 0.614932
Si Si5 0.098646 0.269256 0.307303
Si Si6 0.185217 0.666009 0.526131
O O1 0.918854 0.081892 0.828298
O O2 0.818118 0.189567 0.756673
O O3 0.825452 0.612316 0.399578
O O4 0.775987 0.532649 0.518897
O O5 0.154124 0.531954 0.380338
O O6 0.050610 0.635251 0.483741
O O7 0.114532 0.806901 0.849115
O O8 0.039188 0.953997 0.863318
O O9 0.907921 0.875882 0.987679
O O10 0.000000 0.250336 0.250000
O O11 0.954006 0.328602 0.377256
O O12 0.250000 0.750000 0.500000
#
# Coordination Sequence:
#
# PCOD9278350 Si02
#       6
#     4   8   8   8   8   8
#     4  12  26  44  66  94 142 180 216 268 348 392
#     4  10  20  42  71  96 128 166 237 270 330 388
#     4  10  23  42  72  94 126 175 224 277 329 391
#     4  10  23  41  67 100 129 171 222 281 322 405
#     4  11  26  42  62  97 138 174 216 270 338 404
#     4   9  20  39  64  94 123 165 218 273 316 388
#
# _framework density 20.641363999999999
#
# number of rings (size 3 to 8) (size 9 to 14) (size 15 to 20)
#    0.000    1.818    1.818    0.545    3.818    8.727 
#    0.000    0.000    0.000    0.000    0.000    0.000 
#    0.000    0.000    0.000    0.000    0.000    0.000 
#
# Total GULP energy -122788.064763 kJ/mol
# GULP energy per Si atom -5581.275671 kJ/mol
# Density = 2.059438 g / cm^3
# Si number density = 20.641364 Si / 1000 Ang^3
#
#
#
# Elastic Constant Matrix: (Units=GPa)
#
#
# Indices 1 2 3 4 5 6 
#
# 1 135.8314 50.3784 47.7245 0.0000 12.6859 0.0000
# 2 50.3784 99.3810 23.4033 0.0000 4.0519 0.0000
# 3 47.7245 23.4033 53.5014 0.0000 1.4687 0.0000
# 4 0.0000 0.0000 0.0000 63.8827 0.0000 45.4093
# 5 12.6859 4.0519 1.4687 0.0000 19.1772 0.0000
# 6 0.0000 0.0000 0.0000 45.4093 0.0000 104.4121
#
#
#
# Elastic Compliance Matrix: (Units=1/GPa)
#
#
# Indices 1 2 3 4 5 6 
#
# 1 0.012825 -0.003980 -0.009510 0.000000 -0.006915 0.000000
# 2 -0.003980 0.012530 -0.001934 0.000000 0.000134 0.000000
# 3 -0.009510 -0.001934 0.027895 0.000000 0.004563 0.000000
# 4 0.000000 0.000000 0.000000 0.022658 0.000000 -0.009854
# 5 -0.006915 0.000134 0.004563 0.000000 0.056342 0.000000
# 6 0.000000 0.000000 0.000000 -0.009854 0.000000 0.013863
#
#
# Mechanical properties :
#
#
# Convention : Reuss Voigt Hill
#
# Bulk Modulus (GPa) = 44.63907 59.08071 51.85989
# Shear Modulus (GPa) = 27.11081 48.64159 37.87620
#
# Velocity S-wave (km/s) = 3.62805 4.85966 4.28830
# Velocity P-wave (km/s) = 6.26285 7.75712 7.04969
#
# Compressibility (1/GPa) = 0.02240190
#
# Stress axis : x y z
#
# Youngs Moduli (GPa) = 77.97132 79.80884 35.84902
#
# Poissons Ratio (x) = 0.31764 0.34091
# Poissons Ratio (y) = 0.31033 0.06935
# Poissons Ratio (z) = 0.74147 0.15438
#
# Static dielectric constant tensor:
#      x y z
#    x 1.724990 0.000000 -0.016620 
#    y 0.000000 1.757030 0.000000 
#    z -0.016620 0.000000 1.776680 
# 
# From -- ./inp_files/184817.got.cif
#   From: 2010.05.17/outbox.cif.g08.bks.cpg/sg15_93_cif.got.tgz:184817.got - 2010.06.03 18:47:42.
