data_PCOD9278444
_publ_section_title
;
Structure prediction by ZEFSAII (Michael W. Deem and Ramdas Pophale) SiO2 
 PCOD9278444
Probable space group: C 2/C
;
_chemical_formula_sum "Si O2"
_cell_formula_units_Z 52
_cell_length_a 7.914257
_cell_length_b 13.958643
_cell_length_c 19.771633
_cell_angle_alpha 90.000000
_cell_angle_beta 85.827784
_cell_angle_gamma 90.000000
_cell_volume 2178.429087
_symmetry_space_group_name_H-M "C 2/C"
_symmetry_group_IT_number 15
_symmetry_cell_setting 'monoclinic'
loop_
_space_group_symop_operation_xyz
x,y,z
-x,y,1/2-z
-x,-y,-z
x,-y,1/2+z
1/2+x,1/2+y,z
1/2-x,1/2+y,1/2-z
1/2-x,1/2-y,-z
1/2+x,1/2-y,1/2+z
loop_
_atom_site_type_symbol
_atom_site_label
_atom_site_fract_x
_atom_site_fract_y
_atom_site_fract_z
Si Si1 0.531055 0.840664 0.830800
Si Si2 0.788151 0.471434 0.155876
Si Si3 0.669350 0.591780 0.958907
Si Si4 0.003424 0.931690 0.601189
Si Si5 0.371770 0.763981 0.374834
Si Si6 0.675889 0.703669 0.570601
Si Si7 0.500000 0.111948 0.750000
O O1 0.500000 0.841736 0.750000
O O2 0.703929 0.785093 0.847516
O O3 0.383376 0.783700 0.873646
O O4 0.568096 0.947123 0.859112
O O5 0.602778 0.518881 0.159142
O O6 0.781754 0.380614 0.105334
O O7 0.833691 0.442791 0.230788
O O8 0.656663 0.494212 0.915811
O O9 0.816407 0.666028 0.937381
O O10 0.496764 0.648555 0.946201
O O11 0.644817 0.561128 0.036688
O O12 0.995969 0.818859 0.610557
O O13 0.448476 0.826817 0.314626
O O14 0.750000 0.750000 0.500000
#
# Coordination Sequence:
#
# PCOD9278444 Si02
#       7
#     8   8   8   8   8   8   4
#     4  10  20  43  65  83 126 176 210 259 329 383
#     4  10  22  41  58  90 128 159 214 258 312 388
#     4   9  19  40  62  89 124 156 204 261 317 375
#     4   9  19  40  63  88 116 159 207 250 316 384
#     4  10  22  38  62  87 119 166 204 259 309 375
#     4  10  22  38  65  97 127 162 213 270 325 385
#     4  12  24  42  56  92 128 156 214 260 300 382
#
# _framework density 23.870412000000002
#
# number of rings (size 3 to 8) (size 9 to 14) (size 15 to 20)
#    0.000    2.154    0.769    1.385    2.154    0.615 
#   13.846    0.000    1.692    0.000    0.000    0.000 
#    0.000    0.000    0.000    0.000    0.000    0.000 
#
# Total GULP energy -145192.038480 kJ/mol
# GULP energy per Si atom -5584.309172 kJ/mol
# Density = 2.381608 g / cm^3
# Si number density = 23.870412 Si / 1000 Ang^3
#
#
#
# Elastic Constant Matrix: (Units=GPa)
#
#
# Indices 1 2 3 4 5 6 
#
# 1 68.2203 21.2159 21.5503 0.0000 5.7751 0.0000
# 2 21.2159 130.8818 36.2653 0.0000 1.1773 0.0000
# 3 21.5503 36.2653 85.7898 0.0000 11.3216 0.0000
# 4 0.0000 0.0000 0.0000 53.8847 0.0000 30.1753
# 5 5.7751 1.1773 11.3216 0.0000 28.9941 0.0000
# 6 0.0000 0.0000 0.0000 30.1753 0.0000 28.2071
#
#
#
# Elastic Compliance Matrix: (Units=1/GPa)
#
#
# Indices 1 2 3 4 5 6 
#
# 1 0.016356 -0.001775 -0.003097 0.000000 -0.001976 0.000000
# 2 -0.001775 0.008882 -0.003488 0.000000 0.001355 0.000000
# 3 -0.003097 -0.003488 0.014559 0.000000 -0.004926 0.000000
# 4 0.000000 0.000000 0.000000 0.046288 0.000000 -0.049518
# 5 -0.001976 0.001355 -0.004926 0.000000 0.036752 0.000000
# 6 0.000000 0.000000 0.000000 -0.049518 0.000000 0.088425
#
#
# Mechanical properties :
#
#
# Convention : Reuss Voigt Hill
#
# Bulk Modulus (GPa) = 43.33344 49.21722 46.27533
# Shear Modulus (GPa) = 21.21566 35.94122 28.57844
#
# Velocity S-wave (km/s) = 2.98448 3.88452 3.46386
# Velocity P-wave (km/s) = 5.48354 6.38612 5.95197
#
# Compressibility (1/GPa) = 0.02307686
#
# Stress axis : x y z
#
# Youngs Moduli (GPa) = 61.13874 112.58163 68.68656
#
# Poissons Ratio (x) = 0.19987 0.21275
# Poissons Ratio (y) = 0.10854 0.23955
# Poissons Ratio (z) = 0.18937 0.39264
#
# Static dielectric constant tensor:
#      x y z
#    x 1.916810 0.000000 0.059040 
#    y 0.000000 2.010550 0.000000 
#    z 0.059040 0.000000 2.001130 
# 
# From -- ./inp_files/231245.got.cif
#   From: 2010.05.17/outbox.cif.g08.bks.cpg/sg15_116_cif.got.tgz:231245.got - 2010.06.03 18:47:42.
