data_PCOD9278003
_publ_section_title
;
Structure prediction by ZEFSAII (Michael W. Deem and Ramdas Pophale) SiO2 
 PCOD9278003
Probable space group: C 2/C
;
_chemical_formula_sum "Si O2"
_cell_formula_units_Z 40
_cell_length_a 16.388204
_cell_length_b 8.559216
_cell_length_c 14.073855
_cell_angle_alpha 90.000000
_cell_angle_beta 83.825468
_cell_angle_gamma 90.000000
_cell_volume 1962.689892
_symmetry_space_group_name_H-M "C 2/C"
_symmetry_group_IT_number 15
_symmetry_cell_setting 'monoclinic'
loop_
_space_group_symop_operation_xyz
x,y,z
-x,y,1/2-z
-x,-y,-z
x,-y,1/2+z
1/2+x,1/2+y,z
1/2-x,1/2+y,1/2-z
1/2-x,1/2-y,-z
1/2+x,1/2-y,1/2+z
loop_
_atom_site_type_symbol
_atom_site_label
_atom_site_fract_x
_atom_site_fract_y
_atom_site_fract_z
Si Si1 0.561203 0.855921 0.014301
Si Si2 0.778584 0.474055 0.963083
Si Si3 0.180484 0.144985 0.637793
Si Si4 0.862526 0.874100 0.147805
Si Si5 0.516875 0.452976 0.606539
O O1 0.590148 0.764374 0.914477
O O2 0.525707 0.732093 0.094466
O O3 0.500000 0.000000 0.000000
O O4 0.645450 0.912273 0.049527
O O5 0.810891 0.310924 0.916100
O O6 0.700865 0.540788 0.915199
O O7 0.751591 0.452769 0.076305
O O8 0.183966 0.171118 0.749921
O O9 0.096625 0.051961 0.625361
O O10 0.934632 0.994027 0.169019
O O11 0.500000 0.500000 0.500000
#
# Coordination Sequence:
#
# PCOD9278003 Si02
#       5
#     8   8   8   8   8
#     4  11  24  42  67  93 132 174 217 269 325 378
#     4  11  24  42  68  95 133 169 211 281 322 382
#     4  11  24  41  68  97 133 168 220 264 336 385
#     4  11  24  42  69  96 130 175 219 264 327 396
#     4  10  20  42  64  91 129 173 207 266 324 381
#
# _framework density 20.380192999999998
#
# number of rings (size 3 to 8) (size 9 to 14) (size 15 to 20)
#    0.000    1.200    4.000    3.600    5.600    0.000 
#    0.000    4.000    0.000    0.000    0.000    0.000 
#    0.000    0.000    0.000    0.000    0.000    0.000 
#
# Total GULP energy -111545.316734 kJ/mol
# GULP energy per Si atom -5577.265837 kJ/mol
# Density = 2.033381 g / cm^3
# Si number density = 20.380193 Si / 1000 Ang^3
#
#
#
# Elastic Constant Matrix: (Units=GPa)
#
#
# Indices 1 2 3 4 5 6 
#
# 1 105.0459 67.1497 12.5685 0.0000 -6.2671 0.0000
# 2 67.1497 117.4757 26.4501 0.0000 -5.2925 0.0000
# 3 12.5685 26.4501 96.6035 0.0000 -26.5419 0.0000
# 4 0.0000 0.0000 0.0000 14.2455 0.0000 3.3295
# 5 -6.2671 -5.2925 -26.5419 0.0000 25.2395 0.0000
# 6 0.0000 0.0000 0.0000 3.3295 0.0000 27.5019
#
#
#
# Elastic Compliance Matrix: (Units=1/GPa)
#
#
# Indices 1 2 3 4 5 6 
#
# 1 0.015217 -0.008854 0.001368 0.000000 0.003360 0.000000
# 2 -0.008854 0.014242 -0.003559 0.000000 -0.002955 0.000000
# 3 0.001368 -0.003559 0.015521 0.000000 0.015915 0.000000
# 4 0.000000 0.000000 0.000000 0.072241 0.000000 -0.008746
# 5 0.003360 -0.002955 0.015915 0.000000 0.056571 0.000000
# 6 0.000000 0.000000 0.000000 -0.008746 0.000000 0.037420
#
#
# Mechanical properties :
#
#
# Convention : Reuss Voigt Hill
#
# Bulk Modulus (GPa) = 43.69256 59.05129 51.37192
# Shear Modulus (GPa) = 20.75263 27.59451 24.17357
#
# Velocity S-wave (km/s) = 3.19450 3.68365 3.44776
# Velocity P-wave (km/s) = 5.92383 6.86514 6.41178
#
# Compressibility (1/GPa) = 0.02288719
#
# Stress axis : x y z
#
# Youngs Moduli (GPa) = 65.71766 70.21516 64.42950
#
# Poissons Ratio (x) = 0.62172 -0.08813
# Poissons Ratio (y) = 0.58190 0.22933
# Poissons Ratio (z) = -0.08989 0.24992
#
# Static dielectric constant tensor:
#      x y z
#    x 1.721250 0.000000 -0.023440 
#    y 0.000000 1.802520 0.000000 
#    z -0.023440 0.000000 1.753420 
# 
# From -- ./inp_files/150694.got.cif
#   From: 2010.05.17/outbox.cif.g08.bks.cpg/sg15_76_cif.got.tgz:150694.got - 2010.06.03 18:47:42.
