data_PCOD9278407
_publ_section_title
;
Structure prediction by ZEFSAII (Michael W. Deem and Ramdas Pophale) SiO2 
 PCOD9278407
Probable space group: C 2/C
;
_chemical_formula_sum "Si O2"
_cell_formula_units_Z 44
_cell_length_a 9.649192
_cell_length_b 17.841754
_cell_length_c 10.629228
_cell_angle_alpha 90.000000
_cell_angle_beta 105.159861
_cell_angle_gamma 90.000000
_cell_volume 1766.230998
_symmetry_space_group_name_H-M "C 2/C"
_symmetry_group_IT_number 15
_symmetry_cell_setting 'monoclinic'
loop_
_space_group_symop_operation_xyz
x,y,z
-x,y,1/2-z
-x,-y,-z
x,-y,1/2+z
1/2+x,1/2+y,z
1/2-x,1/2+y,1/2-z
1/2-x,1/2-y,-z
1/2+x,1/2-y,1/2+z
loop_
_atom_site_type_symbol
_atom_site_label
_atom_site_fract_x
_atom_site_fract_y
_atom_site_fract_z
Si Si1 0.500000 0.440033 0.250000
Si Si2 0.184568 0.817539 0.575737
Si Si3 0.401646 0.148396 0.332988
Si Si4 0.104095 0.812139 0.085727
Si Si5 0.337700 0.517708 0.511047
Si Si6 0.382429 0.106326 0.610022
O O1 0.566238 0.381153 0.167381
O O2 0.628864 0.491518 0.332807
O O3 0.250000 0.750000 0.500000
O O4 0.251366 0.837026 0.726890
O O5 0.012689 0.812836 0.552768
O O6 0.206435 0.895776 0.507916
O O7 0.500000 0.111724 0.250000
O O8 0.439757 0.235240 0.361005
O O9 0.570990 0.111885 0.025241
O O10 0.270748 0.823727 0.096192
O O11 0.500000 0.500000 0.500000
O O12 0.219953 0.466537 0.419090
O O13 0.500000 0.106282 0.750000
#
# Coordination Sequence:
#
# PCOD9278407 Si02
#       6
#     4   8   8   8   8   8
#     4  10  20  42  86 102 150 198 272 308 404 464
#     4  11  23  46  83 112 149 202 274 320 394 479
#     4  12  26  47  79 117 156 208 263 325 396 468
#     4  11  23  48  74 114 156 208 255 325 398 470
#     4  11  24  48  77 112 155 209 261 326 399 475
#     4  12  30  49  74 118 168 205 257 331 398 474
#
# _framework density 24.911804
#
# number of rings (size 3 to 8) (size 9 to 14) (size 15 to 20)
#    0.000    0.727    6.364    1.636    5.091    4.364 
#    0.000    2.727    0.000    0.000    0.000    0.000 
#    0.000    0.000    0.000    0.000    0.000    0.000 
#
# Total GULP energy -122483.888906 kJ/mol
# GULP energy per Si atom -5567.449496 kJ/mol
# Density = 2.485510 g / cm^3
# Si number density = 24.911804 Si / 1000 Ang^3
#
#
#
# Elastic Constant Matrix: (Units=GPa)
#
#
# Indices 1 2 3 4 5 6 
#
# 1 110.0811 27.4248 71.6414 0.0000 1.0883 0.0000
# 2 27.4248 119.7639 34.0570 0.0000 3.5600 0.0000
# 3 71.6414 34.0570 257.1912 0.0000 35.8614 0.0000
# 4 0.0000 0.0000 0.0000 30.9304 0.0000 4.7164
# 5 1.0883 3.5600 35.8614 0.0000 50.8361 0.0000
# 6 0.0000 0.0000 0.0000 4.7164 0.0000 20.9150
#
#
#
# Elastic Compliance Matrix: (Units=1/GPa)
#
#
# Indices 1 2 3 4 5 6 
#
# 1 0.011672 -0.001794 -0.003323 0.000000 0.002220 0.000000
# 2 -0.001794 0.008954 -0.000670 0.000000 -0.000116 0.000000
# 3 -0.003323 -0.000670 0.005419 0.000000 -0.003705 0.000000
# 4 0.000000 0.000000 0.000000 0.033482 0.000000 -0.007550
# 5 0.002220 -0.000116 -0.003705 0.000000 0.022245 0.000000
# 6 0.000000 0.000000 0.000000 -0.007550 0.000000 0.049515
#
#
# Mechanical properties :
#
#
# Convention : Reuss Voigt Hill
#
# Bulk Modulus (GPa) = 69.10025 83.69806 76.39916
# Shear Modulus (GPa) = 33.85568 44.13049 38.99309
#
# Velocity S-wave (km/s) = 3.69049 4.21345 3.96061
# Velocity P-wave (km/s) = 6.77922 7.57242 7.18677
#
# Compressibility (1/GPa) = 0.01447173
#
# Stress axis : x y z
#
# Youngs Moduli (GPa) = 85.67552 111.67625 184.53066
#
# Poissons Ratio (x) = 0.20032 0.61325
# Poissons Ratio (y) = 0.15368 0.12362
# Poissons Ratio (z) = 0.28472 0.07481
#
# Static dielectric constant tensor:
#      x y z
#    x 2.198120 0.000000 -0.041260 
#    y 0.000000 2.018010 0.000000 
#    z -0.041260 0.000000 2.251860 
# 
# From -- ./inp_files/198073.got.cif
#   From: 2010.05.17/outbox.cif.g08.bks.cpg/sg15_100_cif.got.tgz:198073.got - 2010.06.03 18:47:42.
