data_PCOD9278380
_publ_section_title
;
Structure prediction by ZEFSAII (Michael W. Deem and Ramdas Pophale) SiO2 
 PCOD9278380
Probable space group: C 2/C
;
_chemical_formula_sum "Si O2"
_cell_formula_units_Z 60
_cell_length_a 24.167188
_cell_length_b 10.000214
_cell_length_c 21.129250
_cell_angle_alpha 90.000000
_cell_angle_beta 147.311556
_cell_angle_gamma 90.000000
_cell_volume 2757.846056
_symmetry_space_group_name_H-M "C 2/C"
_symmetry_group_IT_number 15
_symmetry_cell_setting 'monoclinic'
loop_
_space_group_symop_operation_xyz
x,y,z
-x,y,1/2-z
-x,-y,-z
x,-y,1/2+z
1/2+x,1/2+y,z
1/2-x,1/2+y,1/2-z
1/2-x,1/2-y,-z
1/2+x,1/2-y,1/2+z
loop_
_atom_site_type_symbol
_atom_site_label
_atom_site_fract_x
_atom_site_fract_y
_atom_site_fract_z
Si Si1 0.250514 0.980019 0.850472
Si Si2 0.874954 0.281440 0.245293
Si Si3 0.000000 0.637070 0.750000
Si Si4 0.542408 0.868061 0.507748
Si Si5 0.253185 0.547059 0.396522
Si Si6 0.350139 0.912286 0.566960
Si Si7 0.363335 0.281787 0.287504
Si Si8 0.035480 0.134527 0.852220
O O1 0.172675 0.860982 0.786724
O O2 0.354290 0.913235 0.927214
O O3 0.207739 0.093040 0.762783
O O4 0.271138 0.060512 0.935089
O O5 0.791058 0.401054 0.163076
O O6 0.929279 0.281552 0.229164
O O7 0.959663 0.315502 0.378847
O O8 0.929341 0.535446 0.642196
O O9 0.569884 0.764575 0.589128
O O10 0.500000 0.000000 0.500000
O O11 0.203808 0.585697 0.417129
O O12 0.206879 0.657535 0.303875
O O13 0.375468 0.553390 0.525125
O O14 0.410069 0.775856 0.612507
O O15 0.440261 0.330919 0.306017
O O16 0.000000 0.076226 0.750000
#
# Coordination Sequence:
#
# PCOD9278380 Si02
#       8
#     8   8   4   8   8   8   8   8
#     4  12  28  46  72 106 143 181 241 300 353 423
#     4  11  26  49  71 104 143 195 234 290 360 436
#     4  10  20  42  72  98 138 190 232 272 364 440
#     4  12  27  49  76  97 140 196 243 287 360 426
#     4  11  23  40  73 103 143 187 235 281 358 426
#     4  11  19  40  69 102 138 188 230 279 349 434
#     4  12  26  43  74 109 134 187 241 300 345 418
#     4  12  21  39  71 111 146 174 237 308 351 410
#
# _framework density 21.756108000000001
#
# number of rings (size 3 to 8) (size 9 to 14) (size 15 to 20)
#    0.000    0.533    6.000    2.800    1.867    3.733 
#    3.600    0.000    0.000    0.000    0.000    0.000 
#    0.000    0.000    0.000    0.000    0.000    0.000 
#
# Total GULP energy -168003.558593 kJ/mol
# GULP energy per Si atom -5600.118620 kJ/mol
# Density = 2.170659 g / cm^3
# Si number density = 21.756108 Si / 1000 Ang^3
#
#
#
# Elastic Constant Matrix: (Units=GPa)
#
#
# Indices 1 2 3 4 5 6 
#
# 1 25.1494 15.4181 21.5531 0.0000 -9.3946 0.0000
# 2 15.4181 83.5999 43.5540 0.0000 -1.0257 0.0000
# 3 21.5531 43.5540 139.9420 0.0000 -7.5915 0.0000
# 4 0.0000 0.0000 0.0000 35.7276 0.0000 6.8741
# 5 -9.3946 -1.0257 -7.5915 0.0000 26.4425 0.0000
# 6 0.0000 0.0000 0.0000 6.8741 0.0000 7.0569
#
#
#
# Elastic Compliance Matrix: (Units=1/GPa)
#
#
# Indices 1 2 3 4 5 6 
#
# 1 0.055436 -0.007235 -0.005316 0.000000 0.017889 0.000000
# 2 -0.007235 0.015235 -0.003794 0.000000 -0.003069 0.000000
# 3 -0.005316 -0.003794 0.009178 0.000000 0.000599 0.000000
# 4 0.000000 0.000000 0.000000 0.034445 0.000000 -0.033553
# 5 0.017889 -0.003069 0.000599 0.000000 0.044226 0.000000
# 6 0.000000 0.000000 0.000000 -0.033553 0.000000 0.174390
#
#
# Mechanical properties :
#
#
# Convention : Reuss Voigt Hill
#
# Bulk Modulus (GPa) = 21.20465 45.52686 33.36575
# Shear Modulus (GPa) = 13.11239 25.05647 19.08443
#
# Velocity S-wave (km/s) = 2.45766 3.39735 2.96497
# Velocity P-wave (km/s) = 4.22151 6.02999 5.20490
#
# Compressibility (1/GPa) = 0.04715947
#
# Stress axis : x y z
#
# Youngs Moduli (GPa) = 18.03891 65.63893 108.95939
#
# Poissons Ratio (x) = 0.47490 0.57920
# Poissons Ratio (y) = 0.13051 0.41336
# Poissons Ratio (z) = 0.09589 0.24902
#
# Static dielectric constant tensor:
#      x y z
#    x 1.771150 0.000000 0.000590 
#    y 0.000000 1.764000 0.000000 
#    z 0.000590 0.000000 1.831710 
# 
# From -- ./inp_files/283420.got.cif
#   From: 2010.05.17/outbox.cif.g08.bks.cpg/sg15_142_cif.got.tgz:283420.got - 2010.06.03 18:47:42.
