data_PCOD9278738
_publ_section_title
;
Structure prediction by ZEFSAII (Michael W. Deem and Ramdas Pophale) SiO2 
 PCOD9278738
Probable space group: C 2/C
;
_chemical_formula_sum "Si O2"
_cell_formula_units_Z 44
_cell_length_a 24.412063
_cell_length_b 12.235015
_cell_length_c 11.200906
_cell_angle_alpha 90.000000
_cell_angle_beta 147.095728
_cell_angle_gamma 90.000000
_cell_volume 1817.404184
_symmetry_space_group_name_H-M "C 2/C"
_symmetry_group_IT_number 15
_symmetry_cell_setting 'monoclinic'
loop_
_space_group_symop_operation_xyz
x,y,z
-x,y,1/2-z
-x,-y,-z
x,-y,1/2+z
1/2+x,1/2+y,z
1/2-x,1/2+y,1/2-z
1/2-x,1/2-y,-z
1/2+x,1/2-y,1/2+z
loop_
_atom_site_type_symbol
_atom_site_label
_atom_site_fract_x
_atom_site_fract_y
_atom_site_fract_z
Si Si1 0.487879 0.676692 0.991326
Si Si2 0.158548 0.413398 0.056418
Si Si3 0.000000 0.229258 0.750000
Si Si4 0.182314 0.795478 0.984962
Si Si5 0.272667 0.380801 0.045135
Si Si6 0.122655 0.628064 0.080724
O O1 0.519370 0.671756 0.910655
O O2 0.385338 0.607524 0.800051
O O3 0.448999 0.798322 0.965059
O O4 0.582092 0.648779 0.246896
O O5 0.247154 0.371136 0.304878
O O6 0.205469 0.447916 0.015615
O O7 0.089347 0.506135 0.988109
O O8 0.095151 0.306991 0.907608
O O9 0.250000 0.750000 0.000000
O O10 0.142262 0.700454 0.999844
O O11 0.250000 0.250000 0.000000
O O12 0.231714 0.401936 0.838621
#
# Coordination Sequence:
#
# PCOD9278738 Si02
#       6
#     8   8   4   8   8   8
#     4  11  23  42  72  93 137 179 227 271 337 398
#     4  12  25  41  68  99 137 170 228 277 339 394
#     4  12  22  38  66 104 128 178 224 272 334 404
#     4  12  25  42  65 101 135 174 223 283 331 394
#     4  10  20  45  66  89 131 188 216 266 341 404
#     4  11  25  43  68  99 135 177 221 280 337 395
#
# _framework density 24.210353999999999
#
# number of rings (size 3 to 8) (size 9 to 14) (size 15 to 20)
#    0.000    0.727    9.091    0.545    5.091    0.727 
#    0.000    0.909    4.000    0.000    0.000    0.000 
#    0.000    0.000    0.000    0.000    0.000    0.000 
#
# Total GULP energy -122760.776590 kJ/mol
# GULP energy per Si atom -5580.035300 kJ/mol
# Density = 2.415525 g / cm^3
# Si number density = 24.210354 Si / 1000 Ang^3
#
#
#
# Elastic Constant Matrix: (Units=GPa)
#
#
# Indices 1 2 3 4 5 6 
#
# 1 92.2519 -14.3565 0.9447 0.0000 -19.3435 0.0000
# 2 -14.3565 31.0934 -8.1281 0.0000 -9.4751 0.0000
# 3 0.9447 -8.1281 214.6861 0.0000 -13.4375 0.0000
# 4 0.0000 0.0000 0.0000 -13.4043 0.0000 1.1836
# 5 -19.3435 -9.4751 -13.4375 0.0000 39.4365 0.0000
# 6 0.0000 0.0000 0.0000 1.1836 0.0000 15.8129
#
#
#
# Elastic Compliance Matrix: (Units=1/GPa)
#
#
# Indices 1 2 3 4 5 6 
#
# 1 0.014411 0.009866 0.000921 0.000000 0.009753 0.000000
# 2 0.009866 0.042212 0.002547 0.000000 0.015849 0.000000
# 3 0.000921 0.002547 0.004922 0.000000 0.002740 0.000000
# 4 0.000000 0.000000 0.000000 -0.074113 0.000000 0.005548
# 5 0.009753 0.015849 0.002740 0.000000 0.034883 0.000000
# 6 0.000000 0.000000 0.000000 0.005548 0.000000 0.062824
#
#
# Mechanical properties :
#
#
# Convention : Reuss Voigt Hill
#
# Bulk Modulus (GPa) = 11.33632 32.77240 22.05436
# Shear Modulus (GPa) = 56.89880 32.34044 44.61962
#
# Velocity S-wave (km/s) = 4.85313 3.65884 4.29767
# Velocity P-wave (km/s) = 6.00803 5.60494 5.80998
#
# Compressibility (1/GPa) = 0.08821205
#
# Stress axis : x y z
#
# Youngs Moduli (GPa) = 69.39227 23.68993 203.17496
#
# Poissons Ratio (x) = -0.23373 -0.18704
# Poissons Ratio (y) = -0.68465 -0.51744
# Poissons Ratio (z) = -0.06388 -0.06033
#
# Static dielectric constant tensor:
#      x y z
#    x 2.055810 0.000000 0.009280 
#    y 0.000000 2.000480 0.000000 
#    z 0.009280 0.000000 1.988880 
# 
# From -- ./inp_files/123375.got.cif
#   From: 2010.05.17/outbox.cif.g08.bks.cpg/sg15_62_cif.got.tgz:123375.got - 2010.06.03 18:47:42.
