data_PCOD9278884
_publ_section_title
;
Structure prediction by ZEFSAII (Michael W. Deem and Ramdas Pophale) SiO2 
 PCOD9278884
Probable space group: C 2/C
;
_chemical_formula_sum "Si O2"
_cell_formula_units_Z 48
_cell_length_a 5.357927
_cell_length_b 23.894763
_cell_length_c 20.361729
_cell_angle_alpha 90.000000
_cell_angle_beta 92.983759
_cell_angle_gamma 90.000000
_cell_volume 2603.304763
_symmetry_space_group_name_H-M "C 2/C"
_symmetry_group_IT_number 15
_symmetry_cell_setting 'monoclinic'
loop_
_space_group_symop_operation_xyz
x,y,z
-x,y,1/2-z
-x,-y,-z
x,-y,1/2+z
1/2+x,1/2+y,z
1/2-x,1/2+y,1/2-z
1/2-x,1/2-y,-z
1/2+x,1/2-y,1/2+z
loop_
_atom_site_type_symbol
_atom_site_label
_atom_site_fract_x
_atom_site_fract_y
_atom_site_fract_z
Si Si1 0.251530 0.809748 0.537149
Si Si2 0.760035 0.803578 0.294780
Si Si3 0.242314 0.774066 0.923690
Si Si4 0.239674 0.933946 0.209543
Si Si5 0.784917 0.926868 0.022834
Si Si6 0.302982 0.978562 0.076594
O O1 0.250000 0.750000 0.500000
O O2 0.514566 0.812592 0.577106
O O3 0.229006 0.860797 0.486809
O O4 0.015306 0.807784 0.581620
O O5 0.500000 0.795799 0.250000
O O6 0.754958 0.769389 0.363382
O O7 0.779912 0.869238 0.314274
O O8 0.000000 0.791325 0.250000
O O9 0.250000 0.750000 0.000000
O O10 0.500000 0.937545 0.250000
O O11 0.244050 0.977759 0.151493
O O12 0.000000 0.943873 0.250000
O O13 0.571631 0.948716 0.069851
O O14 0.069462 0.944512 0.041842
O O15 0.703034 0.960807 0.956548
#
# Coordination Sequence:
#
# PCOD9278884 Si02
#       6
#     8   8   8   8   8   8
#     4  10  21  32  53  84 115 146 185 232 277 343
#     4  10  21  36  55  79 115 151 188 238 292 349
#     4  10  21  35  53  84 109 152 189 233 285 332
#     4  10  21  35  55  83 108 148 189 231 286 339
#     4  10  21  36  55  88 111 151 182 232 300 330
#     4  10  21  36  59  78 118 146 183 240 282 345
#
# _framework density 18.438102000000001
#
# number of rings (size 3 to 8) (size 9 to 14) (size 15 to 20)
#    0.000    2.000    0.000    3.000    9.333    0.000 
#    0.000    0.000    0.000    6.000    0.000    0.000 
#    0.000    0.000    0.000    0.000    0.000    0.000 
#
# Total GULP energy -133689.361638 kJ/mol
# GULP energy per Si atom -5570.390068 kJ/mol
# Density = 1.839614 g / cm^3
# Si number density = 18.438102 Si / 1000 Ang^3
#
#
#
# Elastic Constant Matrix: (Units=GPa)
#
#
# Indices 1 2 3 4 5 6 
#
# 1 126.5394 -2.9431 0.8644 0.0000 -10.3477 0.0000
# 2 -2.9431 48.6254 1.8443 0.0000 -0.5227 0.0000
# 3 0.8644 1.8443 59.3094 0.0000 -11.1261 0.0000
# 4 0.0000 0.0000 0.0000 10.0949 0.0000 -4.1213
# 5 -10.3477 -0.5227 -11.1261 0.0000 12.1353 0.0000
# 6 0.0000 0.0000 0.0000 -4.1213 0.0000 17.2172
#
#
#
# Elastic Compliance Matrix: (Units=1/GPa)
#
#
# Indices 1 2 3 4 5 6 
#
# 1 0.008621 0.000559 0.001498 0.000000 0.008749 0.000000
# 2 0.000559 0.020627 -0.000475 0.000000 0.000929 0.000000
# 3 0.001498 -0.000475 0.020639 0.000000 0.020180 0.000000
# 4 0.000000 0.000000 0.000000 0.109789 0.000000 0.026280
# 5 0.008749 0.000929 0.020180 0.000000 0.108406 0.000000
# 6 0.000000 0.000000 0.000000 0.026280 0.000000 0.064372
#
#
# Mechanical properties :
#
#
# Convention : Reuss Voigt Hill
#
# Bulk Modulus (GPa) = 18.84970 26.00060 22.42515
# Shear Modulus (GPa) = 14.41030 23.53673 18.97351
#
# Velocity S-wave (km/s) = 2.79866 3.57673 3.21134
# Velocity P-wave (km/s) = 4.54849 5.58475 5.09304
#
# Compressibility (1/GPa) = 0.05305123
#
# Stress axis : x y z
#
# Youngs Moduli (GPa) = 115.99767 48.47964 48.45121
#
# Poissons Ratio (x) = -0.02710 -0.07259
# Poissons Ratio (y) = -0.06484 0.02303
# Poissons Ratio (z) = -0.17378 0.02304
#
# Static dielectric constant tensor:
#      x y z
#    x 1.912870 0.000000 0.022380 
#    y 0.000000 1.615490 0.000000 
#    z 0.022380 0.000000 1.626590 
# 
# From -- ./inp_files/185345.got.cif
#   From: 2010.05.17/outbox.cif.g08.bks.cpg/sg15_93_cif.got.tgz:185345.got - 2010.06.03 18:47:42.
