data_PCOD9278566
_publ_section_title
;
Structure prediction by ZEFSAII (Michael W. Deem and Ramdas Pophale) SiO2 
 PCOD9278566
Probable space group: C 2/C
;
_chemical_formula_sum "Si O2"
_cell_formula_units_Z 60
_cell_length_a 16.616129
_cell_length_b 13.196485
_cell_length_c 12.802810
_cell_angle_alpha 90.000000
_cell_angle_beta 97.224908
_cell_angle_gamma 90.000000
_cell_volume 2785.039868
_symmetry_space_group_name_H-M "C 2/C"
_symmetry_group_IT_number 15
_symmetry_cell_setting 'monoclinic'
loop_
_space_group_symop_operation_xyz
x,y,z
-x,y,1/2-z
-x,-y,-z
x,-y,1/2+z
1/2+x,1/2+y,z
1/2-x,1/2+y,1/2-z
1/2-x,1/2-y,-z
1/2+x,1/2-y,1/2+z
loop_
_atom_site_type_symbol
_atom_site_label
_atom_site_fract_x
_atom_site_fract_y
_atom_site_fract_z
Si Si1 0.873986 0.421644 0.745108
Si Si2 0.988147 0.398969 0.566100
Si Si3 0.674024 0.148118 0.796015
Si Si4 0.416910 0.421556 0.601488
Si Si5 0.023640 0.708781 0.870169
Si Si6 0.000000 0.089364 0.750000
Si Si7 0.356987 0.581973 0.859372
Si Si8 0.807883 0.133526 0.263408
O O1 0.933799 0.386103 0.846397
O O2 0.855502 0.541860 0.757044
O O3 0.787581 0.368242 0.734627
O O4 0.915904 0.407406 0.638568
O O5 0.980505 0.319529 0.470617
O O6 0.000000 0.500000 0.500000
O O7 0.617466 0.170094 0.887864
O O8 0.768420 0.132006 0.837735
O O9 0.663509 0.249456 0.723304
O O10 0.475973 0.328917 0.636594
O O11 0.459720 0.520763 0.652636
O O12 0.395315 0.416420 0.478635
O O13 0.334324 0.399578 0.651436
O O14 0.000000 0.668293 0.750000
O O15 0.921005 0.136291 0.791503
O O16 0.345866 0.461253 0.832505
#
# Coordination Sequence:
#
# PCOD9278566 Si02
#       8
#     8   8   8   8   8   4   8   8
#     4  10  22  40  60  96 134 163 220 264 334 385
#     4  11  22  37  63  91 129 174 205 273 326 386
#     4  10  21  40  64  91 129 169 218 265 314 395
#     4  10  21  38  68  94 120 168 221 268 318 389
#     4  11  22  39  66  98 125 170 228 264 320 400
#     4  10  20  44  60  90 132 162 214 272 320 382
#     4  10  22  39  64  95 124 169 213 271 332 378
#     4   9  22  39  64  91 128 163 216 270 315 392
#
# _framework density 21.543676000000001
#
# number of rings (size 3 to 8) (size 9 to 14) (size 15 to 20)
#    0.000    1.867    2.000    1.200    3.733    1.067 
#    2.400    1.333    0.000   14.400    0.000    0.000 
#    0.000    0.000    0.000    0.000    0.000    0.000 
#
# Total GULP energy -167302.406531 kJ/mol
# GULP energy per Si atom -5576.746884 kJ/mol
# Density = 2.149464 g / cm^3
# Si number density = 21.543676 Si / 1000 Ang^3
#
#
#
# Elastic Constant Matrix: (Units=GPa)
#
#
# Indices 1 2 3 4 5 6 
#
# 1 116.2142 5.7171 52.3607 0.0000 -21.7273 0.0000
# 2 5.7171 64.1253 23.0604 0.0000 -2.0276 0.0000
# 3 52.3607 23.0604 143.6370 0.0000 -5.5861 0.0000
# 4 0.0000 0.0000 0.0000 14.3185 0.0000 -12.3243
# 5 -21.7273 -2.0276 -5.5861 0.0000 30.5110 0.0000
# 6 0.0000 0.0000 0.0000 -12.3243 0.0000 22.3120
#
#
#
# Elastic Compliance Matrix: (Units=1/GPa)
#
#
# Indices 1 2 3 4 5 6 
#
# 1 0.011886 0.000674 -0.004140 0.000000 0.007751 0.000000
# 2 0.000674 0.016600 -0.002870 0.000000 0.001058 0.000000
# 3 -0.004140 -0.002870 0.008873 0.000000 -0.001514 0.000000
# 4 0.000000 0.000000 0.000000 0.133137 0.000000 0.073540
# 5 0.007751 0.001058 -0.001514 0.000000 0.038088 0.000000
# 6 0.000000 0.000000 0.000000 0.073540 0.000000 0.085439
#
#
# Mechanical properties :
#
#
# Convention : Reuss Voigt Hill
#
# Bulk Modulus (GPa) = 40.50525 54.02811 47.26668
# Shear Modulus (GPa) = 15.87695 29.61753 22.74724
#
# Velocity S-wave (km/s) = 2.71766 3.71181 3.25293
# Velocity P-wave (km/s) = 5.35629 6.59567 6.00802
#
# Compressibility (1/GPa) = 0.02468816
#
# Stress axis : x y z
#
# Youngs Moduli (GPa) = 84.13364 60.24180 112.70346
#
# Poissons Ratio (x) = -0.04061 0.46655
# Poissons Ratio (y) = -0.05671 0.32342
# Poissons Ratio (z) = 0.34828 0.17287
#
# Static dielectric constant tensor:
#      x y z
#    x 1.852660 0.000000 -0.022540 
#    y 0.000000 1.851100 0.000000 
#    z -0.022540 0.000000 1.840610 
# 
# From -- ./inp_files/105345.got.cif
#   From: 2010.05.17/outbox.cif.g08.bks.cpg/sg15_53_cif.got.tgz:105345.got - 2010.06.03 18:47:42.
