data_PCOD9278298
_publ_section_title
;
Structure prediction by ZEFSAII (Michael W. Deem and Ramdas Pophale) SiO2 
 PCOD9278298
Probable space group: C 2/C
;
_chemical_formula_sum "Si O2"
_cell_formula_units_Z 32
_cell_length_a 6.985710
_cell_length_b 12.443528
_cell_length_c 19.810456
_cell_angle_alpha 90.000000
_cell_angle_beta 53.454036
_cell_angle_gamma 90.000000
_cell_volume 1383.468443
_symmetry_space_group_name_H-M "C 2/C"
_symmetry_group_IT_number 15
_symmetry_cell_setting 'monoclinic'
loop_
_space_group_symop_operation_xyz
x,y,z
-x,y,1/2-z
-x,-y,-z
x,-y,1/2+z
1/2+x,1/2+y,z
1/2-x,1/2+y,1/2-z
1/2-x,1/2-y,-z
1/2+x,1/2-y,1/2+z
loop_
_atom_site_type_symbol
_atom_site_label
_atom_site_fract_x
_atom_site_fract_y
_atom_site_fract_z
Si Si1 0.379097 0.982867 0.704187
Si Si2 0.000000 0.837252 0.250000
Si Si3 0.500000 0.301580 0.750000
Si Si4 0.147211 0.423556 0.518566
Si Si5 0.550027 0.707302 0.890845
O O1 0.500000 0.992262 0.750000
O O2 0.224767 0.085728 0.715526
O O3 0.583176 0.963994 0.606080
O O4 0.187690 0.884001 0.744509
O O5 0.032545 0.779313 0.170804
O O6 0.333488 0.224893 0.829961
O O7 0.421398 0.402238 0.441156
O O8 0.000000 0.500000 0.500000
O O9 0.036394 0.303457 0.542659
#
# Coordination Sequence:
#
# PCOD9278298 Si02
#       5
#     8   4   4   8   8
#     4  10  22  42  70  97 141 192 241 297 366 436
#     4  11  22  40  68  99 142 184 240 297 360 441
#     4   9  22  40  66 101 140 186 244 291 370 423
#     4  10  20  42  70 104 142 188 240 307 364 425
#     4  10  22  39  70 101 141 189 240 298 361 439
#
# _framework density 23.130269999999999
#
# number of rings (size 3 to 8) (size 9 to 14) (size 15 to 20)
#    0.000    2.000    2.500    0.000    8.750    0.000 
#    0.000    2.500   11.000    0.000    0.000    0.000 
#    0.000    0.000    0.000    0.000    0.000    0.000 
#
# Total GULP energy -89289.068864 kJ/mol
# GULP energy per Si atom -5580.566804 kJ/mol
# Density = 2.307762 g / cm^3
# Si number density = 23.130270 Si / 1000 Ang^3
#
#
#
# Elastic Constant Matrix: (Units=GPa)
#
#
# Indices 1 2 3 4 5 6 
#
# 1 126.0657 73.0270 50.7976 -0.0001 -4.8929 0.0001
# 2 73.0270 107.4662 46.3599 -0.0001 -3.0656 0.0000
# 3 50.7976 46.3599 118.9313 -0.0001 -1.2235 0.0000
# 4 -0.0001 -0.0001 -0.0001 7.0556 0.0001 -6.8427
# 5 -4.8929 -3.0656 -1.2235 0.0001 47.9806 -0.0001
# 6 0.0001 0.0000 0.0000 -6.8427 -0.0001 34.4192
#
#
#
# Elastic Compliance Matrix: (Units=1/GPa)
#
#
# Indices 1 2 3 4 5 6 
#
# 1 0.013791 -0.008188 -0.002690 0.000000 0.000815 0.000000
# 2 -0.008188 0.016065 -0.002764 0.000000 0.000121 0.000000
# 3 -0.002690 -0.002764 0.010633 0.000000 -0.000180 0.000000
# 4 0.000000 0.000000 0.000000 0.175584 0.000000 0.034907
# 5 0.000815 0.000121 -0.000180 0.000000 0.020928 0.000000
# 6 0.000000 0.000000 0.000000 0.034907 0.000000 0.035993
#
#
# Mechanical properties :
#
#
# Convention : Reuss Voigt Hill
#
# Bulk Modulus (GPa) = 75.72935 76.98137 76.35536
# Shear Modulus (GPa) = 16.41072 30.04299 23.22685
#
# Velocity S-wave (km/s) = 2.66652 3.60788 3.17231
# Velocity P-wave (km/s) = 6.50322 7.12107 6.81915
#
# Compressibility (1/GPa) = 0.01320492
#
# Stress axis : x y z
#
# Youngs Moduli (GPa) = 72.51116 62.24814 94.04831
#
# Poissons Ratio (x) = 0.50966 0.25303
# Poissons Ratio (y) = 0.59369 0.25993
# Poissons Ratio (z) = 0.19509 0.17204
#
# Static dielectric constant tensor:
#      x y z
#    x 1.852300 0.000000 -0.089250 
#    y 0.000000 1.981380 0.000000 
#    z -0.089250 0.000000 1.947980 
# 
# From -- ./inp_files/183847.got.cif
#   From: 2010.05.17/outbox.cif.g08.bks.cpg/sg15_92_cif.got.tgz:183847.got - 2010.06.03 18:47:42.
