data_PCOD9278697
_publ_section_title
;
Structure prediction by ZEFSAII (Michael W. Deem and Ramdas Pophale) SiO2 
 PCOD9278697
Probable space group: C 2/C
;
_chemical_formula_sum "Si O2"
_cell_formula_units_Z 52
_cell_length_a 10.681586
_cell_length_b 17.309534
_cell_length_c 13.740429
_cell_angle_alpha 90.000000
_cell_angle_beta 116.347466
_cell_angle_gamma 90.000000
_cell_volume 2276.602075
_symmetry_space_group_name_H-M "C 2/C"
_symmetry_group_IT_number 15
_symmetry_cell_setting 'monoclinic'
loop_
_space_group_symop_operation_xyz
x,y,z
-x,y,1/2-z
-x,-y,-z
x,-y,1/2+z
1/2+x,1/2+y,z
1/2-x,1/2+y,1/2-z
1/2-x,1/2-y,-z
1/2+x,1/2-y,1/2+z
loop_
_atom_site_type_symbol
_atom_site_label
_atom_site_fract_x
_atom_site_fract_y
_atom_site_fract_z
Si Si1 0.354499 0.457091 0.950420
Si Si2 0.913373 0.170837 0.623910
Si Si3 0.148045 0.440222 0.282116
Si Si4 0.000000 0.584913 0.250000
Si Si5 0.136701 0.847415 0.736222
Si Si6 0.952987 0.681525 0.409907
Si Si7 0.849020 0.686745 0.856293
O O1 0.239893 0.525960 0.901535
O O2 0.345911 0.402689 0.851698
O O3 0.500000 0.500000 0.000000
O O4 0.357077 0.401866 0.044199
O O5 0.774726 0.213551 0.614881
O O6 0.000000 0.149611 0.750000
O O7 0.011114 0.227702 0.593693
O O8 0.093444 0.522494 0.223525
O O9 0.215994 0.382339 0.230667
O O10 0.000000 0.398613 0.250000
O O11 0.961566 0.641023 0.149226
O O12 0.288758 0.837964 0.841361
O O13 0.106429 0.760854 0.688786
O O14 0.000000 0.873345 0.750000
O O15 0.021831 0.657262 0.534764
#
# Coordination Sequence:
#
# PCOD9278697 Si02
#       7
#     8   8   8   4   8   8   8
#     4  12  27  48  70 106 150 188 237 304 372 428
#     4  12  24  44  78 106 139 188 249 304 361 431
#     4  10  24  45  67 100 149 187 232 297 361 428
#     4  10  20  44  70  98 144 176 234 310 342 414
#     4  12  27  47  70 103 148 191 239 301 369 439
#     4  12  23  44  73 104 138 184 253 301 353 432
#     4  12  25  42  75 107 138 196 247 293 366 430
#
# _framework density 22.841056999999999
#
# number of rings (size 3 to 8) (size 9 to 14) (size 15 to 20)
#    0.462    0.000    5.385    2.769    0.000    4.308 
#    0.000    0.000    0.000    0.000    0.000    0.000 
#    0.000    0.000    0.000    0.000    0.000    0.000 
#
# Total GULP energy -144892.087357 kJ/mol
# GULP energy per Si atom -5572.772591 kJ/mol
# Density = 2.278907 g / cm^3
# Si number density = 22.841057 Si / 1000 Ang^3
#
#
#
# Elastic Constant Matrix: (Units=GPa)
#
#
# Indices 1 2 3 4 5 6 
#
# 1 89.3056 5.8851 16.5247 0.0000 18.0466 0.0000
# 2 5.8851 77.6384 19.6117 0.0000 -0.7527 0.0000
# 3 16.5247 19.6117 93.6904 0.0000 18.7259 0.0000
# 4 0.0000 0.0000 0.0000 42.8505 0.0000 -1.8238
# 5 18.0466 -0.7527 18.7259 0.0000 37.9507 0.0000
# 6 0.0000 0.0000 0.0000 -1.8238 0.0000 31.7966
#
#
#
# Elastic Compliance Matrix: (Units=1/GPa)
#
#
# Indices 1 2 3 4 5 6 
#
# 1 0.012537 -0.000764 -0.000950 0.000000 -0.005508 0.000000
# 2 -0.000764 0.013765 -0.003188 0.000000 0.002209 0.000000
# 3 -0.000950 -0.003188 0.012681 0.000000 -0.005869 0.000000
# 4 0.000000 0.000000 0.000000 0.023394 0.000000 0.001342
# 5 -0.005508 0.002209 -0.005869 0.000000 0.031909 0.000000
# 6 0.000000 0.000000 0.000000 0.001342 0.000000 0.031527
#
#
# Mechanical properties :
#
#
# Convention : Reuss Voigt Hill
#
# Bulk Modulus (GPa) = 34.27199 38.29750 36.28474
# Shear Modulus (GPa) = 34.40133 37.09377 35.74755
#
# Velocity S-wave (km/s) = 3.88508 4.03425 3.96037
# Velocity P-wave (km/s) = 5.92978 6.20513 6.06902
#
# Compressibility (1/GPa) = 0.02917835
#
# Stress axis : x y z
#
# Youngs Moduli (GPa) = 79.76596 72.64861 78.85543
#
# Poissons Ratio (x) = 0.05547 0.07495
# Poissons Ratio (y) = 0.06091 0.25141
# Poissons Ratio (z) = 0.07582 0.23162
#
# Static dielectric constant tensor:
#      x y z
#    x 2.007580 0.000000 0.055120 
#    y 0.000000 1.848310 0.000000 
#    z 0.055120 0.000000 1.586590 
# 
# From -- ./inp_files/145815.got.cif
#   From: 2010.05.17/outbox.cif.g08.bks.cpg/sg15_73_cif.got.tgz:145815.got - 2010.06.03 18:47:42.
