data_PCOD9278295
_publ_section_title
;
Structure prediction by ZEFSAII (Michael W. Deem and Ramdas Pophale) SiO2 
 PCOD9278295
Probable space group: C 2/C
;
_chemical_formula_sum "Si O2"
_cell_formula_units_Z 36
_cell_length_a 25.244920
_cell_length_b 7.414613
_cell_length_c 8.756534
_cell_angle_alpha 90.000000
_cell_angle_beta 101.399586
_cell_angle_gamma 90.000000
_cell_volume 1606.725145
_symmetry_space_group_name_H-M "C 2/C"
_symmetry_group_IT_number 15
_symmetry_cell_setting 'monoclinic'
loop_
_space_group_symop_operation_xyz
x,y,z
-x,y,1/2-z
-x,-y,-z
x,-y,1/2+z
1/2+x,1/2+y,z
1/2-x,1/2+y,1/2-z
1/2-x,1/2-y,-z
1/2+x,1/2-y,1/2+z
loop_
_atom_site_type_symbol
_atom_site_label
_atom_site_fract_x
_atom_site_fract_y
_atom_site_fract_z
Si Si1 0.000000 0.449006 0.250000
Si Si2 0.160291 0.117052 0.954198
Si Si3 0.211942 0.195666 0.303096
Si Si4 0.575164 0.148271 0.532231
Si Si5 0.324901 0.919404 0.795368
O O1 0.037041 0.573353 0.378207
O O2 0.960373 0.336973 0.336056
O O3 0.103541 0.165396 0.001133
O O4 0.164041 0.264047 0.820983
O O5 0.173222 0.928292 0.882987
O O6 0.201941 0.148501 0.117006
O O7 0.196808 0.402898 0.301044
O O8 0.274563 0.151213 0.366674
O O9 0.622131 0.996951 0.589141
#
# Coordination Sequence:
#
# PCOD9278295 Si02
#       5
#     4   8   8   8   8
#     4  10  20  42  70 102 116 176 226 286 332 390
#     4  11  24  44  60 103 134 182 218 266 324 400
#     4  11  25  39  67  96 147 175 219 258 328 402
#     4  10  22  39  69 100 129 165 234 269 334 390
#     4  11  22  41  67 100 135 182 215 267 324 400
#
# _framework density 22.405823999999999
#
# number of rings (size 3 to 8) (size 9 to 14) (size 15 to 20)
#    0.000    1.333    4.444    0.667    3.111    4.444 
#    0.000    0.000    0.000   16.000    0.000    0.000 
#    0.000    0.000    0.000    0.000    0.000    0.000 
#
# Total GULP energy -100695.724749 kJ/mol
# GULP energy per Si atom -5594.206930 kJ/mol
# Density = 2.235483 g / cm^3
# Si number density = 22.405824 Si / 1000 Ang^3
#
#
#
# Elastic Constant Matrix: (Units=GPa)
#
#
# Indices 1 2 3 4 5 6 
#
# 1 157.4277 37.8999 42.2662 0.0000 -10.9174 0.0000
# 2 37.8999 111.3265 9.2041 0.0000 -7.1477 0.0000
# 3 42.2662 9.2041 93.6450 0.0000 11.0207 0.0000
# 4 0.0000 0.0000 0.0000 -28.0014 0.0000 13.7844
# 5 -10.9174 -7.1477 11.0207 0.0000 49.5733 0.0000
# 6 0.0000 0.0000 0.0000 13.7844 0.0000 23.7213
#
#
#
# Elastic Compliance Matrix: (Units=1/GPa)
#
#
# Indices 1 2 3 4 5 6 
#
# 1 0.008046 -0.002291 -0.003672 0.000000 0.002258 0.000000
# 2 -0.002291 0.009825 -0.000040 0.000000 0.000921 0.000000
# 3 -0.003672 -0.000040 0.012770 0.000000 -0.003653 0.000000
# 4 0.000000 0.000000 0.000000 -0.027769 0.000000 0.016137
# 5 0.002258 0.000921 -0.003653 0.000000 0.021614 0.000000
# 6 0.000000 0.000000 0.000000 0.016137 0.000000 0.032779
#
#
# Mechanical properties :
#
#
# Convention : Reuss Voigt Hill
#
# Bulk Modulus (GPa) = 53.66264 60.12662 56.89463
# Shear Modulus (GPa) = 66.23985 27.26059 46.75022
#
# Velocity S-wave (km/s) = 5.44315 3.49187 4.57280
# Velocity P-wave (km/s) = 7.96907 6.56895 7.30264
#
# Compressibility (1/GPa) = 0.01863494
#
# Stress axis : x y z
#
# Youngs Moduli (GPa) = 124.28422 101.78260 78.30884
#
# Poissons Ratio (x) = 0.23315 0.28756
# Poissons Ratio (y) = 0.28469 0.00315
# Poissons Ratio (z) = 0.45639 0.00409
#
# Static dielectric constant tensor:
#      x y z
#    x 1.862160 0.000000 -0.024290 
#    y 0.000000 1.775070 0.000000 
#    z -0.024290 0.000000 1.879600 
# 
# From -- ./inp_files/64428.got.cif
#   From: 2010.05.17/outbox.cif.g08.bks.cpg/sg15_33_cif.got.tgz:64428.got - 2010.06.03 18:47:42.
