data_PCOD9278826
_publ_section_title
;
Structure prediction by ZEFSAII (Michael W. Deem and Ramdas Pophale) SiO2 
 PCOD9278826
Probable space group: C 2/C
;
_chemical_formula_sum "Si O2"
_cell_formula_units_Z 44
_cell_length_a 5.032757
_cell_length_b 20.126326
_cell_length_c 18.290847
_cell_angle_alpha 90.000000
_cell_angle_beta 105.101055
_cell_angle_gamma 90.000000
_cell_volume 1788.718879
_symmetry_space_group_name_H-M "C 2/C"
_symmetry_group_IT_number 15
_symmetry_cell_setting 'monoclinic'
loop_
_space_group_symop_operation_xyz
x,y,z
-x,y,1/2-z
-x,-y,-z
x,-y,1/2+z
1/2+x,1/2+y,z
1/2-x,1/2+y,1/2-z
1/2-x,1/2-y,-z
1/2+x,1/2-y,1/2+z
loop_
_atom_site_type_symbol
_atom_site_label
_atom_site_fract_x
_atom_site_fract_y
_atom_site_fract_z
Si Si1 0.884289 0.809466 0.821230
Si Si2 0.764369 0.672313 0.479812
Si Si3 0.500000 0.113139 0.750000
Si Si4 0.000000 0.203858 0.750000
Si Si5 0.939507 0.489169 0.373769
Si Si6 0.000000 0.577809 0.250000
Si Si7 0.788985 0.919475 0.008157
O O1 0.665365 0.750509 0.819308
O O2 0.710730 0.875926 0.806808
O O3 0.000000 0.794525 0.750000
O O4 0.136688 0.822672 0.890686
O O5 0.750000 0.750000 0.500000
O O6 0.567210 0.619535 0.508167
O O7 0.062318 0.639084 0.500426
O O8 0.229180 0.157577 0.732114
O O9 0.475429 0.071095 0.673445
O O10 0.723342 0.461220 0.417218
O O11 0.842406 0.538279 0.302298
O O12 0.169847 0.528756 0.438271
#
# Coordination Sequence:
#
# PCOD9278826 Si02
#       7
#     8   8   4   4   8   4   8
#     4  11  24  44  79 105 149 190 253 310 368 437
#     4  12  28  48  77 108 149 197 247 306 374 447
#     4  11  26  45  74 109 144 191 246 300 376 431
#     4  11  26  45  72 109 146 185 246 316 364 423
#     4  10  24  47  74 106 148 196 241 307 365 457
#     4  10  20  48  72 112 140 196 254 302 374 436
#     4  11  26  49  73 108 149 192 244 301 377 442
#
# _framework density 24.598613
#
# number of rings (size 3 to 8) (size 9 to 14) (size 15 to 20)
#    0.000    1.091    2.727    1.636    5.091    7.273 
#    9.818    0.000    0.000    0.000    0.000    0.000 
#    0.000    0.000    0.000    0.000    0.000    0.000 
#
# Total GULP energy -123094.442355 kJ/mol
# GULP energy per Si atom -5595.201925 kJ/mol
# Density = 2.454263 g / cm^3
# Si number density = 24.598613 Si / 1000 Ang^3
#
#
#
# Elastic Constant Matrix: (Units=GPa)
#
#
# Indices 1 2 3 4 5 6 
#
# 1 98.1237 40.3011 10.4161 0.0000 -10.7933 0.0000
# 2 40.3011 142.7464 30.9516 0.0000 -25.2057 0.0000
# 3 10.4161 30.9516 99.2992 0.0000 -31.0798 0.0000
# 4 0.0000 0.0000 0.0000 -45.3663 0.0000 13.7564
# 5 -10.7933 -25.2057 -31.0798 0.0000 24.4984 0.0000
# 6 0.0000 0.0000 0.0000 13.7564 0.0000 35.8242
#
#
#
# Elastic Compliance Matrix: (Units=1/GPa)
#
#
# Indices 1 2 3 4 5 6 
#
# 1 0.011639 -0.002904 0.000587 0.000000 0.002885 0.000000
# 2 -0.002904 0.009286 0.000000 0.000000 0.008275 0.000000
# 3 0.000587 0.000000 0.016735 0.000000 0.021490 0.000000
# 4 0.000000 0.000000 0.000000 -0.019744 0.000000 0.007582
# 5 0.002885 0.008275 0.021490 0.000000 0.077867 0.000000
# 6 0.000000 0.000000 0.000000 0.007582 0.000000 0.025003
#
#
# Mechanical properties :
#
#
# Convention : Reuss Voigt Hill
#
# Bulk Modulus (GPa) = 30.27776 55.94521 43.11149
# Shear Modulus (GPa) = 36.64914 20.22461 28.43687
#
# Velocity S-wave (km/s) = 3.86409 2.87049 3.40374
# Velocity P-wave (km/s) = 5.67836 5.81196 5.74555
#
# Compressibility (1/GPa) = 0.03302754
#
# Stress axis : x y z
#
# Youngs Moduli (GPa) = 85.91873 107.68339 59.75486
#
# Poissons Ratio (x) = 0.31270 -0.03509
# Poissons Ratio (y) = 0.24950 -0.00001
# Poissons Ratio (z) = -0.05046 -0.00002
#
# Static dielectric constant tensor:
#      x y z
#    x 1.954850 0.000000 -0.049450 
#    y 0.000000 2.014490 0.000000 
#    z -0.049450 0.000000 1.854060 
# 
# From -- ./inp_files/185020.got.cif
#   From: 2010.05.17/outbox.cif.g08.bks.cpg/sg15_93_cif.got.tgz:185020.got - 2010.06.03 18:47:42.
