data_PCOD9278690
_publ_section_title
;
Structure prediction by ZEFSAII (Michael W. Deem and Ramdas Pophale) SiO2 
 PCOD9278690
Probable space group: C 2/C
;
_chemical_formula_sum "Si O2"
_cell_formula_units_Z 60
_cell_length_a 21.729234
_cell_length_b 13.479964
_cell_length_c 8.545210
_cell_angle_alpha 90.000000
_cell_angle_beta 93.500481
_cell_angle_gamma 90.000000
_cell_volume 2498.301583
_symmetry_space_group_name_H-M "C 2/C"
_symmetry_group_IT_number 15
_symmetry_cell_setting 'monoclinic'
loop_
_space_group_symop_operation_xyz
x,y,z
-x,y,1/2-z
-x,-y,-z
x,-y,1/2+z
1/2+x,1/2+y,z
1/2-x,1/2+y,1/2-z
1/2-x,1/2-y,-z
1/2+x,1/2-y,1/2+z
loop_
_atom_site_type_symbol
_atom_site_label
_atom_site_fract_x
_atom_site_fract_y
_atom_site_fract_z
Si Si1 0.500000 0.782969 0.750000
Si Si2 0.312839 0.065349 0.894272
Si Si3 0.361014 0.299844 0.591744
Si Si4 0.873935 0.361545 0.857598
Si Si5 0.774433 0.936373 0.398356
Si Si6 0.004069 0.838432 0.929742
Si Si7 0.819251 0.253719 0.576086
Si Si8 0.376089 0.406548 0.905642
O O1 0.439627 0.843896 0.787808
O O2 0.488326 0.721392 0.586825
O O3 0.355969 0.975416 0.849365
O O4 0.268071 0.099922 0.748547
O O5 0.267671 0.013081 0.012407
O O6 0.347901 0.155362 0.980216
O O7 0.371551 0.188999 0.529216
O O8 0.300799 0.350170 0.510461
O O9 0.423096 0.358706 0.544602
O O10 0.360294 0.322625 0.773929
O O11 0.825955 0.294571 0.751474
O O12 0.833967 0.000592 0.357469
O O13 0.000000 0.792036 0.750000
O O14 0.949655 0.920109 0.914581
O O15 0.750000 0.250000 0.500000
O O16 0.852716 0.148767 0.558397
#
# Coordination Sequence:
#
# PCOD9278690 Si02
#       8
#     4   8   8   8   8   8   8   8
#     4  10  20  44  70  92 132 174 226 272 342 396
#     4  12  25  42  61  96 131 163 219 270 323 398
#     4  10  24  40  64  94 129 173 215 270 327 390
#     4  11  24  43  67  95 126 173 219 270 331 392
#     4  12  24  40  61  94 135 170 213 265 327 399
#     4   9  20  39  65  98 131 170 227 276 324 399
#     4  12  23  41  67  94 126 172 212 268 331 390
#     4  11  22  41  65  93 128 173 218 270 328 393
#
# _framework density 24.016317999999998
#
# number of rings (size 3 to 8) (size 9 to 14) (size 15 to 20)
#    0.000    1.067    5.333    0.800    1.867    1.067 
#    0.000    0.667    5.867    0.000    0.000    0.000 
#    0.000    0.000    0.000    0.000    0.000    0.000 
#
# Total GULP energy -167615.880204 kJ/mol
# GULP energy per Si atom -5587.196007 kJ/mol
# Density = 2.396166 g / cm^3
# Si number density = 24.016318 Si / 1000 Ang^3
#
#
#
# Elastic Constant Matrix: (Units=GPa)
#
#
# Indices 1 2 3 4 5 6 
#
# 1 87.6134 11.2232 18.6489 0.0000 2.6579 0.0000
# 2 11.2232 54.2336 23.2395 0.0000 -6.5289 0.0000
# 3 18.6489 23.2395 95.5797 0.0000 0.4180 0.0000
# 4 0.0000 0.0000 0.0000 35.0296 0.0000 -4.7305
# 5 2.6579 -6.5289 0.4180 0.0000 33.1921 0.0000
# 6 0.0000 0.0000 0.0000 -4.7305 0.0000 35.2387
#
#
#
# Elastic Compliance Matrix: (Units=1/GPa)
#
#
# Indices 1 2 3 4 5 6 
#
# 1 0.012095 -0.001844 -0.001906 0.000000 -0.001307 0.000000
# 2 -0.001844 0.021441 -0.004873 0.000000 0.004426 0.000000
# 3 -0.001906 -0.004873 0.012023 0.000000 -0.000957 0.000000
# 4 0.000000 0.000000 0.000000 0.029074 0.000000 0.003903
# 5 -0.001307 0.004426 -0.000957 0.000000 0.031115 0.000000
# 6 0.000000 0.000000 0.000000 0.003903 0.000000 0.028902
#
#
# Mechanical properties :
#
#
# Convention : Reuss Voigt Hill
#
# Bulk Modulus (GPa) = 35.31719 38.18330 36.75025
# Shear Modulus (GPa) = 30.99150 32.97975 31.98563
#
# Velocity S-wave (km/s) = 3.59616 3.70972 3.65338
# Velocity P-wave (km/s) = 5.65514 5.85515 5.75601
#
# Compressibility (1/GPa) = 0.02831482
#
# Stress axis : x y z
#
# Youngs Moduli (GPa) = 82.67673 46.63902 83.17145
#
# Poissons Ratio (x) = 0.08599 0.15852
# Poissons Ratio (y) = 0.15243 0.40529
# Poissons Ratio (z) = 0.15758 0.22727
#
# Static dielectric constant tensor:
#      x y z
#    x 1.928290 0.000000 -0.045510 
#    y 0.000000 1.919380 0.000000 
#    z -0.045510 0.000000 2.002100 
# 
# From -- ./inp_files/61571.got.cif
#   From: 2010.05.17/outbox.cif.g08.bks.cpg/sg15_31_cif.got.tgz:61571.got - 2010.06.03 18:47:42.
