data_PCOD9278272
_publ_section_title
;
Structure prediction by ZEFSAII (Michael W. Deem and Ramdas Pophale) SiO2 
 PCOD9278272
Probable space group: C 2/C
;
_chemical_formula_sum "Si O2"
_cell_formula_units_Z 48
_cell_length_a 8.805386
_cell_length_b 16.485906
_cell_length_c 28.329977
_cell_angle_alpha 90.000000
_cell_angle_beta 141.947312
_cell_angle_gamma 90.000000
_cell_volume 2534.895746
_symmetry_space_group_name_H-M "C 2/C"
_symmetry_group_IT_number 15
_symmetry_cell_setting 'monoclinic'
loop_
_space_group_symop_operation_xyz
x,y,z
-x,y,1/2-z
-x,-y,-z
x,-y,1/2+z
1/2+x,1/2+y,z
1/2-x,1/2+y,1/2-z
1/2-x,1/2-y,-z
1/2+x,1/2-y,1/2+z
loop_
_atom_site_type_symbol
_atom_site_label
_atom_site_fract_x
_atom_site_fract_y
_atom_site_fract_z
Si Si1 0.814351 0.767388 0.070386
Si Si2 0.458041 0.339159 0.670259
Si Si3 0.085769 0.611298 0.161738
Si Si4 0.676284 0.835445 0.505450
Si Si5 0.762582 0.543935 0.565997
Si Si6 0.677707 0.160415 0.831845
O O1 0.594161 0.817859 0.039363
O O2 0.875803 0.681187 0.109904
O O3 0.070096 0.815338 0.132112
O O4 0.750000 0.750000 0.000000
O O5 0.723807 0.375042 0.748714
O O6 0.254714 0.374690 0.656623
O O7 0.363068 0.352170 0.594281
O O8 0.451571 0.243311 0.681388
O O9 0.963512 0.524297 0.127114
O O10 0.750000 0.750000 0.500000
O O11 0.683730 0.906777 0.468887
O O12 0.500000 0.500000 0.500000
O O13 0.762352 0.607490 0.608452
O O14 0.500000 0.120432 0.750000
#
# Coordination Sequence:
#
# PCOD9278272 Si02
#       6
#     8   8   8   8   8   8
#     4  11  19  39  70  92 124 178 223 257 323 405
#     4  10  20  42  69  90 127 176 220 258 324 402
#     4  10  21  42  63  95 132 169 211 277 328 380
#     4  12  23  40  69 100 127 171 226 271 321 399
#     4  12  27  43  63 101 140 163 217 289 332 378
#     4  11  21  44  69  92 127 180 219 261 329 403
#
# _framework density 18.935690999999998
#
# number of rings (size 3 to 8) (size 9 to 14) (size 15 to 20)
#    0.000    1.000    8.333    2.000    0.000    2.000 
#    6.000    4.167    0.000    0.000    0.000    0.000 
#    0.000    0.000    0.000    0.000    0.000    0.000 
#
# Total GULP energy -134095.692184 kJ/mol
# GULP energy per Si atom -5587.320508 kJ/mol
# Density = 1.889259 g / cm^3
# Si number density = 18.935691 Si / 1000 Ang^3
#
#
#
# Elastic Constant Matrix: (Units=GPa)
#
#
# Indices 1 2 3 4 5 6 
#
# 1 79.7359 49.2756 57.1784 0.0000 -3.0007 0.0000
# 2 49.2756 108.9636 55.2518 0.0000 3.6063 0.0000
# 3 57.1784 55.2518 148.2634 0.0000 0.0910 0.0000
# 4 0.0000 0.0000 0.0000 38.8012 0.0000 -3.9692
# 5 -3.0007 3.6063 0.0910 0.0000 26.9598 0.0000
# 6 0.0000 0.0000 0.0000 -3.9692 0.0000 21.9114
#
#
#
# Elastic Compliance Matrix: (Units=1/GPa)
#
#
# Indices 1 2 3 4 5 6 
#
# 1 0.020753 -0.006698 -0.005509 0.000000 0.003224 0.000000
# 2 -0.006698 0.013538 -0.002461 0.000000 -0.002548 0.000000
# 3 -0.005509 -0.002461 0.009787 0.000000 -0.000317 0.000000
# 4 0.000000 0.000000 0.000000 0.026259 0.000000 0.004757
# 5 0.003224 -0.002548 -0.000317 0.000000 0.037793 0.000000
# 6 0.000000 0.000000 0.000000 0.004757 0.000000 0.046500
#
#
# Mechanical properties :
#
#
# Convention : Reuss Voigt Hill
#
# Bulk Modulus (GPa) = 67.83317 73.37494 70.60406
# Shear Modulus (GPa) = 26.47195 29.21828 27.84512
#
# Velocity S-wave (km/s) = 3.74303 3.93240 3.83888
# Velocity P-wave (km/s) = 7.38790 7.71051 7.55093
#
# Compressibility (1/GPa) = 0.01474205
#
# Stress axis : x y z
#
# Youngs Moduli (GPa) = 48.18658 73.86447 102.18089
#
# Poissons Ratio (x) = 0.49474 0.56294
# Poissons Ratio (y) = 0.32275 0.25142
# Poissons Ratio (z) = 0.26547 0.18175
#
# Static dielectric constant tensor:
#      x y z
#    x 1.648050 0.000000 0.004670 
#    y 0.000000 1.654280 0.000000 
#    z 0.004670 0.000000 1.672730 
# 
# From -- ./inp_files/289092.got.cif
#   From: 2010.05.17/outbox.cif.g08.bks.cpg/sg15_145_cif.got.tgz:289092.got - 2010.06.03 18:47:42.
