data_PCOD9278483
_publ_section_title
;
Structure prediction by ZEFSAII (Michael W. Deem and Ramdas Pophale) SiO2 
 PCOD9278483
Probable space group: C 2/C
;
_chemical_formula_sum "Si O2"
_cell_formula_units_Z 56
_cell_length_a 8.940458
_cell_length_b 26.682400
_cell_length_c 11.344429
_cell_angle_alpha 90.000000
_cell_angle_beta 101.274279
_cell_angle_gamma 90.000000
_cell_volume 2654.022448
_symmetry_space_group_name_H-M "C 2/C"
_symmetry_group_IT_number 15
_symmetry_cell_setting 'monoclinic'
loop_
_space_group_symop_operation_xyz
x,y,z
-x,y,1/2-z
-x,-y,-z
x,-y,1/2+z
1/2+x,1/2+y,z
1/2-x,1/2+y,1/2-z
1/2-x,1/2-y,-z
1/2+x,1/2-y,1/2+z
loop_
_atom_site_type_symbol
_atom_site_label
_atom_site_fract_x
_atom_site_fract_y
_atom_site_fract_z
Si Si1 0.646576 0.552366 0.356536
Si Si2 0.846088 0.467126 0.467523
Si Si3 0.669085 0.105309 0.309739
Si Si4 0.819789 0.201290 0.237883
Si Si5 0.748637 0.354233 0.004503
Si Si6 0.322531 0.691661 0.749674
Si Si7 0.426703 0.123985 0.863341
O O1 0.500000 0.547316 0.250000
O O2 0.701303 0.503174 0.433028
O O3 0.779254 0.567453 0.285251
O O4 0.643662 0.599041 0.446851
O O5 0.828857 0.426845 0.570394
O O6 0.865293 0.432329 0.355834
O O7 0.000000 0.500000 0.500000
O O8 0.500000 0.122950 0.250000
O O9 0.778950 0.153690 0.314669
O O10 0.737671 0.251715 0.263922
O O11 0.000000 0.208689 0.250000
O O12 0.763307 0.186670 0.099024
O O13 0.703648 0.332028 0.123940
O O14 0.925397 0.371835 0.031616
O O15 0.500000 0.688674 0.750000
O O16 0.215741 0.660510 0.643050
O O17 0.500000 0.137365 0.750000
#
# Coordination Sequence:
#
# PCOD9278483 Si02
#       7
#     8   8   8   8   8   8   8
#     4  11  25  42  65  98 135 176 227 280 340 400
#     4  12  23  41  68  98 130 182 224 282 339 399
#     4  11  22  39  67  98 132 173 234 277 332 405
#     4  11  23  44  69  98 137 180 227 282 341 406
#     4  10  20  43  67  93 129 182 219 269 343 410
#     4  11  25  42  67 101 136 172 225 289 343 405
#     4  10  23  41  67  93 132 175 228 272 342 412
#
# _framework density 21.100048000000001
#
# number of rings (size 3 to 8) (size 9 to 14) (size 15 to 20)
#    0.000    1.143    2.857    4.714    2.000    3.429 
#    0.000    3.571    0.000    0.857    0.000    0.000 
#    0.000    0.000    0.000    0.000    0.000    0.000 
#
# Total GULP energy -156378.951869 kJ/mol
# GULP energy per Si atom -5584.962567 kJ/mol
# Density = 2.105202 g / cm^3
# Si number density = 21.100048 Si / 1000 Ang^3
#
#
#
# Elastic Constant Matrix: (Units=GPa)
#
#
# Indices 1 2 3 4 5 6 
#
# 1 104.9827 58.2235 31.7523 0.0000 4.8664 0.0000
# 2 58.2235 131.4209 35.9895 0.0000 17.4613 0.0000
# 3 31.7523 35.9895 67.9639 0.0000 17.5077 0.0000
# 4 0.0000 0.0000 0.0000 25.3211 0.0000 11.0657
# 5 4.8664 17.4613 17.5077 0.0000 31.3534 0.0000
# 6 0.0000 0.0000 0.0000 11.0657 0.0000 28.9722
#
#
#
# Elastic Compliance Matrix: (Units=1/GPa)
#
#
# Indices 1 2 3 4 5 6 
#
# 1 0.013631 -0.005263 -0.004428 0.000000 0.003288 0.000000
# 2 -0.005263 0.011134 -0.002395 0.000000 -0.004047 0.000000
# 3 -0.004428 -0.002395 0.020475 0.000000 -0.009412 0.000000
# 4 0.000000 0.000000 0.000000 0.047405 0.000000 -0.018106
# 5 0.003288 -0.004047 -0.009412 0.000000 0.038894 0.000000
# 6 0.000000 0.000000 0.000000 -0.018106 0.000000 0.041431
#
#
# Mechanical properties :
#
#
# Convention : Reuss Voigt Hill
#
# Bulk Modulus (GPa) = 47.46448 61.81089 54.63769
# Shear Modulus (GPa) = 24.48971 29.02280 26.75626
#
# Velocity S-wave (km/s) = 3.41052 3.71278 3.56485
# Velocity P-wave (km/s) = 6.16869 6.90923 6.54943
#
# Compressibility (1/GPa) = 0.02106838
#
# Stress axis : x y z
#
# Youngs Moduli (GPa) = 73.36013 89.81169 48.83914
#
# Poissons Ratio (x) = 0.47271 0.21628
# Poissons Ratio (y) = 0.38612 0.11695
# Poissons Ratio (z) = 0.32487 0.21507
#
# Static dielectric constant tensor:
#      x y z
#    x 1.810300 0.000000 0.002140 
#    y 0.000000 1.754450 0.000000 
#    z 0.002140 0.000000 1.812390 
# 
# From -- ./inp_files/81446.got.cif
#   From: 2010.05.17/outbox.cif.g08.bks.cpg/sg15_41_cif.got.tgz:81446.got - 2010.06.03 18:47:42.
