data_PCOD9278926
_publ_section_title
;
Structure prediction by ZEFSAII (Michael W. Deem and Ramdas Pophale) SiO2 
 PCOD9278926
Probable space group: C 2/C
;
_chemical_formula_sum "Si O2"
_cell_formula_units_Z 52
_cell_length_a 20.784546
_cell_length_b 26.478176
_cell_length_c 5.760159
_cell_angle_alpha 90.000000
_cell_angle_beta 73.383500
_cell_angle_gamma 90.000000
_cell_volume 3037.648326
_symmetry_space_group_name_H-M "C 2/C"
_symmetry_group_IT_number 15
_symmetry_cell_setting 'monoclinic'
loop_
_space_group_symop_operation_xyz
x,y,z
-x,y,1/2-z
-x,-y,-z
x,-y,1/2+z
1/2+x,1/2+y,z
1/2-x,1/2+y,1/2-z
1/2-x,1/2-y,-z
1/2+x,1/2-y,1/2+z
loop_
_atom_site_type_symbol
_atom_site_label
_atom_site_fract_x
_atom_site_fract_y
_atom_site_fract_z
Si Si1 0.692799 0.129134 0.453247
Si Si2 0.648389 0.224647 0.178431
Si Si3 0.237474 0.515863 0.344946
Si Si4 0.250889 0.293292 0.189117
Si Si5 0.086115 0.478572 0.557431
Si Si6 0.000000 0.295803 0.750000
Si Si7 0.444904 0.118055 0.625042
O O1 0.671422 0.174707 0.301035
O O2 0.719725 0.075541 0.334219
O O3 0.748813 0.153192 0.565763
O O4 0.624890 0.119539 0.666356
O O5 0.687028 0.275599 0.217570
O O6 0.568427 0.231135 0.260857
O O7 0.680916 0.212160 0.897337
O O8 0.269172 0.505130 0.570224
O O9 0.165963 0.487508 0.453956
O O10 0.250000 0.250000 0.000000
O O11 0.063406 0.500085 0.828697
O O12 0.068654 0.419902 0.571262
O O13 0.026693 0.330769 0.512381
O O14 0.500000 0.099231 0.750000
#
# Coordination Sequence:
#
# PCOD9278926 Si02
#       7
#     8   8   8   8   8   4   8
#     4  11  20  35  53  69  99 137 182 224 269 316
#     4  10  21  35  54  76  97 130 176 228 276 325
#     4  10  21  33  51  72 102 139 180 227 267 303
#     4   9  20  37  55  73  95 128 180 222 274 328
#     4  10  22  36  46  62  98 139 185 226 260 298
#     4  12  24  32  54  74 102 130 174 228 280 314
#     4  12  24  33  45  69  98 138 179 221 267 310
#
# _framework density 17.118506
#
# number of rings (size 3 to 8) (size 9 to 14) (size 15 to 20)
#    0.000    1.538    6.154    0.000    8.615    0.615 
#    0.000    0.000    0.000    0.000    0.000    0.000 
#    0.000    0.000    0.000    1.385    0.000    4.154 
#
# Total GULP energy -144844.892811 kJ/mol
# GULP energy per Si atom -5570.957416 kJ/mol
# Density = 1.707954 g / cm^3
# Si number density = 17.118506 Si / 1000 Ang^3
#
#
#
# Elastic Constant Matrix: (Units=GPa)
#
#
# Indices 1 2 3 4 5 6 
#
# 1 55.7083 27.9422 2.6276 0.0000 1.1530 0.0000
# 2 27.9422 56.3944 1.6320 0.0000 1.2994 0.0000
# 3 2.6276 1.6320 79.1038 0.0000 7.1685 0.0000
# 4 0.0000 0.0000 0.0000 15.2269 0.0000 4.7279
# 5 1.1530 1.2994 7.1685 0.0000 19.8897 0.0000
# 6 0.0000 0.0000 0.0000 4.7279 0.0000 8.3981
#
#
#
# Elastic Compliance Matrix: (Units=1/GPa)
#
#
# Indices 1 2 3 4 5 6 
#
# 1 0.023915 -0.011824 -0.000511 0.000000 -0.000430 0.000000
# 2 -0.011824 0.023611 -0.000017 0.000000 -0.000851 0.000000
# 3 -0.000511 -0.000017 0.013083 0.000000 -0.004685 0.000000
# 4 0.000000 0.000000 0.000000 0.079585 0.000000 -0.044803
# 5 -0.000430 -0.000851 -0.004685 0.000000 0.052046 0.000000
# 6 0.000000 0.000000 0.000000 -0.044803 0.000000 0.144297
#
#
# Mechanical properties :
#
#
# Convention : Reuss Voigt Hill
#
# Bulk Modulus (GPa) = 27.85299 28.40112 28.12706
# Shear Modulus (GPa) = 13.39725 19.30325 16.35025
#
# Velocity S-wave (km/s) = 2.80057 3.36166 3.09386
# Velocity P-wave (km/s) = 5.17335 5.62979 5.40639
#
# Compressibility (1/GPa) = 0.03590278
#
# Stress axis : x y z
#
# Youngs Moduli (GPa) = 41.81546 42.35290 76.43223
#
# Poissons Ratio (x) = 0.50080 0.03910
# Poissons Ratio (y) = 0.49445 0.00132
# Poissons Ratio (z) = 0.02139 0.00073
#
# Static dielectric constant tensor:
#      x y z
#    x 1.619470 0.000000 0.076990 
#    y 0.000000 1.625570 0.000000 
#    z 0.076990 0.000000 1.658230 
# 
# From -- ./inp_files/11857.got.cif
#   From: 2010.05.17/outbox.cif.g08.bks.cpg/sg15_6_cif.got.tgz:11857.got - 2010.06.03 18:47:42.
