data_PCOD9278381
_publ_section_title
;
Structure prediction by ZEFSAII (Michael W. Deem and Ramdas Pophale) SiO2 
 PCOD9278381
Probable space group: C 2/C
;
_chemical_formula_sum "Si O2"
_cell_formula_units_Z 48
_cell_length_a 16.695237
_cell_length_b 8.681122
_cell_length_c 19.241986
_cell_angle_alpha 90.000000
_cell_angle_beta 141.781027
_cell_angle_gamma 90.000000
_cell_volume 1725.346831
_symmetry_space_group_name_H-M "C 2/C"
_symmetry_group_IT_number 15
_symmetry_cell_setting 'monoclinic'
loop_
_space_group_symop_operation_xyz
x,y,z
-x,y,1/2-z
-x,-y,-z
x,-y,1/2+z
1/2+x,1/2+y,z
1/2-x,1/2+y,1/2-z
1/2-x,1/2-y,-z
1/2+x,1/2-y,1/2+z
loop_
_atom_site_type_symbol
_atom_site_label
_atom_site_fract_x
_atom_site_fract_y
_atom_site_fract_z
Si Si1 0.744420 0.538695 0.151056
Si Si2 0.000000 0.260926 0.250000
Si Si3 0.654004 0.485310 0.303337
Si Si4 0.184716 0.300946 0.664910
Si Si5 0.000000 0.500000 0.500000
Si Si6 0.096682 0.843614 0.415585
Si Si7 0.537017 0.001754 0.371146
O O1 0.737239 0.655933 0.212200
O O2 0.712163 0.365226 0.153263
O O3 0.898125 0.541335 0.242422
O O4 0.664875 0.587277 0.029570
O O5 0.089726 0.153451 0.264330
O O6 0.910374 0.360001 0.137875
O O7 0.792391 0.530583 0.364066
O O8 0.643838 0.420191 0.374160
O O9 0.557603 0.385709 0.191084
O O10 0.031588 0.328560 0.559457
O O11 0.003463 0.429739 0.422428
O O12 0.113507 0.660741 0.420214
#
# Coordination Sequence:
#
# PCOD9278381 Si02
#       7
#     8   4   8   8   4   8   8
#     4  11  27  46  75 106 146 197 242 308 359 440
#     4  10  20  42  72  98 144 186 238 304 356 430
#     4  10  24  46  71 109 144 192 239 305 359 449
#     4  11  26  48  72 106 151 186 256 292 373 430
#     4  10  28  42  72 102 140 192 236 310 350 428
#     4  10  25  44  74 107 148 187 239 299 377 422
#     4  11  24  46  69 105 146 188 246 296 368 432
#
# _framework density 27.820491000000001
#
# number of rings (size 3 to 8) (size 9 to 14) (size 15 to 20)
#    0.000    1.667    1.667    1.000   14.000    2.667 
#    0.000    6.667    0.000    0.000    0.000    0.000 
#    0.000    0.000    0.000    0.000    0.000    0.000 
#
# Total GULP energy -133925.401816 kJ/mol
# GULP energy per Si atom -5580.225076 kJ/mol
# Density = 2.775717 g / cm^3
# Si number density = 27.820491 Si / 1000 Ang^3
#
#
#
# Elastic Constant Matrix: (Units=GPa)
#
#
# Indices 1 2 3 4 5 6 
#
# 1 62.4887 40.3698 28.5902 0.0000 -31.3220 0.0000
# 2 40.3698 191.5578 95.7287 0.0000 -27.4381 0.0000
# 3 28.5902 95.7287 222.2015 0.0000 -29.7577 0.0000
# 4 0.0000 0.0000 0.0000 50.7531 0.0000 -7.5536
# 5 -31.3220 -27.4381 -29.7577 0.0000 53.4334 0.0000
# 6 0.0000 0.0000 0.0000 -7.5536 0.0000 39.4083
#
#
#
# Elastic Compliance Matrix: (Units=1/GPa)
#
#
# Indices 1 2 3 4 5 6 
#
# 1 0.024507 -0.003345 -0.000020 0.000000 0.012637 0.000000
# 2 -0.003345 0.007306 -0.002677 0.000000 0.000300 0.000000
# 3 -0.000020 -0.002677 0.005912 0.000000 0.001906 0.000000
# 4 0.000000 0.000000 0.000000 0.020282 0.000000 0.003888
# 5 0.012637 0.000300 0.001906 0.000000 0.027338 0.000000
# 6 0.000000 0.000000 0.000000 0.003888 0.000000 0.026121
#
#
# Mechanical properties :
#
#
# Convention : Reuss Voigt Hill
#
# Bulk Modulus (GPa) = 38.99951 89.51394 64.25672
# Shear Modulus (GPa) = 37.85142 49.48958 43.67050
#
# Velocity S-wave (km/s) = 3.69258 4.22226 3.96627
# Velocity P-wave (km/s) = 5.67705 7.48434 6.64245
#
# Compressibility (1/GPa) = 0.02564135
#
# Stress axis : x y z
#
# Youngs Moduli (GPa) = 40.80460 136.87311 169.16080
#
# Poissons Ratio (x) = 0.45779 0.00337
# Poissons Ratio (y) = 0.13648 0.45285
# Poissons Ratio (z) = 0.00081 0.36641
#
# Static dielectric constant tensor:
#      x y z
#    x 2.201420 0.000000 -0.337580 
#    y 0.000000 2.238790 0.000000 
#    z -0.337580 0.000000 1.907780 
# 
# From -- ./inp_files/252045.got.cif
#   From: 2010.05.17/outbox.cif.g08.bks.cpg/sg15_127_cif.got.tgz:252045.got - 2010.06.03 18:47:42.
