data_PCOD9278787
_publ_section_title
;
Structure prediction by ZEFSAII (Michael W. Deem and Ramdas Pophale) SiO2 
 PCOD9278787
Probable space group: C 2/C
;
_chemical_formula_sum "Si O2"
_cell_formula_units_Z 52
_cell_length_a 27.266478
_cell_length_b 10.181655
_cell_length_c 8.672600
_cell_angle_alpha 90.000000
_cell_angle_beta 57.383211
_cell_angle_gamma 90.000000
_cell_volume 2027.966124
_symmetry_space_group_name_H-M "C 2/C"
_symmetry_group_IT_number 15
_symmetry_cell_setting 'monoclinic'
loop_
_space_group_symop_operation_xyz
x,y,z
-x,y,1/2-z
-x,-y,-z
x,-y,1/2+z
1/2+x,1/2+y,z
1/2-x,1/2+y,1/2-z
1/2-x,1/2-y,-z
1/2+x,1/2-y,1/2+z
loop_
_atom_site_type_symbol
_atom_site_label
_atom_site_fract_x
_atom_site_fract_y
_atom_site_fract_z
Si Si1 0.736468 0.527788 0.313658
Si Si2 0.956260 0.961256 0.205716
Si Si3 0.500000 0.970132 0.250000
Si Si4 0.664880 0.150716 0.187789
Si Si5 0.380774 0.626110 0.552411
Si Si6 0.082590 0.599246 0.860919
Si Si7 0.685224 0.771025 0.323637
O O1 0.768462 0.603401 0.399920
O O2 0.673847 0.460761 0.410948
O O3 0.726415 0.649279 0.211977
O O4 0.780879 0.408024 0.223428
O O5 0.905317 0.905047 0.182542
O O6 0.000000 0.882807 0.250000
O O7 0.930026 0.081055 0.349547
O O8 0.000000 0.000000 0.000000
O O9 0.455137 0.057586 0.425760
O O10 0.463874 0.881585 0.193645
O O11 0.643644 0.227642 0.377117
O O12 0.622155 0.026456 0.246227
O O13 0.663249 0.237579 0.036876
O O14 0.128185 0.714267 0.816479
#
# Coordination Sequence:
#
# PCOD9278787 Si02
#       7
#     8   8   4   8   8   8   8
#     4  11  24  41  71 107 141 193 244 303 369 453
#     4   9  21  44  67  98 142 186 243 302 363 432
#     4  10  20  46  70 102 144 186 254 298 368 424
#     4  11  23  44  68 105 149 193 236 303 377 450
#     4  11  22  43  73 102 142 196 242 295 380 446
#     4  10  22  43  72 105 142 191 246 305 363 442
#     4  11  23  45  71 106 150 193 240 306 376 446
#
# _framework density 25.641452999999998
#
# number of rings (size 3 to 8) (size 9 to 14) (size 15 to 20)
#    0.000    1.538    3.077    1.385    2.154    0.000 
#    8.308    8.462    0.000    0.000    0.000    0.000 
#    0.000    0.000    0.000    0.000    0.000    0.000 
#
# Total GULP energy -145133.093383 kJ/mol
# GULP energy per Si atom -5582.042053 kJ/mol
# Density = 2.558309 g / cm^3
# Si number density = 25.641453 Si / 1000 Ang^3
#
#
#
# Elastic Constant Matrix: (Units=GPa)
#
#
# Indices 1 2 3 4 5 6 
#
# 1 204.1005 28.7617 43.0150 0.0000 4.8949 0.0000
# 2 28.7617 85.3523 19.5016 0.0000 -5.9816 0.0000
# 3 43.0150 19.5016 86.2126 0.0000 5.0837 0.0000
# 4 0.0000 0.0000 0.0000 14.0938 0.0000 9.5694
# 5 4.8949 -5.9816 5.0837 0.0000 23.1255 0.0000
# 6 0.0000 0.0000 0.0000 9.5694 0.0000 -26.0510
#
#
#
# Elastic Compliance Matrix: (Units=1/GPa)
#
#
# Indices 1 2 3 4 5 6 
#
# 1 0.005636 -0.001415 -0.002431 0.000000 -0.001025 0.000000
# 2 -0.001415 0.013060 -0.002497 0.000000 0.004227 0.000000
# 3 -0.002431 -0.002497 0.013561 0.000000 -0.003112 0.000000
# 4 0.000000 0.000000 0.000000 0.056789 0.000000 0.020861
# 5 -0.001025 0.004227 -0.003112 0.000000 0.045237 0.000000
# 6 0.000000 0.000000 0.000000 0.020861 0.000000 -0.030723
#
#
# Mechanical properties :
#
#
# Convention : Reuss Voigt Hill
#
# Bulk Modulus (GPa) = 51.10253 62.02466 56.56359
# Shear Modulus (GPa) = 40.72655 21.19281 30.95968
#
# Velocity S-wave (km/s) = 3.98968 2.87802 3.47855
# Velocity P-wave (km/s) = 6.41844 5.94018 6.18393
#
# Compressibility (1/GPa) = 0.01956850
#
# Stress axis : x y z
#
# Youngs Moduli (GPa) = 177.43018 76.57022 73.74205
#
# Poissons Ratio (x) = 0.10838 0.17930
# Poissons Ratio (y) = 0.25115 0.18415
# Poissons Ratio (z) = 0.43141 0.19121
#
# Static dielectric constant tensor:
#      x y z
#    x 1.988470 0.000000 0.008180 
#    y 0.000000 2.158360 0.000000 
#    z 0.008180 0.000000 2.022880 
# 
# From -- ./inp_files/65382.got.cif
#   From: 2010.05.17/outbox.cif.g08.bks.cpg/sg15_33_cif.got.tgz:65382.got - 2010.06.03 18:47:42.
