data_PCOD9278986
_publ_section_title
;
Structure prediction by ZEFSAII (Michael W. Deem and Ramdas Pophale) SiO2 
 PCOD9278986
Probable space group: C 2/C
;
_chemical_formula_sum "Si O2"
_cell_formula_units_Z 64
_cell_length_a 32.590678
_cell_length_b 17.298676
_cell_length_c 15.648131
_cell_angle_alpha 90.000000
_cell_angle_beta 160.096779
_cell_angle_gamma 90.000000
_cell_volume 3003.306336
_symmetry_space_group_name_H-M "C 2/C"
_symmetry_group_IT_number 15
_symmetry_cell_setting 'monoclinic'
loop_
_space_group_symop_operation_xyz
x,y,z
-x,y,1/2-z
-x,-y,-z
x,-y,1/2+z
1/2+x,1/2+y,z
1/2-x,1/2+y,1/2-z
1/2-x,1/2-y,-z
1/2+x,1/2-y,1/2+z
loop_
_atom_site_type_symbol
_atom_site_label
_atom_site_fract_x
_atom_site_fract_y
_atom_site_fract_z
Si Si1 0.708841 0.861833 0.957761
Si Si2 0.827782 0.434960 0.336061
Si Si3 0.509126 0.795332 0.670129
Si Si4 0.477746 0.332786 0.438627
Si Si5 0.450652 0.549665 0.561081
Si Si6 0.452673 0.939615 0.978027
Si Si7 0.186902 0.485194 0.516161
Si Si8 0.943503 0.121524 0.224917
O O1 0.645463 0.817901 0.911726
O O2 0.608848 0.866567 0.686724
O O3 0.835156 0.826976 0.178128
O O4 0.722263 0.951958 0.012517
O O5 0.850742 0.513260 0.328788
O O6 0.848577 0.461462 0.473451
O O7 0.925153 0.371079 0.499426
O O8 0.694542 0.401784 0.062554
O O9 0.500000 0.768115 0.750000
O O10 0.473800 0.732813 0.530202
O O11 0.494072 0.409650 0.413327
O O12 0.541661 0.335927 0.655750
O O13 0.500000 0.576931 0.750000
O O14 0.307228 0.559847 0.275972
O O15 0.481817 0.458608 0.618768
O O16 0.500000 0.000000 0.000000
O O17 0.573673 0.931577 0.270722
O O18 0.000000 0.159786 0.250000
#
# Coordination Sequence:
#
# PCOD9278986 Si02
#       8
#     8   8   8   8   8   8   8   8
#     4  11  22  41  64  96 124 168 220 270 321 387
#     4  12  20  40  66  90 131 166 219 266 323 395
#     4  12  25  43  66  90 128 180 222 263 321 396
#     4  12  26  41  64  97 134 170 217 271 326 388
#     4  11  22  40  64 100 133 167 209 265 337 384
#     4  10  21  33  61 100 121 155 211 277 315 365
#     4  11  20  37  67  97 127 161 212 269 329 382
#     4  11  23  40  67  95 122 168 213 271 334 390
#
# _framework density 21.309847999999999
#
# number of rings (size 3 to 8) (size 9 to 14) (size 15 to 20)
#    0.000    0.750    7.500    2.250    3.500    0.500 
#    0.000    0.000    0.000    1.500    0.000    0.000 
#    0.000    0.000    0.000    0.000    0.000    0.000 
#
# Total GULP energy -178745.607498 kJ/mol
# GULP energy per Si atom -5585.800234 kJ/mol
# Density = 2.126135 g / cm^3
# Si number density = 21.309848 Si / 1000 Ang^3
#
#
#
# Elastic Constant Matrix: (Units=GPa)
#
#
# Indices 1 2 3 4 5 6 
#
# 1 145.2971 31.8444 46.9876 0.0000 -8.1458 0.0000
# 2 31.8444 28.9099 4.2878 0.0000 -4.4101 0.0000
# 3 46.9876 4.2878 144.2030 0.0000 0.1724 0.0000
# 4 0.0000 0.0000 0.0000 16.3560 0.0000 -0.1884
# 5 -8.1458 -4.4101 0.1724 0.0000 40.3260 0.0000
# 6 0.0000 0.0000 0.0000 -0.1884 0.0000 33.6401
#
#
#
# Elastic Compliance Matrix: (Units=1/GPa)
#
#
# Indices 1 2 3 4 5 6 
#
# 1 0.010260 -0.010714 -0.003026 0.000000 0.000914 0.000000
# 2 -0.010714 0.046524 0.002104 0.000000 0.002915 0.000000
# 3 -0.003026 0.002104 0.007859 0.000000 -0.000415 0.000000
# 4 0.000000 0.000000 0.000000 0.061144 0.000000 0.000342
# 5 0.000914 0.002915 -0.000415 0.000000 0.025303 0.000000
# 6 0.000000 0.000000 0.000000 0.000342 0.000000 0.029728
#
#
# Mechanical properties :
#
#
# Convention : Reuss Voigt Hill
#
# Bulk Modulus (GPa) = 24.17087 53.84995 39.01041
# Shear Modulus (GPa) = 22.94857 33.75044 28.34950
#
# Velocity S-wave (km/s) = 3.28518 3.98401 3.65135
# Velocity P-wave (km/s) = 5.07514 6.81821 6.01020
#
# Compressibility (1/GPa) = 0.04137212
#
# Stress axis : x y z
#
# Youngs Moduli (GPa) = 97.46358 21.49440 127.25029
#
# Poissons Ratio (x) = 0.23028 0.38503
# Poissons Ratio (y) = 1.04418 -0.26775
# Poissons Ratio (z) = 0.29490 -0.04523
#
# Static dielectric constant tensor:
#      x y z
#    x 1.844310 0.000000 -0.035080 
#    y 0.000000 1.806960 0.000000 
#    z -0.035080 0.000000 1.793320 
# 
# From -- ./inp_files/183167.got.cif
#   From: 2010.05.17/outbox.cif.g08.bks.cpg/sg15_92_cif.got.tgz:183167.got - 2010.06.03 18:47:42.
