data_PCOD9278099
_publ_section_title
;
Structure prediction by ZEFSAII (Michael W. Deem and Ramdas Pophale) SiO2 
 PCOD9278099
Probable space group: C 2/C
;
_chemical_formula_sum "Si O2"
_cell_formula_units_Z 60
_cell_length_a 9.031701
_cell_length_b 21.853661
_cell_length_c 17.511298
_cell_angle_alpha 90.000000
_cell_angle_beta 61.137320
_cell_angle_gamma 90.000000
_cell_volume 3026.960015
_symmetry_space_group_name_H-M "C 2/C"
_symmetry_group_IT_number 15
_symmetry_cell_setting 'monoclinic'
loop_
_space_group_symop_operation_xyz
x,y,z
-x,y,1/2-z
-x,-y,-z
x,-y,1/2+z
1/2+x,1/2+y,z
1/2-x,1/2+y,1/2-z
1/2-x,1/2-y,-z
1/2+x,1/2-y,1/2+z
loop_
_atom_site_type_symbol
_atom_site_label
_atom_site_fract_x
_atom_site_fract_y
_atom_site_fract_z
Si Si1 0.262159 0.164864 0.366925
Si Si2 0.165137 0.649945 0.978321
Si Si3 0.055810 0.840466 0.367365
Si Si4 0.500000 0.731328 0.750000
Si Si5 0.073789 0.236081 0.002740
Si Si6 0.163253 0.519008 0.912366
Si Si7 0.324528 0.950058 0.753291
Si Si8 0.983031 0.982136 0.092110
O O1 0.323500 0.133402 0.432586
O O2 0.382729 0.222625 0.326026
O O3 0.293515 0.121136 0.285613
O O4 0.069620 0.190856 0.423368
O O5 0.355044 0.673453 0.919238
O O6 0.149130 0.593149 0.923579
O O7 0.027541 0.702117 0.995663
O O8 0.113330 0.814209 0.272545
O O9 0.133918 0.800333 0.413398
O O10 0.066661 0.911636 0.381604
O O11 0.250000 0.250000 0.000000
O O12 0.167201 0.479812 0.833199
O O13 0.339032 0.505651 0.911375
O O14 0.000000 0.500000 0.000000
O O15 0.500000 0.967004 0.750000
O O16 0.164563 0.980008 0.833322
O O17 0.000000 0.000000 0.000000
#
# Coordination Sequence:
#
# PCOD9278099 Si02
#       8
#     8   8   8   4   8   8   8   8
#     4  11  22  42  69  96 129 183 238 278 336 432
#     4  10  20  42  66  89 124 179 233 263 325 429
#     4  10  22  39  67  92 121 176 224 267 333 421
#     4  12  20  38  74  92 122 168 244 276 310 408
#     4  11  22  40  65 101 132 167 219 293 360 400
#     4  11  25  41  66  95 133 182 231 281 343 415
#     4  12  25  42  66 100 137 182 234 289 354 419
#     4  11  24  44  67  96 136 177 229 287 353 421
#
# _framework density 19.821867000000001
#
# number of rings (size 3 to 8) (size 9 to 14) (size 15 to 20)
#    0.000    1.067    3.333    5.200    3.733    3.200 
#    0.000    3.333    0.000    0.000    0.000    0.000 
#    0.000    0.000    0.000    0.000    0.000    0.000 
#
# Total GULP energy -167142.242289 kJ/mol
# GULP energy per Si atom -5571.408076 kJ/mol
# Density = 1.977675 g / cm^3
# Si number density = 19.821867 Si / 1000 Ang^3
#
#
#
# Elastic Constant Matrix: (Units=GPa)
#
#
# Indices 1 2 3 4 5 6 
#
# 1 86.4409 49.3538 -2.9672 0.0000 4.9150 0.0000
# 2 49.3538 120.7942 43.1903 0.0000 22.1982 0.0000
# 3 -2.9672 43.1903 84.6521 0.0000 16.0006 0.0000
# 4 0.0000 0.0000 0.0000 40.0327 0.0000 10.0722
# 5 4.9150 22.1982 16.0006 0.0000 36.7137 0.0000
# 6 0.0000 0.0000 0.0000 10.0722 0.0000 17.4870
#
#
#
# Elastic Compliance Matrix: (Units=1/GPa)
#
#
# Indices 1 2 3 4 5 6 
#
# 1 0.016656 -0.008710 0.004854 0.000000 0.000921 0.000000
# 2 -0.008710 0.015318 -0.007182 0.000000 -0.004965 0.000000
# 3 0.004854 -0.007182 0.016292 0.000000 -0.003408 0.000000
# 4 0.000000 0.000000 0.000000 0.029213 0.000000 -0.016826
# 5 0.000921 -0.004965 -0.003408 0.000000 0.031602 0.000000
# 6 0.000000 0.000000 0.000000 -0.016826 0.000000 0.066877
#
#
# Mechanical properties :
#
#
# Convention : Reuss Voigt Hill
#
# Bulk Modulus (GPa) = 38.18481 52.33788 45.26135
# Shear Modulus (GPa) = 24.18231 32.33404 28.25818
#
# Velocity S-wave (km/s) = 3.49661 4.04323 3.77982
# Velocity P-wave (km/s) = 5.96721 6.94683 6.47557
#
# Compressibility (1/GPa) = 0.02618842
#
# Stress axis : x y z
#
# Youngs Moduli (GPa) = 60.03934 65.28441 61.38156
#
# Poissons Ratio (x) = 0.56862 -0.29792
# Poissons Ratio (y) = 0.52293 0.44084
# Poissons Ratio (z) = -0.29140 0.46887
#
# Static dielectric constant tensor:
#      x y z
#    x 1.628980 0.000000 -0.033090 
#    y 0.000000 1.348860 0.000000 
#    z -0.033090 0.000000 1.751310 
# 
# From -- ./inp_files/192534.got.cif
#   From: 2010.05.17/outbox.cif.g08.bks.cpg/sg15_97_cif.got.tgz:192534.got - 2010.06.03 18:47:42.
