data_PCOD9278414
_publ_section_title
;
Structure prediction by ZEFSAII (Michael W. Deem and Ramdas Pophale) SiO2 
 PCOD9278414
Probable space group: C 2/C
;
_chemical_formula_sum "Si O2"
_cell_formula_units_Z 48
_cell_length_a 13.312902
_cell_length_b 27.487940
_cell_length_c 9.426810
_cell_angle_alpha 90.000000
_cell_angle_beta 134.799011
_cell_angle_gamma 90.000000
_cell_volume 2447.838853
_symmetry_space_group_name_H-M "C 2/C"
_symmetry_group_IT_number 15
_symmetry_cell_setting 'monoclinic'
loop_
_space_group_symop_operation_xyz
x,y,z
-x,y,1/2-z
-x,-y,-z
x,-y,1/2+z
1/2+x,1/2+y,z
1/2-x,1/2+y,1/2-z
1/2-x,1/2-y,-z
1/2+x,1/2-y,1/2+z
loop_
_atom_site_type_symbol
_atom_site_label
_atom_site_fract_x
_atom_site_fract_y
_atom_site_fract_z
Si Si1 0.415166 0.535949 0.313154
Si Si2 0.453473 0.352193 0.866386
Si Si3 0.421945 0.960578 0.020748
Si Si4 0.990133 0.369914 0.579076
Si Si5 0.262495 0.797730 0.684863
Si Si6 0.705597 0.316191 0.310761
O O1 0.500000 0.532947 0.250000
O O2 0.500000 0.500000 0.500000
O O3 0.428777 0.591530 0.378296
O O4 0.245753 0.527158 0.131810
O O5 0.500000 0.348851 0.750000
O O6 0.313435 0.321581 0.757420
O O7 0.570496 0.330527 0.086837
O O8 0.500000 0.959645 0.250000
O O9 0.446994 0.908794 0.967374
O O10 0.500000 0.000000 0.000000
O O11 0.829780 0.353661 0.393238
O O12 0.000000 0.389981 0.750000
O O13 0.080908 0.320126 0.667918
O O14 0.256688 0.739868 0.684137
O O15 0.190240 0.816220 0.466313
#
# Coordination Sequence:
#
# PCOD9278414 Si02
#       6
#     8   8   8   8   8   8
#     4  11  26  46  68  96 133 171 216 269 329 397
#     4  11  24  40  62  95 133 168 215 260 330 389
#     4  12  26  45  71  97 132 170 217 272 330 397
#     4  10  22  39  64  96 129 167 219 266 325 380
#     4  10  20  43  61  95 127 170 224 267 322 374
#     4  10  22  37  69  91 128 174 217 273 314 384
#
# _framework density 19.609131999999999
#
# number of rings (size 3 to 8) (size 9 to 14) (size 15 to 20)
#    0.000    1.333    1.667    3.000    7.000    4.667 
#    0.000    1.667    0.000    0.000    0.000    0.000 
#    0.000    0.000    0.000    0.000    0.000    0.000 
#
# Total GULP energy -134066.397229 kJ/mol
# GULP energy per Si atom -5586.099885 kJ/mol
# Density = 1.956450 g / cm^3
# Si number density = 19.609132 Si / 1000 Ang^3
#
#
#
# Elastic Constant Matrix: (Units=GPa)
#
#
# Indices 1 2 3 4 5 6 
#
# 1 114.9921 43.5100 41.8618 0.0000 14.5685 0.0000
# 2 43.5100 76.6893 28.1473 0.0000 -8.9151 0.0000
# 3 41.8618 28.1473 89.9330 0.0000 12.8118 0.0000
# 4 0.0000 0.0000 0.0000 21.8281 0.0000 4.4431
# 5 14.5685 -8.9151 12.8118 0.0000 26.8036 0.0000
# 6 0.0000 0.0000 0.0000 4.4431 0.0000 26.1369
#
#
#
# Elastic Compliance Matrix: (Units=1/GPa)
#
#
# Indices 1 2 3 4 5 6 
#
# 1 0.013759 -0.007838 -0.002698 0.000000 -0.008796 0.000000
# 2 -0.007838 0.020807 -0.004782 0.000000 0.013467 0.000000
# 3 -0.002698 -0.004782 0.014905 0.000000 -0.007248 0.000000
# 4 0.000000 0.000000 0.000000 0.047455 0.000000 -0.008067
# 5 -0.008796 0.013467 -0.007248 0.000000 0.050033 0.000000
# 6 0.000000 0.000000 0.000000 -0.008067 0.000000 0.039631
#
#
# Mechanical properties :
#
#
# Convention : Reuss Voigt Hill
#
# Bulk Modulus (GPa) = 53.09692 56.51695 54.80693
# Shear Modulus (GPa) = 22.37093 26.16007 24.26550
#
# Velocity S-wave (km/s) = 3.38130 3.65646 3.52157
# Velocity P-wave (km/s) = 6.51004 6.83452 6.67425
#
# Compressibility (1/GPa) = 0.01883349
#
# Stress axis : x y z
#
# Youngs Moduli (GPa) = 72.68217 48.05982 67.09312
#
# Poissons Ratio (x) = 0.37670 0.18102
# Poissons Ratio (y) = 0.56969 0.32086
# Poissons Ratio (z) = 0.19610 0.22984
#
# Static dielectric constant tensor:
#      x y z
#    x 1.646440 0.000000 -0.031110 
#    y 0.000000 1.666100 0.000000 
#    z -0.031110 0.000000 1.640450 
# 
# From -- ./inp_files/43950.got.cif
#   From: 2010.05.17/outbox.cif.g08.bks.cpg/sg15_22_cif.got.tgz:43950.got - 2010.06.03 18:47:42.
