data_PCOD9278715
_publ_section_title
;
Structure prediction by ZEFSAII (Michael W. Deem and Ramdas Pophale) SiO2 
 PCOD9278715
Probable space group: C 2/C
;
_chemical_formula_sum "Si O2"
_cell_formula_units_Z 44
_cell_length_a 21.640864
_cell_length_b 5.225205
_cell_length_c 17.877396
_cell_angle_alpha 90.000000
_cell_angle_beta 56.466509
_cell_angle_gamma 90.000000
_cell_volume 1685.080483
_symmetry_space_group_name_H-M "C 2/C"
_symmetry_group_IT_number 15
_symmetry_cell_setting 'monoclinic'
loop_
_space_group_symop_operation_xyz
x,y,z
-x,y,1/2-z
-x,-y,-z
x,-y,1/2+z
1/2+x,1/2+y,z
1/2-x,1/2+y,1/2-z
1/2-x,1/2-y,-z
1/2+x,1/2-y,1/2+z
loop_
_atom_site_type_symbol
_atom_site_label
_atom_site_fract_x
_atom_site_fract_y
_atom_site_fract_z
Si Si1 0.567467 0.659205 0.829513
Si Si2 0.695370 0.695157 0.180568
Si Si3 0.669034 0.044474 0.844494
Si Si4 0.500000 0.974362 0.250000
Si Si5 0.865925 0.640869 0.929181
Si Si6 0.099613 0.877769 0.008615
O O1 0.619480 0.445953 0.756659
O O2 0.488281 0.593087 0.919093
O O3 0.613934 0.815689 0.860321
O O4 0.548094 0.851301 0.773690
O O5 0.707031 0.895214 0.239620
O O6 0.764068 0.505745 0.143278
O O7 0.688766 0.814285 0.103312
O O8 0.620493 0.270613 0.913252
O O9 0.553929 0.811353 0.162848
O O10 0.872725 0.353249 0.955199
O O11 0.860978 0.859994 0.994602
#
# Coordination Sequence:
#
# PCOD9278715 Si02
#       6
#     8   8   8   4   8   8
#     4  11  23  45  71 103 139 185 239 301 349 423
#     4  12  25  45  75  99 148 193 242 284 357 434
#     4  12  27  45  69 106 143 190 232 298 358 428
#     4  10  20  44  74 104 136 182 246 294 356 418
#     4  11  24  46  71 106 141 189 236 294 351 428
#     4  11  28  45  74 107 143 182 240 301 361 407
#
# _framework density 26.111512000000001
#
# number of rings (size 3 to 8) (size 9 to 14) (size 15 to 20)
#    0.000    0.727    3.636    3.818    5.091    2.909 
#    0.000    0.000    0.000    0.000    0.000    0.000 
#    0.000    0.000    0.000    0.000    0.000    0.000 
#
# Total GULP energy -123376.220426 kJ/mol
# GULP energy per Si atom -5608.010019 kJ/mol
# Density = 2.605208 g / cm^3
# Si number density = 26.111512 Si / 1000 Ang^3
#
#
#
# Elastic Constant Matrix: (Units=GPa)
#
#
# Indices 1 2 3 4 5 6 
#
# 1 126.3674 31.8859 36.1742 0.0707 -0.1045 0.0237
# 2 31.8859 84.4082 17.5952 0.2491 5.3104 0.1926
# 3 36.1742 17.5952 116.4986 0.1050 4.6989 0.0985
# 4 0.0707 0.2491 0.1050 51.4371 0.0385 10.4283
# 5 -0.1045 5.3104 4.6989 0.0385 49.9968 0.0106
# 6 0.0237 0.1926 0.0985 10.4283 0.0106 41.5382
#
#
#
# Elastic Compliance Matrix: (Units=1/GPa)
#
#
# Indices 1 2 3 4 5 6 
#
# 1 0.009398 -0.003070 -0.002478 0.000004 0.000579 0.000014
# 2 -0.003070 0.013299 -0.001002 -0.000048 -0.001325 -0.000045
# 3 -0.002478 -0.001002 0.009537 -0.000008 -0.000795 -0.000014
# 4 0.000004 -0.000048 -0.000008 0.020484 -0.000009 -0.005142
# 5 0.000579 -0.001325 -0.000795 -0.000009 0.020218 0.000005
# 6 0.000014 -0.000045 -0.000014 -0.005142 0.000005 0.025365
#
#
# Mechanical properties :
#
#
# Convention : Reuss Voigt Hill
#
# Bulk Modulus (GPa) = 52.26195 55.39830 53.83013
# Shear Modulus (GPa) = 42.45245 44.70234 43.57740
#
# Velocity S-wave (km/s) = 4.03651 4.14209 4.08964
# Velocity P-wave (km/s) = 6.46397 6.64365 6.55442
#
# Compressibility (1/GPa) = 0.01913438
#
# Stress axis : x y z
#
# Youngs Moduli (GPa) = 106.40704 75.19154 104.85928
#
# Poissons Ratio (x) = 0.23084 0.25982
# Poissons Ratio (y) = 0.32668 0.10505
# Poissons Ratio (z) = 0.26366 0.07533
#
# Static dielectric constant tensor:
#      x y z
#    x 2.052570 -0.000040 -0.004160 
#    y -0.000040 2.046910 -0.000080 
#    z -0.004160 -0.000080 2.067900 
# 
# From -- ./inp_files/212825.got.cif
#   From: 2010.05.17/outbox.cif.g08.bks.cpg/sg15_107_cif.got.tgz:212825.got - 2010.06.03 18:47:42.
