data_PCOD9278971
_publ_section_title
;
Structure prediction by ZEFSAII (Michael W. Deem and Ramdas Pophale) SiO2 
 PCOD9278971
Probable space group: C 2/C
;
_chemical_formula_sum "Si O2"
_cell_formula_units_Z 56
_cell_length_a 30.284146
_cell_length_b 11.886577
_cell_length_c 13.474945
_cell_angle_alpha 90.000000
_cell_angle_beta 138.876131
_cell_angle_gamma 90.000000
_cell_volume 3190.213852
_symmetry_space_group_name_H-M "C 2/C"
_symmetry_group_IT_number 15
_symmetry_cell_setting 'monoclinic'
loop_
_space_group_symop_operation_xyz
x,y,z
-x,y,1/2-z
-x,-y,-z
x,-y,1/2+z
1/2+x,1/2+y,z
1/2-x,1/2+y,1/2-z
1/2-x,1/2-y,-z
1/2+x,1/2-y,1/2+z
loop_
_atom_site_type_symbol
_atom_site_label
_atom_site_fract_x
_atom_site_fract_y
_atom_site_fract_z
Si Si1 0.355672 0.277767 0.906553
Si Si2 0.142184 0.753731 0.362261
Si Si3 0.822543 0.042414 0.857365
Si Si4 0.253633 0.577785 0.533361
Si Si5 0.999204 0.172636 0.563011
Si Si6 0.980020 0.076000 0.105600
Si Si7 0.244738 0.347849 0.407358
O O1 0.325846 0.405455 0.865118
O O2 0.312382 0.199938 0.761649
O O3 0.358588 0.233238 0.022436
O O4 0.431015 0.281914 0.992945
O O5 0.192736 0.661483 0.404419
O O6 0.178809 0.872186 0.401791
O O7 0.066539 0.757900 0.195904
O O8 0.772705 0.072958 0.682254
O O9 0.800968 0.107862 0.921728
O O10 0.899222 0.075104 0.960584
O O11 0.234440 0.458518 0.455953
O O12 0.991068 0.152919 0.432179
O O13 0.007244 0.049587 0.628021
O O14 0.000000 0.107933 0.250000
O O15 0.250000 0.250000 0.500000
#
# Coordination Sequence:
#
# PCOD9278971 Si02
#       7
#     8   8   8   8   8   8   8
#     4  11  22  37  63  89 121 159 202 253 307 367
#     4  11  21  40  62  87 121 163 201 252 304 378
#     4  11  21  39  58  90 126 159 201 247 316 363
#     4  11  23  38  61  88 123 163 209 248 304 366
#     4  10  21  36  58  88 118 157 205 247 311 365
#     4  10  21  33  58  87 123 157 192 260 313 362
#     4  12  25  38  62  94 127 162 208 260 303 364
#
# _framework density 17.553682999999999
#
# number of rings (size 3 to 8) (size 9 to 14) (size 15 to 20)
#    0.000    1.143    5.714    2.143    2.000    0.000 
#    0.000    0.714    0.000    0.000    0.000    0.000 
#    0.000    0.000    0.000    0.000    0.000    0.000 
#
# Total GULP energy -156053.948141 kJ/mol
# GULP energy per Si atom -5573.355291 kJ/mol
# Density = 1.751373 g / cm^3
# Si number density = 17.553683 Si / 1000 Ang^3
#
#
#
# Elastic Constant Matrix: (Units=GPa)
#
#
# Indices 1 2 3 4 5 6 
#
# 1 90.2451 27.2261 33.9476 0.0000 -3.3783 0.0000
# 2 27.2261 73.1579 22.1473 0.0000 5.9780 0.0000
# 3 33.9476 22.1473 71.9272 0.0000 -12.9838 0.0000
# 4 0.0000 0.0000 0.0000 15.4663 0.0000 -4.8710
# 5 -3.3783 5.9780 -12.9838 0.0000 37.9097 0.0000
# 6 0.0000 0.0000 0.0000 -4.8710 0.0000 17.4301
#
#
#
# Elastic Compliance Matrix: (Units=1/GPa)
#
#
# Indices 1 2 3 4 5 6 
#
# 1 0.014290 -0.003599 -0.005653 0.000000 -0.000095 0.000000
# 2 -0.003599 0.016644 -0.004219 0.000000 -0.004390 0.000000
# 3 -0.005653 -0.004219 0.019079 0.000000 0.006696 0.000000
# 4 0.000000 0.000000 0.000000 0.070897 0.000000 0.019813
# 5 -0.000095 -0.004390 0.006696 0.000000 0.029356 0.000000
# 6 0.000000 0.000000 0.000000 0.019813 0.000000 0.062909
#
#
# Mechanical properties :
#
#
# Convention : Reuss Voigt Hill
#
# Bulk Modulus (GPa) = 43.34510 44.66357 44.00434
# Shear Modulus (GPa) = 20.17702 24.29516 22.23609
#
# Velocity S-wave (km/s) = 3.39403 3.72432 3.56300
# Velocity P-wave (km/s) = 6.33291 6.63274 6.48456
#
# Compressibility (1/GPa) = 0.02307066
#
# Stress axis : x y z
#
# Youngs Moduli (GPa) = 69.98029 60.08044 52.41358
#
# Poissons Ratio (x) = 0.21621 0.29632
# Poissons Ratio (y) = 0.25184 0.22113
# Poissons Ratio (z) = 0.39563 0.25348
#
# Static dielectric constant tensor:
#      x y z
#    x 1.613270 0.000000 -0.016890 
#    y 0.000000 1.614400 0.000000 
#    z -0.016890 0.000000 1.596460 
# 
# From -- ./inp_files/122705.got.cif
#   From: 2010.05.17/outbox.cif.g08.bks.cpg/sg15_62_cif.got.tgz:122705.got - 2010.06.03 18:47:42.
