data_PCOD9278721
_publ_section_title
;
Structure prediction by ZEFSAII (Michael W. Deem and Ramdas Pophale) SiO2 
 PCOD9278721
Probable space group: C 2/C
;
_chemical_formula_sum "Si O2"
_cell_formula_units_Z 48
_cell_length_a 28.774900
_cell_length_b 12.244190
_cell_length_c 16.892572
_cell_angle_alpha 90.000000
_cell_angle_beta 16.811954
_cell_angle_gamma 90.000000
_cell_volume 1721.413822
_symmetry_space_group_name_H-M "C 2/C"
_symmetry_group_IT_number 15
_symmetry_cell_setting 'monoclinic'
loop_
_space_group_symop_operation_xyz
x,y,z
-x,y,1/2-z
-x,-y,-z
x,-y,1/2+z
1/2+x,1/2+y,z
1/2-x,1/2+y,1/2-z
1/2-x,1/2-y,-z
1/2+x,1/2-y,1/2+z
loop_
_atom_site_type_symbol
_atom_site_label
_atom_site_fract_x
_atom_site_fract_y
_atom_site_fract_z
Si Si1 0.500000 0.570286 0.250000
Si Si2 0.500000 0.000000 0.500000
Si Si3 0.749897 0.341244 0.459039
Si Si4 0.208618 0.564617 0.304359
Si Si5 0.343352 0.597678 0.829262
Si Si6 0.315106 0.264317 0.526557
Si Si7 0.846571 0.905153 0.737783
O O1 0.404734 0.642860 0.343359
O O2 0.373210 0.495264 0.504570
O O3 0.569655 0.009033 0.480476
O O4 0.407817 0.113938 0.661953
O O5 0.713205 0.468234 0.574403
O O6 0.711609 0.296618 0.614496
O O7 0.212498 0.559501 0.392357
O O8 0.217192 0.690963 0.261397
O O9 0.281151 0.639297 0.016560
O O10 0.520363 0.651840 0.538621
O O11 0.249785 0.657415 0.910914
O O12 0.500000 0.254770 0.250000
O O13 0.000000 0.000000 0.500000
#
# Coordination Sequence:
#
# PCOD9278721 Si02
#       7
#     4   4   8   8   8   8   8
#     4  10  20  44  74  98 140 196 244 296 388 458
#     4  10  26  46  66 102 142 190 242 308 370 446
#     4  11  26  46  71 104 140 194 256 309 381 467
#     4  11  21  43  72  97 141 188 234 302 378 447
#     4  10  22  40  69  99 135 178 242 293 351 448
#     4  11  21  41  69 105 138 185 239 300 366 441
#     4  11  22  44  67  97 136 182 235 295 371 445
#
# _framework density 27.884058
#
# number of rings (size 3 to 8) (size 9 to 14) (size 15 to 20)
#    0.000    1.333    2.500    4.000    2.333    2.000 
#   15.000    0.000    0.000    0.000    0.000    0.000 
#    0.000    0.000    0.000    0.000    0.000    0.000 
#
# Total GULP energy -133708.292413 kJ/mol
# GULP energy per Si atom -5571.178851 kJ/mol
# Density = 2.782059 g / cm^3
# Si number density = 27.884058 Si / 1000 Ang^3
#
#
#
# Elastic Constant Matrix: (Units=GPa)
#
#
# Indices 1 2 3 4 5 6 
#
# 1 257.7563 100.5313 51.5117 0.0000 -48.1631 -0.0001
# 2 100.5313 235.7353 46.6512 0.0003 -17.1767 -0.0003
# 3 51.5117 46.6512 95.5611 0.0002 -26.4618 -0.0001
# 4 0.0000 0.0003 0.0002 11.5909 -0.0001 1.3848
# 5 -48.1631 -17.1767 -26.4618 -0.0001 56.3238 0.0001
# 6 -0.0001 -0.0003 -0.0001 1.3848 0.0001 68.8882
#
#
#
# Elastic Compliance Matrix: (Units=1/GPa)
#
#
# Indices 1 2 3 4 5 6 
#
# 1 0.005499 -0.001874 -0.001041 0.000000 0.003642 0.000000
# 2 -0.001874 0.005342 -0.001828 0.000000 -0.000832 0.000000
# 3 -0.001041 -0.001828 0.013240 0.000000 0.004772 0.000000
# 4 0.000000 0.000000 0.000000 0.086482 0.000000 -0.001738
# 5 0.003642 -0.000832 0.004772 0.000000 0.022857 0.000000
# 6 0.000000 0.000000 0.000000 -0.001738 0.000000 0.014551
#
#
# Mechanical properties :
#
#
# Convention : Reuss Voigt Hill
#
# Bulk Modulus (GPa) = 68.51771 109.60456 89.06114
# Shear Modulus (GPa) = 30.80288 53.38448 42.09368
#
# Velocity S-wave (km/s) = 3.32727 4.38027 3.88957
# Velocity P-wave (km/s) = 6.27588 8.06070 7.22363
#
# Compressibility (1/GPa) = 0.01459477
#
# Stress axis : x y z
#
# Youngs Moduli (GPa) = 181.85322 187.18489 75.52970
#
# Poissons Ratio (x) = 0.35073 0.07863
# Poissons Ratio (y) = 0.34074 0.13810
# Poissons Ratio (z) = 0.18932 0.34225
#
# Static dielectric constant tensor:
#      x y z
#    x 1.922050 0.000000 -0.467680 
#    y 0.000000 2.132790 0.000000 
#    z -0.467680 0.000000 2.305520 
# 
# From -- ./inp_files/222902.got.cif
#   From: 2010.05.17/outbox.cif.g08.bks.cpg/sg15_112_cif.got.tgz:222902.got - 2010.06.03 18:47:42.
