data_PCOD9278527
_publ_section_title
;
Structure prediction by ZEFSAII (Michael W. Deem and Ramdas Pophale) SiO2 
 PCOD9278527
Probable space group: C 2/C
;
_chemical_formula_sum "Si O2"
_cell_formula_units_Z 40
_cell_length_a 7.607238
_cell_length_b 7.688390
_cell_length_c 26.761559
_cell_angle_alpha 90.000000
_cell_angle_beta 111.324635
_cell_angle_gamma 90.000000
_cell_volume 1458.051875
_symmetry_space_group_name_H-M "C 2/C"
_symmetry_group_IT_number 15
_symmetry_cell_setting 'monoclinic'
loop_
_space_group_symop_operation_xyz
x,y,z
-x,y,1/2-z
-x,-y,-z
x,-y,1/2+z
1/2+x,1/2+y,z
1/2-x,1/2+y,1/2-z
1/2-x,1/2-y,-z
1/2+x,1/2-y,1/2+z
loop_
_atom_site_type_symbol
_atom_site_label
_atom_site_fract_x
_atom_site_fract_y
_atom_site_fract_z
Si Si1 0.696438 0.057149 0.640857
Si Si2 0.900992 0.950856 0.335625
Si Si3 0.397666 0.619687 0.432910
Si Si4 0.615627 0.054561 0.963152
Si Si5 0.801905 0.756123 0.758765
O O1 0.720526 0.230620 0.608409
O O2 0.509050 0.984178 0.596889
O O3 0.682392 0.109463 0.696607
O O4 0.893427 0.964086 0.652244
O O5 0.859512 0.779922 0.299219
O O6 0.885864 0.957987 0.393374
O O7 0.764312 0.080102 0.291081
O O8 0.591156 0.734042 0.456215
O O9 0.307421 0.552732 0.474846
O O10 0.500000 0.000000 0.000000
O O11 0.000000 0.770923 0.750000
#
# Coordination Sequence:
#
# PCOD9278527 Si02
#       5
#     8   8   8   8   8
#     4   9  22  38  60  91 128 168 220 275 338 407
#     4  11  23  41  60  95 127 175 220 276 339 421
#     4   9  22  40  65  94 134 170 220 282 346 413
#     4  10  20  43  70  94 130 178 227 284 353 416
#     4  11  22  37  61  86 130 168 221 265 342 407
#
# _framework density 27.433864
#
# number of rings (size 3 to 8) (size 9 to 14) (size 15 to 20)
#    1.200    0.800    0.000    3.600    0.000    6.400 
#    0.000    2.000    0.000    0.000    0.000    0.000 
#    0.000    0.000    0.000    0.000    0.000    0.000 
#
# Total GULP energy -111579.978206 kJ/mol
# GULP energy per Si atom -5578.998910 kJ/mol
# Density = 2.737142 g / cm^3
# Si number density = 27.433864 Si / 1000 Ang^3
#
#
#
# Elastic Constant Matrix: (Units=GPa)
#
#
# Indices 1 2 3 4 5 6 
#
# 1 104.5639 0.0846 22.7015 0.0000 -7.0340 0.0000
# 2 0.0846 81.3687 18.1632 0.0000 -3.1197 0.0000
# 3 22.7015 18.1632 107.9636 0.0000 -14.2581 0.0000
# 4 0.0000 0.0000 0.0000 46.6967 0.0000 -0.8952
# 5 -7.0340 -3.1197 -14.2581 0.0000 52.8874 0.0000
# 6 0.0000 0.0000 0.0000 -0.8952 0.0000 34.1640
#
#
#
# Elastic Compliance Matrix: (Units=1/GPa)
#
#
# Indices 1 2 3 4 5 6 
#
# 1 0.010072 0.000488 -0.002094 0.000000 0.000804 0.000000
# 2 0.000488 0.012795 -0.002226 0.000000 0.000219 0.000000
# 3 -0.002094 -0.002226 0.010393 0.000000 0.002392 0.000000
# 4 0.000000 0.000000 0.000000 0.021426 0.000000 0.000561
# 5 0.000804 0.000219 0.002392 0.000000 0.019673 0.000000
# 6 0.000000 0.000000 0.000000 0.000561 0.000000 0.029285
#
#
# Mechanical properties :
#
#
# Convention : Reuss Voigt Hill
#
# Bulk Modulus (GPa) = 39.06970 41.75499 40.41234
# Shear Modulus (GPa) = 41.72272 43.61277 42.66775
#
# Velocity S-wave (km/s) = 3.90404 3.99148 3.94800
# Velocity P-wave (km/s) = 5.88169 6.04118 5.96197
#
# Compressibility (1/GPa) = 0.02559528
#
# Stress axis : x y z
#
# Youngs Moduli (GPa) = 99.28751 78.15834 96.21838
#
# Poissons Ratio (x) = -0.03812 0.20145
# Poissons Ratio (y) = -0.04842 0.21419
# Poissons Ratio (z) = 0.20788 0.17398
#
# Static dielectric constant tensor:
#      x y z
#    x 2.304400 0.000000 0.083770 
#    y 0.000000 2.397790 0.000000 
#    z 0.083770 0.000000 2.148120 
# 
# From -- ./inp_files/287070.got.cif
#   From: 2010.05.17/outbox.cif.g08.bks.cpg/sg15_144_cif.got.tgz:287070.got - 2010.06.03 18:47:42.
