data_PCOD9278648
_publ_section_title
;
Structure prediction by ZEFSAII (Michael W. Deem and Ramdas Pophale) SiO2 
 PCOD9278648
Probable space group: C 2/C
;
_chemical_formula_sum "Si O2"
_cell_formula_units_Z 44
_cell_length_a 13.755811
_cell_length_b 7.501710
_cell_length_c 19.367896
_cell_angle_alpha 90.000000
_cell_angle_beta 62.119571
_cell_angle_gamma 90.000000
_cell_volume 1766.625667
_symmetry_space_group_name_H-M "C 2/C"
_symmetry_group_IT_number 15
_symmetry_cell_setting 'monoclinic'
loop_
_space_group_symop_operation_xyz
x,y,z
-x,y,1/2-z
-x,-y,-z
x,-y,1/2+z
1/2+x,1/2+y,z
1/2-x,1/2+y,1/2-z
1/2-x,1/2-y,-z
1/2+x,1/2-y,1/2+z
loop_
_atom_site_type_symbol
_atom_site_label
_atom_site_fract_x
_atom_site_fract_y
_atom_site_fract_z
Si Si1 0.812931 0.345334 0.414023
Si Si2 0.380054 0.563551 0.056532
Si Si3 0.879761 0.255575 0.916169
Si Si4 0.500000 0.878399 0.250000
Si Si5 0.380774 0.165186 0.189157
Si Si6 0.271180 0.141601 0.659803
O O1 0.750000 0.250000 0.500000
O O2 0.710507 0.412969 0.401675
O O3 0.866838 0.530339 0.423754
O O4 0.913661 0.276244 0.330700
O O5 0.344293 0.661570 0.997637
O O6 0.500000 0.500000 0.000000
O O7 0.368688 0.715207 0.117143
O O8 0.815779 0.170922 0.872988
O O9 0.010149 0.228698 0.866000
O O10 0.422658 0.013963 0.230860
O O11 0.324009 0.050454 0.148219
O O12 0.295185 0.298003 0.251659
#
# Coordination Sequence:
#
# PCOD9278648 Si02
#       6
#     8   8   8   4   8   8
#     4  10  21  42  73  97 138 188 240 295 368 439
#     4  11  25  44  67 101 140 179 243 302 366 445
#     4  10  23  48  69  92 148 186 228 311 374 422
#     4  10  20  44  66  98 144 188 220 312 364 414
#     4  11  22  43  73  98 140 185 237 296 367 439
#     4  11  23  44  67 101 135 186 236 289 374 441
#
# _framework density 24.906238999999999
#
# number of rings (size 3 to 8) (size 9 to 14) (size 15 to 20)
#    0.000    1.455    5.455    2.182    7.636    0.727 
#    9.818    0.000    0.000    0.000    0.000    0.000 
#    0.000    0.000    0.000    0.000    0.000    0.000 
#
# Total GULP energy -122968.609718 kJ/mol
# GULP energy per Si atom -5589.482260 kJ/mol
# Density = 2.484955 g / cm^3
# Si number density = 24.906239 Si / 1000 Ang^3
#
#
#
# Elastic Constant Matrix: (Units=GPa)
#
#
# Indices 1 2 3 4 5 6 
#
# 1 95.4852 37.8391 47.7661 0.0000 -30.4875 0.0000
# 2 37.8391 68.6917 36.3297 0.0000 2.1777 0.0001
# 3 47.7661 36.3297 161.0985 0.0000 -36.6287 0.0000
# 4 0.0000 0.0000 0.0000 48.2263 0.0000 -1.7390
# 5 -30.4875 2.1777 -36.6287 0.0000 52.1628 0.0000
# 6 0.0000 0.0001 0.0000 -1.7390 0.0000 34.8329
#
#
#
# Elastic Compliance Matrix: (Units=1/GPa)
#
#
# Indices 1 2 3 4 5 6 
#
# 1 0.018126 -0.009918 -0.000756 0.000000 0.010478 0.000000
# 2 -0.009918 0.022664 -0.004407 0.000000 -0.009837 0.000000
# 3 -0.000756 -0.004407 0.008766 0.000000 0.005898 0.000000
# 4 0.000000 0.000000 0.000000 0.020773 0.000000 0.001037
# 5 0.010478 -0.009837 0.005898 0.000000 0.029847 0.000000
# 6 0.000000 0.000000 0.000000 0.001037 0.000000 0.028760
#
#
# Mechanical properties :
#
#
# Convention : Reuss Voigt Hill
#
# Bulk Modulus (GPa) = 51.55755 63.23837 57.39796
# Shear Modulus (GPa) = 30.20011 40.60044 35.40027
#
# Velocity S-wave (km/s) = 3.48595 4.04187 3.77416
# Velocity P-wave (km/s) = 6.07849 6.87226 6.48753
#
# Compressibility (1/GPa) = 0.01939580
#
# Stress axis : x y z
#
# Youngs Moduli (GPa) = 55.16796 44.12364 114.07307
#
# Poissons Ratio (x) = 0.43760 0.08621
# Poissons Ratio (y) = 0.54713 0.50272
# Poissons Ratio (z) = 0.04169 0.19445
#
# Static dielectric constant tensor:
#      x y z
#    x 2.044080 0.000000 0.014300 
#    y 0.000000 2.069940 0.000000 
#    z 0.014300 0.000000 2.020990 
# 
# From -- ./inp_files/202920.got.cif
#   From: 2010.05.17/outbox.cif.g08.bks.cpg/sg15_102_cif.got.tgz:202920.got - 2010.06.03 18:47:42.
