data_PCOD9278084
_publ_section_title
;
Structure prediction by ZEFSAII (Michael W. Deem and Ramdas Pophale) SiO2 
 PCOD9278084
Probable space group: C 2/C
;
_chemical_formula_sum "Si O2"
_cell_formula_units_Z 60
_cell_length_a 30.803269
_cell_length_b 11.545018
_cell_length_c 8.562807
_cell_angle_alpha 90.000000
_cell_angle_beta 61.849327
_cell_angle_gamma 90.000000
_cell_volume 2684.932189
_symmetry_space_group_name_H-M "C 2/C"
_symmetry_group_IT_number 15
_symmetry_cell_setting 'monoclinic'
loop_
_space_group_symop_operation_xyz
x,y,z
-x,y,1/2-z
-x,-y,-z
x,-y,1/2+z
1/2+x,1/2+y,z
1/2-x,1/2+y,1/2-z
1/2-x,1/2-y,-z
1/2+x,1/2-y,1/2+z
loop_
_atom_site_type_symbol
_atom_site_label
_atom_site_fract_x
_atom_site_fract_y
_atom_site_fract_z
Si Si1 0.499898 0.291690 0.932999
Si Si2 0.684446 0.447308 0.753402
Si Si3 0.608829 0.277777 0.730883
Si Si4 0.252221 0.619856 0.062204
Si Si5 0.000000 0.638822 0.250000
Si Si6 0.599883 0.054675 0.960005
Si Si7 0.392539 0.351060 0.104706
Si Si8 0.642783 0.133051 0.194301
O O1 0.500000 0.244719 0.750000
O O2 0.555760 0.339470 0.853442
O O3 0.493946 0.211718 0.098366
O O4 0.450897 0.370827 0.024539
O O5 0.655845 0.347930 0.709625
O O6 0.723213 0.526294 0.594060
O O7 0.714472 0.390170 0.841995
O O8 0.640241 0.536392 0.870053
O O9 0.613748 0.272422 0.537843
O O10 0.604433 0.155116 0.822521
O O11 0.194570 0.597352 0.181603
O O12 0.250000 0.750000 0.000000
O O13 0.048343 0.565311 0.136081
O O14 0.639866 0.084752 0.024291
O O15 0.603647 0.934957 0.865080
O O16 0.370071 0.269863 0.279302
#
# Coordination Sequence:
#
# PCOD9278084 Si02
#       8
#     8   8   8   8   4   8   8   8
#     4   9  20  39  68 100 144 188 234 288 364 434
#     4  12  25  44  73 102 135 181 240 295 361 425
#     4  10  23  43  66 101 140 180 234 290 355 438
#     4  12  26  47  70 102 139 188 241 300 365 433
#     4  10  20  42  66 108 140 196 244 292 364 436
#     4  11  24  42  69 103 139 188 237 294 358 435
#     4  11  22  44  68  99 138 183 230 296 354 434
#     4  12  24  44  68  97 141 185 239 296 360 426
#
# _framework density 22.346934000000001
#
# number of rings (size 3 to 8) (size 9 to 14) (size 15 to 20)
#    0.000    1.067    4.000    2.400    0.000    1.067 
#    3.600    2.000    1.467    0.000    0.000    0.000 
#    0.000    0.000    0.000    0.000    0.000    0.000 
#
# Total GULP energy -167468.489162 kJ/mol
# GULP energy per Si atom -5582.282972 kJ/mol
# Density = 2.229607 g / cm^3
# Si number density = 22.346934 Si / 1000 Ang^3
#
#
#
# Elastic Constant Matrix: (Units=GPa)
#
#
# Indices 1 2 3 4 5 6 
#
# 1 102.8169 14.1521 -2.7403 0.0000 4.2676 0.0000
# 2 14.1521 58.9180 0.3315 0.0000 4.6116 0.0000
# 3 -2.7403 0.3315 54.2675 0.0000 1.4922 0.0000
# 4 0.0000 0.0000 0.0000 25.7573 0.0000 -2.4260
# 5 4.2676 4.6116 1.4922 0.0000 39.8275 0.0000
# 6 0.0000 0.0000 0.0000 -2.4260 0.0000 31.9574
#
#
#
# Elastic Compliance Matrix: (Units=1/GPa)
#
#
# Indices 1 2 3 4 5 6 
#
# 1 0.010100 -0.002364 0.000547 0.000000 -0.000829 0.000000
# 2 -0.002364 0.017682 -0.000178 0.000000 -0.001787 0.000000
# 3 0.000547 -0.000178 0.018476 0.000000 -0.000730 0.000000
# 4 0.000000 0.000000 0.000000 0.039104 0.000000 0.002968
# 5 -0.000829 -0.001787 -0.000730 0.000000 0.025431 0.000000
# 6 0.000000 0.000000 0.000000 0.002968 0.000000 0.031517
#
#
# Mechanical properties :
#
#
# Convention : Reuss Voigt Hill
#
# Bulk Modulus (GPa) = 23.65887 26.60988 25.13438
# Shear Modulus (GPa) = 31.17407 33.12573 32.14990
#
# Velocity S-wave (km/s) = 3.73903 3.85429 3.79710
# Velocity P-wave (km/s) = 5.40837 5.63391 5.52229
#
# Compressibility (1/GPa) = 0.04226745
#
# Stress axis : x y z
#
# Youngs Moduli (GPa) = 99.00540 56.55609 54.12416
#
# Poissons Ratio (x) = 0.13372 -0.02962
# Poissons Ratio (y) = 0.23408 0.00965
# Poissons Ratio (z) = -0.05418 0.01008
#
# Static dielectric constant tensor:
#      x y z
#    x 1.841070 0.000000 -0.004250 
#    y 0.000000 1.839900 0.000000 
#    z -0.004250 0.000000 1.829430 
# 
# From -- ./inp_files/69336.got.cif
#   From: 2010.05.17/outbox.cif.g08.bks.cpg/sg15_35_cif.got.tgz:69336.got - 2010.06.03 18:47:42.
