data_PCOD9278371
_publ_section_title
;
Structure prediction by ZEFSAII (Michael W. Deem and Ramdas Pophale) SiO2 
 PCOD9278371
Probable space group: C 2/C
;
_chemical_formula_sum "Si O2"
_cell_formula_units_Z 44
_cell_length_a 11.216833
_cell_length_b 19.425381
_cell_length_c 12.190914
_cell_angle_alpha 90.000000
_cell_angle_beta 128.971380
_cell_angle_gamma 90.000000
_cell_volume 2065.162561
_symmetry_space_group_name_H-M "C 2/C"
_symmetry_group_IT_number 15
_symmetry_cell_setting 'monoclinic'
loop_
_space_group_symop_operation_xyz
x,y,z
-x,y,1/2-z
-x,-y,-z
x,-y,1/2+z
1/2+x,1/2+y,z
1/2-x,1/2+y,1/2-z
1/2-x,1/2-y,-z
1/2+x,1/2-y,1/2+z
loop_
_atom_site_type_symbol
_atom_site_label
_atom_site_fract_x
_atom_site_fract_y
_atom_site_fract_z
Si Si1 0.364855 0.804411 0.876045
Si Si2 0.636503 0.063403 0.240378
Si Si3 0.627291 0.602397 0.947894
Si Si4 0.000000 0.770607 0.250000
Si Si5 0.725497 0.573056 0.774466
Si Si6 0.596152 0.207569 0.701188
O O1 0.387370 0.886189 0.877115
O O2 0.410830 0.775925 0.783356
O O3 0.196508 0.773325 0.796063
O O4 0.479668 0.776785 0.034950
O O5 0.500000 0.063528 0.250000
O O6 0.781756 0.095649 0.388471
O O7 0.680708 0.987682 0.226675
O O8 0.603779 0.678821 0.884462
O O9 0.721515 0.565884 0.904284
O O10 0.455708 0.572705 0.860001
O O11 0.792290 0.646579 0.775536
O O12 0.500000 0.182929 0.750000
#
# Coordination Sequence:
#
# PCOD9278371 Si02
#       6
#     8   8   8   4   8   8
#     4  12  25  42  70 100 132 172 228 277 334 392
#     4  12  25  38  66 103 130 170 225 276 335 403
#     4  10  21  44  67  92 132 174 221 281 331 389
#     4  10  20  42  72  94 126 168 216 288 324 388
#     4  10  23  43  66  91 133 179 222 274 334 393
#     4  12  26  46  66  95 139 183 218 273 335 399
#
# _framework density 21.305828999999999
#
# number of rings (size 3 to 8) (size 9 to 14) (size 15 to 20)
#    0.000    1.091    4.545    3.818    0.000    5.818 
#    3.273    0.000    0.000    0.000    0.000    0.000 
#    0.000    0.000    0.000    0.000    0.000    0.000 
#
# Total GULP energy -122988.532143 kJ/mol
# GULP energy per Si atom -5590.387825 kJ/mol
# Density = 2.125734 g / cm^3
# Si number density = 21.305829 Si / 1000 Ang^3
#
#
#
# Elastic Constant Matrix: (Units=GPa)
#
#
# Indices 1 2 3 4 5 6 
#
# 1 93.3424 26.3488 11.4865 0.0000 3.4725 0.0000
# 2 26.3488 86.0143 3.1539 0.0000 5.1839 0.0000
# 3 11.4865 3.1539 63.2715 0.0000 15.4793 0.0000
# 4 0.0000 0.0000 0.0000 0.3535 0.0000 -25.1441
# 5 3.4725 5.1839 15.4793 0.0000 20.2079 0.0000
# 6 0.0000 0.0000 0.0000 -25.1441 0.0000 9.2677
#
#
#
# Elastic Compliance Matrix: (Units=1/GPa)
#
#
# Indices 1 2 3 4 5 6 
#
# 1 0.011977 -0.003621 -0.002114 0.000000 0.000490 0.000000
# 2 -0.003621 0.012905 0.000827 0.000000 -0.003322 0.000000
# 3 -0.002114 0.000827 0.019826 0.000000 -0.015036 0.000000
# 4 0.000000 0.000000 0.000000 -0.014735 0.000000 -0.039978
# 5 0.000490 -0.003322 -0.015036 0.000000 0.061771 0.000000
# 6 0.000000 0.000000 0.000000 -0.039978 0.000000 -0.000562
#
#
# Mechanical properties :
#
#
# Convention : Reuss Voigt Hill
#
# Bulk Modulus (GPa) = 28.65975 36.06738 32.36357
# Shear Modulus (GPa) = 44.39361 19.40840 31.90101
#
# Velocity S-wave (km/s) = 4.56964 3.02146 3.87368
# Velocity P-wave (km/s) = 6.42829 5.39791 5.93550
#
# Compressibility (1/GPa) = 0.03489214
#
# Stress axis : x y z
#
# Youngs Moduli (GPa) = 83.49138 77.48886 50.43913
#
# Poissons Ratio (x) = 0.28059 0.10662
# Poissons Ratio (y) = 0.30232 -0.04170
# Poissons Ratio (z) = 0.17648 -0.06406
#
# Static dielectric constant tensor:
#      x y z
#    x 1.764810 0.000000 0.030010 
#    y 0.000000 1.776020 0.000000 
#    z 0.030010 0.000000 1.771860 
# 
# From -- ./inp_files/87938.got.cif
#   From: 2010.05.17/outbox.cif.g08.bks.cpg/sg15_44_cif.got.tgz:87938.got - 2010.06.03 18:47:42.
