data_PCOD9278951
_publ_section_title
;
Structure prediction by ZEFSAII (Michael W. Deem and Ramdas Pophale) SiO2 
 PCOD9278951
Probable space group: C 2/C
;
_chemical_formula_sum "Si O2"
_cell_formula_units_Z 56
_cell_length_a 23.364138
_cell_length_b 8.240521
_cell_length_c 15.671028
_cell_angle_alpha 90.000000
_cell_angle_beta 44.399098
_cell_angle_gamma 90.000000
_cell_volume 2110.979701
_symmetry_space_group_name_H-M "C 2/C"
_symmetry_group_IT_number 15
_symmetry_cell_setting 'monoclinic'
loop_
_space_group_symop_operation_xyz
x,y,z
-x,y,1/2-z
-x,-y,-z
x,-y,1/2+z
1/2+x,1/2+y,z
1/2-x,1/2+y,1/2-z
1/2-x,1/2-y,-z
1/2+x,1/2-y,1/2+z
loop_
_atom_site_type_symbol
_atom_site_label
_atom_site_fract_x
_atom_site_fract_y
_atom_site_fract_z
Si Si1 0.592422 0.476725 0.168808
Si Si2 0.804868 0.170376 0.574821
Si Si3 0.075650 0.463459 0.733426
Si Si4 0.411749 0.192759 0.105157
Si Si5 0.929885 0.795278 0.651648
Si Si6 0.736120 0.977243 0.449832
Si Si7 0.819633 0.608932 0.672885
O O1 0.500000 0.411164 0.250000
O O2 0.580085 0.560369 0.273352
O O3 0.684348 0.408054 0.086936
O O4 0.621002 0.599141 0.060802
O O5 0.837469 0.229616 0.631998
O O6 0.764881 0.326053 0.569232
O O7 0.733298 0.053563 0.687460
O O8 0.080559 0.328847 0.802376
O O9 0.068957 0.636745 0.788129
O O10 0.156213 0.457054 0.591288
O O11 0.000000 0.448252 0.750000
O O12 0.399973 0.007595 0.082650
O O13 0.488527 0.289579 0.989051
O O14 0.855719 0.780728 0.663672
O O15 0.721967 0.897670 0.373364
#
# Coordination Sequence:
#
# PCOD9278951 Si02
#       7
#     8   8   8   8   8   8   8
#     4  12  21  34  60  90 119 158 201 251 293 354
#     4  11  20  37  57  83 118 154 200 248 299 353
#     4  11  19  33  57  88 121 152 189 249 310 360
#     4  10  21  33  54  88 119 149 191 249 306 358
#     4  11  18  34  56  88 118 144 194 248 309 351
#     4  11  22  36  57  88 120 156 204 244 306 357
#     4  10  21  35  56  82 119 155 194 252 300 357
#
# _framework density 26.527967
#
# number of rings (size 3 to 8) (size 9 to 14) (size 15 to 20)
#    0.000    1.143    4.286    6.857    0.000    0.000 
#    0.000    1.429    0.000    0.857    0.000    0.000 
#    0.000    0.000    0.000    0.000    0.000    0.000 
#
# Total GULP energy -156504.107339 kJ/mol
# GULP energy per Si atom -5589.432405 kJ/mol
# Density = 2.646759 g / cm^3
# Si number density = 26.527967 Si / 1000 Ang^3
#
#
#
# Elastic Constant Matrix: (Units=GPa)
#
#
# Indices 1 2 3 4 5 6 
#
# 1 214.6115 19.7544 32.2402 -0.0016 1.8903 0.0008
# 2 19.7544 44.9700 2.1728 -0.0034 4.7183 0.0029
# 3 32.2402 2.1728 127.4873 0.0014 -1.8231 -0.0007
# 4 -0.0016 -0.0034 0.0014 16.7413 0.0015 12.5972
# 5 1.8903 4.7183 -1.8231 0.0015 51.9076 -0.0011
# 6 0.0008 0.0029 -0.0007 12.5972 -0.0011 22.3566
#
#
#
# Elastic Compliance Matrix: (Units=1/GPa)
#
#
# Indices 1 2 3 4 5 6 
#
# 1 0.005044 -0.002153 -0.001239 0.000000 -0.000032 0.000000
# 2 -0.002153 0.023391 0.000116 0.000012 -0.002044 -0.000010
# 3 -0.001239 0.000116 0.008160 -0.000002 0.000321 0.000001
# 4 0.000000 0.000012 -0.000002 0.103699 -0.000005 -0.058431
# 5 -0.000032 -0.002044 0.000321 -0.000005 0.019463 0.000004
# 6 0.000000 -0.000010 0.000001 -0.058431 0.000004 0.077653
#
#
# Mechanical properties :
#
#
# Convention : Reuss Voigt Hill
#
# Bulk Modulus (GPa) = 33.28390 55.04484 44.16437
# Shear Modulus (GPa) = 19.68679 40.39454 30.04067
#
# Velocity S-wave (km/s) = 2.72713 3.90643 3.36879
# Velocity P-wave (km/s) = 4.74239 6.41418 5.64057
#
# Compressibility (1/GPa) = 0.03004455
#
# Stress axis : x y z
#
# Youngs Moduli (GPa) = 198.24790 42.75069 122.54971
#
# Poissons Ratio (x) = 0.09203 0.15189
# Poissons Ratio (y) = 0.42675 -0.01428
# Poissons Ratio (z) = 0.24571 -0.00498
#
# Static dielectric constant tensor:
#      x y z
#    x 2.106670 0.000000 -0.067540 
#    y 0.000000 2.186470 0.000000 
#    z -0.067540 0.000000 2.024630 
# 
# From -- ./inp_files/173478.got.cif
#   From: 2010.05.17/outbox.cif.g08.bks.cpg/sg15_87_cif.got.tgz:173478.got - 2010.06.03 18:47:42.
