data_PCOD9278942
_publ_section_title
;
Structure prediction by ZEFSAII (Michael W. Deem and Ramdas Pophale) SiO2 
 PCOD9278942
Probable space group: C 2/C
;
_chemical_formula_sum "Si O2"
_cell_formula_units_Z 48
_cell_length_a 5.581525
_cell_length_b 20.482268
_cell_length_c 18.101824
_cell_angle_alpha 90.000000
_cell_angle_beta 72.040729
_cell_angle_gamma 90.000000
_cell_volume 1968.610378
_symmetry_space_group_name_H-M "C 2/C"
_symmetry_group_IT_number 15
_symmetry_cell_setting 'monoclinic'
loop_
_space_group_symop_operation_xyz
x,y,z
-x,y,1/2-z
-x,-y,-z
x,-y,1/2+z
1/2+x,1/2+y,z
1/2-x,1/2+y,1/2-z
1/2-x,1/2-y,-z
1/2+x,1/2-y,1/2+z
loop_
_atom_site_type_symbol
_atom_site_label
_atom_site_fract_x
_atom_site_fract_y
_atom_site_fract_z
Si Si1 0.578762 0.304145 0.921238
Si Si2 0.019479 0.923546 0.480521
Si Si3 0.427297 0.951411 0.072703
Si Si4 0.238184 0.477649 0.761816
Si Si5 0.400999 0.746664 0.599001
Si Si6 0.705385 0.379086 0.294615
O O1 0.365262 0.284036 0.883187
O O2 0.868364 0.284036 0.883187
O O3 0.557647 0.380550 0.942353
O O4 0.493517 0.269066 0.006483
O O5 0.316535 0.911687 0.436862
O O6 0.809740 0.911687 0.436862
O O7 0.000000 0.000000 0.500000
O O8 0.347708 0.991006 0.152292
O O9 0.500000 0.000000 0.000000
O O10 0.500000 0.441565 0.750000
O O11 0.297648 0.540308 0.702352
O O12 0.000000 0.441565 0.750000
O O13 0.356768 0.678629 0.643232
O O14 0.500000 0.368011 0.250000
O O15 0.000000 0.368011 0.250000
#
# Coordination Sequence:
#
# PCOD9278942 Si02
#       6
#     8   8   8   8   8   8
#     4  10  21  35  57  80 119 162 187 255 299 374
#     4  10  21  36  59  89 116 162 203 258 302 361
#     4  10  21  36  57  88 127 161 208 264 322 369
#     4  10  21  34  53  88 118 167 195 254 327 375
#     4  10  21  36  51  86 120 152 198 236 324 369
#     4  10  21  33  53  83 119 156 194 247 307 383
#
# _framework density 24.382679
#
# number of rings (size 3 to 8) (size 9 to 14) (size 15 to 20)
#    0.000    2.000    0.000    3.000    9.333    0.000 
#    0.000    0.000    0.000    0.000    0.000   93.333 
#    0.000    0.000    0.000    0.000    0.000    0.000 
#
# Total GULP energy -134034.819983 kJ/mol
# GULP energy per Si atom -5584.784166 kJ/mol
# Density = 2.432718 g / cm^3
# Si number density = 24.382679 Si / 1000 Ang^3
#
#
#
# Elastic Constant Matrix: (Units=GPa)
#
#
# Indices 1 2 3 4 5 6 
#
# 1 270.4892 39.5081 19.2922 0.0000 -23.3252 0.0000
# 2 39.5081 90.8497 2.0068 0.0000 -4.6688 0.0000
# 3 19.2922 2.0068 32.0195 0.0000 -6.3634 0.0000
# 4 0.0000 0.0000 0.0000 11.8483 0.0000 -1.1521
# 5 -23.3252 -4.6688 -6.3634 0.0000 34.0319 0.0000
# 6 0.0000 0.0000 0.0000 -1.1521 0.0000 21.1029
#
#
#
# Elastic Compliance Matrix: (Units=1/GPa)
#
#
# Indices 1 2 3 4 5 6 
#
# 1 0.004290 -0.001701 -0.002015 0.000000 0.002330 0.000000
# 2 -0.001701 0.011765 0.000391 0.000000 0.000521 0.000000
# 3 -0.002015 0.000391 0.033398 0.000000 0.004917 0.000000
# 4 0.000000 0.000000 0.000000 0.084850 0.000000 0.004632
# 5 0.002330 0.000521 0.004917 0.000000 0.031972 0.000000
# 6 0.000000 0.000000 0.000000 0.004632 0.000000 0.047640
#
#
# Mechanical properties :
#
#
# Convention : Reuss Voigt Hill
#
# Bulk Modulus (GPa) = 23.36300 57.21917 40.29109
# Shear Modulus (GPa) = 21.29166 35.56673 28.42919
#
# Velocity S-wave (km/s) = 2.95825 3.82342 3.41832
# Velocity P-wave (km/s) = 4.61204 6.55816 5.66923
#
# Compressibility (1/GPa) = 0.04280272
#
# Stress axis : x y z
#
# Youngs Moduli (GPa) = 233.08983 84.99623 29.94206
#
# Poissons Ratio (x) = 0.14461 0.06034
# Poissons Ratio (y) = 0.39659 -0.01172
# Poissons Ratio (z) = 0.46971 -0.03326
#
# Static dielectric constant tensor:
#      x y z
#    x 2.076490 0.000000 0.015500 
#    y 0.000000 1.799170 0.000000 
#    z 0.015500 0.000000 2.201020 
# 
# From -- ./inp_files/227796.got.cif
#   From: 2010.05.17/outbox.cif.g08.bks.cpg/sg15_114_cif.got.tgz:227796.got - 2010.06.03 18:47:42.
