data_PCOD9278430
_publ_section_title
;
Structure prediction by ZEFSAII (Michael W. Deem and Ramdas Pophale) SiO2 
 PCOD9278430
Probable space group: C 2/C
;
_chemical_formula_sum "Si O2"
_cell_formula_units_Z 40
_cell_length_a 15.295613
_cell_length_b 12.103004
_cell_length_c 10.857007
_cell_angle_alpha 90.000000
_cell_angle_beta 54.963091
_cell_angle_gamma 90.000000
_cell_volume 1645.654542
_symmetry_space_group_name_H-M "C 2/C"
_symmetry_group_IT_number 15
_symmetry_cell_setting 'monoclinic'
loop_
_space_group_symop_operation_xyz
x,y,z
-x,y,1/2-z
-x,-y,-z
x,-y,1/2+z
1/2+x,1/2+y,z
1/2-x,1/2+y,1/2-z
1/2-x,1/2-y,-z
1/2+x,1/2-y,1/2+z
loop_
_atom_site_type_symbol
_atom_site_label
_atom_site_fract_x
_atom_site_fract_y
_atom_site_fract_z
Si Si1 0.396421 0.782572 0.755031
Si Si2 0.840807 0.477712 0.346118
Si Si3 0.492697 0.137218 0.921084
Si Si4 0.344717 0.578735 0.662639
Si Si5 0.450977 0.619314 0.161634
O O1 0.500000 0.747234 0.750000
O O2 0.442825 0.828683 0.589408
O O3 0.324246 0.677341 0.775775
O O4 0.342495 0.889953 0.861994
O O5 0.900747 0.412882 0.406749
O O6 0.728906 0.426653 0.397735
O O7 0.913830 0.451998 0.165943
O O8 0.554526 0.248871 0.825612
O O9 0.463497 0.602144 0.516539
O O10 0.348345 0.455689 0.716718
O O11 0.500000 0.577503 0.250000
#
# Coordination Sequence:
#
# PCOD9278430 Si02
#       5
#     8   8   8   8   8
#     4  11  23  42  62  88 132 162 199 259 313 360
#     4  11  22  39  63  94 121 161 208 254 301 369
#     4  10  22  41  65  89 124 166 207 249 312 365
#     4  10  25  38  64  97 119 161 213 251 310 363
#     4  10  20  43  64  85 128 164 202 256 306 369
#
# _framework density 24.306438
#
# number of rings (size 3 to 8) (size 9 to 14) (size 15 to 20)
#    0.000    1.600    4.000    1.200    2.800    4.800 
#    0.000    1.000    0.000    0.000    0.000    0.000 
#    0.000    0.000    0.000    0.000    0.000    0.000 
#
# Total GULP energy -111580.253650 kJ/mol
# GULP energy per Si atom -5579.012682 kJ/mol
# Density = 2.425112 g / cm^3
# Si number density = 24.306438 Si / 1000 Ang^3
#
#
#
# Elastic Constant Matrix: (Units=GPa)
#
#
# Indices 1 2 3 4 5 6 
#
# 1 44.3729 26.7715 -5.7396 0.0000 8.8907 0.0000
# 2 26.7715 155.8528 11.5291 0.0000 1.1149 0.0000
# 3 -5.7396 11.5291 61.6802 0.0000 16.0500 0.0000
# 4 0.0000 0.0000 0.0000 29.9776 0.0000 30.4458
# 5 8.8907 1.1149 16.0500 0.0000 25.5272 0.0000
# 6 0.0000 0.0000 0.0000 30.4458 0.0000 29.8072
#
#
#
# Elastic Compliance Matrix: (Units=1/GPa)
#
#
# Indices 1 2 3 4 5 6 
#
# 1 0.029940 -0.005609 0.007752 0.000000 -0.015057 0.000000
# 2 -0.005609 0.007564 -0.002819 0.000000 0.003396 0.000000
# 3 0.007752 -0.002819 0.021678 0.000000 -0.016207 0.000000
# 4 0.000000 0.000000 0.000000 -0.892414 0.000000 0.911536
# 5 -0.015057 0.003396 -0.016207 0.000000 0.054460 0.000000
# 6 0.000000 0.000000 0.000000 0.911536 0.000000 -0.897518
#
#
# Mechanical properties :
#
#
# Convention : Reuss Voigt Hill
#
# Bulk Modulus (GPa) = 17.29183 36.33644 26.81413
# Shear Modulus (GPa) = -3.01994 32.35206 14.66606
#
# Velocity S-wave (km/s) = -1.11586 3.65226 2.45905
# Velocity P-wave (km/s) = 2.33866 5.72425 4.37244
#
# Compressibility (1/GPa) = 0.05783079
#
# Stress axis : x y z
#
# Youngs Moduli (GPa) = 33.40043 132.20521 46.12905
#
# Poissons Ratio (x) = 0.74149 -0.35761
# Poissons Ratio (y) = 0.18733 0.13005
# Poissons Ratio (z) = -0.25893 0.37273
#
# Static dielectric constant tensor:
#      x y z
#    x 1.895910 0.000000 -0.000820 
#    y 0.000000 2.098820 0.000000 
#    z -0.000820 0.000000 1.994090 
# 
# From -- ./inp_files/94895.got.cif
#   From: 2010.05.17/outbox.cif.g08.bks.cpg/sg15_48_cif.got.tgz:94895.got - 2010.06.03 18:47:42.
