data_PCOD9278987
_publ_section_title
;
Structure prediction by ZEFSAII (Michael W. Deem and Ramdas Pophale) SiO2 
 PCOD9278987
Probable space group: C 2/C
;
_chemical_formula_sum "Si O2"
_cell_formula_units_Z 56
_cell_length_a 16.440482
_cell_length_b 13.959261
_cell_length_c 10.219725
_cell_angle_alpha 90.000000
_cell_angle_beta 61.264126
_cell_angle_gamma 90.000000
_cell_volume 2056.549507
_symmetry_space_group_name_H-M "C 2/C"
_symmetry_group_IT_number 15
_symmetry_cell_setting 'monoclinic'
loop_
_space_group_symop_operation_xyz
x,y,z
-x,y,1/2-z
-x,-y,-z
x,-y,1/2+z
1/2+x,1/2+y,z
1/2-x,1/2+y,1/2-z
1/2-x,1/2-y,-z
1/2+x,1/2-y,1/2+z
loop_
_atom_site_type_symbol
_atom_site_label
_atom_site_fract_x
_atom_site_fract_y
_atom_site_fract_z
Si Si1 0.062996 0.341407 0.433523
Si Si2 0.793306 0.362355 0.973067
Si Si3 0.675904 0.316923 0.435160
Si Si4 0.923683 0.850185 0.730810
Si Si5 0.891041 0.167504 0.794488
Si Si6 0.763833 0.395510 0.599630
Si Si7 0.412158 0.039009 0.180700
O O1 0.165984 0.347125 0.413462
O O2 0.053709 0.233236 0.389714
O O3 0.050179 0.431054 0.346301
O O4 0.988589 0.376650 0.600222
O O5 0.834471 0.267296 0.868964
O O6 0.851560 0.441059 0.852655
O O7 0.685444 0.392935 0.063492
O O8 0.610617 0.293463 0.611554
O O9 0.622712 0.353144 0.348947
O O10 0.747197 0.386275 0.456235
O O11 0.719505 0.214878 0.370191
O O12 0.837130 0.915289 0.758922
O O13 0.000000 0.912336 0.750000
O O14 0.000000 0.167116 0.750000
O O15 0.845130 0.451436 0.606162
#
# Coordination Sequence:
#
# PCOD9278987 Si02
#       7
#     8   8   8   8   8   8   8
#     4  11  25  40  63  93 138 184 218 271 351 407
#     4  11  25  40  61  95 133 172 220 271 338 406
#     4   9  19  35  57  90 122 163 213 278 328 384
#     4  10  21  33  61  95 127 167 231 277 335 396
#     4  11  23  40  68  96 131 168 218 282 343 400
#     4   9  19  35  59  86 124 162 224 273 324 386
#     4  11  23  43  61  92 140 180 224 277 334 422
#
# _framework density 27.230077999999999
#
# number of rings (size 3 to 8) (size 9 to 14) (size 15 to 20)
#    0.857    0.857    1.429    3.000    4.000    3.429 
#    0.000    0.000    0.000    1.714    0.000    0.000 
#    0.000    0.000    0.000    0.000    0.000    0.000 
#
# Total GULP energy -156059.286635 kJ/mol
# GULP energy per Si atom -5573.545951 kJ/mol
# Density = 2.716810 g / cm^3
# Si number density = 27.230078 Si / 1000 Ang^3
#
#
#
# Elastic Constant Matrix: (Units=GPa)
#
#
# Indices 1 2 3 4 5 6 
#
# 1 206.5829 4.1530 49.3150 0.0000 -0.1439 0.0000
# 2 4.1530 80.3766 15.7147 0.0000 5.9504 0.0000
# 3 49.3150 15.7147 123.9795 0.0000 -3.2405 0.0000
# 4 0.0000 0.0000 0.0000 26.9823 0.0000 -7.6817
# 5 -0.1439 5.9504 -3.2405 0.0000 58.2215 0.0000
# 6 0.0000 0.0000 0.0000 -7.6817 0.0000 4.3787
#
#
#
# Elastic Compliance Matrix: (Units=1/GPa)
#
#
# Indices 1 2 3 4 5 6 
#
# 1 0.005351 0.000153 -0.002151 0.000000 -0.000122 0.000000
# 2 0.000153 0.012876 -0.001730 0.000000 -0.001412 0.000000
# 3 -0.002151 -0.001730 0.009159 0.000000 0.000681 0.000000
# 4 0.000000 0.000000 0.000000 0.074041 0.000000 0.129891
# 5 -0.000122 -0.001412 0.000681 0.000000 0.017358 0.000000
# 6 0.000000 0.000000 0.000000 0.129891 0.000000 0.456248
#
#
# Mechanical properties :
#
#
# Convention : Reuss Voigt Hill
#
# Bulk Modulus (GPa) = 50.17530 61.03383 55.60456
# Shear Modulus (GPa) = 8.48707 40.70027 24.59367
#
# Velocity S-wave (km/s) = 1.76736 3.87030 3.00856
# Velocity P-wave (km/s) = 4.75722 6.51422 5.70378
#
# Compressibility (1/GPa) = 0.01993013
#
# Stress axis : x y z
#
# Youngs Moduli (GPa) = 186.88093 77.66227 109.18771
#
# Poissons Ratio (x) = -0.01189 0.23487
# Poissons Ratio (y) = -0.02862 0.18888
# Poissons Ratio (z) = 0.40199 0.13435
#
# Static dielectric constant tensor:
#      x y z
#    x 2.462110 0.000000 -0.182280 
#    y 0.000000 2.216910 0.000000 
#    z -0.182280 0.000000 2.212290 
# 
# From -- ./inp_files/98659.got.cif
#   From: 2010.05.17/outbox.cif.g08.bks.cpg/sg15_50_cif.got.tgz:98659.got - 2010.06.03 18:47:42.
