data_PCOD9278001
_publ_section_title
;
Structure prediction by ZEFSAII (Michael W. Deem and Ramdas Pophale) SiO2 
 PCOD9278001
Probable space group: C 2/C
;
_chemical_formula_sum "Si O2"
_cell_formula_units_Z 40
_cell_length_a 20.579490
_cell_length_b 7.640988
_cell_length_c 10.325989
_cell_angle_alpha 90.000000
_cell_angle_beta 92.284267
_cell_angle_gamma 90.000000
_cell_volume 1622.447103
_symmetry_space_group_name_H-M "C 2/C"
_symmetry_group_IT_number 15
_symmetry_cell_setting 'monoclinic'
loop_
_space_group_symop_operation_xyz
x,y,z
-x,y,1/2-z
-x,-y,-z
x,-y,1/2+z
1/2+x,1/2+y,z
1/2-x,1/2+y,1/2-z
1/2-x,1/2-y,-z
1/2+x,1/2-y,1/2+z
loop_
_atom_site_type_symbol
_atom_site_label
_atom_site_fract_x
_atom_site_fract_y
_atom_site_fract_z
Si Si1 0.118827 0.521880 0.381184
Si Si2 0.399438 0.355879 0.527474
Si Si3 0.469174 0.674878 0.616631
Si Si4 0.704746 0.230828 0.176620
Si Si5 0.281493 0.108919 0.908417
O O1 0.114557 0.311927 0.382592
O O2 0.052223 0.626175 0.364164
O O3 0.163236 0.607856 0.272655
O O4 0.147074 0.580718 0.524780
O O5 0.406447 0.552073 0.582897
O O6 0.473179 0.326807 0.482409
O O7 0.348064 0.343326 0.405461
O O8 0.500000 0.601161 0.750000
O O9 0.757185 0.329110 0.266632
O O10 0.741839 0.092574 0.087252
O O11 0.250000 0.250000 0.000000
#
# Coordination Sequence:
#
# PCOD9278001 Si02
#       5
#     8   8   8   8   8
#     4  10  21  42  63  93 128 164 210 258 316 374
#     4  10  23  41  62  95 125 163 211 255 320 374
#     4  11  22  41  65  93 127 165 208 261 311 376
#     4  10  20  42  64  91 128 164 208 262 316 373
#     4   9  21  39  62  91 122 163 208 256 314 368
#
# _framework density 24.654115999999998
#
# number of rings (size 3 to 8) (size 9 to 14) (size 15 to 20)
#    0.000    2.000    2.000    0.600    2.800    0.800 
#   21.600    3.000    0.000    0.000    0.000    0.000 
#    0.000    0.000    0.000    0.000    0.000    0.000 
#
# Total GULP energy -111628.566325 kJ/mol
# GULP energy per Si atom -5581.428316 kJ/mol
# Density = 2.459800 g / cm^3
# Si number density = 24.654116 Si / 1000 Ang^3
#
#
#
# Elastic Constant Matrix: (Units=GPa)
#
#
# Indices 1 2 3 4 5 6 
#
# 1 72.6229 39.1831 40.7648 0.0000 6.7262 0.0000
# 2 39.1831 115.1886 50.0780 0.0000 21.1136 0.0000
# 3 40.7648 50.0780 92.0023 0.0000 40.9119 0.0000
# 4 0.0000 0.0000 0.0000 40.9522 0.0000 8.9751
# 5 6.7262 21.1136 40.9119 0.0000 46.7309 0.0000
# 6 0.0000 0.0000 0.0000 8.9751 0.0000 51.9342
#
#
#
# Elastic Compliance Matrix: (Units=1/GPa)
#
#
# Indices 1 2 3 4 5 6 
#
# 1 0.021324 -0.004011 -0.010981 0.000000 0.008357 0.000000
# 2 -0.004011 0.012133 -0.004333 0.000000 -0.001111 0.000000
# 3 -0.010981 -0.004333 0.027051 0.000000 -0.020144 0.000000
# 4 0.000000 0.000000 0.000000 0.025380 0.000000 -0.004386
# 5 0.008357 -0.001111 -0.020144 0.000000 0.038335 0.000000
# 6 0.000000 0.000000 0.000000 -0.004386 0.000000 0.020013
#
#
# Mechanical properties :
#
#
# Convention : Reuss Voigt Hill
#
# Bulk Modulus (GPa) = 45.74942 59.98504 52.86723
# Shear Modulus (GPa) = 26.29199 37.90933 32.10066
#
# Velocity S-wave (km/s) = 3.26917 3.92554 3.61229
# Velocity P-wave (km/s) = 5.73121 6.70298 6.23605
#
# Compressibility (1/GPa) = 0.02185820
#
# Stress axis : x y z
#
# Youngs Moduli (GPa) = 46.89566 82.41770 36.96721
#
# Poissons Ratio (x) = 0.33062 0.40593
# Poissons Ratio (y) = 0.18812 0.16017
# Poissons Ratio (z) = 0.51496 0.35709
#
# Static dielectric constant tensor:
#      x y z
#    x 1.980620 0.000000 -0.040970 
#    y 0.000000 2.008570 0.000000 
#    z -0.040970 0.000000 2.076170 
# 
# From -- ./inp_files/120867.got.cif
#   From: 2010.05.17/outbox.cif.g08.bks.cpg/sg15_61_cif.got.tgz:120867.got - 2010.06.03 18:47:42.
