data_PCOD9278464
_publ_section_title
;
Structure prediction by ZEFSAII (Michael W. Deem and Ramdas Pophale) SiO2 
 PCOD9278464
Probable space group: C 2/C
;
_chemical_formula_sum "Si O2"
_cell_formula_units_Z 48
_cell_length_a 10.862685
_cell_length_b 11.376722
_cell_length_c 23.291556
_cell_angle_alpha 90.000000
_cell_angle_beta 41.375601
_cell_angle_gamma 90.000000
_cell_volume 1902.607852
_symmetry_space_group_name_H-M "C 2/C"
_symmetry_group_IT_number 15
_symmetry_cell_setting 'monoclinic'
loop_
_space_group_symop_operation_xyz
x,y,z
-x,y,1/2-z
-x,-y,-z
x,-y,1/2+z
1/2+x,1/2+y,z
1/2-x,1/2+y,1/2-z
1/2-x,1/2-y,-z
1/2+x,1/2-y,1/2+z
loop_
_atom_site_type_symbol
_atom_site_label
_atom_site_fract_x
_atom_site_fract_y
_atom_site_fract_z
Si Si1 0.650509 0.712400 0.781659
Si Si2 0.612252 0.901418 0.580700
Si Si3 0.310291 0.776710 0.544626
Si Si4 0.161843 0.838169 0.887334
Si Si5 0.593533 0.499298 0.106232
Si Si6 0.523172 0.899241 0.181138
O O1 0.526691 0.792925 0.867264
O O2 0.695847 0.779108 0.706794
O O3 0.541590 0.589363 0.813236
O O4 0.854372 0.692036 0.736514
O O5 0.737466 0.895871 0.594287
O O6 0.750909 0.921008 0.480290
O O7 0.500426 0.020615 0.633073
O O8 0.250000 0.750000 0.500000
O O9 0.529708 0.761007 0.462697
O O10 0.216575 0.669899 0.611340
O O11 0.213397 0.898778 0.595595
O O12 0.035884 0.931076 0.895307
O O13 0.500000 0.962807 0.250000
#
# Coordination Sequence:
#
# PCOD9278464 Si02
#       6
#     8   8   8   8   8   8
#     4  12  24  39  63  99 135 165 214 273 326 386
#     4  12  24  42  69  99 126 169 223 274 322 378
#     4  10  20  43  66  94 129 175 208 268 332 380
#     4  11  22  43  70  98 127 170 224 270 321 379
#     4  11  22  42  67  94 134 174 213 268 333 383
#     4  12  24  41  69  97 127 167 226 269 318 386
#
# _framework density 25.228529999999999
#
# number of rings (size 3 to 8) (size 9 to 14) (size 15 to 20)
#    0.000    0.667    6.667    4.500    2.333    0.000 
#    0.000    2.500    0.000    0.000    0.000    0.000 
#    0.000    0.000    0.000    0.000    0.000    0.000 
#
# Total GULP energy -134344.963788 kJ/mol
# GULP energy per Si atom -5597.706824 kJ/mol
# Density = 2.517111 g / cm^3
# Si number density = 25.228530 Si / 1000 Ang^3
#
#
#
# Elastic Constant Matrix: (Units=GPa)
#
#
# Indices 1 2 3 4 5 6 
#
# 1 27.5009 7.9592 7.7918 0.0000 -7.9257 0.0000
# 2 7.9592 96.7371 45.0325 0.0000 -10.8342 0.0000
# 3 7.7918 45.0325 126.5004 0.0000 -13.7183 0.0000
# 4 0.0000 0.0000 0.0000 54.3700 0.0000 -15.5490
# 5 -7.9257 -10.8342 -13.7183 0.0000 26.9033 0.0000
# 6 0.0000 0.0000 0.0000 -15.5490 0.0000 28.5389
#
#
#
# Elastic Compliance Matrix: (Units=1/GPa)
#
#
# Indices 1 2 3 4 5 6 
#
# 1 0.040175 -0.001787 -0.000670 0.000000 0.010774 0.000000
# 2 -0.001787 0.012688 -0.004138 0.000000 0.002473 0.000000
# 3 -0.000670 -0.004138 0.009757 0.000000 0.003111 0.000000
# 4 0.000000 0.000000 0.000000 0.021787 0.000000 0.011870
# 5 0.010774 0.002473 0.003111 0.000000 0.042926 0.000000
# 6 0.000000 0.000000 0.000000 0.011870 0.000000 0.041507
#
#
# Mechanical properties :
#
#
# Convention : Reuss Voigt Hill
#
# Bulk Modulus (GPa) = 20.23121 41.36726 30.79924
# Shear Modulus (GPa) = 25.18799 34.62610 29.90705
#
# Velocity S-wave (km/s) = 3.16316 3.70874 3.44677
# Velocity P-wave (km/s) = 4.62357 5.89681 5.29857
#
# Compressibility (1/GPa) = 0.04942858
#
# Stress axis : x y z
#
# Youngs Moduli (GPa) = 24.89140 78.81603 102.49040
#
# Poissons Ratio (x) = 0.14083 0.06867
# Poissons Ratio (y) = 0.04448 0.42415
# Poissons Ratio (z) = 0.01668 0.32618
#
# Static dielectric constant tensor:
#      x y z
#    x 2.029650 0.000000 -0.004370 
#    y 0.000000 2.100600 0.000000 
#    z -0.004370 0.000000 2.052790 
# 
# From -- ./inp_files/313534.got.cif
#   From: 2010.05.17/outbox.cif.g08.bks.cpg/sg15_157_cif.got.tgz:313534.got - 2010.06.03 18:47:42.
