data_PCOD9278163
_publ_section_title
;
Structure prediction by ZEFSAII (Michael W. Deem and Ramdas Pophale) SiO2 
 PCOD9278163
Probable space group: C 2/C
;
_chemical_formula_sum "Si O2"
_cell_formula_units_Z 56
_cell_length_a 21.560808
_cell_length_b 13.113377
_cell_length_c 8.130556
_cell_angle_alpha 90.000000
_cell_angle_beta 96.224531
_cell_angle_gamma 90.000000
_cell_volume 2285.240555
_symmetry_space_group_name_H-M "C 2/C"
_symmetry_group_IT_number 15
_symmetry_cell_setting 'monoclinic'
loop_
_space_group_symop_operation_xyz
x,y,z
-x,y,1/2-z
-x,-y,-z
x,-y,1/2+z
1/2+x,1/2+y,z
1/2-x,1/2+y,1/2-z
1/2-x,1/2-y,-z
1/2+x,1/2-y,1/2+z
loop_
_atom_site_type_symbol
_atom_site_label
_atom_site_fract_x
_atom_site_fract_y
_atom_site_fract_z
Si Si1 0.310753 0.207175 0.104731
Si Si2 0.585032 0.650719 0.754309
Si Si3 0.500000 0.483999 0.750000
Si Si4 0.378597 0.873166 0.100199
Si Si5 0.587232 0.933170 0.040884
Si Si6 0.885458 0.871293 0.597876
Si Si7 0.755581 0.363806 0.930724
Si Si8 0.500000 0.838543 0.750000
O O1 0.351579 0.308999 0.150776
O O2 0.352776 0.130359 0.009758
O O3 0.289877 0.151149 0.266277
O O4 0.250000 0.250000 0.000000
O O5 0.542058 0.575421 0.851912
O O6 0.596076 0.596547 0.582748
O O7 0.551092 0.756752 0.704757
O O8 0.440855 0.406388 0.735131
O O9 0.416486 0.902969 0.272249
O O10 0.381754 0.751734 0.092479
O O11 0.404545 0.945893 0.966276
O O12 0.305441 0.908618 0.075145
O O13 0.531929 0.899394 0.905703
O O14 0.814184 0.907599 0.609340
O O15 0.750000 0.250000 0.000000
#
# Coordination Sequence:
#
# PCOD9278163 Si02
#       8
#     8   8   4   8   8   8   8   4
#     4  11  21  41  73 102 141 190 239 295 366 429
#     4  10  22  46  69  95 142 181 232 306 344 424
#     4  11  26  45  68 108 132 195 252 287 370 434
#     4  11  24  43  70 102 138 183 231 295 364 431
#     4  11  25  42  68 102 139 180 237 285 359 441
#     4  11  24  44  71  96 146 183 233 298 359 427
#     4  10  20  42  66  99 139 180 227 292 359 412
#     4   9  24  43  66  96 136 177 226 285 352 420
#
# _framework density 24.50508
#
# number of rings (size 3 to 8) (size 9 to 14) (size 15 to 20)
#    0.000    1.429    2.857    3.000    4.000    2.286 
#   10.286    0.000    0.000    0.000    0.000    0.000 
#    0.000    0.000    0.000    0.000    0.000    0.000 
#
# Total GULP energy -156080.004292 kJ/mol
# GULP energy per Si atom -5574.285868 kJ/mol
# Density = 2.444931 g / cm^3
# Si number density = 24.505080 Si / 1000 Ang^3
#
#
#
# Elastic Constant Matrix: (Units=GPa)
#
#
# Indices 1 2 3 4 5 6 
#
# 1 165.9880 41.3681 38.3342 0.0000 56.5932 0.0000
# 2 41.3681 116.2603 25.7755 0.0000 24.5137 0.0000
# 3 38.3342 25.7755 80.9813 0.0000 39.0845 0.0000
# 4 0.0000 0.0000 0.0000 25.7323 0.0000 0.6828
# 5 56.5932 24.5137 39.0845 0.0000 50.6365 0.0000
# 6 0.0000 0.0000 0.0000 0.6828 0.0000 23.4537
#
#
#
# Elastic Compliance Matrix: (Units=1/GPa)
#
#
# Indices 1 2 3 4 5 6 
#
# 1 0.009991 -0.001419 0.001243 0.000000 -0.011439 0.000000
# 2 -0.001419 0.009866 -0.001480 0.000000 -0.002048 0.000000
# 3 0.001243 -0.001480 0.020010 0.000000 -0.016118 0.000000
# 4 0.000000 0.000000 0.000000 0.038892 0.000000 -0.001132
# 5 -0.011439 -0.002048 -0.016118 0.000000 0.045966 0.000000
# 6 0.000000 0.000000 0.000000 -0.001132 0.000000 0.042670
#
#
# Mechanical properties :
#
#
# Convention : Reuss Voigt Hill
#
# Bulk Modulus (GPa) = 27.35543 63.79838 45.57690
# Shear Modulus (GPa) = 27.33845 37.14795 32.24320
#
# Velocity S-wave (km/s) = 3.34372 3.89772 3.63130
# Velocity P-wave (km/s) = 5.10830 6.80790 6.01840
#
# Compressibility (1/GPa) = 0.03655582
#
# Stress axis : x y z
#
# Youngs Moduli (GPa) = 100.08816 101.35573 49.97423
#
# Poissons Ratio (x) = 0.14379 -0.06211
# Poissons Ratio (y) = 0.14200 0.07397
# Poissons Ratio (z) = -0.12440 0.15003
#
# Static dielectric constant tensor:
#      x y z
#    x 2.108890 0.000000 -0.070630 
#    y 0.000000 1.916290 0.000000 
#    z -0.070630 0.000000 2.012210 
# 
# From -- ./inp_files/61629.got.cif
#   From: 2010.05.17/outbox.cif.g08.bks.cpg/sg15_31_cif.got.tgz:61629.got - 2010.06.03 18:47:42.
