data_PCOD9278283
_publ_section_title
;
Structure prediction by ZEFSAII (Michael W. Deem and Ramdas Pophale) SiO2 
 PCOD9278283
Probable space group: C 2/C
;
_chemical_formula_sum "Si O2"
_cell_formula_units_Z 56
_cell_length_a 20.284777
_cell_length_b 6.602129
_cell_length_c 19.093632
_cell_angle_alpha 90.000000
_cell_angle_beta 105.421016
_cell_angle_gamma 90.000000
_cell_volume 2465.011187
_symmetry_space_group_name_H-M "C 2/C"
_symmetry_group_IT_number 15
_symmetry_cell_setting 'monoclinic'
loop_
_space_group_symop_operation_xyz
x,y,z
-x,y,1/2-z
-x,-y,-z
x,-y,1/2+z
1/2+x,1/2+y,z
1/2-x,1/2+y,1/2-z
1/2-x,1/2-y,-z
1/2+x,1/2-y,1/2+z
loop_
_atom_site_type_symbol
_atom_site_label
_atom_site_fract_x
_atom_site_fract_y
_atom_site_fract_z
Si Si1 0.890296 0.740804 0.152967
Si Si2 0.059739 0.088731 0.222524
Si Si3 0.158559 0.556039 0.755299
Si Si4 0.329923 0.473470 0.971314
Si Si5 0.469736 0.545319 0.568580
Si Si6 0.299411 0.734951 0.837458
Si Si7 0.756170 0.425050 0.431700
O O1 0.877349 0.524783 0.184472
O O2 0.917766 0.903716 0.219144
O O3 0.942591 0.749225 0.101672
O O4 0.813652 0.810213 0.109938
O O5 0.121533 0.238418 0.224425
O O6 0.000000 0.197658 0.250000
O O7 0.023828 0.032705 0.139758
O O8 0.238549 0.609261 0.784799
O O9 0.155052 0.365071 0.702209
O O10 0.336832 0.583753 0.900017
O O11 0.318878 0.233318 0.952931
O O12 0.393263 0.544925 0.036770
O O13 0.261243 0.513371 0.996647
O O14 0.500000 0.500000 0.500000
O O15 0.267265 0.902049 0.879364
#
# Coordination Sequence:
#
# PCOD9278283 Si02
#       7
#     8   8   8   8   8   8   8
#     4  10  21  45  71  96 129 181 231 285 344 407
#     4  10  24  47  69  94 137 186 235 277 335 415
#     4  12  26  40  70 103 136 179 234 289 350 404
#     4  10  23  42  66  96 136 174 222 279 355 415
#     4  10  24  43  71  95 137 184 222 281 343 409
#     4  12  25  39  66 105 135 169 229 294 346 411
#     4  10  20  42  69  97 130 176 218 281 360 410
#
# _framework density 22.717952
#
# number of rings (size 3 to 8) (size 9 to 14) (size 15 to 20)
#    0.000    1.429    2.857    1.286    4.000    1.714 
#    0.000    2.143    0.000    0.000    0.000    0.000 
#    0.000    0.000    0.000    0.000    0.000    0.000 
#
# Total GULP energy -156042.390455 kJ/mol
# GULP energy per Si atom -5572.942516 kJ/mol
# Density = 2.266624 g / cm^3
# Si number density = 22.717952 Si / 1000 Ang^3
#
#
#
# Elastic Constant Matrix: (Units=GPa)
#
#
# Indices 1 2 3 4 5 6 
#
# 1 45.0976 4.2101 32.0112 0.0000 -4.6634 0.0000
# 2 4.2101 44.0956 21.1900 0.0000 -0.9449 0.0000
# 3 32.0112 21.1900 121.6969 0.0000 6.6632 0.0000
# 4 0.0000 0.0000 0.0000 28.1712 0.0000 -3.8417
# 5 -4.6634 -0.9449 6.6632 0.0000 51.7902 0.0000
# 6 0.0000 0.0000 0.0000 -3.8417 0.0000 30.0251
#
#
#
# Elastic Compliance Matrix: (Units=1/GPa)
#
#
# Indices 1 2 3 4 5 6 
#
# 1 0.027924 0.001126 -0.007735 0.000000 0.003530 0.000000
# 2 0.001126 0.024847 -0.004686 0.000000 0.001158 0.000000
# 3 -0.007735 -0.004686 0.011189 0.000000 -0.002222 0.000000
# 4 0.000000 0.000000 0.000000 0.036128 0.000000 0.004623
# 5 0.003530 0.001158 -0.002222 0.000000 0.019933 0.000000
# 6 0.000000 0.000000 0.000000 0.004623 0.000000 0.033897
#
#
# Mechanical properties :
#
#
# Convention : Reuss Voigt Hill
#
# Bulk Modulus (GPa) = 24.17098 36.19031 30.18064
# Shear Modulus (GPa) = 26.27461 32.22922 29.25192
#
# Velocity S-wave (km/s) = 3.40451 3.77061 3.59222
# Velocity P-wave (km/s) = 5.11047 5.90944 5.52442
#
# Compressibility (1/GPa) = 0.04137193
#
# Stress axis : x y z
#
# Youngs Moduli (GPa) = 35.81127 40.24605 89.37165
#
# Poissons Ratio (x) = -0.04533 0.69125
# Poissons Ratio (y) = -0.04034 0.41880
# Poissons Ratio (z) = 0.27699 0.18860
#
# Static dielectric constant tensor:
#      x y z
#    x 1.899230 0.000000 -0.035080 
#    y 0.000000 1.852680 0.000000 
#    z -0.035080 0.000000 1.926480 
# 
# From -- ./inp_files/254378.got.cif
#   From: 2010.05.17/outbox.cif.g08.bks.cpg/sg15_128_cif.got.tgz:254378.got - 2010.06.03 18:47:42.
