data_PCOD9278727
_publ_section_title
;
Structure prediction by ZEFSAII (Michael W. Deem and Ramdas Pophale) SiO2 
 PCOD9278727
Probable space group: C 2/C
;
_chemical_formula_sum "Si O2"
_cell_formula_units_Z 36
_cell_length_a 13.588418
_cell_length_b 10.688936
_cell_length_c 9.080201
_cell_angle_alpha 90.000000
_cell_angle_beta 110.592682
_cell_angle_gamma 90.000000
_cell_volume 1234.591135
_symmetry_space_group_name_H-M "C 2/C"
_symmetry_group_IT_number 15
_symmetry_cell_setting 'monoclinic'
loop_
_space_group_symop_operation_xyz
x,y,z
-x,y,1/2-z
-x,-y,-z
x,-y,1/2+z
1/2+x,1/2+y,z
1/2-x,1/2+y,1/2-z
1/2-x,1/2-y,-z
1/2+x,1/2-y,1/2+z
loop_
_atom_site_type_symbol
_atom_site_label
_atom_site_fract_x
_atom_site_fract_y
_atom_site_fract_z
Si Si1 0.879903 0.346895 0.130089
Si Si2 0.160613 0.836084 0.515764
Si Si3 0.310632 0.962728 0.802510
Si Si4 0.576015 0.423645 0.922907
Si Si5 0.500000 0.813012 0.750000
O O1 0.813390 0.396011 0.237403
O O2 0.000000 0.353153 0.250000
O O3 0.852312 0.445177 0.988413
O O4 0.632339 0.288418 0.959180
O O5 0.250000 0.750000 0.500000
O O6 0.205471 0.887308 0.695607
O O7 0.154957 0.965596 0.423267
O O8 0.051467 0.767428 0.412601
O O9 0.405552 0.893108 0.764724
O O10 0.500000 0.402111 0.750000
O O11 0.500000 0.500000 0.000000
#
# Coordination Sequence:
#
# PCOD9278727 Si02
#       5
#     8   8   8   8   4
#     4  11  25  46  73 111 150 202 251 321 386 460
#     4  10  23  44  77 112 147 206 255 318 390 471
#     4  11  24  45  74 109 149 197 262 314 389 461
#     4  11  25  48  79 110 152 205 260 317 398 470
#     4  10  20  44  76  98 148 196 254 296 396 452
#
# _framework density 29.159448000000001
#
# number of rings (size 3 to 8) (size 9 to 14) (size 15 to 20)
#    0.000    1.333    2.222    2.000    3.111    2.667 
#    8.000    0.000    0.000    0.000    0.000    0.000 
#    0.000    0.000    0.000    0.000    0.000    0.000 
#
# Total GULP energy -100654.712163 kJ/mol
# GULP energy per Si atom -5591.928453 kJ/mol
# Density = 2.909308 g / cm^3
# Si number density = 29.159448 Si / 1000 Ang^3
#
#
#
# Elastic Constant Matrix: (Units=GPa)
#
#
# Indices 1 2 3 4 5 6 
#
# 1 109.5523 72.0667 51.9518 0.0000 19.3732 0.0000
# 2 72.0667 220.9799 61.3785 0.0000 5.0799 0.0000
# 3 51.9518 61.3785 190.3208 0.0000 19.7387 0.0000
# 4 0.0000 0.0000 0.0000 60.5197 0.0000 11.6892
# 5 19.3732 5.0799 19.7387 0.0000 61.7176 0.0000
# 6 0.0000 0.0000 0.0000 11.6892 0.0000 38.9503
#
#
#
# Elastic Compliance Matrix: (Units=1/GPa)
#
#
# Indices 1 2 3 4 5 6 
#
# 1 0.013035 -0.003604 -0.002071 0.000000 -0.003133 0.000000
# 2 -0.003604 0.005968 -0.001042 0.000000 0.000973 0.000000
# 3 -0.002071 -0.001042 0.006288 0.000000 -0.001275 0.000000
# 4 0.000000 0.000000 0.000000 0.017540 0.000000 -0.005264
# 5 -0.003133 0.000973 -0.001275 0.000000 0.017514 0.000000
# 6 0.000000 0.000000 0.000000 -0.005264 0.000000 0.027253
#
#
# Mechanical properties :
#
#
# Convention : Reuss Voigt Hill
#
# Bulk Modulus (GPa) = 84.33700 99.07190 91.70445
# Shear Modulus (GPa) = 47.62672 54.60126 51.11399
#
# Velocity S-wave (km/s) = 4.04582 4.33194 4.19132
# Velocity P-wave (km/s) = 7.12814 7.68574 7.41219
#
# Compressibility (1/GPa) = 0.01185719
#
# Stress axis : x y z
#
# Youngs Moduli (GPa) = 76.71794 167.57349 159.03747
#
# Poissons Ratio (x) = 0.60388 0.32937
# Poissons Ratio (y) = 0.27647 0.16568
# Poissons Ratio (z) = 0.15888 0.17457
#
# Static dielectric constant tensor:
#      x y z
#    x 3.417500 0.000000 -0.958080 
#    y 0.000000 2.433760 0.000000 
#    z -0.958080 0.000000 3.063270 
# 
# From -- ./inp_files/38794.got.cif
#   From: 2010.05.17/outbox.cif.g08.bks.cpg/sg15_20_cif.got.tgz:38794.got - 2010.06.03 18:47:42.
