data_PCOD9278474
_publ_section_title
;
Structure prediction by ZEFSAII (Michael W. Deem and Ramdas Pophale) SiO2 
 PCOD9278474
Probable space group: C 2/C
;
_chemical_formula_sum "Si O2"
_cell_formula_units_Z 48
_cell_length_a 21.319331
_cell_length_b 10.879737
_cell_length_c 13.880316
_cell_angle_alpha 90.000000
_cell_angle_beta 141.372569
_cell_angle_gamma 90.000000
_cell_volume 2009.798135
_symmetry_space_group_name_H-M "C 2/C"
_symmetry_group_IT_number 15
_symmetry_cell_setting 'monoclinic'
loop_
_space_group_symop_operation_xyz
x,y,z
-x,y,1/2-z
-x,-y,-z
x,-y,1/2+z
1/2+x,1/2+y,z
1/2-x,1/2+y,1/2-z
1/2-x,1/2-y,-z
1/2+x,1/2-y,1/2+z
loop_
_atom_site_type_symbol
_atom_site_label
_atom_site_fract_x
_atom_site_fract_y
_atom_site_fract_z
Si Si1 0.128800 0.575466 0.663567
Si Si2 0.627807 0.192281 0.245866
Si Si3 0.822698 0.659579 0.981564
Si Si4 0.292264 0.590562 0.146674
Si Si5 0.666567 0.325542 0.018799
Si Si6 0.984168 0.810397 0.932802
O O1 0.105386 0.438463 0.668510
O O2 0.114666 0.616345 0.535773
O O3 0.246921 0.596054 0.825180
O O4 0.068748 0.678012 0.651670
O O5 0.743970 0.231099 0.365180
O O6 0.618681 0.186786 0.350057
O O7 0.554401 0.290746 0.109386
O O8 0.752195 0.542841 0.918974
O O9 0.205155 0.684511 0.075855
O O10 0.389695 0.600031 0.331254
O O11 0.329261 0.639061 0.087589
O O12 0.559595 0.343500 0.938210
#
# Coordination Sequence:
#
# PCOD9278474 Si02
#       6
#     8   8   8   8   8   8
#     4  11  23  43  72  98 139 191 236 292 354 430
#     4  11  24  44  65 103 138 187 238 283 364 424
#     4  11  24  43  70  95 147 190 224 294 366 429
#     4  10  22  40  70 101 135 189 233 296 358 411
#     4  10  20  43  67 101 137 179 240 293 348 422
#     4  11  23  41  70 104 132 178 246 294 343 417
#
# _framework density 23.882995000000001
#
# number of rings (size 3 to 8) (size 9 to 14) (size 15 to 20)
#    0.000    1.333    3.333    2.000    2.333    1.333 
#    3.000    0.000    3.667    0.000    0.000    0.000 
#    0.000    0.000    0.000    0.000    0.000    0.000 
#
# Total GULP energy -134387.051655 kJ/mol
# GULP energy per Si atom -5599.460486 kJ/mol
# Density = 2.382864 g / cm^3
# Si number density = 23.882995 Si / 1000 Ang^3
#
#
#
# Elastic Constant Matrix: (Units=GPa)
#
#
# Indices 1 2 3 4 5 6 
#
# 1 73.3004 4.1097 20.1131 0.0000 -1.4669 0.0000
# 2 4.1097 59.7380 -4.9307 0.0000 1.6224 0.0000
# 3 20.1131 -4.9307 51.1015 0.0000 -8.7689 0.0000
# 4 0.0000 0.0000 0.0000 28.1485 0.0000 -0.7938
# 5 -1.4669 1.6224 -8.7689 0.0000 45.8962 0.0000
# 6 0.0000 0.0000 0.0000 -0.7938 0.0000 16.3041
#
#
#
# Elastic Compliance Matrix: (Units=1/GPa)
#
#
# Indices 1 2 3 4 5 6 
#
# 1 0.015460 -0.001570 -0.006350 0.000000 -0.000664 0.000000
# 2 -0.001570 0.017037 0.002223 0.000000 -0.000228 0.000000
# 3 -0.006350 0.002223 0.022988 0.000000 0.004111 0.000000
# 4 0.000000 0.000000 0.000000 0.035575 0.000000 0.001732
# 5 -0.000664 -0.000228 0.004111 0.000000 0.022560 0.000000
# 6 0.000000 0.000000 0.000000 0.001732 0.000000 0.061418
#
#
# Mechanical properties :
#
#
# Convention : Reuss Voigt Hill
#
# Bulk Modulus (GPa) = 22.68047 24.74712 23.71379
# Shear Modulus (GPa) = 24.85953 29.05962 26.95958
#
# Velocity S-wave (km/s) = 3.22978 3.49198 3.36343
# Velocity P-wave (km/s) = 4.84002 5.16167 5.00343
#
# Compressibility (1/GPa) = 0.04409081
#
# Stress axis : x y z
#
# Youngs Moduli (GPa) = 64.68451 58.69442 43.50079
#
# Poissons Ratio (x) = 0.09213 0.27624
# Poissons Ratio (y) = 0.10153 -0.09669
# Poissons Ratio (z) = 0.41076 -0.13046
#
# Static dielectric constant tensor:
#      x y z
#    x 1.913120 0.000000 -0.007020 
#    y 0.000000 1.909570 0.000000 
#    z -0.007020 0.000000 1.941900 
# 
# From -- ./inp_files/167916.got.cif
#   From: 2010.05.17/outbox.cif.g08.bks.cpg/sg15_84_cif.got.tgz:167916.got - 2010.06.03 18:47:42.
