data_PCOD9278495
_publ_section_title
;
Structure prediction by ZEFSAII (Michael W. Deem and Ramdas Pophale) SiO2 
 PCOD9278495
Probable space group: C 2/C
;
_chemical_formula_sum "Si O2"
_cell_formula_units_Z 40
_cell_length_a 7.921258
_cell_length_b 22.705266
_cell_length_c 9.709657
_cell_angle_alpha 90.000000
_cell_angle_beta 104.476615
_cell_angle_gamma 90.000000
_cell_volume 1690.877073
_symmetry_space_group_name_H-M "C 2/C"
_symmetry_group_IT_number 15
_symmetry_cell_setting 'monoclinic'
loop_
_space_group_symop_operation_xyz
x,y,z
-x,y,1/2-z
-x,-y,-z
x,-y,1/2+z
1/2+x,1/2+y,z
1/2-x,1/2+y,1/2-z
1/2-x,1/2-y,-z
1/2+x,1/2-y,1/2+z
loop_
_atom_site_type_symbol
_atom_site_label
_atom_site_fract_x
_atom_site_fract_y
_atom_site_fract_z
Si Si1 0.248324 0.557840 0.072720
Si Si2 0.300630 0.757875 0.172059
Si Si3 0.146893 0.119046 0.671679
Si Si4 0.164269 0.426353 0.060734
Si Si5 0.209168 0.362383 0.807520
O O1 0.355869 0.595143 0.983282
O O2 0.040612 0.568702 0.011119
O O3 0.261472 0.488213 0.055205
O O4 0.282828 0.583530 0.231559
O O5 0.500000 0.775419 0.250000
O O6 0.175436 0.811439 0.186670
O O7 0.273118 0.698174 0.253304
O O8 0.250000 0.750000 0.000000
O O9 0.313615 0.089236 0.776556
O O10 0.000000 0.100947 0.750000
O O11 0.240170 0.376145 0.974182
O O12 0.000000 0.361051 0.750000
#
# Coordination Sequence:
#
# PCOD9278495 Si02
#       5
#     8   8   8   8   8
#     4  10  20  43  67  99 137 175 231 276 345 412
#     4  12  27  47  74  98 137 186 231 291 352 417
#     4  12  26  42  66  99 139 179 230 285 350 409
#     4  10  22  39  71 100 130 182 224 286 335 420
#     4  10  22  40  68  99 134 174 229 282 344 410
#
# _framework density 23.656359999999999
#
# number of rings (size 3 to 8) (size 9 to 14) (size 15 to 20)
#    0.000    1.200    2.000    3.600    5.600    4.800 
#    0.000    2.000    0.000    0.000    0.000    0.000 
#    0.000    0.000    0.000    0.000    0.000    0.000 
#
# Total GULP energy -111774.446034 kJ/mol
# GULP energy per Si atom -5588.722302 kJ/mol
# Density = 2.360252 g / cm^3
# Si number density = 23.656360 Si / 1000 Ang^3
#
#
#
# Elastic Constant Matrix: (Units=GPa)
#
#
# Indices 1 2 3 4 5 6 
#
# 1 75.9057 17.0439 17.5205 0.0000 -17.4018 0.0000
# 2 17.0439 97.3390 5.6756 0.0000 -24.3246 0.0000
# 3 17.5205 5.6756 94.2929 0.0000 -7.9407 0.0000
# 4 0.0000 0.0000 0.0000 27.7408 0.0000 -17.4317
# 5 -17.4018 -24.3246 -7.9407 0.0000 35.5894 0.0000
# 6 0.0000 0.0000 0.0000 -17.4317 0.0000 13.3029
#
#
#
# Elastic Compliance Matrix: (Units=1/GPa)
#
#
# Indices 1 2 3 4 5 6 
#
# 1 0.015370 -0.000974 -0.002263 0.000000 0.006345 0.000000
# 2 -0.000974 0.012451 0.000110 0.000000 0.008059 0.000000
# 3 -0.002263 0.000110 0.011142 0.000000 0.001455 0.000000
# 4 0.000000 0.000000 0.000000 0.204129 0.000000 0.267484
# 5 0.006345 0.008059 0.001455 0.000000 0.037033 0.000000
# 6 0.000000 0.000000 0.000000 0.267484 0.000000 0.425673
#
#
# Mechanical properties :
#
#
# Convention : Reuss Voigt Hill
#
# Bulk Modulus (GPa) = 30.57207 38.66861 34.62034
# Shear Modulus (GPa) = 6.91607 30.47982 18.69794
#
# Velocity S-wave (km/s) = 1.71170 3.59338 2.81445
# Velocity P-wave (km/s) = 4.10585 5.79637 5.02275
#
# Compressibility (1/GPa) = 0.03270959
#
# Stress axis : x y z
#
# Youngs Moduli (GPa) = 65.06272 80.31301 89.75375
#
# Poissons Ratio (x) = 0.07820 0.20311
# Poissons Ratio (y) = 0.06335 -0.00988
# Poissons Ratio (z) = 0.14723 -0.00884
#
# Static dielectric constant tensor:
#      x y z
#    x 2.077370 0.000000 0.096650 
#    y 0.000000 1.879640 0.000000 
#    z 0.096650 0.000000 1.875160 
# 
# From -- ./inp_files/23430.got.cif
#   From: 2010.05.17/outbox.cif.g08.bks.cpg/sg15_12_cif.got.tgz:23430.got - 2010.06.03 18:47:42.
