data_PCOD9278703
_publ_section_title
;
Structure prediction by ZEFSAII (Michael W. Deem and Ramdas Pophale) SiO2 
 PCOD9278703
Probable space group: C 2/C
;
_chemical_formula_sum "Si O2"
_cell_formula_units_Z 56
_cell_length_a 13.993981
_cell_length_b 25.743313
_cell_length_c 14.252299
_cell_angle_alpha 90.000000
_cell_angle_beta 29.915125
_cell_angle_gamma 90.000000
_cell_volume 2560.615895
_symmetry_space_group_name_H-M "C 2/C"
_symmetry_group_IT_number 15
_symmetry_cell_setting 'monoclinic'
loop_
_space_group_symop_operation_xyz
x,y,z
-x,y,1/2-z
-x,-y,-z
x,-y,1/2+z
1/2+x,1/2+y,z
1/2-x,1/2+y,1/2-z
1/2-x,1/2-y,-z
1/2+x,1/2-y,1/2+z
loop_
_atom_site_type_symbol
_atom_site_label
_atom_site_fract_x
_atom_site_fract_y
_atom_site_fract_z
Si Si1 0.629231 0.591295 0.507680
Si Si2 0.235604 0.825311 0.661433
Si Si3 0.549593 0.427404 0.867686
Si Si4 0.000000 0.647778 0.250000
Si Si5 0.631034 0.225783 0.828322
Si Si6 0.000000 0.991359 0.250000
Si Si7 0.159220 0.815486 0.178630
Si Si8 0.713080 0.148152 0.591040
O O1 0.562747 0.563977 0.467666
O O2 0.644325 0.547947 0.575862
O O3 0.463364 0.633910 0.677832
O O4 0.838964 0.617338 0.325100
O O5 0.208922 0.883690 0.714786
O O6 0.436053 0.802112 0.521765
O O7 0.094553 0.784963 0.830724
O O8 0.217486 0.826396 0.564997
O O9 0.576576 0.472787 0.769242
O O10 0.353731 0.397035 0.006207
O O11 0.847700 0.672791 0.454789
O O12 0.778003 0.218367 0.787121
O O13 0.690987 0.192896 0.686406
O O14 0.000000 0.787951 0.250000
O O15 0.500000 0.127199 0.750000
#
# Coordination Sequence:
#
# PCOD9278703 Si02
#       8
#     8   8   8   4   8   4   8   8
#     4  11  23  44  73 100 136 183 222 289 347 400
#     4  11  23  39  64  99 135 179 218 278 334 410
#     4  12  23  43  71  94 140 176 226 276 349 399
#     4  10  20  44  72 101 138 173 228 282 344 398
#     4  11  22  39  67  99 136 178 231 263 343 412
#     4  12  24  46  68 101 130 183 230 280 348 406
#     4  10  21  42  72  97 136 180 227 286 336 395
#     4  10  21  39  63  97 135 178 215 276 335 407
#
# _framework density 21.869738999999999
#
# number of rings (size 3 to 8) (size 9 to 14) (size 15 to 20)
#    0.000    1.143    5.000    2.571    0.000    2.286 
#    1.286    1.429    1.571    0.857    0.000    0.000 
#    0.000    0.000    0.000    0.000    0.000    0.000 
#
# Total GULP energy -156277.264163 kJ/mol
# GULP energy per Si atom -5581.330863 kJ/mol
# Density = 2.181996 g / cm^3
# Si number density = 21.869739 Si / 1000 Ang^3
#
#
#
# Elastic Constant Matrix: (Units=GPa)
#
#
# Indices 1 2 3 4 5 6 
#
# 1 131.7582 8.6847 34.1446 0.0135 12.6851 0.0096
# 2 8.6847 54.5848 36.5785 0.0714 5.6446 0.0407
# 3 34.1446 36.5785 106.9054 -0.1673 -4.5111 -0.0947
# 4 0.0135 0.0714 -0.1673 71.8575 0.0663 41.0021
# 5 12.6851 5.6446 -4.5111 0.0663 35.5598 0.0382
# 6 0.0096 0.0407 -0.0947 41.0021 0.0382 39.0881
#
#
#
# Elastic Compliance Matrix: (Units=1/GPa)
#
#
# Indices 1 2 3 4 5 6 
#
# 1 0.008744 0.001264 -0.003383 -0.000007 -0.003749 -0.000001
# 2 0.001264 0.024808 -0.009126 -0.000041 -0.005546 0.000000
# 3 -0.003383 -0.009126 0.013743 0.000038 0.004399 0.000000
# 4 -0.000007 -0.000041 0.000038 0.034665 -0.000012 -0.036362
# 5 -0.003749 -0.005546 0.004399 -0.000012 0.030897 0.000000
# 6 -0.000001 0.000000 0.000000 -0.036362 0.000000 0.063726
#
#
# Mechanical properties :
#
#
# Convention : Reuss Voigt Hill
#
# Bulk Modulus (GPa) = 40.31629 50.22931 45.27280
# Shear Modulus (GPa) = 24.11466 43.55714 33.83590
#
# Velocity S-wave (km/s) = 3.32422 4.46765 3.93766
# Velocity P-wave (km/s) = 5.76270 7.04489 6.43580
#
# Compressibility (1/GPa) = 0.02480387
#
# Stress axis : x y z
#
# Youngs Moduli (GPa) = 114.36277 40.30915 72.76466
#
# Poissons Ratio (x) = -0.05094 0.24619
# Poissons Ratio (y) = -0.14453 0.66406
# Poissons Ratio (z) = 0.38694 0.36786
#
# Static dielectric constant tensor:
#      x y z
#    x 1.795590 0.000000 0.009900 
#    y 0.000000 1.804950 0.000000 
#    z 0.009900 0.000000 1.864500 
# 
# From -- ./inp_files/156927.got.cif
#   From: 2010.05.17/outbox.cif.g08.bks.cpg/sg15_79_cif.got.tgz:156927.got - 2010.06.03 18:47:42.
