data_PCOD9278242
_publ_section_title
;
Structure prediction by ZEFSAII (Michael W. Deem and Ramdas Pophale) SiO2 
 PCOD9278242
Probable space group: C 2/C
;
_chemical_formula_sum "Si O2"
_cell_formula_units_Z 36
_cell_length_a 12.016948
_cell_length_b 8.762300
_cell_length_c 19.719785
_cell_angle_alpha 90.000000
_cell_angle_beta 122.843148
_cell_angle_gamma 90.000000
_cell_volume 1744.518821
_symmetry_space_group_name_H-M "C 2/C"
_symmetry_group_IT_number 15
_symmetry_cell_setting 'monoclinic'
loop_
_space_group_symop_operation_xyz
x,y,z
-x,y,1/2-z
-x,-y,-z
x,-y,1/2+z
1/2+x,1/2+y,z
1/2-x,1/2+y,1/2-z
1/2-x,1/2-y,-z
1/2+x,1/2-y,1/2+z
loop_
_atom_site_type_symbol
_atom_site_label
_atom_site_fract_x
_atom_site_fract_y
_atom_site_fract_z
Si Si1 0.000000 0.332206 0.250000
Si Si2 0.213654 0.130550 0.398629
Si Si3 0.142798 0.932896 0.028146
Si Si4 0.352434 0.398620 0.230158
Si Si5 0.224666 0.446110 0.802852
O O1 0.088829 0.226916 0.327834
O O2 0.100531 0.445038 0.244687
O O3 0.178476 0.064746 0.460685
O O4 0.331275 0.255165 0.442726
O O5 0.234395 0.995929 0.351753
O O6 0.244582 0.029253 0.107994
O O7 0.000000 0.000000 0.000000
O O8 0.500000 0.391883 0.250000
O O9 0.344548 0.488102 0.298195
O O10 0.302005 0.227749 0.222495
#
# Coordination Sequence:
#
# PCOD9278242 Si02
#       5
#     4   8   8   8   8
#     4  10  20  42  68  94 128 174 220 274 318 392
#     4  10  22  40  65  92 133 167 216 267 324 375
#     4  10  22  40  65  94 130 175 206 268 324 389
#     4  12  24  42  68 100 127 173 219 275 319 386
#     4  11  24  41  68  96 131 170 225 266 331 379
#
# _framework density 20.636063
#
# number of rings (size 3 to 8) (size 9 to 14) (size 15 to 20)
#    0.000    1.333    2.222    4.000    3.111    0.889 
#    0.000    1.111    0.000    0.000    0.000    0.000 
#    0.000    0.000    0.000    0.000    0.000    0.000 
#
# Total GULP energy -100568.571262 kJ/mol
# GULP energy per Si atom -5587.142848 kJ/mol
# Density = 2.058909 g / cm^3
# Si number density = 20.636063 Si / 1000 Ang^3
#
#
#
# Elastic Constant Matrix: (Units=GPa)
#
#
# Indices 1 2 3 4 5 6 
#
# 1 88.7597 48.1860 22.5692 0.0000 -0.9099 0.0000
# 2 48.1860 139.4742 43.5739 0.0000 -11.7101 0.0000
# 3 22.5692 43.5739 97.5707 0.0000 -20.9181 0.0000
# 4 0.0000 0.0000 0.0000 16.9386 0.0000 -14.0144
# 5 -0.9099 -11.7101 -20.9181 0.0000 21.8744 0.0000
# 6 0.0000 0.0000 0.0000 -14.0144 0.0000 33.7280
#
#
#
# Elastic Compliance Matrix: (Units=1/GPa)
#
#
# Indices 1 2 3 4 5 6 
#
# 1 0.014250 -0.004600 -0.002066 0.000000 -0.003846 0.000000
# 2 -0.004600 0.009840 -0.002820 0.000000 0.002379 0.000000
# 3 -0.002066 -0.002820 0.014647 0.000000 0.012411 0.000000
# 4 0.000000 0.000000 0.000000 0.089965 0.000000 0.037382
# 5 -0.003846 0.002379 0.012411 0.000000 0.058698 0.000000
# 6 0.000000 0.000000 0.000000 0.037382 0.000000 0.045182
#
#
# Mechanical properties :
#
#
# Convention : Reuss Voigt Hill
#
# Bulk Modulus (GPa) = 50.59848 61.60698 56.10273
# Shear Modulus (GPa) = 19.36913 28.60656 23.98784
#
# Velocity S-wave (km/s) = 3.06699 3.72727 3.41313
# Velocity P-wave (km/s) = 6.09217 6.96004 6.54052
#
# Compressibility (1/GPa) = 0.01976344
#
# Stress axis : x y z
#
# Youngs Moduli (GPa) = 70.17627 101.62591 68.27267
#
# Poissons Ratio (x) = 0.46753 0.14106
# Poissons Ratio (y) = 0.32284 0.19254
# Poissons Ratio (z) = 0.14499 0.28660
#
# Static dielectric constant tensor:
#      x y z
#    x 1.776600 0.000000 0.008740 
#    y 0.000000 1.725910 0.000000 
#    z 0.008740 0.000000 1.758690 
# 
# From -- ./inp_files/194888.got.cif
#   From: 2010.05.17/outbox.cif.g08.bks.cpg/sg15_98_cif.got.tgz:194888.got - 2010.06.03 18:47:42.
