data_PCOD9278853
_publ_section_title
;
Structure prediction by ZEFSAII (Michael W. Deem and Ramdas Pophale) SiO2 
 PCOD9278853
Probable space group: C 2/C
;
_chemical_formula_sum "Si O2"
_cell_formula_units_Z 28
_cell_length_a 14.988484
_cell_length_b 20.105238
_cell_length_c 14.371751
_cell_angle_alpha 90.000000
_cell_angle_beta 160.288566
_cell_angle_gamma 90.000000
_cell_volume 1460.734323
_symmetry_space_group_name_H-M "C 2/C"
_symmetry_group_IT_number 15
_symmetry_cell_setting 'monoclinic'
loop_
_space_group_symop_operation_xyz
x,y,z
-x,y,1/2-z
-x,-y,-z
x,-y,1/2+z
1/2+x,1/2+y,z
1/2-x,1/2+y,1/2-z
1/2-x,1/2-y,-z
1/2+x,1/2-y,1/2+z
loop_
_atom_site_type_symbol
_atom_site_label
_atom_site_fract_x
_atom_site_fract_y
_atom_site_fract_z
Si Si1 0.108560 0.443803 0.957794
Si Si2 0.295020 0.402081 0.635242
Si Si3 0.927055 0.074357 0.460334
Si Si4 0.500000 0.797898 0.250000
O O1 0.000000 0.423901 0.750000
O O2 0.869499 0.429813 0.793114
O O3 0.180049 0.522723 0.022225
O O4 0.368850 0.409278 0.256631
O O5 0.500000 0.397090 0.750000
O O6 0.057288 0.350166 0.388719
O O7 0.433998 0.386818 0.869975
O O8 0.000000 0.000000 0.500000
O O9 0.750000 0.750000 0.500000
#
# Coordination Sequence:
#
# PCOD9278853 Si02
#       4
#     8   8   8   4
#     4  11  20  33  52  80 111 146 177 214 263 329
#     4  11  22  36  56  74 113 151 182 222 273 312
#     4  10  21  31  51  79 106 143 187 208 260 338
#     4  12  26  38  54  76 106 150 198 230 262 312
#
# _framework density 19.168441999999999
#
# number of rings (size 3 to 8) (size 9 to 14) (size 15 to 20)
#    0.000    1.143    2.857    7.714    4.000    0.000 
#    0.000    0.000    0.000    0.000    0.000    0.000 
#    0.000   22.857    0.000    0.000    0.000    0.000 
#
# Total GULP energy -78035.000605 kJ/mol
# GULP energy per Si atom -5573.928615 kJ/mol
# Density = 1.912481 g / cm^3
# Si number density = 19.168442 Si / 1000 Ang^3
#
#
#
# Elastic Constant Matrix: (Units=GPa)
#
#
# Indices 1 2 3 4 5 6 
#
# 1 106.0428 24.4429 46.1043 -0.0006 -13.5776 -0.0007
# 2 24.4429 36.0717 37.1702 -0.0002 -7.8640 -0.0004
# 3 46.1043 37.1702 150.6468 -0.0007 -18.7445 -0.0019
# 4 -0.0006 -0.0002 -0.0007 34.2965 -0.0006 -6.3595
# 5 -13.5776 -7.8640 -18.7445 -0.0006 58.9231 -0.0002
# 6 -0.0007 -0.0004 -0.0019 -6.3595 -0.0002 2.4786
#
#
#
# Elastic Compliance Matrix: (Units=1/GPa)
#
#
# Indices 1 2 3 4 5 6 
#
# 1 0.011780 -0.005564 -0.002069 0.000001 0.001314 0.000002
# 2 -0.005564 0.040060 -0.007992 0.000000 0.001522 -0.000002
# 3 -0.002069 -0.007992 0.009424 0.000002 0.001455 0.000011
# 4 0.000001 0.000000 0.000002 0.055618 0.000002 0.142700
# 5 0.001314 0.001522 0.001455 0.000002 0.017940 0.000007
# 6 0.000002 -0.000002 0.000011 0.142700 0.000007 0.769575
#
#
# Mechanical properties :
#
#
# Convention : Reuss Voigt Hill
#
# Bulk Modulus (GPa) = 33.31749 56.46623 44.89186
# Shear Modulus (GPa) = 5.28735 31.47589 18.38162
#
# Velocity S-wave (km/s) = 1.66263 4.05664 3.10006
# Velocity P-wave (km/s) = 4.59401 7.17382 6.02365
#
# Compressibility (1/GPa) = 0.03001426
#
# Stress axis : x y z
#
# Youngs Moduli (GPa) = 84.88636 24.96233 106.11010
#
# Poissons Ratio (x) = 0.13890 0.21953
# Poissons Ratio (y) = 0.47234 0.84804
# Poissons Ratio (z) = 0.17562 0.19950
#
# Static dielectric constant tensor:
#      x y z
#    x 1.726770 0.000000 -0.047160 
#    y 0.000000 1.622160 0.000000 
#    z -0.047160 0.000000 1.768340 
# 
# From -- ./inp_files/156073.got.cif
#   From: 2010.05.17/outbox.cif.g08.bks.cpg/sg15_79_cif.got.tgz:156073.got - 2010.06.03 18:47:42.
