data_PCOD9278314
_publ_section_title
;
Structure prediction by ZEFSAII (Michael W. Deem and Ramdas Pophale) SiO2 
 PCOD9278314
Probable space group: C 2/C
;
_chemical_formula_sum "Si O2"
_cell_formula_units_Z 56
_cell_length_a 17.770117
_cell_length_b 26.161572
_cell_length_c 8.039091
_cell_angle_alpha 90.000000
_cell_angle_beta 43.556109
_cell_angle_gamma 90.000000
_cell_volume 2575.259538
_symmetry_space_group_name_H-M "C 2/C"
_symmetry_group_IT_number 15
_symmetry_cell_setting 'monoclinic'
loop_
_space_group_symop_operation_xyz
x,y,z
-x,y,1/2-z
-x,-y,-z
x,-y,1/2+z
1/2+x,1/2+y,z
1/2-x,1/2+y,1/2-z
1/2-x,1/2-y,-z
1/2+x,1/2-y,1/2+z
loop_
_atom_site_type_symbol
_atom_site_label
_atom_site_fract_x
_atom_site_fract_y
_atom_site_fract_z
Si Si1 0.910858 0.455308 0.171071
Si Si2 0.778489 0.684478 0.115245
Si Si3 0.359931 0.666373 0.843537
Si Si4 0.500000 0.243890 0.250000
Si Si5 0.217858 0.301191 0.263153
Si Si6 0.395941 0.447286 0.310293
Si Si7 0.000000 0.369570 0.250000
Si Si8 0.749700 0.998730 0.798559
O O1 0.829634 0.469655 0.450314
O O2 0.827489 0.456211 0.150328
O O3 0.970568 0.405102 0.138998
O O4 0.000000 0.500000 0.000000
O O5 0.694555 0.663556 0.385954
O O6 0.770823 0.745241 0.151966
O O7 0.761082 0.671622 0.947702
O O8 0.897792 0.664339 0.962816
O O9 0.437083 0.716384 0.728078
O O10 0.272818 0.674021 0.836303
O O11 0.415016 0.611549 0.731480
O O12 0.409220 0.210549 0.491160
O O13 0.500000 0.463951 0.250000
O O14 0.290387 0.458586 0.595884
O O15 0.357424 0.478804 0.211980
#
# Coordination Sequence:
#
# PCOD9278314 Si02
#       8
#     8   8   8   4   8   8   4   8
#     4  11  21  41  60  95 132 172 207 262 328 386
#     4  10  24  42  63  95 137 170 221 273 319 397
#     4  11  23  43  67  98 132 170 222 275 324 398
#     4  10  20  42  70  91 130 173 216 266 340 384
#     4  10  24  44  66  96 132 178 214 271 340 389
#     4  11  23  44  68  95 126 174 222 275 330 391
#     4  12  24  36  66  95 130 171 220 258 326 396
#     4  10  23  40  67  87 133 169 211 271 327 387
#
# _framework density 21.745380999999998
#
# number of rings (size 3 to 8) (size 9 to 14) (size 15 to 20)
#    0.000    1.429    2.143    3.000    8.000    0.000 
#    0.000    0.000    0.000    0.000    0.000    0.000 
#    0.000    0.000    0.000    0.000    0.000    0.000 
#
# Total GULP energy -156307.149008 kJ/mol
# GULP energy per Si atom -5582.398179 kJ/mol
# Density = 2.169589 g / cm^3
# Si number density = 21.745381 Si / 1000 Ang^3
#
#
#
# Elastic Constant Matrix: (Units=GPa)
#
#
# Indices 1 2 3 4 5 6 
#
# 1 134.0707 24.6306 35.2561 0.0000 -6.1269 0.0000
# 2 24.6306 30.8959 15.3132 0.0000 1.6001 0.0000
# 3 35.2561 15.3132 76.0270 0.0000 -0.4154 0.0000
# 4 0.0000 0.0000 0.0000 5.7174 0.0000 3.8867
# 5 -6.1269 1.6001 -0.4154 0.0000 35.7751 0.0000
# 6 0.0000 0.0000 0.0000 3.8867 0.0000 21.8842
#
#
#
# Elastic Compliance Matrix: (Units=1/GPa)
#
#
# Indices 1 2 3 4 5 6 
#
# 1 0.009497 -0.006098 -0.003165 0.000000 0.001862 0.000000
# 2 -0.006098 0.039975 -0.005239 0.000000 -0.002893 0.000000
# 3 -0.003165 -0.005239 0.015676 0.000000 -0.000126 0.000000
# 4 0.000000 0.000000 0.000000 0.198921 0.000000 -0.035329
# 5 0.001862 -0.002893 -0.000126 0.000000 0.028399 0.000000
# 6 0.000000 0.000000 0.000000 -0.035329 0.000000 0.051970
#
#
# Mechanical properties :
#
#
# Convention : Reuss Voigt Hill
#
# Bulk Modulus (GPa) = 27.66942 43.48817 35.57880
# Shear Modulus (GPa) = 12.97048 23.72824 18.34936
#
# Velocity S-wave (km/s) = 2.44492 3.30689 2.90802
# Velocity P-wave (km/s) = 4.55215 5.88413 5.26047
#
# Compressibility (1/GPa) = 0.03614098
#
# Stress axis : x y z
#
# Youngs Moduli (GPa) = 105.30073 25.01555 63.79281
#
# Poissons Ratio (x) = 0.15255 0.20193
# Poissons Ratio (y) = 0.64216 0.33424
# Poissons Ratio (z) = 0.33332 0.13107
#
# Static dielectric constant tensor:
#      x y z
#    x 1.862750 0.000000 0.028430 
#    y 0.000000 1.784740 0.000000 
#    z 0.028430 0.000000 1.782240 
# 
# From -- ./inp_files/52331.got.cif
#   From: 2010.05.17/outbox.cif.g08.bks.cpg/sg15_27_cif.got.tgz:52331.got - 2010.06.03 18:47:42.
