data_PCOD9278547
_publ_section_title
;
Structure prediction by ZEFSAII (Michael W. Deem and Ramdas Pophale) SiO2 
 PCOD9278547
Probable space group: C 2/C
;
_chemical_formula_sum "Si O2"
_cell_formula_units_Z 40
_cell_length_a 9.109856
_cell_length_b 30.273903
_cell_length_c 9.977377
_cell_angle_alpha 90.000000
_cell_angle_beta 42.635573
_cell_angle_gamma 90.000000
_cell_volume 1863.796334
_symmetry_space_group_name_H-M "C 2/C"
_symmetry_group_IT_number 15
_symmetry_cell_setting 'monoclinic'
loop_
_space_group_symop_operation_xyz
x,y,z
-x,y,1/2-z
-x,-y,-z
x,-y,1/2+z
1/2+x,1/2+y,z
1/2-x,1/2+y,1/2-z
1/2-x,1/2-y,-z
1/2+x,1/2-y,1/2+z
loop_
_atom_site_type_symbol
_atom_site_label
_atom_site_fract_x
_atom_site_fract_y
_atom_site_fract_z
Si Si1 0.982325 0.542060 0.917335
Si Si2 0.030416 0.282731 0.930077
Si Si3 0.500000 0.808981 0.250000
Si Si4 0.143183 0.188538 0.505167
Si Si5 0.500000 0.421009 0.750000
Si Si6 0.167755 0.118796 0.866861
O O1 0.000000 0.528554 0.750000
O O2 0.166301 0.581513 0.804641
O O3 0.736109 0.557119 0.106106
O O4 0.000000 0.500000 0.000000
O O5 0.048276 0.283702 0.078687
O O6 0.008058 0.232192 0.896410
O O7 0.821913 0.306265 0.001920
O O8 0.229619 0.306184 0.721646
O O9 0.688749 0.841960 0.167708
O O10 0.010304 0.143706 0.601800
O O11 0.535865 0.398509 0.582884
#
# Coordination Sequence:
#
# PCOD9278547 Si02
#       6
#     8   8   4   8   4   8
#     4  10  23  45  72 102 135 176 223 283 362 427
#     4  10  23  40  62  94 138 190 224 290 336 402
#     4  12  22  39  64  98 132 172 238 272 341 402
#     4  10  22  42  63  91 138 182 236 279 344 397
#     4  10  20  43  72  96 140 174 212 296 343 414
#     4  11  22  39  69  99 131 181 229 284 337 421
#
# _framework density 21.461569999999998
#
# number of rings (size 3 to 8) (size 9 to 14) (size 15 to 20)
#    0.000    1.600    3.000    2.400    0.000    9.600 
#    0.000    6.000    0.000    0.000    0.000    0.000 
#    0.000    0.000    0.000    0.000    0.000    0.000 
#
# Total GULP energy -111531.816715 kJ/mol
# GULP energy per Si atom -5576.590836 kJ/mol
# Density = 2.141272 g / cm^3
# Si number density = 21.461570 Si / 1000 Ang^3
#
#
#
# Elastic Constant Matrix: (Units=GPa)
#
#
# Indices 1 2 3 4 5 6 
#
# 1 108.2206 74.0845 64.0712 0.0000 6.9580 0.0000
# 2 74.0845 121.6348 68.5638 0.0000 -10.6188 0.0000
# 3 64.0712 68.5638 177.0106 0.0000 0.9175 0.0000
# 4 0.0000 0.0000 0.0000 9.5253 0.0000 12.1426
# 5 6.9580 -10.6188 0.9175 0.0000 34.2716 0.0000
# 6 0.0000 0.0000 0.0000 12.1426 0.0000 -0.8331
#
#
#
# Elastic Compliance Matrix: (Units=1/GPa)
#
#
# Indices 1 2 3 4 5 6 
#
# 1 0.018213 -0.010222 -0.002598 0.000000 -0.006795 0.000000
# 2 -0.010222 0.016658 -0.002791 0.000000 0.007311 0.000000
# 3 -0.002598 -0.002791 0.007673 0.000000 -0.000543 0.000000
# 4 0.000000 0.000000 0.000000 0.005362 0.000000 0.078149
# 5 -0.006795 0.007311 -0.000543 0.000000 0.032838 0.000000
# 6 0.000000 0.000000 0.000000 0.078149 0.000000 -0.061304
#
#
# Mechanical properties :
#
#
# Convention : Reuss Voigt Hill
#
# Bulk Modulus (GPa) = 88.30498 91.14502 89.72500
# Shear Modulus (GPa) = 91.85224 21.93587 56.89406
#
# Velocity S-wave (km/s) = 6.54915 3.20050 5.15435
# Velocity P-wave (km/s) = 9.92086 7.49791 8.79324
#
# Compressibility (1/GPa) = 0.01132439
#
# Stress axis : x y z
#
# Youngs Moduli (GPa) = 54.90625 60.02954 130.32068
#
# Poissons Ratio (x) = 0.61361 0.33855
# Poissons Ratio (y) = 0.56124 0.36366
# Poissons Ratio (z) = 0.14263 0.16751
#
# Static dielectric constant tensor:
#      x y z
#    x 1.861590 0.000000 -0.026440 
#    y 0.000000 1.814370 0.000000 
#    z -0.026440 0.000000 1.753600 
# 
# From -- ./inp_files/5534.got.cif
#   From: 2010.05.17/outbox.cif.g08.bks.cpg/sg15_3_cif.got.tgz:5534.got - 2010.06.03 18:47:42.
