data_PCOD9278263
_publ_section_title
;
Structure prediction by ZEFSAII (Michael W. Deem and Ramdas Pophale) SiO2 
 PCOD9278263
Probable space group: C 2/C
;
_chemical_formula_sum "Si O2"
_cell_formula_units_Z 40
_cell_length_a 21.396253
_cell_length_b 14.539849
_cell_length_c 5.211016
_cell_angle_alpha 90.000000
_cell_angle_beta 109.075257
_cell_angle_gamma 90.000000
_cell_volume 1532.121673
_symmetry_space_group_name_H-M "C 2/C"
_symmetry_group_IT_number 15
_symmetry_cell_setting 'monoclinic'
loop_
_space_group_symop_operation_xyz
x,y,z
-x,y,1/2-z
-x,-y,-z
x,-y,1/2+z
1/2+x,1/2+y,z
1/2-x,1/2+y,1/2-z
1/2-x,1/2-y,-z
1/2+x,1/2-y,1/2+z
loop_
_atom_site_type_symbol
_atom_site_label
_atom_site_fract_x
_atom_site_fract_y
_atom_site_fract_z
Si Si1 0.422475 0.444656 0.484970
Si Si2 0.000000 0.223320 0.250000
Si Si3 0.878580 0.720958 0.916352
Si Si4 0.155887 0.559803 0.293687
Si Si5 0.750000 0.750000 0.500000
Si Si6 0.200804 0.868436 0.396437
O O1 0.439287 0.486522 0.780818
O O2 0.455593 0.345055 0.514167
O O3 0.344239 0.432375 0.341102
O O4 0.052439 0.272792 0.137660
O O5 0.880204 0.653480 0.161359
O O6 0.819771 0.691207 0.646245
O O7 0.846476 0.821748 0.950570
O O8 0.140024 0.510193 0.007066
O O9 0.234836 0.582988 0.405335
O O10 0.777539 0.788433 0.265972
#
# Coordination Sequence:
#
# PCOD9278263 Si02
#       6
#     8   4   8   8   4   8
#     4  12  26  45  69 107 156 188 236 295 367 442
#     4  12  26  50  72 104 146 212 248 294 364 452
#     4  11  26  45  75 103 145 194 255 297 361 452
#     4  11  26  44  72 109 147 181 244 316 378 416
#     4  10  20  42  68  98 134 180 246 298 340 418
#     4  11  24  42  74 104 145 191 243 293 368 443
#
# _framework density 26.107589000000001
#
# number of rings (size 3 to 8) (size 9 to 14) (size 15 to 20)
#    0.000    0.800    2.000    5.400   11.200    2.400 
#    0.000    1.000    0.000    0.000    0.000    0.000 
#    0.000    0.000    0.000    0.000    0.000    0.000 
#
# Total GULP energy -111628.758368 kJ/mol
# GULP energy per Si atom -5581.437918 kJ/mol
# Density = 2.604817 g / cm^3
# Si number density = 26.107589 Si / 1000 Ang^3
#
#
#
# Elastic Constant Matrix: (Units=GPa)
#
#
# Indices 1 2 3 4 5 6 
#
# 1 167.2761 38.3590 23.6000 0.0000 -36.8023 0.0000
# 2 38.3590 81.0697 29.7014 0.0000 -24.8147 0.0000
# 3 23.6000 29.7014 76.9214 0.0000 -31.8584 0.0000
# 4 0.0000 0.0000 0.0000 51.4612 0.0000 -13.4005
# 5 -36.8023 -24.8147 -31.8584 0.0000 33.4743 0.0000
# 6 0.0000 0.0000 0.0000 -13.4005 0.0000 37.6587
#
#
#
# Elastic Compliance Matrix: (Units=1/GPa)
#
#
# Indices 1 2 3 4 5 6 
#
# 1 0.008233 -0.001672 0.002237 0.000000 0.009941 0.000000
# 2 -0.001672 0.016500 -0.002564 0.000000 0.007952 0.000000
# 3 0.002237 -0.002564 0.022342 0.000000 0.021822 0.000000
# 4 0.000000 0.000000 0.000000 0.021417 0.000000 0.007621
# 5 0.009941 0.007952 0.021822 0.000000 0.067467 0.000000
# 6 0.000000 0.000000 0.000000 0.007621 0.000000 0.029266
#
#
# Mechanical properties :
#
#
# Convention : Reuss Voigt Hill
#
# Bulk Modulus (GPa) = 23.21491 56.50977 39.86234
# Shear Modulus (GPa) = 27.23567 40.09261 33.66414
#
# Velocity S-wave (km/s) = 3.23338 3.92301 3.59477
# Velocity P-wave (km/s) = 4.78027 6.49708 5.70364
#
# Compressibility (1/GPa) = 0.04307577
#
# Stress axis : x y z
#
# Youngs Moduli (GPa) = 121.46051 60.60612 44.75843
#
# Poissons Ratio (x) = 0.10135 -0.10012
# Poissons Ratio (y) = 0.20312 0.11478
# Poissons Ratio (z) = -0.27171 0.15542
#
# Static dielectric constant tensor:
#      x y z
#    x 2.087460 0.000000 0.119890 
#    y 0.000000 2.232290 0.000000 
#    z 0.119890 0.000000 2.251130 
# 
# From -- ./inp_files/15048.got.cif
#   From: 2010.05.17/outbox.cif.g08.bks.cpg/sg15_8_cif.got.tgz:15048.got - 2010.06.03 18:47:42.
