data_PCOD9278111
_publ_section_title
;
Structure prediction by ZEFSAII (Michael W. Deem and Ramdas Pophale) SiO2 
 PCOD9278111
Probable space group: C 2/C
;
_chemical_formula_sum "Si O2"
_cell_formula_units_Z 40
_cell_length_a 10.187290
_cell_length_b 25.904822
_cell_length_c 18.047990
_cell_angle_alpha 90.000000
_cell_angle_beta 26.275498
_cell_angle_gamma 90.000000
_cell_volume 2108.461395
_symmetry_space_group_name_H-M "C 2/C"
_symmetry_group_IT_number 15
_symmetry_cell_setting 'monoclinic'
loop_
_space_group_symop_operation_xyz
x,y,z
-x,y,1/2-z
-x,-y,-z
x,-y,1/2+z
1/2+x,1/2+y,z
1/2-x,1/2+y,1/2-z
1/2-x,1/2-y,-z
1/2+x,1/2-y,1/2+z
loop_
_atom_site_type_symbol
_atom_site_label
_atom_site_fract_x
_atom_site_fract_y
_atom_site_fract_z
Si Si1 0.180339 0.260128 0.949434
Si Si2 0.821675 0.955539 0.049923
Si Si3 0.152784 0.152014 0.903607
Si Si4 0.688704 0.043393 0.447729
Si Si5 0.263042 0.858154 0.175153
O O1 0.500000 0.271503 0.750000
O O2 0.039001 0.208083 0.985911
O O3 0.250000 0.250000 0.000000
O O4 0.953765 0.307282 0.060695
O O5 0.500000 0.952907 0.250000
O O6 0.960778 0.898558 0.994897
O O7 0.775871 0.969859 0.987838
O O8 0.000000 0.000000 0.000000
O O9 0.500000 0.155973 0.750000
O O10 0.141391 0.144363 0.821121
O O11 0.484315 0.093719 0.556825
O O12 0.000000 0.053206 0.250000
O O13 0.500000 0.000000 0.500000
O O14 0.000000 0.863939 0.250000
#
# Coordination Sequence:
#
# PCOD9278111 Si02
#       5
#     8   8   8   8   8
#     4  11  20  41  72  94 126 174 221 264 330 396
#     4  11  22  42  68  91 127 172 215 262 322 387
#     4  10  20  42  66  90 129 173 215 259 334 384
#     4  12  25  42  66 100 133 169 221 272 325 389
#     4  12  25  42  67  99 136 172 213 278 330 388
#
# _framework density 18.97118
#
# number of rings (size 3 to 8) (size 9 to 14) (size 15 to 20)
#    0.000    0.800    8.000    2.400    2.800    0.800 
#    0.000    1.000    0.000    0.000    0.000    0.000 
#    0.000    0.000    0.000    0.000    0.000    0.000 
#
# Total GULP energy -111712.583171 kJ/mol
# GULP energy per Si atom -5585.629159 kJ/mol
# Density = 1.892800 g / cm^3
# Si number density = 18.971180 Si / 1000 Ang^3
#
#
#
# Elastic Constant Matrix: (Units=GPa)
#
#
# Indices 1 2 3 4 5 6 
#
# 1 191.5847 60.2119 48.0423 -0.1458 9.9693 0.0710
# 2 60.2119 163.3329 15.8117 0.3899 -8.5701 -0.1290
# 3 48.0423 15.8117 49.9777 1.5686 8.7604 -0.3088
# 4 -0.1458 0.3899 1.5686 73.4203 -0.2890 -22.9534
# 5 9.9693 -8.5701 8.7604 -0.2890 35.6794 0.1354
# 6 0.0710 -0.1290 -0.3088 -22.9534 0.1354 44.0090
#
#
#
# Elastic Compliance Matrix: (Units=1/GPa)
#
#
# Indices 1 2 3 4 5 6 
#
# 1 0.007582 -0.002233 -0.006397 0.000168 -0.001083 0.000027
# 2 -0.002233 0.007128 -0.000541 -0.000020 0.002468 0.000003
# 3 -0.006397 -0.000541 0.027231 -0.000650 -0.005033 -0.000124
# 4 0.000168 -0.000020 -0.000650 0.016290 0.000208 0.008491
# 5 -0.001083 0.002468 -0.005033 0.000208 0.030160 -0.000011
# 6 0.000027 0.000003 -0.000124 0.008491 -0.000011 0.027150
#
#
# Mechanical properties :
#
#
# Convention : Reuss Voigt Hill
#
# Bulk Modulus (GPa) = 42.37384 72.55856 57.46620
# Shear Modulus (GPa) = 35.27352 49.34370 42.30861
#
# Velocity S-wave (km/s) = 4.31666 5.10552 4.72757
# Velocity P-wave (km/s) = 6.87235 8.54897 7.75609
#
# Compressibility (1/GPa) = 0.02359946
#
# Stress axis : x y z
#
# Youngs Moduli (GPa) = 131.88986 140.30080 36.72233
#
# Poissons Ratio (x) = 0.31329 0.23492
# Poissons Ratio (y) = 0.29451 0.01985
# Poissons Ratio (z) = 0.84374 0.07583
#
# Static dielectric constant tensor:
#      x y z
#    x 1.874470 0.001770 -0.098030 
#    y 0.001770 1.725650 -0.000940 
#    z -0.098030 -0.000940 1.732100 
# 
# From -- ./inp_files/193418.got.cif
#   From: 2010.05.17/outbox.cif.g08.bks.cpg/sg15_97_cif.got.tgz:193418.got - 2010.06.03 18:47:42.
