data_PCOD9278930
_publ_section_title
;
Structure prediction by ZEFSAII (Michael W. Deem and Ramdas Pophale) SiO2 
 PCOD9278930
Probable space group: C 2/C
;
_chemical_formula_sum "Si O2"
_cell_formula_units_Z 60
_cell_length_a 27.007595
_cell_length_b 8.783970
_cell_length_c 29.694224
_cell_angle_alpha 90.000000
_cell_angle_beta 18.395630
_cell_angle_gamma 90.000000
_cell_volume 2223.072457
_symmetry_space_group_name_H-M "C 2/C"
_symmetry_group_IT_number 15
_symmetry_cell_setting 'monoclinic'
loop_
_space_group_symop_operation_xyz
x,y,z
-x,y,1/2-z
-x,-y,-z
x,-y,1/2+z
1/2+x,1/2+y,z
1/2-x,1/2+y,1/2-z
1/2-x,1/2-y,-z
1/2+x,1/2-y,1/2+z
loop_
_atom_site_type_symbol
_atom_site_label
_atom_site_fract_x
_atom_site_fract_y
_atom_site_fract_z
Si Si1 0.903352 0.472190 0.763232
Si Si2 0.010946 0.485903 0.043588
Si Si3 0.549968 0.663182 0.403616
Si Si4 0.000000 0.120742 0.750000
Si Si5 0.719235 0.911422 0.440137
Si Si6 0.202102 0.089138 0.358081
Si Si7 0.293373 0.403186 0.990225
Si Si8 0.387019 0.678437 0.245982
O O1 0.788346 0.373693 0.830236
O O2 0.844522 0.511382 0.864163
O O3 0.880866 0.644135 0.761935
O O4 0.081704 0.424183 0.596604
O O5 0.051776 0.311268 0.019782
O O6 0.835625 0.503297 0.214221
O O7 0.000000 0.500000 0.000000
O O8 0.117203 0.600985 0.981566
O O9 0.638782 0.699751 0.373664
O O10 0.442860 0.517643 0.503946
O O11 0.655135 0.635670 0.268989
O O12 0.132344 0.190221 0.669643
O O13 0.116981 0.020318 0.619247
O O14 0.805334 0.072002 0.353835
O O15 0.250000 0.250000 0.000000
O O16 0.427777 0.361853 0.910092
#
# Coordination Sequence:
#
# PCOD9278930 Si02
#       8
#     8   8   8   4   8   8   8   8
#     4  11  19  33  49  73 108 150 197 239 285 343
#     4  11  23  37  60  84 116 159 202 248 297 351
#     4  11  21  36  57  81 117 157 200 245 301 350
#     4  10  22  34  46  74 106 150 192 236 288 360
#     4  10  21  33  52  76 111 150 194 236 285 348
#     4  10  22  35  54  83 112 158 201 242 294 362
#     4  11  21  30  47  71 105 150 199 235 288 360
#     4  11  18  31  50  71 109 150 186 233 288 348
#
# _framework density 26.989673
#
# number of rings (size 3 to 8) (size 9 to 14) (size 15 to 20)
#    0.000    1.333    4.000    4.800    1.867    1.600 
#    0.000    0.667    0.000    0.000    0.000    0.000 
#    0.000   11.733    0.000    0.400    0.000    0.000 
#
# Total GULP energy -167645.865687 kJ/mol
# GULP energy per Si atom -5588.195523 kJ/mol
# Density = 2.692824 g / cm^3
# Si number density = 26.989673 Si / 1000 Ang^3
#
#
#
# Elastic Constant Matrix: (Units=GPa)
#
#
# Indices 1 2 3 4 5 6 
#
# 1 210.8206 22.2791 79.2550 -0.0009 18.7083 -0.0032
# 2 22.2791 43.3300 14.9522 -0.0020 5.2263 -0.0008
# 3 79.2550 14.9522 170.7238 0.0305 16.4777 -0.0022
# 4 -0.0009 -0.0020 0.0305 10.7752 0.0055 -8.8893
# 5 18.7083 5.2263 16.4777 0.0055 55.0942 -0.0027
# 6 -0.0032 -0.0008 -0.0022 -8.8893 -0.0027 45.6231
#
#
#
# Elastic Compliance Matrix: (Units=1/GPa)
#
#
# Indices 1 2 3 4 5 6 
#
# 1 0.006000 -0.002092 -0.002497 0.000009 -0.001092 0.000002
# 2 -0.002092 0.024680 -0.001064 0.000010 -0.001313 0.000002
# 3 -0.002497 -0.001064 0.007227 -0.000024 -0.001213 -0.000005
# 4 0.000009 0.000010 -0.000024 0.110581 -0.000007 0.021546
# 5 -0.001092 -0.001313 -0.001213 -0.000007 0.019009 0.000000
# 6 0.000002 0.000002 -0.000005 0.021546 0.000000 0.026117
#
#
# Mechanical properties :
#
#
# Convention : Reuss Voigt Hill
#
# Bulk Modulus (GPa) = 37.59132 73.09413 55.34273
# Shear Modulus (GPa) = 23.38805 42.85769 33.12287
#
# Velocity S-wave (km/s) = 2.94692 3.98921 3.50700
# Velocity P-wave (km/s) = 5.05346 6.95409 6.07852
#
# Compressibility (1/GPa) = 0.02660188
#
# Stress axis : x y z
#
# Youngs Moduli (GPa) = 166.66773 40.51923 138.37598
#
# Poissons Ratio (x) = 0.08475 0.34549
# Poissons Ratio (y) = 0.34862 0.14720
# Poissons Ratio (z) = 0.41613 0.04310
#
# Static dielectric constant tensor:
#      x y z
#    x 2.217550 0.000000 -0.039100 
#    y 0.000000 2.120780 0.000030 
#    z -0.039100 0.000030 2.136150 
# 
# From -- ./inp_files/319569.got.cif
#   From: 2010.05.17/outbox.cif.g08.bks.cpg/sg15_160_cif.got.tgz:319569.got - 2010.06.03 18:47:42.
