data_PCOD9278658
_publ_section_title
;
Structure prediction by ZEFSAII (Michael W. Deem and Ramdas Pophale) SiO2 
 PCOD9278658
Probable space group: C 2/C
;
_chemical_formula_sum "Si O2"
_cell_formula_units_Z 40
_cell_length_a 14.456737
_cell_length_b 8.120067
_cell_length_c 16.830646
_cell_angle_alpha 90.000000
_cell_angle_beta 52.929386
_cell_angle_gamma 90.000000
_cell_volume 1576.432725
_symmetry_space_group_name_H-M "C 2/C"
_symmetry_group_IT_number 15
_symmetry_cell_setting 'monoclinic'
loop_
_space_group_symop_operation_xyz
x,y,z
-x,y,1/2-z
-x,-y,-z
x,-y,1/2+z
1/2+x,1/2+y,z
1/2-x,1/2+y,1/2-z
1/2-x,1/2-y,-z
1/2+x,1/2-y,1/2+z
loop_
_atom_site_type_symbol
_atom_site_label
_atom_site_fract_x
_atom_site_fract_y
_atom_site_fract_z
Si Si1 0.902162 0.369407 0.030125
Si Si2 0.494744 0.562776 0.594309
Si Si3 0.772522 0.058685 0.481375
Si Si4 0.135700 0.463825 0.207382
Si Si5 0.297276 0.656956 0.227523
O O1 0.957832 0.246821 0.936673
O O2 0.793643 0.470034 0.054424
O O3 0.861153 0.262623 0.125763
O O4 0.000000 0.500000 0.000000
O O5 0.500000 0.500000 0.500000
O O6 0.591590 0.465825 0.592161
O O7 0.372129 0.512216 0.693688
O O8 0.750000 0.250000 0.500000
O O9 0.715943 0.984679 0.591254
O O10 0.174209 0.590675 0.257768
O O11 0.182133 0.280995 0.209684
O O12 0.000000 0.461626 0.250000
#
# Coordination Sequence:
#
# PCOD9278658 Si02
#       5
#     8   8   8   8   8
#     4  11  23  42  75 108 136 188 247 306 362 427
#     4  10  20  44  68 102 135 179 247 296 350 434
#     4  12  24  42  76 103 139 187 247 301 359 439
#     4  12  27  49  69 108 155 193 241 302 380 444
#     4  11  27  48  72 107 149 195 242 309 374 442
#
# _framework density 25.373743000000001
#
# number of rings (size 3 to 8) (size 9 to 14) (size 15 to 20)
#    0.000    0.800    4.000    5.400    2.800    1.600 
#    0.000    0.000    0.000    0.000    0.000    0.000 
#    0.000    0.000    0.000    0.000    0.000    0.000 
#
# Total GULP energy -111973.675686 kJ/mol
# GULP energy per Si atom -5598.683784 kJ/mol
# Density = 2.531599 g / cm^3
# Si number density = 25.373743 Si / 1000 Ang^3
#
#
#
# Elastic Constant Matrix: (Units=GPa)
#
#
# Indices 1 2 3 4 5 6 
#
# 1 187.4983 43.3045 12.8819 0.0000 -21.6951 0.0000
# 2 43.3045 126.4965 -5.8100 0.0000 -6.9679 0.0000
# 3 12.8819 -5.8100 66.8975 0.0000 -9.4949 0.0000
# 4 0.0000 0.0000 0.0000 48.0327 0.0000 1.1561
# 5 -21.6951 -6.9679 -9.4949 0.0000 30.3063 0.0000
# 6 0.0000 0.0000 0.0000 1.1561 0.0000 57.8256
#
#
#
# Elastic Compliance Matrix: (Units=1/GPa)
#
#
# Indices 1 2 3 4 5 6 
#
# 1 0.006287 -0.001983 -0.000846 0.000000 0.003779 0.000000
# 2 -0.001983 0.008697 0.001276 0.000000 0.000980 0.000000
# 3 -0.000846 0.001276 0.015884 0.000000 0.004664 0.000000
# 4 0.000000 0.000000 0.000000 0.020829 0.000000 -0.000416
# 5 0.003779 0.000980 0.004664 0.000000 0.037388 0.000000
# 6 0.000000 0.000000 0.000000 -0.000416 0.000000 0.017302
#
#
# Mechanical properties :
#
#
# Convention : Reuss Voigt Hill
#
# Bulk Modulus (GPa) = 36.02118 53.51613 44.76865
# Shear Modulus (GPa) = 42.10637 49.26732 45.68684
#
# Velocity S-wave (km/s) = 4.07805 4.41121 4.24790
# Velocity P-wave (km/s) = 6.03333 6.86163 6.46077
#
# Compressibility (1/GPa) = 0.02776144
#
# Stress axis : x y z
#
# Youngs Moduli (GPa) = 159.06318 114.98523 62.95629
#
# Poissons Ratio (x) = 0.22800 0.05329
# Poissons Ratio (y) = 0.31541 -0.08035
# Poissons Ratio (z) = 0.13463 -0.14675
#
# Static dielectric constant tensor:
#      x y z
#    x 1.991220 0.000000 0.044950 
#    y 0.000000 2.008820 0.000000 
#    z 0.044950 0.000000 2.053830 
# 
# From -- ./inp_files/202480.got.cif
#   From: 2010.05.17/outbox.cif.g08.bks.cpg/sg15_102_cif.got.tgz:202480.got - 2010.06.03 18:47:42.
