data_PCOD9278000
_publ_section_title
;
Structure prediction by ZEFSAII (Michael W. Deem and Ramdas Pophale) SiO2 
 PCOD9278000
Probable space group: C 2/C
;
_chemical_formula_sum "Si O2"
_cell_formula_units_Z 48
_cell_length_a 17.298253
_cell_length_b 9.539629
_cell_length_c 28.142731
_cell_angle_alpha 90.000000
_cell_angle_beta 30.360581
_cell_angle_gamma 90.000000
_cell_volume 2347.306418
_symmetry_space_group_name_H-M "C 2/C"
_symmetry_group_IT_number 15
_symmetry_cell_setting 'monoclinic'
loop_
_space_group_symop_operation_xyz
x,y,z
-x,y,1/2-z
-x,-y,-z
x,-y,1/2+z
1/2+x,1/2+y,z
1/2-x,1/2+y,1/2-z
1/2-x,1/2-y,-z
1/2+x,1/2-y,1/2+z
loop_
_atom_site_type_symbol
_atom_site_label
_atom_site_fract_x
_atom_site_fract_y
_atom_site_fract_z
Si Si1 0.177140 0.508356 0.396205
Si Si2 0.334956 0.741247 0.762378
Si Si3 0.258897 0.768847 0.290961
Si Si4 0.590829 0.439971 0.154889
Si Si5 0.401420 0.446752 0.595526
Si Si6 0.078006 0.812231 0.588354
O O1 0.244302 0.404713 0.320049
O O2 0.224478 0.663325 0.352837
O O3 0.243498 0.448195 0.410697
O O4 0.000000 0.500000 0.500000
O O5 0.311882 0.790940 0.720761
O O6 0.507725 0.704306 0.685029
O O7 0.242311 0.850806 0.843150
O O8 0.441748 0.779213 0.184767
O O9 0.174626 0.916277 0.341084
O O10 0.500000 0.493727 0.250000
O O11 0.578173 0.544431 0.118244
O O12 0.500000 0.500000 0.500000
O O13 0.510948 0.355726 0.572367
O O14 0.250000 0.750000 0.500000
#
# Coordination Sequence:
#
# PCOD9278000 Si02
#       6
#     8   8   8   8   8   8
#     4  11  23  39  70  92 127 181 228 268 337 411
#     4  10  20  42  64  90 135 174 211 281 337 391
#     4  11  21  42  66  96 132 172 225 279 332 403
#     4  10  20  42  66  90 130 173 230 267 320 416
#     4  11  24  41  68 103 138 170 224 283 350 394
#     4  11  24  41  67  98 133 178 230 273 331 408
#
# _framework density 20.448969999999999
#
# number of rings (size 3 to 8) (size 9 to 14) (size 15 to 20)
#    0.000    1.333    5.000    2.000    7.000    0.000 
#    0.000    7.500    0.000    0.000    0.000    0.000 
#    0.000    0.000    0.000    0.000    0.000    0.000 
#
# Total GULP energy -133716.805527 kJ/mol
# GULP energy per Si atom -5571.533564 kJ/mol
# Density = 2.040243 g / cm^3
# Si number density = 20.448970 Si / 1000 Ang^3
#
#
#
# Elastic Constant Matrix: (Units=GPa)
#
#
# Indices 1 2 3 4 5 6 
#
# 1 94.0865 11.0616 40.2799 0.0000 -24.6100 0.0000
# 2 11.0616 66.3190 24.0814 0.0000 -9.3145 0.0001
# 3 40.2799 24.0814 112.8559 -0.0002 -32.6102 0.0001
# 4 0.0000 0.0000 -0.0002 18.9147 0.0000 -1.0996
# 5 -24.6100 -9.3145 -32.6102 0.0000 34.7357 0.0000
# 6 0.0000 0.0001 0.0001 -1.0996 0.0000 28.4883
#
#
#
# Elastic Compliance Matrix: (Units=1/GPa)
#
#
# Indices 1 2 3 4 5 6 
#
# 1 0.013692 -0.000283 -0.002807 0.000000 0.006990 0.000000
# 2 -0.000283 0.016410 -0.003001 0.000000 0.001382 0.000000
# 3 -0.002807 -0.003001 0.013305 0.000000 0.009698 0.000000
# 4 0.000000 0.000000 0.000000 0.052988 0.000000 0.002045
# 5 0.006990 0.001382 0.009698 0.000000 0.043216 0.000000
# 6 0.000000 0.000000 0.000000 0.002045 0.000000 0.035181
#
#
# Mechanical properties :
#
#
# Convention : Reuss Voigt Hill
#
# Bulk Modulus (GPa) = 32.02534 47.12301 39.57417
# Shear Modulus (GPa) = 25.33169 29.61696 27.47432
#
# Velocity S-wave (km/s) = 3.52344 3.80983 3.66943
# Velocity P-wave (km/s) = 5.67873 6.51516 6.11127
#
# Compressibility (1/GPa) = 0.03122527
#
# Stress axis : x y z
#
# Youngs Moduli (GPa) = 73.03731 60.93944 75.15852
#
# Poissons Ratio (x) = 0.01724 0.21095
# Poissons Ratio (y) = 0.02066 0.22556
# Poissons Ratio (z) = 0.20499 0.18289
#
# Static dielectric constant tensor:
#      x y z
#    x 1.857250 0.000000 -0.032390 
#    y 0.000000 1.735770 0.000000 
#    z -0.032390 0.000000 1.784020 
# 
# From -- ./inp_files/315632.got.cif
#   From: 2010.05.17/outbox.cif.g08.bks.cpg/sg15_158_cif.got.tgz:315632.got - 2010.06.03 18:47:42.
