data_PCOD9278429
_publ_section_title
;
Structure prediction by ZEFSAII (Michael W. Deem and Ramdas Pophale) SiO2 
 PCOD9278429
Probable space group: C 2/C
;
_chemical_formula_sum "Si O2"
_cell_formula_units_Z 52
_cell_length_a 18.499805
_cell_length_b 12.660226
_cell_length_c 13.830723
_cell_angle_alpha 90.000000
_cell_angle_beta 125.699057
_cell_angle_gamma 90.000000
_cell_volume 2630.627341
_symmetry_space_group_name_H-M "C 2/C"
_symmetry_group_IT_number 15
_symmetry_cell_setting 'monoclinic'
loop_
_space_group_symop_operation_xyz
x,y,z
-x,y,1/2-z
-x,-y,-z
x,-y,1/2+z
1/2+x,1/2+y,z
1/2-x,1/2+y,1/2-z
1/2-x,1/2-y,-z
1/2+x,1/2-y,1/2+z
loop_
_atom_site_type_symbol
_atom_site_label
_atom_site_fract_x
_atom_site_fract_y
_atom_site_fract_z
Si Si1 0.757839 0.278132 0.894878
Si Si2 0.603401 0.415617 0.187634
Si Si3 0.622398 0.844152 0.153985
Si Si4 0.260664 0.749814 0.621893
Si Si5 0.454850 0.298116 0.527342
Si Si6 0.231516 0.454983 0.740366
Si Si7 0.000000 0.932591 0.750000
O O1 0.677184 0.218684 0.779208
O O2 0.759392 0.397817 0.857107
O O3 0.750000 0.250000 0.000000
O O4 0.853668 0.237369 0.935941
O O5 0.654851 0.320001 0.280099
O O6 0.678752 0.476195 0.183839
O O7 0.565850 0.492180 0.240937
O O8 0.529838 0.373183 0.054159
O O9 0.672802 0.805447 0.097202
O O10 0.522822 0.800093 0.079217
O O11 0.646973 0.967391 0.182603
O O12 0.250000 0.750000 0.500000
O O13 0.268987 0.863739 0.679698
O O14 0.461480 0.358760 0.634588
#
# Coordination Sequence:
#
# PCOD9278429 Si02
#       7
#     8   8   8   8   8   8   4
#     4  11  22  41  66  92 130 166 219 271 314 391
#     4  11  24  41  64  98 126 173 213 276 330 384
#     4  10  23  40  63  93 131 170 212 270 324 379
#     4  10  22  40  63  94 130 171 219 265 323 391
#     4  12  23  44  62  99 130 164 223 275 320 392
#     4  10  20  43  63  94 129 175 212 262 341 380
#     4  12  26  36  68  96 124 172 222 270 334 384
#
# _framework density 19.767147999999999
#
# number of rings (size 3 to 8) (size 9 to 14) (size 15 to 20)
#    0.000    1.231    4.615    4.154    4.308    3.077 
#    0.000    0.000    0.000    2.769    0.000    0.000 
#    0.000    0.000    0.000    0.000    0.000    0.000 
#
# Total GULP energy -145109.344451 kJ/mol
# GULP energy per Si atom -5581.128633 kJ/mol
# Density = 1.972216 g / cm^3
# Si number density = 19.767148 Si / 1000 Ang^3
#
#
#
# Elastic Constant Matrix: (Units=GPa)
#
#
# Indices 1 2 3 4 5 6 
#
# 1 42.4773 9.8900 12.2807 0.0000 -3.7582 0.0000
# 2 9.8900 110.2921 20.7215 0.0000 6.6842 0.0000
# 3 12.2807 20.7215 85.8627 0.0000 -15.7496 0.0000
# 4 0.0000 0.0000 0.0000 16.4201 0.0000 4.8121
# 5 -3.7582 6.6842 -15.7496 0.0000 33.7601 0.0000
# 6 0.0000 0.0000 0.0000 4.8121 0.0000 31.6175
#
#
#
# Elastic Compliance Matrix: (Units=1/GPa)
#
#
# Indices 1 2 3 4 5 6 
#
# 1 0.024935 -0.001823 -0.002790 0.000000 0.001835 0.000000
# 2 -0.001823 0.009963 -0.002781 0.000000 -0.003473 0.000000
# 3 -0.002790 -0.002781 0.013955 0.000000 0.006750 0.000000
# 4 0.000000 0.000000 0.000000 0.063744 0.000000 -0.009702
# 5 0.001835 -0.003473 0.006750 0.000000 0.033662 0.000000
# 6 0.000000 0.000000 0.000000 -0.009702 0.000000 0.033105
#
#
# Mechanical properties :
#
#
# Convention : Reuss Voigt Hill
#
# Bulk Modulus (GPa) = 29.35467 36.04628 32.70048
# Shear Modulus (GPa) = 24.33016 29.40887 26.86952
#
# Velocity S-wave (km/s) = 3.51214 3.86134 3.69087
# Velocity P-wave (km/s) = 5.59726 6.17697 5.89424
#
# Compressibility (1/GPa) = 0.03406613
#
# Stress axis : x y z
#
# Youngs Moduli (GPa) = 40.10366 100.36929 71.66012
#
# Poissons Ratio (x) = 0.18298 0.19992
# Poissons Ratio (y) = 0.07311 0.19927
# Poissons Ratio (z) = 0.11188 0.27910
#
# Static dielectric constant tensor:
#      x y z
#    x 1.707280 0.000000 -0.002130 
#    y 0.000000 1.780920 0.000000 
#    z -0.002130 0.000000 1.693940 
# 
# From -- ./inp_files/167726.got.cif
#   From: 2010.05.17/outbox.cif.g08.bks.cpg/sg15_84_cif.got.tgz:167726.got - 2010.06.03 18:47:42.
