data_PCOD9278565
_publ_section_title
;
Structure prediction by ZEFSAII (Michael W. Deem and Ramdas Pophale) SiO2 
 PCOD9278565
Probable space group: C 2/C
;
_chemical_formula_sum "Si O2"
_cell_formula_units_Z 52
_cell_length_a 20.342385
_cell_length_b 31.168290
_cell_length_c 8.518744
_cell_angle_alpha 90.000000
_cell_angle_beta 148.351583
_cell_angle_gamma 90.000000
_cell_volume 2834.040128
_symmetry_space_group_name_H-M "C 2/C"
_symmetry_group_IT_number 15
_symmetry_cell_setting 'monoclinic'
loop_
_space_group_symop_operation_xyz
x,y,z
-x,y,1/2-z
-x,-y,-z
x,-y,1/2+z
1/2+x,1/2+y,z
1/2-x,1/2+y,1/2-z
1/2-x,1/2-y,-z
1/2+x,1/2-y,1/2+z
loop_
_atom_site_type_symbol
_atom_site_label
_atom_site_fract_x
_atom_site_fract_y
_atom_site_fract_z
Si Si1 0.362235 0.561916 0.498693
Si Si2 0.137050 0.444599 0.955678
Si Si3 0.791549 0.629837 0.126972
Si Si4 0.376417 0.745789 0.158455
Si Si5 0.735703 0.489870 0.997004
Si Si6 0.500000 0.825405 0.250000
Si Si7 0.648815 0.285320 0.237938
O O1 0.500000 0.578924 0.750000
O O2 0.272180 0.599027 0.374960
O O3 0.360703 0.524962 0.629759
O O4 0.314504 0.539349 0.244160
O O5 0.222875 0.460944 0.273000
O O6 0.178751 0.399944 0.962704
O O7 0.153564 0.480804 0.853251
O O8 0.000000 0.441872 0.750000
O O9 0.918261 0.647700 0.462078
O O10 0.699401 0.669029 0.898265
O O11 0.410617 0.793097 0.164013
O O12 0.506214 0.727583 0.498098
O O13 0.250000 0.750000 0.000000
O O14 0.352778 0.717453 0.954680
O O15 0.750000 0.250000 0.500000
#
# Coordination Sequence:
#
# PCOD9278565 Si02
#       7
#     8   8   8   8   8   4   8
#     4  10  21  38  62  86 118 158 201 245 298 354
#     4  10  21  36  60  88 118 158 198 244 300 353
#     4  11  23  39  59  89 124 157 195 250 301 355
#     4  10  22  40  68  87 109 164 206 240 301 362
#     4   9  20  40  58  86 118 154 203 244 297 355
#     4  10  22  42  58  86 132 148 194 258 306 342
#     4  10  20  44  60  86 127 155 195 249 295 354
#
# _framework density 18.348364
#
# number of rings (size 3 to 8) (size 9 to 14) (size 15 to 20)
#    0.000    2.154    3.077    0.923    2.154    3.077 
#    8.308    0.000    0.000    0.000    0.000    0.000 
#    0.000    0.000    0.000    0.000    0.000    0.000 
#
# Total GULP energy -144969.003918 kJ/mol
# GULP energy per Si atom -5575.730920 kJ/mol
# Density = 1.830660 g / cm^3
# Si number density = 18.348364 Si / 1000 Ang^3
#
#
#
# Elastic Constant Matrix: (Units=GPa)
#
#
# Indices 1 2 3 4 5 6 
#
# 1 109.2710 34.3468 40.1818 0.0000 12.2462 0.0000
# 2 34.3468 97.9209 44.0925 0.0000 -15.8833 0.0000
# 3 40.1818 44.0925 86.2248 0.0000 1.8677 0.0000
# 4 0.0000 0.0000 0.0000 -102.7866 0.0000 57.8432
# 5 12.2462 -15.8833 1.8677 0.0000 30.8021 0.0000
# 6 0.0000 0.0000 0.0000 57.8432 0.0000 -14.1600
#
#
#
# Elastic Compliance Matrix: (Units=1/GPa)
#
#
# Indices 1 2 3 4 5 6 
#
# 1 0.012457 -0.003771 -0.003732 0.000000 -0.006671 0.000000
# 2 -0.003771 0.016257 -0.006779 0.000000 0.010293 0.000000
# 3 -0.003732 -0.006779 0.016869 0.000000 -0.003035 0.000000
# 4 0.000000 0.000000 0.000000 0.007491 0.000000 0.030599
# 5 -0.006671 0.010293 -0.003035 0.000000 0.040609 0.000000
# 6 0.000000 0.000000 0.000000 0.030599 0.000000 0.054374
#
#
# Mechanical properties :
#
#
# Convention : Reuss Voigt Hill
#
# Bulk Modulus (GPa) = 58.75832 58.96210 58.86021
# Shear Modulus (GPa) = 27.42821 -5.57587 10.92617
#
# Velocity S-wave (km/s) = 3.87053 -1.74513 2.44290
# Velocity P-wave (km/s) = 7.21581 5.30508 6.33293
#
# Compressibility (1/GPa) = 0.01701887
#
# Stress axis : x y z
#
# Youngs Moduli (GPa) = 80.27693 61.51135 59.27957
#
# Poissons Ratio (x) = 0.23195 0.22125
# Poissons Ratio (y) = 0.30271 0.40186
# Poissons Ratio (z) = 0.29962 0.41699
#
# Static dielectric constant tensor:
#      x y z
#    x 1.637470 0.000000 0.000710 
#    y 0.000000 1.615330 0.000000 
#    z 0.000710 0.000000 1.636520 
# 
# From -- ./inp_files/59325.got.cif
#   From: 2010.05.17/outbox.cif.g08.bks.cpg/sg15_30_cif.got.tgz:59325.got - 2010.06.03 18:47:42.
