data_PCOD9278463
_publ_section_title
;
Structure prediction by ZEFSAII (Michael W. Deem and Ramdas Pophale) SiO2 
 PCOD9278463
Probable space group: C 2/C
;
_chemical_formula_sum "Si O2"
_cell_formula_units_Z 40
_cell_length_a 6.290020
_cell_length_b 24.298440
_cell_length_c 12.728389
_cell_angle_alpha 90.000000
_cell_angle_beta 88.393341
_cell_angle_gamma 90.000000
_cell_volume 1944.612564
_symmetry_space_group_name_H-M "C 2/C"
_symmetry_group_IT_number 15
_symmetry_cell_setting 'monoclinic'
loop_
_space_group_symop_operation_xyz
x,y,z
-x,y,1/2-z
-x,-y,-z
x,-y,1/2+z
1/2+x,1/2+y,z
1/2-x,1/2+y,1/2-z
1/2-x,1/2-y,-z
1/2+x,1/2-y,1/2+z
loop_
_atom_site_type_symbol
_atom_site_label
_atom_site_fract_x
_atom_site_fract_y
_atom_site_fract_z
Si Si1 0.306524 0.328594 0.050379
Si Si2 0.625211 0.355250 0.854795
Si Si3 0.207162 0.035094 0.462125
Si Si4 0.036878 0.567524 0.625892
Si Si5 0.058108 0.730302 0.076547
O O1 0.202597 0.383240 0.099301
O O2 0.431714 0.284018 0.120793
O O3 0.471954 0.342349 0.955587
O O4 0.109821 0.298726 0.997304
O O5 0.500000 0.345679 0.750000
O O6 0.673402 0.419180 0.873314
O O7 0.831533 0.315798 0.853226
O O8 0.321356 0.067668 0.557706
O O9 0.360156 0.989568 0.411020
O O10 0.000000 0.000000 0.500000
O O11 0.000000 0.568333 0.750000
O O12 0.250000 0.750000 0.000000
#
# Coordination Sequence:
#
# PCOD9278463 Si02
#       5
#     8   8   8   8   8
#     4  10  20  43  66  92 132 166 218 287 324 393
#     4  11  23  39  69  98 130 175 224 268 344 405
#     4  11  24  43  64  96 143 170 222 287 327 397
#     4  11  25  42  68 101 131 177 228 270 346 408
#     4   9  20  41  67  88 132 169 214 283 331 384
#
# _framework density 20.569652000000001
#
# number of rings (size 3 to 8) (size 9 to 14) (size 15 to 20)
#    0.000    1.600    4.000    0.000    2.800    0.800 
#    0.000   11.000    4.400    0.000    0.000    0.000 
#    0.000    0.000    0.000    0.000    0.000    0.000 
#
# Total GULP energy -111544.017667 kJ/mol
# GULP energy per Si atom -5577.200883 kJ/mol
# Density = 2.052283 g / cm^3
# Si number density = 20.569652 Si / 1000 Ang^3
#
#
#
# Elastic Constant Matrix: (Units=GPa)
#
#
# Indices 1 2 3 4 5 6 
#
# 1 109.3979 60.1201 40.7169 0.0000 13.7161 0.0000
# 2 60.1201 149.6642 44.9989 0.0000 12.6032 0.0000
# 3 40.7169 44.9989 97.7703 0.0000 5.6169 0.0000
# 4 0.0000 0.0000 0.0000 2.4319 0.0000 13.0712
# 5 13.7161 12.6032 5.6169 0.0000 30.8013 0.0000
# 6 0.0000 0.0000 0.0000 13.0712 0.0000 48.2938
#
#
#
# Elastic Compliance Matrix: (Units=1/GPa)
#
#
# Indices 1 2 3 4 5 6 
#
# 1 0.013001 -0.003894 -0.003417 0.000000 -0.003573 0.000000
# 2 -0.003894 0.009124 -0.002489 0.000000 -0.001546 0.000000
# 3 -0.003417 -0.002489 0.012784 0.000000 0.000209 0.000000
# 4 0.000000 0.000000 0.000000 -0.904176 0.000000 0.244724
# 5 -0.003573 -0.001546 0.000209 0.000000 0.034652 0.000000
# 6 0.000000 0.000000 0.000000 0.244724 0.000000 -0.045530
#
#
# Mechanical properties :
#
#
# Convention : Reuss Voigt Hill
#
# Bulk Modulus (GPa) = 65.31698 72.05602 68.68650
# Shear Modulus (GPa) = -5.84493 30.37183 12.26345
#
# Velocity S-wave (km/s) = -1.68751 3.84674 2.44435
# Velocity P-wave (km/s) = 5.29396 7.40515 6.43670
#
# Compressibility (1/GPa) = 0.01530995
#
# Stress axis : x y z
#
# Youngs Moduli (GPa) = 76.91950 109.59593 78.21978
#
# Poissons Ratio (x) = 0.42679 0.26724
# Poissons Ratio (y) = 0.29954 0.19469
# Poissons Ratio (z) = 0.26280 0.27278
#
# Static dielectric constant tensor:
#      x y z
#    x 1.463480 0.000000 0.013790 
#    y 0.000000 1.895350 0.000000 
#    z 0.013790 0.000000 1.711610 
# 
# From -- ./inp_files/73058.got.cif
#   From: 2010.05.17/outbox.cif.g08.bks.cpg/sg15_37_cif.got.tgz:73058.got - 2010.06.03 18:47:42.
