data_PCOD9278560
_publ_section_title
;
Structure prediction by ZEFSAII (Michael W. Deem and Ramdas Pophale) SiO2 
 PCOD9278560
Probable space group: C 2/C
;
_chemical_formula_sum "Si O2"
_cell_formula_units_Z 56
_cell_length_a 10.574198
_cell_length_b 25.150787
_cell_length_c 9.639161
_cell_angle_alpha 90.000000
_cell_angle_beta 73.088321
_cell_angle_gamma 90.000000
_cell_volume 2452.667511
_symmetry_space_group_name_H-M "C 2/C"
_symmetry_group_IT_number 15
_symmetry_cell_setting 'monoclinic'
loop_
_space_group_symop_operation_xyz
x,y,z
-x,y,1/2-z
-x,-y,-z
x,-y,1/2+z
1/2+x,1/2+y,z
1/2-x,1/2+y,1/2-z
1/2-x,1/2-y,-z
1/2+x,1/2-y,1/2+z
loop_
_atom_site_type_symbol
_atom_site_label
_atom_site_fract_x
_atom_site_fract_y
_atom_site_fract_z
Si Si1 0.982521 0.714869 0.413957
Si Si2 0.592638 0.501739 0.837109
Si Si3 0.626799 0.179472 0.621511
Si Si4 0.932239 0.881390 0.636521
Si Si5 0.746016 0.140134 0.945535
Si Si6 0.096389 0.827265 0.368209
Si Si7 0.138895 0.434706 0.253921
O O1 0.847668 0.691325 0.517327
O O2 0.000000 0.698461 0.250000
O O3 0.095047 0.689634 0.473542
O O4 0.994404 0.778452 0.413558
O O5 0.500000 0.527933 0.750000
O O6 0.609765 0.439484 0.796367
O O7 0.733830 0.528776 0.808743
O O8 0.500000 0.500000 0.000000
O O9 0.500000 0.199834 0.750000
O O10 0.767904 0.200306 0.622388
O O11 0.639375 0.117241 0.655068
O O12 0.807511 0.866523 0.578323
O O13 0.000000 0.853492 0.750000
O O14 0.048686 0.874003 0.485039
O O15 0.860252 0.149677 0.794383
O O16 0.660169 0.091813 0.901957
O O17 0.000000 0.460954 0.250000
#
# Coordination Sequence:
#
# PCOD9278560 Si02
#       7
#     8   8   8   8   8   8   8
#     4  12  25  40  68 103 140 178 236 291 340 411
#     4  11  23  43  72 104 135 179 239 295 358 428
#     4  10  20  44  66 100 135 184 233 280 342 432
#     4  11  26  44  66 106 138 173 235 302 346 411
#     4  11  23  48  70  97 144 190 232 278 362 431
#     4  11  24  44  72  94 140 195 231 275 361 425
#     4  10  20  43  78  98 136 191 236 286 357 447
#
# _framework density 22.832281999999999
#
# number of rings (size 3 to 8) (size 9 to 14) (size 15 to 20)
#    0.000    1.143    4.286    4.286    2.000    2.857 
#    0.000    3.571    0.000    0.000    0.000    0.000 
#    0.000    0.000    0.000    0.000    0.000    0.000 
#
# Total GULP energy -156130.552863 kJ/mol
# GULP energy per Si atom -5576.091174 kJ/mol
# Density = 2.278031 g / cm^3
# Si number density = 22.832282 Si / 1000 Ang^3
#
#
#
# Elastic Constant Matrix: (Units=GPa)
#
#
# Indices 1 2 3 4 5 6 
#
# 1 179.6970 48.9689 47.0642 0.0000 17.0915 0.0000
# 2 48.9689 60.7959 21.7808 0.0000 -2.5467 0.0000
# 3 47.0642 21.7808 107.6709 0.0000 26.6436 0.0000
# 4 0.0000 0.0000 0.0000 22.5118 0.0000 -8.4145
# 5 17.0915 -2.5467 26.6436 0.0000 61.1127 0.0000
# 6 0.0000 0.0000 0.0000 -8.4145 0.0000 44.8604
#
#
#
# Elastic Compliance Matrix: (Units=1/GPa)
#
#
# Indices 1 2 3 4 5 6 
#
# 1 0.007736 -0.005636 -0.001847 0.000000 -0.001593 0.000000
# 2 -0.005636 0.022211 -0.002969 0.000000 0.003796 0.000000
# 3 -0.001847 -0.002969 0.011880 0.000000 -0.004786 0.000000
# 4 0.000000 0.000000 0.000000 0.047770 0.000000 0.008960
# 5 -0.001593 0.003796 -0.004786 0.000000 0.019054 0.000000
# 6 0.000000 0.000000 0.000000 0.008960 0.000000 0.023972
#
#
# Mechanical properties :
#
#
# Convention : Reuss Voigt Hill
#
# Bulk Modulus (GPa) = 47.79503 64.86576 56.33040
# Shear Modulus (GPa) = 31.15236 41.05365 36.10300
#
# Velocity S-wave (km/s) = 3.69779 4.24495 3.98078
# Velocity P-wave (km/s) = 6.26179 7.24551 6.77154
#
# Compressibility (1/GPa) = 0.02092268
#
# Stress axis : x y z
#
# Youngs Moduli (GPa) = 129.26337 45.02310 84.17521
#
# Poissons Ratio (x) = 0.25376 0.15549
# Poissons Ratio (y) = 0.72855 0.24990
# Poissons Ratio (z) = 0.23877 0.13366
#
# Static dielectric constant tensor:
#      x y z
#    x 2.010320 0.000000 0.042700 
#    y 0.000000 1.914580 0.000000 
#    z 0.042700 0.000000 1.867530 
# 
# From -- ./inp_files/34198.got.cif
#   From: 2010.05.17/outbox.cif.g08.bks.cpg/sg15_18_cif.got.tgz:34198.got - 2010.06.03 18:47:42.
