data_PCOD9278068
_publ_section_title
;
Structure prediction by ZEFSAII (Michael W. Deem and Ramdas Pophale) SiO2 
 PCOD9278068
Probable space group: C 2/C
;
_chemical_formula_sum "Si O2"
_cell_formula_units_Z 64
_cell_length_a 22.194455
_cell_length_b 16.099308
_cell_length_c 17.530325
_cell_angle_alpha 90.000000
_cell_angle_beta 30.734983
_cell_angle_gamma 90.000000
_cell_volume 3201.254478
_symmetry_space_group_name_H-M "C 2/C"
_symmetry_group_IT_number 15
_symmetry_cell_setting 'monoclinic'
loop_
_space_group_symop_operation_xyz
x,y,z
-x,y,1/2-z
-x,-y,-z
x,-y,1/2+z
1/2+x,1/2+y,z
1/2-x,1/2+y,1/2-z
1/2-x,1/2-y,-z
1/2+x,1/2-y,1/2+z
loop_
_atom_site_type_symbol
_atom_site_label
_atom_site_fract_x
_atom_site_fract_y
_atom_site_fract_z
Si Si1 0.175198 0.880734 0.908899
Si Si2 0.096518 0.648119 0.761732
Si Si3 0.636660 0.767021 0.568491
Si Si4 0.361436 0.007703 0.665213
Si Si5 0.881305 0.171390 0.200383
Si Si6 0.516645 0.502336 0.390377
Si Si7 0.657483 0.112750 0.532340
Si Si8 0.727607 0.059521 0.905487
O O1 0.128019 0.847080 0.879059
O O2 0.303802 0.920955 0.755564
O O3 0.152820 0.807283 0.991134
O O4 0.097597 0.959703 0.019118
O O5 0.151485 0.579794 0.757907
O O6 0.084107 0.735751 0.817269
O O7 0.165705 0.652894 0.606646
O O8 0.968126 0.621426 0.871451
O O9 0.500000 0.767447 0.750000
O O10 0.750000 0.750000 0.500000
O O11 0.667025 0.855082 0.495398
O O12 0.302630 0.034132 0.648963
O O13 0.500000 0.000000 0.500000
O O14 0.961251 0.098953 0.150973
O O15 0.753008 0.154132 0.374191
O O16 0.500000 0.500000 0.500000
O O17 0.630561 0.447218 0.244841
O O18 0.681978 0.014512 0.509119
#
# Coordination Sequence:
#
# PCOD9278068 Si02
#       8
#     8   8   8   8   8   8   8   8
#     4  11  23  46  67 100 136 173 236 280 336 418
#     4  11  23  36  64  94 129 166 218 268 340 402
#     4  12  30  47  70 104 145 191 239 296 351 423
#     4  12  23  40  67 102 127 175 227 278 338 409
#     4  10  20  42  65  95 127 170 216 279 337 403
#     4   9  18  41  67  93 129 172 214 274 343 400
#     4  10  22  41  60  93 133 167 207 279 337 410
#     4  11  22  44  70  93 132 181 226 280 345 406
#
# _framework density 19.992160999999999
#
# number of rings (size 3 to 8) (size 9 to 14) (size 15 to 20)
#    0.000    1.250    5.000    1.875    5.250    1.000 
#   11.250    0.000    0.000    0.000    0.000    0.000 
#    0.000    0.000    0.000    0.000    0.000    0.000 
#
# Total GULP energy -178540.604212 kJ/mol
# GULP energy per Si atom -5579.393882 kJ/mol
# Density = 1.994666 g / cm^3
# Si number density = 19.992161 Si / 1000 Ang^3
#
#
#
# Elastic Constant Matrix: (Units=GPa)
#
#
# Indices 1 2 3 4 5 6 
#
# 1 42.2628 13.5606 33.1626 0.0000 1.5190 0.0000
# 2 13.5606 104.1647 61.1226 0.0000 0.9481 0.0000
# 3 33.1626 61.1226 107.7332 0.0000 -5.0490 0.0000
# 4 0.0000 0.0000 0.0000 25.3209 0.0000 12.6586
# 5 1.5190 0.9481 -5.0490 0.0000 24.1785 0.0000
# 6 0.0000 0.0000 0.0000 12.6586 0.0000 1.8888
#
#
#
# Elastic Compliance Matrix: (Units=1/GPa)
#
#
# Indices 1 2 3 4 5 6 
#
# 1 0.032071 0.002674 -0.011602 0.000000 -0.004542 0.000000
# 2 0.002674 0.014741 -0.009313 0.000000 -0.002691 0.000000
# 3 -0.011602 -0.009313 0.018368 0.000000 0.004930 0.000000
# 4 0.000000 0.000000 0.000000 -0.016803 0.000000 0.112609
# 5 -0.004542 -0.002691 0.004930 0.000000 0.042779 0.000000
# 6 0.000000 0.000000 0.000000 0.112609 0.000000 -0.225251
#
#
# Mechanical properties :
#
#
# Convention : Reuss Voigt Hill
#
# Bulk Modulus (GPa) = 34.84476 52.20578 43.52527
# Shear Modulus (GPa) = -56.78733 20.03199 -18.37767
#
# Velocity S-wave (km/s) = -5.33540 3.16886 -3.03519
# Velocity P-wave (km/s) = 4.52639 6.28957 3.08792
#
# Compressibility (1/GPa) = 0.02869872
#
# Stress axis : x y z
#
# Youngs Moduli (GPa) = 31.18128 67.83756 54.44205
#
# Poissons Ratio (x) = -0.18142 0.63164
# Poissons Ratio (y) = -0.08339 0.50700
# Poissons Ratio (z) = 0.36177 0.63175
#
# Static dielectric constant tensor:
#      x y z
#    x 1.829380 0.000000 0.028750 
#    y 0.000000 1.720260 0.000000 
#    z 0.028750 0.000000 1.747570 
# 
# From -- ./inp_files/219694.got.cif
#   From: 2010.05.17/outbox.cif.g08.bks.cpg/sg15_110_cif.got.tgz:219694.got - 2010.06.03 18:47:42.
