data_PCOD9278207
_publ_section_title
;
Structure prediction by ZEFSAII (Michael W. Deem and Ramdas Pophale) SiO2 
 PCOD9278207
Probable space group: C 2/C
;
_chemical_formula_sum "Si O2"
_cell_formula_units_Z 40
_cell_length_a 14.158550
_cell_length_b 16.272213
_cell_length_c 12.152123
_cell_angle_alpha 90.000000
_cell_angle_beta 40.625045
_cell_angle_gamma 90.000000
_cell_volume 1822.927028
_symmetry_space_group_name_H-M "C 2/C"
_symmetry_group_IT_number 15
_symmetry_cell_setting 'monoclinic'
loop_
_space_group_symop_operation_xyz
x,y,z
-x,y,1/2-z
-x,-y,-z
x,-y,1/2+z
1/2+x,1/2+y,z
1/2-x,1/2+y,1/2-z
1/2-x,1/2-y,-z
1/2+x,1/2-y,1/2+z
loop_
_atom_site_type_symbol
_atom_site_label
_atom_site_fract_x
_atom_site_fract_y
_atom_site_fract_z
Si Si1 0.000000 0.918774 0.250000
Si Si2 0.241347 0.803147 0.120686
Si Si3 0.000000 0.764109 0.750000
Si Si4 0.038636 0.549348 0.073454
Si Si5 0.228638 0.179902 0.874000
Si Si6 0.767951 0.503078 0.912373
O O1 0.898916 0.860651 0.267663
O O2 0.890457 0.971617 0.419523
O O3 0.224451 0.772044 0.261253
O O4 0.250000 0.750000 0.000000
O O5 0.378493 0.864815 0.005289
O O6 0.084678 0.810861 0.576576
O O7 0.129937 0.712471 0.687916
O O8 0.142500 0.486755 0.052190
O O9 0.878533 0.563826 0.265441
O O10 0.000000 0.500000 0.000000
O O11 0.256166 0.081858 0.845131
#
# Coordination Sequence:
#
# PCOD9278207 Si02
#       6
#     4   8   4   8   8   8
#     4  10  25  44  62 107 144 180 246 302 370 431
#     4  11  26  44  69 104 149 195 234 299 384 446
#     4  10  25  44  64 103 128 190 242 298 370 443
#     4  10  20  42  68 104 135 186 243 298 358 442
#     4  11  23  46  69  97 143 185 249 304 365 451
#     4  10  21  42  69  99 132 182 248 301 353 426
#
# _framework density 21.942733
#
# number of rings (size 3 to 8) (size 9 to 14) (size 15 to 20)
#    0.000    1.600    2.000    1.800    2.800    4.000 
#    3.600    0.000    0.000    0.000    0.000    0.000 
#    0.000    0.000    0.000    0.000    0.000    0.000 
#
# Total GULP energy -111413.502041 kJ/mol
# GULP energy per Si atom -5570.675102 kJ/mol
# Density = 2.189279 g / cm^3
# Si number density = 21.942733 Si / 1000 Ang^3
#
#
#
# Elastic Constant Matrix: (Units=GPa)
#
#
# Indices 1 2 3 4 5 6 
#
# 1 83.5886 37.5577 64.2791 0.0000 13.8967 0.0000
# 2 37.5577 49.8305 42.3202 0.0000 -3.6395 0.0000
# 3 64.2791 42.3202 175.7518 0.0000 -18.9756 0.0001
# 4 0.0000 0.0000 0.0000 13.7950 0.0000 8.5521
# 5 13.8967 -3.6395 -18.9756 0.0000 52.0886 0.0000
# 6 0.0000 0.0000 0.0001 8.5521 0.0000 29.0412
#
#
#
# Elastic Compliance Matrix: (Units=1/GPa)
#
#
# Indices 1 2 3 4 5 6 
#
# 1 0.025299 -0.013851 -0.007027 0.000000 -0.010277 0.000000
# 2 -0.013851 0.032821 -0.002281 0.000000 0.005158 0.000000
# 3 -0.007027 -0.002281 0.009363 0.000000 0.005126 0.000000
# 4 0.000000 0.000000 0.000000 0.088679 0.000000 -0.026114
# 5 -0.010277 0.005158 0.005126 0.000000 0.024168 0.000000
# 6 0.000000 0.000000 0.000000 -0.026114 0.000000 0.042124
#
#
# Mechanical properties :
#
#
# Convention : Reuss Voigt Hill
#
# Bulk Modulus (GPa) = 47.24634 66.38720 56.81677
# Shear Modulus (GPa) = 18.12735 29.98591 24.05663
#
# Velocity S-wave (km/s) = 2.87735 3.70070 3.31469
# Velocity P-wave (km/s) = 5.71115 6.96999 6.37173
#
# Compressibility (1/GPa) = 0.02116566
#
# Stress axis : x y z
#
# Youngs Moduli (GPa) = 39.52683 30.46839 106.80770
#
# Poissons Ratio (x) = 0.42201 0.75057
# Poissons Ratio (y) = 0.54747 0.24358
# Poissons Ratio (z) = 0.27777 0.06948
#
# Static dielectric constant tensor:
#      x y z
#    x 1.865240 0.000000 0.065500 
#    y 0.000000 1.819540 0.000000 
#    z 0.065500 0.000000 1.992260 
# 
# From -- ./inp_files/98130.got.cif
#   From: 2010.05.17/outbox.cif.g08.bks.cpg/sg15_50_cif.got.tgz:98130.got - 2010.06.03 18:47:42.
