data_PCOD9278749
_publ_section_title
;
Structure prediction by ZEFSAII (Michael W. Deem and Ramdas Pophale) SiO2 
 PCOD9278749
Probable space group: C 2/C
;
_chemical_formula_sum "Si O2"
_cell_formula_units_Z 48
_cell_length_a 9.716519
_cell_length_b 16.667732
_cell_length_c 18.239261
_cell_angle_alpha 90.000000
_cell_angle_beta 55.529366
_cell_angle_gamma 90.000000
_cell_volume 2435.236051
_symmetry_space_group_name_H-M "C 2/C"
_symmetry_group_IT_number 15
_symmetry_cell_setting 'monoclinic'
loop_
_space_group_symop_operation_xyz
x,y,z
-x,y,1/2-z
-x,-y,-z
x,-y,1/2+z
1/2+x,1/2+y,z
1/2-x,1/2+y,1/2-z
1/2-x,1/2-y,-z
1/2+x,1/2-y,1/2+z
loop_
_atom_site_type_symbol
_atom_site_label
_atom_site_fract_x
_atom_site_fract_y
_atom_site_fract_z
Si Si1 0.909210 0.301152 0.434335
Si Si2 0.546286 0.981379 0.069754
Si Si3 0.660542 0.447731 0.925427
Si Si4 0.500000 0.329985 0.250000
Si Si5 0.000000 0.321169 0.250000
Si Si6 0.788597 0.239175 0.073760
Si Si7 0.257425 0.443234 0.232153
O O1 0.750000 0.250000 0.500000
O O2 0.867920 0.394654 0.448108
O O3 0.978540 0.276611 0.333157
O O4 0.055016 0.292363 0.449162
O O5 0.374428 0.973736 0.167446
O O6 0.679909 0.038284 0.069080
O O7 0.500000 0.000000 0.000000
O O8 0.650577 0.351449 0.927261
O O9 0.694169 0.483717 0.834659
O O10 0.500000 0.500000 0.000000
O O11 0.631868 0.273123 0.167758
O O12 0.403233 0.390822 0.224683
O O13 0.157446 0.379451 0.212571
O O14 0.750000 0.250000 0.000000
#
# Coordination Sequence:
#
# PCOD9278749 Si02
#       7
#     8   8   8   4   4   8   8
#     4  11  23  44  68  94 129 174 220 272 337 397
#     4  11  23  44  66  95 130 174 219 272 333 400
#     4  12  25  43  72  98 135 176 227 279 339 409
#     4  12  26  45  71  98 140 178 230 282 344 409
#     4  10  20  45  69  90 126 178 220 268 338 397
#     4  12  27  43  67 107 137 177 226 286 344 403
#     4  11  23  46  70  92 134 184 221 274 345 406
#
# _framework density 19.710615000000001
#
# number of rings (size 3 to 8) (size 9 to 14) (size 15 to 20)
#    0.000    0.667    6.667    3.000    7.000    0.000 
#    3.000    0.000    0.000    0.000    0.000    0.000 
#    0.000    0.000    0.000    0.000    0.000    0.000 
#
# Total GULP energy -133995.496002 kJ/mol
# GULP energy per Si atom -5583.145667 kJ/mol
# Density = 1.966575 g / cm^3
# Si number density = 19.710615 Si / 1000 Ang^3
#
#
#
# Elastic Constant Matrix: (Units=GPa)
#
#
# Indices 1 2 3 4 5 6 
#
# 1 96.7579 -0.8447 15.2614 0.0000 16.3101 0.0000
# 2 -0.8447 60.8384 24.8249 0.0000 2.5959 0.0000
# 3 15.2614 24.8249 106.1044 0.0000 17.4046 0.0000
# 4 0.0000 0.0000 0.0000 21.3314 0.0000 9.9413
# 5 16.3101 2.5959 17.4046 0.0000 37.4272 0.0000
# 6 0.0000 0.0000 0.0000 9.9413 0.0000 31.8853
#
#
#
# Elastic Compliance Matrix: (Units=1/GPa)
#
#
# Indices 1 2 3 4 5 6 
#
# 1 0.011263 0.000784 -0.001071 0.000000 -0.004465 0.000000
# 2 0.000784 0.018247 -0.004458 0.000000 0.000466 0.000000
# 3 -0.001071 -0.004458 0.011361 0.000000 -0.004507 0.000000
# 4 0.000000 0.000000 0.000000 0.054849 0.000000 -0.017101
# 5 -0.004465 0.000466 -0.004507 0.000000 0.030728 0.000000
# 6 0.000000 0.000000 0.000000 -0.017101 0.000000 0.036694
#
#
# Mechanical properties :
#
#
# Convention : Reuss Voigt Hill
#
# Bulk Modulus (GPa) = 31.86675 38.02041 34.94358
# Shear Modulus (GPa) = 27.30831 33.09272 30.20051
#
# Velocity S-wave (km/s) = 3.72622 4.10192 3.91857
# Velocity P-wave (km/s) = 5.89197 6.46262 6.18388
#
# Compressibility (1/GPa) = 0.03138067
#
# Stress axis : x y z
#
# Youngs Moduli (GPa) = 88.78269 54.80281 88.01882
#
# Poissons Ratio (x) = -0.04296 0.09428
# Poissons Ratio (y) = -0.06960 0.39243
# Poissons Ratio (z) = 0.09510 0.24434
#
# Static dielectric constant tensor:
#      x y z
#    x 1.667320 0.000000 0.001480 
#    y 0.000000 1.674320 0.000000 
#    z 0.001480 0.000000 1.710580 
# 
# From -- ./inp_files/134922.got.cif
#   From: 2010.05.17/outbox.cif.g08.bks.cpg/sg15_68_cif.got.tgz:134922.got - 2010.06.03 18:47:42.
