data_PCOD9278280
_publ_section_title
;
Structure prediction by ZEFSAII (Michael W. Deem and Ramdas Pophale) SiO2 
 PCOD9278280
Probable space group: C 2/C
;
_chemical_formula_sum "Si O2"
_cell_formula_units_Z 48
_cell_length_a 15.334226
_cell_length_b 9.385586
_cell_length_c 14.367212
_cell_angle_alpha 90.000000
_cell_angle_beta 54.709087
_cell_angle_gamma 90.000000
_cell_volume 1687.749139
_symmetry_space_group_name_H-M "C 2/C"
_symmetry_group_IT_number 15
_symmetry_cell_setting 'monoclinic'
loop_
_space_group_symop_operation_xyz
x,y,z
-x,y,1/2-z
-x,-y,-z
x,-y,1/2+z
1/2+x,1/2+y,z
1/2-x,1/2+y,1/2-z
1/2-x,1/2-y,-z
1/2+x,1/2-y,1/2+z
loop_
_atom_site_type_symbol
_atom_site_label
_atom_site_fract_x
_atom_site_fract_y
_atom_site_fract_z
Si Si1 0.941100 0.256185 0.911031
Si Si2 0.046164 0.457484 0.370751
Si Si3 0.289023 0.800358 0.865883
Si Si4 0.777552 0.081316 0.483289
Si Si5 0.498594 0.353314 0.573825
Si Si6 0.734764 0.556689 0.228818
O O1 0.888807 0.210306 0.843597
O O2 0.000101 0.403779 0.849474
O O3 0.823489 0.267011 0.033228
O O4 0.001954 0.181712 0.960588
O O5 0.004123 0.301469 0.373854
O O6 0.173659 0.446911 0.295634
O O7 0.000000 0.500000 0.500000
O O8 0.285324 0.812347 0.757232
O O9 0.283969 0.961824 0.915614
O O10 0.750000 0.250000 0.500000
O O11 0.763897 0.054624 0.382301
O O12 0.897655 0.070717 0.449609
O O13 0.388122 0.433955 0.664408
#
# Coordination Sequence:
#
# PCOD9278280 Si02
#       6
#     8   8   8   8   8   8
#     4   9  19  42  67  94 132 179 232 285 353 425
#     4  10  20  42  69  95 134 186 231 290 358 429
#     4  10  23  43  70 100 137 186 234 296 360 435
#     4  12  24  43  69 105 147 187 234 299 373 424
#     4  10  22  41  68 101 137 180 236 293 357 437
#     4  11  25  42  66 104 137 185 239 294 357 427
#
# _framework density 28.440245999999998
#
# number of rings (size 3 to 8) (size 9 to 14) (size 15 to 20)
#    0.000    1.667    0.000    5.500    2.333    3.333 
#    6.000    0.000    7.333    0.000    0.000    0.000 
#    0.000    0.000    0.000    0.000    0.000    0.000 
#
# Total GULP energy -133902.851056 kJ/mol
# GULP energy per Si atom -5579.285461 kJ/mol
# Density = 2.837551 g / cm^3
# Si number density = 28.440246 Si / 1000 Ang^3
#
#
#
# Elastic Constant Matrix: (Units=GPa)
#
#
# Indices 1 2 3 4 5 6 
#
# 1 227.6917 37.1795 68.5320 0.0000 10.2549 0.0000
# 2 37.1795 134.0516 60.9941 0.0000 3.1390 0.0000
# 3 68.5320 60.9941 105.8454 0.0000 24.1581 0.0000
# 4 0.0000 0.0000 0.0000 41.8987 0.0000 -0.6508
# 5 10.2549 3.1390 24.1581 0.0000 72.0840 0.0000
# 6 0.0000 0.0000 0.0000 -0.6508 0.0000 58.4737
#
#
#
# Elastic Compliance Matrix: (Units=1/GPa)
#
#
# Indices 1 2 3 4 5 6 
#
# 1 0.005471 0.000179 -0.003753 0.000000 0.000472 0.000000
# 2 0.000179 0.010299 -0.006435 0.000000 0.001683 0.000000
# 3 -0.003753 -0.006435 0.016676 0.000000 -0.004775 0.000000
# 4 0.000000 0.000000 0.000000 0.023871 0.000000 0.000266
# 5 0.000472 0.001683 -0.004775 0.000000 0.015332 0.000000
# 6 0.000000 0.000000 0.000000 0.000266 0.000000 0.017105
#
#
# Mechanical properties :
#
#
# Convention : Reuss Voigt Hill
#
# Bulk Modulus (GPa) = 80.46490 88.99998 84.73244
# Shear Modulus (GPa) = 44.28152 54.55014 49.41583
#
# Velocity S-wave (km/s) = 3.95017 4.38432 4.17289
# Velocity P-wave (km/s) = 7.01136 7.54926 7.28527
#
# Compressibility (1/GPa) = 0.01242778
#
# Stress axis : x y z
#
# Youngs Moduli (GPa) = 182.77885 97.10139 59.96723
#
# Poissons Ratio (x) = -0.01742 0.22508
# Poissons Ratio (y) = -0.03278 0.38587
# Poissons Ratio (z) = 0.68604 0.62482
#
# Static dielectric constant tensor:
#      x y z
#    x 2.235540 0.000000 0.031460 
#    y 0.000000 2.407800 0.000000 
#    z 0.031460 0.000000 2.311600 
# 
# From -- ./inp_files/152428.got.cif
#   From: 2010.05.17/outbox.cif.g08.bks.cpg/sg15_77_cif.got.tgz:152428.got - 2010.06.03 18:47:42.
