data_PCOD9278167
_publ_section_title
;
Structure prediction by ZEFSAII (Michael W. Deem and Ramdas Pophale) SiO2 
 PCOD9278167
Probable space group: C 2/C
;
_chemical_formula_sum "Si O2"
_cell_formula_units_Z 52
_cell_length_a 21.936608
_cell_length_b 12.437746
_cell_length_c 9.058590
_cell_angle_alpha 90.000000
_cell_angle_beta 120.337820
_cell_angle_gamma 90.000000
_cell_volume 2133.113303
_symmetry_space_group_name_H-M "C 2/C"
_symmetry_group_IT_number 15
_symmetry_cell_setting 'monoclinic'
loop_
_space_group_symop_operation_xyz
x,y,z
-x,y,1/2-z
-x,-y,-z
x,-y,1/2+z
1/2+x,1/2+y,z
1/2-x,1/2+y,1/2-z
1/2-x,1/2-y,-z
1/2+x,1/2-y,1/2+z
loop_
_atom_site_type_symbol
_atom_site_label
_atom_site_fract_x
_atom_site_fract_y
_atom_site_fract_z
Si Si1 0.000000 0.992687 0.250000
Si Si2 0.596024 0.883320 0.830841
Si Si3 0.177519 0.490365 0.664970
Si Si4 0.500000 0.156740 0.750000
Si Si5 0.227098 0.056992 0.489079
Si Si6 0.366933 0.351891 0.160753
Si Si7 0.500000 0.000000 0.000000
Si Si8 0.895512 0.834095 0.523404
O O1 0.939956 0.917246 0.241500
O O2 0.955551 0.073160 0.091752
O O3 0.651357 0.919399 0.769193
O O4 0.618929 0.762178 0.900389
O O5 0.526328 0.896722 0.645837
O O6 0.610365 0.962761 0.990616
O O7 0.223221 0.577881 0.809109
O O8 0.227954 0.437302 0.604945
O O9 0.436601 0.227074 0.611246
O O10 0.470723 0.082286 0.842058
O O11 0.159911 0.134021 0.417872
O O12 0.193470 0.935796 0.463881
O O13 0.356408 0.328245 0.320535
#
# Coordination Sequence:
#
# PCOD9278167 Si02
#       8
#     4   8   8   4   8   8   4   8
#     4   9  22  35  68 102 142 159 220 273 344 388
#     4  11  25  43  68  93 136 170 237 258 340 382
#     4  10  23  43  64  97 132 182 213 286 308 405
#     4  11  24  43  68  98 138 171 226 267 332 392
#     4  10  21  44  73  94 141 165 224 272 351 375
#     4  11  21  41  69 101 129 180 216 280 324 409
#     4  12  24  46  68  90 134 182 210 280 318 392
#     4  10  20  42  67 104 131 173 211 281 335 400
#
# _framework density 24.377514999999999
#
# number of rings (size 3 to 8) (size 9 to 14) (size 15 to 20)
#    0.000    1.538    3.077    1.385    0.000    4.308 
#    0.000    2.308    0.000    0.000    0.000    0.000 
#    0.000    0.000    0.000    0.000    0.000    0.000 
#
# Total GULP energy -144875.408255 kJ/mol
# GULP energy per Si atom -5572.131087 kJ/mol
# Density = 2.432203 g / cm^3
# Si number density = 24.377515 Si / 1000 Ang^3
#
#
#
# Elastic Constant Matrix: (Units=GPa)
#
#
# Indices 1 2 3 4 5 6 
#
# 1 54.0268 -8.7737 14.2958 0.0000 18.1721 0.0000
# 2 -8.7737 89.5246 7.2587 0.0000 -3.0165 0.0000
# 3 14.2958 7.2587 108.4903 0.0000 -2.6982 0.0000
# 4 0.0000 0.0000 0.0000 -6.8928 0.0000 -13.1956
# 5 18.1721 -3.0165 -2.6982 0.0000 35.3979 0.0000
# 6 0.0000 0.0000 0.0000 -13.1956 0.0000 12.9799
#
#
#
# Elastic Compliance Matrix: (Units=1/GPa)
#
#
# Indices 1 2 3 4 5 6 
#
# 1 0.024003 0.002228 -0.003621 0.000000 -0.012408 0.000000
# 2 0.002228 0.011467 -0.001067 0.000000 -0.000248 0.000000
# 3 -0.003621 -0.001067 0.009828 0.000000 0.002517 0.000000
# 4 0.000000 0.000000 0.000000 -0.049243 0.000000 -0.050061
# 5 -0.012408 -0.000248 0.002517 0.000000 0.034791 0.000000
# 6 0.000000 0.000000 0.000000 -0.050061 0.000000 0.026150
#
#
# Mechanical properties :
#
#
# Convention : Reuss Voigt Hill
#
# Bulk Modulus (GPa) = 24.76563 30.84482 27.80523
# Shear Modulus (GPa) = 66.33529 24.24772 45.29151
#
# Velocity S-wave (km/s) = 5.22214 3.15727 4.31504
# Velocity P-wave (km/s) = 6.82219 5.09623 6.02137
#
# Compressibility (1/GPa) = 0.04037855
#
# Stress axis : x y z
#
# Youngs Moduli (GPa) = 41.66199 87.20984 101.74528
#
# Poissons Ratio (x) = -0.19429 0.36837
# Poissons Ratio (y) = -0.09281 0.10855
# Poissons Ratio (z) = 0.15084 0.09305
#
# Static dielectric constant tensor:
#      x y z
#    x 2.290910 0.000000 -0.002360 
#    y 0.000000 1.961140 0.000000 
#    z -0.002360 0.000000 1.903130 
# 
# From -- ./inp_files/65628.got.cif
#   From: 2010.05.17/outbox.cif.g08.bks.cpg/sg15_33_cif.got.tgz:65628.got - 2010.06.03 18:47:42.
