data_PCOD9278246
_publ_section_title
;
Structure prediction by ZEFSAII (Michael W. Deem and Ramdas Pophale) SiO2 
 PCOD9278246
Probable space group: C 2/C
;
_chemical_formula_sum "Si O2"
_cell_formula_units_Z 56
_cell_length_a 17.564252
_cell_length_b 14.639665
_cell_length_c 18.990920
_cell_angle_alpha 90.000000
_cell_angle_beta 148.773102
_cell_angle_gamma 90.000000
_cell_volume 2531.603455
_symmetry_space_group_name_H-M "C 2/C"
_symmetry_group_IT_number 15
_symmetry_cell_setting 'monoclinic'
loop_
_space_group_symop_operation_xyz
x,y,z
-x,y,1/2-z
-x,-y,-z
x,-y,1/2+z
1/2+x,1/2+y,z
1/2-x,1/2+y,1/2-z
1/2-x,1/2-y,-z
1/2+x,1/2-y,1/2+z
loop_
_atom_site_type_symbol
_atom_site_label
_atom_site_fract_x
_atom_site_fract_y
_atom_site_fract_z
Si Si1 0.675977 0.982513 0.220572
Si Si2 0.581317 0.437895 0.503954
Si Si3 0.513503 0.230247 0.473872
Si Si4 0.799043 0.270819 0.248592
Si Si5 0.871440 0.034331 0.098336
Si Si6 0.828067 0.310740 0.119281
Si Si7 0.652077 0.962427 0.041796
O O1 0.753290 0.048363 0.336919
O O2 0.732335 0.879460 0.276085
O O3 0.703080 0.999810 0.158810
O O4 0.501345 0.985849 0.093889
O O5 0.500000 0.500000 0.500000
O O6 0.547978 0.330701 0.473294
O O7 0.554776 0.474338 0.404561
O O8 0.339389 0.217481 0.329791
O O9 0.557617 0.240074 0.591005
O O10 0.605100 0.144280 0.516656
O O11 0.816826 0.251950 0.181491
O O12 0.000000 0.075641 0.250000
O O13 0.765699 0.980473 0.069290
O O14 0.768457 0.098901 0.969014
O O15 0.000000 0.332937 0.250000
O O16 0.750000 0.250000 0.000000
#
# Coordination Sequence:
#
# PCOD9278246 Si02
#       7
#     8   8   8   8   8   8   8
#     4  10  20  42  68  94 135 179 234 288 352 434
#     4  12  23  42  71  96 136 191 239 290 356 428
#     4  11  24  41  70  96 136 178 241 291 345 420
#     4  11  22  42  65 101 132 176 232 287 345 428
#     4  12  27  44  69 101 147 188 239 297 356 428
#     4  12  25  43  70 103 146 182 228 295 371 433
#     4  10  24  42  68 104 138 183 234 295 362 422
#
# _framework density 22.120367000000002
#
# number of rings (size 3 to 8) (size 9 to 14) (size 15 to 20)
#    0.000    0.857    2.857    3.857    2.000    5.143 
#    0.000    0.000    0.000    0.000    0.000    0.000 
#    0.000    0.000    0.000    0.000    0.000    0.000 
#
# Total GULP energy -156330.282093 kJ/mol
# GULP energy per Si atom -5583.224360 kJ/mol
# Density = 2.207002 g / cm^3
# Si number density = 22.120367 Si / 1000 Ang^3
#
#
#
# Elastic Constant Matrix: (Units=GPa)
#
#
# Indices 1 2 3 4 5 6 
#
# 1 98.2663 15.3534 19.0623 -0.0004 -4.2500 -0.0002
# 2 15.3534 81.8050 8.1023 -0.0003 3.4086 -0.0002
# 3 19.0623 8.1023 106.6095 -0.0004 -3.5662 -0.0002
# 4 -0.0004 -0.0003 -0.0004 37.2216 -0.0001 1.6179
# 5 -4.2500 3.4086 -3.5662 -0.0001 30.8168 0.0000
# 6 -0.0002 -0.0002 -0.0002 1.6179 0.0000 32.0389
#
#
#
# Elastic Compliance Matrix: (Units=1/GPa)
#
#
# Indices 1 2 3 4 5 6 
#
# 1 0.010883 -0.001932 -0.001748 0.000000 0.001512 0.000000
# 2 -0.001932 0.012727 -0.000680 0.000000 -0.001753 0.000000
# 3 -0.001748 -0.000680 0.009777 0.000000 0.000965 0.000000
# 4 0.000000 0.000000 0.000000 0.026925 0.000000 -0.001360
# 5 0.001512 -0.001753 0.000965 0.000000 0.032964 0.000000
# 6 0.000000 0.000000 0.000000 -0.001360 0.000000 0.031281
#
#
# Mechanical properties :
#
#
# Convention : Reuss Voigt Hill
#
# Bulk Modulus (GPa) = 40.54427 41.30188 40.92307
# Shear Modulus (GPa) = 35.33548 36.29297 35.81423
#
# Velocity S-wave (km/s) = 4.00111 4.05495 4.02812
# Velocity P-wave (km/s) = 6.30189 6.37460 6.33835
#
# Compressibility (1/GPa) = 0.02466440
#
# Stress axis : x y z
#
# Youngs Moduli (GPa) = 91.88699 78.57131 102.28433
#
# Poissons Ratio (x) = 0.15183 0.17884
# Poissons Ratio (y) = 0.17756 0.06959
# Poissons Ratio (z) = 0.16066 0.05346
#
# Static dielectric constant tensor:
#      x y z
#    x 1.896470 0.000000 0.031420 
#    y 0.000000 1.927360 0.000000 
#    z 0.031420 0.000000 1.888410 
# 
# From -- ./inp_files/249282.got.cif
#   From: 2010.05.17/outbox.cif.g08.bks.cpg/sg15_125_cif.got.tgz:249282.got - 2010.06.03 18:47:42.
