data_PCOD9278932
_publ_section_title
;
Structure prediction by ZEFSAII (Michael W. Deem and Ramdas Pophale) SiO2 
 PCOD9278932
Probable space group: C 2/C
;
_chemical_formula_sum "Si O2"
_cell_formula_units_Z 56
_cell_length_a 26.028105
_cell_length_b 11.934539
_cell_length_c 16.798090
_cell_angle_alpha 90.000000
_cell_angle_beta 141.817248
_cell_angle_gamma 90.000000
_cell_volume 3225.650349
_symmetry_space_group_name_H-M "C 2/C"
_symmetry_group_IT_number 15
_symmetry_cell_setting 'monoclinic'
loop_
_space_group_symop_operation_xyz
x,y,z
-x,y,1/2-z
-x,-y,-z
x,-y,1/2+z
1/2+x,1/2+y,z
1/2-x,1/2+y,1/2-z
1/2-x,1/2-y,-z
1/2+x,1/2-y,1/2+z
loop_
_atom_site_type_symbol
_atom_site_label
_atom_site_fract_x
_atom_site_fract_y
_atom_site_fract_z
Si Si1 0.782469 0.024103 0.215609
Si Si2 0.808771 0.425093 0.044005
Si Si3 0.617357 0.087565 0.099037
Si Si4 0.598918 0.350557 0.055472
Si Si5 0.055073 0.449108 0.172367
Si Si6 0.913621 0.813126 0.809472
Si Si7 0.658212 0.329624 0.951436
O O1 0.707518 0.043852 0.185086
O O2 0.837344 0.135078 0.265092
O O3 0.845097 0.931118 0.323468
O O4 0.737469 0.998895 0.076584
O O5 0.894064 0.468389 0.184996
O O6 0.824938 0.303979 0.022720
O O7 0.743711 0.393742 0.034995
O O8 0.618066 0.221626 0.100154
O O9 0.586853 0.035205 0.144787
O O10 0.544949 0.050653 0.948261
O O11 0.500122 0.364838 0.943723
O O12 0.619912 0.367300 0.987580
O O13 0.078780 0.321265 0.175971
O O14 0.897442 0.840795 0.696224
#
# Coordination Sequence:
#
# PCOD9278932 Si02
#       7
#     8   8   8   8   8   8   8
#     4  11  21  31  50  78 109 132 172 210 260 318
#     4   9  17  31  51  77 102 136 168 219 262 297
#     4  10  21  33  52  80  99 138 174 210 267 303
#     4  11  20  33  51  78 108 137 171 211 261 317
#     4   9  19  36  54  72 106 132 172 222 255 310
#     4   9  20  34  54  77 103 135 170 219 266 301
#     4   9  16  30  53  76 102 130 176 216 258 302
#
# _framework density 17.36084
#
# number of rings (size 3 to 8) (size 9 to 14) (size 15 to 20)
#    0.000    2.286    1.429    2.571    2.000    0.571 
#    0.000    0.714    0.000    0.000    0.000    0.000 
#    0.000    0.000    0.000    0.000    0.000    0.000 
#
# Total GULP energy -156123.827062 kJ/mol
# GULP energy per Si atom -5575.850966 kJ/mol
# Density = 1.732133 g / cm^3
# Si number density = 17.360840 Si / 1000 Ang^3
#
#
#
# Elastic Constant Matrix: (Units=GPa)
#
#
# Indices 1 2 3 4 5 6 
#
# 1 55.1352 14.4419 20.2143 0.0000 13.0487 0.0000
# 2 14.4419 39.1010 37.7423 0.0000 2.2266 0.0000
# 3 20.2143 37.7423 119.8807 0.0000 22.9802 0.0000
# 4 0.0000 0.0000 0.0000 27.5323 0.0000 5.3412
# 5 13.0487 2.2266 22.9802 0.0000 28.0620 0.0000
# 6 0.0000 0.0000 0.0000 5.3412 0.0000 16.9535
#
#
#
# Elastic Compliance Matrix: (Units=1/GPa)
#
#
# Indices 1 2 3 4 5 6 
#
# 1 0.022558 -0.008641 0.000944 0.000000 -0.010577 0.000000
# 2 -0.008641 0.041539 -0.013949 0.000000 0.012145 0.000000
# 3 0.000944 -0.013949 0.014763 0.000000 -0.011422 0.000000
# 4 0.000000 0.000000 0.000000 0.038685 0.000000 -0.012188
# 5 -0.010577 0.012145 -0.011422 0.000000 0.048944 0.000000
# 6 0.000000 0.000000 0.000000 -0.012188 0.000000 0.062825
#
#
# Mechanical properties :
#
#
# Convention : Reuss Voigt Hill
#
# Bulk Modulus (GPa) = 28.11418 39.87930 33.99674
# Shear Modulus (GPa) = 17.57714 23.95745 20.76730
#
# Velocity S-wave (km/s) = 3.18537 3.71883 3.46239
# Velocity P-wave (km/s) = 5.45508 6.43896 5.96734
#
# Compressibility (1/GPa) = 0.03556924
#
# Stress axis : x y z
#
# Youngs Moduli (GPa) = 44.33109 24.07396 67.73470
#
# Poissons Ratio (x) = 0.20801 -0.06395
# Poissons Ratio (y) = 0.38305 0.94481
# Poissons Ratio (z) = -0.04186 0.33580
#
# Static dielectric constant tensor:
#      x y z
#    x 1.609260 0.000000 0.011160 
#    y 0.000000 1.561620 0.000000 
#    z 0.011160 0.000000 1.626800 
# 
# From -- ./inp_files/177600.got.cif
#   From: 2010.05.17/outbox.cif.g08.bks.cpg/sg15_89_cif.got.tgz:177600.got - 2010.06.03 18:47:42.
