data_PCOD9278181
_publ_section_title
;
Structure prediction by ZEFSAII (Michael W. Deem and Ramdas Pophale) SiO2 
 PCOD9278181
Probable space group: C 2/C
;
_chemical_formula_sum "Si O2"
_cell_formula_units_Z 48
_cell_length_a 15.373872
_cell_length_b 9.196827
_cell_length_c 17.419607
_cell_angle_alpha 90.000000
_cell_angle_beta 57.497219
_cell_angle_gamma 90.000000
_cell_volume 2077.186028
_symmetry_space_group_name_H-M "C 2/C"
_symmetry_group_IT_number 15
_symmetry_cell_setting 'monoclinic'
loop_
_space_group_symop_operation_xyz
x,y,z
-x,y,1/2-z
-x,-y,-z
x,-y,1/2+z
1/2+x,1/2+y,z
1/2-x,1/2+y,1/2-z
1/2-x,1/2-y,-z
1/2+x,1/2-y,1/2+z
loop_
_atom_site_type_symbol
_atom_site_label
_atom_site_fract_x
_atom_site_fract_y
_atom_site_fract_z
Si Si1 0.534326 0.070290 0.321547
Si Si2 0.566384 0.367472 0.143880
Si Si3 0.219634 0.088215 0.297989
Si Si4 0.833238 0.076038 0.522863
Si Si5 0.870104 0.594340 0.986195
Si Si6 0.255527 0.110278 0.652923
O O1 0.500000 0.050844 0.250000
O O2 0.489352 0.228291 0.366302
O O3 0.656530 0.070676 0.264631
O O4 0.477458 0.950385 0.398490
O O5 0.500000 0.409395 0.250000
O O6 0.677532 0.320924 0.127062
O O7 0.590905 0.492595 0.071620
O O8 0.201460 0.259695 0.315416
O O9 0.175347 0.008563 0.393418
O O10 0.189440 0.003133 0.235477
O O11 0.867305 0.241805 0.517633
O O12 0.720660 0.080416 0.535027
O O13 0.838702 0.481687 0.067107
#
# Coordination Sequence:
#
# PCOD9278181 Si02
#       6
#     8   8   8   8   8   8
#     4  11  20  39  68  92 119 163 219 252 302 371
#     4  10  20  42  67  92 118 168 215 257 296 382
#     4  12  23  41  64  94 127 166 204 266 314 371
#     4  10  21  38  63  92 126 164 212 254 315 370
#     4  10  21  39  61  93 125 167 208 259 306 381
#     4  11  23  40  64  89 132 161 207 255 326 361
#
# _framework density 23.108184999999999
#
# number of rings (size 3 to 8) (size 9 to 14) (size 15 to 20)
#    0.000    1.333    5.000    2.000    0.000    4.000 
#    6.000    0.833    0.000    0.000    0.000    0.000 
#    0.000    0.000    0.000    0.000    0.000    0.000 
#
# Total GULP energy -134365.110494 kJ/mol
# GULP energy per Si atom -5598.546271 kJ/mol
# Density = 2.305559 g / cm^3
# Si number density = 23.108185 Si / 1000 Ang^3
#
#
#
# Elastic Constant Matrix: (Units=GPa)
#
#
# Indices 1 2 3 4 5 6 
#
# 1 54.8158 19.9068 -1.4728 0.0000 -7.5021 0.0000
# 2 19.9068 137.3893 55.2302 0.0000 -19.6492 0.0000
# 3 -1.4728 55.2302 95.8529 0.0000 -19.0292 0.0000
# 4 0.0000 0.0000 0.0000 49.6613 0.0000 -0.0556
# 5 -7.5021 -19.6492 -19.0292 0.0000 23.0669 0.0000
# 6 0.0000 0.0000 0.0000 -0.0556 0.0000 17.4636
#
#
#
# Elastic Compliance Matrix: (Units=1/GPa)
#
#
# Indices 1 2 3 4 5 6 
#
# 1 0.020526 -0.003482 0.003657 0.000000 0.006727 0.000000
# 2 -0.003482 0.010428 -0.005409 0.000000 0.003288 0.000000
# 3 0.003657 -0.005409 0.015459 0.000000 0.009334 0.000000
# 4 0.000000 0.000000 0.000000 0.020136 0.000000 0.000064
# 5 0.006727 0.003288 0.009334 0.000000 0.056041 0.000000
# 6 0.000000 0.000000 0.000000 0.000064 0.000000 0.057262
#
#
# Mechanical properties :
#
#
# Convention : Reuss Voigt Hill
#
# Bulk Modulus (GPa) = 27.82072 48.37629 38.09850
# Shear Modulus (GPa) = 24.71540 32.33128 28.52334
#
# Velocity S-wave (km/s) = 3.27395 3.74455 3.51713
# Velocity P-wave (km/s) = 5.13392 6.29886 5.74599
#
# Compressibility (1/GPa) = 0.03594443
#
# Stress axis : x y z
#
# Youngs Moduli (GPa) = 48.71767 95.89641 64.68799
#
# Poissons Ratio (x) = 0.33394 -0.23658
# Poissons Ratio (y) = 0.16965 0.34992
# Poissons Ratio (z) = -0.17818 0.51874
#
# Static dielectric constant tensor:
#      x y z
#    x 1.905510 0.000000 0.019150 
#    y 0.000000 1.853800 0.000000 
#    z 0.019150 0.000000 1.817990 
# 
# From -- ./inp_files/213743.got.cif
#   From: 2010.05.17/outbox.cif.g08.bks.cpg/sg15_107_cif.got.tgz:213743.got - 2010.06.03 18:47:42.
