data_PCOD9278500
_publ_section_title
;
Structure prediction by ZEFSAII (Michael W. Deem and Ramdas Pophale) SiO2 
 PCOD9278500
Probable space group: C 2/C
;
_chemical_formula_sum "Si O2"
_cell_formula_units_Z 60
_cell_length_a 23.181698
_cell_length_b 8.225817
_cell_length_c 14.607956
_cell_angle_alpha 90.000000
_cell_angle_beta 92.819449
_cell_angle_gamma 90.000000
_cell_volume 2782.195901
_symmetry_space_group_name_H-M "C 2/C"
_symmetry_group_IT_number 15
_symmetry_cell_setting 'monoclinic'
loop_
_space_group_symop_operation_xyz
x,y,z
-x,y,1/2-z
-x,-y,-z
x,-y,1/2+z
1/2+x,1/2+y,z
1/2-x,1/2+y,1/2-z
1/2-x,1/2-y,-z
1/2+x,1/2-y,1/2+z
loop_
_atom_site_type_symbol
_atom_site_label
_atom_site_fract_x
_atom_site_fract_y
_atom_site_fract_z
Si Si1 0.815115 0.629235 0.191927
Si Si2 0.883926 0.562967 0.031981
Si Si3 0.000000 0.289188 0.250000
Si Si4 0.591108 0.007389 0.158280
Si Si5 0.336132 0.697825 0.041620
Si Si6 0.765060 0.173086 0.851318
Si Si7 0.050640 0.068800 0.395258
Si Si8 0.001849 0.257199 0.566140
O O1 0.844402 0.668368 0.096642
O O2 0.866317 0.546509 0.255753
O O3 0.790870 0.765537 0.257858
O O4 0.764931 0.499970 0.166487
O O5 0.867413 0.375076 0.051120
O O6 0.950881 0.609828 0.053261
O O7 0.875198 0.578479 0.922523
O O8 0.961845 0.399525 0.312331
O O9 0.955198 0.174688 0.195042
O O10 0.559103 0.165699 0.113834
O O11 0.284486 0.707380 0.111126
O O12 0.383678 0.564019 0.067271
O O13 0.311043 0.673302 0.937910
O O14 0.016502 0.171232 0.470727
O O15 0.023441 0.892908 0.378668
#
# Coordination Sequence:
#
# PCOD9278500 Si02
#       8
#     8   8   4   8   8   8   8   8
#     4  11  24  41  66  95 125 165 226 270 327 381
#     4  11  21  40  68  96 126 174 218 259 313 409
#     4  12  24  38  68  96 136 170 218 262 322 396
#     4  12  22  41  66  97 128 177 219 262 315 409
#     4  10  20  43  68  85 130 175 218 265 328 381
#     4  10  22  42  65  93 121 172 220 276 323 379
#     4  11  23  40  61 102 134 172 204 273 333 382
#     4  11  23  40  64  95 139 166 211 259 329 395
#
# _framework density 21.565698999999999
#
# number of rings (size 3 to 8) (size 9 to 14) (size 15 to 20)
#    0.000    1.067    4.000    3.600    0.000    2.667 
#    2.400    3.333    0.000    0.000    0.000    0.000 
#    0.000    0.000    0.000    0.000    0.000    0.000 
#
# Total GULP energy -167636.865167 kJ/mol
# GULP energy per Si atom -5587.895506 kJ/mol
# Density = 2.151661 g / cm^3
# Si number density = 21.565699 Si / 1000 Ang^3
#
#
#
# Elastic Constant Matrix: (Units=GPa)
#
#
# Indices 1 2 3 4 5 6 
#
# 1 93.6739 24.9326 32.4311 0.0000 0.9602 0.0000
# 2 24.9326 53.6014 32.1456 0.0000 9.9515 0.0000
# 3 32.4311 32.1456 81.9388 0.0000 -14.5659 0.0000
# 4 0.0000 0.0000 0.0000 13.3815 0.0000 0.8210
# 5 0.9602 9.9515 -14.5659 0.0000 41.0799 0.0000
# 6 0.0000 0.0000 0.0000 0.8210 0.0000 19.8446
#
#
#
# Elastic Compliance Matrix: (Units=1/GPa)
#
#
# Indices 1 2 3 4 5 6 
#
# 1 0.012975 -0.003551 -0.003889 0.000000 -0.000822 0.000000
# 2 -0.003551 0.029862 -0.012360 0.000000 -0.011533 0.000000
# 3 -0.003889 -0.012360 0.020428 0.000000 0.010328 0.000000
# 4 0.000000 0.000000 0.000000 0.074920 0.000000 -0.003100
# 5 -0.000822 -0.011533 0.010328 0.000000 0.030818 0.000000
# 6 0.000000 0.000000 0.000000 -0.003100 0.000000 0.050520
#
#
# Mechanical properties :
#
#
# Convention : Reuss Voigt Hill
#
# Bulk Modulus (GPa) = 42.25390 45.35920 43.80655
# Shear Modulus (GPa) = 18.72585 24.17485 21.45035
#
# Velocity S-wave (km/s) = 2.94992 3.35175 3.15723
# Velocity P-wave (km/s) = 5.58913 6.00480 5.80069
#
# Compressibility (1/GPa) = 0.02366645
#
# Stress axis : x y z
#
# Youngs Moduli (GPa) = 77.07064 33.48791 48.95151
#
# Poissons Ratio (x) = 0.11890 0.19036
# Poissons Ratio (y) = 0.27365 0.60504
# Poissons Ratio (z) = 0.29970 0.41391
#
# Static dielectric constant tensor:
#      x y z
#    x 1.786680 0.000000 -0.038440 
#    y 0.000000 1.792590 0.000000 
#    z -0.038440 0.000000 1.793670 
# 
# From -- ./inp_files/171941.got.cif
#   From: 2010.05.17/outbox.cif.g08.bks.cpg/sg15_86_cif.got.tgz:171941.got - 2010.06.03 18:47:42.
