data_PCOD9278878
_publ_section_title
;
Structure prediction by ZEFSAII (Michael W. Deem and Ramdas Pophale) SiO2 
 PCOD9278878
Probable space group: C 2/C
;
_chemical_formula_sum "Si O2"
_cell_formula_units_Z 64
_cell_length_a 28.441065
_cell_length_b 13.560488
_cell_length_c 9.573707
_cell_angle_alpha 90.000000
_cell_angle_beta 120.803134
_cell_angle_gamma 90.000000
_cell_volume 3171.465794
_symmetry_space_group_name_H-M "C 2/C"
_symmetry_group_IT_number 15
_symmetry_cell_setting 'monoclinic'
loop_
_space_group_symop_operation_xyz
x,y,z
-x,y,1/2-z
-x,-y,-z
x,-y,1/2+z
1/2+x,1/2+y,z
1/2-x,1/2+y,1/2-z
1/2-x,1/2-y,-z
1/2+x,1/2-y,1/2+z
loop_
_atom_site_type_symbol
_atom_site_label
_atom_site_fract_x
_atom_site_fract_y
_atom_site_fract_z
Si Si1 0.038975 0.506353 0.428336
Si Si2 0.633752 0.719278 0.209168
Si Si3 0.298353 0.267359 0.268648
Si Si4 0.106812 0.659020 0.910589
Si Si5 0.201306 0.070531 0.493338
Si Si6 0.814944 0.842087 0.980606
Si Si7 0.841974 0.590136 0.874755
Si Si8 0.688811 0.001211 0.420055
O O1 0.058743 0.395367 0.419844
O O2 0.092852 0.574078 0.524341
O O3 0.000000 0.547348 0.250000
O O4 0.000000 0.500000 0.500000
O O5 0.591759 0.768069 0.258293
O O6 0.659108 0.629358 0.332574
O O7 0.634722 0.688254 0.046862
O O8 0.671569 0.816390 0.241732
O O9 0.348955 0.212633 0.423316
O O10 0.287505 0.361053 0.354675
O O11 0.243651 0.200204 0.166533
O O12 0.316973 0.304043 0.143485
O O13 0.137866 0.563438 0.893925
O O14 0.254192 0.052712 0.476263
O O15 0.185453 0.960774 0.515082
O O16 0.818405 0.494927 0.757216
O O17 0.816833 0.595822 0.990729
#
# Coordination Sequence:
#
# PCOD9278878 Si02
#       8
#     8   8   8   8   8   8   8   8
#     4  11  22  38  60  89 119 149 190 238 297 371
#     4  10  21  38  53  76 112 154 200 239 293 338
#     4  10  22  36  51  80 112 151 209 249 289 340
#     4   9  20  38  55  75 113 156 186 228 299 358
#     4  11  23  37  53  76 118 161 206 253 287 332
#     4  11  23  32  55  82 110 153 211 260 272 325
#     4  10  22  36  55  80 113 156 192 233 295 359
#     4  10  21  32  52  75 108 157 198 234 281 333
#
# _framework density 20.179943000000002
#
# number of rings (size 3 to 8) (size 9 to 14) (size 15 to 20)
#    0.000    1.750    0.000    5.250   10.500    4.500 
#    0.000    0.000    0.000    0.000    0.000    0.000 
#    0.000   82.000    0.000    0.000    0.000    0.000 
#
# Total GULP energy -178169.245963 kJ/mol
# GULP energy per Si atom -5567.788936 kJ/mol
# Density = 2.013401 g / cm^3
# Si number density = 20.179943 Si / 1000 Ang^3
#
#
#
# Elastic Constant Matrix: (Units=GPa)
#
#
# Indices 1 2 3 4 5 6 
#
# 1 89.0955 27.4379 9.0990 0.0000 -25.5017 0.0000
# 2 27.4379 96.0589 17.8143 0.0000 -16.4107 0.0000
# 3 9.0990 17.8143 65.0751 0.0000 -23.0325 0.0000
# 4 0.0000 0.0000 0.0000 32.5954 0.0000 -12.6825
# 5 -25.5017 -16.4107 -23.0325 0.0000 34.9541 0.0000
# 6 0.0000 0.0000 0.0000 -12.6825 0.0000 31.9143
#
#
#
# Elastic Compliance Matrix: (Units=1/GPa)
#
#
# Indices 1 2 3 4 5 6 
#
# 1 0.015113 -0.002862 0.002735 0.000000 0.011485 0.000000
# 2 -0.002862 0.011987 -0.002124 0.000000 0.002140 0.000000
# 3 0.002735 -0.002124 0.020761 0.000000 0.014679 0.000000
# 4 0.000000 0.000000 0.000000 0.036290 0.000000 0.014422
# 5 0.011485 0.002140 0.014679 0.000000 0.047665 0.000000
# 6 0.000000 0.000000 0.000000 0.014422 0.000000 0.037065
#
#
# Mechanical properties :
#
#
# Convention : Reuss Voigt Hill
#
# Bulk Modulus (GPa) = 23.06240 39.88133 31.47186
# Shear Modulus (GPa) = 26.61879 32.95130 29.78504
#
# Velocity S-wave (km/s) = 3.63584 4.04527 3.84601
# Velocity P-wave (km/s) = 5.39249 6.45172 5.94574
#
# Compressibility (1/GPa) = 0.04336063
#
# Stress axis : x y z
#
# Youngs Moduli (GPa) = 66.16694 83.42152 48.16684
#
# Poissons Ratio (x) = 0.23876 -0.13175
# Poissons Ratio (y) = 0.18937 0.10229
# Poissons Ratio (z) = -0.18098 0.17717
#
# Static dielectric constant tensor:
#      x y z
#    x 1.746010 0.000000 -0.055810 
#    y 0.000000 1.825380 0.000000 
#    z -0.055810 0.000000 1.816930 
# 
# From -- ./inp_files/69968.got.cif
#   From: 2010.05.17/outbox.cif.g08.bks.cpg/sg15_35_cif.got.tgz:69968.got - 2010.06.03 18:47:42.
