data_PCOD9278319
_publ_section_title
;
Structure prediction by ZEFSAII (Michael W. Deem and Ramdas Pophale) SiO2 
 PCOD9278319
Probable space group: C 2/C
;
_chemical_formula_sum "Si O2"
_cell_formula_units_Z 52
_cell_length_a 11.100903
_cell_length_b 7.690204
_cell_length_c 28.270516
_cell_angle_alpha 90.000000
_cell_angle_beta 122.044026
_cell_angle_gamma 90.000000
_cell_volume 2045.698765
_symmetry_space_group_name_H-M "C 2/C"
_symmetry_group_IT_number 15
_symmetry_cell_setting 'monoclinic'
loop_
_space_group_symop_operation_xyz
x,y,z
-x,y,1/2-z
-x,-y,-z
x,-y,1/2+z
1/2+x,1/2+y,z
1/2-x,1/2+y,1/2-z
1/2-x,1/2-y,-z
1/2+x,1/2-y,1/2+z
loop_
_atom_site_type_symbol
_atom_site_label
_atom_site_fract_x
_atom_site_fract_y
_atom_site_fract_z
Si Si1 0.948360 0.782159 0.150051
Si Si2 0.646809 0.326453 0.017824
Si Si3 0.199933 0.635380 0.662821
Si Si4 0.910499 0.386421 0.137037
Si Si5 0.914181 0.803055 0.033744
Si Si6 0.500000 0.813786 0.250000
Si Si7 0.721882 0.511038 0.228465
O O1 0.799734 0.860213 0.138203
O O2 0.937970 0.580378 0.163041
O O3 0.964355 0.777143 0.097234
O O4 0.079789 0.894972 0.195577
O O5 0.754256 0.375552 0.083252
O O6 0.518626 0.222260 0.016079
O O7 0.750000 0.250000 0.000000
O O8 0.582759 0.493885 0.978393
O O9 0.247447 0.481424 0.708709
O O10 0.030315 0.630852 0.621156
O O11 0.220317 0.811939 0.698145
O O12 0.948456 0.250821 0.186850
O O13 0.750000 0.750000 0.000000
O O14 0.355588 0.909107 0.235188
#
# Coordination Sequence:
#
# PCOD9278319 Si02
#       7
#     8   8   8   8   8   4   8
#     4  12  25  45  71  98 146 179 240 289 361 418
#     4  11  27  47  75 103 145 183 247 300 361 423
#     4  11  26  43  70 101 144 183 235 292 355 422
#     4  11  24  45  70 102 139 187 224 298 351 424
#     4  11  26  47  72 103 137 194 232 297 362 422
#     4  10  20  42  70  92 136 176 224 268 354 412
#     4  11  23  44  69  98 138 186 225 289 349 426
#
# _framework density 25.419187000000001
#
# number of rings (size 3 to 8) (size 9 to 14) (size 15 to 20)
#    0.000    0.923    3.077    3.231    4.308    1.846 
#   16.615    0.000    0.000    0.000    0.000    0.000 
#    0.000    0.000    0.000    0.000    0.000    0.000 
#
# Total GULP energy -145260.527862 kJ/mol
# GULP energy per Si atom -5586.943379 kJ/mol
# Density = 2.536133 g / cm^3
# Si number density = 25.419187 Si / 1000 Ang^3
#
#
#
# Elastic Constant Matrix: (Units=GPa)
#
#
# Indices 1 2 3 4 5 6 
#
# 1 226.0165 20.5021 15.1509 0.0000 -21.9856 0.0000
# 2 20.5021 74.7933 2.1238 0.0000 -1.9706 0.0000
# 3 15.1509 2.1238 72.5702 0.0000 1.0185 0.0000
# 4 0.0000 0.0000 0.0000 16.6169 0.0000 -2.7467
# 5 -21.9856 -1.9706 1.0185 0.0000 50.9184 0.0000
# 6 0.0000 0.0000 0.0000 -2.7467 0.0000 32.2029
#
#
#
# Elastic Compliance Matrix: (Units=1/GPa)
#
#
# Indices 1 2 3 4 5 6 
#
# 1 0.004802 -0.001234 -0.000995 0.000000 0.002046 0.000000
# 2 -0.001234 0.013713 -0.000144 0.000000 0.000001 0.000000
# 3 -0.000995 -0.000144 0.014002 0.000000 -0.000715 0.000000
# 4 0.000000 0.000000 0.000000 0.061040 0.000000 0.005206
# 5 0.002046 0.000001 -0.000715 0.000000 0.020537 0.000000
# 6 0.000000 0.000000 0.000000 0.005206 0.000000 0.031497
#
#
# Mechanical properties :
#
#
# Convention : Reuss Voigt Hill
#
# Bulk Modulus (GPa) = 36.00946 49.88152 42.94549
# Shear Modulus (GPa) = 31.32962 42.32119 36.82540
#
# Velocity S-wave (km/s) = 3.51453 4.08478 3.81034
# Velocity P-wave (km/s) = 5.53771 6.47406 6.02411
#
# Compressibility (1/GPa) = 0.02777048
#
# Stress axis : x y z
#
# Youngs Moduli (GPa) = 208.24203 72.92567 71.41958
#
# Poissons Ratio (x) = 0.09000 0.07107
# Poissons Ratio (y) = 0.25701 0.01026
# Poissons Ratio (z) = 0.20723 0.01048
#
# Static dielectric constant tensor:
#      x y z
#    x 2.067810 0.000000 -0.010560 
#    y 0.000000 2.117460 0.000000 
#    z -0.010560 0.000000 1.954310 
# 
# From -- ./inp_files/310084.got.cif
#   From: 2010.05.17/outbox.cif.g08.bks.cpg/sg15_156_cif.got.tgz:310084.got - 2010.06.03 18:47:42.
