data_PCOD9278757
_publ_section_title
;
Structure prediction by ZEFSAII (Michael W. Deem and Ramdas Pophale) SiO2 
 PCOD9278757
Probable space group: C 2/C
;
_chemical_formula_sum "Si O2"
_cell_formula_units_Z 44
_cell_length_a 15.999775
_cell_length_b 14.689704
_cell_length_c 7.984226
_cell_angle_alpha 90.000000
_cell_angle_beta 74.672559
_cell_angle_gamma 90.000000
_cell_volume 1809.801199
_symmetry_space_group_name_H-M "C 2/C"
_symmetry_group_IT_number 15
_symmetry_cell_setting 'monoclinic'
loop_
_space_group_symop_operation_xyz
x,y,z
-x,y,1/2-z
-x,-y,-z
x,-y,1/2+z
1/2+x,1/2+y,z
1/2-x,1/2+y,1/2-z
1/2-x,1/2-y,-z
1/2+x,1/2-y,1/2+z
loop_
_atom_site_type_symbol
_atom_site_label
_atom_site_fract_x
_atom_site_fract_y
_atom_site_fract_z
Si Si1 0.000000 0.890868 0.750000
Si Si2 0.315360 0.541917 0.429547
Si Si3 0.217857 0.293906 0.842251
Si Si4 0.952149 0.413058 0.102547
Si Si5 0.243572 0.385784 0.304589
Si Si6 0.017919 0.239865 0.921775
O O1 0.912721 0.948475 0.813233
O O2 0.998808 0.826939 0.585886
O O3 0.254108 0.604753 0.342490
O O4 0.280066 0.439774 0.442554
O O5 0.306500 0.583789 0.619168
O O6 0.257595 0.223152 0.688087
O O7 0.115028 0.281053 0.884575
O O8 0.250000 0.250000 0.000000
O O9 0.850943 0.424032 0.190218
O O10 0.000000 0.388501 0.250000
O O11 0.000000 0.500000 0.000000
O O12 0.958485 0.328897 0.972779
O O13 0.000000 0.197441 0.750000
#
# Coordination Sequence:
#
# PCOD9278757 Si02
#       6
#     4   8   8   8   8   8
#     4  12  24  50  72 100 144 198 236 312 364 422
#     4  11  25  44  73 100 142 194 245 298 375 432
#     4  10  20  45  70  98 144 192 234 292 374 427
#     4  12  23  40  68 104 150 190 235 302 372 436
#     4  11  23  43  67 103 139 191 239 293 365 437
#     4  12  25  43  74 111 141 189 251 294 365 444
#
# _framework density 24.312063999999999
#
# number of rings (size 3 to 8) (size 9 to 14) (size 15 to 20)
#    0.000    0.727    4.545    6.000    0.000    3.636 
#    1.636    2.727    0.000    0.000    0.000    0.000 
#    0.000    0.000    0.000    0.000    0.000    0.000 
#
# Total GULP energy -123151.847117 kJ/mol
# GULP energy per Si atom -5597.811233 kJ/mol
# Density = 2.425673 g / cm^3
# Si number density = 24.312064 Si / 1000 Ang^3
#
#
#
# Elastic Constant Matrix: (Units=GPa)
#
#
# Indices 1 2 3 4 5 6 
#
# 1 101.8811 -24.2441 28.3652 0.0000 -28.5223 0.0000
# 2 -24.2441 59.8483 3.1765 0.0000 8.4783 0.0000
# 3 28.3652 3.1765 107.1850 0.0000 16.7837 0.0000
# 4 0.0000 0.0000 0.0000 31.8157 0.0000 3.7989
# 5 -28.5223 8.4783 16.7837 0.0000 45.7467 0.0000
# 6 0.0000 0.0000 0.0000 3.7989 0.0000 10.4336
#
#
#
# Elastic Compliance Matrix: (Units=1/GPa)
#
#
# Indices 1 2 3 4 5 6 
#
# 1 0.015875 0.005171 -0.006105 0.000000 0.011180 0.000000
# 2 0.005171 0.018844 -0.002000 0.000000 0.000466 0.000000
# 3 -0.006105 -0.002000 0.012246 0.000000 -0.007929 0.000000
# 4 0.000000 0.000000 0.000000 0.032860 0.000000 -0.011964
# 5 0.011180 0.000466 -0.007929 0.000000 0.031652 0.000000
# 6 0.000000 0.000000 0.000000 -0.011964 0.000000 0.100200
#
#
# Mechanical properties :
#
#
# Convention : Reuss Voigt Hill
#
# Bulk Modulus (GPa) = 24.33189 31.50106 27.91648
# Shear Modulus (GPa) = 21.62215 35.04032 28.33124
#
# Velocity S-wave (km/s) = 2.98545 3.80053 3.41738
# Velocity P-wave (km/s) = 4.68121 5.67836 5.20373
#
# Compressibility (1/GPa) = 0.04109833
#
# Stress axis : x y z
#
# Youngs Moduli (GPa) = 62.99018 53.06734 81.65879
#
# Poissons Ratio (x) = -0.27443 0.49853
# Poissons Ratio (y) = -0.32574 0.16331
# Poissons Ratio (z) = 0.38456 0.10613
#
# Static dielectric constant tensor:
#      x y z
#    x 1.895480 0.000000 -0.005760 
#    y 0.000000 1.957420 0.000000 
#    z -0.005760 0.000000 1.990780 
# 
# From -- ./inp_files/47004.got.cif
#   From: 2010.05.17/outbox.cif.g08.bks.cpg/sg15_24_cif.got.tgz:47004.got - 2010.06.03 18:47:42.
