data_PCOD9278514
_publ_section_title
;
Structure prediction by ZEFSAII (Michael W. Deem and Ramdas Pophale) SiO2 
 PCOD9278514
Probable space group: C 2/C
;
_chemical_formula_sum "Si O2"
_cell_formula_units_Z 48
_cell_length_a 10.196699
_cell_length_b 21.282344
_cell_length_c 13.700727
_cell_angle_alpha 90.000000
_cell_angle_beta 137.205493
_cell_angle_gamma 90.000000
_cell_volume 2019.898972
_symmetry_space_group_name_H-M "C 2/C"
_symmetry_group_IT_number 15
_symmetry_cell_setting 'monoclinic'
loop_
_space_group_symop_operation_xyz
x,y,z
-x,y,1/2-z
-x,-y,-z
x,-y,1/2+z
1/2+x,1/2+y,z
1/2-x,1/2+y,1/2-z
1/2-x,1/2-y,-z
1/2+x,1/2-y,1/2+z
loop_
_atom_site_type_symbol
_atom_site_label
_atom_site_fract_x
_atom_site_fract_y
_atom_site_fract_z
Si Si1 0.307262 0.902845 0.702586
Si Si2 0.568709 0.650628 0.575876
Si Si3 0.229014 0.023292 0.356045
Si Si4 0.541644 0.206948 0.084387
Si Si5 0.805053 0.150195 0.077215
Si Si6 0.226589 0.114035 0.849440
O O1 0.500000 0.919551 0.750000
O O2 0.260270 0.951382 0.763445
O O3 0.343463 0.834106 0.772533
O O4 0.120759 0.893163 0.533062
O O5 0.522716 0.719822 0.592578
O O6 0.641584 0.657790 0.505285
O O7 0.728089 0.621419 0.733433
O O8 0.286288 0.081117 0.455979
O O9 0.000000 0.015795 0.250000
O O10 0.311448 0.954446 0.421127
O O11 0.658384 0.198280 0.046671
O O12 0.343426 0.169676 0.962730
O O13 0.000000 0.152744 0.250000
O O14 0.000000 0.118097 0.750000
#
# Coordination Sequence:
#
# PCOD9278514 Si02
#       6
#     8   8   8   8   8   8
#     4  11  23  41  67  97 126 184 222 267 336 399
#     4  12  23  42  68  97 131 179 221 268 336 401
#     4   9  19  45  66  89 133 172 220 277 326 385
#     4  11  24  42  65  95 140 173 219 277 331 397
#     4  10  20  43  69  93 123 183 223 274 325 387
#     4  11  26  42  63 103 133 172 216 281 332 388
#
# _framework density 23.763566000000001
#
# number of rings (size 3 to 8) (size 9 to 14) (size 15 to 20)
#    0.000    1.333    5.000    2.500    0.000    8.000 
#    6.000    0.000    0.000    0.000    0.000    0.000 
#    0.000    0.000    0.000    0.000    0.000    0.000 
#
# Total GULP energy -134355.042434 kJ/mol
# GULP energy per Si atom -5598.126768 kJ/mol
# Density = 2.370948 g / cm^3
# Si number density = 23.763566 Si / 1000 Ang^3
#
#
#
# Elastic Constant Matrix: (Units=GPa)
#
#
# Indices 1 2 3 4 5 6 
#
# 1 115.4429 25.9983 -3.0293 0.0000 -0.0802 0.0000
# 2 25.9983 128.5674 14.0930 0.0000 5.0033 0.0000
# 3 -3.0293 14.0930 68.1204 0.0000 -4.7029 0.0000
# 4 0.0000 0.0000 0.0000 12.8255 0.0000 1.5146
# 5 -0.0802 5.0033 -4.7029 0.0000 36.0191 0.0000
# 6 0.0000 0.0000 0.0000 1.5146 0.0000 11.1158
#
#
#
# Elastic Compliance Matrix: (Units=1/GPa)
#
#
# Indices 1 2 3 4 5 6 
#
# 1 0.009124 -0.001952 0.000837 0.000000 0.000401 0.000000
# 2 -0.001952 0.008440 -0.001932 0.000000 -0.001429 0.000000
# 3 0.000837 -0.001932 0.015273 0.000000 0.002264 0.000000
# 4 0.000000 0.000000 0.000000 0.079245 0.000000 -0.010798
# 5 0.000401 -0.001429 0.002264 0.000000 0.028258 0.000000
# 6 0.000000 0.000000 0.000000 -0.010798 0.000000 0.091434
#
#
# Mechanical properties :
#
#
# Convention : Reuss Voigt Hill
#
# Bulk Modulus (GPa) = 37.39145 42.91719 40.15432
# Shear Modulus (GPa) = 20.26079 30.32999 25.29539
#
# Velocity S-wave (km/s) = 2.92310 3.57644 3.26615
# Velocity P-wave (km/s) = 5.21168 5.92907 5.58191
#
# Compressibility (1/GPa) = 0.02674408
#
# Stress axis : x y z
#
# Youngs Moduli (GPa) = 109.59818 118.48086 65.47472
#
# Poissons Ratio (x) = 0.23133 -0.05483
# Poissons Ratio (y) = 0.21398 0.12647
# Poissons Ratio (z) = -0.09177 0.22886
#
# Static dielectric constant tensor:
#      x y z
#    x 1.959710 0.000000 0.002760 
#    y 0.000000 1.865670 0.000000 
#    z 0.002760 0.000000 1.891240 
# 
# From -- ./inp_files/147463.got.cif
#   From: 2010.05.17/outbox.cif.g08.bks.cpg/sg15_74_cif.got.tgz:147463.got - 2010.06.03 18:47:42.
