data_PCOD9278902
_publ_section_title
;
Structure prediction by ZEFSAII (Michael W. Deem and Ramdas Pophale) SiO2 
 PCOD9278902
Probable space group: C 2/C
;
_chemical_formula_sum "Si O2"
_cell_formula_units_Z 56
_cell_length_a 23.647726
_cell_length_b 11.566077
_cell_length_c 14.171532
_cell_angle_alpha 90.000000
_cell_angle_beta 36.324423
_cell_angle_gamma 90.000000
_cell_volume 2296.019343
_symmetry_space_group_name_H-M "C 2/C"
_symmetry_group_IT_number 15
_symmetry_cell_setting 'monoclinic'
loop_
_space_group_symop_operation_xyz
x,y,z
-x,y,1/2-z
-x,-y,-z
x,-y,1/2+z
1/2+x,1/2+y,z
1/2-x,1/2+y,1/2-z
1/2-x,1/2-y,-z
1/2+x,1/2-y,1/2+z
loop_
_atom_site_type_symbol
_atom_site_label
_atom_site_fract_x
_atom_site_fract_y
_atom_site_fract_z
Si Si1 0.611132 0.628441 0.412003
Si Si2 0.146177 0.667656 0.228563
Si Si3 0.398736 0.928742 0.909052
Si Si4 0.770897 0.298744 0.368002
Si Si5 0.819765 0.936025 0.301065
Si Si6 0.338301 0.520592 0.980262
Si Si7 0.545408 0.148268 0.956525
O O1 0.626296 0.865830 0.269550
O O2 0.624026 0.502508 0.353877
O O3 0.600312 0.601992 0.535743
O O4 0.529783 0.711987 0.484006
O O5 0.108792 0.660047 0.169996
O O6 0.177702 0.798160 0.207351
O O7 0.238331 0.589350 0.113958
O O8 0.062959 0.608748 0.404512
O O9 0.500000 0.992681 0.750000
O O10 0.291337 0.978653 0.051446
O O11 0.411363 0.883049 0.998933
O O12 0.750000 0.250000 0.500000
O O13 0.688892 0.390213 0.452684
O O14 0.796872 0.202598 0.253035
O O15 0.867980 0.979802 0.332519
#
# Coordination Sequence:
#
# PCOD9278902 Si02
#       7
#     8   8   8   8   8   8   8
#     4  10  22  35  59  81 113 159 193 234 295 348
#     4  10  21  32  57  89 117 145 196 247 286 339
#     4   9  17  33  55  84 114 138 186 247 288 330
#     4  10  21  40  57  82 117 155 199 236 301 354
#     4  11  20  35  57  87 117 146 193 241 288 354
#     4  11  20  36  61  86 111 154 198 244 291 351
#     4   9  19  36  54  83 117 152 192 237 292 349
#
# _framework density 24.390038000000001
#
# number of rings (size 3 to 8) (size 9 to 14) (size 15 to 20)
#    0.857    1.143    1.429    4.286    2.000    1.143 
#    0.000    1.429    0.000    0.000    0.000    0.000 
#    0.000    0.000    0.000    0.000    0.000    0.000 
#
# Total GULP energy -155998.068373 kJ/mol
# GULP energy per Si atom -5571.359585 kJ/mol
# Density = 2.433453 g / cm^3
# Si number density = 24.390038 Si / 1000 Ang^3
#
#
#
# Elastic Constant Matrix: (Units=GPa)
#
#
# Indices 1 2 3 4 5 6 
#
# 1 31.7961 5.7069 17.6573 0.0000 -2.2641 0.0000
# 2 5.7069 73.5794 -16.5147 0.0000 9.1868 0.0000
# 3 17.6573 -16.5147 94.3800 0.0000 -0.6846 0.0000
# 4 0.0000 0.0000 0.0000 28.8229 0.0000 -0.4315
# 5 -2.2641 9.1868 -0.6846 0.0000 24.2078 0.0000
# 6 0.0000 0.0000 0.0000 -0.4315 0.0000 15.4934
#
#
#
# Elastic Compliance Matrix: (Units=1/GPa)
#
#
# Indices 1 2 3 4 5 6 
#
# 1 0.037126 -0.005295 -0.007834 0.000000 0.005260 0.000000
# 2 -0.005295 0.015615 0.003677 0.000000 -0.006317 0.000000
# 3 -0.007834 0.003677 0.012692 0.000000 -0.001769 0.000000
# 4 0.000000 0.000000 0.000000 0.034709 0.000000 0.000967
# 5 0.005260 -0.006317 -0.001769 0.000000 0.044148 0.000000
# 6 0.000000 0.000000 0.000000 0.000967 0.000000 0.064571
#
#
# Mechanical properties :
#
#
# Convention : Reuss Voigt Hill
#
# Bulk Modulus (GPa) = 21.49154 23.71717 22.60436
# Shear Modulus (GPa) = 20.55295 26.56521 23.55908
#
# Velocity S-wave (km/s) = 2.90604 3.30386 3.11131
# Velocity P-wave (km/s) = 4.48228 4.92942 4.71116
#
# Compressibility (1/GPa) = 0.04652993
#
# Stress axis : x y z
#
# Youngs Moduli (GPa) = 26.93546 64.03901 78.79153
#
# Poissons Ratio (x) = 0.33906 0.61726
# Poissons Ratio (y) = 0.14261 -0.28973
# Poissons Ratio (z) = 0.21101 -0.23548
#
# Static dielectric constant tensor:
#      x y z
#    x 1.999500 0.000000 -0.035730 
#    y 0.000000 2.006480 0.000000 
#    z -0.035730 0.000000 1.990230 
# 
# From -- ./inp_files/178018.got.cif
#   From: 2010.05.17/outbox.cif.g08.bks.cpg/sg15_90_cif.got.tgz:178018.got - 2010.06.03 18:47:42.
