data_PCOD9278005
_publ_section_title
;
Structure prediction by ZEFSAII (Michael W. Deem and Ramdas Pophale) SiO2 
 PCOD9278005
Probable space group: C 2/C
;
_chemical_formula_sum "Si O2"
_cell_formula_units_Z 48
_cell_length_a 20.936003
_cell_length_b 7.912727
_cell_length_c 27.903810
_cell_angle_alpha 90.000000
_cell_angle_beta 27.470955
_cell_angle_gamma 90.000000
_cell_volume 2132.386282
_symmetry_space_group_name_H-M "C 2/C"
_symmetry_group_IT_number 15
_symmetry_cell_setting 'monoclinic'
loop_
_space_group_symop_operation_xyz
x,y,z
-x,y,1/2-z
-x,-y,-z
x,-y,1/2+z
1/2+x,1/2+y,z
1/2-x,1/2+y,1/2-z
1/2-x,1/2-y,-z
1/2+x,1/2-y,1/2+z
loop_
_atom_site_type_symbol
_atom_site_label
_atom_site_fract_x
_atom_site_fract_y
_atom_site_fract_z
Si Si1 0.355256 0.643638 0.753114
Si Si2 0.967597 0.320124 0.056195
Si Si3 0.800071 0.778113 0.395359
Si Si4 0.000580 0.696267 0.066666
Si Si5 0.461946 0.327285 0.894038
Si Si6 0.318243 0.023280 0.949733
O O1 0.190667 0.638488 0.852828
O O2 0.374106 0.697716 0.795705
O O3 0.409069 0.762097 0.673734
O O4 0.437024 0.466459 0.695571
O O5 0.022537 0.496551 0.041767
O O6 0.981765 0.192489 0.089969
O O7 0.043992 0.252553 0.957492
O O8 0.645709 0.718355 0.483061
O O9 0.860084 0.640735 0.391701
O O10 0.764774 0.948322 0.448809
O O11 0.444782 0.146600 0.878501
O O12 0.301061 0.382085 0.000519
#
# Coordination Sequence:
#
# PCOD9278005 Si02
#       6
#     8   8   8   8   8   8
#     4  11  23  40  68 100 130 173 231 280 328 401
#     4  10  22  40  66  92 135 178 218 281 340 387
#     4  10  21  44  69  91 130 186 220 264 351 396
#     4  10  20  42  64  91 130 178 220 277 335 403
#     4  11  22  41  67 101 131 168 229 278 330 395
#     4  10  22  43  69  90 137 181 214 277 336 404
#
# _framework density 22.509992
#
# number of rings (size 3 to 8) (size 9 to 14) (size 15 to 20)
#    0.000    1.667    3.333    1.000    0.000    1.333 
#    3.000    3.333    0.000    0.000    0.000    0.000 
#    0.000    0.000    0.000    0.000    0.000    0.000 
#
# Total GULP energy -133857.588694 kJ/mol
# GULP energy per Si atom -5577.399529 kJ/mol
# Density = 2.245876 g / cm^3
# Si number density = 22.509992 Si / 1000 Ang^3
#
#
#
# Elastic Constant Matrix: (Units=GPa)
#
#
# Indices 1 2 3 4 5 6 
#
# 1 118.7819 37.2211 56.6343 -0.0036 18.7254 0.0032
# 2 37.2211 58.4568 37.9244 -0.0082 19.3254 0.0054
# 3 56.6343 37.9244 109.7663 -0.0025 37.9062 0.0028
# 4 -0.0036 -0.0082 -0.0025 22.4681 0.0050 -4.4304
# 5 18.7254 19.3254 37.9062 0.0050 44.2274 -0.0059
# 6 0.0032 0.0054 0.0028 -4.4304 -0.0059 34.9405
#
#
#
# Elastic Compliance Matrix: (Units=1/GPa)
#
#
# Indices 1 2 3 4 5 6 
#
# 1 0.012145 -0.004907 -0.005022 -0.000001 0.001306 0.000000
# 2 -0.004907 0.024654 -0.004238 0.000008 -0.005063 -0.000003
# 3 -0.005022 -0.004238 0.016749 0.000001 -0.010377 -0.000002
# 4 -0.000001 0.000008 0.000001 0.045649 -0.000009 0.005788
# 5 0.001306 -0.005063 -0.010377 -0.000009 0.033164 0.000006
# 6 0.000000 -0.000003 -0.000002 0.005788 0.000006 0.029354
#
#
# Mechanical properties :
#
#
# Convention : Reuss Voigt Hill
#
# Bulk Modulus (GPa) = 39.65903 61.17385 50.41644
# Shear Modulus (GPa) = 25.19481 30.67553 27.93517
#
# Velocity S-wave (km/s) = 3.34918 3.69555 3.52662
# Velocity P-wave (km/s) = 5.71075 6.74127 6.24730
#
# Compressibility (1/GPa) = 0.02521494
#
# Stress axis : x y z
#
# Youngs Moduli (GPa) = 82.33919 40.56111 59.70411
#
# Poissons Ratio (x) = 0.19902 0.29983
# Poissons Ratio (y) = 0.40402 0.25302
# Poissons Ratio (z) = 0.41351 0.17189
#
# Static dielectric constant tensor:
#      x y z
#    x 1.887580 -0.000010 0.009290 
#    y -0.000010 1.909560 0.000000 
#    z 0.009290 0.000000 1.859480 
# 
# From -- ./inp_files/300446.got.cif
#   From: 2010.05.17/outbox.cif.g08.bks.cpg/sg15_151_cif.got.tgz:300446.got - 2010.06.03 18:47:42.
