data_PCOD9278452
_publ_section_title
;
Structure prediction by ZEFSAII (Michael W. Deem and Ramdas Pophale) SiO2 
 PCOD9278452
Probable space group: C 2/C
;
_chemical_formula_sum "Si O2"
_cell_formula_units_Z 52
_cell_length_a 16.435769
_cell_length_b 8.751060
_cell_length_c 20.615768
_cell_angle_alpha 90.000000
_cell_angle_beta 136.425057
_cell_angle_gamma 90.000000
_cell_volume 2043.902793
_symmetry_space_group_name_H-M "C 2/C"
_symmetry_group_IT_number 15
_symmetry_cell_setting 'monoclinic'
loop_
_space_group_symop_operation_xyz
x,y,z
-x,y,1/2-z
-x,-y,-z
x,-y,1/2+z
1/2+x,1/2+y,z
1/2-x,1/2+y,1/2-z
1/2-x,1/2-y,-z
1/2+x,1/2-y,1/2+z
loop_
_atom_site_type_symbol
_atom_site_label
_atom_site_fract_x
_atom_site_fract_y
_atom_site_fract_z
Si Si1 0.775188 0.969624 0.784024
Si Si2 0.721120 0.753344 0.318969
Si Si3 0.500000 0.945034 0.750000
Si Si4 0.230480 0.562901 0.937435
Si Si5 0.168242 0.764784 0.560381
Si Si6 0.838667 0.992754 0.629058
Si Si7 0.023237 0.195352 0.655012
O O1 0.684049 0.095347 0.758911
O O2 0.876961 0.079600 0.813624
O O3 0.719662 0.860032 0.698157
O O4 0.831877 0.855431 0.871017
O O5 0.793552 0.835062 0.418650
O O6 0.631562 0.638667 0.302360
O O7 0.551672 0.830716 0.723288
O O8 0.593762 0.053627 0.840117
O O9 0.262767 0.385389 0.944993
O O10 0.270501 0.594965 0.032202
O O11 0.244980 0.611196 0.606305
O O12 0.048503 0.744926 0.449748
O O13 0.938660 0.088267 0.650840
#
# Coordination Sequence:
#
# PCOD9278452 Si02
#       7
#     8   8   4   8   8   8   8
#     4  11  25  41  63  95 133 173 209 260 320 386
#     4  11  25  41  64  92 132 171 211 259 327 380
#     4  12  20  36  64 100 126 156 220 270 316 364
#     4  10  22  38  64  95 126 166 214 269 314 377
#     4  10  20  43  65  94 127 172 207 260 322 383
#     4  11  20  44  69  94 123 170 217 265 317 372
#     4  11  22  38  69  95 125 167 217 262 310 381
#
# _framework density 25.441523
#
# number of rings (size 3 to 8) (size 9 to 14) (size 15 to 20)
#    0.000    1.231    3.077    3.692    4.308    1.231 
#    0.000    2.308    0.000    0.000    0.000    0.000 
#    0.000    0.000    0.000    0.000    0.000    0.000 
#
# Total GULP energy -145089.787722 kJ/mol
# GULP energy per Si atom -5580.376451 kJ/mol
# Density = 2.538362 g / cm^3
# Si number density = 25.441523 Si / 1000 Ang^3
#
#
#
# Elastic Constant Matrix: (Units=GPa)
#
#
# Indices 1 2 3 4 5 6 
#
# 1 89.8382 64.2107 43.4571 0.0000 -15.6514 0.0000
# 2 64.2107 166.8740 30.9633 0.0000 -23.6352 0.0000
# 3 43.4571 30.9633 96.1682 0.0000 -11.9135 0.0000
# 4 0.0000 0.0000 0.0000 22.1851 0.0000 -16.2050
# 5 -15.6514 -23.6352 -11.9135 0.0000 37.9066 0.0000
# 6 0.0000 0.0000 0.0000 -16.2050 0.0000 58.1114
#
#
#
# Elastic Compliance Matrix: (Units=1/GPa)
#
#
# Indices 1 2 3 4 5 6 
#
# 1 0.018632 -0.005691 -0.006320 0.000000 0.002158 0.000000
# 2 -0.005691 0.008581 0.000188 0.000000 0.003060 0.000000
# 3 -0.006320 0.000188 0.013407 0.000000 0.001721 0.000000
# 4 0.000000 0.000000 0.000000 0.056606 0.000000 0.015785
# 5 0.002158 0.003060 0.001721 0.000000 0.029720 0.000000
# 6 0.000000 0.000000 0.000000 0.015785 0.000000 0.021610
#
#
# Mechanical properties :
#
#
# Convention : Reuss Voigt Hill
#
# Bulk Modulus (GPa) = 58.91350 70.01585 64.46467
# Shear Modulus (GPa) = 28.11217 37.92390 33.01803
#
# Velocity S-wave (km/s) = 3.32772 3.86506 3.60641
# Velocity P-wave (km/s) = 6.16211 6.89190 6.53720
#
# Compressibility (1/GPa) = 0.01697404
#
# Stress axis : x y z
#
# Youngs Moduli (GPa) = 53.67218 116.53943 74.58795
#
# Poissons Ratio (x) = 0.66321 0.47137
# Poissons Ratio (y) = 0.30544 -0.01401
# Poissons Ratio (z) = 0.33919 -0.02190
#
# Static dielectric constant tensor:
#      x y z
#    x 2.108040 0.000000 -0.030380 
#    y 0.000000 2.009110 0.000000 
#    z -0.030380 0.000000 2.095110 
# 
# From -- ./inp_files/247879.got.cif
#   From: 2010.05.17/outbox.cif.g08.bks.cpg/sg15_124_cif.got.tgz:247879.got - 2010.06.03 18:47:42.
