data_PCOD9278330
_publ_section_title
;
Structure prediction by ZEFSAII (Michael W. Deem and Ramdas Pophale) SiO2 
 PCOD9278330
Probable space group: C 2/C
;
_chemical_formula_sum "Si O2"
_cell_formula_units_Z 64
_cell_length_a 10.640785
_cell_length_b 28.111085
_cell_length_c 15.453703
_cell_angle_alpha 90.000000
_cell_angle_beta 40.044562
_cell_angle_gamma 90.000000
_cell_volume 2974.086260
_symmetry_space_group_name_H-M "C 2/C"
_symmetry_group_IT_number 15
_symmetry_cell_setting 'monoclinic'
loop_
_space_group_symop_operation_xyz
x,y,z
-x,y,1/2-z
-x,-y,-z
x,-y,1/2+z
1/2+x,1/2+y,z
1/2-x,1/2+y,1/2-z
1/2-x,1/2-y,-z
1/2+x,1/2-y,1/2+z
loop_
_atom_site_type_symbol
_atom_site_label
_atom_site_fract_x
_atom_site_fract_y
_atom_site_fract_z
Si Si1 0.778811 0.041468 0.832217
Si Si2 0.043615 0.719725 0.000871
Si Si3 0.041712 0.175771 0.504133
Si Si4 0.982759 0.584701 0.661488
Si Si5 0.232498 0.064276 0.140590
Si Si6 0.659284 0.665600 0.243659
Si Si7 0.408226 0.193462 0.714163
Si Si8 0.805414 0.870037 0.413496
O O1 0.721246 0.068882 0.774700
O O2 0.701860 0.079935 0.943795
O O3 0.000000 0.036457 0.750000
O O4 0.708367 0.987584 0.854985
O O5 0.826723 0.705853 0.146883
O O6 0.119427 0.771448 0.988277
O O7 0.046858 0.721978 0.895260
O O8 0.177385 0.675264 0.955157
O O9 0.070554 0.166235 0.387195
O O10 0.137320 0.136971 0.516892
O O11 0.815217 0.181177 0.648274
O O12 0.003814 0.641587 0.650376
O O13 0.000000 0.567653 0.750000
O O14 0.153764 0.566529 0.509842
O O15 0.261721 0.113858 0.175483
O O16 0.000000 0.063461 0.250000
O O17 0.500000 0.670201 0.250000
O O18 0.500000 0.216765 0.750000
O O19 0.000000 0.867402 0.250000
#
# Coordination Sequence:
#
# PCOD9278330 Si02
#       8
#     8   8   8   8   8   8   8   8
#     4  10  20  42  70  96 133 177 223 275 348 399
#     4  12  23  43  64  93 132 177 217 277 335 391
#     4  12  26  40  66  97 127 173 227 273 330 396
#     4  11  22  40  69  97 127 173 227 275 327 408
#     4  10  22  42  66  97 136 177 210 285 354 392
#     4  11  25  43  63  96 142 169 213 279 342 397
#     4  11  22  39  65  90 124 172 223 261 324 398
#     4  11  22  44  68  93 129 173 228 279 320 397
#
# _framework density 21.519214999999999
#
# number of rings (size 3 to 8) (size 9 to 14) (size 15 to 20)
#    0.000    1.000    3.750    3.000    5.250    3.500 
#    2.250    1.250    0.000    0.000    0.000    0.000 
#    0.000    0.000    0.000    0.000    0.000    0.000 
#
# Total GULP energy -178590.256325 kJ/mol
# GULP energy per Si atom -5580.945510 kJ/mol
# Density = 2.147024 g / cm^3
# Si number density = 21.519215 Si / 1000 Ang^3
#
#
#
# Elastic Constant Matrix: (Units=GPa)
#
#
# Indices 1 2 3 4 5 6 
#
# 1 79.5717 14.1786 11.1225 0.0000 25.5056 0.0000
# 2 14.1786 123.5043 -0.5347 0.0000 12.4507 0.0000
# 3 11.1225 -0.5347 69.2175 0.0000 16.6938 0.0000
# 4 0.0000 0.0000 0.0000 31.1937 0.0000 -8.4195
# 5 25.5056 12.4507 16.6938 0.0000 37.6605 0.0000
# 6 0.0000 0.0000 0.0000 -8.4195 0.0000 26.0171
#
#
#
# Elastic Compliance Matrix: (Units=1/GPa)
#
#
# Indices 1 2 3 4 5 6 
#
# 1 0.016123 -0.000777 -0.000028 0.000000 -0.010650 0.000000
# 2 -0.000777 0.008455 0.000826 0.000000 -0.002635 0.000000
# 3 -0.000028 0.000826 0.016257 0.000000 -0.007460 0.000000
# 4 0.000000 0.000000 0.000000 0.035126 0.000000 0.011367
# 5 -0.010650 -0.002635 -0.007460 0.000000 0.037944 0.000000
# 6 0.000000 0.000000 0.000000 0.011367 0.000000 0.042115
#
#
# Mechanical properties :
#
#
# Convention : Reuss Voigt Hill
#
# Bulk Modulus (GPa) = 24.46421 35.75849 30.11135
# Shear Modulus (GPa) = 29.48007 35.47608 32.47807
#
# Velocity S-wave (km/s) = 3.70529 4.06467 3.88913
# Velocity P-wave (km/s) = 5.44966 6.21947 5.84725
#
# Compressibility (1/GPa) = 0.04087604
#
# Stress axis : x y z
#
# Youngs Moduli (GPa) = 62.02137 118.26844 61.51050
#
# Poissons Ratio (x) = 0.09195 0.00174
# Poissons Ratio (y) = 0.04822 -0.05079
# Poissons Ratio (z) = 0.00176 -0.09766
#
# Static dielectric constant tensor:
#      x y z
#    x 1.813380 0.000000 -0.041260 
#    y 0.000000 1.841690 0.000000 
#    z -0.041260 0.000000 1.760550 
# 
# From -- ./inp_files/149152.got.cif
#   From: 2010.05.17/outbox.cif.g08.bks.cpg/sg15_75_cif.got.tgz:149152.got - 2010.06.03 18:47:42.
