data_PCOD9278808
_publ_section_title
;
Structure prediction by ZEFSAII (Michael W. Deem and Ramdas Pophale) SiO2 
 PCOD9278808
Probable space group: C 2/C
;
_chemical_formula_sum "Si O2"
_cell_formula_units_Z 40
_cell_length_a 22.954830
_cell_length_b 8.426885
_cell_length_c 22.462074
_cell_angle_alpha 90.000000
_cell_angle_beta 160.781563
_cell_angle_gamma 90.000000
_cell_volume 1430.249918
_symmetry_space_group_name_H-M "C 2/C"
_symmetry_group_IT_number 15
_symmetry_cell_setting 'monoclinic'
loop_
_space_group_symop_operation_xyz
x,y,z
-x,y,1/2-z
-x,-y,-z
x,-y,1/2+z
1/2+x,1/2+y,z
1/2-x,1/2+y,1/2-z
1/2-x,1/2-y,-z
1/2+x,1/2-y,1/2+z
loop_
_atom_site_type_symbol
_atom_site_label
_atom_site_fract_x
_atom_site_fract_y
_atom_site_fract_z
Si Si1 0.825118 0.894799 0.973305
Si Si2 0.033179 0.614020 0.959895
Si Si3 0.793436 0.055581 0.308488
Si Si4 0.771204 0.934467 0.108629
Si Si5 0.882692 0.281234 0.195460
O O1 0.782899 0.865488 0.863128
O O2 0.771408 0.738480 0.957963
O O3 0.729441 0.056172 0.903092
O O4 0.034026 0.914533 0.177703
O O5 0.860264 0.577294 0.831127
O O6 0.983022 0.730056 0.856843
O O7 0.197848 0.648720 0.162223
O O8 0.109883 0.463552 0.998139
O O9 0.000000 0.000000 0.500000
O O10 0.791625 0.108453 0.098265
O O11 0.000000 0.300813 0.250000
#
# Coordination Sequence:
#
# PCOD9278808 Si02
#       5
#     8   8   8   8   8
#     4  11  25  47  79 118 167 214 281 347 425 511
#     4  10  23  46  76 116 161 213 274 334 418 500
#     4  10  20  46  78 116 165 213 267 344 416 498
#     4  12  25  49  77 120 165 212 277 348 419 504
#     4  11  27  53  83 118 164 220 289 355 418 500
#
# _framework density 27.967141000000002
#
# number of rings (size 3 to 8) (size 9 to 14) (size 15 to 20)
#    0.000    1.200    2.000    3.600    0.000    4.000 
#   18.000    3.000    0.000    0.000    0.000    0.000 
#    0.000    0.000    0.000    0.000    0.000    0.000 
#
# Total GULP energy -111691.231934 kJ/mol
# GULP energy per Si atom -5584.561597 kJ/mol
# Density = 2.790349 g / cm^3
# Si number density = 27.967141 Si / 1000 Ang^3
#
#
#
# Elastic Constant Matrix: (Units=GPa)
#
#
# Indices 1 2 3 4 5 6 
#
# 1 185.9541 60.1037 85.1217 -0.0012 0.9895 -0.0020
# 2 60.1037 228.5113 79.4328 -0.0005 19.4627 -0.0057
# 3 85.1217 79.4328 217.8593 -0.0007 14.9917 -0.0132
# 4 -0.0012 -0.0005 -0.0007 -5.5515 -0.0021 84.7408
# 5 0.9895 19.4627 14.9917 -0.0021 57.6073 -0.0035
# 6 -0.0020 -0.0057 -0.0132 84.7408 -0.0035 -64.4129
#
#
#
# Elastic Compliance Matrix: (Units=1/GPa)
#
#
# Indices 1 2 3 4 5 6 
#
# 1 0.006775 -0.001046 -0.002324 0.000000 0.000842 0.000000
# 2 -0.001046 0.005261 -0.001414 0.000000 -0.001392 0.000000
# 3 -0.002324 -0.001414 0.006087 0.000001 -0.001066 0.000000
# 4 0.000000 0.000000 0.000001 0.009440 0.000001 0.012419
# 5 0.000842 -0.001392 -0.001066 0.000001 0.018092 0.000001
# 6 0.000000 0.000000 0.000000 0.012419 0.000001 0.000814
#
#
# Mechanical properties :
#
#
# Convention : Reuss Voigt Hill
#
# Bulk Modulus (GPa) = 116.87438 120.18233 118.52836
# Shear Modulus (GPa) = 84.90729 24.70635 54.80682
#
# Velocity S-wave (km/s) = 5.51594 2.97544 4.43164
# Velocity P-wave (km/s) = 9.08009 7.40745 8.28608
#
# Compressibility (1/GPa) = 0.00855620
#
# Stress axis : x y z
#
# Youngs Moduli (GPa) = 147.60322 190.06885 164.28711
#
# Poissons Ratio (x) = 0.19880 0.38175
# Poissons Ratio (y) = 0.15438 0.23228
# Poissons Ratio (z) = 0.34298 0.26873
#
# Static dielectric constant tensor:
#      x y z
#    x 2.171590 0.000000 -0.043730 
#    y 0.000000 2.297730 0.000000 
#    z -0.043730 0.000000 2.255690 
# 
# From -- ./inp_files/156048.got.cif
#   From: 2010.05.17/outbox.cif.g08.bks.cpg/sg15_79_cif.got.tgz:156048.got - 2010.06.03 18:47:42.
