data_PCOD9278575
_publ_section_title
;
Structure prediction by ZEFSAII (Michael W. Deem and Ramdas Pophale) SiO2 
 PCOD9278575
Probable space group: C 2/C
;
_chemical_formula_sum "Si O2"
_cell_formula_units_Z 48
_cell_length_a 17.689095
_cell_length_b 28.873872
_cell_length_c 8.999052
_cell_angle_alpha 90.000000
_cell_angle_beta 149.346032
_cell_angle_gamma 90.000000
_cell_volume 2343.427263
_symmetry_space_group_name_H-M "C 2/C"
_symmetry_group_IT_number 15
_symmetry_cell_setting 'monoclinic'
loop_
_space_group_symop_operation_xyz
x,y,z
-x,y,1/2-z
-x,-y,-z
x,-y,1/2+z
1/2+x,1/2+y,z
1/2-x,1/2+y,1/2-z
1/2-x,1/2-y,-z
1/2+x,1/2-y,1/2+z
loop_
_atom_site_type_symbol
_atom_site_label
_atom_site_fract_x
_atom_site_fract_y
_atom_site_fract_z
Si Si1 0.655603 0.151608 0.968010
Si Si2 0.000000 0.183565 0.250000
Si Si3 0.616269 0.729015 0.178584
Si Si4 0.821827 0.967737 0.476908
Si Si5 0.000000 0.303817 0.750000
Si Si6 0.293716 0.127752 0.779874
Si Si7 0.675735 0.047403 0.053241
O O1 0.500000 0.174610 0.750000
O O2 0.628913 0.137297 0.749003
O O3 0.677414 0.102426 0.085282
O O4 0.797839 0.184020 0.240642
O O5 0.995292 0.213209 0.093005
O O6 0.138139 0.150520 0.480274
O O7 0.750000 0.750000 0.500000
O O8 0.550027 0.768057 0.961644
O O9 0.736176 0.926165 0.244510
O O10 0.767185 0.960593 0.554216
O O11 0.000000 0.964490 0.750000
O O12 0.758924 0.016361 0.314245
O O13 0.866847 0.341291 0.531907
O O14 0.500000 0.034449 0.750000
#
# Coordination Sequence:
#
# PCOD9278575 Si02
#       7
#     8   4   8   8   4   8   8
#     4   9  20  42  64  85 129 170 199 258 329 376
#     4  10  20  44  62  83 127 168 200 264 326 370
#     4  11  23  40  64  88 126 166 210 266 320 373
#     4  11  22  41  67  94 131 171 209 269 328 386
#     4  12  24  42  60 101 119 168 228 258 312 390
#     4  10  22  40  64  89 124 169 214 253 317 384
#     4  10  22  41  66  95 128 166 214 263 325 389
#
# _framework density 20.482821000000001
#
# number of rings (size 3 to 8) (size 9 to 14) (size 15 to 20)
#    0.000    1.667    4.167    1.000    2.333    0.667 
#    4.500    0.000    0.000    0.000    0.000    0.000 
#    0.000    0.000    0.000    0.000    0.000    0.000 
#
# Total GULP energy -133680.891177 kJ/mol
# GULP energy per Si atom -5570.037132 kJ/mol
# Density = 2.043620 g / cm^3
# Si number density = 20.482821 Si / 1000 Ang^3
#
#
#
# Elastic Constant Matrix: (Units=GPa)
#
#
# Indices 1 2 3 4 5 6 
#
# 1 65.6753 4.7231 11.3500 0.0000 29.1111 0.0000
# 2 4.7231 111.9632 26.0999 0.0000 -4.5751 0.0000
# 3 11.3500 26.0999 62.6385 0.0000 3.2828 0.0000
# 4 0.0000 0.0000 0.0000 38.3307 0.0000 23.1526
# 5 29.1111 -4.5751 3.2828 0.0000 24.7383 0.0000
# 6 0.0000 0.0000 0.0000 23.1526 0.0000 6.4374
#
#
#
# Elastic Compliance Matrix: (Units=1/GPa)
#
#
# Indices 1 2 3 4 5 6 
#
# 1 0.033288 -0.002302 -0.003018 0.000000 -0.039198 0.000000
# 2 -0.002302 0.010194 -0.004100 0.000000 0.005139 0.000000
# 3 -0.003018 -0.004100 0.018200 0.000000 0.000378 0.000000
# 4 0.000000 0.000000 0.000000 -0.022252 0.000000 0.080032
# 5 -0.039198 0.005139 0.000378 0.000000 0.087450 0.000000
# 6 0.000000 0.000000 0.000000 0.080032 0.000000 -0.132498
#
#
# Mechanical properties :
#
#
# Convention : Reuss Voigt Hill
#
# Bulk Modulus (GPa) = 23.34163 36.06921 29.70542
# Shear Modulus (GPa) = 181.79491 27.10822 104.45157
#
# Velocity S-wave (km/s) = 9.43120 3.64189 7.14881
# Velocity P-wave (km/s) = 11.40250 5.94409 9.09256
#
# Compressibility (1/GPa) = 0.04284191
#
# Stress axis : x y z
#
# Youngs Moduli (GPa) = 30.04052 98.09375 54.94513
#
# Poissons Ratio (x) = 0.22585 0.16583
# Poissons Ratio (y) = 0.06916 0.22527
# Poissons Ratio (z) = 0.09067 0.40217
#
# Static dielectric constant tensor:
#      x y z
#    x 1.797020 0.000000 -0.025860 
#    y 0.000000 1.787160 0.000000 
#    z -0.025860 0.000000 1.708920 
# 
# From -- ./inp_files/52900.got.cif
#   From: 2010.05.17/outbox.cif.g08.bks.cpg/sg15_27_cif.got.tgz:52900.got - 2010.06.03 18:47:42.
