data_PCOD9278057
_publ_section_title
;
Structure prediction by ZEFSAII (Michael W. Deem and Ramdas Pophale) SiO2 
 PCOD9278057
Probable space group: C 2/C
;
_chemical_formula_sum "Si O2"
_cell_formula_units_Z 56
_cell_length_a 13.438721
_cell_length_b 21.447882
_cell_length_c 14.690498
_cell_angle_alpha 90.000000
_cell_angle_beta 35.731384
_cell_angle_gamma 90.000000
_cell_volume 2472.755994
_symmetry_space_group_name_H-M "C 2/C"
_symmetry_group_IT_number 15
_symmetry_cell_setting 'monoclinic'
loop_
_space_group_symop_operation_xyz
x,y,z
-x,y,1/2-z
-x,-y,-z
x,-y,1/2+z
1/2+x,1/2+y,z
1/2-x,1/2+y,1/2-z
1/2-x,1/2-y,-z
1/2+x,1/2-y,1/2+z
loop_
_atom_site_type_symbol
_atom_site_label
_atom_site_fract_x
_atom_site_fract_y
_atom_site_fract_z
Si Si1 0.930939 0.737416 0.162865
Si Si2 0.363970 0.127205 0.425233
Si Si3 0.000000 0.156334 0.750000
Si Si4 0.776539 0.580157 0.009890
Si Si5 0.328952 0.032238 0.595742
Si Si6 0.901556 0.256473 0.149278
Si Si7 0.500000 0.681009 0.250000
Si Si8 0.818544 0.394933 0.271645
O O1 0.924908 0.800847 0.224985
O O2 0.736508 0.714191 0.303952
O O3 0.076534 0.697772 0.104287
O O4 0.968956 0.732311 0.027962
O O5 0.500000 0.102101 0.250000
O O6 0.158082 0.122672 0.580906
O O7 0.402674 0.090981 0.487557
O O8 0.746080 0.584156 0.923449
O O9 0.977889 0.592124 0.873319
O O10 0.738257 0.515984 0.093525
O O11 0.663746 0.636245 0.131934
O O12 0.239337 0.062127 0.750449
O O13 0.500000 0.000000 0.500000
O O14 0.990564 0.223600 0.167701
O O15 0.815014 0.321106 0.249397
#
# Coordination Sequence:
#
# PCOD9278057 Si02
#       8
#     8   8   4   8   8   8   4   8
#     4  12  22  41  65 100 135 180 217 280 356 423
#     4  12  25  42  72 101 134 187 232 282 363 419
#     4  12  24  47  66 106 153 168 226 304 350 430
#     4  10  23  41  64  89 133 172 228 285 342 410
#     4  10  23  42  68  94 129 177 236 289 338 421
#     4  12  24  38  67  96 139 178 229 283 348 428
#     4  12  26  41  60 104 137 176 230 290 344 416
#     4  10  20  42  65  92 123 180 226 277 354 410
#
# _framework density 22.646796999999999
#
# number of rings (size 3 to 8) (size 9 to 14) (size 15 to 20)
#    0.000    0.857    3.571    3.857    6.000    2.286 
#    0.000    0.714    0.000    0.000    0.000    0.000 
#    0.000    0.000    0.000    0.000    0.000    0.000 
#
# Total GULP energy -155962.275541 kJ/mol
# GULP energy per Si atom -5570.081269 kJ/mol
# Density = 2.259525 g / cm^3
# Si number density = 22.646797 Si / 1000 Ang^3
#
#
#
# Elastic Constant Matrix: (Units=GPa)
#
#
# Indices 1 2 3 4 5 6 
#
# 1 56.5987 26.4628 37.9201 -0.0057 19.9693 0.0066
# 2 26.4628 74.6718 27.2824 -0.0133 17.1305 0.0047
# 3 37.9201 27.2824 61.6696 -0.0233 28.4686 0.0109
# 4 -0.0057 -0.0133 -0.0233 13.8593 0.0099 10.2882
# 5 19.9693 17.1305 28.4686 0.0099 49.4548 -0.0039
# 6 0.0066 0.0047 0.0109 10.2882 -0.0039 37.6164
#
#
#
# Elastic Compliance Matrix: (Units=1/GPa)
#
#
# Indices 1 2 3 4 5 6 
#
# 1 0.031549 -0.004770 -0.016576 -0.000023 -0.001545 0.000006
# 2 -0.004770 0.016841 -0.003696 0.000012 -0.001780 -0.000004
# 3 -0.016576 -0.003696 0.033179 0.000074 -0.011126 -0.000028
# 4 -0.000023 0.000012 0.000074 0.090535 -0.000058 -0.024762
# 5 -0.001545 -0.001780 -0.011126 -0.000058 0.027866 0.000022
# 6 0.000006 -0.000004 -0.000028 -0.024762 0.000022 0.033357
#
#
# Mechanical properties :
#
#
# Convention : Reuss Voigt Hill
#
# Bulk Modulus (GPa) = 31.75996 41.80786 36.78391
# Shear Modulus (GPa) = 17.01233 26.93776 21.97504
#
# Velocity S-wave (km/s) = 2.74378 3.45262 3.11840
# Velocity P-wave (km/s) = 4.90839 5.86472 5.40774
#
# Compressibility (1/GPa) = 0.03148619
#
# Stress axis : x y z
#
# Youngs Moduli (GPa) = 31.69670 59.37903 30.13959
#
# Poissons Ratio (x) = 0.28323 0.49959
# Poissons Ratio (y) = 0.15119 0.11139
# Poissons Ratio (z) = 0.52540 0.21944
#
# Static dielectric constant tensor:
#      x y z
#    x 1.885760 0.000000 -0.004020 
#    y 0.000000 1.875280 0.000000 
#    z -0.004020 0.000000 1.864580 
# 
# From -- ./inp_files/156205.got.cif
#   From: 2010.05.17/outbox.cif.g08.bks.cpg/sg15_79_cif.got.tgz:156205.got - 2010.06.03 18:47:42.
