data_PCOD9278909
_publ_section_title
;
Structure prediction by ZEFSAII (Michael W. Deem and Ramdas Pophale) SiO2 
 PCOD9278909
Probable space group: C 2/C
;
_chemical_formula_sum "Si O2"
_cell_formula_units_Z 56
_cell_length_a 28.408649
_cell_length_b 19.758946
_cell_length_c 5.182179
_cell_angle_alpha 90.000000
_cell_angle_beta 79.315351
_cell_angle_gamma 90.000000
_cell_volume 2858.453627
_symmetry_space_group_name_H-M "C 2/C"
_symmetry_group_IT_number 15
_symmetry_cell_setting 'monoclinic'
loop_
_space_group_symop_operation_xyz
x,y,z
-x,y,1/2-z
-x,-y,-z
x,-y,1/2+z
1/2+x,1/2+y,z
1/2-x,1/2+y,1/2-z
1/2-x,1/2-y,-z
1/2+x,1/2-y,1/2+z
loop_
_atom_site_type_symbol
_atom_site_label
_atom_site_fract_x
_atom_site_fract_y
_atom_site_fract_z
Si Si1 0.553866 0.680507 0.240764
Si Si2 0.314369 0.457236 0.498881
Si Si3 0.300240 0.045111 0.399596
Si Si4 0.363030 0.176651 0.399197
Si Si5 0.553417 0.026942 0.892726
Si Si6 0.921311 0.667585 0.840242
Si Si7 0.381844 0.668549 0.822516
O O1 0.500000 0.654028 0.250000
O O2 0.552044 0.762156 0.224445
O O3 0.578218 0.665706 0.491035
O O4 0.590256 0.659837 0.975772
O O5 0.326007 0.487513 0.767169
O O6 0.257326 0.445220 0.543021
O O7 0.343612 0.389742 0.410258
O O8 0.324072 0.119272 0.379602
O O9 0.312705 0.999958 0.637156
O O10 0.376559 0.170922 0.687128
O O11 0.356424 0.257194 0.355505
O O12 0.406055 0.161068 0.152599
O O13 0.551793 0.102338 0.791915
O O14 0.577752 0.983024 0.643918
O O15 0.500000 0.000000 0.000000
#
# Coordination Sequence:
#
# PCOD9278909 Si02
#       7
#     8   8   8   8   8   8   8
#     4  10  21  37  60  81 110 152 186 238 283 339
#     4  10  21  39  64  90 116 150 181 228 292 350
#     4  10  21  36  57  85 118 155 195 230 281 348
#     4  10  21  36  55  82 113 151 191 237 282 328
#     4  10  21  33  44  66  95 136 187 244 272 317
#     4  10  21  35  51  74 106 148 195 236 288 319
#     4  10  21  39  60  89 115 146 197 232 282 351
#
# _framework density 19.591013
#
# number of rings (size 3 to 8) (size 9 to 14) (size 15 to 20)
#    0.000    2.000    0.000    3.000    2.000    4.000 
#    5.143    0.000    0.000   18.857    0.000    0.000 
#    0.000    0.000    0.000    0.000    0.000    0.000 
#
# Total GULP energy -156248.105997 kJ/mol
# GULP energy per Si atom -5580.289500 kJ/mol
# Density = 1.954642 g / cm^3
# Si number density = 19.591013 Si / 1000 Ang^3
#
#
#
# Elastic Constant Matrix: (Units=GPa)
#
#
# Indices 1 2 3 4 5 6 
#
# 1 49.0794 32.8529 10.9547 0.0000 -9.3457 0.0000
# 2 32.8529 70.7808 6.4395 0.0000 -20.3887 0.0000
# 3 10.9547 6.4395 92.7260 0.0000 10.8398 0.0000
# 4 0.0000 0.0000 0.0000 23.1087 0.0000 0.5112
# 5 -9.3457 -20.3887 10.8398 0.0000 24.4810 0.0000
# 6 0.0000 0.0000 0.0000 0.5112 0.0000 16.3334
#
#
#
# Elastic Compliance Matrix: (Units=1/GPa)
#
#
# Indices 1 2 3 4 5 6 
#
# 1 0.030225 -0.013263 -0.002855 0.000000 0.001757 0.000000
# 2 -0.013263 0.025397 -0.002191 0.000000 0.017059 0.000000
# 3 -0.002855 -0.002191 0.012249 0.000000 -0.008338 0.000000
# 4 0.000000 0.000000 0.000000 0.043304 0.000000 -0.001355
# 5 0.001757 0.017059 -0.008338 0.000000 0.059418 0.000000
# 6 0.000000 0.000000 0.000000 -0.001355 0.000000 0.061267
#
#
# Mechanical properties :
#
#
# Convention : Reuss Voigt Hill
#
# Bulk Modulus (GPa) = 31.99742 34.78672 33.39207
# Shear Modulus (GPa) = 17.92786 23.60724 20.76755
#
# Velocity S-wave (km/s) = 3.02835 3.47508 3.25938
# Velocity P-wave (km/s) = 5.34753 5.82208 5.58984
#
# Compressibility (1/GPa) = 0.03125252
#
# Stress axis : x y z
#
# Youngs Moduli (GPa) = 33.08516 39.37401 81.64146
#
# Poissons Ratio (x) = 0.52223 0.23309
# Poissons Ratio (y) = 0.43882 0.17888
# Poissons Ratio (z) = 0.09446 0.08627
#
# Static dielectric constant tensor:
#      x y z
#    x 1.773720 0.000000 0.056640 
#    y 0.000000 1.674180 0.000000 
#    z 0.056640 0.000000 1.718110 
# 
# From -- ./inp_files/18345.got.cif
#   From: 2010.05.17/outbox.cif.g08.bks.cpg/sg15_10_cif.got.tgz:18345.got - 2010.06.03 18:47:42.
