data_PCOD9278525
_publ_section_title
;
Structure prediction by ZEFSAII (Michael W. Deem and Ramdas Pophale) SiO2 
 PCOD9278525
Probable space group: C 2/C
;
_chemical_formula_sum "Si O2"
_cell_formula_units_Z 32
_cell_length_a 11.772017
_cell_length_b 7.174423
_cell_length_c 18.209634
_cell_angle_alpha 90.000000
_cell_angle_beta 137.199267
_cell_angle_gamma 90.000000
_cell_volume 1044.953635
_symmetry_space_group_name_H-M "C 2/C"
_symmetry_group_IT_number 15
_symmetry_cell_setting 'monoclinic'
loop_
_space_group_symop_operation_xyz
x,y,z
-x,y,1/2-z
-x,-y,-z
x,-y,1/2+z
1/2+x,1/2+y,z
1/2-x,1/2+y,1/2-z
1/2-x,1/2-y,-z
1/2+x,1/2-y,1/2+z
loop_
_atom_site_type_symbol
_atom_site_label
_atom_site_fract_x
_atom_site_fract_y
_atom_site_fract_z
Si Si1 0.103414 0.587289 0.726706
Si Si2 0.376153 0.281666 0.454835
Si Si3 0.417263 0.473000 0.630290
Si Si4 0.638152 0.141484 0.483782
O O1 0.291147 0.619408 0.843285
O O2 0.000000 0.531558 0.750000
O O3 0.041076 0.794678 0.680237
O O4 0.029496 0.459303 0.628537
O O5 0.344247 0.418749 0.506286
O O6 0.563107 0.236966 0.520854
O O7 0.283369 0.082800 0.434973
O O8 0.500000 0.531598 0.750000
O O9 0.348712 0.689408 0.577917
#
# Coordination Sequence:
#
# PCOD9278525 Si02
#       4
#     8   8   8   8
#     4  10  20  44  65  91 134 181 220 271 338 394
#     4  10  21  41  72  88 130 181 218 268 333 394
#     4  10  20  43  70  91 131 175 221 273 330 401
#     4  12  24  39  64 101 133 170 224 276 332 401
#
# _framework density 30.623370000000001
#
# number of rings (size 3 to 8) (size 9 to 14) (size 15 to 20)
#    0.000    1.500    7.500    0.750    0.000    3.000 
#    4.500    3.750    0.000    0.000    0.000    0.000 
#    0.000    0.000    0.000    0.000    0.000    0.000 
#
# Total GULP energy -89134.460261 kJ/mol
# GULP energy per Si atom -5570.903766 kJ/mol
# Density = 3.055367 g / cm^3
# Si number density = 30.623370 Si / 1000 Ang^3
#
#
#
# Elastic Constant Matrix: (Units=GPa)
#
#
# Indices 1 2 3 4 5 6 
#
# 1 157.9457 51.0762 61.9487 0.0000 7.8649 0.0000
# 2 51.0762 182.4626 97.8297 0.0000 1.7164 0.0000
# 3 61.9487 97.8297 228.2062 0.0000 -11.0401 0.0000
# 4 0.0000 0.0000 0.0000 90.9091 0.0000 -8.9190
# 5 7.8649 1.7164 -11.0401 0.0000 46.4289 0.0000
# 6 0.0000 0.0000 0.0000 -8.9190 0.0000 40.9346
#
#
#
# Elastic Compliance Matrix: (Units=1/GPa)
#
#
# Indices 1 2 3 4 5 6 
#
# 1 0.007420 -0.001222 -0.001567 0.000000 -0.001584 0.000000
# 2 -0.001222 0.007364 -0.002861 0.000000 -0.000746 0.000000
# 3 -0.001567 -0.002861 0.006122 0.000000 0.001827 0.000000
# 4 0.000000 0.000000 0.000000 0.011240 0.000000 0.002449
# 5 -0.001584 -0.000746 0.001827 0.000000 0.022269 0.000000
# 6 0.000000 0.000000 0.000000 0.002449 0.000000 0.024963
#
#
# Mechanical properties :
#
#
# Convention : Reuss Voigt Hill
#
# Bulk Modulus (GPa) = 104.10410 110.03595 107.07003
# Shear Modulus (GPa) = 53.25966 59.50519 56.38242
#
# Velocity S-wave (km/s) = 4.17488 4.41288 4.29553
# Velocity P-wave (km/s) = 7.57022 7.87240 7.72279
#
# Compressibility (1/GPa) = 0.00960577
#
# Stress axis : x y z
#
# Youngs Moduli (GPa) = 134.77185 135.80212 163.33769
#
# Poissons Ratio (x) = 0.16594 0.25595
# Poissons Ratio (y) = 0.16469 0.46732
# Poissons Ratio (z) = 0.21119 0.38854
#
# Static dielectric constant tensor:
#      x y z
#    x 2.259410 0.000000 -0.060950 
#    y 0.000000 2.676690 0.000000 
#    z -0.060950 0.000000 2.787980 
# 
# From -- ./inp_files/242160.got.cif
#   From: 2010.05.17/outbox.cif.g08.bks.cpg/sg15_122_cif.got.tgz:242160.got - 2010.06.03 18:47:42.
