data_PCOD9278765
_publ_section_title
;
Structure prediction by ZEFSAII (Michael W. Deem and Ramdas Pophale) SiO2 
 PCOD9278765
Probable space group: C 2/C
;
_chemical_formula_sum "Si O2"
_cell_formula_units_Z 48
_cell_length_a 9.568362
_cell_length_b 27.331706
_cell_length_c 9.476069
_cell_angle_alpha 90.000000
_cell_angle_beta 120.116203
_cell_angle_gamma 90.000000
_cell_volume 2143.647936
_symmetry_space_group_name_H-M "C 2/C"
_symmetry_group_IT_number 15
_symmetry_cell_setting 'monoclinic'
loop_
_space_group_symop_operation_xyz
x,y,z
-x,y,1/2-z
-x,-y,-z
x,-y,1/2+z
1/2+x,1/2+y,z
1/2-x,1/2+y,1/2-z
1/2-x,1/2-y,-z
1/2+x,1/2-y,1/2+z
loop_
_atom_site_type_symbol
_atom_site_label
_atom_site_fract_x
_atom_site_fract_y
_atom_site_fract_z
Si Si1 0.681865 0.055517 0.286296
Si Si2 0.106881 0.971861 0.170948
Si Si3 0.260720 0.614318 0.594424
Si Si4 0.500000 0.699062 0.750000
Si Si5 0.381547 0.139394 0.439621
Si Si6 0.000000 0.690361 0.750000
Si Si7 0.728227 0.244289 0.160183
O O1 0.500000 0.055765 0.250000
O O2 0.727822 0.001841 0.260957
O O3 0.777843 0.078884 0.467205
O O4 0.702233 0.091562 0.163434
O O5 0.000000 0.985052 0.250000
O O6 0.834689 0.916076 0.265423
O O7 0.000000 0.000000 0.000000
O O8 0.361568 0.663150 0.623348
O O9 0.072970 0.629728 0.510715
O O10 0.419371 0.729751 0.835098
O O11 0.382292 0.154869 0.603287
O O12 0.300257 0.186903 0.325753
O O13 0.890329 0.726579 0.789768
O O14 0.750000 0.250000 0.000000
#
# Coordination Sequence:
#
# PCOD9278765 Si02
#       7
#     8   8   8   4   8   4   8
#     4  10  24  44  66 101 141 181 235 292 357 433
#     4  12  24  47  71 101 140 180 236 294 358 427
#     4  11  23  44  70 102 142 185 243 288 363 439
#     4  12  22  42  76  97 139 202 230 302 364 410
#     4  10  23  42  67  98 141 183 238 292 355 434
#     4  10  20  46  62  97 143 178 238 300 344 426
#     4  10  24  42  65 103 140 185 240 293 358 427
#
# _framework density 22.391736000000002
#
# number of rings (size 3 to 8) (size 9 to 14) (size 15 to 20)
#    0.000    1.333    4.167    0.000    3.500    7.333 
#    9.000    0.000    0.000    0.000    0.000    0.000 
#    0.000    0.000    0.000    0.000    0.000    0.000 
#
# Total GULP energy -133619.309639 kJ/mol
# GULP energy per Si atom -5567.471235 kJ/mol
# Density = 2.234077 g / cm^3
# Si number density = 22.391736 Si / 1000 Ang^3
#
#
#
# Elastic Constant Matrix: (Units=GPa)
#
#
# Indices 1 2 3 4 5 6 
#
# 1 81.1063 32.3076 12.4844 0.0000 -8.9563 0.0000
# 2 32.3076 82.1672 6.3917 0.0000 -8.9701 0.0000
# 3 12.4844 6.3917 62.4986 0.0000 -4.1125 0.0000
# 4 0.0000 0.0000 0.0000 22.0622 0.0000 5.4420
# 5 -8.9563 -8.9701 -4.1125 0.0000 18.2787 0.0000
# 6 0.0000 0.0000 0.0000 5.4420 0.0000 48.8360
#
#
#
# Elastic Compliance Matrix: (Units=1/GPa)
#
#
# Indices 1 2 3 4 5 6 
#
# 1 0.015289 -0.005363 -0.002219 0.000000 0.004360 0.000000
# 2 -0.005363 0.014792 -0.000139 0.000000 0.004600 0.000000
# 3 -0.002219 -0.000139 0.016628 0.000000 0.002586 0.000000
# 4 0.000000 0.000000 0.000000 0.046607 0.000000 -0.005194
# 5 0.004360 0.004600 0.002586 0.000000 0.059684 0.000000
# 6 0.000000 0.000000 0.000000 -0.005194 0.000000 0.021055
#
#
# Mechanical properties :
#
#
# Convention : Reuss Voigt Hill
#
# Bulk Modulus (GPa) = 31.98162 36.45995 34.22078
# Shear Modulus (GPa) = 25.01017 29.47462 27.24239
#
# Velocity S-wave (km/s) = 3.34569 3.63204 3.49180
# Velocity P-wave (km/s) = 5.40727 5.82298 5.61897
#
# Compressibility (1/GPa) = 0.03126796
#
# Stress axis : x y z
#
# Youngs Moduli (GPa) = 65.40775 67.60451 60.13992
#
# Poissons Ratio (x) = 0.36255 0.13343
# Poissons Ratio (y) = 0.35077 0.00835
# Poissons Ratio (z) = 0.14512 0.00939
#
# Static dielectric constant tensor:
#      x y z
#    x 1.823990 0.000000 0.027420 
#    y 0.000000 1.838150 0.000000 
#    z 0.027420 0.000000 1.921180 
# 
# From -- ./inp_files/80984.got.cif
#   From: 2010.05.17/outbox.cif.g08.bks.cpg/sg15_41_cif.got.tgz:80984.got - 2010.06.03 18:47:42.
