data_PCOD9278675
_publ_section_title
;
Structure prediction by ZEFSAII (Michael W. Deem and Ramdas Pophale) SiO2 
 PCOD9278675
Probable space group: C 2/C
;
_chemical_formula_sum "Si O2"
_cell_formula_units_Z 56
_cell_length_a 9.571732
_cell_length_b 16.083205
_cell_length_c 17.249307
_cell_angle_alpha 90.000000
_cell_angle_beta 79.811937
_cell_angle_gamma 90.000000
_cell_volume 2613.559987
_symmetry_space_group_name_H-M "C 2/C"
_symmetry_group_IT_number 15
_symmetry_cell_setting 'monoclinic'
loop_
_space_group_symop_operation_xyz
x,y,z
-x,y,1/2-z
-x,-y,-z
x,-y,1/2+z
1/2+x,1/2+y,z
1/2-x,1/2+y,1/2-z
1/2-x,1/2-y,-z
1/2+x,1/2-y,1/2+z
loop_
_atom_site_type_symbol
_atom_site_label
_atom_site_fract_x
_atom_site_fract_y
_atom_site_fract_z
Si Si1 0.722967 0.297873 0.853879
Si Si2 0.428572 0.589619 0.016902
Si Si3 0.143476 0.628537 0.952244
Si Si4 0.383345 0.979848 0.193395
Si Si5 0.330649 0.828507 0.274779
Si Si6 0.680243 0.294635 0.434264
Si Si7 0.470814 0.147497 0.123678
O O1 0.624522 0.374418 0.893984
O O2 0.681785 0.221498 0.917086
O O3 0.708470 0.252039 0.772946
O O4 0.883783 0.331204 0.845531
O O5 0.500000 0.500000 0.000000
O O6 0.289507 0.595193 0.975946
O O7 0.551592 0.650370 0.975739
O O8 0.087661 0.570930 0.888470
O O9 0.028308 0.627679 0.031568
O O10 0.500000 0.987960 0.250000
O O11 0.271737 0.914507 0.242042
O O12 0.372498 0.074550 0.166702
O O13 0.500000 0.828154 0.250000
O O14 0.296249 0.836731 0.368512
O O15 0.750000 0.250000 0.500000
O O16 0.616489 0.230074 0.379529
#
# Coordination Sequence:
#
# PCOD9278675 Si02
#       7
#     8   8   8   8   8   8   8
#     4  10  20  44  69  94 135 177 218 272 336 397
#     4  11  23  41  67 104 134 173 223 275 335 399
#     4  10  20  44  69  91 134 177 211 278 335 401
#     4  10  24  39  63  98 133 167 224 275 333 386
#     4  10  24  44  67  91 138 177 217 281 342 392
#     4  12  26  42  70  98 134 179 232 276 332 411
#     4  11  22  40  71  99 128 172 233 267 331 409
#
# _framework density 21.426711999999998
#
# number of rings (size 3 to 8) (size 9 to 14) (size 15 to 20)
#    0.000    1.429    2.857    2.143    8.000    4.571 
#    0.000    0.000    0.000    0.000    0.000    0.000 
#    0.000    0.000    0.000    0.000    0.000    0.000 
#
# Total GULP energy -155988.079423 kJ/mol
# GULP energy per Si atom -5571.002837 kJ/mol
# Density = 2.137794 g / cm^3
# Si number density = 21.426712 Si / 1000 Ang^3
#
#
#
# Elastic Constant Matrix: (Units=GPa)
#
#
# Indices 1 2 3 4 5 6 
#
# 1 46.2778 14.4642 23.2863 0.0000 -11.6922 0.0000
# 2 14.4642 113.1473 8.8717 0.0000 -2.9770 0.0000
# 3 23.2863 8.8717 93.6579 0.0000 -4.4510 0.0000
# 4 0.0000 0.0000 0.0000 -4.3789 0.0000 10.5500
# 5 -11.6922 -2.9770 -4.4510 0.0000 18.4256 0.0000
# 6 0.0000 0.0000 0.0000 10.5500 0.0000 15.5916
#
#
#
# Elastic Compliance Matrix: (Units=1/GPa)
#
#
# Indices 1 2 3 4 5 6 
#
# 1 0.030031 -0.002890 -0.006383 0.000000 0.017048 0.000000
# 2 -0.002890 0.009211 -0.000172 0.000000 -0.000387 0.000000
# 3 -0.006383 -0.000172 0.012227 0.000000 -0.001124 0.000000
# 4 0.000000 0.000000 0.000000 -0.086825 0.000000 0.058749
# 5 0.017048 -0.000387 -0.001124 0.000000 0.064756 0.000000
# 6 0.000000 0.000000 0.000000 0.058749 0.000000 0.024385
#
#
# Mechanical properties :
#
#
# Convention : Reuss Voigt Hill
#
# Bulk Modulus (GPa) = 30.69513 38.48082 34.58798
# Shear Modulus (GPa) = 59.85601 19.69171 39.77386
#
# Velocity S-wave (km/s) = 5.29111 3.03483 4.31312
# Velocity P-wave (km/s) = 7.18920 5.50259 6.40168
#
# Compressibility (1/GPa) = 0.03257845
#
# Stress axis : x y z
#
# Youngs Moduli (GPa) = 33.29930 108.56818 81.78638
#
# Poissons Ratio (x) = 0.31376 0.52201
# Poissons Ratio (y) = 0.09623 0.01410
# Poissons Ratio (z) = 0.21254 0.01871
#
# Static dielectric constant tensor:
#      x y z
#    x 1.810400 0.000000 -0.023090 
#    y 0.000000 1.846410 0.000000 
#    z -0.023090 0.000000 1.936640 
# 
# From -- ./inp_files/190898.got.cif
#   From: 2010.05.17/outbox.cif.g08.bks.cpg/sg15_96_cif.got.tgz:190898.got - 2010.06.03 18:47:42.
