data_PCOD9278198
_publ_section_title
;
Structure prediction by ZEFSAII (Michael W. Deem and Ramdas Pophale) SiO2 
 PCOD9278198
Probable space group: C 2/C
;
_chemical_formula_sum "Si O2"
_cell_formula_units_Z 52
_cell_length_a 25.343997
_cell_length_b 8.633550
_cell_length_c 15.630008
_cell_angle_alpha 90.000000
_cell_angle_beta 137.424537
_cell_angle_gamma 90.000000
_cell_volume 2313.824775
_symmetry_space_group_name_H-M "C 2/C"
_symmetry_group_IT_number 15
_symmetry_cell_setting 'monoclinic'
loop_
_space_group_symop_operation_xyz
x,y,z
-x,y,1/2-z
-x,-y,-z
x,-y,1/2+z
1/2+x,1/2+y,z
1/2-x,1/2+y,1/2-z
1/2-x,1/2-y,-z
1/2+x,1/2-y,1/2+z
loop_
_atom_site_type_symbol
_atom_site_label
_atom_site_fract_x
_atom_site_fract_y
_atom_site_fract_z
Si Si1 0.733446 0.849115 0.855344
Si Si2 0.919662 0.203824 0.210001
Si Si3 0.500000 0.797430 0.750000
Si Si4 0.857631 0.116419 0.644614
Si Si5 0.168806 0.303212 0.556751
Si Si6 0.260361 0.078378 0.777286
Si Si7 0.005210 0.457273 0.408282
O O1 0.666871 0.736015 0.811239
O O2 0.702450 0.987570 0.759381
O O3 0.786691 0.731652 0.860650
O O4 0.782293 0.907215 0.994469
O O5 0.939740 0.334915 0.301630
O O6 0.000000 0.184251 0.250000
O O7 0.893919 0.042848 0.219828
O O8 0.851074 0.255098 0.063322
O O9 0.423423 0.693963 0.664531
O O10 0.499476 0.903648 0.665199
O O11 0.234868 0.436620 0.648643
O O12 0.089108 0.380647 0.492532
O O13 0.187472 0.155528 0.639198
O O14 0.000000 0.500000 0.500000
#
# Coordination Sequence:
#
# PCOD9278198 Si02
#       7
#     8   8   4   8   8   8   8
#     4  10  23  41  67  96 145 178 235 288 358 425
#     4  10  20  45  69  94 141 185 232 294 357 419
#     4  12  24  42  72 102 146 184 236 302 354 420
#     4  11  23  43  66 103 133 192 231 287 364 426
#     4  10  20  42  67  98 138 179 229 284 365 404
#     4  10  21  39  66  97 134 183 217 299 336 427
#     4  11  25  45  72 104 140 189 239 300 352 431
#
# _framework density 22.473614000000001
#
# number of rings (size 3 to 8) (size 9 to 14) (size 15 to 20)
#    0.000    1.538    4.615    0.923    4.308    0.000 
#    8.308    1.538    0.000    0.000    0.000    0.000 
#    0.000    0.000    0.000    0.000    0.000    0.000 
#
# Total GULP energy -145020.703365 kJ/mol
# GULP energy per Si atom -5577.719360 kJ/mol
# Density = 2.242246 g / cm^3
# Si number density = 22.473614 Si / 1000 Ang^3
#
#
#
# Elastic Constant Matrix: (Units=GPa)
#
#
# Indices 1 2 3 4 5 6 
#
# 1 57.6912 27.1923 12.1758 0.0000 -12.2263 0.0000
# 2 27.1923 80.1226 21.7392 0.0000 9.8818 0.0000
# 3 12.1758 21.7392 85.9604 0.0000 -7.6836 0.0000
# 4 0.0000 0.0000 0.0000 29.8284 0.0000 -5.3166
# 5 -12.2263 9.8818 -7.6836 0.0000 26.3911 0.0000
# 6 0.0000 0.0000 0.0000 -5.3166 0.0000 37.2046
#
#
#
# Elastic Compliance Matrix: (Units=1/GPa)
#
#
# Indices 1 2 3 4 5 6 
#
# 1 0.025783 -0.010896 0.000550 0.000000 0.016184 0.000000
# 2 -0.010896 0.019058 -0.004482 0.000000 -0.013489 0.000000
# 3 0.000550 -0.004482 0.013205 0.000000 0.005778 0.000000
# 4 0.000000 0.000000 0.000000 0.034401 0.000000 0.004916
# 5 0.016184 -0.013489 0.005778 0.000000 0.052122 0.000000
# 6 0.000000 0.000000 0.000000 0.004916 0.000000 0.027581
#
#
# Mechanical properties :
#
#
# Convention : Reuss Voigt Hill
#
# Bulk Modulus (GPa) = 35.22212 38.44322 36.83267
# Shear Modulus (GPa) = 23.66632 29.52928 26.59780
#
# Velocity S-wave (km/s) = 3.24863 3.62878 3.44395
# Velocity P-wave (km/s) = 5.45693 5.89071 5.67797
#
# Compressibility (1/GPa) = 0.02839125
#
# Stress axis : x y z
#
# Youngs Moduli (GPa) = 38.78507 52.47008 75.72698
#
# Poissons Ratio (x) = 0.57170 -0.04166
# Poissons Ratio (y) = 0.42259 0.33943
# Poissons Ratio (z) = -0.02134 0.23518
#
# Static dielectric constant tensor:
#      x y z
#    x 1.869010 0.000000 0.003100 
#    y 0.000000 1.856700 0.000000 
#    z 0.003100 0.000000 1.815720 
# 
# From -- ./inp_files/221925.got.cif
#   From: 2010.05.17/outbox.cif.g08.bks.cpg/sg15_111_cif.got.tgz:221925.got - 2010.06.03 18:47:42.
