data_PCOD9278724
_publ_section_title
;
Structure prediction by ZEFSAII (Michael W. Deem and Ramdas Pophale) SiO2 
 PCOD9278724
Probable space group: C 2/C
;
_chemical_formula_sum "Si O2"
_cell_formula_units_Z 36
_cell_length_a 11.192917
_cell_length_b 13.063842
_cell_length_c 9.525379
_cell_angle_alpha 90.000000
_cell_angle_beta 86.087004
_cell_angle_gamma 90.000000
_cell_volume 1389.577806
_symmetry_space_group_name_H-M "C 2/C"
_symmetry_group_IT_number 15
_symmetry_cell_setting 'monoclinic'
loop_
_space_group_symop_operation_xyz
x,y,z
-x,y,1/2-z
-x,-y,-z
x,-y,1/2+z
1/2+x,1/2+y,z
1/2-x,1/2+y,1/2-z
1/2-x,1/2-y,-z
1/2+x,1/2-y,1/2+z
loop_
_atom_site_type_symbol
_atom_site_label
_atom_site_fract_x
_atom_site_fract_y
_atom_site_fract_z
Si Si1 0.290751 0.094118 0.581309
Si Si2 0.103245 0.068191 0.145551
Si Si3 0.307854 0.809153 0.793251
Si Si4 0.893929 0.262134 0.501636
Si Si5 0.500000 0.906201 0.250000
O O1 0.345582 0.131565 0.430571
O O2 0.236469 0.195594 0.658111
O O3 0.389018 0.043822 0.677241
O O4 0.186094 0.013880 0.564551
O O5 0.190938 0.132319 0.241751
O O6 0.052932 0.151124 0.039445
O O7 0.000000 0.022361 0.250000
O O8 0.401919 0.797740 0.660088
O O9 0.750000 0.250000 0.500000
O O10 0.942319 0.337585 0.378787
#
# Coordination Sequence:
#
# PCOD9278724 Si02
#       5
#     8   8   8   8   4
#     4  11  25  44  72 114 151 198 252 307 375 461
#     4  11  23  45  78 113 149 197 256 316 378 439
#     4  10  24  46  69 107 154 190 254 311 374 449
#     4  10  20  44  76 100 145 202 244 306 380 438
#     4  12  22  48  76 104 158 204 242 308 394 440
#
# _framework density 25.907150000000001
#
# number of rings (size 3 to 8) (size 9 to 14) (size 15 to 20)
#    0.000    1.333    5.556    0.000    3.111    1.778 
#    8.000   10.000    0.000    0.000    0.000    0.000 
#    0.000    0.000    0.000    0.000    0.000    0.000 
#
# Total GULP energy -100853.213252 kJ/mol
# GULP energy per Si atom -5602.956292 kJ/mol
# Density = 2.584818 g / cm^3
# Si number density = 25.907150 Si / 1000 Ang^3
#
#
#
# Elastic Constant Matrix: (Units=GPa)
#
#
# Indices 1 2 3 4 5 6 
#
# 1 67.7961 6.4293 44.0793 0.0000 -2.9823 0.0000
# 2 6.4293 68.0183 32.2571 0.0000 0.1913 0.0000
# 3 44.0793 32.2571 221.3795 0.0000 -13.5227 0.0000
# 4 0.0000 0.0000 0.0000 32.3874 0.0000 2.7936
# 5 -2.9823 0.1913 -13.5227 0.0000 53.2759 0.0000
# 6 0.0000 0.0000 0.0000 2.7936 0.0000 -3.1331
#
#
#
# Elastic Compliance Matrix: (Units=1/GPa)
#
#
# Indices 1 2 3 4 5 6 
#
# 1 0.016944 -0.000005 -0.003367 0.000000 0.000094 0.000000
# 2 -0.000005 0.015816 -0.002343 0.000000 -0.000652 0.000000
# 3 -0.003367 -0.002343 0.005605 0.000000 0.001243 0.000000
# 4 0.000000 0.000000 0.000000 0.028671 0.000000 0.025565
# 5 0.000094 -0.000652 0.001243 0.000000 0.019093 0.000000
# 6 0.000000 0.000000 0.000000 0.025565 0.000000 -0.296382
#
#
# Mechanical properties :
#
#
# Convention : Reuss Voigt Hill
#
# Bulk Modulus (GPa) = 37.12866 58.08060 47.60463
# Shear Modulus (GPa) = -26.33733 34.80127 4.23197
#
# Velocity S-wave (km/s) = -3.19188 3.66909 1.27948
# Velocity P-wave (km/s) = 0.88226 6.35744 4.53847
#
# Compressibility (1/GPa) = 0.02693337
#
# Stress axis : x y z
#
# Youngs Moduli (GPa) = 59.01780 63.22907 178.41392
#
# Poissons Ratio (x) = 0.00031 0.60077
# Poissons Ratio (y) = 0.00029 0.41808
# Poissons Ratio (z) = 0.19873 0.14817
#
# Static dielectric constant tensor:
#      x y z
#    x 2.039730 0.000000 0.061510 
#    y 0.000000 2.027370 0.000000 
#    z 0.061510 0.000000 2.031650 
# 
# From -- ./inp_files/85453.got.cif
#   From: 2010.05.17/outbox.cif.g08.bks.cpg/sg15_43_cif.got.tgz:85453.got - 2010.06.03 18:47:42.
