data_PCOD9278004
_publ_section_title
;
Structure prediction by ZEFSAII (Michael W. Deem and Ramdas Pophale) SiO2 
 PCOD9278004
Probable space group: C 2/C
;
_chemical_formula_sum "Si O2"
_cell_formula_units_Z 56
_cell_length_a 8.520920
_cell_length_b 27.079788
_cell_length_c 13.922085
_cell_angle_alpha 90.000000
_cell_angle_beta 120.903196
_cell_angle_gamma 90.000000
_cell_volume 2756.396371
_symmetry_space_group_name_H-M "C 2/C"
_symmetry_group_IT_number 15
_symmetry_cell_setting 'monoclinic'
loop_
_space_group_symop_operation_xyz
x,y,z
-x,y,1/2-z
-x,-y,-z
x,-y,1/2+z
1/2+x,1/2+y,z
1/2-x,1/2+y,1/2-z
1/2-x,1/2-y,-z
1/2+x,1/2-y,1/2+z
loop_
_atom_site_type_symbol
_atom_site_label
_atom_site_fract_x
_atom_site_fract_y
_atom_site_fract_z
Si Si1 0.722540 0.834320 0.685503
Si Si2 0.801931 0.438308 0.738724
Si Si3 0.976518 0.908387 0.014116
Si Si4 0.462490 0.689001 0.075012
Si Si5 0.800755 0.548863 0.734801
Si Si6 0.198408 0.867506 0.352227
Si Si7 0.586746 0.779314 0.998823
O O1 0.713299 0.893540 0.691006
O O2 0.837861 0.816395 0.813024
O O3 0.528114 0.808564 0.617027
O O4 0.826501 0.818137 0.621271
O O5 0.642724 0.430694 0.609560
O O6 0.784098 0.493737 0.772333
O O7 0.000000 0.433907 0.750000
O O8 0.062895 0.857030 0.003946
O O9 0.841393 0.893109 0.058038
O O10 0.137975 0.942298 0.106650
O O11 0.464262 0.739918 0.018063
O O12 0.775610 0.591337 0.805265
O O13 0.000000 0.552627 0.750000
O O14 0.329380 0.820976 0.405701
O O15 0.000000 0.851399 0.250000
O O16 0.750000 0.750000 0.000000
#
# Coordination Sequence:
#
# PCOD9278004 Si02
#       7
#     8   8   8   8   8   8   8
#     4  10  24  42  62  96 127 162 212 269 305 384
#     4  10  21  42  68  94 126 167 214 261 323 375
#     4  10  20  42  64  91 130 166 210 261 307 389
#     4  10  23  42  63  92 130 164 213 255 320 367
#     4  10  23  42  64  96 130 166 208 264 324 377
#     4  10  23  42  61  94 128 164 214 257 311 383
#     4  12  24  39  68  90 124 172 210 260 321 371
#
# _framework density 20.316382000000001
#
# number of rings (size 3 to 8) (size 9 to 14) (size 15 to 20)
#    0.000    1.714    1.429    1.714    6.000    0.000 
#   20.571    2.143    0.000    0.000    0.000    0.000 
#    0.000    0.000    0.000    0.000    0.000    0.000 
#
# Total GULP energy -156466.554183 kJ/mol
# GULP energy per Si atom -5588.091221 kJ/mol
# Density = 2.027014 g / cm^3
# Si number density = 20.316382 Si / 1000 Ang^3
#
#
#
# Elastic Constant Matrix: (Units=GPa)
#
#
# Indices 1 2 3 4 5 6 
#
# 1 53.7573 31.1437 19.0642 0.0000 4.8464 0.0000
# 2 31.1437 140.7188 48.4254 0.0000 13.6756 0.0000
# 3 19.0642 48.4254 45.2856 0.0000 4.0547 0.0000
# 4 0.0000 0.0000 0.0000 32.4938 0.0000 -0.1029
# 5 4.8464 13.6756 4.0547 0.0000 26.1354 0.0000
# 6 0.0000 0.0000 0.0000 -0.1029 0.0000 26.7649
#
#
#
# Elastic Compliance Matrix: (Units=1/GPa)
#
#
# Indices 1 2 3 4 5 6 
#
# 1 0.022590 -0.002540 -0.006630 0.000000 -0.001831 0.000000
# 2 -0.002540 0.011975 -0.011375 0.000000 -0.004030 0.000000
# 3 -0.006630 -0.011375 0.036906 0.000000 0.001455 0.000000
# 4 0.000000 0.000000 0.000000 0.030776 0.000000 0.000118
# 5 -0.001831 -0.004030 0.001455 0.000000 0.040485 0.000000
# 6 0.000000 0.000000 0.000000 0.000118 0.000000 0.037363
#
#
# Mechanical properties :
#
#
# Convention : Reuss Voigt Hill
#
# Bulk Modulus (GPa) = 32.91463 48.55872 40.73668
# Shear Modulus (GPa) = 21.61608 26.48737 24.05173
#
# Velocity S-wave (km/s) = 3.26540 3.61466 3.44446
# Velocity P-wave (km/s) = 5.51845 6.43227 5.99281
#
# Compressibility (1/GPa) = 0.03038163
#
# Stress axis : x y z
#
# Youngs Moduli (GPa) = 44.26757 83.51060 27.09598
#
# Poissons Ratio (x) = 0.21213 0.17964
# Poissons Ratio (y) = 0.11245 0.30820
# Poissons Ratio (z) = 0.29348 0.94990
#
# Static dielectric constant tensor:
#      x y z
#    x 1.728830 0.000000 0.019560 
#    y 0.000000 1.702660 0.000000 
#    z 0.019560 0.000000 1.721990 
# 
# From -- ./inp_files/138687.got.cif
#   From: 2010.05.17/outbox.cif.g08.bks.cpg/sg15_70_cif.got.tgz:138687.got - 2010.06.03 18:47:42.
