data_PCOD9278772
_publ_section_title
;
Structure prediction by ZEFSAII (Michael W. Deem and Ramdas Pophale) SiO2 
 PCOD9278772
Probable space group: C 2/C
;
_chemical_formula_sum "Si O2"
_cell_formula_units_Z 36
_cell_length_a 10.640773
_cell_length_b 11.412903
_cell_length_c 22.529619
_cell_angle_alpha 90.000000
_cell_angle_beta 36.343756
_cell_angle_gamma 90.000000
_cell_volume 1621.457883
_symmetry_space_group_name_H-M "C 2/C"
_symmetry_group_IT_number 15
_symmetry_cell_setting 'monoclinic'
loop_
_space_group_symop_operation_xyz
x,y,z
-x,y,1/2-z
-x,-y,-z
x,-y,1/2+z
1/2+x,1/2+y,z
1/2-x,1/2+y,1/2-z
1/2-x,1/2-y,-z
1/2+x,1/2-y,1/2+z
loop_
_atom_site_type_symbol
_atom_site_label
_atom_site_fract_x
_atom_site_fract_y
_atom_site_fract_z
Si Si1 0.390586 0.163762 0.078921
Si Si2 0.000000 0.423874 0.750000
Si Si3 0.142416 0.213944 0.622031
Si Si4 0.240444 0.370011 0.208482
Si Si5 0.572472 0.901644 0.393870
O O1 0.239588 0.259500 0.164863
O O2 0.387479 0.039392 0.112821
O O3 0.629200 0.213594 0.996810
O O4 0.383204 0.135934 0.010896
O O5 0.946614 0.340897 0.826182
O O6 0.806210 0.510125 0.808113
O O7 0.224439 0.159838 0.653220
O O8 0.967578 0.137301 0.655003
O O9 0.068579 0.365893 0.327195
#
# Coordination Sequence:
#
# PCOD9278772 Si02
#       5
#     8   4   8   8   8
#     4   9  21  41  67  99 124 175 227 261 343 391
#     4  12  26  40  64 104 132 176 230 258 338 398
#     4  10  20  46  65  91 135 175 214 277 328 382
#     4  12  22  40  65  97 133 173 216 281 320 394
#     4   9  20  40  69  94 127 173 221 269 332 394
#
# _framework density 22.202241000000001
#
# number of rings (size 3 to 8) (size 9 to 14) (size 15 to 20)
#    1.333    0.444    2.222    2.000    0.000    0.889 
#    8.000    1.111    0.000    0.000    0.000    0.000 
#    0.000    0.000    0.000    0.000    0.000    0.000 
#
# Total GULP energy -100302.810272 kJ/mol
# GULP energy per Si atom -5572.378348 kJ/mol
# Density = 2.215171 g / cm^3
# Si number density = 22.202241 Si / 1000 Ang^3
#
#
#
# Elastic Constant Matrix: (Units=GPa)
#
#
# Indices 1 2 3 4 5 6 
#
# 1 64.0643 31.6015 24.2886 0.0000 -5.1468 0.0001
# 2 31.6015 158.8709 56.3766 0.0001 12.1390 0.0004
# 3 24.2886 56.3766 78.8903 0.0002 19.5633 0.0015
# 4 0.0000 0.0001 0.0002 48.4834 0.0001 -10.2597
# 5 -5.1468 12.1390 19.5633 0.0001 26.3433 -0.0002
# 6 0.0001 0.0004 0.0015 -10.2597 -0.0002 90.3244
#
#
#
# Elastic Compliance Matrix: (Units=1/GPa)
#
#
# Indices 1 2 3 4 5 6 
#
# 1 0.020288 -0.002276 -0.007186 0.000000 0.010349 0.000000
# 2 -0.002276 0.008700 -0.005408 0.000000 -0.000438 0.000000
# 3 -0.007186 -0.005408 0.022655 0.000000 -0.015736 0.000000
# 4 0.000000 0.000000 0.000000 0.021134 0.000000 0.002400
# 5 0.010349 -0.000438 -0.015736 0.000000 0.051870 0.000000
# 6 0.000000 0.000000 0.000000 0.002400 0.000000 0.011344
#
#
# Mechanical properties :
#
#
# Convention : Reuss Voigt Hill
#
# Bulk Modulus (GPa) = 45.65608 58.48433 52.07021
# Shear Modulus (GPa) = 28.89665 45.66749 37.28207
#
# Velocity S-wave (km/s) = 3.61157 4.54021 4.10225
# Velocity P-wave (km/s) = 6.16438 7.34054 6.77802
#
# Compressibility (1/GPa) = 0.02190289
#
# Stress axis : x y z
#
# Youngs Moduli (GPa) = 49.29025 114.94845 44.14068
#
# Poissons Ratio (x) = 0.26166 0.31719
# Poissons Ratio (y) = 0.11220 0.23869
# Poissons Ratio (z) = 0.35420 0.62158
#
# Static dielectric constant tensor:
#      x y z
#    x 1.902150 0.000000 0.048220 
#    y 0.000000 1.778900 0.000000 
#    z 0.048220 0.000000 1.898800 
# 
# From -- ./inp_files/310566.got.cif
#   From: 2010.05.17/outbox.cif.g08.bks.cpg/sg15_156_cif.got.tgz:310566.got - 2010.06.03 18:47:42.
