data_PCOD9278249
_publ_section_title
;
Structure prediction by ZEFSAII (Michael W. Deem and Ramdas Pophale) SiO2 
 PCOD9278249
Probable space group: C 2/C
;
_chemical_formula_sum "Si O2"
_cell_formula_units_Z 56
_cell_length_a 14.487940
_cell_length_b 29.634276
_cell_length_c 10.960294
_cell_angle_alpha 90.000000
_cell_angle_beta 36.321471
_cell_angle_gamma 90.000000
_cell_volume 2787.250521
_symmetry_space_group_name_H-M "C 2/C"
_symmetry_group_IT_number 15
_symmetry_cell_setting 'monoclinic'
loop_
_space_group_symop_operation_xyz
x,y,z
-x,y,1/2-z
-x,-y,-z
x,-y,1/2+z
1/2+x,1/2+y,z
1/2-x,1/2+y,1/2-z
1/2-x,1/2-y,-z
1/2+x,1/2-y,1/2+z
loop_
_atom_site_type_symbol
_atom_site_label
_atom_site_fract_x
_atom_site_fract_y
_atom_site_fract_z
Si Si1 0.328790 0.792621 0.475260
Si Si2 0.762892 0.785331 0.648399
Si Si3 0.907847 0.952325 0.977907
Si Si4 0.889966 0.053720 0.989035
Si Si5 0.842062 0.859173 0.995985
Si Si6 0.624629 0.312101 0.283570
Si Si7 0.326096 0.129549 0.392641
O O1 0.250000 0.750000 0.500000
O O2 0.286805 0.790780 0.659659
O O3 0.278524 0.838999 0.468646
O O4 0.500000 0.785889 0.250000
O O5 0.724060 0.733620 0.655946
O O6 0.658811 0.822730 0.692574
O O7 0.944918 0.800000 0.441614
O O8 0.000000 0.953760 0.750000
O O9 0.832469 0.001823 0.065526
O O10 0.798142 0.909021 0.086139
O O11 0.014865 0.941272 0.983941
O O12 0.000000 0.055025 0.750000
O O13 0.759768 0.091645 0.099105
O O14 0.867494 0.826239 0.083396
O O15 0.000000 0.860915 0.750000
O O16 0.703081 0.354198 0.128616
O O17 0.500000 0.115641 0.250000
#
# Coordination Sequence:
#
# PCOD9278249 Si02
#       7
#     8   8   8   8   8   8   8
#     4  12  24  39  60  91 125 168 211 264 325 385
#     4  12  24  41  62  90 127 170 217 268 319 385
#     4   9  20  37  69 101 126 160 214 269 320 391
#     4  10  20  42  68  96 127 167 215 265 326 388
#     4  11  21  38  63  96 125 163 208 258 321 387
#     4  12  24  41  64  90 129 168 218 267 318 386
#     4  12  27  42  63  93 130 175 219 267 325 385
#
# _framework density 20.091484999999999
#
# number of rings (size 3 to 8) (size 9 to 14) (size 15 to 20)
#    0.000    0.857    2.857    5.571    4.000    0.000 
#    0.000    0.714    0.000   12.000    0.000    0.000 
#    0.000    0.000    0.000    0.000    0.000    0.000 
#
# Total GULP energy -156143.708334 kJ/mol
# GULP energy per Si atom -5576.561012 kJ/mol
# Density = 2.004576 g / cm^3
# Si number density = 20.091485 Si / 1000 Ang^3
#
#
#
# Elastic Constant Matrix: (Units=GPa)
#
#
# Indices 1 2 3 4 5 6 
#
# 1 86.1908 45.0926 37.3795 0.0000 14.8708 0.0000
# 2 45.0926 148.2085 23.5356 0.0000 -8.0843 0.0000
# 3 37.3795 23.5356 89.7642 0.0000 -5.2429 0.0000
# 4 0.0000 0.0000 0.0000 15.4482 0.0000 3.8333
# 5 14.8708 -8.0843 -5.2429 0.0000 40.3470 0.0000
# 6 0.0000 0.0000 0.0000 3.8333 0.0000 40.3972
#
#
#
# Elastic Compliance Matrix: (Units=1/GPa)
#
#
# Indices 1 2 3 4 5 6 
#
# 1 0.018856 -0.005105 -0.007033 0.000000 -0.008887 0.000000
# 2 -0.005105 0.008479 0.000113 0.000000 0.003595 0.000000
# 3 -0.007033 0.000113 0.014300 0.000000 0.004473 0.000000
# 4 0.000000 0.000000 0.000000 0.066293 0.000000 -0.006291
# 5 -0.008887 0.003595 0.004473 0.000000 0.029362 0.000000
# 6 0.000000 0.000000 0.000000 -0.006291 0.000000 0.025351
#
#
# Mechanical properties :
#
#
# Convention : Reuss Voigt Hill
#
# Bulk Modulus (GPa) = 56.86466 59.57541 58.22003
# Shear Modulus (GPa) = 25.96691 33.78223 29.87457
#
# Velocity S-wave (km/s) = 3.59894 4.10496 3.86025
# Velocity P-wave (km/s) = 6.75531 7.22385 6.99350
#
# Compressibility (1/GPa) = 0.01758562
#
# Stress axis : x y z
#
# Youngs Moduli (GPa) = 53.03340 117.94363 69.92777
#
# Poissons Ratio (x) = 0.60209 0.49177
# Poissons Ratio (y) = 0.27073 -0.00788
# Poissons Ratio (z) = 0.37296 -0.01329
#
# Static dielectric constant tensor:
#      x y z
#    x 1.769870 0.000000 0.029110 
#    y 0.000000 1.722910 0.000000 
#    z 0.029110 0.000000 1.703400 
# 
# From -- ./inp_files/101746.got.cif
#   From: 2010.05.17/outbox.cif.g08.bks.cpg/sg15_51_cif.got.tgz:101746.got - 2010.06.03 18:47:42.
