data_PCOD9278174
_publ_section_title
;
Structure prediction by ZEFSAII (Michael W. Deem and Ramdas Pophale) SiO2 
 PCOD9278174
Probable space group: C 2/C
;
_chemical_formula_sum "Si O2"
_cell_formula_units_Z 56
_cell_length_a 8.174580
_cell_length_b 23.991697
_cell_length_c 18.563842
_cell_angle_alpha 90.000000
_cell_angle_beta 47.140849
_cell_angle_gamma 90.000000
_cell_volume 2668.792834
_symmetry_space_group_name_H-M "C 2/C"
_symmetry_group_IT_number 15
_symmetry_cell_setting 'monoclinic'
loop_
_space_group_symop_operation_xyz
x,y,z
-x,y,1/2-z
-x,-y,-z
x,-y,1/2+z
1/2+x,1/2+y,z
1/2-x,1/2+y,1/2-z
1/2-x,1/2-y,-z
1/2+x,1/2-y,1/2+z
loop_
_atom_site_type_symbol
_atom_site_label
_atom_site_fract_x
_atom_site_fract_y
_atom_site_fract_z
Si Si1 0.288685 0.034516 0.977437
Si Si2 0.794356 0.605321 0.118006
Si Si3 0.732670 0.500611 0.216499
Si Si4 0.074390 0.939894 0.398197
Si Si5 0.592077 0.262807 0.947092
Si Si6 0.276825 0.657866 0.969487
Si Si7 0.894220 0.226959 0.353593
O O1 0.549501 0.021943 0.889508
O O2 0.202585 0.069054 0.934516
O O3 0.244525 0.066330 0.064500
O O4 0.142821 0.978211 0.021073
O O5 0.743765 0.567573 0.203063
O O6 0.666827 0.663065 0.146177
O O7 0.053247 0.621593 0.037501
O O8 0.500000 0.482164 0.250000
O O9 0.723815 0.476087 0.299042
O O10 0.985386 0.882209 0.392501
O O11 0.734354 0.208275 0.926577
O O12 0.560179 0.270021 0.871708
O O13 0.694117 0.314051 0.960675
O O14 0.341047 0.254413 0.053631
O O15 0.000000 0.252450 0.250000
#
# Coordination Sequence:
#
# PCOD9278174 Si02
#       7
#     8   8   8   8   8   8   8
#     4  11  23  40  59  90 135 175 214 271 323 399
#     4  11  21  39  64  92 128 168 218 265 337 386
#     4  12  22  38  60  92 130 171 224 266 314 411
#     4  11  23  39  63  90 133 173 217 268 329 386
#     4   9  21  42  67  94 127 165 227 269 342 390
#     4  10  20  42  67  90 126 180 211 279 332 394
#     4  10  21  40  67  96 125 166 211 282 331 401
#
# _framework density 20.983269
#
# number of rings (size 3 to 8) (size 9 to 14) (size 15 to 20)
#    0.000    1.429    2.857    3.000    0.000    0.000 
#    0.000   15.000    0.000    0.000    0.000    0.000 
#    0.000    0.000    0.000    0.000    0.000    0.000 
#
# Total GULP energy -156468.345034 kJ/mol
# GULP energy per Si atom -5588.155180 kJ/mol
# Density = 2.093551 g / cm^3
# Si number density = 20.983269 Si / 1000 Ang^3
#
#
#
# Elastic Constant Matrix: (Units=GPa)
#
#
# Indices 1 2 3 4 5 6 
#
# 1 80.7403 13.3683 11.0195 0.0000 15.9817 0.0000
# 2 13.3683 46.4331 3.1891 0.0000 9.9395 0.0000
# 3 11.0195 3.1891 79.4778 0.0000 11.7420 0.0000
# 4 0.0000 0.0000 0.0000 16.0201 0.0000 -2.0260
# 5 15.9817 9.9395 11.7420 0.0000 35.2731 0.0000
# 6 0.0000 0.0000 0.0000 -2.0260 0.0000 24.4674
#
#
#
# Elastic Compliance Matrix: (Units=1/GPa)
#
#
# Indices 1 2 3 4 5 6 
#
# 1 0.014032 -0.002854 -0.001063 0.000000 -0.005200 0.000000
# 2 -0.002854 0.023499 0.000252 0.000000 -0.005413 0.000000
# 3 -0.001063 0.000252 0.013313 0.000000 -0.004022 0.000000
# 4 0.000000 0.000000 0.000000 0.063082 0.000000 0.005224
# 5 -0.005200 -0.005413 -0.004022 0.000000 0.033570 0.000000
# 6 0.000000 0.000000 0.000000 0.005224 0.000000 0.041303
#
#
# Mechanical properties :
#
#
# Convention : Reuss Voigt Hill
#
# Bulk Modulus (GPa) = 22.97976 29.08946 26.03461
# Shear Modulus (GPa) = 23.73776 27.09039 25.41408
#
# Velocity S-wave (km/s) = 3.36709 3.59701 3.48395
# Velocity P-wave (km/s) = 5.10799 5.58073 5.34959
#
# Compressibility (1/GPa) = 0.04351655
#
# Stress axis : x y z
#
# Youngs Moduli (GPa) = 71.26460 42.55437 75.11177
#
# Poissons Ratio (x) = 0.12145 0.07983
# Poissons Ratio (y) = 0.20338 -0.01896
# Poissons Ratio (z) = 0.07574 -0.01074
#
# Static dielectric constant tensor:
#      x y z
#    x 1.764950 0.000000 -0.003540 
#    y 0.000000 1.754500 0.000000 
#    z -0.003540 0.000000 1.774530 
# 
# From -- ./inp_files/193190.got.cif
#   From: 2010.05.17/outbox.cif.g08.bks.cpg/sg15_97_cif.got.tgz:193190.got - 2010.06.03 18:47:42.
