data_PCOD9278927
_publ_section_title
;
Structure prediction by ZEFSAII (Michael W. Deem and Ramdas Pophale) SiO2 
 PCOD9278927
Probable space group: C 2/C
;
_chemical_formula_sum "Si O2"
_cell_formula_units_Z 64
_cell_length_a 22.480956
_cell_length_b 28.645437
_cell_length_c 19.074738
_cell_angle_alpha 90.000000
_cell_angle_beta 18.436638
_cell_angle_gamma 90.000000
_cell_volume 3884.787059
_symmetry_space_group_name_H-M "C 2/C"
_symmetry_group_IT_number 15
_symmetry_cell_setting 'monoclinic'
loop_
_space_group_symop_operation_xyz
x,y,z
-x,y,1/2-z
-x,-y,-z
x,-y,1/2+z
1/2+x,1/2+y,z
1/2-x,1/2+y,1/2-z
1/2-x,1/2-y,-z
1/2+x,1/2-y,1/2+z
loop_
_atom_site_type_symbol
_atom_site_label
_atom_site_fract_x
_atom_site_fract_y
_atom_site_fract_z
Si Si1 0.117901 0.533320 0.056268
Si Si2 0.648436 0.999514 0.271278
Si Si3 0.333122 0.391967 0.751259
Si Si4 0.227141 0.694905 0.603248
Si Si5 0.600151 0.095698 0.766892
Si Si6 0.498264 0.545541 0.950677
Si Si7 0.353891 0.699810 0.308240
Si Si8 0.168763 0.946595 0.612274
O O1 0.000000 0.558962 0.250000
O O2 0.964367 0.517389 0.170659
O O3 0.300136 0.553614 0.811674
O O4 0.214529 0.489269 0.987145
O O5 0.690604 0.944629 0.213298
O O6 0.500000 0.000000 0.500000
O O7 0.831328 0.030615 0.083732
O O8 0.441938 0.410487 0.561905
O O9 0.321763 0.337368 0.782810
O O10 0.409609 0.415959 0.736509
O O11 0.122015 0.411753 0.981409
O O12 0.130852 0.650225 0.745395
O O13 0.218878 0.693188 0.527173
O O14 0.440905 0.691583 0.389376
O O15 0.157631 0.746313 0.701251
O O16 0.691131 0.085313 0.589627
O O17 0.500000 0.500000 0.000000
O O18 0.000000 0.961830 0.750000
#
# Coordination Sequence:
#
# PCOD9278927 Si02
#       8
#     8   8   8   8   8   8   8   8
#     4  12  24  38  54  79 107 145 192 240 282 329
#     4  12  22  38  54  79 113 144 191 235 282 332
#     4  12  22  35  51  75 105 144 188 233 280 326
#     4  10  21  33  51  73 102 142 182 232 279 307
#     4  12  21  33  54  73 105 143 189 230 271 324
#     4  12  24  37  54  77 106 145 189 239 282 333
#     4  10  21  35  48  74 104 139 184 233 271 321
#     4  12  21  32  49  78 103 141 192 234 274 325
#
# _framework density 16.474519000000001
#
# number of rings (size 3 to 8) (size 9 to 14) (size 15 to 20)
#    0.000    0.500    7.500    2.625    1.750    1.000 
#    0.000    0.000    0.000    0.000    0.000    0.000 
#    0.000    0.000    0.000   10.125    1.500    0.875 
#
# Total GULP energy -178621.138346 kJ/mol
# GULP energy per Si atom -5581.910573 kJ/mol
# Density = 1.643702 g / cm^3
# Si number density = 16.474519 Si / 1000 Ang^3
#
#
#
# Elastic Constant Matrix: (Units=GPa)
#
#
# Indices 1 2 3 4 5 6 
#
# 1 71.3440 29.0356 36.4685 0.0902 1.6933 0.0584
# 2 29.0356 91.0721 25.5204 0.0364 14.6627 -0.0472
# 3 36.4685 25.5204 107.8032 0.2906 8.9346 -0.1474
# 4 0.0902 0.0364 0.2906 20.7125 -0.1165 -1.5526
# 5 1.6933 14.6627 8.9346 -0.1165 30.4302 0.0116
# 6 0.0584 -0.0472 -0.1474 -1.5526 0.0116 -0.9439
#
#
#
# Elastic Compliance Matrix: (Units=1/GPa)
#
#
# Indices 1 2 3 4 5 6 
#
# 1 0.018710 -0.004919 -0.005404 0.000170 0.002916 0.002005
# 2 -0.004919 0.013836 -0.001109 -0.000079 -0.006067 -0.000768
# 3 -0.005404 -0.001109 0.011578 -0.000276 -0.002565 -0.001664
# 4 0.000170 -0.000079 -0.000276 0.042989 0.000301 -0.070649
# 5 0.002916 -0.006067 -0.002565 0.000301 0.036377 0.000837
# 6 0.002005 -0.000768 -0.001664 -0.070649 0.000837 -0.942741
#
#
# Mechanical properties :
#
#
# Convention : Reuss Voigt Hill
#
# Bulk Modulus (GPa) = 47.03989 50.25205 48.64597
# Shear Modulus (GPa) = -6.33473 21.98606 7.82566
#
# Velocity S-wave (km/s) = -1.96304 3.65711 2.18185
# Velocity P-wave (km/s) = 4.84532 6.95714 5.99495
#
# Compressibility (1/GPa) = 0.02125855
#
# Stress axis : x y z
#
# Youngs Moduli (GPa) = 53.44733 72.27521 86.37096
#
# Poissons Ratio (x) = 0.35554 0.46677
# Poissons Ratio (y) = 0.26292 0.09581
# Poissons Ratio (z) = 0.28884 0.08017
#
# Static dielectric constant tensor:
#      x y z
#    x 1.601350 -0.000080 -0.013610 
#    y -0.000080 1.568250 0.000120 
#    z -0.013610 0.000120 1.627910 
# 
# From -- ./inp_files/217177.got.cif
#   From: 2010.05.17/outbox.cif.g08.bks.cpg/sg15_109_cif.got.tgz:217177.got - 2010.06.03 18:47:42.
