data_PCOD9278893
_publ_section_title
;
Structure prediction by ZEFSAII (Michael W. Deem and Ramdas Pophale) SiO2 
 PCOD9278893
Probable space group: C 2/C
;
_chemical_formula_sum "Si O2"
_cell_formula_units_Z 60
_cell_length_a 23.616359
_cell_length_b 9.039123
_cell_length_c 21.546218
_cell_angle_alpha 90.000000
_cell_angle_beta 39.482615
_cell_angle_gamma 90.000000
_cell_volume 2924.562497
_symmetry_space_group_name_H-M "C 2/C"
_symmetry_group_IT_number 15
_symmetry_cell_setting 'monoclinic'
loop_
_space_group_symop_operation_xyz
x,y,z
-x,y,1/2-z
-x,-y,-z
x,-y,1/2+z
1/2+x,1/2+y,z
1/2-x,1/2+y,1/2-z
1/2-x,1/2-y,-z
1/2+x,1/2-y,1/2+z
loop_
_atom_site_type_symbol
_atom_site_label
_atom_site_fract_x
_atom_site_fract_y
_atom_site_fract_z
Si Si1 0.854797 0.767485 0.490112
Si Si2 0.110003 0.894168 0.753873
Si Si3 0.596367 0.677517 0.690894
Si Si4 0.859337 0.556669 0.951240
Si Si5 0.549685 0.464270 0.521159
Si Si6 0.500000 0.787076 0.250000
Si Si7 0.772530 0.218221 0.619464
Si Si8 0.815245 0.438522 0.858618
O O1 0.855951 0.805932 0.415686
O O2 0.873576 0.592985 0.479149
O O3 0.756383 0.811363 0.594423
O O4 0.917143 0.884508 0.473102
O O5 0.076893 0.804997 0.720382
O O6 0.199386 0.830302 0.710174
O O7 0.129308 0.057542 0.711474
O O8 0.024306 0.894459 0.870795
O O9 0.500000 0.627664 0.750000
O O10 0.594407 0.843921 0.720491
O O11 0.805599 0.503630 0.935991
O O12 0.950121 0.618829 0.844886
O O13 0.807266 0.685124 0.031336
O O14 0.500000 0.500000 0.500000
O O15 0.634781 0.356849 0.436714
O O16 0.708822 0.076866 0.662306
#
# Coordination Sequence:
#
# PCOD9278893 Si02
#       8
#     8   8   8   8   8   4   8   8
#     4  10  21  38  58  90 126 168 207 256 321 391
#     4  12  22  40  65  94 129 169 215 265 337 401
#     4  11  20  33  59  94 131 162 202 251 328 402
#     4  11  21  34  58  96 134 165 206 251 333 403
#     4  11  25  48  67  88 124 178 230 283 325 375
#     4  12  22  32  62 100 136 164 198 264 338 412
#     4  11  23  40  64  92 129 172 216 276 328 391
#     4  10  21  32  54  90 134 165 196 247 320 403
#
# _framework density 20.515889000000001
#
# number of rings (size 3 to 8) (size 9 to 14) (size 15 to 20)
#    0.000    1.067    4.667    3.600    5.600    0.000 
#    0.000    4.667    0.000    0.000    0.000    0.000 
#    0.000    0.000    0.000    0.000    0.000    0.000 
#
# Total GULP energy -167097.287140 kJ/mol
# GULP energy per Si atom -5569.909571 kJ/mol
# Density = 2.046919 g / cm^3
# Si number density = 20.515889 Si / 1000 Ang^3
#
#
#
# Elastic Constant Matrix: (Units=GPa)
#
#
# Indices 1 2 3 4 5 6 
#
# 1 74.3796 33.3247 13.3617 -0.0003 -11.5882 0.0000
# 2 33.3247 108.1225 29.8014 -0.0024 -15.6056 0.0010
# 3 13.3617 29.8014 34.0580 -0.0005 -15.4216 0.0004
# 4 -0.0003 -0.0024 -0.0005 36.0151 0.0002 -14.2965
# 5 -11.5882 -15.6056 -15.4216 0.0002 15.7137 -0.0001
# 6 0.0000 0.0010 0.0004 -14.2965 -0.0001 20.3332
#
#
#
# Elastic Compliance Matrix: (Units=1/GPa)
#
#
# Indices 1 2 3 4 5 6 
#
# 1 0.016509 -0.004109 0.001410 0.000000 0.009478 0.000000
# 2 -0.004109 0.013287 -0.009740 0.000001 0.000607 0.000000
# 3 0.001410 -0.009740 0.060153 0.000000 0.050403 -0.000001
# 4 0.000000 0.000001 0.000000 0.038516 0.000000 0.027081
# 5 0.009478 0.000607 0.050403 0.000000 0.120697 -0.000001
# 6 0.000000 0.000000 -0.000001 0.027081 -0.000001 0.068222
#
#
# Mechanical properties :
#
#
# Convention : Reuss Voigt Hill
#
# Bulk Modulus (GPa) = 15.36743 41.05953 28.21348
# Shear Modulus (GPa) = 13.73808 23.75056 18.74432
#
# Velocity S-wave (km/s) = 2.59053 3.40614 3.02594
# Velocity P-wave (km/s) = 4.05642 5.96037 5.09807
#
# Compressibility (1/GPa) = 0.06507271
#
# Stress axis : x y z
#
# Youngs Moduli (GPa) = 60.57372 75.25947 16.62414
#
# Poissons Ratio (x) = 0.30924 -0.02345
# Poissons Ratio (y) = 0.24890 0.16192
# Poissons Ratio (z) = -0.08543 0.73302
#
# Static dielectric constant tensor:
#      x y z
#    x 1.734220 0.000000 -0.060800 
#    y 0.000000 1.829390 0.000000 
#    z -0.060800 0.000000 1.807360 
# 
# From -- ./inp_files/281656.got.cif
#   From: 2010.05.17/outbox.cif.g08.bks.cpg/sg15_141_cif.got.tgz:281656.got - 2010.06.03 18:47:42.
