data_PCOD9278269
_publ_section_title
;
Structure prediction by ZEFSAII (Michael W. Deem and Ramdas Pophale) SiO2 
 PCOD9278269
Probable space group: C 2/C
;
_chemical_formula_sum "Si O2"
_cell_formula_units_Z 56
_cell_length_a 9.984220
_cell_length_b 10.468322
_cell_length_c 29.250994
_cell_angle_alpha 90.000000
_cell_angle_beta 118.700652
_cell_angle_gamma 90.000000
_cell_volume 2681.643897
_symmetry_space_group_name_H-M "C 2/C"
_symmetry_group_IT_number 15
_symmetry_cell_setting 'monoclinic'
loop_
_space_group_symop_operation_xyz
x,y,z
-x,y,1/2-z
-x,-y,-z
x,-y,1/2+z
1/2+x,1/2+y,z
1/2-x,1/2+y,1/2-z
1/2-x,1/2-y,-z
1/2+x,1/2-y,1/2+z
loop_
_atom_site_type_symbol
_atom_site_label
_atom_site_fract_x
_atom_site_fract_y
_atom_site_fract_z
Si Si1 0.148121 0.307982 0.337099
Si Si2 0.896516 0.009399 0.274003
Si Si3 0.044971 0.850636 0.963048
Si Si4 0.986222 0.444854 0.446794
Si Si5 0.256598 0.508174 0.930141
Si Si6 0.798407 0.723123 0.760996
Si Si7 0.657403 0.540559 0.386112
O O1 0.215647 0.425642 0.375833
O O2 0.195613 0.304514 0.292285
O O3 0.196086 0.176912 0.369421
O O4 0.963783 0.309605 0.308950
O O5 0.779005 0.124922 0.265783
O O6 0.000000 0.065755 0.250000
O O7 0.010066 0.988279 0.334929
O O8 0.823066 0.880600 0.242723
O O9 0.045507 0.700227 0.954956
O O10 0.112265 0.928172 0.930865
O O11 0.869573 0.890533 0.941788
O O12 0.142895 0.893327 0.022829
O O13 0.807898 0.455508 0.405592
O O14 0.000000 0.500000 0.500000
O O15 0.100406 0.519519 0.431674
#
# Coordination Sequence:
#
# PCOD9278269 Si02
#       7
#     8   8   8   8   8   8   8
#     4  10  20  42  69  87 123 173 203 258 320 382
#     4  11  23  43  65  95 127 168 207 270 316 384
#     4  11  24  44  61  96 130 164 214 266 306 384
#     4  12  24  41  64  95 128 171 209 261 320 378
#     4  11  23  41  67  92 129 170 212 258 321 378
#     4  10  22  43  66  93 128 163 217 260 321 378
#     4  11  22  42  68  91 130 165 214 262 318 377
#
# _framework density 20.882712999999999
#
# number of rings (size 3 to 8) (size 9 to 14) (size 15 to 20)
#    0.000    1.143    5.714    2.143    2.000    0.571 
#   10.286    0.000    0.000    0.000    0.000    0.000 
#    0.000    0.000    0.000    0.000    0.000    0.000 
#
# Total GULP energy -156459.825592 kJ/mol
# GULP energy per Si atom -5587.850914 kJ/mol
# Density = 2.083518 g / cm^3
# Si number density = 20.882713 Si / 1000 Ang^3
#
#
#
# Elastic Constant Matrix: (Units=GPa)
#
#
# Indices 1 2 3 4 5 6 
#
# 1 65.2315 14.5858 -7.1436 0.0000 4.5779 0.0000
# 2 14.5858 47.3673 -2.2034 0.0000 16.2927 0.0000
# 3 -7.1436 -2.2034 72.4853 0.0000 0.7711 0.0000
# 4 0.0000 0.0000 0.0000 25.4972 0.0000 4.8670
# 5 4.5779 16.2927 0.7711 0.0000 20.9620 0.0000
# 6 0.0000 0.0000 0.0000 4.8670 0.0000 30.2249
#
#
#
# Elastic Compliance Matrix: (Units=1/GPa)
#
#
# Indices 1 2 3 4 5 6 
#
# 1 0.016623 -0.005163 0.001478 0.000000 0.000328 0.000000
# 2 -0.005163 0.030509 0.000659 0.000000 -0.022610 0.000000
# 3 0.001478 0.000659 0.013976 0.000000 -0.001349 0.000000
# 4 0.000000 0.000000 0.000000 0.040464 0.000000 -0.006516
# 5 0.000328 -0.022610 -0.001349 0.000000 0.065257 0.000000
# 6 0.000000 0.000000 0.000000 -0.006516 0.000000 0.034135
#
#
# Mechanical properties :
#
#
# Convention : Reuss Voigt Hill
#
# Bulk Modulus (GPa) = 18.16325 21.72909 19.94617
# Shear Modulus (GPa) = 22.18601 27.32651 24.75626
#
# Velocity S-wave (km/s) = 3.26300 3.62134 3.44683
# Velocity P-wave (km/s) = 4.78674 5.28331 5.04114
#
# Compressibility (1/GPa) = 0.05505624
#
# Stress axis : x y z
#
# Youngs Moduli (GPa) = 60.15670 32.77717 71.55160
#
# Poissons Ratio (x) = 0.16923 -0.10574
# Poissons Ratio (y) = 0.31058 -0.04716
# Poissons Ratio (z) = -0.08890 -0.02160
#
# Static dielectric constant tensor:
#      x y z
#    x 1.754170 0.000000 -0.000530 
#    y 0.000000 1.740540 0.000000 
#    z -0.000530 0.000000 1.753990 
# 
# From -- ./inp_files/307552.got.cif
#   From: 2010.05.17/outbox.cif.g08.bks.cpg/sg15_154_cif.got.tgz:307552.got - 2010.06.03 18:47:42.
