data_PCOD9278929
_publ_section_title
;
Structure prediction by ZEFSAII (Michael W. Deem and Ramdas Pophale) SiO2 
 PCOD9278929
Probable space group: C 2/C
;
_chemical_formula_sum "Si O2"
_cell_formula_units_Z 56
_cell_length_a 11.286609
_cell_length_b 22.477635
_cell_length_c 12.950206
_cell_angle_alpha 90.000000
_cell_angle_beta 70.086249
_cell_angle_gamma 90.000000
_cell_volume 3088.972051
_symmetry_space_group_name_H-M "C 2/C"
_symmetry_group_IT_number 15
_symmetry_cell_setting 'monoclinic'
loop_
_space_group_symop_operation_xyz
x,y,z
-x,y,1/2-z
-x,-y,-z
x,-y,1/2+z
1/2+x,1/2+y,z
1/2-x,1/2+y,1/2-z
1/2-x,1/2-y,-z
1/2+x,1/2-y,1/2+z
loop_
_atom_site_type_symbol
_atom_site_label
_atom_site_fract_x
_atom_site_fract_y
_atom_site_fract_z
Si Si1 0.949812 0.880661 0.089765
Si Si2 0.609480 0.725936 0.551352
Si Si3 0.500000 0.527532 0.750000
Si Si4 0.162236 0.341836 0.871514
Si Si5 0.594427 0.411717 0.634246
Si Si6 0.718176 0.209886 0.685721
Si Si7 0.506857 0.203970 0.910491
Si Si8 0.500000 0.182346 0.250000
O O1 0.829520 0.836958 0.136467
O O2 0.073887 0.841828 0.084811
O O3 0.941131 0.932685 0.176806
O O4 0.951005 0.902325 0.970069
O O5 0.750000 0.750000 0.500000
O O6 0.537698 0.736545 0.464468
O O7 0.554222 0.771437 0.650906
O O8 0.594471 0.481356 0.665034
O O9 0.271450 0.381964 0.885174
O O10 0.220096 0.275437 0.836267
O O11 0.104424 0.356624 0.777060
O O12 0.045992 0.340516 0.986972
O O13 0.500000 0.384702 0.750000
O O14 0.635935 0.192587 0.810943
O O15 0.611390 0.210682 0.629481
#
# Coordination Sequence:
#
# PCOD9278929 Si02
#       8
#     8   8   4   8   8   8   8   4
#     4  12  22  43  66  93 131 164 215 275 315 382
#     4  11  23  33  55  92 134 165 198 251 328 394
#     4  10  27  42  66  96 120 173 222 268 318 352
#     4  11  20  37  58  87 135 159 207 261 311 393
#     4  10  25  41  64  91 118 170 220 264 310 369
#     4  11  21  33  61  92 125 165 201 256 334 386
#     4  10  21  33  51  91 126 160 203 238 323 394
#     4  10  21  34  50  90 130 165 200 240 330 390
#
# _framework density 18.129007000000001
#
# number of rings (size 3 to 8) (size 9 to 14) (size 15 to 20)
#    0.429    0.857    4.286    3.000    8.000    0.000 
#    0.000    0.000    0.000    2.571    0.000    0.000 
#    0.000    0.000    0.000    0.000    0.000    0.000 
#
# Total GULP energy -155917.549404 kJ/mol
# GULP energy per Si atom -5568.483907 kJ/mol
# Density = 1.808774 g / cm^3
# Si number density = 18.129007 Si / 1000 Ang^3
#
#
#
# Elastic Constant Matrix: (Units=GPa)
#
#
# Indices 1 2 3 4 5 6 
#
# 1 79.6331 44.5910 54.5753 0.0000 -0.1259 0.0000
# 2 44.5910 66.1279 23.6625 0.0000 -5.3112 0.0000
# 3 54.5753 23.6625 110.4053 0.0000 -0.7414 0.0000
# 4 0.0000 0.0000 0.0000 23.2023 0.0000 4.4084
# 5 -0.1259 -5.3112 -0.7414 0.0000 33.1970 0.0000
# 6 0.0000 0.0000 0.0000 4.4084 0.0000 18.0919
#
#
#
# Elastic Compliance Matrix: (Units=1/GPa)
#
#
# Indices 1 2 3 4 5 6 
#
# 1 0.028855 -0.015770 -0.010902 0.000000 -0.002657 0.000000
# 2 -0.015770 0.025214 0.002418 0.000000 0.004028 0.000000
# 3 -0.010902 0.002418 0.013932 0.000000 0.000657 0.000000
# 4 0.000000 0.000000 0.000000 0.045191 0.000000 -0.011012
# 5 -0.002657 0.004028 0.000657 0.000000 0.030772 0.000000
# 6 0.000000 0.000000 0.000000 -0.011012 0.000000 0.057956
#
#
# Mechanical properties :
#
#
# Convention : Reuss Voigt Hill
#
# Bulk Modulus (GPa) = 51.29355 55.75821 53.52588
# Shear Modulus (GPa) = 19.46085 23.78742 21.62413
#
# Velocity S-wave (km/s) = 3.27993 3.62625 3.45743
# Velocity P-wave (km/s) = 6.53445 6.95385 6.74741
#
# Compressibility (1/GPa) = 0.01949563
#
# Stress axis : x y z
#
# Youngs Moduli (GPa) = 34.65612 39.66023 71.77490
#
# Poissons Ratio (x) = 0.62543 0.78245
# Poissons Ratio (y) = 0.54652 -0.17358
# Poissons Ratio (z) = 0.37780 -0.09591
#
# Static dielectric constant tensor:
#      x y z
#    x 1.668020 0.000000 -0.004560 
#    y 0.000000 1.610890 0.000000 
#    z -0.004560 0.000000 1.753430 
# 
# From -- ./inp_files/89588.got.cif
#   From: 2010.05.17/outbox.cif.g08.bks.cpg/sg15_45_cif.got.tgz:89588.got - 2010.06.03 18:47:42.
