data_PCOD9278403
_publ_section_title
;
Structure prediction by ZEFSAII (Michael W. Deem and Ramdas Pophale) SiO2 
 PCOD9278403
Probable space group: C 2/C
;
_chemical_formula_sum "Si O2"
_cell_formula_units_Z 36
_cell_length_a 18.012857
_cell_length_b 7.096231
_cell_length_c 17.584998
_cell_angle_alpha 90.000000
_cell_angle_beta 142.866562
_cell_angle_gamma 90.000000
_cell_volume 1356.921357
_symmetry_space_group_name_H-M "C 2/C"
_symmetry_group_IT_number 15
_symmetry_cell_setting 'monoclinic'
loop_
_space_group_symop_operation_xyz
x,y,z
-x,y,1/2-z
-x,-y,-z
x,-y,1/2+z
1/2+x,1/2+y,z
1/2-x,1/2+y,1/2-z
1/2-x,1/2-y,-z
1/2+x,1/2-y,1/2+z
loop_
_atom_site_type_symbol
_atom_site_label
_atom_site_fract_x
_atom_site_fract_y
_atom_site_fract_z
Si Si1 0.276442 0.988409 0.475283
Si Si2 0.230982 0.836368 0.144812
Si Si3 0.815584 0.730352 0.223669
Si Si4 0.040134 0.987922 0.889253
Si Si5 0.000000 0.643458 0.750000
O O1 0.264660 0.181512 0.417797
O O2 0.060456 0.850107 0.185887
O O3 0.393492 0.014610 0.625171
O O4 0.277385 0.826846 0.412341
O O5 0.231210 0.750859 0.228385
O O6 0.326393 0.008365 0.219797
O O7 0.100887 0.936393 0.019215
O O8 0.846056 0.963338 0.074160
O O9 0.982823 0.798634 0.804877
#
# Coordination Sequence:
#
# PCOD9278403 Si02
#       5
#     8   8   8   8   4
#     4  11  24  49  76 112 152 204 251 323 379 461
#     4  11  25  46  75 111 156 204 254 307 397 459
#     4  12  24  48  76 113 154 203 258 318 381 467
#     4  11  24  47  74 110 157 194 256 326 372 452
#     4  10  20  42  78 104 144 206 244 314 386 442
#
# _framework density 26.530643999999999
#
# number of rings (size 3 to 8) (size 9 to 14) (size 15 to 20)
#    0.000    0.889    4.444    3.333    0.000    0.889 
#    8.000    6.667    0.000    0.000    0.000    0.000 
#    0.000    0.000    0.000    0.000    0.000    0.000 
#
# Total GULP energy -100904.149196 kJ/mol
# GULP energy per Si atom -5605.786066 kJ/mol
# Density = 2.647026 g / cm^3
# Si number density = 26.530644 Si / 1000 Ang^3
#
#
#
# Elastic Constant Matrix: (Units=GPa)
#
#
# Indices 1 2 3 4 5 6 
#
# 1 100.8517 31.4919 59.4867 0.0000 -26.5027 0.0000
# 2 31.4919 152.9783 44.9390 0.0000 -10.8535 0.0000
# 3 59.4867 44.9390 179.0573 0.0000 -12.1317 0.0000
# 4 0.0000 0.0000 0.0000 47.7091 0.0000 -11.0266
# 5 -26.5027 -10.8535 -12.1317 0.0000 52.2096 0.0000
# 6 0.0000 0.0000 0.0000 -11.0266 0.0000 38.8998
#
#
#
# Elastic Compliance Matrix: (Units=1/GPa)
#
#
# Indices 1 2 3 4 5 6 
#
# 1 0.014279 -0.001336 -0.003999 0.000000 0.006041 0.000000
# 2 -0.001336 0.007242 -0.001339 0.000000 0.000516 0.000000
# 3 -0.003999 -0.001339 0.007206 0.000000 -0.000634 0.000000
# 4 0.000000 0.000000 0.000000 0.022430 0.000000 0.006358
# 5 0.006041 0.000516 -0.000634 0.000000 0.022180 0.000000
# 6 0.000000 0.000000 0.000000 0.006358 0.000000 0.027509
#
#
# Mechanical properties :
#
#
# Convention : Reuss Voigt Hill
#
# Bulk Modulus (GPa) = 65.02124 78.30250 71.66187
# Shear Modulus (GPa) = 41.90359 47.56168 44.73263
#
# Velocity S-wave (km/s) = 3.97853 4.23863 4.11064
# Velocity P-wave (km/s) = 6.75767 7.31660 7.04268
#
# Compressibility (1/GPa) = 0.01537959
#
# Stress axis : x y z
#
# Youngs Moduli (GPa) = 70.03151 138.08749 138.76424
#
# Poissons Ratio (x) = 0.18449 0.55495
# Poissons Ratio (y) = 0.09357 0.18576
# Poissons Ratio (z) = 0.28007 0.18485
#
# Static dielectric constant tensor:
#      x y z
#    x 2.172780 0.000000 0.116560 
#    y 0.000000 2.100290 0.000000 
#    z 0.116560 0.000000 2.100370 
# 
# From -- ./inp_files/109328.got.cif
#   From: 2010.05.17/outbox.cif.g08.bks.cpg/sg15_55_cif.got.tgz:109328.got - 2010.06.03 18:47:42.
