data_PCOD9278169
_publ_section_title
;
Structure prediction by ZEFSAII (Michael W. Deem and Ramdas Pophale) SiO2 
 PCOD9278169
Probable space group: C 2/C
;
_chemical_formula_sum "Si O2"
_cell_formula_units_Z 32
_cell_length_a 13.154589
_cell_length_b 4.861313
_cell_length_c 25.537740
_cell_angle_alpha 90.000000
_cell_angle_beta 117.325915
_cell_angle_gamma 90.000000
_cell_volume 1450.863709
_symmetry_space_group_name_H-M "C 2/C"
_symmetry_group_IT_number 15
_symmetry_cell_setting 'monoclinic'
loop_
_space_group_symop_operation_xyz
x,y,z
-x,y,1/2-z
-x,-y,-z
x,-y,1/2+z
1/2+x,1/2+y,z
1/2-x,1/2+y,1/2-z
1/2-x,1/2-y,-z
1/2+x,1/2-y,1/2+z
loop_
_atom_site_type_symbol
_atom_site_label
_atom_site_fract_x
_atom_site_fract_y
_atom_site_fract_z
Si Si1 0.027433 0.355456 0.560526
Si Si2 0.226953 0.123574 0.661067
Si Si3 0.511016 0.614735 0.382688
Si Si4 0.121434 0.909989 0.305882
O O1 0.002893 0.576627 0.600631
O O2 0.000000 0.500000 0.500000
O O3 0.040857 0.920036 0.439695
O O4 0.159931 0.261982 0.595969
O O5 0.114837 0.000728 0.662926
O O6 0.310685 0.871714 0.670030
O O7 0.296937 0.369752 0.703899
O O8 0.592961 0.559439 0.354029
O O9 0.000000 0.858795 0.250000
#
# Coordination Sequence:
#
# PCOD9278169 Si02
#       4
#     8   8   8   8
#     4  10  20  42  67  86 126 167 198 258 316 358
#     4  10  22  41  61  90 127 155 212 257 297 378
#     4  10  22  40  63  89 128 154 211 251 305 375
#     4  12  24  40  64  91 124 164 208 255 312 368
#
# _framework density 22.055828000000002
#
# number of rings (size 3 to 8) (size 9 to 14) (size 15 to 20)
#    1.500    0.000    2.500    3.000    0.000    2.000 
#    0.000    7.500    0.000    0.000    0.000    0.000 
#    0.000    0.000    0.000    0.000    0.000    0.000 
#
# Total GULP energy -89192.114529 kJ/mol
# GULP energy per Si atom -5574.507158 kJ/mol
# Density = 2.200563 g / cm^3
# Si number density = 22.055828 Si / 1000 Ang^3
#
#
#
# Elastic Constant Matrix: (Units=GPa)
#
#
# Indices 1 2 3 4 5 6 
#
# 1 32.6759 15.3296 13.8068 0.0000 9.5574 0.0000
# 2 15.3296 144.6205 11.2875 0.0000 13.8713 0.0001
# 3 13.8068 11.2875 55.3109 0.0000 4.1590 0.0000
# 4 0.0000 0.0000 0.0000 21.6177 0.0000 13.8987
# 5 9.5574 13.8713 4.1590 0.0000 22.9233 0.0000
# 6 0.0000 0.0001 0.0000 13.8987 0.0000 11.3459
#
#
#
# Elastic Compliance Matrix: (Units=1/GPa)
#
#
# Indices 1 2 3 4 5 6 
#
# 1 0.039077 -0.002204 -0.008293 0.000000 -0.013454 0.000000
# 2 -0.002204 0.007542 -0.000725 0.000000 -0.003513 0.000000
# 3 -0.008293 -0.000725 0.020281 0.000000 0.000216 0.000000
# 4 0.000000 0.000000 0.000000 0.217784 0.000000 -0.266785
# 5 -0.013454 -0.003513 0.000216 0.000000 0.051320 0.000000
# 6 0.000000 0.000000 0.000000 -0.266785 0.000000 0.414950
#
#
# Mechanical properties :
#
#
# Convention : Reuss Voigt Hill
#
# Bulk Modulus (GPa) = 22.49413 34.82835 28.66124
# Shear Modulus (GPa) = 6.34344 23.98961 15.16653
#
# Velocity S-wave (km/s) = 1.69774 3.30157 2.62514
# Velocity P-wave (km/s) = 3.75020 5.50991 4.71291
#
# Compressibility (1/GPa) = 0.04445604
#
# Stress axis : x y z
#
# Youngs Moduli (GPa) = 25.59047 132.59378 49.30642
#
# Poissons Ratio (x) = 0.29229 0.40890
# Poissons Ratio (y) = 0.05641 0.03573
# Poissons Ratio (z) = 0.21222 0.09609
#
# Static dielectric constant tensor:
#      x y z
#    x 1.824840 0.000000 -0.009100 
#    y 0.000000 1.802780 0.000000 
#    z -0.009100 0.000000 1.853430 
# 
# From -- ./inp_files/271799.got.cif
#   From: 2010.05.17/outbox.cif.g08.bks.cpg/sg15_136_cif.got.tgz:271799.got - 2010.06.03 18:47:42.
