data_PCOD9278801
_publ_section_title
;
Structure prediction by ZEFSAII (Michael W. Deem and Ramdas Pophale) SiO2 
 PCOD9278801
Probable space group: C 2/C
;
_chemical_formula_sum "Si O2"
_cell_formula_units_Z 60
_cell_length_a 25.720321
_cell_length_b 13.980770
_cell_length_c 20.310378
_cell_angle_alpha 90.000000
_cell_angle_beta 159.198242
_cell_angle_gamma 90.000000
_cell_volume 2593.700029
_symmetry_space_group_name_H-M "C 2/C"
_symmetry_group_IT_number 15
_symmetry_cell_setting 'monoclinic'
loop_
_space_group_symop_operation_xyz
x,y,z
-x,y,1/2-z
-x,-y,-z
x,-y,1/2+z
1/2+x,1/2+y,z
1/2-x,1/2+y,1/2-z
1/2-x,1/2-y,-z
1/2+x,1/2-y,1/2+z
loop_
_atom_site_type_symbol
_atom_site_label
_atom_site_fract_x
_atom_site_fract_y
_atom_site_fract_z
Si Si1 0.080187 0.031788 0.282280
Si Si2 0.078459 0.749734 0.778106
Si Si3 0.113484 0.366634 0.664831
Si Si4 0.363102 0.484795 0.290803
Si Si5 0.856426 0.539207 0.166345
Si Si6 0.500000 0.809584 0.750000
Si Si7 0.908309 0.406642 0.005172
Si Si8 0.338866 0.202055 0.925523
O O1 0.029128 0.140049 0.210598
O O2 0.075557 0.974065 0.210077
O O3 0.000000 0.987031 0.250000
O O4 0.246389 0.034329 0.504083
O O5 0.000000 0.710189 0.750000
O O6 0.006553 0.686871 0.635435
O O7 0.250000 0.750000 0.000000
O O8 0.183356 0.427228 0.807377
O O9 0.083064 0.424837 0.562469
O O10 0.227901 0.286309 0.776987
O O11 0.968635 0.319940 0.527030
O O12 0.500000 0.500000 0.500000
O O13 0.259669 0.579953 0.171882
O O14 0.261847 0.393420 0.187606
O O15 0.877049 0.626766 0.141461
O O16 0.011174 0.488792 0.358193
O O17 0.415096 0.768455 0.585844
#
# Coordination Sequence:
#
# PCOD9278801 Si02
#       8
#     8   8   8   8   8   4   8   8
#     4  11  25  43  69 110 146 188 247 308 363 449
#     4  11  24  42  70 108 143 188 243 301 371 441
#     4  11  28  45  70 110 144 198 240 312 374 442
#     4  12  28  47  73 106 150 204 251 307 382 457
#     4  11  21  44  73  98 139 185 250 294 367 438
#     4  10  20  46  74 100 126 186 240 306 348 432
#     4  12  25  45  76 100 152 191 246 302 379 452
#     4  11  26  47  72 105 147 186 257 300 376 441
#
# _framework density 23.132974999999998
#
# number of rings (size 3 to 8) (size 9 to 14) (size 15 to 20)
#    0.000    0.800    5.333    1.200    6.533    3.200 
#    1.200    0.000    0.000    0.000    0.000    0.000 
#    0.000    0.000    0.000    0.000    0.000    0.000 
#
# Total GULP energy -167553.060787 kJ/mol
# GULP energy per Si atom -5585.102026 kJ/mol
# Density = 2.308032 g / cm^3
# Si number density = 23.132975 Si / 1000 Ang^3
#
#
#
# Elastic Constant Matrix: (Units=GPa)
#
#
# Indices 1 2 3 4 5 6 
#
# 1 115.9660 -17.6984 27.9749 -0.0001 -6.8020 -0.0001
# 2 -17.6984 30.9933 11.6100 0.0000 -0.1698 0.0000
# 3 27.9749 11.6100 125.7434 -0.0001 -2.7130 -0.0001
# 4 -0.0001 0.0000 -0.0001 27.8752 -0.0001 1.7104
# 5 -6.8020 -0.1698 -2.7130 -0.0001 27.0426 -0.0001
# 6 -0.0001 0.0000 -0.0001 1.7104 -0.0001 22.7828
#
#
#
# Elastic Compliance Matrix: (Units=1/GPa)
#
#
# Indices 1 2 3 4 5 6 
#
# 1 0.010571 0.007159 -0.002961 0.000000 0.002407 0.000000
# 2 0.007159 0.038269 -0.005093 0.000000 0.001530 0.000000
# 3 -0.002961 -0.005093 0.009085 0.000000 0.000135 0.000000
# 4 0.000000 0.000000 0.000000 0.036040 0.000000 -0.002706
# 5 0.002407 0.001530 0.000135 0.000000 0.037607 0.000000
# 6 0.000000 0.000000 0.000000 -0.002706 0.000000 0.044096
#
#
# Mechanical properties :
#
#
# Convention : Reuss Voigt Hill
#
# Bulk Modulus (GPa) = 17.81421 35.16398 26.48910
# Shear Modulus (GPa) = 25.48805 32.26120 28.87462
#
# Velocity S-wave (km/s) = 3.32295 3.73848 3.53682
# Velocity P-wave (km/s) = 4.73710 5.81969 5.30608
#
# Compressibility (1/GPa) = 0.05613495
#
# Stress axis : x y z
#
# Youngs Moduli (GPa) = 94.59623 26.13058 110.07642
#
# Poissons Ratio (x) = -0.18707 0.32593
# Poissons Ratio (y) = -0.67721 0.56063
# Poissons Ratio (z) = 0.28009 0.13309
#
# Static dielectric constant tensor:
#      x y z
#    x 1.829070 0.000000 0.065690 
#    y 0.000000 1.904840 0.000000 
#    z 0.065690 0.000000 1.838780 
# 
# From -- ./inp_files/257901.got.cif
#   From: 2010.05.17/outbox.cif.g08.bks.cpg/sg15_129_cif.got.tgz:257901.got - 2010.06.03 18:47:42.
