data_PCOD9278870
_publ_section_title
;
Structure prediction by ZEFSAII (Michael W. Deem and Ramdas Pophale) SiO2 
 PCOD9278870
Probable space group: C 2/C
;
_chemical_formula_sum "Si O2"
_cell_formula_units_Z 56
_cell_length_a 17.752896
_cell_length_b 24.608133
_cell_length_c 8.922333
_cell_angle_alpha 90.000000
_cell_angle_beta 45.850518
_cell_angle_gamma 90.000000
_cell_volume 2796.812511
_symmetry_space_group_name_H-M "C 2/C"
_symmetry_group_IT_number 15
_symmetry_cell_setting 'monoclinic'
loop_
_space_group_symop_operation_xyz
x,y,z
-x,y,1/2-z
-x,-y,-z
x,-y,1/2+z
1/2+x,1/2+y,z
1/2-x,1/2+y,1/2-z
1/2-x,1/2-y,-z
1/2+x,1/2-y,1/2+z
loop_
_atom_site_type_symbol
_atom_site_label
_atom_site_fract_x
_atom_site_fract_y
_atom_site_fract_z
Si Si1 0.770706 0.580171 0.194402
Si Si2 0.092116 0.958612 0.420566
Si Si3 0.194800 0.690276 0.199208
Si Si4 0.382201 0.771910 0.978857
Si Si5 0.461466 0.367402 0.475860
Si Si6 0.493499 0.747965 0.082279
Si Si7 0.735923 0.491712 0.480196
O O1 0.821409 0.635832 0.183352
O O2 0.646817 0.597910 0.370556
O O3 0.791901 0.531713 0.284328
O O4 0.791650 0.555848 0.999512
O O5 0.138183 0.967398 0.521169
O O6 0.046961 0.900238 0.451585
O O7 0.186807 0.970155 0.175687
O O8 0.000000 0.000000 0.500000
O O9 0.172718 0.683768 0.052211
O O10 0.108776 0.733990 0.370024
O O11 0.307449 0.719044 0.064309
O O12 0.500000 0.763339 0.750000
O O13 0.406697 0.785669 0.117835
O O14 0.500000 0.364186 0.250000
O O15 0.459671 0.310008 0.562265
O O16 0.500000 0.748989 0.250000
#
# Coordination Sequence:
#
# PCOD9278870 Si02
#       7
#     8   8   8   8   8   8   8
#     4  11  22  35  56  83 120 162 193 250 304 355
#     4  11  18  28  47  73 110 160 195 233 280 354
#     4  10  21  39  63  82 120 164 208 249 304 359
#     4   9  19  37  61  88 116 155 208 245 290 379
#     4  12  21  32  54  79 120 162 203 234 293 367
#     4  11  25  39  57  89 122 157 207 260 302 368
#     4  10  21  32  48  79 116 151 207 238 286 370
#
# _framework density 20.022794000000001
#
# number of rings (size 3 to 8) (size 9 to 14) (size 15 to 20)
#    0.000    1.429    5.714    1.714    4.000    0.571 
#    0.000    2.857    0.000    0.000    0.000   13.000 
#    0.000    0.000    0.000    0.000    0.000    0.000 
#
# Total GULP energy -155956.026323 kJ/mol
# GULP energy per Si atom -5569.858083 kJ/mol
# Density = 1.997722 g / cm^3
# Si number density = 20.022794 Si / 1000 Ang^3
#
#
#
# Elastic Constant Matrix: (Units=GPa)
#
#
# Indices 1 2 3 4 5 6 
#
# 1 134.6272 42.4322 37.9067 0.0000 30.9507 0.0000
# 2 42.4322 60.4445 3.1369 0.0000 13.3377 0.0000
# 3 37.9067 3.1369 38.0812 0.0000 22.5717 0.0000
# 4 0.0000 0.0000 0.0000 10.4873 0.0000 14.2725
# 5 30.9507 13.3377 22.5717 0.0000 35.6319 0.0000
# 6 0.0000 0.0000 0.0000 14.2725 0.0000 35.3025
#
#
#
# Elastic Compliance Matrix: (Units=1/GPa)
#
#
# Indices 1 2 3 4 5 6 
#
# 1 0.014051 -0.009045 -0.012832 0.000000 -0.000690 0.000000
# 2 -0.009045 0.024251 0.012377 0.000000 -0.009061 0.000000
# 3 -0.012832 0.012377 0.054686 0.000000 -0.028128 0.000000
# 4 0.000000 0.000000 0.000000 0.212000 0.000000 -0.085710
# 5 -0.000690 -0.009061 -0.028128 0.000000 0.049874 0.000000
# 6 0.000000 0.000000 0.000000 -0.085710 0.000000 0.062979
#
#
# Mechanical properties :
#
#
# Convention : Reuss Voigt Hill
#
# Bulk Modulus (GPa) = 13.51597 44.45605 28.98601
# Shear Modulus (GPa) = 10.83415 26.26281 18.54848
#
# Velocity S-wave (km/s) = 2.32866 3.62559 3.04693
# Velocity P-wave (km/s) = 3.74101 6.30694 5.18520
#
# Compressibility (1/GPa) = 0.07398658
#
# Stress axis : x y z
#
# Youngs Moduli (GPa) = 71.17130 41.23539 18.28625
#
# Poissons Ratio (x) = 0.37299 0.23465
# Poissons Ratio (y) = 0.64377 -0.22633
# Poissons Ratio (z) = 0.91328 -0.51037
#
# Static dielectric constant tensor:
#      x y z
#    x 1.771910 0.000000 0.042610 
#    y 0.000000 1.766260 0.000000 
#    z 0.042610 0.000000 1.766390 
# 
# From -- ./inp_files/51469.got.cif
#   From: 2010.05.17/outbox.cif.g08.bks.cpg/sg15_26_cif.got.tgz:51469.got - 2010.06.03 18:47:42.
