data_PCOD9278208
_publ_section_title
;
Structure prediction by ZEFSAII (Michael W. Deem and Ramdas Pophale) SiO2 
 PCOD9278208
Probable space group: C 2/C
;
_chemical_formula_sum "Si O2"
_cell_formula_units_Z 56
_cell_length_a 9.424810
_cell_length_b 15.008957
_cell_length_c 19.028300
_cell_angle_alpha 90.000000
_cell_angle_beta 127.502641
_cell_angle_gamma 90.000000
_cell_volume 2135.376211
_symmetry_space_group_name_H-M "C 2/C"
_symmetry_group_IT_number 15
_symmetry_cell_setting 'monoclinic'
loop_
_space_group_symop_operation_xyz
x,y,z
-x,y,1/2-z
-x,-y,-z
x,-y,1/2+z
1/2+x,1/2+y,z
1/2-x,1/2+y,1/2-z
1/2-x,1/2-y,-z
1/2+x,1/2-y,1/2+z
loop_
_atom_site_type_symbol
_atom_site_label
_atom_site_fract_x
_atom_site_fract_y
_atom_site_fract_z
Si Si1 0.256982 0.840322 0.906020
Si Si2 0.291098 0.657328 0.708059
Si Si3 0.580973 0.345324 0.003731
Si Si4 0.189809 0.334040 0.933135
Si Si5 0.158826 0.031190 0.652899
Si Si6 0.232001 0.465846 0.062689
Si Si7 0.706696 0.153058 0.242857
O O1 0.366564 0.748703 0.944684
O O2 0.203769 0.848721 0.807985
O O3 0.341310 0.936750 0.946105
O O4 0.132021 0.836649 0.937577
O O5 0.500000 0.657020 0.750000
O O6 0.265213 0.608361 0.773794
O O7 0.205647 0.599460 0.620725
O O8 0.228822 0.757983 0.698197
O O9 0.665241 0.426503 0.075987
O O10 0.371036 0.357629 0.948204
O O11 0.005107 0.326109 0.835423
O O12 0.250000 0.250000 0.000000
O O13 0.159101 0.417300 0.973427
O O14 0.948541 0.023879 0.612723
O O15 0.258503 0.941035 0.708320
#
# Coordination Sequence:
#
# PCOD9278208 Si02
#       7
#     8   8   8   8   8   8   8
#     4  11  22  43  76 113 143 201 259 315 385 464
#     4  10  20  42  68 105 145 198 246 309 376 459
#     4  10  23  46  75 108 161 196 254 318 402 453
#     4  11  22  45  74 111 149 202 254 320 370 467
#     4  10  21  43  75 106 149 206 250 315 383 468
#     4  10  23  44  75 101 152 205 255 305 396 458
#     4  12  23  43  80 115 149 192 274 319 385 451
#
# _framework density 26.224888
#
# number of rings (size 3 to 8) (size 9 to 14) (size 15 to 20)
#    0.000    1.429    4.286    1.714    0.000    2.857 
#   10.286    0.000    0.000    5.143    0.000    0.000 
#    0.000    0.000    0.000    0.000    0.000    0.000 
#
# Total GULP energy -156739.044597 kJ/mol
# GULP energy per Si atom -5597.823021 kJ/mol
# Density = 2.616520 g / cm^3
# Si number density = 26.224888 Si / 1000 Ang^3
#
#
#
# Elastic Constant Matrix: (Units=GPa)
#
#
# Indices 1 2 3 4 5 6 
#
# 1 135.6446 41.8259 58.3081 0.0000 -10.8657 0.0000
# 2 41.8259 232.7655 73.1609 0.0000 8.5573 0.0000
# 3 58.3081 73.1609 124.5450 0.0000 -5.4072 0.0000
# 4 0.0000 0.0000 0.0000 59.3932 0.0000 -11.7572
# 5 -10.8657 8.5573 -5.4072 0.0000 36.6015 0.0000
# 6 0.0000 0.0000 0.0000 -11.7572 0.0000 27.5988
#
#
#
# Elastic Compliance Matrix: (Units=1/GPa)
#
#
# Indices 1 2 3 4 5 6 
#
# 1 0.009446 -0.000521 -0.004015 0.000000 0.002333 0.000000
# 2 -0.000521 0.005405 -0.003012 0.000000 -0.001863 0.000000
# 3 -0.004015 -0.003012 0.011732 0.000000 0.001246 0.000000
# 4 0.000000 0.000000 0.000000 0.018388 0.000000 0.007833
# 5 0.002333 -0.001863 0.001246 0.000000 0.028633 0.000000
# 6 0.000000 0.000000 0.000000 0.007833 0.000000 0.039570
#
#
# Mechanical properties :
#
#
# Convention : Reuss Voigt Hill
#
# Bulk Modulus (GPa) = 87.05421 93.28276 90.16849
# Shear Modulus (GPa) = 37.85050 46.02938 41.93994
#
# Velocity S-wave (km/s) = 3.80321 4.19403 4.00339
# Velocity P-wave (km/s) = 7.24936 7.68770 7.47174
#
# Compressibility (1/GPa) = 0.01148710
#
# Stress axis : x y z
#
# Youngs Moduli (GPa) = 105.87027 185.01348 85.23594
#
# Poissons Ratio (x) = 0.09643 0.34219
# Poissons Ratio (y) = 0.05518 0.25673
# Poissons Ratio (z) = 0.42503 0.55725
#
# Static dielectric constant tensor:
#      x y z
#    x 2.111360 0.000000 -0.009450 
#    y 0.000000 2.015950 0.000000 
#    z -0.009450 0.000000 2.130770 
# 
# From -- ./inp_files/197960.got.cif
#   From: 2010.05.17/outbox.cif.g08.bks.cpg/sg15_99_cif.got.tgz:197960.got - 2010.06.03 18:47:42.
