data_PCOD9278770
_publ_section_title
;
Structure prediction by ZEFSAII (Michael W. Deem and Ramdas Pophale) SiO2 
 PCOD9278770
Probable space group: C 2/C
;
_chemical_formula_sum "Si O2"
_cell_formula_units_Z 44
_cell_length_a 6.580519
_cell_length_b 15.389106
_cell_length_c 24.021464
_cell_angle_alpha 90.000000
_cell_angle_beta 124.975951
_cell_angle_gamma 90.000000
_cell_volume 1993.265329
_symmetry_space_group_name_H-M "C 2/C"
_symmetry_group_IT_number 15
_symmetry_cell_setting 'monoclinic'
loop_
_space_group_symop_operation_xyz
x,y,z
-x,y,1/2-z
-x,-y,-z
x,-y,1/2+z
1/2+x,1/2+y,z
1/2-x,1/2+y,1/2-z
1/2-x,1/2-y,-z
1/2+x,1/2-y,1/2+z
loop_
_atom_site_type_symbol
_atom_site_label
_atom_site_fract_x
_atom_site_fract_y
_atom_site_fract_z
Si Si1 0.281693 0.887361 0.386363
Si Si2 0.241734 0.584919 0.825444
Si Si3 0.406870 0.754447 0.127001
Si Si4 0.081676 0.334887 0.973920
Si Si5 0.492144 0.950517 0.641989
Si Si6 0.000000 0.857952 0.750000
O O1 0.381386 0.795872 0.378219
O O2 0.335441 0.891158 0.460451
O O3 0.991964 0.902326 0.330956
O O4 0.423298 0.964348 0.378290
O O5 0.237881 0.662007 0.870274
O O6 0.000000 0.597896 0.750000
O O7 0.209154 0.489234 0.846948
O O8 0.504215 0.701015 0.195268
O O9 0.204919 0.694664 0.064827
O O10 0.105533 0.382772 0.918618
O O11 0.250000 0.250000 0.000000
O O12 0.743921 0.912224 0.708248
#
# Coordination Sequence:
#
# PCOD9278770 Si02
#       6
#     8   8   8   8   8   4
#     4  11  23  43  67  94 130 179 213 271 337 400
#     4  11  22  42  64  97 129 171 218 271 336 401
#     4  10  22  41  68  95 131 170 221 276 330 396
#     4  11  22  44  65  96 134 170 224 274 327 394
#     4  10  24  42  65  94 131 172 216 275 329 402
#     4  10  20  46  64  98 136 166 228 282 332 400
#
# _framework density 22.074331000000001
#
# number of rings (size 3 to 8) (size 9 to 14) (size 15 to 20)
#    0.000    1.455    2.727    2.182    0.000    2.909 
#   13.091    1.818    0.000    0.000    0.000    0.000 
#    0.000    0.000    0.000    0.000    0.000    0.000 
#
# Total GULP energy -123051.597384 kJ/mol
# GULP energy per Si atom -5593.254427 kJ/mol
# Density = 2.202409 g / cm^3
# Si number density = 22.074331 Si / 1000 Ang^3
#
#
#
# Elastic Constant Matrix: (Units=GPa)
#
#
# Indices 1 2 3 4 5 6 
#
# 1 59.5490 8.6577 14.1078 0.0001 12.5154 0.0001
# 2 8.6577 72.6770 25.6046 0.0000 6.6823 0.0000
# 3 14.1078 25.6046 107.6477 0.0006 11.0879 0.0005
# 4 0.0001 0.0000 0.0006 567.0961 0.0003 424.8898
# 5 12.5154 6.6823 11.0879 0.0003 17.2695 0.0002
# 6 0.0001 0.0000 0.0005 424.8898 0.0002 403.8584
#
#
#
# Elastic Compliance Matrix: (Units=1/GPa)
#
#
# Indices 1 2 3 4 5 6 
#
# 1 0.019994 -0.000771 -0.001044 0.000000 -0.013521 0.000000
# 2 -0.000771 0.015280 -0.003193 0.000000 -0.003304 0.000000
# 3 -0.001044 -0.003193 0.010687 0.000000 -0.004870 0.000000
# 4 0.000000 0.000000 0.000000 0.008328 0.000000 -0.008761
# 5 -0.013521 -0.003304 -0.004870 0.000000 0.072109 0.000000
# 6 0.000000 0.000000 0.000000 -0.008761 0.000000 0.011694
#
#
# Mechanical properties :
#
#
# Convention : Reuss Voigt Hill
#
# Bulk Modulus (GPa) = 27.81994 37.40153 32.61073
# Shear Modulus (GPa) = 31.23227 210.41172 120.82199
#
# Velocity S-wave (km/s) = 3.76555 9.77377 7.40628
# Velocity P-wave (km/s) = 5.61570 12.01453 9.37777
#
# Compressibility (1/GPa) = 0.03594544
#
# Stress axis : x y z
#
# Youngs Moduli (GPa) = 50.01471 65.44479 93.56725
#
# Poissons Ratio (x) = 0.05044 0.09771
# Poissons Ratio (y) = 0.03855 0.29877
# Poissons Ratio (z) = 0.05223 0.20897
#
# Static dielectric constant tensor:
#      x y z
#    x 1.841110 0.000000 -0.012810 
#    y 0.000000 1.815410 0.000000 
#    z -0.012810 0.000000 1.794940 
# 
# From -- ./inp_files/227067.got.cif
#   From: 2010.05.17/outbox.cif.g08.bks.cpg/sg15_114_cif.got.tgz:227067.got - 2010.06.03 18:47:42.
