data_PCOD9278231
_publ_section_title
;
Structure prediction by ZEFSAII (Michael W. Deem and Ramdas Pophale) SiO2 
 PCOD9278231
Probable space group: C 2/C
;
_chemical_formula_sum "Si O2"
_cell_formula_units_Z 60
_cell_length_a 21.517745
_cell_length_b 11.842919
_cell_length_c 21.448629
_cell_angle_alpha 90.000000
_cell_angle_beta 32.529837
_cell_angle_gamma 90.000000
_cell_volume 2939.181286
_symmetry_space_group_name_H-M "C 2/C"
_symmetry_group_IT_number 15
_symmetry_cell_setting 'monoclinic'
loop_
_space_group_symop_operation_xyz
x,y,z
-x,y,1/2-z
-x,-y,-z
x,-y,1/2+z
1/2+x,1/2+y,z
1/2-x,1/2+y,1/2-z
1/2-x,1/2-y,-z
1/2+x,1/2-y,1/2+z
loop_
_atom_site_type_symbol
_atom_site_label
_atom_site_fract_x
_atom_site_fract_y
_atom_site_fract_z
Si Si1 0.771446 0.137891 0.100476
Si Si2 0.028659 0.923337 0.361789
Si Si3 0.225208 0.132001 0.052134
Si Si4 0.624512 0.873707 0.466629
Si Si5 0.276039 0.590260 0.304143
Si Si6 0.500000 0.509634 0.750000
Si Si7 0.622389 0.076692 0.112561
Si Si8 0.877067 0.683639 0.168915
O O1 0.713397 0.138895 0.081420
O O2 0.671594 0.104854 0.233584
O O3 0.805174 0.258826 0.100980
O O4 0.893226 0.072790 0.994095
O O5 0.037737 0.918362 0.278215
O O6 0.084559 0.809670 0.342547
O O7 0.101226 0.034713 0.318618
O O8 0.218728 0.144955 0.132177
O O9 0.104661 0.069427 0.138854
O O10 0.250000 0.250000 0.000000
O O11 0.324403 0.046255 0.946000
O O12 0.609558 0.872823 0.554559
O O13 0.498641 0.867815 0.543438
O O14 0.695122 0.980362 0.383272
O O15 0.218559 0.673213 0.303567
O O16 0.500000 0.074376 0.250000
#
# Coordination Sequence:
#
# PCOD9278231 Si02
#       8
#     8   8   8   8   8   4   8   8
#     4  11  21  37  60  96 126 159 213 259 317 372
#     4  10  22  40  65  93 126 170 211 259 329 377
#     4  10  23  42  65  90 121 162 216 258 324 372
#     4  10  21  38  61  87 127 161 203 257 316 377
#     4  10  22  43  62  87 124 169 208 259 321 377
#     4  10  20  42  68  92 134 164 202 280 326 374
#     4  11  21  37  61  95 125 157 203 268 314 371
#     4  11  22  38  61  90 127 169 208 255 311 391
#
# _framework density 20.413848999999999
#
# number of rings (size 3 to 8) (size 9 to 14) (size 15 to 20)
#    0.000    1.600    4.000    0.800    0.933    2.667 
#    2.400    5.333    0.000    0.000    0.000    0.000 
#    0.000    0.000    0.000    0.000    0.000    0.000 
#
# Total GULP energy -167400.627487 kJ/mol
# GULP energy per Si atom -5580.020916 kJ/mol
# Density = 2.036739 g / cm^3
# Si number density = 20.413849 Si / 1000 Ang^3
#
#
#
# Elastic Constant Matrix: (Units=GPa)
#
#
# Indices 1 2 3 4 5 6 
#
# 1 94.7960 35.3851 7.8987 0.0000 -18.3448 0.0000
# 2 35.3851 59.2355 18.2517 0.0000 -3.3954 0.0000
# 3 7.8987 18.2517 98.0414 0.0000 -22.3980 0.0000
# 4 0.0000 0.0000 0.0000 18.6130 0.0000 -0.2165
# 5 -18.3448 -3.3954 -22.3980 0.0000 28.8345 0.0000
# 6 0.0000 0.0000 0.0000 -0.2165 0.0000 25.0848
#
#
#
# Elastic Compliance Matrix: (Units=1/GPa)
#
#
# Indices 1 2 3 4 5 6 
#
# 1 0.016299 -0.010062 0.003232 0.000000 0.011695 0.000000
# 2 -0.010062 0.024128 -0.005464 0.000000 -0.007804 0.000000
# 3 0.003232 -0.005464 0.013713 0.000000 0.012064 0.000000
# 4 0.000000 0.000000 0.000000 0.053731 0.000000 0.000464
# 5 0.011695 -0.007804 0.012064 0.000000 0.050573 0.000000
# 6 0.000000 0.000000 0.000000 0.000464 0.000000 0.039869
#
#
# Mechanical properties :
#
#
# Convention : Reuss Voigt Hill
#
# Bulk Modulus (GPa) = 33.83885 41.68263 37.76074
# Shear Modulus (GPa) = 21.48207 27.20894 24.34551
#
# Velocity S-wave (km/s) = 3.24748 3.65481 3.45715
# Velocity P-wave (km/s) = 5.53840 6.18654 5.87142
#
# Compressibility (1/GPa) = 0.02955183
#
# Stress axis : x y z
#
# Youngs Moduli (GPa) = 61.35485 41.44479 72.92451
#
# Poissons Ratio (x) = 0.41700 -0.23567
# Poissons Ratio (y) = 0.61733 0.39847
# Poissons Ratio (z) = -0.19828 0.22646
#
# Static dielectric constant tensor:
#      x y z
#    x 1.748860 0.000000 -0.003120 
#    y 0.000000 1.715240 0.000000 
#    z -0.003120 0.000000 1.768330 
# 
# From -- ./inp_files/280088.got.cif
#   From: 2010.05.17/outbox.cif.g08.bks.cpg/sg15_141_cif.got.tgz:280088.got - 2010.06.03 18:47:42.
