data_PCOD9278309
_publ_section_title
;
Structure prediction by ZEFSAII (Michael W. Deem and Ramdas Pophale) SiO2 
 PCOD9278309
Probable space group: C 2/C
;
_chemical_formula_sum "Si O2"
_cell_formula_units_Z 44
_cell_length_a 20.311320
_cell_length_b 11.244488
_cell_length_c 28.815250
_cell_angle_alpha 90.000000
_cell_angle_beta 19.475523
_cell_angle_gamma 90.000000
_cell_volume 2194.174678
_symmetry_space_group_name_H-M "C 2/C"
_symmetry_group_IT_number 15
_symmetry_cell_setting 'monoclinic'
loop_
_space_group_symop_operation_xyz
x,y,z
-x,y,1/2-z
-x,-y,-z
x,-y,1/2+z
1/2+x,1/2+y,z
1/2-x,1/2+y,1/2-z
1/2-x,1/2-y,-z
1/2+x,1/2-y,1/2+z
loop_
_atom_site_type_symbol
_atom_site_label
_atom_site_fract_x
_atom_site_fract_y
_atom_site_fract_z
Si Si1 0.500000 0.001317 0.250000
Si Si2 0.520276 0.705130 0.614624
Si Si3 0.691544 0.413843 0.089107
Si Si4 0.390349 0.139745 0.915991
Si Si5 0.773187 0.124184 0.138897
Si Si6 0.808074 0.877996 0.168541
O O1 0.681690 0.076965 0.150909
O O2 0.569903 0.923558 0.159962
O O3 0.634705 0.620641 0.573960
O O4 0.660623 0.804474 0.496716
O O5 0.378113 0.781385 0.741906
O O6 0.381223 0.634096 0.672123
O O7 0.500000 0.417541 0.250000
O O8 0.800017 0.540914 0.011255
O O9 0.601466 0.183409 0.795305
O O10 0.250000 0.250000 0.000000
O O11 0.776561 0.012183 0.171667
O O12 0.997798 0.167732 0.987346
#
# Coordination Sequence:
#
# PCOD9278309 Si02
#       6
#     4   8   8   8   8   8
#     4  10  20  42  70  90 122 176 224 262 320 382
#     4  11  22  40  68  96 128 169 211 275 328 388
#     4  11  24  42  64  98 130 167 219 270 329 389
#     4  11  25  44  64  93 132 176 217 268 325 392
#     4  10  21  40  65  95 126 162 222 267 318 387
#     4  10  22  38  61  94 125 166 211 263 316 387
#
# _framework density 20.053097000000001
#
# number of rings (size 3 to 8) (size 9 to 14) (size 15 to 20)
#    0.000    1.455    3.636    2.182    5.091    5.818 
#    0.000    0.909    0.000    0.000    0.000    0.000 
#    0.000    0.000    0.000    0.000    0.000    0.000 
#
# Total GULP energy -122780.226931 kJ/mol
# GULP energy per Si atom -5580.919406 kJ/mol
# Density = 2.000746 g / cm^3
# Si number density = 20.053097 Si / 1000 Ang^3
#
#
#
# Elastic Constant Matrix: (Units=GPa)
#
#
# Indices 1 2 3 4 5 6 
#
# 1 108.5150 30.1798 24.3875 -0.0002 -24.6369 0.0038
# 2 30.1798 57.8273 40.2958 0.0335 -14.6122 0.0096
# 3 24.3875 40.2958 132.5518 0.0445 -20.5987 0.0020
# 4 -0.0002 0.0335 0.0445 16.9980 -0.0152 3.3225
# 5 -24.6369 -14.6122 -20.5987 -0.0152 45.7292 0.0142
# 6 0.0038 0.0096 0.0020 3.3225 0.0142 22.4611
#
#
#
# Elastic Compliance Matrix: (Units=1/GPa)
#
#
# Indices 1 2 3 4 5 6 
#
# 1 0.011645 -0.004949 0.000098 0.000015 0.004737 -0.000005
# 2 -0.004949 0.024863 -0.006266 -0.000029 0.002456 -0.000006
# 3 0.000098 -0.006266 0.009815 -0.000011 0.002472 0.000002
# 4 0.000015 -0.000029 -0.000011 0.060582 0.000016 -0.008961
# 5 0.004737 0.002456 0.002472 0.000016 0.026318 -0.000021
# 6 -0.000005 -0.000006 0.000002 -0.008961 -0.000021 0.045847
#
#
# Mechanical properties :
#
#
# Convention : Reuss Voigt Hill
#
# Bulk Modulus (GPa) = 41.51283 54.29114 47.90199
# Shear Modulus (GPa) = 23.88530 30.63972 27.26251
#
# Velocity S-wave (km/s) = 3.45498 3.91311 3.69116
# Velocity P-wave (km/s) = 6.05494 6.89558 6.48889
#
# Compressibility (1/GPa) = 0.02408894
#
# Stress axis : x y z
#
# Youngs Moduli (GPa) = 85.87334 40.22096 101.88278
#
# Poissons Ratio (x) = 0.19905 -0.00999
# Poissons Ratio (y) = 0.42498 0.63841
# Poissons Ratio (z) = -0.00842 0.25203
#
# Static dielectric constant tensor:
#      x y z
#    x 1.710510 0.000000 0.019200 
#    y 0.000000 1.687300 0.000010 
#    z 0.019200 0.000010 1.755390 
# 
# From -- ./inp_files/317705.got.cif
#   From: 2010.05.17/outbox.cif.g08.bks.cpg/sg15_159_cif.got.tgz:317705.got - 2010.06.03 18:47:42.
