data_PCOD9278166
_publ_section_title
;
Structure prediction by ZEFSAII (Michael W. Deem and Ramdas Pophale) SiO2 
 PCOD9278166
Probable space group: C 2/C
;
_chemical_formula_sum "Si O2"
_cell_formula_units_Z 56
_cell_length_a 9.285899
_cell_length_b 24.792226
_cell_length_c 11.799086
_cell_angle_alpha 90.000000
_cell_angle_beta 117.039747
_cell_angle_gamma 90.000000
_cell_volume 2419.441293
_symmetry_space_group_name_H-M "C 2/C"
_symmetry_group_IT_number 15
_symmetry_cell_setting 'monoclinic'
loop_
_space_group_symop_operation_xyz
x,y,z
-x,y,1/2-z
-x,-y,-z
x,-y,1/2+z
1/2+x,1/2+y,z
1/2-x,1/2+y,1/2-z
1/2-x,1/2-y,-z
1/2+x,1/2-y,1/2+z
loop_
_atom_site_type_symbol
_atom_site_label
_atom_site_fract_x
_atom_site_fract_y
_atom_site_fract_z
Si Si1 0.166085 0.077250 0.461089
Si Si2 0.790671 0.185926 0.412898
Si Si3 0.977360 0.292442 0.518546
Si Si4 0.329427 0.315712 0.680714
Si Si5 0.061086 0.090394 0.905583
Si Si6 0.814523 0.482287 0.410836
Si Si7 0.976173 0.392806 0.358253
O O1 0.138630 0.135471 0.394730
O O2 0.350552 0.079529 0.567574
O O3 0.053854 0.069994 0.531796
O O4 0.187411 0.031906 0.369257
O O5 0.882436 0.242569 0.431964
O O6 0.613192 0.198369 0.395390
O O7 0.787011 0.159315 0.288501
O O8 0.889985 0.150819 0.539804
O O9 0.951018 0.348502 0.444070
O O10 0.169259 0.283030 0.591477
O O11 0.500000 0.285642 0.750000
O O12 0.227373 0.056089 0.971404
O O13 0.000000 0.087765 0.750000
O O14 0.842961 0.440042 0.318020
O O15 0.000000 0.500000 0.500000
O O16 0.000000 0.362158 0.250000
#
# Coordination Sequence:
#
# PCOD9278166 Si02
#       7
#     8   8   8   8   8   8   8
#     4  10  23  42  66 101 139 178 230 285 342 421
#     4  11  24  45  71 102 138 186 232 288 355 415
#     4  10  24  44  70 100 138 185 235 289 347 422
#     4  11  23  45  68 101 141 177 234 284 347 421
#     4  12  24  43  70 103 141 180 233 289 345 417
#     4  10  22  44  69  95 137 183 230 282 350 408
#     4  10  20  42  67 103 140 178 230 284 348 417
#
# _framework density 23.145838999999999
#
# number of rings (size 3 to 8) (size 9 to 14) (size 15 to 20)
#    0.000    1.429    2.857    1.714    0.000    4.000 
#    7.714    0.000    0.000    0.000    0.000    0.000 
#    0.000    0.000    0.000    0.000    0.000    0.000 
#
# Total GULP energy -155883.851758 kJ/mol
# GULP energy per Si atom -5567.280420 kJ/mol
# Density = 2.309316 g / cm^3
# Si number density = 23.145839 Si / 1000 Ang^3
#
#
#
# Elastic Constant Matrix: (Units=GPa)
#
#
# Indices 1 2 3 4 5 6 
#
# 1 180.6210 57.5293 52.4017 0.0000 -20.5849 0.0000
# 2 57.5293 53.0360 3.6192 0.0000 -4.6508 0.0000
# 3 52.4017 3.6192 69.3905 0.0000 -18.7881 0.0000
# 4 0.0000 0.0000 0.0000 -31.2156 0.0000 -1.7229
# 5 -20.5849 -4.6508 -18.7881 0.0000 32.0926 0.0000
# 6 0.0000 0.0000 0.0000 -1.7229 0.0000 34.9971
#
#
#
# Elastic Compliance Matrix: (Units=1/GPa)
#
#
# Indices 1 2 3 4 5 6 
#
# 1 0.011907 -0.012266 -0.008040 0.000000 0.001153 0.000000
# 2 -0.012266 0.031739 0.007989 0.000000 0.001409 0.000000
# 3 -0.008040 0.007989 0.022559 0.000000 0.009208 0.000000
# 4 0.000000 0.000000 0.000000 -0.031948 0.000000 -0.001573
# 5 0.001153 0.001409 0.009208 0.000000 0.037494 0.000000
# 6 0.000000 0.000000 0.000000 -0.001573 0.000000 0.028496
#
#
# Mechanical properties :
#
#
# Convention : Reuss Voigt Hill
#
# Bulk Modulus (GPa) = 24.05514 58.90534 41.48024
# Shear Modulus (GPa) = 36.03876 19.80798 27.92337
#
# Velocity S-wave (km/s) = 3.95020 2.92856 3.47711
# Velocity P-wave (km/s) = 5.58757 6.07785 5.83785
#
# Compressibility (1/GPa) = 0.04157116
#
# Stress axis : x y z
#
# Youngs Moduli (GPa) = 83.98098 31.50679 44.32779
#
# Poissons Ratio (x) = 0.38648 0.35640
# Poissons Ratio (y) = 1.03015 -0.35415
# Poissons Ratio (z) = 0.67522 -0.25172
#
# Static dielectric constant tensor:
#      x y z
#    x 1.896760 0.000000 -0.028400 
#    y 0.000000 1.925220 0.000000 
#    z -0.028400 0.000000 2.067300 
# 
# From -- ./inp_files/81402.got.cif
#   From: 2010.05.17/outbox.cif.g08.bks.cpg/sg15_41_cif.got.tgz:81402.got - 2010.06.03 18:47:42.
