data_PCOD9278032
_publ_section_title
;
Structure prediction by ZEFSAII (Michael W. Deem and Ramdas Pophale) SiO2 
 PCOD9278032
Probable space group: C 2/C
;
_chemical_formula_sum "Si O2"
_cell_formula_units_Z 44
_cell_length_a 12.665807
_cell_length_b 7.913063
_cell_length_c 17.866501
_cell_angle_alpha 90.000000
_cell_angle_beta 69.574610
_cell_angle_gamma 90.000000
_cell_volume 1678.091541
_symmetry_space_group_name_H-M "C 2/C"
_symmetry_group_IT_number 15
_symmetry_cell_setting 'monoclinic'
loop_
_space_group_symop_operation_xyz
x,y,z
-x,y,1/2-z
-x,-y,-z
x,-y,1/2+z
1/2+x,1/2+y,z
1/2-x,1/2+y,1/2-z
1/2-x,1/2-y,-z
1/2+x,1/2-y,1/2+z
loop_
_atom_site_type_symbol
_atom_site_label
_atom_site_fract_x
_atom_site_fract_y
_atom_site_fract_z
Si Si1 0.405482 0.127374 0.949024
Si Si2 0.000000 0.308711 0.750000
Si Si3 0.617114 0.729556 0.582141
Si Si4 0.743391 0.679381 0.128971
Si Si5 0.738263 0.985842 0.726581
Si Si6 0.859626 0.237530 0.079375
O O1 0.359488 0.261949 0.899366
O O2 0.538459 0.144132 0.923962
O O3 0.383627 0.934793 0.928516
O O4 0.343853 0.163840 0.043425
O O5 0.969582 0.198709 0.830192
O O6 0.889623 0.420447 0.757761
O O7 0.742852 0.687171 0.576649
O O8 0.596075 0.644755 0.507406
O O9 0.754951 0.833431 0.184756
O O10 0.263079 0.529862 0.308241
O O11 0.823707 0.871455 0.658125
#
# Coordination Sequence:
#
# PCOD9278032 Si02
#       6
#     8   4   8   8   8   8
#     4  11  23  44  69 101 143 191 232 303 367 440
#     4  10  20  42  64  96 138 176 240 278 352 424
#     4  10  21  40  69 107 137 190 240 299 355 447
#     4  11  26  45  66 104 142 183 243 293 369 434
#     4  11  25  44  69  99 140 185 236 302 355 445
#     4  10  22  39  70 101 138 185 240 292 362 430
#
# _framework density 26.220262999999999
#
# number of rings (size 3 to 8) (size 9 to 14) (size 15 to 20)
#    0.000    1.455    3.636    1.636    5.091    1.455 
#    0.000    1.818    0.000    0.000    0.000    0.000 
#    0.000    0.000    0.000    0.000    0.000    0.000 
#
# Total GULP energy -123216.718676 kJ/mol
# GULP energy per Si atom -5600.759940 kJ/mol
# Density = 2.616058 g / cm^3
# Si number density = 26.220263 Si / 1000 Ang^3
#
#
#
# Elastic Constant Matrix: (Units=GPa)
#
#
# Indices 1 2 3 4 5 6 
#
# 1 152.6696 65.9034 68.4205 0.0000 -0.4885 0.0000
# 2 65.9034 52.3887 54.4959 0.0000 10.1455 0.0000
# 3 68.4205 54.4959 263.6129 0.0000 32.3136 0.0000
# 4 0.0000 0.0000 0.0000 45.6987 0.0000 13.9685
# 5 -0.4885 10.1455 32.3136 0.0000 53.4985 0.0000
# 6 0.0000 0.0000 0.0000 13.9685 0.0000 35.8320
#
#
#
# Elastic Compliance Matrix: (Units=1/GPa)
#
#
# Indices 1 2 3 4 5 6 
#
# 1 0.015104 -0.019353 -0.000417 0.000000 0.004060 0.000000
# 2 -0.019353 0.049258 -0.004313 0.000000 -0.006913 0.000000
# 3 -0.000417 -0.004313 0.005069 0.000000 -0.002248 0.000000
# 4 0.000000 0.000000 0.000000 0.024843 0.000000 -0.009684
# 5 0.004060 -0.006913 -0.002248 0.000000 0.021398 0.000000
# 6 0.000000 0.000000 0.000000 -0.009684 0.000000 0.031683
#
#
# Mechanical properties :
#
#
# Convention : Reuss Voigt Hill
#
# Bulk Modulus (GPa) = 47.02353 94.03452 70.52902
# Shear Modulus (GPa) = 24.67807 45.66260 35.17033
#
# Velocity S-wave (km/s) = 3.07120 4.17766 3.66641
# Velocity P-wave (km/s) = 5.52714 7.69491 6.69929
#
# Compressibility (1/GPa) = 0.02126595
#
# Stress axis : x y z
#
# Youngs Moduli (GPa) = 66.20678 20.30113 197.28744
#
# Poissons Ratio (x) = 0.39289 0.08231
# Poissons Ratio (y) = 1.28129 0.85081
# Poissons Ratio (z) = 0.02762 0.08755
#
# Static dielectric constant tensor:
#      x y z
#    x 2.012860 0.000000 0.022390 
#    y 0.000000 2.188960 0.000000 
#    z 0.022390 0.000000 2.068100 
# 
# From -- ./inp_files/197139.got.cif
#   From: 2010.05.17/outbox.cif.g08.bks.cpg/sg15_99_cif.got.tgz:197139.got - 2010.06.03 18:47:42.
