data_PCOD9278234
_publ_section_title
;
Structure prediction by ZEFSAII (Michael W. Deem and Ramdas Pophale) SiO2 
 PCOD9278234
Probable space group: C 2/C
;
_chemical_formula_sum "Si O2"
_cell_formula_units_Z 44
_cell_length_a 25.123149
_cell_length_b 6.663852
_cell_length_c 14.234765
_cell_angle_alpha 90.000000
_cell_angle_beta 57.827909
_cell_angle_gamma 90.000000
_cell_volume 2017.215881
_symmetry_space_group_name_H-M "C 2/C"
_symmetry_group_IT_number 15
_symmetry_cell_setting 'monoclinic'
loop_
_space_group_symop_operation_xyz
x,y,z
-x,y,1/2-z
-x,-y,-z
x,-y,1/2+z
1/2+x,1/2+y,z
1/2-x,1/2+y,1/2-z
1/2-x,1/2-y,-z
1/2+x,1/2-y,1/2+z
loop_
_atom_site_type_symbol
_atom_site_label
_atom_site_fract_x
_atom_site_fract_y
_atom_site_fract_z
Si Si1 0.500000 0.648232 0.750000
Si Si2 0.708939 0.666439 0.430866
Si Si3 0.013058 0.711801 0.443073
Si Si4 0.297685 0.060309 0.955908
Si Si5 0.878713 0.909429 0.854354
Si Si6 0.891742 0.967739 0.621449
O O1 0.484306 0.776846 0.672778
O O2 0.444034 0.497143 0.828338
O O3 0.777865 0.570444 0.382784
O O4 0.670413 0.563261 0.552672
O O5 0.670323 0.590736 0.377920
O O6 0.707667 0.903662 0.453026
O O7 0.951532 0.837608 0.532024
O O8 0.000000 0.500000 0.500000
O O9 0.078813 0.809601 0.416108
O O10 0.363169 0.179261 0.893766
O O11 0.250000 0.250000 0.000000
O O12 0.878374 0.928374 0.742872
#
# Coordination Sequence:
#
# PCOD9278234 Si02
#       6
#     4   8   8   8   8   8
#     4  10  20  42  68  92 136 170 208 274 310 400
#     4  10  20  43  64  91 131 160 215 270 317 385
#     4  10  22  41  61  97 129 166 216 255 321 384
#     4   9  21  41  65  92 120 168 213 262 324 385
#     4  10  21  40  64  94 124 170 213 257 330 378
#     4  10  22  41  61  96 128 162 211 271 307 389
#
# _framework density 21.812241
#
# number of rings (size 3 to 8) (size 9 to 14) (size 15 to 20)
#    0.000    2.182    1.818    0.000    0.000    5.818 
#   13.091    0.909    0.000    0.000    0.000    0.000 
#    0.000    0.000    0.000    0.000    0.000    0.000 
#
# Total GULP energy -122659.100308 kJ/mol
# GULP energy per Si atom -5575.413650 kJ/mol
# Density = 2.176260 g / cm^3
# Si number density = 21.812241 Si / 1000 Ang^3
#
#
#
# Elastic Constant Matrix: (Units=GPa)
#
#
# Indices 1 2 3 4 5 6 
#
# 1 82.5157 40.2528 -11.2593 0.0000 19.8916 0.0000
# 2 40.2528 153.7799 15.3799 0.0001 9.1040 0.0001
# 3 -11.2593 15.3799 48.7012 -0.0001 16.3907 0.0000
# 4 0.0000 0.0001 -0.0001 20.4401 0.0000 -5.3053
# 5 19.8916 9.1040 16.3907 0.0000 31.7223 0.0000
# 6 0.0000 0.0001 0.0000 -5.3053 0.0000 23.1876
#
#
#
# Elastic Compliance Matrix: (Units=1/GPa)
#
#
# Indices 1 2 3 4 5 6 
#
# 1 0.021014 -0.005703 0.012763 0.000000 -0.018135 0.000000
# 2 -0.005703 0.008289 -0.005253 0.000000 0.003911 0.000000
# 3 0.012763 -0.005253 0.033082 0.000000 -0.023588 0.000000
# 4 0.000000 0.000000 0.000000 0.052012 0.000000 0.011900
# 5 -0.018135 0.003911 -0.023588 0.000000 0.053960 0.000000
# 6 0.000000 0.000000 0.000000 0.011900 0.000000 0.045849
#
#
# Mechanical properties :
#
#
# Convention : Reuss Voigt Hill
#
# Bulk Modulus (GPa) = 15.15188 41.52708 28.33948
# Shear Modulus (GPa) = 21.49671 31.11157 26.30414
#
# Velocity S-wave (km/s) = 3.14273 3.78078 3.47642
# Velocity P-wave (km/s) = 4.48671 6.17567 5.39766
#
# Compressibility (1/GPa) = 0.06599839
#
# Stress axis : x y z
#
# Youngs Moduli (GPa) = 47.58681 120.63461 30.22820
#
# Poissons Ratio (x) = 0.68803 -0.38580
# Poissons Ratio (y) = 0.27141 0.15878
# Poissons Ratio (z) = -0.60734 0.63367
#
# Static dielectric constant tensor:
#      x y z
#    x 2.077320 0.000000 -0.144610 
#    y 0.000000 1.816650 0.000000 
#    z -0.144610 0.000000 1.875660 
# 
# From -- ./inp_files/175620.got.cif
#   From: 2010.05.17/outbox.cif.g08.bks.cpg/sg15_88_cif.got.tgz:175620.got - 2010.06.03 18:47:42.
