data_PCOD9278989
_publ_section_title
;
Structure prediction by ZEFSAII (Michael W. Deem and Ramdas Pophale) SiO2 
 PCOD9278989
Probable space group: C 2/C
;
_chemical_formula_sum "Si O2"
_cell_formula_units_Z 56
_cell_length_a 14.348913
_cell_length_b 16.266735
_cell_length_c 13.615669
_cell_angle_alpha 90.000000
_cell_angle_beta 54.682202
_cell_angle_gamma 90.000000
_cell_volume 2593.141466
_symmetry_space_group_name_H-M "C 2/C"
_symmetry_group_IT_number 15
_symmetry_cell_setting 'monoclinic'
loop_
_space_group_symop_operation_xyz
x,y,z
-x,y,1/2-z
-x,-y,-z
x,-y,1/2+z
1/2+x,1/2+y,z
1/2-x,1/2+y,1/2-z
1/2-x,1/2-y,-z
1/2+x,1/2-y,1/2+z
loop_
_atom_site_type_symbol
_atom_site_label
_atom_site_fract_x
_atom_site_fract_y
_atom_site_fract_z
Si Si1 0.493596 0.265668 0.469575
Si Si2 0.129207 0.213775 0.707544
Si Si3 0.269951 0.357523 0.524070
Si Si4 0.174486 0.636912 0.590254
Si Si5 0.626828 0.021907 0.214401
Si Si6 0.416415 0.314824 0.879406
Si Si7 0.061341 0.412977 0.951607
O O1 0.609422 0.284132 0.335702
O O2 0.386979 0.319444 0.496847
O O3 0.511419 0.288675 0.570517
O O4 0.485042 0.166370 0.468216
O O5 0.174967 0.297315 0.629757
O O6 0.210951 0.148590 0.604581
O O7 0.000000 0.201773 0.750000
O O8 0.226476 0.445316 0.583004
O O9 0.137214 0.576415 0.700309
O O10 0.308676 0.635866 0.485567
O O11 0.135275 0.730282 0.634554
O O12 0.117222 0.609270 0.521778
O O13 0.500000 0.042572 0.250000
O O14 0.642086 0.066625 0.309356
O O15 0.500000 0.355736 0.750000
O O16 0.000000 0.500000 0.000000
#
# Coordination Sequence:
#
# PCOD9278989 Si02
#       7
#     8   8   8   8   8   8   8
#     4  10  22  39  60  95 122 162 210 252 305 372
#     4   9  18  34  52  86 127 160 198 241 301 369
#     4  10  21  33  62  89 127 165 193 247 314 376
#     4  10  24  44  63  94 120 165 209 256 322 355
#     4  12  23  40  63  93 127 160 201 263 313 370
#     4  10  23  43  68  86 121 166 218 262 295 374
#     4  11  23  39  63  92 127 158 204 262 312 365
#
# _framework density 21.595428999999999
#
# number of rings (size 3 to 8) (size 9 to 14) (size 15 to 20)
#    0.000    1.714    2.857    0.857    8.000    1.143 
#    2.571    2.857    0.000    0.000    0.000    0.000 
#    0.000    0.000    0.000    0.000    0.000    0.000 
#
# Total GULP energy -156152.700741 kJ/mol
# GULP energy per Si atom -5576.882169 kJ/mol
# Density = 2.154628 g / cm^3
# Si number density = 21.595429 Si / 1000 Ang^3
#
#
#
# Elastic Constant Matrix: (Units=GPa)
#
#
# Indices 1 2 3 4 5 6 
#
# 1 35.4673 13.6826 16.5009 0.0000 -6.2371 0.0000
# 2 13.6826 57.3888 10.0635 0.0000 -11.2998 0.0000
# 3 16.5009 10.0635 116.3851 0.0000 -3.2364 0.0000
# 4 0.0000 0.0000 0.0000 41.0452 0.0000 -2.1806
# 5 -6.2371 -11.2998 -3.2364 0.0000 26.5197 0.0000
# 6 0.0000 0.0000 0.0000 -2.1806 0.0000 16.7134
#
#
#
# Elastic Compliance Matrix: (Units=1/GPa)
#
#
# Indices 1 2 3 4 5 6 
#
# 1 0.033336 -0.006322 -0.004050 0.000000 0.004652 0.000000
# 2 -0.006322 0.020458 -0.000674 0.000000 0.007148 0.000000
# 3 -0.004050 -0.000674 0.009222 0.000000 -0.000114 0.000000
# 4 0.000000 0.000000 0.000000 0.024533 0.000000 0.003201
# 5 0.004652 0.007148 -0.000114 0.000000 0.041834 0.000000
# 6 0.000000 0.000000 0.000000 0.003201 0.000000 0.060250
#
#
# Mechanical properties :
#
#
# Convention : Reuss Voigt Hill
#
# Bulk Modulus (GPa) = 24.43575 32.19281 28.31428
# Shear Modulus (GPa) = 22.18616 28.12196 25.15406
#
# Velocity S-wave (km/s) = 3.20871 3.61254 3.41660
# Velocity P-wave (km/s) = 5.00676 5.68684 5.35760
#
# Compressibility (1/GPa) = 0.04092365
#
# Stress axis : x y z
#
# Youngs Moduli (GPa) = 29.99731 48.88113 108.44208
#
# Poissons Ratio (x) = 0.30901 0.43923
# Poissons Ratio (y) = 0.18963 0.07308
# Poissons Ratio (z) = 0.12150 0.03294
#
# Static dielectric constant tensor:
#      x y z
#    x 1.820030 0.000000 0.042800 
#    y 0.000000 1.833060 0.000000 
#    z 0.042800 0.000000 1.892020 
# 
# From -- ./inp_files/155136.got.cif
#   From: 2010.05.17/outbox.cif.g08.bks.cpg/sg15_78_cif.got.tgz:155136.got - 2010.06.03 18:47:42.
