data_PCOD9278910
_publ_section_title
;
Structure prediction by ZEFSAII (Michael W. Deem and Ramdas Pophale) SiO2 
 PCOD9278910
Probable space group: C 2/C
;
_chemical_formula_sum "Si O2"
_cell_formula_units_Z 56
_cell_length_a 25.000764
_cell_length_b 19.617078
_cell_length_c 5.278393
_cell_angle_alpha 90.000000
_cell_angle_beta 116.016407
_cell_angle_gamma 90.000000
_cell_volume 2326.423792
_symmetry_space_group_name_H-M "C 2/C"
_symmetry_group_IT_number 15
_symmetry_cell_setting 'monoclinic'
loop_
_space_group_symop_operation_xyz
x,y,z
-x,y,1/2-z
-x,-y,-z
x,-y,1/2+z
1/2+x,1/2+y,z
1/2-x,1/2+y,1/2-z
1/2-x,1/2-y,-z
1/2+x,1/2-y,1/2+z
loop_
_atom_site_type_symbol
_atom_site_label
_atom_site_fract_x
_atom_site_fract_y
_atom_site_fract_z
Si Si1 0.324210 0.316295 0.876215
Si Si2 0.064799 0.312938 0.319949
Si Si3 0.137185 0.517958 0.526349
Si Si4 0.358358 0.169118 0.020088
Si Si5 0.432529 0.524085 0.309929
Si Si6 0.234966 0.041080 0.209990
Si Si7 0.897464 0.833166 0.530862
O O1 0.314612 0.234418 0.896425
O O2 0.374813 0.330059 0.195756
O O3 0.279172 0.378589 0.829527
O O4 0.344619 0.324674 0.627575
O O5 0.111630 0.330586 0.640260
O O6 0.061766 0.231193 0.332719
O O7 0.000000 0.342084 0.250000
O O8 0.091208 0.325636 0.095618
O O9 0.101634 0.498629 0.203460
O O10 0.164954 0.593328 0.573638
O O11 0.193740 0.467901 0.640715
O O12 0.500000 0.500000 0.500000
O O13 0.405586 0.524429 0.536032
O O14 0.428205 0.596953 0.171153
O O15 0.214013 0.001997 0.421249
#
# Coordination Sequence:
#
# PCOD9278910 Si02
#       7
#     8   8   8   8   8   8   8
#     4  10  21  37  57  84 117 155 203 247 299 354
#     4  10  21  37  62  87 117 160 202 257 299 354
#     4  10  21  40  65  92 120 159 195 242 313 374
#     4  10  21  40  62  91 122 160 206 248 303 365
#     4  10  21  33  44  68 102 147 197 242 281 338
#     4  10  21  37  58  87 120 156 201 247 304 364
#     4  10  21  35  53  78 111 157 200 248 297 342
#
# _framework density 24.071279000000001
#
# number of rings (size 3 to 8) (size 9 to 14) (size 15 to 20)
#    0.000    2.000    0.000    3.000    2.000    3.429 
#    5.143    5.714    0.000    8.571    0.000    0.000 
#    0.000    0.000    0.000    0.000    0.000    0.000 
#
# Total GULP energy -156299.746748 kJ/mol
# GULP energy per Si atom -5582.133812 kJ/mol
# Density = 2.401649 g / cm^3
# Si number density = 24.071279 Si / 1000 Ang^3
#
#
#
# Elastic Constant Matrix: (Units=GPa)
#
#
# Indices 1 2 3 4 5 6 
#
# 1 31.7930 7.2859 13.2080 0.0000 -10.6772 0.0000
# 2 7.2859 156.5153 17.3543 0.0000 -1.8913 0.0000
# 3 13.2080 17.3543 119.6187 0.0000 -46.7492 0.0000
# 4 0.0000 0.0000 0.0000 21.1277 0.0000 -16.5594
# 5 -10.6772 -1.8913 -46.7492 0.0000 29.0425 0.0000
# 6 0.0000 0.0000 0.0000 -16.5594 0.0000 3.7865
#
#
#
# Elastic Compliance Matrix: (Units=1/GPa)
#
#
# Indices 1 2 3 4 5 6 
#
# 1 0.036897 -0.001914 0.003926 0.000000 0.019760 0.000000
# 2 -0.001914 0.006688 -0.002329 0.000000 -0.004017 0.000000
# 3 0.003926 -0.002329 0.023642 0.000000 0.039348 0.000000
# 4 0.000000 0.000000 0.000000 -0.019497 0.000000 -0.085264
# 5 0.019760 -0.004017 0.039348 0.000000 0.104773 0.000000
# 6 0.000000 0.000000 0.000000 -0.085264 0.000000 -0.108786
#
#
# Mechanical properties :
#
#
# Convention : Reuss Voigt Hill
#
# Bulk Modulus (GPa) = 15.01635 42.62484 28.82059
# Shear Modulus (GPa) = 75.13184 28.79659 51.96421
#
# Velocity S-wave (km/s) = 5.59285 3.46252 4.65129
# Velocity P-wave (km/s) = 6.92521 5.80789 6.39101
#
# Compressibility (1/GPa) = 0.06659408
#
# Stress axis : x y z
#
# Youngs Moduli (GPa) = 27.10237 149.52316 42.29721
#
# Poissons Ratio (x) = 0.28621 -0.16607
# Poissons Ratio (y) = 0.05188 0.09850
# Poissons Ratio (z) = -0.10641 0.34820
#
# Static dielectric constant tensor:
#      x y z
#    x 2.030130 0.000000 -0.087920 
#    y 0.000000 1.942060 0.000000 
#    z -0.087920 0.000000 2.016910 
# 
# From -- ./inp_files/17213.got.cif
#   From: 2010.05.17/outbox.cif.g08.bks.cpg/sg15_9_cif.got.tgz:17213.got - 2010.06.03 18:47:42.
