data_PCOD9278888
_publ_section_title
;
Structure prediction by ZEFSAII (Michael W. Deem and Ramdas Pophale) SiO2 
 PCOD9278888
Probable space group: C 2/C
;
_chemical_formula_sum "Si O2"
_cell_formula_units_Z 56
_cell_length_a 15.165103
_cell_length_b 23.159566
_cell_length_c 9.793086
_cell_angle_alpha 90.000000
_cell_angle_beta 57.402292
_cell_angle_gamma 90.000000
_cell_volume 2897.689384
_symmetry_space_group_name_H-M "C 2/C"
_symmetry_group_IT_number 15
_symmetry_cell_setting 'monoclinic'
loop_
_space_group_symop_operation_xyz
x,y,z
-x,y,1/2-z
-x,-y,-z
x,-y,1/2+z
1/2+x,1/2+y,z
1/2-x,1/2+y,1/2-z
1/2-x,1/2-y,-z
1/2+x,1/2-y,1/2+z
loop_
_atom_site_type_symbol
_atom_site_label
_atom_site_fract_x
_atom_site_fract_y
_atom_site_fract_z
Si Si1 0.884961 0.419887 0.507425
Si Si2 0.721673 0.482703 0.197343
Si Si3 0.387442 0.096515 0.688460
Si Si4 0.751827 0.196469 0.693877
Si Si5 0.719997 0.327203 0.655087
Si Si6 0.551346 0.578217 0.353139
Si Si7 0.089014 0.118722 0.782877
O O1 0.813646 0.476871 0.562345
O O2 0.899035 0.402233 0.339868
O O3 0.815099 0.368197 0.625450
O O4 0.002686 0.424266 0.467304
O O5 0.787653 0.444560 0.248189
O O6 0.633695 0.527663 0.319399
O O7 0.663448 0.432385 0.160013
O O8 0.350958 0.160266 0.676679
O O9 0.731386 0.264376 0.711003
O O10 0.776865 0.180463 0.513384
O O11 0.843272 0.171603 0.714276
O O12 0.615935 0.362441 0.778825
O O13 0.500000 0.563253 0.250000
O O14 0.466485 0.588853 0.540299
O O15 0.000000 0.135226 0.750000
#
# Coordination Sequence:
#
# PCOD9278888 Si02
#       7
#     8   8   8   8   8   8   8
#     4   9  18  32  51  78 106 142 184 231 276 325
#     4  10  21  32  54  73 114 146 184 228 275 328
#     4   9  18  32  50  78 108 141 185 230 277 325
#     4   9  18  35  55  83 111 143 185 233 276 327
#     4   9  18  34  57  82 110 141 188 237 273 320
#     4  11  21  36  56  85 111 145 190 229 271 327
#     4  11  23  36  54  84 115 149 182 223 284 335
#
# _framework density 19.325742999999999
#
# number of rings (size 3 to 8) (size 9 to 14) (size 15 to 20)
#    0.000    2.286    1.429    1.286    4.000    1.143 
#    2.571    0.714    0.000    0.000    7.429    0.000 
#    0.000    0.000    0.000    0.000    0.000    0.000 
#
# Total GULP energy -155885.907792 kJ/mol
# GULP energy per Si atom -5567.353850 kJ/mol
# Density = 1.928176 g / cm^3
# Si number density = 19.325743 Si / 1000 Ang^3
#
#
#
# Elastic Constant Matrix: (Units=GPa)
#
#
# Indices 1 2 3 4 5 6 
#
# 1 121.9583 59.2930 17.5102 0.0000 -11.4197 0.0000
# 2 59.2930 138.6667 13.8414 0.0000 -11.4053 0.0000
# 3 17.5102 13.8414 25.7860 0.0000 -10.3938 0.0000
# 4 0.0000 0.0000 0.0000 20.2106 0.0000 -8.4981
# 5 -11.4197 -11.4053 -10.3938 0.0000 25.9911 0.0000
# 6 0.0000 0.0000 0.0000 -8.4981 0.0000 22.0963
#
#
#
# Elastic Compliance Matrix: (Units=1/GPa)
#
#
# Indices 1 2 3 4 5 6 
#
# 1 0.011003 -0.004134 -0.004810 0.000000 0.001096 0.000000
# 2 -0.004134 0.009265 -0.001501 0.000000 0.001649 0.000000
# 3 -0.004810 -0.001501 0.049756 0.000000 0.017125 0.000000
# 4 0.000000 0.000000 0.000000 0.059024 0.000000 0.022700
# 5 0.001096 0.001649 0.017125 0.000000 0.046528 0.000000
# 6 0.000000 0.000000 0.000000 0.022700 0.000000 0.053987
#
#
# Mechanical properties :
#
#
# Convention : Reuss Voigt Hill
#
# Bulk Modulus (GPa) = 20.35348 51.96668 36.16008
# Shear Modulus (GPa) = 18.73843 26.71069 22.72456
#
# Velocity S-wave (km/s) = 3.11723 3.72173 3.43282
# Velocity P-wave (km/s) = 4.84880 6.73919 5.87058
#
# Compressibility (1/GPa) = 0.04913165
#
# Stress axis : x y z
#
# Youngs Moduli (GPa) = 90.88526 107.93508 20.09820
#
# Poissons Ratio (x) = 0.44625 0.09668
# Poissons Ratio (y) = 0.37576 0.03017
# Poissons Ratio (z) = 0.43719 0.16202
#
# Static dielectric constant tensor:
#      x y z
#    x 1.732570 0.000000 -0.033380 
#    y 0.000000 1.686720 0.000000 
#    z -0.033380 0.000000 1.685650 
# 
# From -- ./inp_files/42536.got.cif
#   From: 2010.05.17/outbox.cif.g08.bks.cpg/sg15_22_cif.got.tgz:42536.got - 2010.06.03 18:47:42.
