data_PCOD9278190
_publ_section_title
;
Structure prediction by ZEFSAII (Michael W. Deem and Ramdas Pophale) SiO2 
 PCOD9278190
Probable space group: C 2/C
;
_chemical_formula_sum "Si O2"
_cell_formula_units_Z 32
_cell_length_a 9.350841
_cell_length_b 25.378370
_cell_length_c 9.148022
_cell_angle_alpha 90.000000
_cell_angle_beta 133.870567
_cell_angle_gamma 90.000000
_cell_volume 1565.023892
_symmetry_space_group_name_H-M "C 2/C"
_symmetry_group_IT_number 15
_symmetry_cell_setting 'monoclinic'
loop_
_space_group_symop_operation_xyz
x,y,z
-x,y,1/2-z
-x,-y,-z
x,-y,1/2+z
1/2+x,1/2+y,z
1/2-x,1/2+y,1/2-z
1/2-x,1/2-y,-z
1/2+x,1/2-y,1/2+z
loop_
_atom_site_type_symbol
_atom_site_label
_atom_site_fract_x
_atom_site_fract_y
_atom_site_fract_z
Si Si1 0.470823 0.587886 0.062310
Si Si2 0.708783 0.811808 0.475839
Si Si3 0.098030 0.547526 0.659333
Si Si4 0.384664 0.869245 0.811914
O O1 0.500000 0.567032 0.250000
O O2 0.686044 0.596535 0.143784
O O3 0.359107 0.644723 0.012159
O O4 0.329997 0.552029 0.862333
O O5 0.500000 0.821137 0.250000
O O6 0.750000 0.750000 0.500000
O O7 0.691010 0.824089 0.634879
O O8 0.000000 0.549163 0.750000
O O9 0.000000 0.500000 0.500000
O O10 0.033704 0.597121 0.517162
O O11 0.500000 0.852757 0.750000
#
# Coordination Sequence:
#
# PCOD9278190 Si02
#       4
#     8   8   8   8
#     4  10  20  42  67  94 135 177 221 276 334 401
#     4  11  20  41  71  96 128 180 224 271 342 409
#     4  12  23  43  67  98 136 182 227 279 335 401
#     4  11  23  42  65  99 141 169 223 288 330 398
#
# _framework density 20.446973
#
# number of rings (size 3 to 8) (size 9 to 14) (size 15 to 20)
#    0.000    1.000    7.500    3.000    0.000    2.000 
#    0.000    5.000    0.000    0.000    0.000    0.000 
#    0.000    0.000    0.000    0.000    0.000    0.000 
#
# Total GULP energy -89299.287311 kJ/mol
# GULP energy per Si atom -5581.205457 kJ/mol
# Density = 2.040043 g / cm^3
# Si number density = 20.446973 Si / 1000 Ang^3
#
#
#
# Elastic Constant Matrix: (Units=GPa)
#
#
# Indices 1 2 3 4 5 6 
#
# 1 86.0744 -4.8129 31.4636 0.0000 2.2253 0.0000
# 2 -4.8129 70.1418 36.2939 0.0000 -17.1390 0.0000
# 3 31.4636 36.2939 147.2485 0.0000 28.3983 0.0000
# 4 0.0000 0.0000 0.0000 41.5059 0.0000 1.1866
# 5 2.2253 -17.1390 28.3983 0.0000 40.1949 0.0000
# 6 0.0000 0.0000 0.0000 1.1866 0.0000 12.7655
#
#
#
# Elastic Compliance Matrix: (Units=1/GPa)
#
#
# Indices 1 2 3 4 5 6 
#
# 1 0.013569 0.004656 -0.004961 0.000000 0.004739 0.000000
# 2 0.004656 0.024114 -0.010271 0.000000 0.017281 0.000000
# 3 -0.004961 -0.010271 0.012937 0.000000 -0.013246 0.000000
# 4 0.000000 0.000000 0.000000 0.024157 0.000000 -0.002245
# 5 0.004739 0.017281 -0.013246 0.000000 0.041343 0.000000
# 6 0.000000 0.000000 0.000000 -0.002245 0.000000 0.078545
#
#
# Mechanical properties :
#
#
# Convention : Reuss Voigt Hill
#
# Bulk Modulus (GPa) = 33.93526 47.70598 40.82062
# Shear Modulus (GPa) = 22.15916 34.92793 28.54355
#
# Velocity S-wave (km/s) = 3.29559 4.13755 3.74033
# Velocity P-wave (km/s) = 5.57799 6.79764 6.21779
#
# Compressibility (1/GPa) = 0.02946787
#
# Stress axis : x y z
#
# Youngs Moduli (GPa) = 73.69664 41.47030 77.29476
#
# Poissons Ratio (x) = -0.19309 0.38346
# Poissons Ratio (y) = -0.34314 0.79391
# Poissons Ratio (z) = 0.36561 0.42595
#
# Static dielectric constant tensor:
#      x y z
#    x 1.733430 0.000000 0.048890 
#    y 0.000000 1.853480 0.000000 
#    z 0.048890 0.000000 1.754340 
# 
# From -- ./inp_files/24732.got.cif
#   From: 2010.05.17/outbox.cif.g08.bks.cpg/sg15_13_cif.got.tgz:24732.got - 2010.06.03 18:47:42.
