data_PCOD9278155
_publ_section_title
;
Structure prediction by ZEFSAII (Michael W. Deem and Ramdas Pophale) SiO2 
 PCOD9278155
Probable space group: C 2/C
;
_chemical_formula_sum "Si O2"
_cell_formula_units_Z 40
_cell_length_a 19.423706
_cell_length_b 11.096713
_cell_length_c 10.341809
_cell_angle_alpha 90.000000
_cell_angle_beta 48.437286
_cell_angle_gamma 90.000000
_cell_volume 1667.854167
_symmetry_space_group_name_H-M "C 2/C"
_symmetry_group_IT_number 15
_symmetry_cell_setting 'monoclinic'
loop_
_space_group_symop_operation_xyz
x,y,z
-x,y,1/2-z
-x,-y,-z
x,-y,1/2+z
1/2+x,1/2+y,z
1/2-x,1/2+y,1/2-z
1/2-x,1/2-y,-z
1/2+x,1/2-y,1/2+z
loop_
_atom_site_type_symbol
_atom_site_label
_atom_site_fract_x
_atom_site_fract_y
_atom_site_fract_z
Si Si1 0.585330 0.433665 0.464134
Si Si2 0.594146 0.319055 0.052616
Si Si3 0.632114 0.002325 0.261086
Si Si4 0.506372 0.196506 0.554132
Si Si5 0.227791 0.393935 0.399553
O O1 0.500000 0.500000 0.500000
O O2 0.617018 0.539758 0.519466
O O3 0.558586 0.305547 0.559710
O O4 0.664222 0.400067 0.263244
O O5 0.500000 0.301003 0.250000
O O6 0.564242 0.269023 0.949564
O O7 0.680986 0.236697 0.978755
O O8 0.555617 0.906982 0.306317
O O9 0.681739 0.949501 0.326330
O O10 0.578300 0.121408 0.376550
O O11 0.697194 0.029160 0.060402
#
# Coordination Sequence:
#
# PCOD9278155 Si02
#       5
#     8   8   8   8   8
#     4  10  24  43  62 101 142 187 227 291 350 413
#     4  10  20  42  66  97 135 184 232 281 347 420
#     4  10  22  42  73 105 133 177 236 286 341 414
#     4   9  20  40  67  96 138 173 228 283 348 398
#     4  11  24  42  73 101 137 184 239 282 343 422
#
# _framework density 23.98291
#
# number of rings (size 3 to 8) (size 9 to 14) (size 15 to 20)
#    0.000    2.000    2.000    0.000    2.800    4.000 
#    3.600    9.000    0.000    0.000    0.000    0.000 
#    0.000    0.000    0.000    0.000    0.000    0.000 
#
# Total GULP energy -111782.359904 kJ/mol
# GULP energy per Si atom -5589.117995 kJ/mol
# Density = 2.392832 g / cm^3
# Si number density = 23.982910 Si / 1000 Ang^3
#
#
#
# Elastic Constant Matrix: (Units=GPa)
#
#
# Indices 1 2 3 4 5 6 
#
# 1 89.3989 47.7361 45.0572 0.0000 -6.2449 0.0000
# 2 47.7361 203.1048 76.9105 0.0000 -14.0298 0.0000
# 3 45.0572 76.9105 187.7781 0.0000 -23.7844 0.0000
# 4 0.0000 0.0000 0.0000 16.7577 0.0000 -13.6601
# 5 -6.2449 -14.0298 -23.7844 0.0000 36.0180 0.0000
# 6 0.0000 0.0000 0.0000 -13.6601 0.0000 5.2553
#
#
#
# Elastic Compliance Matrix: (Units=1/GPa)
#
#
# Indices 1 2 3 4 5 6 
#
# 1 0.013589 -0.002321 -0.002320 0.000000 -0.000080 0.000000
# 2 -0.002321 0.006243 -0.001902 0.000000 0.000773 0.000000
# 3 -0.002320 -0.001902 0.007111 0.000000 0.003553 0.000000
# 4 0.000000 0.000000 0.000000 -0.053337 0.000000 -0.138638
# 5 -0.000080 0.000773 0.003553 0.000000 0.030397 0.000000
# 6 0.000000 0.000000 0.000000 -0.138638 0.000000 -0.170076
#
#
# Mechanical properties :
#
#
# Convention : Reuss Voigt Hill
#
# Bulk Modulus (GPa) = 72.16764 91.07661 81.62213
# Shear Modulus (GPa) = -33.69981 32.31141 -0.69420
#
# Velocity S-wave (km/s) = -3.75261 3.67450 -0.53859
# Velocity P-wave (km/s) = 3.37350 7.48737 5.80694
#
# Compressibility (1/GPa) = 0.01385663
#
# Stress axis : x y z
#
# Youngs Moduli (GPa) = 73.58990 160.18707 140.62258
#
# Poissons Ratio (x) = 0.37175 0.32628
# Poissons Ratio (y) = 0.17078 0.26748
# Poissons Ratio (z) = 0.17075 0.30469
#
# Static dielectric constant tensor:
#      x y z
#    x 2.093470 0.000000 -0.004460 
#    y 0.000000 1.947780 0.000000 
#    z -0.004460 0.000000 1.890210 
# 
# From -- ./inp_files/111367.got.cif
#   From: 2010.05.17/outbox.cif.g08.bks.cpg/sg15_56_cif.got.tgz:111367.got - 2010.06.03 18:47:42.
