data_PCOD9278879
_publ_section_title
;
Structure prediction by ZEFSAII (Michael W. Deem and Ramdas Pophale) SiO2 
 PCOD9278879
Probable space group: C 2/C
;
_chemical_formula_sum "Si O2"
_cell_formula_units_Z 56
_cell_length_a 15.824315
_cell_length_b 13.481836
_cell_length_c 25.714323
_cell_angle_alpha 90.000000
_cell_angle_beta 145.602384
_cell_angle_gamma 90.000000
_cell_volume 3099.172470
_symmetry_space_group_name_H-M "C 2/C"
_symmetry_group_IT_number 15
_symmetry_cell_setting 'monoclinic'
loop_
_space_group_symop_operation_xyz
x,y,z
-x,y,1/2-z
-x,-y,-z
x,-y,1/2+z
1/2+x,1/2+y,z
1/2-x,1/2+y,1/2-z
1/2-x,1/2-y,-z
1/2+x,1/2-y,1/2+z
loop_
_atom_site_type_symbol
_atom_site_label
_atom_site_fract_x
_atom_site_fract_y
_atom_site_fract_z
Si Si1 0.143631 0.820681 0.382646
Si Si2 0.862479 0.893137 0.302653
Si Si3 0.289067 0.927318 0.727684
Si Si4 0.964468 0.164578 0.963272
Si Si5 0.610605 0.104526 0.417290
Si Si6 0.727963 0.499335 0.088099
Si Si7 0.807492 0.714805 0.862434
O O1 0.289827 0.870363 0.482643
O O2 0.122482 0.706781 0.390130
O O3 0.181919 0.812664 0.341591
O O4 0.004789 0.878835 0.337528
O O5 0.892998 0.825506 0.369545
O O6 0.715010 0.863293 0.195185
O O7 0.836631 0.003499 0.310767
O O8 0.437810 0.919351 0.837000
O O9 0.233336 0.818250 0.685932
O O10 0.322171 0.976979 0.688093
O O11 0.849042 0.106760 0.941956
O O12 0.040795 0.259678 0.028931
O O13 0.098477 0.084332 0.022447
O O14 0.682451 0.018106 0.418740
#
# Coordination Sequence:
#
# PCOD9278879 Si02
#       7
#     8   8   8   8   8   8   8
#     4  11  20  31  53  84 113 141 179 237 283 330
#     4  11  21  35  52  82 118 148 188 232 288 334
#     4  10  21  32  52  82 115 148 185 235 279 334
#     4   9  17  31  48  81 110 144 179 232 278 326
#     4  11  18  31  52  83 114 142 181 231 286 325
#     4   9  16  28  51  78 112 140 180 227 282 326
#     4  11  21  33  56  79 113 146 188 230 285 333
#
# _framework density 18.069338999999999
#
# number of rings (size 3 to 8) (size 9 to 14) (size 15 to 20)
#    0.000    1.714    5.714    2.571    0.000    0.000 
#    0.000    0.714    0.000    0.857    0.000    2.000 
#    0.000    0.000    0.000    0.000    0.000    0.000 
#
# Total GULP energy -155976.692666 kJ/mol
# GULP energy per Si atom -5570.596167 kJ/mol
# Density = 1.802821 g / cm^3
# Si number density = 18.069339 Si / 1000 Ang^3
#
#
#
# Elastic Constant Matrix: (Units=GPa)
#
#
# Indices 1 2 3 4 5 6 
#
# 1 52.1617 37.4616 17.3916 0.0000 -7.2400 0.0000
# 2 37.4616 33.6814 23.0584 0.0000 -6.6295 0.0000
# 3 17.3916 23.0584 82.4328 0.0001 -9.1406 0.0000
# 4 0.0000 0.0000 0.0001 26.6523 0.0000 3.0577
# 5 -7.2400 -6.6295 -9.1406 0.0000 22.9691 0.0000
# 6 0.0000 0.0000 0.0000 3.0577 0.0000 21.3383
#
#
#
# Elastic Compliance Matrix: (Units=1/GPa)
#
#
# Indices 1 2 3 4 5 6 
#
# 1 0.105660 -0.126155 0.013236 0.000000 0.002160 0.000000
# 2 -0.126155 0.188395 -0.025592 0.000000 0.004427 0.000000
# 3 0.013236 -0.025592 0.016886 0.000000 0.003505 0.000000
# 4 0.000000 0.000000 0.000000 0.038147 0.000000 -0.005466
# 5 0.002160 0.004427 0.003505 0.000000 0.046890 0.000000
# 6 0.000000 0.000000 0.000000 -0.005466 0.000000 0.047647
#
#
# Mechanical properties :
#
#
# Convention : Reuss Voigt Hill
#
# Bulk Modulus (GPa) = 29.48109 36.01099 32.74604
# Shear Modulus (GPa) = 6.83103 20.21622 13.52363
#
# Velocity S-wave (km/s) = 1.94645 3.34850 2.73871
# Velocity P-wave (km/s) = 4.62628 5.90953 5.30684
#
# Compressibility (1/GPa) = 0.03392005
#
# Stress axis : x y z
#
# Youngs Moduli (GPa) = 9.46432 5.30799 59.22116
#
# Poissons Ratio (x) = 0.66963 -0.78385
# Poissons Ratio (y) = 1.19397 1.51556
# Poissons Ratio (z) = -0.12527 0.13584
#
# Static dielectric constant tensor:
#      x y z
#    x 1.619050 0.000000 -0.003880 
#    y 0.000000 1.613080 0.000000 
#    z -0.003880 0.000000 1.713930 
# 
# From -- ./inp_files/274193.got.cif
#   From: 2010.05.17/outbox.cif.g08.bks.cpg/sg15_138_cif.got.tgz:274193.got - 2010.06.03 18:47:42.
