data_PCOD9278376
_publ_section_title
;
Structure prediction by ZEFSAII (Michael W. Deem and Ramdas Pophale) SiO2 
 PCOD9278376
Probable space group: C 2/C
;
_chemical_formula_sum "Si O2"
_cell_formula_units_Z 60
_cell_length_a 30.968181
_cell_length_b 18.696609
_cell_length_c 16.179672
_cell_angle_alpha 90.000000
_cell_angle_beta 18.777276
_cell_angle_gamma 90.000000
_cell_volume 3015.477124
_symmetry_space_group_name_H-M "C 2/C"
_symmetry_group_IT_number 15
_symmetry_cell_setting 'monoclinic'
loop_
_space_group_symop_operation_xyz
x,y,z
-x,y,1/2-z
-x,-y,-z
x,-y,1/2+z
1/2+x,1/2+y,z
1/2-x,1/2+y,1/2-z
1/2-x,1/2-y,-z
1/2+x,1/2-y,1/2+z
loop_
_atom_site_type_symbol
_atom_site_label
_atom_site_fract_x
_atom_site_fract_y
_atom_site_fract_z
Si Si1 0.500000 0.150612 0.250000
Si Si2 0.737098 0.689917 0.352673
Si Si3 0.255772 0.047911 0.684365
Si Si4 0.682499 0.030796 0.590985
Si Si5 0.536188 0.716240 0.574638
Si Si6 0.165628 0.820617 0.668644
Si Si7 0.362737 0.961468 0.649709
Si Si8 0.934230 0.178738 0.455084
O O1 0.379202 0.101063 0.442927
O O2 0.456922 0.202242 0.403624
O O3 0.641691 0.678087 0.445389
O O4 0.620654 0.698227 0.631841
O O5 0.827784 0.621974 0.206003
O O6 0.827061 0.760793 0.177763
O O7 0.239614 0.004495 0.628100
O O8 0.297490 0.000671 0.688321
O O9 0.136270 0.101576 0.923907
O O10 0.738864 0.110755 0.498075
O O11 0.691722 0.992049 0.663883
O O12 0.523821 0.029546 0.856618
O O13 0.585325 0.696271 0.396934
O O14 0.250000 0.750000 0.500000
O O15 0.055903 0.829856 0.797166
O O16 0.000000 0.202384 0.250000
#
# Coordination Sequence:
#
# PCOD9278376 Si02
#       8
#     4   8   8   8   8   8   8   8
#     4  10  20  42  72  96 130 168 224 280 328 420
#     4  10  22  44  67  97 129 174 227 275 330 407
#     4  12  23  45  70  97 137 180 222 283 348 397
#     4  11  26  44  67 102 134 180 232 274 335 417
#     4  10  22  42  70  97 129 171 228 275 337 396
#     4  12  27  44  67  98 137 178 226 285 333 398
#     4  11  24  43  70  97 136 179 228 280 337 403
#     4  12  26  44  69  99 136 181 226 283 346 403
#
# _framework density 19.897348000000001
#
# number of rings (size 3 to 8) (size 9 to 14) (size 15 to 20)
#    0.000    1.067    4.000    3.200    3.733    3.200 
#    9.600    0.000    0.000    0.000    0.000    0.000 
#    0.000    0.000    0.000    0.000    0.000    0.000 
#
# Total GULP energy -167533.052366 kJ/mol
# GULP energy per Si atom -5584.435079 kJ/mol
# Density = 1.985206 g / cm^3
# Si number density = 19.897348 Si / 1000 Ang^3
#
#
#
# Elastic Constant Matrix: (Units=GPa)
#
#
# Indices 1 2 3 4 5 6 
#
# 1 98.6980 43.6888 37.3638 -0.0002 17.5920 -0.0001
# 2 43.6888 120.5117 30.1275 -0.0006 0.7520 -0.0001
# 3 37.3638 30.1275 78.2617 -0.0007 5.8361 -0.0001
# 4 -0.0002 -0.0006 -0.0007 -17.2773 0.0005 -69.5397
# 5 17.5920 0.7520 5.8361 0.0005 31.6474 0.0002
# 6 -0.0001 -0.0001 -0.0001 -69.5397 0.0002 -49.1456
#
#
#
# Elastic Compliance Matrix: (Units=1/GPa)
#
#
# Indices 1 2 3 4 5 6 
#
# 1 0.015253 -0.004206 -0.005108 0.000000 -0.007437 0.000000
# 2 -0.004206 0.010348 -0.002161 0.000000 0.002491 0.000000
# 3 -0.005108 -0.002161 0.016054 0.000000 -0.000069 0.000000
# 4 0.000000 0.000000 0.000000 0.012328 0.000000 -0.017443
# 5 -0.007437 0.002491 -0.000069 0.000000 0.035686 0.000000
# 6 0.000000 0.000000 0.000000 -0.017443 0.000000 0.004334
#
#
# Mechanical properties :
#
#
# Convention : Reuss Voigt Hill
#
# Bulk Modulus (GPa) = 53.46704 57.75908 55.61306
# Shear Modulus (GPa) = 40.58865 5.46430 23.02647
#
# Velocity S-wave (km/s) = 4.52143 1.65898 3.40555
# Velocity P-wave (km/s) = 7.36122 5.72374 6.59351
#
# Compressibility (1/GPa) = 0.01870311
#
# Stress axis : x y z
#
# Youngs Moduli (GPa) = 65.55968 96.64160 62.29141
#
# Poissons Ratio (x) = 0.40650 0.31821
# Poissons Ratio (y) = 0.27576 0.13461
# Poissons Ratio (z) = 0.33491 0.20884
#
# Static dielectric constant tensor:
#      x y z
#    x 1.701550 0.000000 0.006890 
#    y 0.000000 1.686980 0.000000 
#    z 0.006890 0.000000 1.688730 
# 
# From -- ./inp_files/179104.got.cif
#   From: 2010.05.17/outbox.cif.g08.bks.cpg/sg15_90_cif.got.tgz:179104.got - 2010.06.03 18:47:42.
