data_PCOD9278479
_publ_section_title
;
Structure prediction by ZEFSAII (Michael W. Deem and Ramdas Pophale) SiO2 
 PCOD9278479
Probable space group: C 2/C
;
_chemical_formula_sum "Si O2"
_cell_formula_units_Z 48
_cell_length_a 15.425961
_cell_length_b 24.335804
_cell_length_c 9.902648
_cell_angle_alpha 90.000000
_cell_angle_beta 143.458300
_cell_angle_gamma 90.000000
_cell_volume 2213.419341
_symmetry_space_group_name_H-M "C 2/C"
_symmetry_group_IT_number 15
_symmetry_cell_setting 'monoclinic'
loop_
_space_group_symop_operation_xyz
x,y,z
-x,y,1/2-z
-x,-y,-z
x,-y,1/2+z
1/2+x,1/2+y,z
1/2-x,1/2+y,1/2-z
1/2-x,1/2-y,-z
1/2+x,1/2-y,1/2+z
loop_
_atom_site_type_symbol
_atom_site_label
_atom_site_fract_x
_atom_site_fract_y
_atom_site_fract_z
Si Si1 0.946766 0.119949 0.330942
Si Si2 0.134281 0.001723 0.831838
Si Si3 0.870024 0.375651 0.978793
Si Si4 0.412734 0.809075 0.765967
Si Si5 0.907759 0.182520 0.755424
Si Si6 0.830028 0.501969 0.330342
O O1 0.937031 0.053264 0.322036
O O2 0.784660 0.144009 0.154182
O O3 0.000000 0.134838 0.250000
O O4 0.060798 0.145078 0.578031
O O5 0.244628 0.025205 0.853397
O O6 0.000000 0.029374 0.750000
O O7 0.243258 0.984676 0.088525
O O8 0.923043 0.339056 0.920696
O O9 0.823171 0.433779 0.857326
O O10 0.000000 0.381368 0.250000
O O11 0.500000 0.834237 0.750000
O O12 0.251005 0.812320 0.504940
O O13 0.458023 0.745477 0.843626
O O14 0.000000 0.157908 0.750000
O O15 0.000000 0.500000 0.500000
#
# Coordination Sequence:
#
# PCOD9278479 Si02
#       6
#     8   8   8   8   8   8
#     4  10  22  41  65  94 126 171 211 266 321 379
#     4  10  22  42  62  95 125 165 220 264 324 384
#     4  11  24  43  62  95 132 165 217 267 321 385
#     4  10  23  40  65  98 125 171 211 264 320 387
#     4  10  20  43  67  91 132 165 216 262 322 383
#     4  11  22  42  65  90 128 171 210 268 325 386
#
# _framework density 21.685905000000002
#
# number of rings (size 3 to 8) (size 9 to 14) (size 15 to 20)
#    0.000    1.667    1.667    3.000    2.333    2.000 
#   12.000    1.667    0.000    0.000    0.000    0.000 
#    0.000    0.000    0.000    0.000    0.000    0.000 
#
# Total GULP energy -133761.798065 kJ/mol
# GULP energy per Si atom -5573.408253 kJ/mol
# Density = 2.163655 g / cm^3
# Si number density = 21.685905 Si / 1000 Ang^3
#
#
#
# Elastic Constant Matrix: (Units=GPa)
#
#
# Indices 1 2 3 4 5 6 
#
# 1 174.5002 17.7904 9.1076 0.0000 -2.9094 0.0000
# 2 17.7904 67.9403 22.5380 0.0000 -16.9759 0.0000
# 3 9.1076 22.5380 57.0938 0.0000 -3.8086 0.0000
# 4 0.0000 0.0000 0.0000 38.7922 0.0000 10.9994
# 5 -2.9094 -16.9759 -3.8086 0.0000 41.8170 0.0000
# 6 0.0000 0.0000 0.0000 10.9994 0.0000 47.6739
#
#
#
# Elastic Compliance Matrix: (Units=1/GPa)
#
#
# Indices 1 2 3 4 5 6 
#
# 1 0.005897 -0.001476 -0.000373 0.000000 -0.000223 0.000000
# 2 -0.001476 0.019137 -0.006849 0.000000 0.007042 0.000000
# 3 -0.000373 -0.006849 0.020214 0.000000 -0.000965 0.000000
# 4 0.000000 0.000000 0.000000 0.027583 0.000000 -0.006364
# 5 -0.000223 0.007042 -0.000965 0.000000 0.026669 0.000000
# 6 0.000000 0.000000 0.000000 -0.006364 0.000000 0.022444
#
#
# Mechanical properties :
#
#
# Convention : Reuss Voigt Hill
#
# Bulk Modulus (GPa) = 35.90470 44.26734 40.08602
# Shear Modulus (GPa) = 33.64191 42.32983 37.98587
#
# Velocity S-wave (km/s) = 3.94296 4.42288 4.18980
# Velocity P-wave (km/s) = 6.10916 6.82201 6.47540
#
# Compressibility (1/GPa) = 0.02785151
#
# Stress axis : x y z
#
# Youngs Moduli (GPa) = 169.58097 52.25464 49.47106
#
# Poissons Ratio (x) = 0.07714 0.01844
# Poissons Ratio (y) = 0.25033 0.33884
# Poissons Ratio (z) = 0.06322 0.35790
#
# Static dielectric constant tensor:
#      x y z
#    x 1.890380 0.000000 0.039890 
#    y 0.000000 1.830990 0.000000 
#    z 0.039890 0.000000 1.742370 
# 
# From -- ./inp_files/43805.got.cif
#   From: 2010.05.17/outbox.cif.g08.bks.cpg/sg15_22_cif.got.tgz:43805.got - 2010.06.03 18:47:42.
