data_PCOD9278917
_publ_section_title
;
Structure prediction by ZEFSAII (Michael W. Deem and Ramdas Pophale) SiO2 
 PCOD9278917
Probable space group: C 2/C
;
_chemical_formula_sum "Si O2"
_cell_formula_units_Z 64
_cell_length_a 20.558953
_cell_length_b 26.771030
_cell_length_c 5.335980
_cell_angle_alpha 90.000000
_cell_angle_beta 75.499202
_cell_angle_gamma 90.000000
_cell_volume 2843.284349
_symmetry_space_group_name_H-M "C 2/C"
_symmetry_group_IT_number 15
_symmetry_cell_setting 'monoclinic'
loop_
_space_group_symop_operation_xyz
x,y,z
-x,y,1/2-z
-x,-y,-z
x,-y,1/2+z
1/2+x,1/2+y,z
1/2-x,1/2+y,1/2-z
1/2-x,1/2-y,-z
1/2+x,1/2-y,1/2+z
loop_
_atom_site_type_symbol
_atom_site_label
_atom_site_fract_x
_atom_site_fract_y
_atom_site_fract_z
Si Si1 0.599640 0.974485 0.558044
Si Si2 0.039440 0.175643 0.460783
Si Si3 0.758702 0.975466 0.309649
Si Si4 0.784116 0.386328 0.489484
Si Si5 0.927484 0.391393 0.240611
Si Si6 0.707063 0.214985 0.819330
Si Si7 0.560657 0.792043 0.514718
Si Si8 0.305897 0.321994 0.627867
O O1 0.679914 0.982203 0.456361
O O2 0.585975 0.916400 0.517422
O O3 0.573308 0.996037 0.840214
O O4 0.042228 0.236218 0.451327
O O5 0.117447 0.161324 0.420375
O O6 0.000000 0.158532 0.250000
O O7 0.000000 0.161164 0.750000
O O8 0.786812 0.987268 0.562827
O O9 0.755756 0.922681 0.162030
O O10 0.859965 0.406113 0.458314
O O11 0.795620 0.332567 0.355587
O O12 0.740163 0.369752 0.767305
O O13 0.000000 0.409508 0.250000
O O14 0.933211 0.332083 0.210979
O O15 0.700183 0.270181 0.704513
O O16 0.637007 0.210507 0.049301
O O17 0.774790 0.203096 0.908545
O O18 0.500000 0.809229 0.750000
#
# Coordination Sequence:
#
# PCOD9278917 Si02
#       8
#     8   8   8   8   8   8   8   8
#     4   9  19  36  52  69  96 135 184 239 293 334
#     4  10  22  40  61  85 115 152 187 229 283 340
#     4   9  19  35  55  79 109 146 191 241 292 345
#     4  10  21  35  56  79 113 154 194 247 294 345
#     4  10  21  33  48  77 101 142 194 242 287 335
#     4   9  20  36  52  87 114 156 203 235 294 341
#     4   9  19  35  53  78 109 152 194 240 278 331
#     4  10  21  36  59  84 118 156 194 241 286 354
#
# _framework density 22.509181000000002
#
# number of rings (size 3 to 8) (size 9 to 14) (size 15 to 20)
#    0.000    2.500    0.000    0.750    5.250    1.500 
#   13.500    0.000    0.000    0.000    0.000    0.000 
#    0.000    3.000    0.000    0.000    0.000    0.000 
#
# Total GULP energy -178211.615792 kJ/mol
# GULP energy per Si atom -5569.112993 kJ/mol
# Density = 2.245795 g / cm^3
# Si number density = 22.509181 Si / 1000 Ang^3
#
#
#
# Elastic Constant Matrix: (Units=GPa)
#
#
# Indices 1 2 3 4 5 6 
#
# 1 131.7215 -4.8237 37.2054 0.0000 -7.1002 0.0000
# 2 -4.8237 63.6545 7.6693 0.0000 -14.2085 0.0000
# 3 37.2054 7.6693 71.3725 0.0000 1.6156 0.0000
# 4 0.0000 0.0000 0.0000 29.9810 0.0000 -3.1519
# 5 -7.1002 -14.2085 1.6156 0.0000 23.7236 0.0000
# 6 0.0000 0.0000 0.0000 -3.1519 0.0000 13.2240
#
#
#
# Elastic Compliance Matrix: (Units=1/GPa)
#
#
# Indices 1 2 3 4 5 6 
#
# 1 0.009414 0.002374 -0.005267 0.000000 0.004598 0.000000
# 2 0.002374 0.019084 -0.003569 0.000000 0.012383 0.000000
# 3 -0.005267 -0.003569 0.017251 0.000000 -0.004888 0.000000
# 4 0.000000 0.000000 0.000000 0.034212 0.000000 0.008154
# 5 0.004598 0.012383 -0.004888 0.000000 0.051278 0.000000
# 6 0.000000 0.000000 0.000000 0.008154 0.000000 0.077564
#
#
# Mechanical properties :
#
#
# Convention : Reuss Voigt Hill
#
# Bulk Modulus (GPa) = 30.46319 38.53896 34.50108
# Shear Modulus (GPa) = 21.49002 28.49888 24.99445
#
# Velocity S-wave (km/s) = 3.09321 3.56209 3.33590
# Velocity P-wave (km/s) = 5.13033 5.83752 5.49531
#
# Compressibility (1/GPa) = 0.03282651
#
# Stress axis : x y z
#
# Youngs Moduli (GPa) = 106.22270 52.40050 57.96908
#
# Poissons Ratio (x) = -0.12442 0.30531
# Poissons Ratio (y) = -0.25221 0.20687
# Poissons Ratio (z) = 0.55944 0.18700
#
# Static dielectric constant tensor:
#      x y z
#    x 1.930260 0.000000 0.021510 
#    y 0.000000 1.929480 0.000000 
#    z 0.021510 0.000000 2.006020 
# 
# From -- ./inp_files/14645.got.cif
#   From: 2010.05.17/outbox.cif.g08.bks.cpg/sg15_8_cif.got.tgz:14645.got - 2010.06.03 18:47:42.
