data_PCOD9278635
_publ_section_title
;
Structure prediction by ZEFSAII (Michael W. Deem and Ramdas Pophale) SiO2 
 PCOD9278635
Probable space group: C 2/C
;
_chemical_formula_sum "Si O2"
_cell_formula_units_Z 40
_cell_length_a 8.226761
_cell_length_b 15.349225
_cell_length_c 15.123832
_cell_angle_alpha 90.000000
_cell_angle_beta 119.521760
_cell_angle_gamma 90.000000
_cell_volume 1661.807040
_symmetry_space_group_name_H-M "C 2/C"
_symmetry_group_IT_number 15
_symmetry_cell_setting 'monoclinic'
loop_
_space_group_symop_operation_xyz
x,y,z
-x,y,1/2-z
-x,-y,-z
x,-y,1/2+z
1/2+x,1/2+y,z
1/2-x,1/2+y,1/2-z
1/2-x,1/2-y,-z
1/2+x,1/2-y,1/2+z
loop_
_atom_site_type_symbol
_atom_site_label
_atom_site_fract_x
_atom_site_fract_y
_atom_site_fract_z
Si Si1 0.679046 0.976020 0.934300
Si Si2 0.406268 0.244354 0.615642
Si Si3 0.000000 0.923824 0.250000
Si Si4 0.500000 0.100562 0.750000
Si Si5 0.524844 0.432509 0.625977
Si Si6 0.699863 0.175099 0.557214
O O1 0.810318 0.922647 0.900809
O O2 0.533550 0.034789 0.841138
O O3 0.596958 0.904329 0.978436
O O4 0.835149 0.032777 0.028012
O O5 0.250000 0.250000 0.500000
O O6 0.351103 0.176841 0.679017
O O7 0.465926 0.342113 0.652893
O O8 0.578714 0.205494 0.607074
O O9 0.881299 0.865877 0.151908
O O10 0.100993 0.992828 0.212204
O O11 0.750000 0.250000 0.500000
#
# Coordination Sequence:
#
# PCOD9278635 Si02
#       6
#     8   8   4   4   8   8
#     4  10  22  42  68  93 133 174 225 279 336 393
#     4  12  25  44  70 102 140 177 224 280 343 401
#     4  10  23  41  72 102 130 186 234 275 347 402
#     4  12  25  43  64 106 134 172 224 287 329 400
#     4  10  20  44  66  94 132 182 219 273 339 406
#     4  11  24  45  72 101 134 177 232 282 332 406
#
# _framework density 24.070183
#
# number of rings (size 3 to 8) (size 9 to 14) (size 15 to 20)
#    0.000    1.200    4.000    1.800    0.000    3.200 
#    7.200    0.000    0.000    0.000    0.000    0.000 
#    0.000    0.000    0.000    0.000    0.000    0.000 
#
# Total GULP energy -111568.374658 kJ/mol
# GULP energy per Si atom -5578.418733 kJ/mol
# Density = 2.401540 g / cm^3
# Si number density = 24.070183 Si / 1000 Ang^3
#
#
#
# Elastic Constant Matrix: (Units=GPa)
#
#
# Indices 1 2 3 4 5 6 
#
# 1 49.0432 20.9405 24.8686 0.0000 -0.2869 0.0000
# 2 20.9405 170.3444 98.2202 0.0000 14.6578 0.0000
# 3 24.8686 98.2202 171.9000 0.0000 -3.0798 0.0000
# 4 0.0000 0.0000 0.0000 61.8732 0.0000 -10.8291
# 5 -0.2869 14.6578 -3.0798 0.0000 23.6858 0.0000
# 6 0.0000 0.0000 0.0000 -10.8291 0.0000 20.0039
#
#
#
# Elastic Compliance Matrix: (Units=1/GPa)
#
#
# Indices 1 2 3 4 5 6 
#
# 1 0.022213 -0.001430 -0.002381 0.000000 0.000845 0.000000
# 2 -0.001430 0.009818 -0.005525 0.000000 -0.006812 0.000000
# 3 -0.002381 -0.005525 0.009401 0.000000 0.004613 0.000000
# 4 0.000000 0.000000 0.000000 0.017854 0.000000 0.009665
# 5 0.000845 -0.006812 0.004613 0.000000 0.047045 0.000000
# 6 0.000000 0.000000 0.000000 0.009665 0.000000 0.055222
#
#
# Mechanical properties :
#
#
# Convention : Reuss Voigt Hill
#
# Bulk Modulus (GPa) = 43.93731 75.48292 59.71012
# Shear Modulus (GPa) = 26.62219 37.59647 32.10933
#
# Velocity S-wave (km/s) = 3.32930 3.95644 3.65634
# Velocity P-wave (km/s) = 5.75087 7.23179 6.53343
#
# Compressibility (1/GPa) = 0.02275970
#
# Stress axis : x y z
#
# Youngs Moduli (GPa) = 45.01804 101.85253 106.36808
#
# Poissons Ratio (x) = 0.14569 0.25328
# Poissons Ratio (y) = 0.06439 0.58768
# Poissons Ratio (z) = 0.10719 0.56273
#
# Static dielectric constant tensor:
#      x y z
#    x 2.080420 0.000000 -0.175140 
#    y 0.000000 1.785630 0.000000 
#    z -0.175140 0.000000 1.878770 
# 
# From -- ./inp_files/133314.got.cif
#   From: 2010.05.17/outbox.cif.g08.bks.cpg/sg15_67_cif.got.tgz:133314.got - 2010.06.03 18:47:42.
