data_PCOD9278129
_publ_section_title
;
Structure prediction by ZEFSAII (Michael W. Deem and Ramdas Pophale) SiO2 
 PCOD9278129
Probable space group: C 2/C
;
_chemical_formula_sum "Si O2"
_cell_formula_units_Z 52
_cell_length_a 22.192996
_cell_length_b 16.856876
_cell_length_c 8.699017
_cell_angle_alpha 90.000000
_cell_angle_beta 46.256564
_cell_angle_gamma 90.000000
_cell_volume 2351.077265
_symmetry_space_group_name_H-M "C 2/C"
_symmetry_group_IT_number 15
_symmetry_cell_setting 'monoclinic'
loop_
_space_group_symop_operation_xyz
x,y,z
-x,y,1/2-z
-x,-y,-z
x,-y,1/2+z
1/2+x,1/2+y,z
1/2-x,1/2+y,1/2-z
1/2-x,1/2-y,-z
1/2+x,1/2-y,1/2+z
loop_
_atom_site_type_symbol
_atom_site_label
_atom_site_fract_x
_atom_site_fract_y
_atom_site_fract_z
Si Si1 0.987241 0.788610 0.512737
Si Si2 0.690270 0.440338 0.452624
Si Si3 0.593083 0.887243 0.066078
Si Si4 0.867925 0.222779 0.505154
Si Si5 0.500000 0.847415 0.750000
Si Si6 0.577931 0.546417 0.437366
Si Si7 0.121105 0.538370 0.851981
O O1 0.909219 0.771056 0.762841
O O2 0.015425 0.714055 0.362197
O O3 0.957908 0.865662 0.469982
O O4 0.063048 0.806928 0.494563
O O5 0.696285 0.348991 0.386548
O O6 0.619207 0.491948 0.493879
O O7 0.655203 0.440562 0.686027
O O8 0.782251 0.473681 0.277123
O O9 0.500000 0.852256 0.250000
O O10 0.653532 0.813880 0.920785
O O11 0.615360 0.929458 0.188068
O O12 0.583504 0.951522 0.948192
O O13 0.573651 0.903008 0.553869
O O14 0.500000 0.500000 0.500000
#
# Coordination Sequence:
#
# PCOD9278129 Si02
#       7
#     8   8   8   8   4   8   8
#     4  10  21  38  67  98 125 170 233 269 322 409
#     4  11  25  44  65 102 139 175 221 276 342 397
#     4  12  23  43  70  94 124 180 231 274 335 394
#     4  10  20  42  66  93 127 174 222 273 338 390
#     4  12  24  42  64  96 130 174 230 278 328 388
#     4  11  22  42  70  97 135 178 219 270 335 407
#     4  12  27  44  66  98 138 174 227 278 334 406
#
# _framework density 22.117519999999999
#
# number of rings (size 3 to 8) (size 9 to 14) (size 15 to 20)
#    0.000    0.923    5.385    1.846    4.308    0.615 
#    2.769    0.769    0.000    0.000    0.000    0.000 
#    0.000    0.000    0.000    0.000    0.000    0.000 
#
# Total GULP energy -145137.583810 kJ/mol
# GULP energy per Si atom -5582.214762 kJ/mol
# Density = 2.206718 g / cm^3
# Si number density = 22.117520 Si / 1000 Ang^3
#
#
#
# Elastic Constant Matrix: (Units=GPa)
#
#
# Indices 1 2 3 4 5 6 
#
# 1 51.0986 6.8552 12.3025 0.0000 5.6142 0.0000
# 2 6.8552 133.0048 9.9839 0.0000 10.5829 0.0000
# 3 12.3025 9.9839 65.2996 0.0000 -0.5086 0.0000
# 4 0.0000 0.0000 0.0000 12.1047 0.0000 16.3722
# 5 5.6142 10.5829 -0.5086 0.0000 30.1034 0.0000
# 6 0.0000 0.0000 0.0000 16.3722 0.0000 17.0638
#
#
#
# Elastic Compliance Matrix: (Units=1/GPa)
#
#
# Indices 1 2 3 4 5 6 
#
# 1 0.020995 -0.000485 -0.003911 0.000000 -0.003811 0.000000
# 2 -0.000485 0.007842 -0.001128 0.000000 -0.002685 0.000000
# 3 -0.003911 -0.001128 0.016234 0.000000 0.001400 0.000000
# 4 0.000000 0.000000 0.000000 -0.277470 0.000000 0.266224
# 5 -0.003811 -0.002685 0.001400 0.000000 0.034897 0.000000
# 6 0.000000 0.000000 0.000000 0.266224 0.000000 -0.196830
#
#
# Mechanical properties :
#
#
# Convention : Reuss Voigt Hill
#
# Bulk Modulus (GPa) = 29.39267 34.18734 31.79001
# Shear Modulus (GPa) = -13.44301 26.53847 6.54773
#
# Velocity S-wave (km/s) = -2.46803 3.46769 1.72246
# Velocity P-wave (km/s) = 2.27960 5.61461 4.28488
#
# Compressibility (1/GPa) = 0.03402208
#
# Stress axis : x y z
#
# Youngs Moduli (GPa) = 47.62932 127.51988 61.59791
#
# Poissons Ratio (x) = 0.06189 0.24091
# Poissons Ratio (y) = 0.02312 0.06951
# Poissons Ratio (z) = 0.18628 0.14390
#
# Static dielectric constant tensor:
#      x y z
#    x 1.819690 0.000000 0.056580 
#    y 0.000000 1.862270 0.000000 
#    z 0.056580 0.000000 1.802200 
# 
# From -- ./inp_files/56935.got.cif
#   From: 2010.05.17/outbox.cif.g08.bks.cpg/sg15_29_cif.got.tgz:56935.got - 2010.06.03 18:47:42.
