data_PCOD9278955
_publ_section_title
;
Structure prediction by ZEFSAII (Michael W. Deem and Ramdas Pophale) SiO2 
 PCOD9278955
Probable space group: C 2/C
;
_chemical_formula_sum "Si O2"
_cell_formula_units_Z 44
_cell_length_a 14.611451
_cell_length_b 27.650978
_cell_length_c 8.250191
_cell_angle_alpha 90.000000
_cell_angle_beta 46.281549
_cell_angle_gamma 90.000000
_cell_volume 2409.088281
_symmetry_space_group_name_H-M "C 2/C"
_symmetry_group_IT_number 15
_symmetry_cell_setting 'monoclinic'
loop_
_space_group_symop_operation_xyz
x,y,z
-x,y,1/2-z
-x,-y,-z
x,-y,1/2+z
1/2+x,1/2+y,z
1/2-x,1/2+y,1/2-z
1/2-x,1/2-y,-z
1/2+x,1/2-y,1/2+z
loop_
_atom_site_type_symbol
_atom_site_label
_atom_site_fract_x
_atom_site_fract_y
_atom_site_fract_z
Si Si1 0.271627 0.380080 0.839969
Si Si2 0.410523 0.186975 0.515718
Si Si3 0.484708 0.445537 0.459619
Si Si4 0.070587 0.800854 0.997038
Si Si5 0.142732 0.856423 0.403664
Si Si6 0.500000 0.856715 0.250000
O O1 0.347860 0.425471 0.679970
O O2 0.308514 0.334775 0.680558
O O3 0.328472 0.365411 0.944223
O O4 0.123612 0.386526 0.047400
O O5 0.500000 0.176274 0.250000
O O6 0.393880 0.244939 0.542241
O O7 0.275069 0.160597 0.663384
O O8 0.464234 0.172392 0.628631
O O9 0.500000 0.500000 0.500000
O O10 0.584162 0.406418 0.408663
O O11 0.500000 0.444325 0.250000
O O12 0.000000 0.813875 0.250000
O O13 0.963149 0.815431 0.998021
#
# Coordination Sequence:
#
# PCOD9278955 Si02
#       6
#     8   8   8   8   8   4
#     4  10  21  38  58  86 122 152 200 246 289 357
#     4  10  24  35  56  83 123 166 201 245 290 357
#     4  11  22  39  69  91 112 147 188 252 298 351
#     4  10  21  33  55  84 113 161 202 250 287 335
#     4  10  21  37  56  86 118 155 197 243 296 340
#     4  10  24  36  58  82 122 166 194 242 298 346
#
# _framework density 18.264171000000001
#
# number of rings (size 3 to 8) (size 9 to 14) (size 15 to 20)
#    0.000    1.818    0.000    5.455   10.182    2.909 
#    0.000    0.000    2.000    3.273    0.000    0.000 
#    0.000    0.000    0.000    0.000    0.000    0.000 
#
# Total GULP energy -122750.997361 kJ/mol
# GULP energy per Si atom -5579.590789 kJ/mol
# Density = 1.822260 g / cm^3
# Si number density = 18.264171 Si / 1000 Ang^3
#
#
#
# Elastic Constant Matrix: (Units=GPa)
#
#
# Indices 1 2 3 4 5 6 
#
# 1 60.0412 26.8312 49.2133 0.0000 -7.9591 0.0000
# 2 26.8312 116.1353 77.9817 0.0000 -12.5770 0.0000
# 3 49.2133 77.9817 176.3229 0.0000 -15.6554 0.0000
# 4 0.0000 0.0000 0.0000 17.3616 0.0000 5.1617
# 5 -7.9591 -12.5770 -15.6554 0.0000 36.3741 0.0000
# 6 0.0000 0.0000 0.0000 5.1617 0.0000 11.6870
#
#
#
# Elastic Compliance Matrix: (Units=1/GPa)
#
#
# Indices 1 2 3 4 5 6 
#
# 1 0.021888 -0.001216 -0.005389 0.000000 0.002049 0.000000
# 2 -0.001216 0.012454 -0.005001 0.000000 0.001888 0.000000
# 3 -0.005389 -0.005001 0.009492 0.000000 0.001177 0.000000
# 4 0.000000 0.000000 0.000000 0.066305 0.000000 -0.029284
# 5 0.002049 0.001888 0.001177 0.000000 0.029100 0.000000
# 6 0.000000 0.000000 0.000000 -0.029284 0.000000 0.098499
#
#
# Mechanical properties :
#
#
# Convention : Reuss Voigt Hill
#
# Bulk Modulus (GPa) = 48.49447 73.39463 60.94455
# Shear Modulus (GPa) = 18.66902 26.31607 22.49255
#
# Velocity S-wave (km/s) = 3.20060 3.79998 3.51310
# Velocity P-wave (km/s) = 6.34569 7.71527 7.06375
#
# Compressibility (1/GPa) = 0.02062091
#
# Stress axis : x y z
#
# Youngs Moduli (GPa) = 45.68778 80.29501 105.35339
#
# Poissons Ratio (x) = 0.09765 0.56778
# Poissons Ratio (y) = 0.05556 0.52687
# Poissons Ratio (z) = 0.24622 0.40155
#
# Static dielectric constant tensor:
#      x y z
#    x 1.799130 0.000000 -0.035860 
#    y 0.000000 1.686600 0.000000 
#    z -0.035860 0.000000 1.664530 
# 
# From -- ./inp_files/43334.got.cif
#   From: 2010.05.17/outbox.cif.g08.bks.cpg/sg15_22_cif.got.tgz:43334.got - 2010.06.03 18:47:42.
