data_PCOD9278002
_publ_section_title
;
Structure prediction by ZEFSAII (Michael W. Deem and Ramdas Pophale) SiO2 
 PCOD9278002
Probable space group: C 2/C
;
_chemical_formula_sum "Si O2"
_cell_formula_units_Z 44
_cell_length_a 7.821578
_cell_length_b 16.499517
_cell_length_c 17.947711
_cell_angle_alpha 90.000000
_cell_angle_beta 81.691894
_cell_angle_gamma 90.000000
_cell_volume 2291.885035
_symmetry_space_group_name_H-M "C 2/C"
_symmetry_group_IT_number 15
_symmetry_cell_setting 'monoclinic'
loop_
_space_group_symop_operation_xyz
x,y,z
-x,y,1/2-z
-x,-y,-z
x,-y,1/2+z
1/2+x,1/2+y,z
1/2-x,1/2+y,1/2-z
1/2-x,1/2-y,-z
1/2+x,1/2-y,1/2+z
loop_
_atom_site_type_symbol
_atom_site_label
_atom_site_fract_x
_atom_site_fract_y
_atom_site_fract_z
Si Si1 0.152759 0.147096 0.680279
Si Si2 0.888905 0.508472 0.617768
Si Si3 0.902663 0.222787 0.580833
Si Si4 0.500000 0.908204 0.750000
Si Si5 0.139486 0.620809 0.506125
Si Si6 0.304066 0.715657 0.262121
O O1 0.232411 0.060233 0.660080
O O2 0.292537 0.207146 0.707959
O O3 0.000000 0.142195 0.750000
O O4 0.067573 0.187446 0.613003
O O5 0.989368 0.463027 0.677339
O O6 0.824431 0.441751 0.562937
O O7 0.012448 0.572732 0.568774
O O8 0.943697 0.298883 0.525423
O O9 0.805701 0.153963 0.539495
O O10 0.769179 0.255717 0.652788
O O11 0.332606 0.850315 0.758668
O O12 0.500000 0.685767 0.250000
#
# Coordination Sequence:
#
# PCOD9278002 Si02
#       6
#     8   8   8   4   8   8
#     4  10  22  39  66  97 128 162 222 266 318 379
#     4  11  24  40  62  95 128 171 205 274 329 368
#     4  10  20  42  64  91 129 171 216 262 304 408
#     4  12  24  44  62  96 134 162 224 268 312 390
#     4  10  22  41  63  88 133 170 210 263 326 379
#     4  11  21  41  69  93 123 177 220 263 319 381
#
# _framework density 19.198170999999999
#
# number of rings (size 3 to 8) (size 9 to 14) (size 15 to 20)
#    0.000    1.455    4.545    1.091    6.364    2.182 
#    0.000    7.273    0.000    0.000    0.000    0.000 
#    0.000    0.000    0.000    0.000    0.000    0.000 
#
# Total GULP energy -122900.321371 kJ/mol
# GULP energy per Si atom -5586.378244 kJ/mol
# Density = 1.915448 g / cm^3
# Si number density = 19.198171 Si / 1000 Ang^3
#
#
#
# Elastic Constant Matrix: (Units=GPa)
#
#
# Indices 1 2 3 4 5 6 
#
# 1 93.9931 44.8518 25.4452 0.0000 12.1526 0.0000
# 2 44.8518 108.9679 44.0651 0.0000 12.7858 0.0000
# 3 25.4452 44.0651 81.1851 0.0000 28.0044 0.0000
# 4 0.0000 0.0000 0.0000 21.2790 0.0000 -9.9101
# 5 12.1526 12.7858 28.0044 0.0000 17.1057 0.0000
# 6 0.0000 0.0000 0.0000 -9.9101 0.0000 -1.9032
#
#
#
# Elastic Compliance Matrix: (Units=1/GPa)
#
#
# Indices 1 2 3 4 5 6 
#
# 1 0.013844 -0.005279 0.001282 0.000000 -0.007988 0.000000
# 2 -0.005279 0.013880 -0.008257 0.000000 0.006894 0.000000
# 3 0.001282 -0.008257 0.033502 0.000000 -0.049586 0.000000
# 4 0.000000 0.000000 0.000000 0.013721 0.000000 -0.071445
# 5 -0.007988 0.006894 -0.049586 0.000000 0.140162 0.000000
# 6 0.000000 0.000000 0.000000 -0.071445 0.000000 -0.153408
#
#
# Mechanical properties :
#
#
# Convention : Reuss Voigt Hill
#
# Bulk Modulus (GPa) = 27.23539 56.98559 42.11049
# Shear Modulus (GPa) = 50.78739 18.61524 34.70132
#
# Velocity S-wave (km/s) = 5.14895 3.11728 4.25612
# Velocity P-wave (km/s) = 7.04033 6.53482 6.79228
#
# Compressibility (1/GPa) = 0.03671694
#
# Stress axis : x y z
#
# Youngs Moduli (GPa) = 72.23322 72.04502 29.84881
#
# Poissons Ratio (x) = 0.38035 -0.03826
# Poissons Ratio (y) = 0.38135 0.24647
# Poissons Ratio (z) = -0.09259 0.59489
#
# Static dielectric constant tensor:
#      x y z
#    x 1.643460 0.000000 0.004620 
#    y 0.000000 1.657120 0.000000 
#    z 0.004620 0.000000 1.681890 
# 
# From -- ./inp_files/188827.got.cif
#   From: 2010.05.17/outbox.cif.g08.bks.cpg/sg15_95_cif.got.tgz:188827.got - 2010.06.03 18:47:42.
