data_PCOD9278205
_publ_section_title
;
Structure prediction by ZEFSAII (Michael W. Deem and Ramdas Pophale) SiO2 
 PCOD9278205
Probable space group: C 2/C
;
_chemical_formula_sum "Si O2"
_cell_formula_units_Z 36
_cell_length_a 21.664337
_cell_length_b 11.823892
_cell_length_c 5.525259
_cell_angle_alpha 90.000000
_cell_angle_beta 68.336204
_cell_angle_gamma 90.000000
_cell_volume 1315.361989
_symmetry_space_group_name_H-M "C 2/C"
_symmetry_group_IT_number 15
_symmetry_cell_setting 'monoclinic'
loop_
_space_group_symop_operation_xyz
x,y,z
-x,y,1/2-z
-x,-y,-z
x,-y,1/2+z
1/2+x,1/2+y,z
1/2-x,1/2+y,1/2-z
1/2-x,1/2-y,-z
1/2+x,1/2-y,1/2+z
loop_
_atom_site_type_symbol
_atom_site_label
_atom_site_fract_x
_atom_site_fract_y
_atom_site_fract_z
Si Si1 0.000000 0.209624 0.250000
Si Si2 0.382980 0.623317 0.130909
Si Si3 0.805032 0.442544 0.955644
Si Si4 0.830483 0.136555 0.702156
Si Si5 0.453208 0.108689 0.130726
O O1 0.958303 0.134110 0.122547
O O2 0.947200 0.302375 0.424670
O O3 0.369142 0.677455 0.888047
O O4 0.358650 0.493237 0.141034
O O5 0.340315 0.677020 0.412899
O O6 0.793783 0.465973 0.686938
O O7 0.746714 0.359447 0.119952
O O8 0.883786 0.423335 0.847936
O O9 0.500000 0.173111 0.250000
O O10 0.500000 0.000000 0.000000
#
# Coordination Sequence:
#
# PCOD9278205 Si02
#       5
#     4   8   8   8   8
#     4  12  28  44  64 100 136 182 220 288 328 394
#     4  10  22  40  68  98 142 168 224 266 332 405
#     4  12  20  39  73  99 127 173 229 271 324 405
#     4  10  20  42  68 102 132 181 212 266 335 410
#     4  12  25  45  67  93 131 180 234 278 335 392
#
# _framework density 27.368891000000001
#
# number of rings (size 3 to 8) (size 9 to 14) (size 15 to 20)
#    0.000    0.889    7.778    0.000    3.111    3.556 
#    0.000    2.222    0.000    0.000    0.000    0.000 
#    0.000    0.000    0.000    0.000    0.000    0.000 
#
# Total GULP energy -100425.603863 kJ/mol
# GULP energy per Si atom -5579.200215 kJ/mol
# Density = 2.730660 g / cm^3
# Si number density = 27.368891 Si / 1000 Ang^3
#
#
#
# Elastic Constant Matrix: (Units=GPa)
#
#
# Indices 1 2 3 4 5 6 
#
# 1 115.1312 -0.4618 11.2555 0.0000 -7.0191 0.0000
# 2 -0.4618 64.0124 18.6971 0.0000 -10.1306 0.0000
# 3 11.2555 18.6971 180.3398 0.0000 3.2847 0.0000
# 4 0.0000 0.0000 0.0000 4.8739 0.0000 19.1152
# 5 -7.0191 -10.1306 3.2847 0.0000 49.4709 0.0000
# 6 0.0000 0.0000 0.0000 19.1152 0.0000 5.6194
#
#
#
# Elastic Compliance Matrix: (Units=1/GPa)
#
#
# Indices 1 2 3 4 5 6 
#
# 1 0.008833 0.000466 -0.000625 0.000000 0.001390 0.000000
# 2 0.000466 0.016732 -0.001830 0.000000 0.003614 0.000000
# 3 -0.000625 -0.001830 0.005789 0.000000 -0.000848 0.000000
# 4 0.000000 0.000000 0.000000 -0.016625 0.000000 0.056553
# 5 0.001390 0.003614 -0.000848 0.000000 0.021208 0.000000
# 6 0.000000 0.000000 0.000000 0.056553 0.000000 -0.014420
#
#
# Mechanical properties :
#
#
# Convention : Reuss Voigt Hill
#
# Bulk Modulus (GPa) = 36.52596 46.49610 41.51103
# Shear Modulus (GPa) = 144.42782 33.99235 89.21008
#
# Velocity S-wave (km/s) = 7.27223 3.52804 5.71543
# Velocity P-wave (km/s) = 9.15907 5.79841 7.66519
#
# Compressibility (1/GPa) = 0.02737779
#
# Stress axis : x y z
#
# Youngs Moduli (GPa) = 113.20570 59.76685 172.73469
#
# Poissons Ratio (x) = -0.02787 0.10796
# Poissons Ratio (y) = -0.05279 0.31604
# Poissons Ratio (z) = 0.07075 0.10935
#
# Static dielectric constant tensor:
#      x y z
#    x 2.190770 0.000000 0.097160 
#    y 0.000000 2.195120 0.000000 
#    z 0.097160 0.000000 2.455280 
# 
# From -- ./inp_files/14976.got.cif
#   From: 2010.05.17/outbox.cif.g08.bks.cpg/sg15_8_cif.got.tgz:14976.got - 2010.06.03 18:47:42.
