data_PCOD9278588
_publ_section_title
;
Structure prediction by ZEFSAII (Michael W. Deem and Ramdas Pophale) SiO2 
 PCOD9278588
Probable space group: C 2/C
;
_chemical_formula_sum "Si O2"
_cell_formula_units_Z 40
_cell_length_a 9.962229
_cell_length_b 11.713756
_cell_length_c 21.377480
_cell_angle_alpha 90.000000
_cell_angle_beta 145.242475
_cell_angle_gamma 90.000000
_cell_volume 1422.210239
_symmetry_space_group_name_H-M "C 2/C"
_symmetry_group_IT_number 15
_symmetry_cell_setting 'monoclinic'
loop_
_space_group_symop_operation_xyz
x,y,z
-x,y,1/2-z
-x,-y,-z
x,-y,1/2+z
1/2+x,1/2+y,z
1/2-x,1/2+y,1/2-z
1/2-x,1/2-y,-z
1/2+x,1/2-y,1/2+z
loop_
_atom_site_type_symbol
_atom_site_label
_atom_site_fract_x
_atom_site_fract_y
_atom_site_fract_z
Si Si1 0.238334 0.579961 0.220666
Si Si2 0.267827 0.865200 0.335934
Si Si3 0.755800 0.122089 0.874951
Si Si4 0.245994 0.640309 0.408541
Si Si5 0.754324 0.849220 0.579576
O O1 0.210649 0.442292 0.218611
O O2 0.491696 0.609950 0.345751
O O3 0.245962 0.618957 0.150580
O O4 0.010135 0.644134 0.158629
O O5 0.259157 0.737942 0.361041
O O6 0.519066 0.902329 0.461557
O O7 0.000000 0.904279 0.250000
O O8 0.500000 0.152317 0.750000
O O9 0.750866 0.212061 0.930986
O O10 0.757668 0.987307 0.885944
O O11 0.027952 0.150009 0.958484
#
# Coordination Sequence:
#
# PCOD9278588 Si02
#       5
#     8   8   8   8   8
#     4  11  22  42  66  98 128 174 220 276 333 401
#     4  11  23  42  68  93 138 171 218 290 329 397
#     4  10  20  44  63  88 137 170 214 281 327 408
#     4  10  25  40  66 100 126 177 227 267 349 400
#     4  10  22  43  64  92 135 170 218 279 336 398
#
# _framework density 28.125239000000001
#
# number of rings (size 3 to 8) (size 9 to 14) (size 15 to 20)
#    0.000    1.600    4.000    1.200    0.000    6.400 
#    0.000   10.000    0.000    0.000    0.000    0.000 
#    0.000    0.000    0.000    0.000    0.000    0.000 
#
# Total GULP energy -111456.031728 kJ/mol
# GULP energy per Si atom -5572.801586 kJ/mol
# Density = 2.806122 g / cm^3
# Si number density = 28.125239 Si / 1000 Ang^3
#
#
#
# Elastic Constant Matrix: (Units=GPa)
#
#
# Indices 1 2 3 4 5 6 
#
# 1 128.7721 42.1142 75.2678 0.0000 42.3060 0.0000
# 2 42.1142 191.1465 26.4816 0.0001 24.5170 0.0000
# 3 75.2678 26.4816 305.6061 0.0004 81.9082 0.0000
# 4 0.0000 0.0001 0.0004 12.2934 0.0001 7.5636
# 5 42.3060 24.5170 81.9082 0.0001 41.3819 0.0000
# 6 0.0000 0.0000 0.0000 7.5636 0.0000 26.9890
#
#
#
# Elastic Compliance Matrix: (Units=1/GPa)
#
#
# Indices 1 2 3 4 5 6 
#
# 1 0.011963 -0.001088 0.000539 0.000000 -0.012653 0.000000
# 2 -0.001088 0.005871 0.000838 0.000000 -0.004025 0.000000
# 3 0.000539 0.000838 0.007130 0.000000 -0.015160 0.000000
# 4 0.000000 0.000000 0.000000 0.098292 0.000000 -0.027546
# 5 -0.012653 -0.004025 -0.015160 0.000000 0.069492 0.000000
# 6 0.000000 0.000000 0.000000 -0.027546 0.000000 0.044772
#
#
# Mechanical properties :
#
#
# Convention : Reuss Voigt Hill
#
# Bulk Modulus (GPa) = 39.14906 101.47245 70.31075
# Shear Modulus (GPa) = 20.37021 48.24362 34.30691
#
# Velocity S-wave (km/s) = 2.69414 4.14613 3.49634
# Velocity P-wave (km/s) = 4.86083 7.68620 6.43060
#
# Compressibility (1/GPa) = 0.02554340
#
# Stress axis : x y z
#
# Youngs Moduli (GPa) = 83.58991 170.31704 140.25228
#
# Poissons Ratio (x) = 0.18523 -0.07560
# Poissons Ratio (y) = 0.09091 -0.11752
# Poissons Ratio (z) = -0.04506 -0.14271
#
# Static dielectric constant tensor:
#      x y z
#    x 2.269150 0.000000 -0.046170 
#    y 0.000000 2.310380 0.000000 
#    z -0.046170 0.000000 2.150620 
# 
# From -- ./inp_files/292411.got.cif
#   From: 2010.05.17/outbox.cif.g08.bks.cpg/sg15_147_cif.got.tgz:292411.got - 2010.06.03 18:47:42.
