data_PCOD9278740
_publ_section_title
;
Structure prediction by ZEFSAII (Michael W. Deem and Ramdas Pophale) SiO2 
 PCOD9278740
Probable space group: C 2/C
;
_chemical_formula_sum "Si O2"
_cell_formula_units_Z 52
_cell_length_a 14.807024
_cell_length_b 8.764170
_cell_length_c 19.906506
_cell_angle_alpha 90.000000
_cell_angle_beta 73.081405
_cell_angle_gamma 90.000000
_cell_volume 2471.485670
_symmetry_space_group_name_H-M "C 2/C"
_symmetry_group_IT_number 15
_symmetry_cell_setting 'monoclinic'
loop_
_space_group_symop_operation_xyz
x,y,z
-x,y,1/2-z
-x,-y,-z
x,-y,1/2+z
1/2+x,1/2+y,z
1/2-x,1/2+y,1/2-z
1/2-x,1/2-y,-z
1/2+x,1/2-y,1/2+z
loop_
_atom_site_type_symbol
_atom_site_label
_atom_site_fract_x
_atom_site_fract_y
_atom_site_fract_z
Si Si1 0.108570 0.800515 0.154308
Si Si2 0.742925 0.925367 0.015832
Si Si3 0.828057 0.634863 0.575369
Si Si4 0.930095 0.102650 0.973213
Si Si5 0.354472 0.243499 0.707230
Si Si6 0.699952 0.019408 0.179318
Si Si7 0.500000 0.439591 0.750000
O O1 0.217873 0.815990 0.106779
O O2 0.042664 0.816742 0.102776
O O3 0.111948 0.638304 0.191264
O O4 0.079848 0.944873 0.205308
O O5 0.723832 0.970739 0.097258
O O6 0.750000 0.750000 0.000000
O O7 0.670365 0.999356 0.978439
O O8 0.844720 0.990643 0.974817
O O9 0.887035 0.769211 0.529760
O O10 0.864311 0.625145 0.643200
O O11 0.000000 0.000000 0.000000
O O12 0.318733 0.136269 0.775699
O O13 0.281361 0.377258 0.698460
O O14 0.450097 0.330560 0.706576
#
# Coordination Sequence:
#
# PCOD9278740 Si02
#       7
#     8   8   8   8   8   8   4
#     4  10  21  40  67  90 131 175 223 274 335 398
#     4  11  23  40  68  99 132 173 227 275 332 401
#     4  10  20  45  66  95 127 180 222 270 335 407
#     4  11  20  40  70  98 129 172 221 278 334 394
#     4  11  24  40  66  95 134 175 226 275 337 405
#     4  11  23  44  66  97 132 183 224 269 333 417
#     4  12  26  42  62 102 134 176 222 290 342 388
#
# _framework density 21.039975999999999
#
# number of rings (size 3 to 8) (size 9 to 14) (size 15 to 20)
#    0.000    1.231    4.615    3.692    6.462    0.615 
#    0.000    2.308    0.000    0.000    0.000    0.000 
#    0.000    0.000    0.000    0.000    0.000    0.000 
#
# Total GULP energy -144927.995908 kJ/mol
# GULP energy per Si atom -5574.153689 kJ/mol
# Density = 2.099209 g / cm^3
# Si number density = 21.039976 Si / 1000 Ang^3
#
#
#
# Elastic Constant Matrix: (Units=GPa)
#
#
# Indices 1 2 3 4 5 6 
#
# 1 64.8341 47.8280 25.1094 0.0000 25.9749 0.0000
# 2 47.8280 138.5438 62.3552 0.0000 12.6914 0.0000
# 3 25.1094 62.3552 86.7109 0.0000 21.4368 0.0000
# 4 0.0000 0.0000 0.0000 39.7008 0.0000 12.5527
# 5 25.9749 12.6914 21.4368 0.0000 20.8055 0.0000
# 6 0.0000 0.0000 0.0000 12.5527 0.0000 -6.7325
#
#
#
# Elastic Compliance Matrix: (Units=1/GPa)
#
#
# Indices 1 2 3 4 5 6 
#
# 1 0.048761 -0.017388 0.014507 0.000000 -0.065217 0.000000
# 2 -0.017388 0.016928 -0.013353 0.000000 0.025141 0.000000
# 3 0.014507 -0.013353 0.026028 0.000000 -0.036784 0.000000
# 4 0.000000 0.000000 0.000000 0.015847 0.000000 0.029546
# 5 -0.065217 0.025141 -0.036784 0.000000 0.152049 0.000000
# 6 0.000000 0.000000 0.000000 0.029546 0.000000 -0.093445
#
#
# Mechanical properties :
#
#
# Convention : Reuss Voigt Hill
#
# Bulk Modulus (GPa) = 16.87814 62.29712 39.58763
# Shear Modulus (GPa) = 22.89532 21.07451 21.98491
#
# Velocity S-wave (km/s) = 3.30234 3.16830 3.23602
# Velocity P-wave (km/s) = 4.75184 6.56182 5.72876
#
# Compressibility (1/GPa) = 0.05924825
#
# Stress axis : x y z
#
# Youngs Moduli (GPa) = 20.50803 59.07523 38.42055
#
# Poissons Ratio (x) = 1.02723 -0.55738
# Poissons Ratio (y) = 0.35660 0.51303
# Poissons Ratio (z) = -0.29752 0.78883
#
# Static dielectric constant tensor:
#      x y z
#    x 1.788520 0.000000 0.042590 
#    y 0.000000 1.845190 0.000000 
#    z 0.042590 0.000000 1.883800 
# 
# From -- ./inp_files/242423.got.cif
#   From: 2010.05.17/outbox.cif.g08.bks.cpg/sg15_122_cif.got.tgz:242423.got - 2010.06.03 18:47:42.
