data_PCOD9278235
_publ_section_title
;
Structure prediction by ZEFSAII (Michael W. Deem and Ramdas Pophale) SiO2 
 PCOD9278235
Probable space group: C 2/C
;
_chemical_formula_sum "Si O2"
_cell_formula_units_Z 40
_cell_length_a 11.882171
_cell_length_b 7.321575
_cell_length_c 19.153124
_cell_angle_alpha 90.000000
_cell_angle_beta 75.378328
_cell_angle_gamma 90.000000
_cell_volume 1612.285574
_symmetry_space_group_name_H-M "C 2/C"
_symmetry_group_IT_number 15
_symmetry_cell_setting 'monoclinic'
loop_
_space_group_symop_operation_xyz
x,y,z
-x,y,1/2-z
-x,-y,-z
x,-y,1/2+z
1/2+x,1/2+y,z
1/2-x,1/2+y,1/2-z
1/2-x,1/2-y,-z
1/2+x,1/2-y,1/2+z
loop_
_atom_site_type_symbol
_atom_site_label
_atom_site_fract_x
_atom_site_fract_y
_atom_site_fract_z
Si Si1 0.288213 0.176100 0.680530
Si Si2 0.537459 0.041722 0.619770
Si Si3 0.345898 0.335291 0.432892
Si Si4 0.223460 0.898407 0.341560
Si Si5 0.880461 0.802193 0.003410
O O1 0.411192 0.076585 0.671007
O O2 0.216702 0.091359 0.627297
O O3 0.219055 0.173600 0.763839
O O4 0.306063 0.386556 0.656685
O O5 0.643819 0.118942 0.650422
O O6 0.539321 0.153077 0.546138
O O7 0.574716 0.833710 0.602025
O O8 0.250000 0.250000 0.500000
O O9 0.403592 0.500630 0.465452
O O10 0.137694 0.811270 0.411270
O O11 0.750000 0.750000 0.000000
#
# Coordination Sequence:
#
# PCOD9278235 Si02
#       5
#     8   8   8   8   8
#     4  11  24  42  69  95 133 181 217 280 351 393
#     4  10  23  43  69  97 131 173 232 279 326 413
#     4  11  21  44  64  97 132 169 225 278 330 403
#     4  10  23  42  64  97 137 172 223 278 346 406
#     4  10  20  42  68  92 136 173 216 285 328 393
#
# _framework density 24.809498999999999
#
# number of rings (size 3 to 8) (size 9 to 14) (size 15 to 20)
#    0.000    1.600    6.000    0.600    5.600    1.600 
#    3.600    0.000    4.400    0.000    0.000    0.000 
#    0.000    0.000    0.000    0.000    0.000    0.000 
#
# Total GULP energy -112090.630142 kJ/mol
# GULP energy per Si atom -5604.531507 kJ/mol
# Density = 2.475303 g / cm^3
# Si number density = 24.809499 Si / 1000 Ang^3
#
#
#
# Elastic Constant Matrix: (Units=GPa)
#
#
# Indices 1 2 3 4 5 6 
#
# 1 89.8349 13.0192 38.7244 0.0000 12.2182 0.0000
# 2 13.0192 66.2022 0.3895 0.0000 4.4428 0.0000
# 3 38.7244 0.3895 169.6792 0.0000 17.6203 0.0000
# 4 0.0000 0.0000 0.0000 37.2070 0.0000 5.3791
# 5 12.2182 4.4428 17.6203 0.0000 33.3797 0.0000
# 6 0.0000 0.0000 0.0000 5.3791 0.0000 20.3750
#
#
#
# Elastic Compliance Matrix: (Units=1/GPa)
#
#
# Indices 1 2 3 4 5 6 
#
# 1 0.013029 -0.002341 -0.002651 0.000000 -0.003058 0.000000
# 2 -0.002341 0.015668 0.000662 0.000000 -0.001578 0.000000
# 3 -0.002651 0.000662 0.006777 0.000000 -0.002695 0.000000
# 4 0.000000 0.000000 0.000000 0.027943 0.000000 -0.007377
# 5 -0.003058 -0.001578 -0.002695 0.000000 0.032711 0.000000
# 6 0.000000 0.000000 0.000000 -0.007377 0.000000 0.051027
#
#
# Mechanical properties :
#
#
# Convention : Reuss Voigt Hill
#
# Bulk Modulus (GPa) = 37.29368 47.77582 42.53475
# Shear Modulus (GPa) = 30.34847 36.43120 33.38984
#
# Velocity S-wave (km/s) = 3.50131 3.83618 3.67256
# Velocity P-wave (km/s) = 5.60448 6.23863 5.93004
#
# Compressibility (1/GPa) = 0.02681420
#
# Stress axis : x y z
#
# Youngs Moduli (GPa) = 76.74940 63.82554 147.56305
#
# Poissons Ratio (x) = 0.14945 0.39113
# Poissons Ratio (y) = 0.17971 -0.09773
# Poissons Ratio (z) = 0.20343 -0.04227
#
# Static dielectric constant tensor:
#      x y z
#    x 2.027440 0.000000 0.071070 
#    y 0.000000 1.988170 0.000000 
#    z 0.071070 0.000000 1.955090 
# 
# From -- ./inp_files/235781.got.cif
#   From: 2010.05.17/outbox.cif.g08.bks.cpg/sg15_118_cif.got.tgz:235781.got - 2010.06.03 18:47:42.
