data_PCOD9278294
_publ_section_title
;
Structure prediction by ZEFSAII (Michael W. Deem and Ramdas Pophale) SiO2 
 PCOD9278294
Probable space group: C 2/C
;
_chemical_formula_sum "Si O2"
_cell_formula_units_Z 60
_cell_length_a 15.516474
_cell_length_b 27.753247
_cell_length_c 8.733115
_cell_angle_alpha 90.000000
_cell_angle_beta 140.560837
_cell_angle_gamma 90.000000
_cell_volume 2389.057125
_symmetry_space_group_name_H-M "C 2/C"
_symmetry_group_IT_number 15
_symmetry_cell_setting 'monoclinic'
loop_
_space_group_symop_operation_xyz
x,y,z
-x,y,1/2-z
-x,-y,-z
x,-y,1/2+z
1/2+x,1/2+y,z
1/2-x,1/2+y,1/2-z
1/2-x,1/2-y,-z
1/2+x,1/2-y,1/2+z
loop_
_atom_site_type_symbol
_atom_site_label
_atom_site_fract_x
_atom_site_fract_y
_atom_site_fract_z
Si Si1 0.352300 0.637076 0.521378
Si Si2 0.777924 0.214113 0.191369
Si Si3 0.500000 0.299055 0.750000
Si Si4 0.659360 0.557622 0.480520
Si Si5 0.870077 0.361844 0.211359
Si Si6 0.802083 0.480579 0.470612
Si Si7 0.773468 0.185506 0.728093
Si Si8 0.384825 0.067766 0.375436
O O1 0.500000 0.615995 0.750000
O O2 0.366279 0.679617 0.419207
O O3 0.286872 0.663066 0.580365
O O4 0.254603 0.596768 0.322282
O O5 0.660727 0.179182 0.958807
O O6 0.731551 0.256985 0.242282
O O7 0.883801 0.227080 0.197293
O O8 0.408045 0.328996 0.507790
O O9 0.500000 0.564537 0.250000
O O10 0.746359 0.600702 0.527512
O O11 0.700539 0.509745 0.443034
O O12 0.717932 0.551215 0.733486
O O13 0.998795 0.395337 0.089261
O O14 0.852801 0.335080 0.350574
O O15 0.876129 0.521486 0.471905
O O16 0.895130 0.450731 0.715446
#
# Coordination Sequence:
#
# PCOD9278294 Si02
#       8
#     8   8   4   8   8   8   8   8
#     4  12  26  48  77 113 155 203 260 321 391 458
#     4  11  25  46  74 109 152 205 258 327 387 462
#     4  10  20  42  70 100 146 188 260 306 384 450
#     4  11  24  41  71 105 147 194 256 314 387 474
#     4  11  26  45  72 110 144 204 259 317 386 460
#     4  10  25  47  72 105 153 200 252 327 392 468
#     4  11  25  46  74 109 153 202 259 325 385 462
#     4  11  27  50  78 113 156 204 263 320 397 476
#
# _framework density 25.114508000000001
#
# number of rings (size 3 to 8) (size 9 to 14) (size 15 to 20)
#    0.000    1.067    1.333    4.000    3.733   14.933 
#    2.400    2.667    0.000    0.000    0.000    0.000 
#    0.000    0.000    0.000    0.000    0.000    0.000 
#
# Total GULP energy -167838.151474 kJ/mol
# GULP energy per Si atom -5594.605049 kJ/mol
# Density = 2.505735 g / cm^3
# Si number density = 25.114508 Si / 1000 Ang^3
#
#
#
# Elastic Constant Matrix: (Units=GPa)
#
#
# Indices 1 2 3 4 5 6 
#
# 1 98.9233 40.3538 61.8846 0.0000 1.2165 0.0000
# 2 40.3538 128.2130 64.2343 0.0000 6.3066 0.0000
# 3 61.8846 64.2343 145.8594 0.0000 3.2275 0.0000
# 4 0.0000 0.0000 0.0000 -0.6531 0.0000 -30.7893
# 5 1.2165 6.3066 3.2275 0.0000 60.1137 0.0000
# 6 0.0000 0.0000 0.0000 -30.7893 0.0000 6.7569
#
#
#
# Elastic Compliance Matrix: (Units=1/GPa)
#
#
# Indices 1 2 3 4 5 6 
#
# 1 0.014097 -0.001857 -0.005167 0.000000 0.000187 0.000000
# 2 -0.001857 0.010292 -0.003726 0.000000 -0.000842 0.000000
# 3 -0.005167 -0.003726 0.010691 0.000000 -0.000079 0.000000
# 4 0.000000 0.000000 0.000000 -0.007095 0.000000 -0.032328
# 5 0.000187 -0.000842 -0.000079 0.000000 0.016724 0.000000
# 6 0.000000 0.000000 0.000000 -0.032328 0.000000 0.000686
#
#
# Mechanical properties :
#
#
# Convention : Reuss Voigt Hill
#
# Bulk Modulus (GPa) = 73.64287 78.43790 76.04038
# Shear Modulus (GPa) = 70.00708 27.01170 48.50939
#
# Velocity S-wave (km/s) = 5.28542 3.28310 4.39968
# Velocity P-wave (km/s) = 8.16297 6.75808 7.49352
#
# Compressibility (1/GPa) = 0.01357905
#
# Stress axis : x y z
#
# Youngs Moduli (GPa) = 70.93900 97.16129 93.53883
#
# Poissons Ratio (x) = 0.18046 0.48332
# Poissons Ratio (y) = 0.13175 0.34851
# Poissons Ratio (z) = 0.36655 0.36201
#
# Static dielectric constant tensor:
#      x y z
#    x 2.100780 0.000000 -0.013540 
#    y 0.000000 2.020860 0.000000 
#    z -0.013540 0.000000 1.965240 
# 
# From -- ./inp_files/52187.got.cif
#   From: 2010.05.17/outbox.cif.g08.bks.cpg/sg15_27_cif.got.tgz:52187.got - 2010.06.03 18:47:42.
