data_PCOD9278497
_publ_section_title
;
Structure prediction by ZEFSAII (Michael W. Deem and Ramdas Pophale) SiO2 
 PCOD9278497
Probable space group: C 2/C
;
_chemical_formula_sum "Si O2"
_cell_formula_units_Z 40
_cell_length_a 32.986889
_cell_length_b 7.454630
_cell_length_c 22.634890
_cell_angle_alpha 90.000000
_cell_angle_beta 18.367458
_cell_angle_gamma 90.000000
_cell_volume 1753.913235
_symmetry_space_group_name_H-M "C 2/C"
_symmetry_group_IT_number 15
_symmetry_cell_setting 'monoclinic'
loop_
_space_group_symop_operation_xyz
x,y,z
-x,y,1/2-z
-x,-y,-z
x,-y,1/2+z
1/2+x,1/2+y,z
1/2-x,1/2+y,1/2-z
1/2-x,1/2-y,-z
1/2+x,1/2-y,1/2+z
loop_
_atom_site_type_symbol
_atom_site_label
_atom_site_fract_x
_atom_site_fract_y
_atom_site_fract_z
Si Si1 0.470265 0.784700 0.141118
Si Si2 0.882022 0.678296 0.290284
Si Si3 0.467102 0.533660 0.861054
Si Si4 0.430153 0.300311 0.560726
Si Si5 0.264682 0.019303 0.239642
O O1 0.462389 0.612690 0.194439
O O2 0.430807 0.737481 0.128734
O O3 0.393574 0.963934 0.267536
O O4 0.620424 0.843223 0.933345
O O5 0.750000 0.750000 0.500000
O O6 0.982909 0.766251 0.196199
O O7 0.929313 0.770824 0.162907
O O8 0.500000 0.479367 0.750000
O O9 0.318382 0.540355 0.085646
O O10 0.345717 0.473273 0.658608
O O11 0.348187 0.155471 0.637292
#
# Coordination Sequence:
#
# PCOD9278497 Si02
#       5
#     8   8   8   8   8
#     4  11  24  46  73 102 135 191 234 283 345 421
#     4  10  24  42  65 105 138 175 227 290 352 408
#     4  11  26  44  68 101 142 187 227 292 354 400
#     4  10  22  42  72  99 134 185 232 285 343 413
#     4  10  20  43  68 100 136 174 234 285 332 417
#
# _framework density 22.806145999999998
#
# number of rings (size 3 to 8) (size 9 to 14) (size 15 to 20)
#    0.000    1.600    2.000    2.400    5.600    4.800 
#    3.600    4.000    0.000    0.000    0.000    0.000 
#    0.000    0.000    0.000    0.000    0.000    0.000 
#
# Total GULP energy -111541.984482 kJ/mol
# GULP energy per Si atom -5577.099224 kJ/mol
# Density = 2.275424 g / cm^3
# Si number density = 22.806146 Si / 1000 Ang^3
#
#
#
# Elastic Constant Matrix: (Units=GPa)
#
#
# Indices 1 2 3 4 5 6 
#
# 1 134.8283 66.8251 43.7255 0.0000 27.7363 -0.0001
# 2 66.8251 99.8569 14.4619 0.0007 3.4984 0.0007
# 3 43.7255 14.4619 140.3486 0.0002 18.2734 -0.0003
# 4 0.0000 0.0007 0.0002 30.0998 0.0001 0.1299
# 5 27.7363 3.4984 18.2734 0.0001 28.0009 0.0000
# 6 -0.0001 0.0007 -0.0003 0.1299 0.0000 28.1659
#
#
#
# Elastic Compliance Matrix: (Units=1/GPa)
#
#
# Indices 1 2 3 4 5 6 
#
# 1 0.015513 -0.009619 -0.002183 0.000000 -0.012740 0.000000
# 2 -0.009619 0.016141 0.000389 0.000000 0.007258 0.000000
# 3 -0.002183 0.000389 0.008186 0.000000 -0.003228 0.000000
# 4 0.000000 0.000000 0.000000 0.033224 0.000000 -0.000153
# 5 -0.012740 0.007258 -0.003228 0.000000 0.049532 0.000000
# 6 0.000000 0.000000 0.000000 -0.000153 0.000000 0.035505
#
#
# Mechanical properties :
#
#
# Convention : Reuss Voigt Hill
#
# Bulk Modulus (GPa) = 58.78067 69.45096 64.11582
# Shear Modulus (GPa) = 26.79555 33.92141 30.35848
#
# Velocity S-wave (km/s) = 3.43144 3.86084 3.65246
# Velocity P-wave (km/s) = 6.44435 7.09885 6.77950
#
# Compressibility (1/GPa) = 0.01701240
#
# Stress axis : x y z
#
# Youngs Moduli (GPa) = 64.46142 61.95437 122.16714
#
# Poissons Ratio (x) = 0.59594 0.26671
# Poissons Ratio (y) = 0.62006 -0.04748
# Poissons Ratio (z) = 0.14073 -0.02408
#
# Static dielectric constant tensor:
#      x y z
#    x 1.837320 0.000000 -0.017340 
#    y 0.000000 2.120840 0.000000 
#    z -0.017340 0.000000 1.915710 
# 
# From -- ./inp_files/102773.got.cif
#   From: 2010.05.17/outbox.cif.g08.bks.cpg/sg15_52_cif.got.tgz:102773.got - 2010.06.03 18:47:42.
