data_PCOD9278925
_publ_section_title
;
Structure prediction by ZEFSAII (Michael W. Deem and Ramdas Pophale) SiO2 
 PCOD9278925
Probable space group: C 2/C
;
_chemical_formula_sum "Si O2"
_cell_formula_units_Z 56
_cell_length_a 17.814330
_cell_length_b 16.126536
_cell_length_c 11.657066
_cell_angle_alpha 90.000000
_cell_angle_beta 130.833212
_cell_angle_gamma 90.000000
_cell_volume 2533.818228
_symmetry_space_group_name_H-M "C 2/C"
_symmetry_group_IT_number 15
_symmetry_cell_setting 'monoclinic'
loop_
_space_group_symop_operation_xyz
x,y,z
-x,y,1/2-z
-x,-y,-z
x,-y,1/2+z
1/2+x,1/2+y,z
1/2-x,1/2+y,1/2-z
1/2-x,1/2-y,-z
1/2+x,1/2-y,1/2+z
loop_
_atom_site_type_symbol
_atom_site_label
_atom_site_fract_x
_atom_site_fract_y
_atom_site_fract_z
Si Si1 0.831342 0.368411 0.797040
Si Si2 0.349561 0.479422 0.905636
Si Si3 0.806651 0.211593 0.665409
Si Si4 0.659665 0.079434 0.951474
Si Si5 0.015282 0.564391 0.384430
Si Si6 0.365492 0.475895 0.174646
Si Si7 0.682414 0.123721 0.721891
O O1 0.720926 0.398153 0.653853
O O2 0.872369 0.286662 0.777626
O O3 0.906634 0.440825 0.830957
O O4 0.831917 0.359434 0.933350
O O5 0.401364 0.483262 0.831779
O O6 0.268924 0.553596 0.810969
O O7 0.406065 0.487452 0.084328
O O8 0.750000 0.250000 0.500000
O O9 0.854910 0.123165 0.684109
O O10 0.733870 0.196907 0.701647
O O11 0.651626 0.127307 0.823901
O O12 0.570663 0.018557 0.897862
O O13 0.756056 0.018864 0.050596
O O14 0.087931 0.603583 0.549309
O O15 0.000000 0.612446 0.250000
#
# Coordination Sequence:
#
# PCOD9278925 Si02
#       7
#     8   8   8   8   8   8   8
#     4  11  21  29  47  75 101 140 179 217 268 315
#     4   9  16  29  44  70  91 130 175 208 252 310
#     4  11  19  32  49  67 102 143 174 214 270 321
#     4  10  21  33  51  71 105 139 181 217 253 324
#     4  12  21  30  49  75 103 136 180 213 252 313
#     4   9  16  30  47  67  95 132 170 213 253 310
#     4  10  21  35  49  70 105 143 176 216 264 321
#
# _framework density 22.101033000000001
#
# number of rings (size 3 to 8) (size 9 to 14) (size 15 to 20)
#    0.000    1.714    5.714    3.000    2.000    0.571 
#    0.000    0.000    0.000    0.000    0.000    0.000 
#    0.000   10.286    4.286    0.429    0.000    0.000 
#
# Total GULP energy -155956.397880 kJ/mol
# GULP energy per Si atom -5569.871353 kJ/mol
# Density = 2.205073 g / cm^3
# Si number density = 22.101033 Si / 1000 Ang^3
#
#
#
# Elastic Constant Matrix: (Units=GPa)
#
#
# Indices 1 2 3 4 5 6 
#
# 1 114.2429 18.3828 48.0244 0.0000 -42.1673 0.0000
# 2 18.3828 70.0021 14.6484 0.0000 -14.2419 0.0000
# 3 48.0244 14.6484 143.8706 0.0000 -58.2554 0.0000
# 4 0.0000 0.0000 0.0000 17.9916 0.0000 -12.9325
# 5 -42.1673 -14.2419 -58.2554 0.0000 47.2812 0.0000
# 6 0.0000 0.0000 0.0000 -12.9325 0.0000 23.2353
#
#
#
# Elastic Compliance Matrix: (Units=1/GPa)
#
#
# Indices 1 2 3 4 5 6 
#
# 1 0.013165 -0.001109 0.000673 0.000000 0.012237 0.000000
# 2 -0.001109 0.015338 0.000556 0.000000 0.004317 0.000000
# 3 0.000673 0.000556 0.013930 0.000000 0.017931 0.000000
# 4 0.000000 0.000000 0.000000 0.092648 0.000000 0.051567
# 5 0.012237 0.004317 0.017931 0.000000 0.055456 0.000000
# 6 0.000000 0.000000 0.000000 0.051567 0.000000 0.071740
#
#
# Mechanical properties :
#
#
# Convention : Reuss Voigt Hill
#
# Bulk Modulus (GPa) = 23.43278 54.46964 38.95121
# Shear Modulus (GPa) = 18.09882 34.17230 26.13556
#
# Velocity S-wave (km/s) = 2.86477 3.93642 3.44255
# Velocity P-wave (km/s) = 4.64415 6.73497 5.78481
#
# Compressibility (1/GPa) = 0.04267526
#
# Stress axis : x y z
#
# Youngs Moduli (GPa) = 75.95707 65.19646 71.78832
#
# Poissons Ratio (x) = 0.07227 -0.04832
# Poissons Ratio (y) = 0.08420 -0.03994
# Poissons Ratio (z) = -0.05113 -0.03627
#
# Static dielectric constant tensor:
#      x y z
#    x 1.888720 0.000000 -0.026670 
#    y 0.000000 1.856970 0.000000 
#    z -0.026670 0.000000 1.885810 
# 
# From -- ./inp_files/113512.got.cif
#   From: 2010.05.17/outbox.cif.g08.bks.cpg/sg15_57_cif.got.tgz:113512.got - 2010.06.03 18:47:42.
