data_PCOD9278672
_publ_section_title
;
Structure prediction by ZEFSAII (Michael W. Deem and Ramdas Pophale) SiO2 
 PCOD9278672
Probable space group: C 2/C
;
_chemical_formula_sum "Si O2"
_cell_formula_units_Z 60
_cell_length_a 19.585941
_cell_length_b 22.196352
_cell_length_c 11.369041
_cell_angle_alpha 90.000000
_cell_angle_beta 145.513546
_cell_angle_gamma 90.000000
_cell_volume 2798.520363
_symmetry_space_group_name_H-M "C 2/C"
_symmetry_group_IT_number 15
_symmetry_cell_setting 'monoclinic'
loop_
_space_group_symop_operation_xyz
x,y,z
-x,y,1/2-z
-x,-y,-z
x,-y,1/2+z
1/2+x,1/2+y,z
1/2-x,1/2+y,1/2-z
1/2-x,1/2-y,-z
1/2+x,1/2-y,1/2+z
loop_
_atom_site_type_symbol
_atom_site_label
_atom_site_fract_x
_atom_site_fract_y
_atom_site_fract_z
Si Si1 0.620450 0.679859 0.216895
Si Si2 0.758139 0.111597 0.915015
Si Si3 0.455511 0.803329 0.312650
Si Si4 0.134248 0.503575 0.138696
Si Si5 0.790935 0.608347 0.101241
Si Si6 0.718515 0.220702 0.271587
Si Si7 0.500000 0.941623 0.750000
Si Si8 0.353428 0.647710 0.802728
O O1 0.672428 0.624676 0.365660
O O2 0.599935 0.736228 0.276876
O O3 0.711718 0.704492 0.248649
O O4 0.492707 0.662863 0.979045
O O5 0.639993 0.153991 0.760245
O O6 0.711120 0.045819 0.817737
O O7 0.839261 0.128978 0.918611
O O8 0.500000 0.827361 0.250000
O O9 0.577013 0.794013 0.557097
O O10 0.196386 0.566102 0.264996
O O11 0.100665 0.483247 0.958336
O O12 0.000000 0.500000 0.000000
O O13 0.743642 0.672685 0.078314
O O14 0.922950 0.600256 0.228933
O O15 0.699280 0.598515 0.862071
O O16 0.725896 0.290705 0.313038
#
# Coordination Sequence:
#
# PCOD9278672 Si02
#       8
#     8   8   8   8   8   8   4   8
#     4  11  23  39  64  98 139 177 225 269 325 399
#     4  12  21  42  67  99 134 178 218 281 332 389
#     4  11  20  36  62 101 134 168 222 275 330 383
#     4  10  23  41  68  97 129 168 219 279 337 392
#     4  11  24  42  64  99 131 174 220 275 337 398
#     4  11  23  39  64  99 134 178 220 274 327 397
#     4  10  20  44  68  96 134 168 216 284 340 400
#     4  11  24  42  67  94 139 182 221 266 337 400
#
# _framework density 21.439900000000002
#
# number of rings (size 3 to 8) (size 9 to 14) (size 15 to 20)
#    0.000    1.067    4.000    4.400    0.000    2.667 
#    6.000    0.667    2.933    0.000    0.000    0.000 
#    0.000    0.000    0.000    0.000    0.000    0.000 
#
# Total GULP energy -167321.040079 kJ/mol
# GULP energy per Si atom -5577.368003 kJ/mol
# Density = 2.139110 g / cm^3
# Si number density = 21.439900 Si / 1000 Ang^3
#
#
#
# Elastic Constant Matrix: (Units=GPa)
#
#
# Indices 1 2 3 4 5 6 
#
# 1 56.3736 8.3682 29.8736 0.0000 -5.5629 0.0000
# 2 8.3682 55.7485 19.4077 0.0000 -5.3874 0.0000
# 3 29.8736 19.4077 80.7930 0.0000 -1.3733 0.0000
# 4 0.0000 0.0000 0.0000 35.7157 0.0000 -4.7445
# 5 -5.5629 -5.3874 -1.3733 0.0000 33.5324 0.0000
# 6 0.0000 0.0000 0.0000 -4.7445 0.0000 21.4423
#
#
#
# Elastic Compliance Matrix: (Units=1/GPa)
#
#
# Indices 1 2 3 4 5 6 
#
# 1 0.022441 -0.000191 -0.008195 0.000000 0.003356 0.000000
# 2 -0.000191 0.019873 -0.004653 0.000000 0.002971 0.000000
# 3 -0.008195 -0.004653 0.016501 0.000000 -0.001431 0.000000
# 4 0.000000 0.000000 0.000000 0.028847 0.000000 0.006383
# 5 0.003356 0.002971 -0.001431 0.000000 0.030797 0.000000
# 6 0.000000 0.000000 0.000000 0.006383 0.000000 0.048049
#
#
# Mechanical properties :
#
#
# Convention : Reuss Voigt Hill
#
# Bulk Modulus (GPa) = 30.54592 34.24598 32.39595
# Shear Modulus (GPa) = 24.57031 27.15579 25.86305
#
# Velocity S-wave (km/s) = 3.38895 3.56279 3.47696
# Velocity P-wave (km/s) = 5.43980 5.73867 5.59123
#
# Compressibility (1/GPa) = 0.03273759
#
# Stress axis : x y z
#
# Youngs Moduli (GPa) = 44.56144 50.31904 60.60383
#
# Poissons Ratio (x) = 0.00963 0.49662
# Poissons Ratio (y) = 0.00853 0.28196
# Poissons Ratio (z) = 0.36516 0.23411
#
# Static dielectric constant tensor:
#      x y z
#    x 1.807680 0.000000 -0.069860 
#    y 0.000000 1.844350 0.000000 
#    z -0.069860 0.000000 1.823150 
# 
# From -- ./inp_files/114856.got.cif
#   From: 2010.05.17/outbox.cif.g08.bks.cpg/sg15_58_cif.got.tgz:114856.got - 2010.06.03 18:47:42.
