data_PCOD9278145
_publ_section_title
;
Structure prediction by ZEFSAII (Michael W. Deem and Ramdas Pophale) SiO2 
 PCOD9278145
Probable space group: C 2/C
;
_chemical_formula_sum "Si O2"
_cell_formula_units_Z 48
_cell_length_a 12.832424
_cell_length_b 11.664990
_cell_length_c 19.684066
_cell_angle_alpha 90.000000
_cell_angle_beta 42.349834
_cell_angle_gamma 90.000000
_cell_volume 1984.932701
_symmetry_space_group_name_H-M "C 2/C"
_symmetry_group_IT_number 15
_symmetry_cell_setting 'monoclinic'
loop_
_space_group_symop_operation_xyz
x,y,z
-x,y,1/2-z
-x,-y,-z
x,-y,1/2+z
1/2+x,1/2+y,z
1/2-x,1/2+y,1/2-z
1/2-x,1/2-y,-z
1/2+x,1/2-y,1/2+z
loop_
_atom_site_type_symbol
_atom_site_label
_atom_site_fract_x
_atom_site_fract_y
_atom_site_fract_z
Si Si1 0.960602 0.304834 0.169590
Si Si2 0.238083 0.177801 0.905397
Si Si3 0.385958 0.136612 0.247813
Si Si4 0.549676 0.431307 0.897768
Si Si5 0.635826 0.924146 0.903146
Si Si6 0.171413 0.896237 0.236718
O O1 0.853561 0.330944 0.286152
O O2 0.849901 0.362559 0.167947
O O3 0.137964 0.339352 0.093768
O O4 0.967511 0.170107 0.150469
O O5 0.097694 0.090282 0.984067
O O6 0.161651 0.303092 0.928980
O O7 0.500000 0.086640 0.250000
O O8 0.397290 0.102504 0.162014
O O9 0.399521 0.273832 0.244115
O O10 0.213422 0.101461 0.351909
O O11 0.576028 0.548372 0.844559
O O12 0.794192 0.000023 0.831454
O O13 0.500000 0.000000 0.000000
#
# Coordination Sequence:
#
# PCOD9278145 Si02
#       6
#     8   8   8   8   8   8
#     4  10  21  40  64  98 138 166 230 292 341 415
#     4  11  21  40  70 100 135 175 228 293 350 410
#     4  10  22  44  65  96 144 183 224 284 346 418
#     4  10  21  40  66  95 140 179 228 287 354 411
#     4  11  22  42  72  99 135 182 233 284 348 411
#     4  10  20  42  66  95 140 182 223 290 345 415
#
# _framework density 24.182179999999999
#
# number of rings (size 3 to 8) (size 9 to 14) (size 15 to 20)
#    0.000    1.667    5.000    2.500    0.000    2.000 
#   12.000    5.000    3.667    0.000    0.000    0.000 
#    0.000    0.000    0.000    0.000    0.000    0.000 
#
# Total GULP energy -133951.182276 kJ/mol
# GULP energy per Si atom -5581.299262 kJ/mol
# Density = 2.412714 g / cm^3
# Si number density = 24.182180 Si / 1000 Ang^3
#
#
#
# Elastic Constant Matrix: (Units=GPa)
#
#
# Indices 1 2 3 4 5 6 
#
# 1 122.9525 23.6043 42.3125 0.0000 -16.7240 0.0000
# 2 23.6043 145.0605 49.1734 0.0000 -5.1541 0.0000
# 3 42.3125 49.1734 156.8814 0.0000 -15.8141 0.0000
# 4 0.0000 0.0000 0.0000 48.4559 0.0000 -9.3018
# 5 -16.7240 -5.1541 -15.8141 0.0000 33.6153 0.0000
# 6 0.0000 0.0000 0.0000 -9.3018 0.0000 1.1758
#
#
#
# Elastic Compliance Matrix: (Units=1/GPa)
#
#
# Indices 1 2 3 4 5 6 
#
# 1 0.009445 -0.000748 -0.001943 0.000000 0.003670 0.000000
# 2 -0.000748 0.007773 -0.002259 0.000000 -0.000243 0.000000
# 3 -0.001943 -0.002259 0.007846 0.000000 0.002378 0.000000
# 4 0.000000 0.000000 0.000000 -0.039790 0.000000 -0.314781
# 5 0.003670 -0.000243 0.002378 0.000000 0.032656 0.000000
# 6 0.000000 0.000000 0.000000 -0.314781 0.000000 -1.639790
#
#
# Mechanical properties :
#
#
# Convention : Reuss Voigt Hill
#
# Bulk Modulus (GPa) = 65.94743 72.78610 69.36677
# Shear Modulus (GPa) = -3.11157 37.30301 17.09572
#
# Velocity S-wave (km/s) = -1.13557 3.93183 2.66175
# Velocity P-wave (km/s) = 5.06072 7.12579 6.18012
#
# Compressibility (1/GPa) = 0.01516359
#
# Stress axis : x y z
#
# Youngs Moduli (GPa) = 105.88017 128.65866 127.45207
#
# Poissons Ratio (x) = 0.09621 0.24764
# Poissons Ratio (y) = 0.07918 0.28792
# Poissons Ratio (z) = 0.20572 0.29065
#
# Static dielectric constant tensor:
#      x y z
#    x 2.016230 0.000000 0.098590 
#    y 0.000000 2.001610 0.000000 
#    z 0.098590 0.000000 1.980790 
# 
# From -- ./inp_files/243260.got.cif
#   From: 2010.05.17/outbox.cif.g08.bks.cpg/sg15_122_cif.got.tgz:243260.got - 2010.06.03 18:47:42.
