data_PCOD9278014
_publ_section_title
;
Structure prediction by ZEFSAII (Michael W. Deem and Ramdas Pophale) SiO2 
 PCOD9278014
Probable space group: C 2/C
;
_chemical_formula_sum "Si O2"
_cell_formula_units_Z 60
_cell_length_a 17.557212
_cell_length_b 15.111536
_cell_length_c 11.505210
_cell_angle_alpha 90.000000
_cell_angle_beta 107.727602
_cell_angle_gamma 90.000000
_cell_volume 2907.572102
_symmetry_space_group_name_H-M "C 2/C"
_symmetry_group_IT_number 15
_symmetry_cell_setting 'monoclinic'
loop_
_space_group_symop_operation_xyz
x,y,z
-x,y,1/2-z
-x,-y,-z
x,-y,1/2+z
1/2+x,1/2+y,z
1/2-x,1/2+y,1/2-z
1/2-x,1/2-y,-z
1/2+x,1/2-y,1/2+z
loop_
_atom_site_type_symbol
_atom_site_label
_atom_site_fract_x
_atom_site_fract_y
_atom_site_fract_z
Si Si1 0.923391 0.052874 0.910211
Si Si2 0.000000 0.818511 0.250000
Si Si3 0.238992 0.051531 0.231824
Si Si4 0.211710 0.228782 0.358967
Si Si5 0.283330 0.653523 0.486570
Si Si6 0.206383 0.377231 0.167873
Si Si7 0.926861 0.744579 0.993385
Si Si8 0.052507 0.823046 0.876685
O O1 0.952430 0.116322 0.817376
O O2 0.847259 0.995241 0.835000
O O3 0.901633 0.112273 0.013285
O O4 0.000000 0.000000 0.000000
O O5 0.953566 0.753651 0.139454
O O6 0.231571 0.130220 0.322181
O O7 0.267169 0.099956 0.127949
O O8 0.301438 0.973991 0.285126
O O9 0.250000 0.250000 0.500000
O O10 0.232329 0.302565 0.272253
O O11 0.116836 0.232933 0.335956
O O12 0.250000 0.750000 0.500000
O O13 0.277872 0.608565 0.607620
O O14 0.366682 0.671107 0.462141
O O15 0.127147 0.338603 0.068851
O O16 0.997044 0.764446 0.935533
O O17 0.000000 0.868608 0.750000
#
# Coordination Sequence:
#
# PCOD9278014 Si02
#       8
#     8   4   8   8   8   8   8   8
#     4  11  24  35  60  99 141 179 214 272 351 425
#     4  10  22  38  60  94 142 174 224 270 340 428
#     4  12  24  42  65  99 137 175 228 283 347 412
#     4  12  26  44  65 103 136 180 233 277 354 415
#     4  10  20  42  64  92 135 176 223 273 339 406
#     4  11  24  41  68  96 137 183 226 284 338 405
#     4  10  20  42  65  98 129 188 219 275 342 404
#     4  11  21  41  66  92 139 180 219 280 339 411
#
# _framework density 20.635774000000001
#
# number of rings (size 3 to 8) (size 9 to 14) (size 15 to 20)
#    0.000    1.067    4.000    4.000    6.533    1.067 
#    0.000    0.000    0.000    0.800    8.667    0.000 
#    0.000    0.000    0.000    0.000    0.000    0.000 
#
# Total GULP energy -167243.346527 kJ/mol
# GULP energy per Si atom -5574.778218 kJ/mol
# Density = 2.058881 g / cm^3
# Si number density = 20.635774 Si / 1000 Ang^3
#
#
#
# Elastic Constant Matrix: (Units=GPa)
#
#
# Indices 1 2 3 4 5 6 
#
# 1 40.2573 31.4827 20.1606 0.0000 -5.0854 0.0000
# 2 31.4827 122.5111 79.0139 0.0000 9.5974 0.0000
# 3 20.1606 79.0139 160.4807 0.0000 12.2722 0.0000
# 4 0.0000 0.0000 0.0000 49.8511 0.0000 10.4634
# 5 -5.0854 9.5974 12.2722 0.0000 33.6472 0.0000
# 6 0.0000 0.0000 0.0000 10.4634 0.0000 17.6945
#
#
#
# Elastic Compliance Matrix: (Units=1/GPa)
#
#
# Indices 1 2 3 4 5 6 
#
# 1 0.032874 -0.008800 -0.000380 0.000000 0.007617 0.000000
# 2 -0.008800 0.014372 -0.005715 0.000000 -0.003345 0.000000
# 3 -0.000380 -0.005715 0.009230 0.000000 -0.001794 0.000000
# 4 0.000000 0.000000 0.000000 0.022902 0.000000 -0.013543
# 5 0.007617 -0.003345 -0.001794 0.000000 0.032480 0.000000
# 6 0.000000 0.000000 0.000000 -0.013543 0.000000 0.064523
#
#
# Mechanical properties :
#
#
# Convention : Reuss Voigt Hill
#
# Bulk Modulus (GPa) = 37.47088 64.95148 51.21118
# Shear Modulus (GPa) = 23.24872 33.07801 28.16336
#
# Velocity S-wave (km/s) = 3.36016 4.00802 3.69831
# Velocity P-wave (km/s) = 5.76644 7.27753 6.56561
#
# Compressibility (1/GPa) = 0.02668739
#
# Stress axis : x y z
#
# Youngs Moduli (GPa) = 30.41878 69.58138 108.34434
#
# Poissons Ratio (x) = 0.61231 0.04114
# Poissons Ratio (y) = 0.26768 0.61916
# Poissons Ratio (z) = 0.01155 0.39764
#
# Static dielectric constant tensor:
#      x y z
#    x 1.809390 0.000000 0.115700 
#    y 0.000000 1.693780 0.000000 
#    z 0.115700 0.000000 1.594830 
# 
# From -- ./inp_files/105394.got.cif
#   From: 2010.05.17/outbox.cif.g08.bks.cpg/sg15_53_cif.got.tgz:105394.got - 2010.06.03 18:47:42.
