data_PCOD9278279
_publ_section_title
;
Structure prediction by ZEFSAII (Michael W. Deem and Ramdas Pophale) SiO2 
 PCOD9278279
Probable space group: C 2/C
;
_chemical_formula_sum "Si O2"
_cell_formula_units_Z 40
_cell_length_a 12.203927
_cell_length_b 7.561215
_cell_length_c 30.570056
_cell_angle_alpha 90.000000
_cell_angle_beta 141.145796
_cell_angle_gamma 90.000000
_cell_volume 1769.664611
_symmetry_space_group_name_H-M "C 2/C"
_symmetry_group_IT_number 15
_symmetry_cell_setting 'monoclinic'
loop_
_space_group_symop_operation_xyz
x,y,z
-x,y,1/2-z
-x,-y,-z
x,-y,1/2+z
1/2+x,1/2+y,z
1/2-x,1/2+y,1/2-z
1/2-x,1/2-y,-z
1/2+x,1/2-y,1/2+z
loop_
_atom_site_type_symbol
_atom_site_label
_atom_site_fract_x
_atom_site_fract_y
_atom_site_fract_z
Si Si1 0.326861 0.019530 0.917541
Si Si2 0.745578 0.148601 0.437742
Si Si3 0.122921 0.125883 0.593927
Si Si4 0.656259 0.785025 0.264209
Si Si5 0.389860 0.954106 0.342249
O O1 0.209755 0.153204 0.909079
O O2 0.290736 0.814500 0.894865
O O3 0.361298 0.118027 0.882061
O O4 0.500000 0.000000 0.000000
O O5 0.571229 0.061289 0.401679
O O6 0.913928 0.143276 0.522153
O O7 0.807728 0.026580 0.416295
O O8 0.188512 0.103432 0.663887
O O9 0.500000 0.806279 0.250000
O O10 0.729130 0.587331 0.284999
O O11 0.605819 0.838796 0.199782
#
# Coordination Sequence:
#
# PCOD9278279 Si02
#       5
#     8   8   8   8   8
#     4   9  21  40  63  98 129 162 220 271 314 388
#     4  10  20  42  69  95 128 169 221 268 328 385
#     4   9  20  40  66  93 135 162 207 290 309 377
#     4  11  24  42  60  94 137 163 220 272 315 400
#     4  11  25  41  69  95 127 185 214 260 350 384
#
# _framework density 22.603152999999999
#
# number of rings (size 3 to 8) (size 9 to 14) (size 15 to 20)
#    0.000    2.000    2.000    0.000    2.800   10.400 
#    0.000   11.000    0.000    0.000    0.000    0.000 
#    0.000    0.000    0.000    0.000    0.000    0.000 
#
# Total GULP energy -111594.946029 kJ/mol
# GULP energy per Si atom -5579.747301 kJ/mol
# Density = 2.255171 g / cm^3
# Si number density = 22.603153 Si / 1000 Ang^3
#
#
#
# Elastic Constant Matrix: (Units=GPa)
#
#
# Indices 1 2 3 4 5 6 
#
# 1 87.6086 16.2394 45.5792 0.0000 -14.4379 0.0000
# 2 16.2394 58.6096 17.2558 0.0000 -0.0962 0.0000
# 3 45.5792 17.2558 112.8201 0.0000 -16.2229 0.0000
# 4 0.0000 0.0000 0.0000 34.3399 0.0000 -5.7350
# 5 -14.4379 -0.0962 -16.2229 0.0000 26.1075 0.0000
# 6 0.0000 0.0000 0.0000 -5.7350 0.0000 30.6044
#
#
#
# Elastic Compliance Matrix: (Units=1/GPa)
#
#
# Indices 1 2 3 4 5 6 
#
# 1 0.015441 -0.002787 -0.005035 0.000000 0.005400 0.000000
# 2 -0.002787 0.018446 -0.002094 0.000000 -0.002775 0.000000
# 3 -0.005035 -0.002094 0.011878 0.000000 0.004589 0.000000
# 4 0.000000 0.000000 0.000000 0.030061 0.000000 0.005633
# 5 0.005400 -0.002775 0.004589 0.000000 0.044130 0.000000
# 6 0.000000 0.000000 0.000000 0.005633 0.000000 0.033731
#
#
# Mechanical properties :
#
#
# Convention : Reuss Voigt Hill
#
# Bulk Modulus (GPa) = 38.56277 46.35413 42.45845
# Shear Modulus (GPa) = 27.44774 30.20796 28.82785
#
# Velocity S-wave (km/s) = 3.48851 3.65971 3.57514
# Velocity P-wave (km/s) = 5.77270 6.19761 5.98892
#
# Compressibility (1/GPa) = 0.02593175
#
# Stress axis : x y z
#
# Youngs Moduli (GPa) = 64.76472 54.21136 84.18889
#
# Poissons Ratio (x) = 0.15108 0.42391
# Poissons Ratio (y) = 0.18049 0.17633
# Poissons Ratio (z) = 0.32611 0.11354
#
# Static dielectric constant tensor:
#      x y z
#    x 1.839570 0.000000 -0.002100 
#    y 0.000000 1.877700 0.000000 
#    z -0.002100 0.000000 1.907930 
# 
# From -- ./inp_files/267878.got.cif
#   From: 2010.05.17/outbox.cif.g08.bks.cpg/sg15_134_cif.got.tgz:267878.got - 2010.06.03 18:47:42.
