data_PCOD9278189
_publ_section_title
;
Structure prediction by ZEFSAII (Michael W. Deem and Ramdas Pophale) SiO2 
 PCOD9278189
Probable space group: C 2/C
;
_chemical_formula_sum "Si O2"
_cell_formula_units_Z 52
_cell_length_a 11.947375
_cell_length_b 25.736119
_cell_length_c 8.913218
_cell_angle_alpha 90.000000
_cell_angle_beta 56.030288
_cell_angle_gamma 90.000000
_cell_volume 2272.893352
_symmetry_space_group_name_H-M "C 2/C"
_symmetry_group_IT_number 15
_symmetry_cell_setting 'monoclinic'
loop_
_space_group_symop_operation_xyz
x,y,z
-x,y,1/2-z
-x,-y,-z
x,-y,1/2+z
1/2+x,1/2+y,z
1/2-x,1/2+y,1/2-z
1/2-x,1/2-y,-z
1/2+x,1/2-y,1/2+z
loop_
_atom_site_type_symbol
_atom_site_label
_atom_site_fract_x
_atom_site_fract_y
_atom_site_fract_z
Si Si1 0.134629 0.440209 0.358695
Si Si2 0.552727 0.578642 0.879487
Si Si3 0.171798 0.754610 0.905542
Si Si4 0.500000 0.144165 0.750000
Si Si5 0.278842 0.330419 0.891334
Si Si6 0.000000 0.918928 0.750000
Si Si7 0.500000 0.974326 0.750000
Si Si8 0.396895 0.699118 0.590032
O O1 0.293003 0.437180 0.237390
O O2 0.068132 0.392126 0.324323
O O3 0.088612 0.489520 0.293543
O O4 0.087285 0.442595 0.566078
O O5 0.500000 0.566625 0.750000
O O6 0.550674 0.641960 0.902944
O O7 0.498884 0.556727 0.082096
O O8 0.210784 0.805737 0.779942
O O9 0.246026 0.708069 0.763626
O O10 0.250000 0.750000 0.000000
O O11 0.011831 0.759684 0.048065
O O12 0.626907 0.169390 0.567530
O O13 0.359868 0.385010 0.846543
O O14 0.371746 0.296350 0.932164
#
# Coordination Sequence:
#
# PCOD9278189 Si02
#       8
#     8   8   8   4   8   4   4   8
#     4  10  21  44  70 105 140 181 219 278 342 420
#     4  11  22  42  69 101 137 182 235 285 343 416
#     4  12  24  40  61  88 130 176 223 291 342 393
#     4  11  22  40  73 104 130 176 240 276 342 426
#     4  11  22  41  63  92 129 177 229 285 349 409
#     4  10  20  42  67  93 134 180 220 292 355 392
#     4   9  22  44  72 101 148 174 216 274 345 426
#     4  11  24  42  59  90 129 176 229 282 347 398
#
# _framework density 22.878328
#
# number of rings (size 3 to 8) (size 9 to 14) (size 15 to 20)
#    0.000    1.231    6.154    1.846    2.154    1.231 
#    2.769    0.769    0.000    0.000    0.000    0.000 
#    0.000    0.000    0.000    0.000    0.000    0.000 
#
# Total GULP energy -144992.833599 kJ/mol
# GULP energy per Si atom -5576.647446 kJ/mol
# Density = 2.282626 g / cm^3
# Si number density = 22.878328 Si / 1000 Ang^3
#
#
#
# Elastic Constant Matrix: (Units=GPa)
#
#
# Indices 1 2 3 4 5 6 
#
# 1 138.8817 14.8258 60.9662 0.0000 12.3296 0.0000
# 2 14.8258 18.9339 25.8291 0.0000 5.4911 0.0000
# 3 60.9662 25.8291 156.1859 0.0000 32.4865 0.0000
# 4 0.0000 0.0000 0.0000 35.8954 0.0000 -5.5864
# 5 12.3296 5.4911 32.4865 0.0000 44.2299 0.0000
# 6 0.0000 0.0000 0.0000 -5.5864 0.0000 19.1032
#
#
#
# Elastic Compliance Matrix: (Units=1/GPa)
#
#
# Indices 1 2 3 4 5 6 
#
# 1 0.008807 -0.002850 -0.002986 0.000000 0.000092 0.000000
# 2 -0.002850 0.069125 -0.010268 0.000000 -0.000246 0.000000
# 3 -0.002986 -0.010268 0.010420 0.000000 -0.005546 0.000000
# 4 0.000000 0.000000 0.000000 0.029187 0.000000 0.008535
# 5 0.000092 -0.000246 -0.005546 0.000000 0.026688 0.000000
# 6 0.000000 0.000000 0.000000 0.008535 0.000000 0.054843
#
#
# Mechanical properties :
#
#
# Convention : Reuss Voigt Hill
#
# Bulk Modulus (GPa) = 17.81100 57.47154 37.64127
# Shear Modulus (GPa) = 20.00063 34.00438 27.00251
#
# Velocity S-wave (km/s) = 2.95992 3.85946 3.43923
# Velocity P-wave (km/s) = 4.41402 6.71086 5.67975
#
# Compressibility (1/GPa) = 0.05614509
#
# Stress axis : x y z
#
# Youngs Moduli (GPa) = 113.54520 14.46648 95.97242
#
# Poissons Ratio (x) = 0.04123 0.28653
# Poissons Ratio (y) = 0.32360 0.98544
# Poissons Ratio (z) = 0.33899 0.14854
#
# Static dielectric constant tensor:
#      x y z
#    x 1.823050 0.000000 0.036410 
#    y 0.000000 2.019760 0.000000 
#    z 0.036410 0.000000 1.991110 
# 
# From -- ./inp_files/34142.got.cif
#   From: 2010.05.17/outbox.cif.g08.bks.cpg/sg15_18_cif.got.tgz:34142.got - 2010.06.03 18:47:42.
