data_PCOD9278821
_publ_section_title
;
Structure prediction by ZEFSAII (Michael W. Deem and Ramdas Pophale) SiO2 
 PCOD9278821
Probable space group: C 2/C
;
_chemical_formula_sum "Si O2"
_cell_formula_units_Z 40
_cell_length_a 7.167480
_cell_length_b 13.437897
_cell_length_c 25.151269
_cell_angle_alpha 90.000000
_cell_angle_beta 45.182585
_cell_angle_gamma 90.000000
_cell_volume 1718.392116
_symmetry_space_group_name_H-M "C 2/C"
_symmetry_group_IT_number 15
_symmetry_cell_setting 'monoclinic'
loop_
_space_group_symop_operation_xyz
x,y,z
-x,y,1/2-z
-x,-y,-z
x,-y,1/2+z
1/2+x,1/2+y,z
1/2-x,1/2+y,1/2-z
1/2-x,1/2-y,-z
1/2+x,1/2-y,1/2+z
loop_
_atom_site_type_symbol
_atom_site_label
_atom_site_fract_x
_atom_site_fract_y
_atom_site_fract_z
Si Si1 0.775039 0.020930 0.250325
Si Si2 0.943420 0.113100 0.995324
Si Si3 0.382148 0.403834 0.389062
Si Si4 0.030986 0.649622 0.866602
Si Si5 0.397282 0.203389 0.341412
O O1 0.925614 0.993806 0.165547
O O2 0.609069 0.925325 0.304041
O O3 0.000000 0.033773 0.250000
O O4 0.589567 0.115521 0.287699
O O5 0.809799 0.107919 0.964501
O O6 0.223179 0.167020 0.930782
O O7 0.782349 0.163828 0.074261
O O8 0.000000 0.000000 0.000000
O O9 0.128375 0.405555 0.401490
O O10 0.527699 0.302938 0.339802
O O11 0.208005 0.748952 0.834075
#
# Coordination Sequence:
#
# PCOD9278821 Si02
#       5
#     8   8   8   8   8
#     4  10  20  48  66 103 142 185 239 294 347 432
#     4  12  22  43  69 106 138 181 235 289 347 426
#     4   9  24  43  69  96 143 181 233 285 350 422
#     4   9  22  43  68  97 140 172 239 283 344 423
#     4  10  22  45  72  97 142 187 226 293 361 405
#
# _framework density 23.277574999999999
#
# number of rings (size 3 to 8) (size 9 to 14) (size 15 to 20)
#    1.200    0.800    2.000    1.200    0.000    1.600 
#   10.800    0.000    4.400    0.000    0.000    0.000 
#    0.000    0.000    0.000    0.000    0.000    0.000 
#
# Total GULP energy -111752.338325 kJ/mol
# GULP energy per Si atom -5587.616916 kJ/mol
# Density = 2.322459 g / cm^3
# Si number density = 23.277575 Si / 1000 Ang^3
#
#
#
# Elastic Constant Matrix: (Units=GPa)
#
#
# Indices 1 2 3 4 5 6 
#
# 1 45.5328 -9.5207 15.5008 0.0010 -1.5006 0.0004
# 2 -9.5207 96.8211 23.2789 -0.0003 -9.9188 0.0009
# 3 15.5008 23.2789 60.8613 0.0000 -2.5661 0.0026
# 4 0.0010 -0.0003 0.0000 46.6895 -0.0009 -7.9854
# 5 -1.5006 -9.9188 -2.5661 -0.0009 37.3178 -0.0006
# 6 0.0004 0.0009 0.0026 -7.9854 -0.0006 29.5676
#
#
#
# Elastic Compliance Matrix: (Units=1/GPa)
#
#
# Indices 1 2 3 4 5 6 
#
# 1 0.025834 0.004715 -0.008310 0.000000 0.001720 0.000000
# 2 0.004715 0.012519 -0.005858 0.000000 0.003114 0.000000
# 3 -0.008310 -0.005858 0.020769 0.000000 -0.000463 -0.000002
# 4 0.000000 0.000000 0.000000 0.022455 0.000001 0.006065
# 5 0.001720 0.003114 -0.000463 0.000001 0.027662 0.000001
# 6 0.000000 0.000000 -0.000002 0.006065 0.000001 0.035459
#
#
# Mechanical properties :
#
#
# Convention : Reuss Voigt Hill
#
# Bulk Modulus (GPa) = 24.86684 29.08147 26.97415
# Shear Modulus (GPa) = 28.24697 34.31205 31.27951
#
# Velocity S-wave (km/s) = 3.48729 3.84349 3.66971
# Velocity P-wave (km/s) = 5.18853 5.67600 5.43773
#
# Compressibility (1/GPa) = 0.04021420
#
# Stress axis : x y z
#
# Youngs Moduli (GPa) = 38.70894 79.87573 48.14979
#
# Poissons Ratio (x) = -0.37659 0.40014
# Poissons Ratio (y) = -0.18250 0.28206
# Poissons Ratio (z) = 0.32169 0.46792
#
# Static dielectric constant tensor:
#      x y z
#    x 1.897210 0.000000 0.018650 
#    y 0.000000 1.868320 0.000000 
#    z 0.018650 0.000000 1.873720 
# 
# From -- ./inp_files/287492.got.cif
#   From: 2010.05.17/outbox.cif.g08.bks.cpg/sg15_144_cif.got.tgz:287492.got - 2010.06.03 18:47:42.
