data_PCOD9278178
_publ_section_title
;
Structure prediction by ZEFSAII (Michael W. Deem and Ramdas Pophale) SiO2 
 PCOD9278178
Probable space group: C 2/C
;
_chemical_formula_sum "Si O2"
_cell_formula_units_Z 56
_cell_length_a 14.593949
_cell_length_b 22.826393
_cell_length_c 8.544961
_cell_angle_alpha 90.000000
_cell_angle_beta 116.749988
_cell_angle_gamma 90.000000
_cell_volume 2541.917573
_symmetry_space_group_name_H-M "C 2/C"
_symmetry_group_IT_number 15
_symmetry_cell_setting 'monoclinic'
loop_
_space_group_symop_operation_xyz
x,y,z
-x,y,1/2-z
-x,-y,-z
x,-y,1/2+z
1/2+x,1/2+y,z
1/2-x,1/2+y,1/2-z
1/2-x,1/2-y,-z
1/2+x,1/2-y,1/2+z
loop_
_atom_site_type_symbol
_atom_site_label
_atom_site_fract_x
_atom_site_fract_y
_atom_site_fract_z
Si Si1 0.500000 0.636365 0.250000
Si Si2 0.311188 0.802296 0.136981
Si Si3 0.615473 0.176366 0.130753
Si Si4 0.852821 0.202653 0.373552
Si Si5 0.500000 0.728800 0.750000
Si Si6 0.674492 0.417679 0.059640
Si Si7 0.734996 0.985890 0.099315
Si Si8 0.097385 0.550803 0.235679
O O1 0.418056 0.674088 0.283313
O O2 0.560552 0.598702 0.423379
O O3 0.348353 0.771745 0.324330
O O4 0.240741 0.858086 0.118048
O O5 0.250000 0.750000 0.000000
O O6 0.390369 0.819526 0.061836
O O7 0.736389 0.179001 0.274612
O O8 0.560263 0.230070 0.173358
O O9 0.571091 0.114204 0.148529
O O10 0.914795 0.194638 0.582342
O O11 0.685949 0.453197 0.228131
O O12 0.719512 0.458328 0.955808
O O13 0.643391 0.008831 0.139530
O O14 0.687517 0.943707 0.932852
O O15 0.000000 0.524987 0.250000
#
# Coordination Sequence:
#
# PCOD9278178 Si02
#       8
#     4   8   8   8   4   8   8   8
#     4  12  22  44  72  97 129 180 230 270 330 420
#     4  10  20  42  67  91 130 177 214 272 332 393
#     4  11  22  41  61  92 130 167 214 271 322 391
#     4  11  25  41  64  97 136 173 220 271 333 404
#     4  12  26  38  60  95 135 174 216 260 338 404
#     4  11  23  42  70  95 130 176 223 275 336 398
#     4  10  24  42  63  94 132 173 220 278 335 382
#     4  11  21  40  62  90 124 168 218 271 325 392
#
# _framework density 22.030611
#
# number of rings (size 3 to 8) (size 9 to 14) (size 15 to 20)
#    0.000    1.143    5.000    1.714    4.000    1.714 
#    0.000    0.000    0.000    0.000    0.000    0.000 
#    0.000    0.000    0.000    0.000    0.000    0.000 
#
# Total GULP energy -156537.793001 kJ/mol
# GULP energy per Si atom -5590.635464 kJ/mol
# Density = 2.198047 g / cm^3
# Si number density = 22.030611 Si / 1000 Ang^3
#
#
#
# Elastic Constant Matrix: (Units=GPa)
#
#
# Indices 1 2 3 4 5 6 
#
# 1 54.5840 -5.8010 -3.9766 0.0000 10.0268 0.0000
# 2 -5.8010 67.4043 19.5765 0.0000 1.8285 0.0000
# 3 -3.9766 19.5765 104.9951 0.0000 8.3550 0.0000
# 4 0.0000 0.0000 0.0000 25.9171 0.0000 -5.2511
# 5 10.0268 1.8285 8.3550 0.0000 25.6144 0.0000
# 6 0.0000 0.0000 0.0000 -5.2511 0.0000 -18.8637
#
#
#
# Elastic Compliance Matrix: (Units=1/GPa)
#
#
# Indices 1 2 3 4 5 6 
#
# 1 0.020110 0.001631 0.001122 0.000000 -0.008355 0.000000
# 2 0.001631 0.015818 -0.002820 0.000000 -0.000848 0.000000
# 3 0.001122 -0.002820 0.010381 0.000000 -0.003624 0.000000
# 4 0.000000 0.000000 0.000000 0.036524 0.000000 -0.010167
# 5 -0.008355 -0.000848 -0.003624 0.000000 0.043554 0.000000
# 6 0.000000 0.000000 0.000000 -0.010167 0.000000 -0.050182
#
#
# Mechanical properties :
#
#
# Convention : Reuss Voigt Hill
#
# Bulk Modulus (GPa) = 21.65588 27.39792 24.52690
# Shear Modulus (GPa) = 54.50712 21.01253 37.75982
#
# Velocity S-wave (km/s) = 4.97948 3.09170 4.14450
# Velocity P-wave (km/s) = 6.55069 5.02076 5.83608
#
# Compressibility (1/GPa) = 0.04617683
#
# Stress axis : x y z
#
# Youngs Moduli (GPa) = 49.72581 63.21790 96.33020
#
# Poissons Ratio (x) = -0.10313 -0.10811
# Poissons Ratio (y) = -0.08112 0.27166
# Poissons Ratio (z) = -0.05581 0.17828
#
# Static dielectric constant tensor:
#      x y z
#    x 1.846010 0.000000 -0.006710 
#    y 0.000000 1.787860 0.000000 
#    z -0.006710 0.000000 1.850250 
# 
# From -- ./inp_files/42795.got.cif
#   From: 2010.05.17/outbox.cif.g08.bks.cpg/sg15_22_cif.got.tgz:42795.got - 2010.06.03 18:47:42.
