data_PCOD9278313
_publ_section_title
;
Structure prediction by ZEFSAII (Michael W. Deem and Ramdas Pophale) SiO2 
 PCOD9278313
Probable space group: C 2/C
;
_chemical_formula_sum "Si O2"
_cell_formula_units_Z 40
_cell_length_a 17.379854
_cell_length_b 11.930873
_cell_length_c 17.219218
_cell_angle_alpha 90.000000
_cell_angle_beta 23.730647
_cell_angle_gamma 90.000000
_cell_volume 1436.912134
_symmetry_space_group_name_H-M "C 2/C"
_symmetry_group_IT_number 15
_symmetry_cell_setting 'monoclinic'
loop_
_space_group_symop_operation_xyz
x,y,z
-x,y,1/2-z
-x,-y,-z
x,-y,1/2+z
1/2+x,1/2+y,z
1/2-x,1/2+y,1/2-z
1/2-x,1/2-y,-z
1/2+x,1/2-y,1/2+z
loop_
_atom_site_type_symbol
_atom_site_label
_atom_site_fract_x
_atom_site_fract_y
_atom_site_fract_z
Si Si1 0.140972 0.410024 0.959318
Si Si2 0.288902 0.424103 0.985769
Si Si3 0.676198 0.665132 0.501234
Si Si4 0.274210 0.358743 0.306736
Si Si5 0.541312 0.323452 0.525442
O O1 0.152393 0.392445 0.041231
O O2 0.121205 0.542879 0.963788
O O3 0.346399 0.382955 0.730125
O O4 0.013331 0.310378 0.043290
O O5 0.500000 0.425670 0.750000
O O6 0.313693 0.345359 0.037056
O O7 0.227976 0.545881 0.074210
O O8 0.750000 0.750000 0.500000
O O9 0.453811 0.629596 0.700816
O O10 0.707475 0.734535 0.392883
O O11 0.368237 0.370688 0.136068
#
# Coordination Sequence:
#
# PCOD9278313 Si02
#       5
#     8   8   8   8   8
#     4  11  23  46  65  98 136 180 224 268 332 402
#     4  10  20  42  70  91 129 180 222 265 327 398
#     4  12  22  44  69  97 130 178 224 273 332 396
#     4  12  25  42  70  99 139 173 222 280 337 392
#     4  11  24  41  70  97 136 180 218 275 338 394
#
# _framework density 27.837471000000001
#
# number of rings (size 3 to 8) (size 9 to 14) (size 15 to 20)
#    0.000    0.800    6.000    3.000    2.800    0.000 
#    3.600    2.000    0.000    0.000    0.000    0.000 
#    0.000    0.000    0.000    0.000    0.000    0.000 
#
# Total GULP energy -112100.324912 kJ/mol
# GULP energy per Si atom -5605.016246 kJ/mol
# Density = 2.777411 g / cm^3
# Si number density = 27.837471 Si / 1000 Ang^3
#
#
#
# Elastic Constant Matrix: (Units=GPa)
#
#
# Indices 1 2 3 4 5 6 
#
# 1 95.0118 35.4767 31.7782 0.0021 31.4675 -0.0018
# 2 35.4767 181.1983 20.1573 0.0073 19.0902 -0.0059
# 3 31.7782 20.1573 100.5525 0.0033 34.8694 -0.0040
# 4 0.0021 0.0073 0.0033 39.8390 -0.0023 4.9394
# 5 31.4675 19.0902 34.8694 -0.0023 54.5053 0.0020
# 6 -0.0018 -0.0059 -0.0040 4.9394 0.0020 60.4539
#
#
#
# Elastic Compliance Matrix: (Units=1/GPa)
#
#
# Indices 1 2 3 4 5 6 
#
# 1 0.013890 -0.001861 -0.001879 -0.000001 -0.006166 0.000000
# 2 -0.001861 0.006006 -0.000333 -0.000001 -0.000816 0.000001
# 3 -0.001879 -0.000333 0.013094 -0.000001 -0.007176 0.000001
# 4 -0.000001 -0.000001 -0.000001 0.025358 0.000003 -0.002072
# 5 -0.006166 -0.000816 -0.007176 0.000003 0.026783 -0.000002
# 6 0.000000 0.000001 0.000001 -0.002072 -0.000002 0.016711
#
#
# Mechanical properties :
#
#
# Convention : Reuss Voigt Hill
#
# Bulk Modulus (GPa) = 40.24903 61.28745 50.76824
# Shear Modulus (GPa) = 42.27668 50.24966 46.26317
#
# Velocity S-wave (km/s) = 3.90127 4.25327 4.08107
# Velocity P-wave (km/s) = 5.89773 6.79591 6.36269
#
# Compressibility (1/GPa) = 0.02484532
#
# Stress axis : x y z
#
# Youngs Moduli (GPa) = 71.99291 166.49448 76.37204
#
# Poissons Ratio (x) = 0.30985 0.14348
# Poissons Ratio (y) = 0.13398 0.02542
# Poissons Ratio (z) = 0.13525 0.05541
#
# Static dielectric constant tensor:
#      x y z
#    x 2.231070 0.000000 -0.090000 
#    y 0.000000 2.145390 0.000000 
#    z -0.090000 0.000000 2.165700 
# 
# From -- ./inp_files/214956.got.cif
#   From: 2010.05.17/outbox.cif.g08.bks.cpg/sg15_108_cif.got.tgz:214956.got - 2010.06.03 18:47:42.
