data_PCOD9278358
_publ_section_title
;
Structure prediction by ZEFSAII (Michael W. Deem and Ramdas Pophale) SiO2 
 PCOD9278358
Probable space group: C 2/C
;
_chemical_formula_sum "Si O2"
_cell_formula_units_Z 52
_cell_length_a 5.364583
_cell_length_b 25.084432
_cell_length_c 19.244460
_cell_angle_alpha 90.000000
_cell_angle_beta 125.438088
_cell_angle_gamma 90.000000
_cell_volume 2109.921795
_symmetry_space_group_name_H-M "C 2/C"
_symmetry_group_IT_number 15
_symmetry_cell_setting 'monoclinic'
loop_
_space_group_symop_operation_xyz
x,y,z
-x,y,1/2-z
-x,-y,-z
x,-y,1/2+z
1/2+x,1/2+y,z
1/2-x,1/2+y,1/2-z
1/2-x,1/2-y,-z
1/2+x,1/2-y,1/2+z
loop_
_atom_site_type_symbol
_atom_site_label
_atom_site_fract_x
_atom_site_fract_y
_atom_site_fract_z
Si Si1 0.405928 0.433021 0.032390
Si Si2 0.733553 0.600108 0.845183
Si Si3 0.601194 0.650873 0.088487
Si Si4 0.521007 0.989604 0.876479
Si Si5 0.904722 0.304044 0.087986
Si Si6 0.440190 0.753643 0.601414
Si Si7 0.000000 0.592782 0.250000
O O1 0.362623 0.394352 0.090464
O O2 0.662124 0.477696 0.088280
O O3 0.453279 0.399800 0.969391
O O4 0.085245 0.460829 0.959893
O O5 0.500000 0.618215 0.750000
O O6 0.784932 0.537355 0.844712
O O7 0.030467 0.635338 0.879788
O O8 0.317786 0.689329 0.017130
O O9 0.905031 0.684900 0.117112
O O10 0.702337 0.627974 0.179457
O O11 0.440391 0.946780 0.805062
O O12 0.755973 0.271991 0.127798
O O13 0.234802 0.279578 0.122424
O O14 0.250000 0.750000 0.500000
#
# Coordination Sequence:
#
# PCOD9278358 Si02
#       7
#     8   8   8   8   8   8   4
#     4  10  21  40  67  94 132 184 232 281 356 423
#     4  12  24  39  65  98 136 184 238 293 349 417
#     4  10  20  42  72 102 135 181 230 288 355 426
#     4  10  21  41  64  95 136 181 232 289 350 419
#     4  11  23  43  71 103 136 185 232 287 355 425
#     4  10  21  41  74 100 133 177 231 287 350 424
#     4  10  22  40  72 100 140 178 234 292 356 418
#
# _framework density 24.645464
#
# number of rings (size 3 to 8) (size 9 to 14) (size 15 to 20)
#    0.000    1.538    1.538    5.077    0.000    0.000 
#    4.154    0.000   16.923    0.000    0.000    0.000 
#    0.000    0.000    0.000    0.000    0.000    0.000 
#
# Total GULP energy -145070.634550 kJ/mol
# GULP energy per Si atom -5579.639790 kJ/mol
# Density = 2.458937 g / cm^3
# Si number density = 24.645464 Si / 1000 Ang^3
#
#
#
# Elastic Constant Matrix: (Units=GPa)
#
#
# Indices 1 2 3 4 5 6 
#
# 1 90.4420 19.2402 27.9961 0.0000 -3.4711 0.0000
# 2 19.2402 80.7888 27.9804 0.0000 0.5022 0.0000
# 3 27.9961 27.9804 130.8271 0.0000 10.4259 0.0000
# 4 0.0000 0.0000 0.0000 16.0348 0.0000 -11.1253
# 5 -3.4711 0.5022 10.4259 0.0000 20.8703 0.0000
# 6 0.0000 0.0000 0.0000 -11.1253 0.0000 24.8917
#
#
#
# Elastic Compliance Matrix: (Units=1/GPa)
#
#
# Indices 1 2 3 4 5 6 
#
# 1 0.012400 -0.002119 -0.002467 0.000000 0.003346 0.000000
# 2 -0.002119 0.013757 -0.002535 0.000000 0.000583 0.000000
# 3 -0.002467 -0.002535 0.009104 0.000000 -0.004897 0.000000
# 4 0.000000 0.000000 0.000000 0.090397 0.000000 0.040403
# 5 0.003346 0.000583 -0.004897 0.000000 0.050904 0.000000
# 6 0.000000 0.000000 0.000000 0.040403 0.000000 0.058232
#
#
# Mechanical properties :
#
#
# Convention : Reuss Voigt Hill
#
# Bulk Modulus (GPa) = 47.57831 50.27679 48.92755
# Shear Modulus (GPa) = 19.52802 27.48209 23.50505
#
# Velocity S-wave (km/s) = 2.81794 3.34293 3.09160
# Velocity P-wave (km/s) = 5.47126 5.94513 5.71311
#
# Compressibility (1/GPa) = 0.02101798
#
# Stress axis : x y z
#
# Youngs Moduli (GPa) = 80.64716 72.68954 109.84147
#
# Poissons Ratio (x) = 0.15407 0.27095
# Poissons Ratio (y) = 0.17093 0.27847
# Poissons Ratio (z) = 0.19894 0.18428
#
# Static dielectric constant tensor:
#      x y z
#    x 2.043370 0.000000 0.031590 
#    y 0.000000 2.096900 0.000000 
#    z 0.031590 0.000000 1.955520 
# 
# From -- ./inp_files/186310.got.cif
#   From: 2010.05.17/outbox.cif.g08.bks.cpg/sg15_94_cif.got.tgz:186310.got - 2010.06.03 18:47:42.
