data_PCOD9278465
_publ_section_title
;
Structure prediction by ZEFSAII (Michael W. Deem and Ramdas Pophale) SiO2 
 PCOD9278465
Probable space group: C 2/C
;
_chemical_formula_sum "Si O2"
_cell_formula_units_Z 52
_cell_length_a 28.733095
_cell_length_b 5.233356
_cell_length_c 14.859383
_cell_angle_alpha 90.000000
_cell_angle_beta 120.494480
_cell_angle_gamma 90.000000
_cell_volume 1925.344711
_symmetry_space_group_name_H-M "C 2/C"
_symmetry_group_IT_number 15
_symmetry_cell_setting 'monoclinic'
loop_
_space_group_symop_operation_xyz
x,y,z
-x,y,1/2-z
-x,-y,-z
x,-y,1/2+z
1/2+x,1/2+y,z
1/2-x,1/2+y,1/2-z
1/2-x,1/2-y,-z
1/2+x,1/2-y,1/2+z
loop_
_atom_site_type_symbol
_atom_site_label
_atom_site_fract_x
_atom_site_fract_y
_atom_site_fract_z
Si Si1 0.123575 0.313211 0.624459
Si Si2 0.314065 0.247783 0.125283
Si Si3 0.057201 0.932142 0.933967
Si Si4 0.134882 0.759205 0.875159
Si Si5 0.051102 0.335978 0.147990
Si Si6 0.230892 0.577673 0.679670
Si Si7 0.500000 0.808675 0.750000
O O1 0.099560 0.055444 0.556978
O O2 0.072283 0.501279 0.585313
O O3 0.171342 0.458446 0.619052
O O4 0.148867 0.266464 0.747334
O O5 0.323542 0.970655 0.093443
O O6 0.256883 0.325203 0.112248
O O7 0.334865 0.473833 0.082289
O O8 0.089420 0.720165 0.906472
O O9 0.998294 0.855573 0.911527
O O10 0.044370 0.139885 0.845808
O O11 0.102107 0.780546 0.749590
O O12 0.028014 0.533377 0.199227
O O13 0.235129 0.831021 0.747955
#
# Coordination Sequence:
#
# PCOD9278465 Si02
#       7
#     8   8   8   8   8   8   4
#     4  10  24  40  63  98 126 163 218 272 319 370
#     4  10  22  42  69  92 124 170 220 260 326 386
#     4  12  23  40  62  93 131 170 217 266 313 384
#     4  11  21  41  67  92 126 178 213 256 324 392
#     4  11  22  41  59  90 127 172 213 257 319 387
#     4  10  20  43  66  95 129 167 210 269 330 385
#     4  12  22  42  64  84 136 178 216 252 324 384
#
# _framework density 27.008150000000001
#
# number of rings (size 3 to 8) (size 9 to 14) (size 15 to 20)
#    0.000    1.231    3.077    5.077    0.000    0.615 
#   11.077    1.538    0.000    0.000    0.000    4.308 
#    0.000    0.000    0.000    0.000    0.000    0.000 
#
# Total GULP energy -145608.108815 kJ/mol
# GULP energy per Si atom -5600.311878 kJ/mol
# Density = 2.694668 g / cm^3
# Si number density = 27.008150 Si / 1000 Ang^3
#
#
#
# Elastic Constant Matrix: (Units=GPa)
#
#
# Indices 1 2 3 4 5 6 
#
# 1 169.1556 56.9206 4.6089 0.0000 6.7119 0.0000
# 2 56.9206 129.1110 18.8423 -0.0001 11.3181 -0.0001
# 3 4.6089 18.8423 80.1686 0.0000 -0.2462 0.0000
# 4 0.0000 -0.0001 0.0000 24.6181 0.0000 0.3660
# 5 6.7119 11.3181 -0.2462 0.0000 23.5932 0.0000
# 6 0.0000 -0.0001 0.0000 0.3660 0.0000 40.7033
#
#
#
# Elastic Compliance Matrix: (Units=1/GPa)
#
#
# Indices 1 2 3 4 5 6 
#
# 1 0.006956 -0.003069 0.000320 0.000000 -0.000503 0.000000
# 2 -0.003069 0.009744 -0.002125 0.000000 -0.003823 0.000000
# 3 0.000320 -0.002125 0.012958 0.000000 0.001064 0.000000
# 4 0.000000 0.000000 0.000000 0.040626 0.000000 -0.000365
# 5 -0.000503 -0.003823 0.001064 0.000000 0.044373 0.000000
# 6 0.000000 0.000000 0.000000 -0.000365 0.000000 0.024571
#
#
# Mechanical properties :
#
#
# Convention : Reuss Voigt Hill
#
# Bulk Modulus (GPa) = 50.23024 59.90876 55.06950
# Shear Modulus (GPa) = 32.13088 37.65382 34.89235
#
# Velocity S-wave (km/s) = 3.45291 3.73790 3.59823
# Velocity P-wave (km/s) = 5.87667 6.39211 6.13981
#
# Compressibility (1/GPa) = 0.01990833
#
# Stress axis : x y z
#
# Youngs Moduli (GPa) = 143.76667 102.63070 77.17169
#
# Poissons Ratio (x) = 0.31499 -0.02469
# Poissons Ratio (y) = 0.44124 0.16402
# Poissons Ratio (z) = -0.04599 0.21813
#
# Static dielectric constant tensor:
#      x y z
#    x 2.069040 0.000000 0.003700 
#    y 0.000000 2.131430 0.000000 
#    z 0.003700 0.000000 2.236740 
# 
# From -- ./inp_files/221346.got.cif
#   From: 2010.05.17/outbox.cif.g08.bks.cpg/sg15_111_cif.got.tgz:221346.got - 2010.06.03 18:47:42.
