data_PCOD9278151
_publ_section_title
;
Structure prediction by ZEFSAII (Michael W. Deem and Ramdas Pophale) SiO2 
 PCOD9278151
Probable space group: C 2/C
;
_chemical_formula_sum "Si O2"
_cell_formula_units_Z 52
_cell_length_a 17.514590
_cell_length_b 6.830878
_cell_length_c 22.695557
_cell_angle_alpha 90.000000
_cell_angle_beta 54.899273
_cell_angle_gamma 90.000000
_cell_volume 2221.499715
_symmetry_space_group_name_H-M "C 2/C"
_symmetry_group_IT_number 15
_symmetry_cell_setting 'monoclinic'
loop_
_space_group_symop_operation_xyz
x,y,z
-x,y,1/2-z
-x,-y,-z
x,-y,1/2+z
1/2+x,1/2+y,z
1/2-x,1/2+y,1/2-z
1/2-x,1/2-y,-z
1/2+x,1/2-y,1/2+z
loop_
_atom_site_type_symbol
_atom_site_label
_atom_site_fract_x
_atom_site_fract_y
_atom_site_fract_z
Si Si1 0.000000 0.822084 0.250000
Si Si2 0.868687 0.773232 0.413199
Si Si3 0.735059 0.013819 0.117025
Si Si4 0.019597 0.523669 0.060094
Si Si5 0.852964 0.766952 0.924621
Si Si6 0.327882 0.776160 0.648183
Si Si7 0.189871 0.878242 0.217744
O O1 0.055045 0.714380 0.172218
O O2 0.084124 0.929984 0.246427
O O3 0.775639 0.658220 0.434438
O O4 0.906475 0.691620 0.457378
O O5 0.868533 0.004668 0.410014
O O6 0.659544 0.849169 0.131302
O O7 0.823953 0.882339 0.096665
O O8 0.713329 0.168445 0.178017
O O9 0.066335 0.337290 0.072044
O O10 0.921914 0.613058 0.124687
O O11 0.000000 0.500000 0.000000
O O12 0.750000 0.750000 0.000000
O O13 0.297825 0.653206 0.718528
O O14 0.257473 0.952288 0.665442
#
# Coordination Sequence:
#
# PCOD9278151 Si02
#       7
#     4   8   8   8   8   8   8
#     4  10  20  42  66  96 140 178 230 286 346 432
#     4  10  23  44  70 101 136 191 239 295 356 425
#     4  10  22  41  66  99 136 181 230 288 346 428
#     4  11  26  44  69 103 145 186 239 302 352 435
#     4  11  25  47  71  98 134 189 242 292 360 429
#     4  12  23  42  65 107 142 184 236 290 369 416
#     4  11  23  39  67  97 146 184 229 294 351 429
#
# _framework density 23.407608
#
# number of rings (size 3 to 8) (size 9 to 14) (size 15 to 20)
#    0.000    1.231    3.077    2.769    0.000    6.769 
#    2.769    3.077    0.000    0.000    0.000    0.000 
#    0.000    0.000    0.000    0.000    0.000    0.000 
#
# Total GULP energy -144964.348323 kJ/mol
# GULP energy per Si atom -5575.551859 kJ/mol
# Density = 2.335433 g / cm^3
# Si number density = 23.407608 Si / 1000 Ang^3
#
#
#
# Elastic Constant Matrix: (Units=GPa)
#
#
# Indices 1 2 3 4 5 6 
#
# 1 167.1913 84.3558 21.0035 0.0000 4.4076 0.0024
# 2 84.3558 188.0943 31.9130 0.0000 3.0999 0.0041
# 3 21.0035 31.9130 35.2288 0.0000 0.6619 0.0000
# 4 0.0000 0.0000 0.0000 24.9423 -0.0002 7.8640
# 5 4.4076 3.0999 0.6619 -0.0002 48.5392 0.0001
# 6 0.0024 0.0041 0.0000 7.8640 0.0001 49.3568
#
#
#
# Elastic Compliance Matrix: (Units=1/GPa)
#
#
# Indices 1 2 3 4 5 6 
#
# 1 0.007832 -0.003207 -0.001756 0.000000 -0.000482 0.000000
# 2 -0.003207 0.007600 -0.004970 0.000000 -0.000126 -0.000001
# 3 -0.001756 -0.004970 0.033935 0.000000 0.000014 0.000000
# 4 0.000000 0.000000 0.000000 0.042213 0.000000 -0.006726
# 5 -0.000482 -0.000126 0.000014 0.000000 0.020654 0.000000
# 6 0.000000 -0.000001 0.000000 -0.006726 0.000000 0.021332
#
#
# Mechanical properties :
#
#
# Convention : Reuss Voigt Hill
#
# Bulk Modulus (GPa) = 33.89647 73.89542 53.89595
# Shear Modulus (GPa) = 30.62485 41.45047 36.03766
#
# Velocity S-wave (km/s) = 3.62101 4.21267 3.92799
# Velocity P-wave (km/s) = 5.65638 7.43637 6.60660
#
# Compressibility (1/GPa) = 0.02950160
#
# Stress axis : x y z
#
# Youngs Moduli (GPa) = 127.67408 131.57786 29.46817
#
# Poissons Ratio (x) = 0.42195 0.05174
# Poissons Ratio (y) = 0.40943 0.14647
# Poissons Ratio (z) = 0.22415 0.65400
#
# Static dielectric constant tensor:
#      x y z
#    x 1.917800 0.000000 -0.001020 
#    y 0.000000 1.857460 0.000000 
#    z -0.001020 0.000000 2.027850 
# 
# From -- ./inp_files/297689.got.cif
#   From: 2010.05.17/outbox.cif.g08.bks.cpg/sg15_149_cif.got.tgz:297689.got - 2010.06.03 18:47:42.
