data_PCOD9278522
_publ_section_title
;
Structure prediction by ZEFSAII (Michael W. Deem and Ramdas Pophale) SiO2 
 PCOD9278522
Probable space group: C 2/C
;
_chemical_formula_sum "Si O2"
_cell_formula_units_Z 48
_cell_length_a 7.856875
_cell_length_b 21.297354
_cell_length_c 19.947298
_cell_angle_alpha 90.000000
_cell_angle_beta 141.309969
_cell_angle_gamma 90.000000
_cell_volume 2086.478111
_symmetry_space_group_name_H-M "C 2/C"
_symmetry_group_IT_number 15
_symmetry_cell_setting 'monoclinic'
loop_
_space_group_symop_operation_xyz
x,y,z
-x,y,1/2-z
-x,-y,-z
x,-y,1/2+z
1/2+x,1/2+y,z
1/2-x,1/2+y,1/2-z
1/2-x,1/2-y,-z
1/2+x,1/2-y,1/2+z
loop_
_atom_site_type_symbol
_atom_site_label
_atom_site_fract_x
_atom_site_fract_y
_atom_site_fract_z
Si Si1 0.881898 0.156990 0.289890
Si Si2 0.112393 0.634566 0.965331
Si Si3 0.695912 0.207849 0.748411
Si Si4 0.000000 0.558992 0.250000
Si Si5 0.392714 0.400049 0.099978
Si Si6 0.618016 0.006618 0.420333
Si Si7 0.000000 0.008860 0.750000
O O1 0.710896 0.221662 0.239773
O O2 0.702306 0.101956 0.267780
O O3 0.000000 0.144689 0.250000
O O4 0.134661 0.165022 0.418636
O O5 0.185778 0.564468 0.962027
O O6 0.969977 0.675086 0.863088
O O7 0.882601 0.622641 0.949810
O O8 0.500000 0.218459 0.750000
O O9 0.920915 0.160565 0.845306
O O10 0.137388 0.515044 0.347156
O O11 0.534513 0.447722 0.195499
O O12 0.307631 0.440178 0.010281
O O13 0.304574 0.019343 0.350645
#
# Coordination Sequence:
#
# PCOD9278522 Si02
#       7
#     8   8   8   4   8   8   4
#     4  11  28  51  71 106 150 198 252 304 367 433
#     4  11  23  45  77 101 148 193 246 306 372 436
#     4  11  25  46  72 105 148 195 252 310 357 437
#     4  12  30  45  76 110 155 192 242 312 366 450
#     4  11  22  43  74 107 142 197 240 298 375 439
#     4  11  26  42  72 114 142 199 237 306 376 443
#     4  10  20  43  70 104 157 186 234 296 372 444
#
# _framework density 23.005275000000001
#
# number of rings (size 3 to 8) (size 9 to 14) (size 15 to 20)
#    0.000    1.000    3.333    3.500   11.667    0.667 
#    0.000    2.500    0.000    0.000    0.000    0.000 
#    0.000    0.000    0.000    0.000    0.000    0.000 
#
# Total GULP energy -134204.444388 kJ/mol
# GULP energy per Si atom -5591.851849 kJ/mol
# Density = 2.295291 g / cm^3
# Si number density = 23.005275 Si / 1000 Ang^3
#
#
#
# Elastic Constant Matrix: (Units=GPa)
#
#
# Indices 1 2 3 4 5 6 
#
# 1 66.4526 14.9513 -1.7363 -0.0001 -7.5153 0.0000
# 2 14.9513 89.0718 7.1432 0.0000 4.9506 0.0000
# 3 -1.7363 7.1432 55.5687 -0.0002 -3.3699 -0.0001
# 4 -0.0001 0.0000 -0.0002 29.7703 -0.0001 20.2486
# 5 -7.5153 4.9506 -3.3699 -0.0001 40.1633 0.0000
# 6 0.0000 0.0000 -0.0001 20.2486 0.0000 28.7591
#
#
#
# Elastic Compliance Matrix: (Units=1/GPa)
#
#
# Indices 1 2 3 4 5 6 
#
# 1 0.016144 -0.002992 0.001100 0.000000 0.003482 0.000000
# 2 -0.002992 0.011992 -0.001768 0.000000 -0.002186 0.000000
# 3 0.001100 -0.001768 0.018377 0.000000 0.001966 0.000000
# 4 0.000000 0.000000 0.000000 0.064459 0.000000 -0.045384
# 5 0.003482 -0.002186 0.001966 0.000000 0.025984 0.000000
# 6 0.000000 0.000000 0.000000 -0.045384 0.000000 0.066726
#
#
# Mechanical properties :
#
#
# Convention : Reuss Voigt Hill
#
# Bulk Modulus (GPa) = 25.51370 27.97881 26.74625
# Shear Modulus (GPa) = 22.31491 32.45418 27.38455
#
# Velocity S-wave (km/s) = 3.11785 3.76004 3.45390
# Velocity P-wave (km/s) = 4.90670 5.57125 5.24950
#
# Compressibility (1/GPa) = 0.03919463
#
# Stress axis : x y z
#
# Youngs Moduli (GPa) = 61.94273 83.38657 54.41714
#
# Poissons Ratio (x) = 0.24946 -0.05987
# Poissons Ratio (y) = 0.18531 0.09619
# Poissons Ratio (z) = -0.06815 0.14740
#
# Static dielectric constant tensor:
#      x y z
#    x 1.860130 0.000000 0.040810 
#    y 0.000000 1.922250 0.000000 
#    z 0.040810 0.000000 2.096060 
# 
# From -- ./inp_files/234022.got.cif
#   From: 2010.05.17/outbox.cif.g08.bks.cpg/sg15_118_cif.got.tgz:234022.got - 2010.06.03 18:47:42.
