data_PCOD9278498
_publ_section_title
;
Structure prediction by ZEFSAII (Michael W. Deem and Ramdas Pophale) SiO2 
 PCOD9278498
Probable space group: C 2/C
;
_chemical_formula_sum "Si O2"
_cell_formula_units_Z 64
_cell_length_a 26.720354
_cell_length_b 6.960308
_cell_length_c 24.934842
_cell_angle_alpha 90.000000
_cell_angle_beta 39.040503
_cell_angle_gamma 90.000000
_cell_volume 2920.975664
_symmetry_space_group_name_H-M "C 2/C"
_symmetry_group_IT_number 15
_symmetry_cell_setting 'monoclinic'
loop_
_space_group_symop_operation_xyz
x,y,z
-x,y,1/2-z
-x,-y,-z
x,-y,1/2+z
1/2+x,1/2+y,z
1/2-x,1/2+y,1/2-z
1/2-x,1/2-y,-z
1/2+x,1/2-y,1/2+z
loop_
_atom_site_type_symbol
_atom_site_label
_atom_site_fract_x
_atom_site_fract_y
_atom_site_fract_z
Si Si1 0.763681 0.659575 0.371495
Si Si2 0.041803 0.760945 0.570500
Si Si3 0.417354 0.905918 0.802511
Si Si4 0.137472 0.403625 0.531385
Si Si5 0.009108 0.139191 0.848124
Si Si6 0.426055 0.098734 0.591459
Si Si7 0.655267 0.733264 0.801952
Si Si8 0.131898 0.984680 0.917411
O O1 0.841504 0.549452 0.327946
O O2 0.723075 0.824484 0.441932
O O3 0.784465 0.751710 0.296916
O O4 0.691933 0.520251 0.417255
O O5 0.109037 0.611015 0.533097
O O6 0.961022 0.654292 0.620744
O O7 0.063568 0.877757 0.497863
O O8 0.020272 0.921558 0.631988
O O9 0.500000 0.016008 0.750000
O O10 0.373435 0.884969 0.895768
O O11 0.454485 0.728703 0.736697
O O12 0.066820 0.262935 0.570699
O O13 0.074280 0.161388 0.840373
O O14 0.396857 0.279630 0.581062
O O15 0.500000 0.000000 0.500000
O O16 0.360538 0.937531 0.656954
O O17 0.674514 0.585503 0.832241
#
# Coordination Sequence:
#
# PCOD9278498 Si02
#       8
#     8   8   8   8   8   8   8   8
#     4  11  25  43  67  97 138 178 226 278 344 413
#     4  12  22  38  70 104 136 180 230 272 332 414
#     4   9  22  46  76  91 124 173 224 292 350 392
#     4  11  22  43  72  98 133 179 222 287 352 397
#     4  10  20  43  68 102 133 175 231 282 327 404
#     4  12  22  38  65  97 138 189 231 263 321 401
#     4  11  24  41  63  98 143 191 227 271 328 398
#     4  12  25  38  62  98 145 182 219 273 335 396
#
# _framework density 21.910488999999998
#
# number of rings (size 3 to 8) (size 9 to 14) (size 15 to 20)
#    0.000    1.000    5.000    2.250    1.750    0.000 
#    0.000    6.250    0.000    0.000    0.000    0.000 
#    0.000    0.000    0.000    0.000    0.000    0.000 
#
# Total GULP energy -178456.676372 kJ/mol
# GULP energy per Si atom -5576.771137 kJ/mol
# Density = 2.186062 g / cm^3
# Si number density = 21.910489 Si / 1000 Ang^3
#
#
#
# Elastic Constant Matrix: (Units=GPa)
#
#
# Indices 1 2 3 4 5 6 
#
# 1 88.8600 23.6337 5.7844 0.0186 -8.8805 0.0159
# 2 23.6337 97.4524 27.1746 0.0812 -1.5789 -0.0836
# 3 5.7844 27.1746 120.3452 0.0718 13.2778 -0.0350
# 4 0.0186 0.0812 0.0718 11.7207 -0.0510 -1.5661
# 5 -8.8805 -1.5789 13.2778 -0.0510 38.6637 0.0113
# 6 0.0159 -0.0836 -0.0350 -1.5661 0.0113 9.9653
#
#
#
# Elastic Compliance Matrix: (Units=1/GPa)
#
#
# Indices 1 2 3 4 5 6 
#
# 1 0.012313 -0.002870 -0.000252 0.000008 0.002798 -0.000047
# 2 -0.002870 0.011688 -0.002579 -0.000046 0.000704 0.000086
# 3 -0.000252 -0.002579 0.009273 -0.000052 -0.003348 0.000007
# 4 0.000008 -0.000046 -0.000052 0.087150 0.000129 0.013696
# 5 0.002798 0.000704 -0.003348 0.000129 0.027685 -0.000022
# 6 -0.000047 0.000086 0.000007 0.013696 -0.000022 0.102502
#
#
# Mechanical properties :
#
#
# Convention : Reuss Voigt Hill
#
# Bulk Modulus (GPa) = 45.72212 46.64922 46.18567
# Shear Modulus (GPa) = 18.56627 28.74094 23.65361
#
# Velocity S-wave (km/s) = 2.91412 3.62573 3.28922
# Velocity P-wave (km/s) = 5.67766 6.23417 5.96241
#
# Compressibility (1/GPa) = 0.02187125
#
# Stress axis : x y z
#
# Youngs Moduli (GPa) = 81.21418 85.55653 107.83649
#
# Poissons Ratio (x) = 0.24559 0.02721
# Poissons Ratio (y) = 0.23312 0.27809
# Poissons Ratio (z) = 0.02049 0.22064
#
# Static dielectric constant tensor:
#      x y z
#    x 1.875420 0.000000 -0.029000 
#    y 0.000000 1.843050 0.000030 
#    z -0.029000 0.000030 1.841900 
# 
# From -- ./inp_files/304064.got.cif
#   From: 2010.05.17/outbox.cif.g08.bks.cpg/sg15_153_cif.got.tgz:304064.got - 2010.06.03 18:47:42.
