data_PCOD9278508
_publ_section_title
;
Structure prediction by ZEFSAII (Michael W. Deem and Ramdas Pophale) SiO2 
 PCOD9278508
Probable space group: C 2/C
;
_chemical_formula_sum "Si O2"
_cell_formula_units_Z 48
_cell_length_a 11.778490
_cell_length_b 20.232377
_cell_length_c 8.834254
_cell_angle_alpha 90.000000
_cell_angle_beta 104.770026
_cell_angle_gamma 90.000000
_cell_volume 2035.698802
_symmetry_space_group_name_H-M "C 2/C"
_symmetry_group_IT_number 15
_symmetry_cell_setting 'monoclinic'
loop_
_space_group_symop_operation_xyz
x,y,z
-x,y,1/2-z
-x,-y,-z
x,-y,1/2+z
1/2+x,1/2+y,z
1/2-x,1/2+y,1/2-z
1/2-x,1/2-y,-z
1/2+x,1/2-y,1/2+z
loop_
_atom_site_type_symbol
_atom_site_label
_atom_site_fract_x
_atom_site_fract_y
_atom_site_fract_z
Si Si1 0.515968 0.225173 0.078261
Si Si2 0.305171 0.852449 0.007864
Si Si3 0.028850 0.860850 0.934464
Si Si4 0.160131 0.934047 0.460090
Si Si5 0.855846 0.377611 0.357038
Si Si6 0.213484 0.522818 0.193013
O O1 0.500000 0.234701 0.250000
O O2 0.650204 0.207420 0.079691
O O3 0.480608 0.290110 0.974232
O O4 0.441568 0.162376 0.994444
O O5 0.362658 0.848524 0.191858
O O6 0.167978 0.858434 0.993470
O O7 0.336369 0.918511 0.924689
O O8 0.000000 0.870916 0.750000
O O9 0.964483 0.914077 0.017976
O O10 0.225456 0.875967 0.388095
O O11 0.247270 0.952068 0.629617
O O12 0.168618 0.995860 0.350527
O O13 0.867892 0.457383 0.338415
#
# Coordination Sequence:
#
# PCOD9278508 Si02
#       6
#     8   8   8   8   8   8
#     4  12  29  47  72 101 142 192 242 292 349 416
#     4  12  24  46  72 103 146 186 235 291 354 420
#     4  12  27  46  71 105 144 191 236 288 353 424
#     4  10  22  44  71 108 144 182 231 285 359 413
#     4  10  23  46  72 104 140 187 236 290 350 418
#     4  10  20  43  69 109 138 183 227 284 355 417
#
# _framework density 23.579125999999999
#
# number of rings (size 3 to 8) (size 9 to 14) (size 15 to 20)
#    1.000    0.000    3.333    3.000    2.333    2.000 
#    3.000    0.000    0.000    0.000    0.000    0.000 
#    0.000    0.000    0.000    0.000    0.000    0.000 
#
# Total GULP energy -134171.436405 kJ/mol
# GULP energy per Si atom -5590.476517 kJ/mol
# Density = 2.352546 g / cm^3
# Si number density = 23.579126 Si / 1000 Ang^3
#
#
#
# Elastic Constant Matrix: (Units=GPa)
#
#
# Indices 1 2 3 4 5 6 
#
# 1 66.5446 1.0252 24.6551 0.0000 -11.9937 0.0000
# 2 1.0252 68.3384 5.2203 0.0000 -9.0529 0.0000
# 3 24.6551 5.2203 106.3128 0.0000 -27.9466 0.0000
# 4 0.0000 0.0000 0.0000 -4.0011 0.0000 5.7120
# 5 -11.9937 -9.0529 -27.9466 0.0000 39.0426 0.0000
# 6 0.0000 0.0000 0.0000 5.7120 0.0000 16.2458
#
#
#
# Elastic Compliance Matrix: (Units=1/GPa)
#
#
# Indices 1 2 3 4 5 6 
#
# 1 0.016713 0.000384 -0.003106 0.000000 0.003000 0.000000
# 2 0.000384 0.015110 0.000149 0.000000 0.003728 0.000000
# 3 -0.003106 0.000149 0.012167 0.000000 0.007789 0.000000
# 4 0.000000 0.000000 0.000000 -0.166403 0.000000 0.058507
# 5 0.003000 0.003728 0.007789 0.000000 0.032975 0.000000
# 6 0.000000 0.000000 0.000000 0.058507 0.000000 0.040983
#
#
# Mechanical properties :
#
#
# Convention : Reuss Voigt Hill
#
# Bulk Modulus (GPa) = 25.74453 33.66636 29.70544
# Shear Modulus (GPa) = -164.68236 24.27713 -70.20261
#
# Velocity S-wave (km/s) = -8.36625 3.21222 -5.46240
# Velocity P-wave (km/s) = 9.07653 5.29782 5.21136
#
# Compressibility (1/GPa) = 0.03884321
#
# Stress axis : x y z
#
# Youngs Moduli (GPa) = 59.83313 66.18228 82.19051
#
# Poissons Ratio (x) = -0.02541 0.25531
# Poissons Ratio (y) = -0.02297 -0.01225
# Poissons Ratio (z) = 0.18586 -0.00986
#
# Static dielectric constant tensor:
#      x y z
#    x 1.983470 0.000000 0.009730 
#    y 0.000000 1.894380 0.000000 
#    z 0.009730 0.000000 1.835430 
# 
# From -- ./inp_files/32124.got.cif
#   From: 2010.05.17/outbox.cif.g08.bks.cpg/sg15_17_cif.got.tgz:32124.got - 2010.06.03 18:47:42.
