data_PCOD9278476
_publ_section_title
;
Structure prediction by ZEFSAII (Michael W. Deem and Ramdas Pophale) SiO2 
 PCOD9278476
Probable space group: C 2/C
;
_chemical_formula_sum "Si O2"
_cell_formula_units_Z 44
_cell_length_a 9.058494
_cell_length_b 11.385770
_cell_length_c 24.412127
_cell_angle_alpha 90.000000
_cell_angle_beta 122.948108
_cell_angle_gamma 90.000000
_cell_volume 2112.859467
_symmetry_space_group_name_H-M "C 2/C"
_symmetry_group_IT_number 15
_symmetry_cell_setting 'monoclinic'
loop_
_space_group_symop_operation_xyz
x,y,z
-x,y,1/2-z
-x,-y,-z
x,-y,1/2+z
1/2+x,1/2+y,z
1/2-x,1/2+y,1/2-z
1/2-x,1/2-y,-z
1/2+x,1/2-y,1/2+z
loop_
_atom_site_type_symbol
_atom_site_label
_atom_site_fract_x
_atom_site_fract_y
_atom_site_fract_z
Si Si1 0.971387 0.156889 0.526302
Si Si2 0.981055 0.494851 0.665784
Si Si3 0.131782 0.916452 0.731573
Si Si4 0.500000 0.806280 0.250000
Si Si5 0.933333 0.579882 0.036232
Si Si6 0.381968 0.424928 0.894699
O O1 0.014291 0.288562 0.553436
O O2 0.775737 0.111927 0.505419
O O3 0.093606 0.055193 0.575036
O O4 0.968857 0.154582 0.459234
O O5 0.933880 0.614130 0.687394
O O6 0.980407 0.491176 0.600462
O O7 0.827763 0.402208 0.649892
O O8 0.175399 0.469021 0.726764
O O9 0.000000 0.972074 0.750000
O O10 0.143731 0.781957 0.754349
O O11 0.054066 0.919747 0.654639
O O12 0.000000 0.500000 0.000000
#
# Coordination Sequence:
#
# PCOD9278476 Si02
#       6
#     8   8   8   4   8   8
#     4   9  22  41  61  96 127 169 212 263 320 379
#     4  11  22  43  63  94 128 169 213 260 328 377
#     4  10  24  38  64  95 122 166 214 265 317 384
#     4  10  24  40  62  92 130 160 214 264 318 384
#     4  10  23  38  65  95 130 166 217 263 312 388
#     4  10  20  43  67  88 133 168 210 270 321 376
#
# _framework density 20.824859
#
# number of rings (size 3 to 8) (size 9 to 14) (size 15 to 20)
#    0.545    1.455    1.818    0.000    7.636    0.000 
#    0.000    4.545    2.000    0.000    0.000    0.000 
#    0.000    0.000    0.000    0.000    0.000    0.000 
#
# Total GULP energy -122557.968604 kJ/mol
# GULP energy per Si atom -5570.816755 kJ/mol
# Density = 2.077746 g / cm^3
# Si number density = 20.824859 Si / 1000 Ang^3
#
#
#
# Elastic Constant Matrix: (Units=GPa)
#
#
# Indices 1 2 3 4 5 6 
#
# 1 55.5719 8.7480 49.9388 0.0000 -26.7812 0.0000
# 2 8.7480 65.9697 23.9768 0.0000 -10.1976 0.0000
# 3 49.9388 23.9768 97.0018 0.0000 -35.2560 0.0000
# 4 0.0000 0.0000 0.0000 16.7080 0.0000 -7.3875
# 5 -26.7812 -10.1976 -35.2560 0.0000 50.9305 0.0000
# 6 0.0000 0.0000 0.0000 -7.3875 0.0000 16.0618
#
#
#
# Elastic Compliance Matrix: (Units=1/GPa)
#
#
# Indices 1 2 3 4 5 6 
#
# 1 0.036166 0.002370 -0.016195 0.000000 0.008281 0.000000
# 2 0.002370 0.016826 -0.004946 0.000000 0.001191 0.000000
# 3 -0.016195 -0.004946 0.021932 0.000000 0.005676 0.000000
# 4 0.000000 0.000000 0.000000 0.075130 0.000000 0.034556
# 5 0.008281 0.001191 0.005676 0.000000 0.028157 0.000000
# 6 0.000000 0.000000 0.000000 0.034556 0.000000 0.078153
#
#
# Mechanical properties :
#
#
# Convention : Reuss Voigt Hill
#
# Bulk Modulus (GPa) = 26.75071 42.65228 34.70150
# Shear Modulus (GPa) = 16.32027 25.79871 21.05949
#
# Velocity S-wave (km/s) = 2.80249 3.52354 3.18349
# Velocity P-wave (km/s) = 4.83170 6.08931 5.49659
#
# Compressibility (1/GPa) = 0.03738218
#
# Stress axis : x y z
#
# Youngs Moduli (GPa) = 27.65031 59.43154 45.59481
#
# Poissons Ratio (x) = -0.14088 0.73841
# Poissons Ratio (y) = -0.06554 0.22553
# Poissons Ratio (z) = 0.44780 0.29397
#
# Static dielectric constant tensor:
#      x y z
#    x 1.824030 0.000000 0.021530 
#    y 0.000000 1.762270 0.000000 
#    z 0.021530 0.000000 1.787660 
# 
# From -- ./inp_files/263603.got.cif
#   From: 2010.05.17/outbox.cif.g08.bks.cpg/sg15_132_cif.got.tgz:263603.got - 2010.06.03 18:47:42.
