data_PCOD9278433
_publ_section_title
;
Structure prediction by ZEFSAII (Michael W. Deem and Ramdas Pophale) SiO2 
 PCOD9278433
Probable space group: C 2/C
;
_chemical_formula_sum "Si O2"
_cell_formula_units_Z 48
_cell_length_a 11.534415
_cell_length_b 7.679671
_cell_length_c 23.213751
_cell_angle_alpha 90.000000
_cell_angle_beta 110.190659
_cell_angle_gamma 90.000000
_cell_volume 1929.925756
_symmetry_space_group_name_H-M "C 2/C"
_symmetry_group_IT_number 15
_symmetry_cell_setting 'monoclinic'
loop_
_space_group_symop_operation_xyz
x,y,z
-x,y,1/2-z
-x,-y,-z
x,-y,1/2+z
1/2+x,1/2+y,z
1/2-x,1/2+y,1/2-z
1/2-x,1/2-y,-z
1/2+x,1/2-y,1/2+z
loop_
_atom_site_type_symbol
_atom_site_label
_atom_site_fract_x
_atom_site_fract_y
_atom_site_fract_z
Si Si1 0.248763 0.269239 0.344939
Si Si2 0.505067 0.160260 0.075542
Si Si3 0.504111 0.674249 0.146788
Si Si4 0.266082 0.907412 0.273972
Si Si5 0.609546 0.310758 0.341396
Si Si6 0.883373 0.293214 0.441281
O O1 0.368726 0.269169 0.404786
O O2 0.126917 0.265261 0.362455
O O3 0.246627 0.418935 0.296626
O O4 0.259598 0.089332 0.308162
O O5 0.459431 0.166188 0.133463
O O6 0.543511 0.967909 0.064196
O O7 0.406851 0.231405 0.012694
O O8 0.610354 0.793208 0.193987
O O9 0.474068 0.483039 0.165954
O O10 0.548545 0.656775 0.088642
O O11 0.151871 0.800079 0.282863
O O12 0.742384 0.321690 0.397591
#
# Coordination Sequence:
#
# PCOD9278433 Si02
#       6
#     8   8   8   8   8   8
#     4  11  23  42  62  93 122 164 206 252 308 363
#     4  11  22  41  65  91 126 161 207 254 306 365
#     4  10  20  43  64  87 128 159 202 258 303 361
#     4  10  23  42  62  89 128 160 205 257 301 363
#     4  10  22  42  63  92 124 162 204 251 312 361
#     4  10  22  44  62  91 128 160 203 260 301 365
#
# _framework density 24.871423
#
# number of rings (size 3 to 8) (size 9 to 14) (size 15 to 20)
#    0.000    1.667    5.000    1.000    2.333    3.333 
#    6.000    0.000    0.000    0.000    0.000    0.000 
#    0.000    0.000    0.000    0.000    0.000    0.000 
#
# Total GULP energy -134154.097596 kJ/mol
# GULP energy per Si atom -5589.754067 kJ/mol
# Density = 2.481481 g / cm^3
# Si number density = 24.871423 Si / 1000 Ang^3
#
#
#
# Elastic Constant Matrix: (Units=GPa)
#
#
# Indices 1 2 3 4 5 6 
#
# 1 129.0343 42.2590 5.6779 0.0000 -2.9148 0.0000
# 2 42.2590 88.3279 11.0399 0.0000 -2.8132 0.0000
# 3 5.6779 11.0399 65.5590 0.0000 2.0421 0.0000
# 4 0.0000 0.0000 0.0000 22.3349 0.0000 -4.1258
# 5 -2.9148 -2.8132 2.0421 0.0000 34.8138 0.0000
# 6 0.0000 0.0000 0.0000 -4.1258 0.0000 36.8125
#
#
#
# Elastic Compliance Matrix: (Units=1/GPa)
#
#
# Indices 1 2 3 4 5 6 
#
# 1 0.009196 -0.004377 -0.000072 0.000000 0.000420 0.000000
# 2 -0.004377 0.013687 -0.001952 0.000000 0.000854 0.000000
# 3 -0.000072 -0.001952 0.015622 0.000000 -0.001080 0.000000
# 4 0.000000 0.000000 0.000000 0.045719 0.000000 0.005124
# 5 0.000420 0.000854 -0.001080 0.000000 0.028892 0.000000
# 6 0.000000 0.000000 0.000000 0.005124 0.000000 0.027739
#
#
# Mechanical properties :
#
#
# Convention : Reuss Voigt Hill
#
# Bulk Modulus (GPa) = 38.90888 44.54165 41.72526
# Shear Modulus (GPa) = 30.82110 33.72188 32.27149
#
# Velocity S-wave (km/s) = 3.52407 3.68618 3.60604
# Velocity P-wave (km/s) = 5.67774 6.00540 5.84387
#
# Compressibility (1/GPa) = 0.02570107
#
# Stress axis : x y z
#
# Youngs Moduli (GPa) = 108.74132 73.06252 64.01182
#
# Poissons Ratio (x) = 0.31982 0.00464
# Poissons Ratio (y) = 0.47599 0.12497
# Poissons Ratio (z) = 0.00788 0.14264
#
# Static dielectric constant tensor:
#      x y z
#    x 1.941310 0.000000 0.023700 
#    y 0.000000 2.091230 0.000000 
#    z 0.023700 0.000000 2.039540 
# 
# From -- ./inp_files/267797.got.cif
#   From: 2010.05.17/outbox.cif.g08.bks.cpg/sg15_134_cif.got.tgz:267797.got - 2010.06.03 18:47:42.
