data_PCOD9278572
_publ_section_title
;
Structure prediction by ZEFSAII (Michael W. Deem and Ramdas Pophale) SiO2 
 PCOD9278572
Probable space group: C 2/C
;
_chemical_formula_sum "Si O2"
_cell_formula_units_Z 56
_cell_length_a 18.372672
_cell_length_b 20.244126
_cell_length_c 8.617751
_cell_angle_alpha 90.000000
_cell_angle_beta 127.618138
_cell_angle_gamma 90.000000
_cell_volume 2538.886946
_symmetry_space_group_name_H-M "C 2/C"
_symmetry_group_IT_number 15
_symmetry_cell_setting 'monoclinic'
loop_
_space_group_symop_operation_xyz
x,y,z
-x,y,1/2-z
-x,-y,-z
x,-y,1/2+z
1/2+x,1/2+y,z
1/2-x,1/2+y,1/2-z
1/2-x,1/2-y,-z
1/2+x,1/2-y,1/2+z
loop_
_atom_site_type_symbol
_atom_site_label
_atom_site_fract_x
_atom_site_fract_y
_atom_site_fract_z
Si Si1 0.108092 0.927702 0.911817
Si Si2 0.252842 0.618838 0.141121
Si Si3 0.771940 0.745881 0.208787
Si Si4 0.708408 0.473963 0.340207
Si Si5 0.461387 0.221319 0.361570
Si Si6 0.900593 0.583218 0.119765
Si Si7 0.864681 0.662879 0.779405
O O1 0.163443 0.877322 0.873444
O O2 0.136061 0.998770 0.871826
O O3 0.000000 0.918258 0.750000
O O4 0.154417 0.930475 0.142670
O O5 0.258463 0.673180 0.278259
O O6 0.255344 0.542531 0.190449
O O7 0.163223 0.638036 0.924557
O O8 0.881077 0.756383 0.350283
O O9 0.716470 0.795715 0.244443
O O10 0.750000 0.750000 0.000000
O O11 0.801785 0.554632 0.035645
O O12 0.500000 0.252472 0.250000
O O13 0.419830 0.150906 0.242429
O O14 0.544979 0.206631 0.584156
O O15 0.000000 0.546744 0.250000
O O16 0.883146 0.601704 0.917444
#
# Coordination Sequence:
#
# PCOD9278572 Si02
#       7
#     8   8   8   8   8   8   8
#     4  10  22  41  64  91 131 169 214 271 319 385
#     4  10  25  39  61  97 125 167 218 261 331 386
#     4  12  22  40  67  87 125 168 219 267 321 388
#     4  10  21  40  66  90 133 167 220 259 330 386
#     4   9  20  37  66  94 126 166 211 264 328 381
#     4   9  17  35  64  93 127 167 209 265 318 384
#     4  10  20  44  61  90 136 165 210 272 326 380
#
# _framework density 22.056910999999999
#
# number of rings (size 3 to 8) (size 9 to 14) (size 15 to 20)
#    0.857    1.429    4.286    0.857    2.000    0.571 
#    5.143    2.143    6.286    0.000    0.000    0.000 
#    0.000    0.000    0.000    0.000    0.000    0.000 
#
# Total GULP energy -156008.529821 kJ/mol
# GULP energy per Si atom -5571.733208 kJ/mol
# Density = 2.200671 g / cm^3
# Si number density = 22.056911 Si / 1000 Ang^3
#
#
#
# Elastic Constant Matrix: (Units=GPa)
#
#
# Indices 1 2 3 4 5 6 
#
# 1 75.3256 8.0549 41.8627 0.0000 34.4784 0.0000
# 2 8.0549 39.5040 26.7264 0.0000 0.1163 0.0000
# 3 41.8627 26.7264 105.6553 0.0000 24.5606 0.0000
# 4 0.0000 0.0000 0.0000 19.4622 0.0000 -8.7258
# 5 34.4784 0.1163 24.5606 0.0000 44.2021 0.0000
# 6 0.0000 0.0000 0.0000 -8.7258 0.0000 32.0224
#
#
#
# Elastic Compliance Matrix: (Units=1/GPa)
#
#
# Indices 1 2 3 4 5 6 
#
# 1 0.023382 -0.001019 -0.005475 0.000000 -0.015193 0.000000
# 2 -0.001019 0.031513 -0.008880 0.000000 0.005646 0.000000
# 3 -0.005475 -0.008880 0.014793 0.000000 -0.003926 0.000000
# 4 0.000000 0.000000 0.000000 0.058532 0.000000 0.015949
# 5 -0.015193 0.005646 -0.003926 0.000000 0.036641 0.000000
# 6 0.000000 0.000000 0.000000 0.015949 0.000000 0.035574
#
#
# Mechanical properties :
#
#
# Convention : Reuss Voigt Hill
#
# Bulk Modulus (GPa) = 25.68063 41.53032 33.60547
# Shear Modulus (GPa) = 20.47814 28.72673 24.60244
#
# Velocity S-wave (km/s) = 3.05031 3.61278 3.34339
# Velocity P-wave (km/s) = 4.90653 6.02267 5.49302
#
# Compressibility (1/GPa) = 0.03893986
#
# Stress axis : x y z
#
# Youngs Moduli (GPa) = 42.76851 31.73298 67.60022
#
# Poissons Ratio (x) = 0.03233 0.37009
# Poissons Ratio (y) = 0.04358 0.60031
# Poissons Ratio (z) = 0.23414 0.28180
#
# Static dielectric constant tensor:
#      x y z
#    x 1.857480 0.000000 0.012400 
#    y 0.000000 1.858410 0.000000 
#    z 0.012400 0.000000 1.860700 
# 
# From -- ./inp_files/51566.got.cif
#   From: 2010.05.17/outbox.cif.g08.bks.cpg/sg15_26_cif.got.tgz:51566.got - 2010.06.03 18:47:42.
