data_PCOD9278493
_publ_section_title
;
Structure prediction by ZEFSAII (Michael W. Deem and Ramdas Pophale) SiO2 
 PCOD9278493
Probable space group: C 2/C
;
_chemical_formula_sum "Si O2"
_cell_formula_units_Z 48
_cell_length_a 18.156035
_cell_length_b 16.664813
_cell_length_c 7.830781
_cell_angle_alpha 90.000000
_cell_angle_beta 113.619864
_cell_angle_gamma 90.000000
_cell_volume 2170.841621
_symmetry_space_group_name_H-M "C 2/C"
_symmetry_group_IT_number 15
_symmetry_cell_setting 'monoclinic'
loop_
_space_group_symop_operation_xyz
x,y,z
-x,y,1/2-z
-x,-y,-z
x,-y,1/2+z
1/2+x,1/2+y,z
1/2-x,1/2+y,1/2-z
1/2-x,1/2-y,-z
1/2+x,1/2-y,1/2+z
loop_
_atom_site_type_symbol
_atom_site_label
_atom_site_fract_x
_atom_site_fract_y
_atom_site_fract_z
Si Si1 0.851401 0.186186 0.325552
Si Si2 0.319050 0.113543 0.300790
Si Si3 0.550041 0.819346 0.975871
Si Si4 0.902023 0.232220 0.988926
Si Si5 0.411050 0.983106 0.594984
Si Si6 0.005001 0.908581 0.959627
O O1 0.775630 0.127811 0.273314
O O2 0.867276 0.268814 0.442983
O O3 0.926533 0.133721 0.457876
O O4 0.863924 0.213878 0.139017
O O5 0.347546 0.205290 0.340233
O O6 0.353915 0.066727 0.170614
O O7 0.362671 0.060802 0.488498
O O8 0.500000 0.815562 0.750000
O O9 0.488920 0.777889 0.054241
O O10 0.569566 0.912604 0.026113
O O11 0.918899 0.145643 0.919782
O O12 0.500000 0.000532 0.750000
O O13 0.000000 0.900471 0.750000
O O14 0.000000 0.000000 0.000000
#
# Coordination Sequence:
#
# PCOD9278493 Si02
#       6
#     8   8   8   8   8   8
#     4  10  24  41  66 100 133 173 222 281 351 398
#     4  12  25  44  64 105 138 176 226 287 354 396
#     4  10  20  43  67  98 129 176 233 274 330 407
#     4  10  21  42  67  92 134 179 229 269 338 420
#     4  11  25  43  67  97 138 181 232 276 339 412
#     4   9  20  39  61  89 121 171 218 263 322 400
#
# _framework density 22.111239999999999
#
# number of rings (size 3 to 8) (size 9 to 14) (size 15 to 20)
#    0.000    1.667    3.333    2.500    2.333    8.000 
#    3.000    0.000    0.000    0.000    0.000    0.000 
#    0.000    0.000    0.000    0.000    0.000    0.000 
#
# Total GULP energy -133723.179364 kJ/mol
# GULP energy per Si atom -5571.799140 kJ/mol
# Density = 2.206091 g / cm^3
# Si number density = 22.111240 Si / 1000 Ang^3
#
#
#
# Elastic Constant Matrix: (Units=GPa)
#
#
# Indices 1 2 3 4 5 6 
#
# 1 93.3832 28.1624 34.5126 0.0000 -1.7077 0.0000
# 2 28.1624 136.6368 35.9837 0.0000 7.8043 0.0000
# 3 34.5126 35.9837 41.8112 0.0000 -2.6937 0.0000
# 4 0.0000 0.0000 0.0000 40.7609 0.0000 3.1674
# 5 -1.7077 7.8043 -2.6937 0.0000 32.0572 0.0000
# 6 0.0000 0.0000 0.0000 3.1674 0.0000 14.5588
#
#
#
# Elastic Compliance Matrix: (Units=1/GPa)
#
#
# Indices 1 2 3 4 5 6 
#
# 1 0.015418 0.000256 -0.012969 0.000000 -0.000331 0.000000
# 2 0.000256 0.009765 -0.008815 0.000000 -0.003104 0.000000
# 3 -0.012969 -0.008815 0.042533 0.000000 0.005029 0.000000
# 4 0.000000 0.000000 0.000000 0.024955 0.000000 -0.005429
# 5 -0.000331 -0.003104 0.005029 0.000000 0.032355 0.000000
# 6 0.000000 0.000000 0.000000 -0.005429 0.000000 0.069868
#
#
# Mechanical properties :
#
#
# Convention : Reuss Voigt Hill
#
# Bulk Modulus (GPa) = 40.55130 52.12761 46.33946
# Shear Modulus (GPa) = 20.31124 29.02022 24.66573
#
# Velocity S-wave (km/s) = 3.03412 3.62673 3.34358
# Velocity P-wave (km/s) = 5.53661 6.41591 5.99241
#
# Compressibility (1/GPa) = 0.02466012
#
# Stress axis : x y z
#
# Youngs Moduli (GPa) = 64.85853 102.40995 23.51139
#
# Poissons Ratio (x) = -0.02626 0.30491
# Poissons Ratio (y) = -0.01663 0.20726
# Poissons Ratio (z) = 0.84113 0.90278
#
# Static dielectric constant tensor:
#      x y z
#    x 1.932000 0.000000 -0.001040 
#    y 0.000000 1.860670 0.000000 
#    z -0.001040 0.000000 1.906720 
# 
# From -- ./inp_files/49868.got.cif
#   From: 2010.05.17/outbox.cif.g08.bks.cpg/sg15_25_cif.got.tgz:49868.got - 2010.06.03 18:47:42.
