data_PCOD9278581
_publ_section_title
;
Structure prediction by ZEFSAII (Michael W. Deem and Ramdas Pophale) SiO2 
 PCOD9278581
Probable space group: C 2/C
;
_chemical_formula_sum "Si O2"
_cell_formula_units_Z 36
_cell_length_a 11.902203
_cell_length_b 7.956290
_cell_length_c 20.294387
_cell_angle_alpha 90.000000
_cell_angle_beta 48.133478
_cell_angle_gamma 90.000000
_cell_volume 1431.186406
_symmetry_space_group_name_H-M "C 2/C"
_symmetry_group_IT_number 15
_symmetry_cell_setting 'monoclinic'
loop_
_space_group_symop_operation_xyz
x,y,z
-x,y,1/2-z
-x,-y,-z
x,-y,1/2+z
1/2+x,1/2+y,z
1/2-x,1/2+y,1/2-z
1/2-x,1/2-y,-z
1/2+x,1/2-y,1/2+z
loop_
_atom_site_type_symbol
_atom_site_label
_atom_site_fract_x
_atom_site_fract_y
_atom_site_fract_z
Si Si1 0.826231 0.575102 0.707663
Si Si2 0.189983 0.022194 0.072742
Si Si3 0.471887 0.232578 0.968347
Si Si4 0.535686 0.714464 0.874597
Si Si5 0.500000 0.284962 0.750000
O O1 0.653146 0.580010 0.797471
O O2 0.892701 0.390036 0.674769
O O3 0.868513 0.680029 0.625306
O O4 0.918561 0.669456 0.728579
O O5 0.111194 0.126751 0.043674
O O6 0.124952 0.103982 0.164647
O O7 0.365404 0.066767 0.002160
O O8 0.126664 0.835385 0.090609
O O9 0.471252 0.289436 0.043737
#
# Coordination Sequence:
#
# PCOD9278581 Si02
#       5
#     8   8   8   8   4
#     4  11  24  42  66 100 135 182 228 286 344 411
#     4  10  22  40  70  93 132 184 222 286 348 402
#     4  10  22  44  66  97 139 177 229 286 343 412
#     4  12  24  43  69 101 136 182 233 281 347 414
#     4  10  20  44  62  92 138 174 228 280 340 412
#
# _framework density 25.153957999999999
#
# number of rings (size 3 to 8) (size 9 to 14) (size 15 to 20)
#    0.000    1.333    2.222    4.000    0.000    1.778 
#    0.000    0.000    0.000    0.000    0.000    0.000 
#    0.000    0.000    0.000    0.000    0.000    0.000 
#
# Total GULP energy -100974.359593 kJ/mol
# GULP energy per Si atom -5609.686644 kJ/mol
# Density = 2.509671 g / cm^3
# Si number density = 25.153958 Si / 1000 Ang^3
#
#
#
# Elastic Constant Matrix: (Units=GPa)
#
#
# Indices 1 2 3 4 5 6 
#
# 1 81.7230 26.6302 53.1277 0.0000 5.3655 0.0000
# 2 26.6302 90.2938 44.5281 0.0000 9.2551 0.0000
# 3 53.1277 44.5281 169.1789 0.0000 11.8831 0.0000
# 4 0.0000 0.0000 0.0000 40.3671 0.0000 -11.3621
# 5 5.3655 9.2551 11.8831 0.0000 47.7942 0.0000
# 6 0.0000 0.0000 0.0000 -11.3621 0.0000 44.0375
#
#
#
# Elastic Compliance Matrix: (Units=1/GPa)
#
#
# Indices 1 2 3 4 5 6 
#
# 1 0.015874 -0.002538 -0.004302 0.000000 -0.000221 0.000000
# 2 -0.002538 0.013263 -0.002579 0.000000 -0.001642 0.000000
# 3 -0.004302 -0.002579 0.008011 0.000000 -0.001010 0.000000
# 4 0.000000 0.000000 0.000000 0.026713 0.000000 0.006892
# 5 -0.000221 -0.001642 -0.001010 0.000000 0.021517 0.000000
# 6 0.000000 0.000000 0.000000 0.006892 0.000000 0.024486
#
#
# Mechanical properties :
#
#
# Convention : Reuss Voigt Hill
#
# Bulk Modulus (GPa) = 54.60577 65.52973 60.06775
# Shear Modulus (GPa) = 37.09057 40.90043 38.99550
#
# Velocity S-wave (km/s) = 3.84414 4.03675 3.94162
# Velocity P-wave (km/s) = 6.43887 6.91629 6.68185
#
# Compressibility (1/GPa) = 0.01831308
#
# Stress axis : x y z
#
# Youngs Moduli (GPa) = 62.99453 75.39540 124.82290
#
# Poissons Ratio (x) = 0.19134 0.53694
# Poissons Ratio (y) = 0.15987 0.32187
# Poissons Ratio (z) = 0.27098 0.19442
#
# Static dielectric constant tensor:
#      x y z
#    x 1.941930 0.000000 -0.008070 
#    y 0.000000 2.032280 0.000000 
#    z -0.008070 0.000000 1.974340 
# 
# From -- ./inp_files/149904.got.cif
#   From: 2010.05.17/outbox.cif.g08.bks.cpg/sg15_75_cif.got.tgz:149904.got - 2010.06.03 18:47:42.
