data_PCOD9278093
_publ_section_title
;
Structure prediction by ZEFSAII (Michael W. Deem and Ramdas Pophale) SiO2 
 PCOD9278093
Probable space group: C 2/C
;
_chemical_formula_sum "Si O2"
_cell_formula_units_Z 52
_cell_length_a 8.872709
_cell_length_b 24.114988
_cell_length_c 11.719713
_cell_angle_alpha 90.000000
_cell_angle_beta 85.381664
_cell_angle_gamma 90.000000
_cell_volume 2499.469760
_symmetry_space_group_name_H-M "C 2/C"
_symmetry_group_IT_number 15
_symmetry_cell_setting 'monoclinic'
loop_
_space_group_symop_operation_xyz
x,y,z
-x,y,1/2-z
-x,-y,-z
x,-y,1/2+z
1/2+x,1/2+y,z
1/2-x,1/2+y,1/2-z
1/2-x,1/2-y,-z
1/2+x,1/2-y,1/2+z
loop_
_atom_site_type_symbol
_atom_site_label
_atom_site_fract_x
_atom_site_fract_y
_atom_site_fract_z
Si Si1 0.939783 0.175360 0.432010
Si Si2 0.350691 0.577632 0.598464
Si Si3 0.270175 0.323076 0.722482
Si Si4 0.148375 0.474064 0.543181
Si Si5 0.694794 0.601748 0.645540
Si Si6 0.901331 0.776741 0.370729
Si Si7 0.500000 0.096492 0.250000
O O1 0.850900 0.126254 0.503139
O O2 0.845410 0.200636 0.333277
O O3 0.091990 0.151166 0.360428
O O4 0.993563 0.219191 0.524091
O O5 0.276479 0.520607 0.559603
O O6 0.527266 0.577944 0.624838
O O7 0.270764 0.592722 0.723262
O O8 0.196704 0.277547 0.643886
O O9 0.137345 0.362724 0.775862
O O10 0.200636 0.430019 0.447096
O O11 0.000000 0.500000 0.500000
O O12 0.088394 0.442436 0.657282
O O13 0.694693 0.666972 0.620487
O O14 0.000000 0.782279 0.250000
#
# Coordination Sequence:
#
# PCOD9278093 Si02
#       7
#     8   8   8   8   8   8   4
#     4  10  22  42  67  96 128 170 224 260 316 394
#     4  10  20  42  66  88 121 168 218 267 309 378
#     4  11  24  41  66  98 132 171 213 268 327 382
#     4  12  25  40  61  94 131 169 209 268 334 379
#     4  10  21  41  67  91 120 169 222 260 312 387
#     4  11  20  43  68  95 131 170 213 266 322 378
#     4  12  24  42  60  96 136 168 212 272 326 382
#
# _framework density 20.804411000000002
#
# number of rings (size 3 to 8) (size 9 to 14) (size 15 to 20)
#    0.000    1.231    3.846    4.615    0.000    0.615 
#    0.000    7.692    0.000    0.000    0.000    0.000 
#    0.000    0.000    0.000    0.000    0.000    0.000 
#
# Total GULP energy -145043.758703 kJ/mol
# GULP energy per Si atom -5578.606104 kJ/mol
# Density = 2.075706 g / cm^3
# Si number density = 20.804411 Si / 1000 Ang^3
#
#
#
# Elastic Constant Matrix: (Units=GPa)
#
#
# Indices 1 2 3 4 5 6 
#
# 1 50.8589 37.3283 31.4660 0.0000 3.9100 0.0000
# 2 37.3283 95.0914 34.7323 0.0000 -4.8385 0.0000
# 3 31.4660 34.7323 132.2261 0.0000 0.0908 0.0000
# 4 0.0000 0.0000 0.0000 31.0083 0.0000 -9.3617
# 5 3.9100 -4.8385 0.0908 0.0000 31.2363 0.0000
# 6 0.0000 0.0000 0.0000 -9.3617 0.0000 22.8082
#
#
#
# Elastic Compliance Matrix: (Units=1/GPa)
#
#
# Indices 1 2 3 4 5 6 
#
# 1 0.030715 -0.010694 -0.004496 0.000000 -0.005488 0.000000
# 2 -0.010694 0.015459 -0.001518 0.000000 0.003738 0.000000
# 3 -0.004496 -0.001518 0.009031 0.000000 0.000301 0.000000
# 4 0.000000 0.000000 0.000000 0.036811 0.000000 0.015109
# 5 -0.005488 0.003738 0.000301 0.000000 0.033279 0.000000
# 6 0.000000 0.000000 0.000000 0.015109 0.000000 0.050045
#
#
# Mechanical properties :
#
#
# Convention : Reuss Voigt Hill
#
# Bulk Modulus (GPa) = 45.89765 53.91441 49.90603
# Shear Modulus (GPa) = 23.14580 28.65389 25.89985
#
# Velocity S-wave (km/s) = 3.33910 3.71522 3.53217
# Velocity P-wave (km/s) = 6.08075 6.66146 6.37772
#
# Compressibility (1/GPa) = 0.02178761
#
# Stress axis : x y z
#
# Youngs Moduli (GPa) = 32.55716 64.68723 110.72421
#
# Poissons Ratio (x) = 0.69178 0.49787
# Poissons Ratio (y) = 0.34817 0.16812
# Poissons Ratio (z) = 0.14639 0.09822
#
# Static dielectric constant tensor:
#      x y z
#    x 1.779590 0.000000 -0.008090 
#    y 0.000000 1.757470 0.000000 
#    z -0.008090 0.000000 1.749960 
# 
# From -- ./inp_files/80701.got.cif
#   From: 2010.05.17/outbox.cif.g08.bks.cpg/sg15_41_cif.got.tgz:80701.got - 2010.06.03 18:47:42.
