data_PCOD9278954
_publ_section_title
;
Structure prediction by ZEFSAII (Michael W. Deem and Ramdas Pophale) SiO2 
 PCOD9278954
Probable space group: C 2/C
;
_chemical_formula_sum "Si O2"
_cell_formula_units_Z 60
_cell_length_a 5.232728
_cell_length_b 19.948817
_cell_length_c 30.386304
_cell_angle_alpha 90.000000
_cell_angle_beta 85.992301
_cell_angle_gamma 90.000000
_cell_volume 3164.170596
_symmetry_space_group_name_H-M "C 2/C"
_symmetry_group_IT_number 15
_symmetry_cell_setting 'monoclinic'
loop_
_space_group_symop_operation_xyz
x,y,z
-x,y,1/2-z
-x,-y,-z
x,-y,1/2+z
1/2+x,1/2+y,z
1/2-x,1/2+y,1/2-z
1/2-x,1/2-y,-z
1/2+x,1/2-y,1/2+z
loop_
_atom_site_type_symbol
_atom_site_label
_atom_site_fract_x
_atom_site_fract_y
_atom_site_fract_z
Si Si1 0.035986 0.524337 0.050049
Si Si2 0.350905 0.752095 0.076095
Si Si3 0.047310 0.889819 0.547674
Si Si4 0.000000 0.676919 0.750000
Si Si5 0.218174 0.424104 0.119207
Si Si6 0.325858 0.820290 0.164368
Si Si7 0.414896 0.574179 0.705548
Si Si8 0.117792 0.828356 0.451225
O O1 0.314220 0.558304 0.048813
O O2 0.049993 0.466968 0.087155
O O3 0.803259 0.575204 0.062619
O O4 0.000000 0.500000 0.000000
O O5 0.440327 0.675787 0.073143
O O6 0.255000 0.771102 0.126170
O O7 0.604534 0.794230 0.059001
O O8 0.109994 0.774117 0.049080
O O9 0.110978 0.864588 0.497855
O O10 0.101188 0.716121 0.790995
O O11 0.210580 0.626465 0.727876
O O12 0.312785 0.462196 0.162404
O O13 0.423210 0.385800 0.085625
O O14 0.058572 0.362936 0.141582
O O15 0.128603 0.877318 0.181884
O O16 0.500000 0.537095 0.750000
#
# Coordination Sequence:
#
# PCOD9278954 Si02
#       8
#     8   8   8   4   8   8   8   8
#     4  12  26  40  58  78 118 162 206 248 278 342
#     4  11  22  37  58  86 116 153 191 242 294 353
#     4  12  25  40  56  83 116 162 206 241 285 340
#     4   8  16  30  48  90 110 142 168 230 296 370
#     4  10  21  33  55  83 115 151 198 235 304 337
#     4   9  18  31  56  82 116 141 182 234 300 351
#     4   9  16  31  54  84 118 136 180 234 302 359
#     4  11  21  36  60  82 116 152 194 246 290 341
#
# _framework density 18.962313999999999
#
# number of rings (size 3 to 8) (size 9 to 14) (size 15 to 20)
#    0.000    1.600    2.667    2.800    3.733    0.000 
#    0.000    0.000    0.000    0.000    1.733    0.000 
#    0.000    0.000    0.000    0.000    0.000    0.000 
#
# Total GULP energy -167095.985196 kJ/mol
# GULP energy per Si atom -5569.866173 kJ/mol
# Density = 1.891915 g / cm^3
# Si number density = 18.962314 Si / 1000 Ang^3
#
#
#
# Elastic Constant Matrix: (Units=GPa)
#
#
# Indices 1 2 3 4 5 6 
#
# 1 56.9819 -5.0570 0.9289 0.0000 -4.4098 0.0000
# 2 -5.0570 34.4542 18.8088 0.0000 4.5903 0.0000
# 3 0.9289 18.8088 117.0312 0.0000 20.3366 0.0000
# 4 0.0000 0.0000 0.0000 10.2496 0.0000 0.3035
# 5 -4.4098 4.5903 20.3366 0.0000 24.1786 0.0000
# 6 0.0000 0.0000 0.0000 0.3035 0.0000 32.1256
#
#
#
# Elastic Compliance Matrix: (Units=1/GPa)
#
#
# Indices 1 2 3 4 5 6 
#
# 1 0.018119 0.002840 -0.001266 0.000000 0.003830 0.000000
# 2 0.002840 0.032346 -0.004971 0.000000 -0.001442 0.000000
# 3 -0.001266 -0.004971 0.010810 0.000000 -0.008379 0.000000
# 4 0.000000 0.000000 0.000000 0.097592 0.000000 -0.000922
# 5 0.003830 -0.001442 -0.008379 0.000000 0.049379 0.000000
# 6 0.000000 0.000000 0.000000 -0.000922 0.000000 0.031137
#
#
# Mechanical properties :
#
#
# Convention : Reuss Voigt Hill
#
# Bulk Modulus (GPa) = 18.35461 26.42540 22.39001
# Shear Modulus (GPa) = 18.91536 26.22987 22.57261
#
# Velocity S-wave (km/s) = 3.16179 3.72326 3.45395
# Velocity P-wave (km/s) = 4.79893 5.69645 5.26684
#
# Compressibility (1/GPa) = 0.05448222
#
# Stress axis : x y z
#
# Youngs Moduli (GPa) = 55.19211 30.91531 92.50971
#
# Poissons Ratio (x) = -0.08780 0.11710
# Poissons Ratio (y) = -0.15675 0.45982
# Poissons Ratio (z) = 0.06986 0.15366
#
# Static dielectric constant tensor:
#      x y z
#    x 1.622280 0.000000 0.272580 
#    y 0.000000 1.678380 0.000000 
#    z 0.272580 0.000000 1.464310 
# 
# From -- ./inp_files/305637.got.cif
#   From: 2010.05.17/outbox.cif.g08.bks.cpg/sg15_153_cif.got.tgz:305637.got - 2010.06.03 18:47:42.
