data_PCOD9278228
_publ_section_title
;
Structure prediction by ZEFSAII (Michael W. Deem and Ramdas Pophale) SiO2 
 PCOD9278228
Probable space group: C 2/C
;
_chemical_formula_sum "Si O2"
_cell_formula_units_Z 60
_cell_length_a 8.729085
_cell_length_b 14.940937
_cell_length_c 23.443411
_cell_angle_alpha 90.000000
_cell_angle_beta 67.538858
_cell_angle_gamma 90.000000
_cell_volume 2825.560360
_symmetry_space_group_name_H-M "C 2/C"
_symmetry_group_IT_number 15
_symmetry_cell_setting 'monoclinic'
loop_
_space_group_symop_operation_xyz
x,y,z
-x,y,1/2-z
-x,-y,-z
x,-y,1/2+z
1/2+x,1/2+y,z
1/2-x,1/2+y,1/2-z
1/2-x,1/2-y,-z
1/2+x,1/2-y,1/2+z
loop_
_atom_site_type_symbol
_atom_site_label
_atom_site_fract_x
_atom_site_fract_y
_atom_site_fract_z
Si Si1 0.328586 0.419766 0.646015
Si Si2 0.993927 0.094084 0.836217
Si Si3 0.140619 0.174349 0.542853
Si Si4 0.490665 0.741994 0.321874
Si Si5 0.730770 0.685851 0.947683
Si Si6 0.197257 0.015546 0.470491
Si Si7 0.000000 0.468567 0.750000
Si Si8 0.721428 0.902304 0.291790
O O1 0.416732 0.516904 0.640118
O O2 0.454316 0.350089 0.656141
O O3 0.278375 0.419479 0.587226
O O4 0.156521 0.415235 0.704528
O O5 0.912205 0.173027 0.883919
O O6 0.842051 0.054267 0.821228
O O7 0.144796 0.125394 0.775322
O O8 0.250000 0.250000 0.500000
O O9 0.230354 0.078339 0.519879
O O10 0.963754 0.180576 0.537140
O O11 0.500000 0.739047 0.250000
O O12 0.324410 0.776369 0.377874
O O13 0.626502 0.813988 0.322875
O O14 0.781388 0.581736 0.953159
O O15 0.750000 0.750000 0.000000
O O16 0.000000 0.000000 0.500000
O O17 0.082535 0.532315 0.786088
#
# Coordination Sequence:
#
# PCOD9278228 Si02
#       8
#     8   8   8   8   8   8   4   8
#     4  11  23  42  66  96 132 172 226 273 341 403
#     4  10  22  41  68  92 133 172 214 278 343 399
#     4  11  24  43  68  98 135 171 224 281 343 399
#     4  12  25  40  68  98 136 176 233 284 336 407
#     4  11  24  44  70  98 131 184 232 276 344 415
#     4  10  20  42  68  92 128 178 216 271 338 404
#     4  10  22  42  64  92 126 174 214 274 334 404
#     4  10  22  40  67  93 128 173 216 272 348 401
#
# _framework density 21.234725999999998
#
# number of rings (size 3 to 8) (size 9 to 14) (size 15 to 20)
#    0.000    1.333    3.333    3.200    7.467    1.067 
#    2.400    2.000    0.000    0.000    0.000    0.000 
#    0.000    0.000    0.000    0.000    0.000    0.000 
#
# Total GULP energy -167182.255666 kJ/mol
# GULP energy per Si atom -5572.741856 kJ/mol
# Density = 2.118639 g / cm^3
# Si number density = 21.234726 Si / 1000 Ang^3
#
#
#
# Elastic Constant Matrix: (Units=GPa)
#
#
# Indices 1 2 3 4 5 6 
#
# 1 77.1584 18.7567 16.3899 0.0000 -7.4552 0.0000
# 2 18.7567 67.0131 35.0502 0.0000 -25.1011 0.0000
# 3 16.3899 35.0502 96.9834 0.0000 -12.9196 0.0000
# 4 0.0000 0.0000 0.0000 30.6331 0.0000 -4.3230
# 5 -7.4552 -25.1011 -12.9196 0.0000 29.1376 0.0000
# 6 0.0000 0.0000 0.0000 -4.3230 0.0000 30.5998
#
#
#
# Elastic Compliance Matrix: (Units=1/GPa)
#
#
# Indices 1 2 3 4 5 6 
#
# 1 0.014016 -0.003190 -0.001173 0.000000 0.000317 0.000000
# 2 -0.003190 0.026289 -0.006434 0.000000 0.018978 0.000000
# 3 -0.001173 -0.006434 0.012813 0.000000 -0.000161 0.000000
# 4 0.000000 0.000000 0.000000 0.033309 0.000000 0.004706
# 5 0.000317 0.018978 -0.000161 0.000000 0.050679 0.000000
# 6 0.000000 0.000000 0.000000 0.004706 0.000000 0.033345
#
#
# Mechanical properties :
#
#
# Convention : Reuss Voigt Hill
#
# Bulk Modulus (GPa) = 31.72261 42.39427 37.05844
# Shear Modulus (GPa) = 24.68496 29.47131 27.07813
#
# Velocity S-wave (km/s) = 3.41322 3.72947 3.57484
# Velocity P-wave (km/s) = 5.52312 6.20912 5.87614
#
# Compressibility (1/GPa) = 0.03152325
#
# Stress axis : x y z
#
# Youngs Moduli (GPa) = 71.34794 38.03854 78.04582
#
# Poissons Ratio (x) = 0.12136 0.09157
# Poissons Ratio (y) = 0.22763 0.50212
# Poissons Ratio (z) = 0.08371 0.24473
#
# Static dielectric constant tensor:
#      x y z
#    x 1.769390 0.000000 0.088980 
#    y 0.000000 1.822860 0.000000 
#    z 0.088980 0.000000 1.982910 
# 
# From -- ./inp_files/264675.got.cif
#   From: 2010.05.17/outbox.cif.g08.bks.cpg/sg15_133_cif.got.tgz:264675.got - 2010.06.03 18:47:42.
