data_PCOD9278530
_publ_section_title
;
Structure prediction by ZEFSAII (Michael W. Deem and Ramdas Pophale) SiO2 
 PCOD9278530
Probable space group: C 2/C
;
_chemical_formula_sum "Si O2"
_cell_formula_units_Z 40
_cell_length_a 6.012463
_cell_length_b 16.957095
_cell_length_c 16.475029
_cell_angle_alpha 90.000000
_cell_angle_beta 70.147789
_cell_angle_gamma 90.000000
_cell_volume 1579.872233
_symmetry_space_group_name_H-M "C 2/C"
_symmetry_group_IT_number 15
_symmetry_cell_setting 'monoclinic'
loop_
_space_group_symop_operation_xyz
x,y,z
-x,y,1/2-z
-x,-y,-z
x,-y,1/2+z
1/2+x,1/2+y,z
1/2-x,1/2+y,1/2-z
1/2-x,1/2-y,-z
1/2+x,1/2-y,1/2+z
loop_
_atom_site_type_symbol
_atom_site_label
_atom_site_fract_x
_atom_site_fract_y
_atom_site_fract_z
Si Si1 0.432150 0.959896 0.129762
Si Si2 0.000000 0.753082 0.250000
Si Si3 0.500000 0.531832 0.250000
Si Si4 0.696738 0.433257 0.988589
Si Si5 0.540932 0.667390 0.374701
Si Si6 0.201651 0.686684 0.655855
O O1 0.627922 0.893186 0.121355
O O2 0.574660 0.039052 0.091153
O O3 0.284579 0.932677 0.069411
O O4 0.237588 0.979349 0.222281
O O5 0.778765 0.699773 0.302745
O O6 0.937100 0.805237 0.179246
O O7 0.478569 0.588994 0.330841
O O8 0.595647 0.354879 0.960355
O O9 0.500000 0.500000 0.000000
O O10 0.343427 0.734486 0.390390
O O11 0.000000 0.690987 0.750000
#
# Coordination Sequence:
#
# PCOD9278530 Si02
#       6
#     8   4   4   8   8   8
#     4  11  27  44  69 106 142 187 231 294 350 421
#     4  10  20  43  70  97 142 174 246 286 347 410
#     4  12  22  45  76 107 136 182 244 292 353 412
#     4  11  25  45  68 101 150 185 232 283 362 424
#     4  11  22  42  71 100 134 188 229 294 344 418
#     4  10  24  41  67 104 138 178 235 295 346 408
#
# _framework density 25.318503
#
# number of rings (size 3 to 8) (size 9 to 14) (size 15 to 20)
#    0.000    1.200    5.000    1.200    2.800    7.200 
#    0.000    2.000    0.000    0.000    0.000    0.000 
#    0.000    0.000    0.000    0.000    0.000    0.000 
#
# Total GULP energy -112039.427526 kJ/mol
# GULP energy per Si atom -5601.971376 kJ/mol
# Density = 2.526088 g / cm^3
# Si number density = 25.318503 Si / 1000 Ang^3
#
#
#
# Elastic Constant Matrix: (Units=GPa)
#
#
# Indices 1 2 3 4 5 6 
#
# 1 121.3417 54.7956 31.0896 0.0000 17.4130 0.0000
# 2 54.7956 120.7247 35.7199 0.0000 20.9960 0.0000
# 3 31.0896 35.7199 48.3693 0.0000 10.6011 0.0000
# 4 0.0000 0.0000 0.0000 37.1865 0.0000 8.8504
# 5 17.4130 20.9960 10.6011 0.0000 58.1338 0.0000
# 6 0.0000 0.0000 0.0000 8.8504 0.0000 35.0396
#
#
#
# Elastic Compliance Matrix: (Units=1/GPa)
#
#
# Indices 1 2 3 4 5 6 
#
# 1 0.011122 -0.003576 -0.004230 0.000000 -0.001269 0.000000
# 2 -0.003576 0.012110 -0.006167 0.000000 -0.002178 0.000000
# 3 -0.004230 -0.006167 0.028313 0.000000 -0.001669 0.000000
# 4 0.000000 0.000000 0.000000 0.028611 0.000000 -0.007227
# 5 -0.001269 -0.002178 -0.001669 0.000000 0.018673 0.000000
# 6 0.000000 0.000000 0.000000 -0.007227 0.000000 0.030364
#
#
# Mechanical properties :
#
#
# Convention : Reuss Voigt Hill
#
# Bulk Modulus (GPa) = 42.37469 59.29398 50.83433
# Shear Modulus (GPa) = 30.30204 37.32736 33.81470
#
# Velocity S-wave (km/s) = 3.46328 3.84384 3.65851
# Velocity P-wave (km/s) = 5.72411 6.57041 6.16180
#
# Compressibility (1/GPa) = 0.02359899
#
# Stress axis : x y z
#
# Youngs Moduli (GPa) = 89.91364 82.57702 35.31933
#
# Poissons Ratio (x) = 0.29529 0.14939
# Poissons Ratio (y) = 0.32153 0.21782
# Poissons Ratio (z) = 0.38032 0.50927
#
# Static dielectric constant tensor:
#      x y z
#    x 1.992810 0.000000 0.037750 
#    y 0.000000 2.022620 0.000000 
#    z 0.037750 0.000000 2.047980 
# 
# From -- ./inp_files/184300.got.cif
#   From: 2010.05.17/outbox.cif.g08.bks.cpg/sg15_93_cif.got.tgz:184300.got - 2010.06.03 18:47:42.
