data_PCOD9278238
_publ_section_title
;
Structure prediction by ZEFSAII (Michael W. Deem and Ramdas Pophale) SiO2 
 PCOD9278238
Probable space group: C 2/C
;
_chemical_formula_sum "Si O2"
_cell_formula_units_Z 56
_cell_length_a 22.159498
_cell_length_b 8.607603
_cell_length_c 13.801275
_cell_angle_alpha 90.000000
_cell_angle_beta 102.776191
_cell_angle_gamma 90.000000
_cell_volume 2567.281287
_symmetry_space_group_name_H-M "C 2/C"
_symmetry_group_IT_number 15
_symmetry_cell_setting 'monoclinic'
loop_
_space_group_symop_operation_xyz
x,y,z
-x,y,1/2-z
-x,-y,-z
x,-y,1/2+z
1/2+x,1/2+y,z
1/2-x,1/2+y,1/2-z
1/2-x,1/2-y,-z
1/2+x,1/2-y,1/2+z
loop_
_atom_site_type_symbol
_atom_site_label
_atom_site_fract_x
_atom_site_fract_y
_atom_site_fract_z
Si Si1 0.144294 0.530827 0.988416
Si Si2 0.000000 0.675961 0.250000
Si Si3 0.500000 0.333050 0.750000
Si Si4 0.684340 0.309793 0.518067
Si Si5 0.899812 0.092239 0.682843
Si Si6 0.007064 0.562089 0.894422
Si Si7 0.175096 0.712050 0.189452
Si Si8 0.736945 0.964698 0.347124
O O1 0.149140 0.351597 0.027021
O O2 0.081088 0.549607 0.906706
O O3 0.200703 0.561266 0.934774
O O4 0.147562 0.648379 0.079379
O O5 0.046752 0.783728 0.323745
O O6 0.969830 0.560772 0.315965
O O7 0.438381 0.436854 0.714933
O O8 0.490789 0.227852 0.842994
O O9 0.750000 0.250000 0.500000
O O10 0.648702 0.404084 0.421648
O O11 0.703175 0.426764 0.609243
O O12 0.867275 0.168383 0.765016
O O13 0.000000 0.500000 0.000000
O O14 0.238022 0.806483 0.188632
O O15 0.192896 0.565656 0.262573
#
# Coordination Sequence:
#
# PCOD9278238 Si02
#       8
#     8   4   4   8   8   8   8   8
#     4  11  23  42  67  97 138 178 226 286 343 398
#     4  10  20  44  66  88 134 180 218 276 336 386
#     4  10  28  44  72 102 140 178 226 292 350 396
#     4  10  20  42  68  93 134 185 216 277 351 400
#     4  11  22  45  68  97 140 182 223 283 346 404
#     4  11  23  43  70 101 126 175 233 276 336 415
#     4  12  24  40  67 101 134 181 230 281 339 428
#     4  11  25  41  65 101 139 179 228 278 354 409
#
# _framework density 21.812957999999998
#
# number of rings (size 3 to 8) (size 9 to 14) (size 15 to 20)
#    0.000    1.143    4.286    2.143    4.000    3.429 
#    0.000    2.143    0.000    0.000    0.000    0.000 
#    0.000    0.000    0.000    0.000    0.000    0.000 
#
# Total GULP energy -156324.492995 kJ/mol
# GULP energy per Si atom -5583.017607 kJ/mol
# Density = 2.176331 g / cm^3
# Si number density = 21.812958 Si / 1000 Ang^3
#
#
#
# Elastic Constant Matrix: (Units=GPa)
#
#
# Indices 1 2 3 4 5 6 
#
# 1 57.1448 25.4824 13.9288 0.0000 9.7495 0.0000
# 2 25.4824 92.0714 43.2157 0.0000 0.3854 0.0000
# 3 13.9288 43.2157 99.6393 0.0000 8.3238 0.0000
# 4 0.0000 0.0000 0.0000 45.4007 0.0000 6.5465
# 5 9.7495 0.3854 8.3238 0.0000 42.3804 0.0000
# 6 0.0000 0.0000 0.0000 6.5465 0.0000 29.3484
#
#
#
# Elastic Compliance Matrix: (Units=1/GPa)
#
#
# Indices 1 2 3 4 5 6 
#
# 1 0.020878 -0.005744 -0.000031 0.000000 -0.004745 0.000000
# 2 -0.005744 0.015264 -0.006015 0.000000 0.002364 0.000000
# 3 -0.000031 -0.006015 0.012855 0.000000 -0.002463 0.000000
# 4 0.000000 0.000000 0.000000 0.022758 0.000000 -0.005076
# 5 -0.004745 0.002364 -0.002463 0.000000 0.025150 0.000000
# 6 0.000000 0.000000 0.000000 -0.005076 0.000000 0.035206
#
#
# Mechanical properties :
#
#
# Convention : Reuss Voigt Hill
#
# Bulk Modulus (GPa) = 39.34299 46.01215 42.67757
# Shear Modulus (GPa) = 30.45762 34.50781 32.48271
#
# Velocity S-wave (km/s) = 3.74077 3.98173 3.86313
# Velocity P-wave (km/s) = 6.06082 6.50221 6.28539
#
# Compressibility (1/GPa) = 0.02541749
#
# Stress axis : x y z
#
# Youngs Moduli (GPa) = 47.89782 65.51272 77.79017
#
# Poissons Ratio (x) = 0.37630 0.00241
# Poissons Ratio (y) = 0.27512 0.46790
# Poissons Ratio (z) = 0.00148 0.39406
#
# Static dielectric constant tensor:
#      x y z
#    x 1.864060 0.000000 -0.021160 
#    y 0.000000 1.849230 0.000000 
#    z -0.021160 0.000000 1.792240 
# 
# From -- ./inp_files/172011.got.cif
#   From: 2010.05.17/outbox.cif.g08.bks.cpg/sg15_87_cif.got.tgz:172011.got - 2010.06.03 18:47:42.
