data_PCOD9278054
_publ_section_title
;
Structure prediction by ZEFSAII (Michael W. Deem and Ramdas Pophale) SiO2 
 PCOD9278054
Probable space group: C 2/C
;
_chemical_formula_sum "Si O2"
_cell_formula_units_Z 40
_cell_length_a 13.768054
_cell_length_b 7.011550
_cell_length_c 17.671620
_cell_angle_alpha 90.000000
_cell_angle_beta 91.444090
_cell_angle_gamma 90.000000
_cell_volume 1705.395070
_symmetry_space_group_name_H-M "C 2/C"
_symmetry_group_IT_number 15
_symmetry_cell_setting 'monoclinic'
loop_
_space_group_symop_operation_xyz
x,y,z
-x,y,1/2-z
-x,-y,-z
x,-y,1/2+z
1/2+x,1/2+y,z
1/2-x,1/2+y,1/2-z
1/2-x,1/2-y,-z
1/2+x,1/2-y,1/2+z
loop_
_atom_site_type_symbol
_atom_site_label
_atom_site_fract_x
_atom_site_fract_y
_atom_site_fract_z
Si Si1 0.178604 0.042677 0.082096
Si Si2 0.511284 0.021024 0.410533
Si Si3 0.096107 0.709980 0.700528
Si Si4 0.354306 0.353606 0.087219
Si Si5 0.315890 0.244209 0.647853
O O1 0.107855 0.108611 0.147037
O O2 0.266159 0.200289 0.087107
O O3 0.223465 0.838456 0.102031
O O4 0.136500 0.063535 0.997696
O O5 0.551281 0.229607 0.392374
O O6 0.500000 0.000000 0.500000
O O7 0.419029 0.963029 0.358487
O O8 0.593981 0.868602 0.388486
O O9 0.181780 0.691104 0.763280
O O10 0.000000 0.723329 0.750000
O O11 0.332099 0.532397 0.138948
#
# Coordination Sequence:
#
# PCOD9278054 Si02
#       5
#     8   8   8   8   8
#     4  10  21  40  63  93 131 168 218 278 322 401
#     4  10  20  42  65  90 130 170 216 274 321 394
#     4  10  22  42  61  93 137 169 217 279 334 393
#     4  10  21  40  68  92 124 176 224 265 333 391
#     4  10  23  39  62  96 129 168 224 271 334 401
#
# _framework density 23.454974
#
# number of rings (size 3 to 8) (size 9 to 14) (size 15 to 20)
#    0.000    2.000    2.000    0.600    2.800    0.800 
#    0.000   15.000    0.000    0.000    0.000    0.000 
#    0.000    0.000    0.000    0.000    0.000    0.000 
#
# Total GULP energy -111865.666865 kJ/mol
# GULP energy per Si atom -5593.283343 kJ/mol
# Density = 2.340159 g / cm^3
# Si number density = 23.454974 Si / 1000 Ang^3
#
#
#
# Elastic Constant Matrix: (Units=GPa)
#
#
# Indices 1 2 3 4 5 6 
#
# 1 16.4640 26.2382 9.3631 0.0000 -3.0319 0.0000
# 2 26.2382 139.7568 26.9053 0.0000 8.4078 0.0000
# 3 9.3631 26.9053 121.1896 0.0000 -10.5576 0.0000
# 4 0.0000 0.0000 0.0000 18.5694 0.0000 3.7308
# 5 -3.0319 8.4078 -10.5576 0.0000 25.2966 0.0000
# 6 0.0000 0.0000 0.0000 3.7308 0.0000 30.3821
#
#
#
# Elastic Compliance Matrix: (Units=1/GPa)
#
#
# Indices 1 2 3 4 5 6 
#
# 1 0.093963 -0.018304 -0.001749 0.000000 0.016616 0.000000
# 2 -0.018304 0.011315 -0.001678 0.000000 -0.006655 0.000000
# 3 -0.001749 -0.001678 0.009121 0.000000 0.004155 0.000000
# 4 0.000000 0.000000 0.000000 0.055214 0.000000 -0.006780
# 5 0.016616 -0.006655 0.004155 0.000000 0.045468 0.000000
# 6 0.000000 0.000000 0.000000 -0.006780 0.000000 0.033747
#
#
# Mechanical properties :
#
#
# Convention : Reuss Voigt Hill
#
# Bulk Modulus (GPa) = 14.09657 44.71373 29.40515
# Shear Modulus (GPa) = 15.82608 29.17655 22.50131
#
# Velocity S-wave (km/s) = 2.60040 3.53078 3.10068
# Velocity P-wave (km/s) = 3.87804 5.97720 5.03816
#
# Compressibility (1/GPa) = 0.07093923
#
# Stress axis : x y z
#
# Youngs Moduli (GPa) = 10.64249 88.37839 109.63693
#
# Poissons Ratio (x) = 1.61766 0.19170
# Poissons Ratio (y) = 0.19480 0.18393
# Poissons Ratio (z) = 0.01861 0.14826
#
# Static dielectric constant tensor:
#      x y z
#    x 1.989590 0.000000 0.020180 
#    y 0.000000 1.866380 0.000000 
#    z 0.020180 0.000000 1.866070 
# 
# From -- ./inp_files/208049.got.cif
#   From: 2010.05.17/outbox.cif.g08.bks.cpg/sg15_105_cif.got.tgz:208049.got - 2010.06.03 18:47:42.
