data_PCOD9278501
_publ_section_title
;
Structure prediction by ZEFSAII (Michael W. Deem and Ramdas Pophale) SiO2 
 PCOD9278501
Probable space group: C 2/C
;
_chemical_formula_sum "Si O2"
_cell_formula_units_Z 28
_cell_length_a 11.780066
_cell_length_b 9.698873
_cell_length_c 13.677916
_cell_angle_alpha 90.000000
_cell_angle_beta 117.637801
_cell_angle_gamma 90.000000
_cell_volume 1384.434825
_symmetry_space_group_name_H-M "C 2/C"
_symmetry_group_IT_number 15
_symmetry_cell_setting 'monoclinic'
loop_
_space_group_symop_operation_xyz
x,y,z
-x,y,1/2-z
-x,-y,-z
x,-y,1/2+z
1/2+x,1/2+y,z
1/2-x,1/2+y,1/2-z
1/2-x,1/2-y,-z
1/2+x,1/2-y,1/2+z
loop_
_atom_site_type_symbol
_atom_site_label
_atom_site_fract_x
_atom_site_fract_y
_atom_site_fract_z
Si Si1 0.500000 0.468744 0.250000
Si Si2 0.868282 0.710038 0.288927
Si Si3 0.849739 0.629589 0.066279
Si Si4 0.723250 0.373018 0.916112
O O1 0.398113 0.364878 0.261238
O O2 0.419533 0.564128 0.144903
O O3 0.844189 0.618625 0.182322
O O4 0.758836 0.683035 0.323032
O O5 0.003177 0.670181 0.392913
O O6 0.750000 0.750000 0.000000
O O7 0.811401 0.497646 0.989199
O O8 0.750000 0.250000 0.000000
#
# Coordination Sequence:
#
# PCOD9278501 Si02
#       4
#     4   8   8   8
#     4  10  24  48  62 100 140 176 216 280 342 382
#     4  10  23  42  70  91 135 180 219 269 328 406
#     4  10  20  43  68  91 131 180 217 264 342 385
#     4  12  26  40  68 104 128 173 227 275 332 397
#
# _framework density 20.22486
#
# number of rings (size 3 to 8) (size 9 to 14) (size 15 to 20)
#    0.000    1.714    5.714    0.857    4.000    5.714 
#    0.000    0.000    0.000    0.000    0.000    0.000 
#    0.000    0.000    0.000    0.000    0.000    0.000 
#
# Total GULP energy -78099.777582 kJ/mol
# GULP energy per Si atom -5578.555542 kJ/mol
# Density = 2.017883 g / cm^3
# Si number density = 20.224860 Si / 1000 Ang^3
#
#
#
# Elastic Constant Matrix: (Units=GPa)
#
#
# Indices 1 2 3 4 5 6 
#
# 1 36.4635 5.9824 8.7591 0.0000 -16.7538 0.0000
# 2 5.9824 102.4205 27.9107 0.0000 0.1882 0.0000
# 3 8.7591 27.9107 81.4151 0.0000 17.5009 0.0000
# 4 0.0000 0.0000 0.0000 37.1896 0.0000 0.6605
# 5 -16.7538 0.1882 17.5009 0.0000 38.5594 0.0000
# 6 0.0000 0.0000 0.0000 0.6605 0.0000 15.6471
#
#
#
# Elastic Compliance Matrix: (Units=1/GPa)
#
#
# Indices 1 2 3 4 5 6 
#
# 1 0.039155 0.000057 -0.008742 0.000000 0.020980 0.000000
# 2 0.000057 0.010884 -0.004134 0.000000 0.001848 0.000000
# 3 -0.008742 -0.004134 0.017123 0.000000 -0.011550 0.000000
# 4 0.000000 0.000000 0.000000 0.026909 0.000000 -0.001136
# 5 0.020980 0.001848 -0.011550 0.000000 0.040283 0.000000
# 6 0.000000 0.000000 0.000000 -0.001136 0.000000 0.063958
#
#
# Mechanical properties :
#
#
# Convention : Reuss Voigt Hill
#
# Bulk Modulus (GPa) = 24.08323 33.95596 29.01959
# Shear Modulus (GPa) = 21.02680 30.12233 25.57456
#
# Velocity S-wave (km/s) = 3.22786 3.86342 3.55985
# Velocity P-wave (km/s) = 5.08190 6.06029 5.59253
#
# Compressibility (1/GPa) = 0.04152267
#
# Stress axis : x y z
#
# Youngs Moduli (GPa) = 25.53961 91.88092 58.39985
#
# Poissons Ratio (x) = -0.00520 0.51052
# Poissons Ratio (y) = -0.00145 0.24145
# Poissons Ratio (z) = 0.22326 0.37988
#
# Static dielectric constant tensor:
#      x y z
#    x 1.737820 0.000000 -0.022640 
#    y 0.000000 1.729260 0.000000 
#    z -0.022640 0.000000 1.720530 
# 
# From -- ./inp_files/83491.got.cif
#   From: 2010.05.17/outbox.cif.g08.bks.cpg/sg15_42_cif.got.tgz:83491.got - 2010.06.03 18:47:42.
