data_PCOD9278149
_publ_section_title
;
Structure prediction by ZEFSAII (Michael W. Deem and Ramdas Pophale) SiO2 
 PCOD9278149
Probable space group: C 2/C
;
_chemical_formula_sum "Si O2"
_cell_formula_units_Z 40
_cell_length_a 22.294518
_cell_length_b 5.280123
_cell_length_c 18.658704
_cell_angle_alpha 90.000000
_cell_angle_beta 45.841597
_cell_angle_gamma 90.000000
_cell_volume 1575.777887
_symmetry_space_group_name_H-M "C 2/C"
_symmetry_group_IT_number 15
_symmetry_cell_setting 'monoclinic'
loop_
_space_group_symop_operation_xyz
x,y,z
-x,y,1/2-z
-x,-y,-z
x,-y,1/2+z
1/2+x,1/2+y,z
1/2-x,1/2+y,1/2-z
1/2-x,1/2-y,-z
1/2+x,1/2-y,1/2+z
loop_
_atom_site_type_symbol
_atom_site_label
_atom_site_fract_x
_atom_site_fract_y
_atom_site_fract_z
Si Si1 0.432698 0.454973 0.895399
Si Si2 0.880291 0.158098 0.796612
Si Si3 0.457563 0.931889 0.152063
Si Si4 0.742395 0.967436 0.804050
Si Si5 0.421897 0.758966 0.036973
O O1 0.372990 0.575473 0.885418
O O2 0.525313 0.566396 0.800365
O O3 0.460979 0.161778 0.872079
O O4 0.401957 0.530366 0.999976
O O5 0.809572 0.020213 0.809902
O O6 0.888511 0.449115 0.761770
O O7 0.429947 0.722443 0.115654
O O8 0.491410 0.139839 0.067843
O O9 0.756811 0.191217 0.732641
O O10 0.651353 0.037398 0.909663
#
# Coordination Sequence:
#
# PCOD9278149 Si02
#       5
#     8   8   8   8   8
#     4  10  22  39  67  95 134 171 231 275 343 397
#     4  10  23  41  63 101 132 180 219 283 339 406
#     4  10  20  42  66  96 132 175 226 280 327 414
#     4  12  26  45  69 100 137 183 230 283 341 409
#     4  10  22  38  68  97 131 173 228 276 340 399
#
# _framework density 25.384287
#
# number of rings (size 3 to 8) (size 9 to 14) (size 15 to 20)
#    0.000    1.600    2.000    1.800    2.800    7.200 
#    0.000    1.000    0.000    0.000    0.000    0.000 
#    0.000    0.000    0.000    0.000    0.000    0.000 
#
# Total GULP energy -111537.939485 kJ/mol
# GULP energy per Si atom -5576.896974 kJ/mol
# Density = 2.532651 g / cm^3
# Si number density = 25.384287 Si / 1000 Ang^3
#
#
#
# Elastic Constant Matrix: (Units=GPa)
#
#
# Indices 1 2 3 4 5 6 
#
# 1 203.0720 37.0639 34.2271 -0.0317 34.1713 0.0182
# 2 37.0639 77.5018 19.3386 -0.0040 25.6944 0.1028
# 3 34.2271 19.3386 50.0597 -0.0083 10.0565 0.0322
# 4 -0.0317 -0.0040 -0.0083 22.7227 0.0026 -5.9263
# 5 34.1713 25.6944 10.0565 0.0026 38.1078 -0.0344
# 6 0.0182 0.1028 0.0322 -5.9263 -0.0344 18.9375
#
#
#
# Elastic Compliance Matrix: (Units=1/GPa)
#
#
# Indices 1 2 3 4 5 6 
#
# 1 0.006326 -0.000817 -0.003148 0.000008 -0.004291 -0.000002
# 2 -0.000817 0.017696 -0.004253 -0.000029 -0.010076 -0.000115
# 3 -0.003148 -0.004253 0.023895 0.000000 -0.000616 -0.000016
# 4 0.000008 -0.000029 0.000000 0.047920 0.000023 0.014996
# 5 -0.004291 -0.010076 -0.000616 0.000023 0.037046 0.000134
# 6 -0.000002 -0.000115 -0.000016 0.014996 0.000134 0.057499
#
#
# Mechanical properties :
#
#
# Convention : Reuss Voigt Hill
#
# Bulk Modulus (GPa) = 31.76511 56.87698 44.32105
# Shear Modulus (GPa) = 23.00850 31.95384 27.48117
#
# Velocity S-wave (km/s) = 3.01393 3.55181 3.29387
# Velocity P-wave (km/s) = 4.96513 6.26702 5.65367
#
# Compressibility (1/GPa) = 0.03148108
#
# Stress axis : x y z
#
# Youngs Moduli (GPa) = 158.07540 56.51045 41.85000
#
# Poissons Ratio (x) = 0.04619 0.13173
# Poissons Ratio (y) = 0.12921 0.17798
# Poissons Ratio (z) = 0.49755 0.24033
#
# Static dielectric constant tensor:
#      x y z
#    x 2.097790 -0.000190 0.018660 
#    y -0.000190 2.318380 -0.000030 
#    z 0.018660 -0.000030 1.978990 
# 
# From -- ./inp_files/217637.got.cif
#   From: 2010.05.17/outbox.cif.g08.bks.cpg/sg15_109_cif.got.tgz:217637.got - 2010.06.03 18:47:42.
