data_PCOD9278037
_publ_section_title
;
Structure prediction by ZEFSAII (Michael W. Deem and Ramdas Pophale) SiO2 
 PCOD9278037
Probable space group: C 2/C
;
_chemical_formula_sum "Si O2"
_cell_formula_units_Z 44
_cell_length_a 12.757987
_cell_length_b 13.523629
_cell_length_c 10.849405
_cell_angle_alpha 90.000000
_cell_angle_beta 85.675069
_cell_angle_gamma 90.000000
_cell_volume 1866.563932
_symmetry_space_group_name_H-M "C 2/C"
_symmetry_group_IT_number 15
_symmetry_cell_setting 'monoclinic'
loop_
_space_group_symop_operation_xyz
x,y,z
-x,y,1/2-z
-x,-y,-z
x,-y,1/2+z
1/2+x,1/2+y,z
1/2-x,1/2+y,1/2-z
1/2-x,1/2-y,-z
1/2+x,1/2-y,1/2+z
loop_
_atom_site_type_symbol
_atom_site_label
_atom_site_fract_x
_atom_site_fract_y
_atom_site_fract_z
Si Si1 0.000000 0.790765 0.750000
Si Si2 0.502522 0.808199 0.602537
Si Si3 0.286251 0.279883 0.693718
Si Si4 0.275859 0.884734 0.023847
Si Si5 0.440274 0.605525 0.504237
Si Si6 0.212842 0.609102 0.441791
O O1 0.100764 0.733489 0.786371
O O2 0.040601 0.858038 0.636446
O O3 0.500000 0.832249 0.750000
O O4 0.610499 0.850553 0.537653
O O5 0.489298 0.690238 0.586060
O O6 0.406999 0.855532 0.528771
O O7 0.230463 0.191127 0.628271
O O8 0.294848 0.368289 0.592468
O O9 0.239344 0.325494 0.819697
O O10 0.285514 0.992082 0.079596
O O11 0.500000 0.500000 0.500000
O O12 0.311871 0.615574 0.527908
#
# Coordination Sequence:
#
# PCOD9278037 Si02
#       6
#     4   8   8   8   8   8
#     4  10  20  42  64  98 134 170 230 282 344 408
#     4  12  25  48  68 106 146 186 234 289 353 434
#     4  10  22  44  69 102 134 186 227 288 355 417
#     4  11  23  47  72  94 149 183 228 290 361 421
#     4  11  25  44  70 102 139 185 236 293 351 408
#     4  11  25  45  71 107 136 183 242 290 352 423
#
# _framework density 23.572724000000001
#
# number of rings (size 3 to 8) (size 9 to 14) (size 15 to 20)
#    0.000    1.091    3.636    2.182    3.818    0.000 
#   14.727    0.000    0.000    0.000    0.000    0.000 
#    0.000    0.000    0.000    0.000    0.000    0.000 
#
# Total GULP energy -122708.384254 kJ/mol
# GULP energy per Si atom -5577.653830 kJ/mol
# Density = 2.351907 g / cm^3
# Si number density = 23.572724 Si / 1000 Ang^3
#
#
#
# Elastic Constant Matrix: (Units=GPa)
#
#
# Indices 1 2 3 4 5 6 
#
# 1 141.9645 17.5798 15.9287 0.0000 30.3543 0.0000
# 2 17.5798 111.6145 11.4778 0.0000 -4.0762 0.0000
# 3 15.9287 11.4778 59.9881 0.0000 0.6138 0.0000
# 4 0.0000 0.0000 0.0000 9.4680 0.0000 11.2196
# 5 30.3543 -4.0762 0.6138 0.0000 30.7339 0.0000
# 6 0.0000 0.0000 0.0000 11.2196 0.0000 85.6813
#
#
#
# Elastic Compliance Matrix: (Units=1/GPa)
#
#
# Indices 1 2 3 4 5 6 
#
# 1 0.009535 -0.001634 -0.002121 0.000000 -0.009592 0.000000
# 2 -0.001634 0.009467 -0.001407 0.000000 0.002898 0.000000
# 3 -0.002121 -0.001407 0.017486 0.000000 0.001559 0.000000
# 4 0.000000 0.000000 0.000000 0.125018 0.000000 -0.016371
# 5 -0.009592 0.002898 0.001559 0.000000 0.042364 0.000000
# 6 0.000000 0.000000 0.000000 -0.016371 0.000000 0.013815
#
#
# Mechanical properties :
#
#
# Convention : Reuss Voigt Hill
#
# Bulk Modulus (GPa) = 38.21989 44.83774 41.52882
# Shear Modulus (GPa) = 21.12098 43.08204 32.10151
#
# Velocity S-wave (km/s) = 2.99656 4.27971 3.69427
# Velocity P-wave (km/s) = 5.31237 6.59420 5.98769
#
# Compressibility (1/GPa) = 0.02616439
#
# Stress axis : x y z
#
# Youngs Moduli (GPa) = 104.87414 105.62667 57.18702
#
# Poissons Ratio (x) = 0.17260 0.12130
# Poissons Ratio (y) = 0.17137 0.08047
# Poissons Ratio (z) = 0.22245 0.14864
#
# Static dielectric constant tensor:
#      x y z
#    x 2.080280 0.000000 0.059070 
#    y 0.000000 1.877100 0.000000 
#    z 0.059070 0.000000 1.903360 
# 
# From -- ./inp_files/95739.got.cif
#   From: 2010.05.17/outbox.cif.g08.bks.cpg/sg15_48_cif.got.tgz:95739.got - 2010.06.03 18:47:42.
