data_PCOD9278203
_publ_section_title
;
Structure prediction by ZEFSAII (Michael W. Deem and Ramdas Pophale) SiO2 
 PCOD9278203
Probable space group: C 2/C
;
_chemical_formula_sum "Si O2"
_cell_formula_units_Z 52
_cell_length_a 14.566796
_cell_length_b 18.618426
_cell_length_c 9.263931
_cell_angle_alpha 90.000000
_cell_angle_beta 65.029164
_cell_angle_gamma 90.000000
_cell_volume 2277.618793
_symmetry_space_group_name_H-M "C 2/C"
_symmetry_group_IT_number 15
_symmetry_cell_setting 'monoclinic'
loop_
_space_group_symop_operation_xyz
x,y,z
-x,y,1/2-z
-x,-y,-z
x,-y,1/2+z
1/2+x,1/2+y,z
1/2-x,1/2+y,1/2-z
1/2-x,1/2-y,-z
1/2+x,1/2-y,1/2+z
loop_
_atom_site_type_symbol
_atom_site_label
_atom_site_fract_x
_atom_site_fract_y
_atom_site_fract_z
Si Si1 0.224195 0.101076 0.677734
Si Si2 0.074098 0.032401 0.329222
Si Si3 0.052187 0.439041 0.867394
Si Si4 0.563952 0.125525 0.841110
Si Si5 0.175220 0.766563 0.414932
Si Si6 0.747429 0.369877 0.824158
Si Si7 0.500000 0.258693 0.750000
O O1 0.335426 0.087422 0.673151
O O2 0.185544 0.163098 0.808977
O O3 0.239148 0.129914 0.504033
O O4 0.150895 0.031838 0.729456
O O5 0.141050 0.100553 0.333939
O O6 0.000000 0.054259 0.250000
O O7 0.000000 0.000000 0.500000
O O8 0.170653 0.431570 0.770437
O O9 0.000000 0.439185 0.750000
O O10 0.000000 0.500000 0.000000
O O11 0.013706 0.368857 0.976926
O O12 0.500000 0.092335 0.750000
O O13 0.581400 0.205242 0.774349
O O14 0.250000 0.750000 0.500000
O O15 0.206977 0.701165 0.282550
O O16 0.068279 0.783902 0.570592
#
# Coordination Sequence:
#
# PCOD9278203 Si02
#       7
#     8   8   8   8   8   8   4
#     4  12  26  50  76 109 153 201 261 316 380 459
#     4  12  29  53  77 108 151 207 269 321 377 451
#     4  12  24  39  69 108 145 185 231 298 384 452
#     4  10  20  42  68 101 149 179 234 300 377 446
#     4  12  26  46  76 113 153 198 255 318 385 454
#     4  12  27  49  77 109 150 203 253 317 377 461
#     4  10  22  44  68 106 146 190 240 304 382 444
#
# _framework density 22.830860999999999
#
# number of rings (size 3 to 8) (size 9 to 14) (size 15 to 20)
#    0.462    0.000    6.154    1.846    2.154    1.231 
#    0.000    0.769    0.000    0.000    0.000    0.000 
#    0.000    0.000    0.000    0.000    0.000    0.000 
#
# Total GULP energy -144825.878125 kJ/mol
# GULP energy per Si atom -5570.226082 kJ/mol
# Density = 2.277890 g / cm^3
# Si number density = 22.830861 Si / 1000 Ang^3
#
#
#
# Elastic Constant Matrix: (Units=GPa)
#
#
# Indices 1 2 3 4 5 6 
#
# 1 159.9372 22.8272 61.8440 0.0000 1.3292 0.0000
# 2 22.8272 75.1450 54.0691 0.0000 -2.6168 0.0000
# 3 61.8440 54.0691 201.0614 0.0000 -2.2794 0.0000
# 4 0.0000 0.0000 0.0000 -27.8997 0.0000 -24.1633
# 5 1.3292 -2.6168 -2.2794 0.0000 47.5025 0.0000
# 6 0.0000 0.0000 0.0000 -24.1633 0.0000 15.7541
#
#
#
# Elastic Compliance Matrix: (Units=1/GPa)
#
#
# Indices 1 2 3 4 5 6 
#
# 1 0.007134 -0.000740 -0.001999 0.000000 -0.000336 0.000000
# 2 -0.000740 0.016600 -0.004228 0.000000 0.000732 0.000000
# 3 -0.001999 -0.004228 0.006727 0.000000 0.000146 0.000000
# 4 0.000000 0.000000 0.000000 -0.015394 0.000000 -0.023611
# 5 -0.000336 0.000732 0.000146 0.000000 0.021108 0.000000
# 6 0.000000 0.000000 0.000000 -0.023611 0.000000 0.027262
#
#
# Mechanical properties :
#
#
# Convention : Reuss Voigt Hill
#
# Bulk Modulus (GPa) = 60.50983 79.29157 69.90070
# Shear Modulus (GPa) = 60.32731 26.89827 43.61279
#
# Velocity S-wave (km/s) = 5.14596 3.43615 4.37539
# Velocity P-wave (km/s) = 7.86568 7.10973 7.49724
#
# Compressibility (1/GPa) = 0.01652624
#
# Stress axis : x y z
#
# Youngs Moduli (GPa) = 140.17584 60.24008 148.65210
#
# Poissons Ratio (x) = 0.04461 0.29715
# Poissons Ratio (y) = 0.10380 0.62851
# Poissons Ratio (z) = 0.28021 0.25470
#
# Static dielectric constant tensor:
#      x y z
#    x 1.646170 0.000000 -0.038080 
#    y 0.000000 2.034600 0.000000 
#    z -0.038080 0.000000 1.876630 
# 
# From -- ./inp_files/42051.got.cif
#   From: 2010.05.17/outbox.cif.g08.bks.cpg/sg15_22_cif.got.tgz:42051.got - 2010.06.03 18:47:42.
