data_PCOD9278076
_publ_section_title
;
Structure prediction by ZEFSAII (Michael W. Deem and Ramdas Pophale) SiO2 
 PCOD9278076
Probable space group: C 2/C
;
_chemical_formula_sum "Si O2"
_cell_formula_units_Z 60
_cell_length_a 15.927170
_cell_length_b 11.630674
_cell_length_c 26.420847
_cell_angle_alpha 90.000000
_cell_angle_beta 35.065097
_cell_angle_gamma 90.000000
_cell_volume 2811.806116
_symmetry_space_group_name_H-M "C 2/C"
_symmetry_group_IT_number 15
_symmetry_cell_setting 'monoclinic'
loop_
_space_group_symop_operation_xyz
x,y,z
-x,y,1/2-z
-x,-y,-z
x,-y,1/2+z
1/2+x,1/2+y,z
1/2-x,1/2+y,1/2-z
1/2-x,1/2-y,-z
1/2+x,1/2-y,1/2+z
loop_
_atom_site_type_symbol
_atom_site_label
_atom_site_fract_x
_atom_site_fract_y
_atom_site_fract_z
Si Si1 0.500000 0.809536 0.750000
Si Si2 0.237136 0.024948 0.759343
Si Si3 0.155802 0.230754 0.166203
Si Si4 0.310369 0.768655 0.697675
Si Si5 0.594553 0.630640 0.009019
Si Si6 0.691812 0.565424 0.390012
Si Si7 0.606761 0.305700 0.093208
Si Si8 0.438734 0.450432 0.865522
O O1 0.647560 0.882914 0.685231
O O2 0.458799 0.738684 0.820874
O O3 0.279008 0.160380 0.731550
O O4 0.320287 0.900973 0.713397
O O5 0.191762 0.019104 0.841134
O O6 0.102304 0.001434 0.788005
O O7 0.233189 0.218111 0.181751
O O8 0.890569 0.115501 0.340023
O O9 0.000000 0.295799 0.250000
O O10 0.273662 0.290143 0.072521
O O11 0.474132 0.718613 0.619656
O O12 0.438510 0.653750 0.059251
O O13 0.571717 0.630077 0.080106
O O14 0.643560 0.505698 0.963044
O O15 0.653162 0.436876 0.078825
O O16 0.750000 0.250000 0.000000
#
# Coordination Sequence:
#
# PCOD9278076 Si02
#       8
#     4   8   8   8   8   8   8   8
#     4  12  24  38  74  96 136 186 250 286 366 446
#     4  10  20  42  65  99 136 183 233 290 363 433
#     4  12  24  40  70 103 138 185 242 298 371 447
#     4  11  23  43  69 103 144 186 240 305 367 440
#     4  10  22  41  68  94 141 177 231 307 371 421
#     4  10  21  39  64 102 128 183 235 296 361 432
#     4  11  26  46  69 102 143 193 248 305 372 451
#     4  10  23  43  67  95 138 185 231 300 375 435
#
# _framework density 21.338598000000001
#
# number of rings (size 3 to 8) (size 9 to 14) (size 15 to 20)
#    0.000    1.333    4.000    1.200    5.600    0.000 
#    2.400    0.667    0.000    0.000    0.000    0.000 
#    0.000    0.000    0.000    0.000    0.000    0.000 
#
# Total GULP energy -167087.678202 kJ/mol
# GULP energy per Si atom -5569.589273 kJ/mol
# Density = 2.129003 g / cm^3
# Si number density = 21.338598 Si / 1000 Ang^3
#
#
#
# Elastic Constant Matrix: (Units=GPa)
#
#
# Indices 1 2 3 4 5 6 
#
# 1 147.4811 41.6767 45.3916 0.0000 -1.7442 0.0000
# 2 41.6767 111.8037 33.0116 0.0000 -3.4620 0.0000
# 3 45.3916 33.0116 82.7383 -0.0001 -13.8820 0.0000
# 4 0.0000 0.0000 -0.0001 36.2945 0.0000 -0.0040
# 5 -1.7442 -3.4620 -13.8820 0.0000 33.9431 0.0000
# 6 0.0000 0.0000 0.0000 -0.0040 0.0000 25.5520
#
#
#
# Elastic Compliance Matrix: (Units=1/GPa)
#
#
# Indices 1 2 3 4 5 6 
#
# 1 0.008618 -0.002028 -0.004165 0.000000 -0.001467 0.000000
# 2 -0.002028 0.010630 -0.003182 0.000000 -0.000322 0.000000
# 3 -0.004165 -0.003182 0.016696 0.000000 0.006290 0.000000
# 4 0.000000 0.000000 0.000000 0.027552 0.000000 0.000004
# 5 -0.001467 -0.000322 0.006290 0.000000 0.031925 0.000000
# 6 0.000000 0.000000 0.000000 0.000004 0.000000 0.039136
#
#
# Mechanical properties :
#
#
# Convention : Reuss Voigt Hill
#
# Bulk Modulus (GPa) = 58.16288 64.68699 61.42494
# Shear Modulus (GPa) = 31.43845 33.95413 32.69629
#
# Velocity S-wave (km/s) = 3.84254 3.99332 3.91866
# Velocity P-wave (km/s) = 6.85588 7.18627 7.02302
#
# Compressibility (1/GPa) = 0.01719310
#
# Stress axis : x y z
#
# Youngs Moduli (GPa) = 116.03267 94.07313 59.89303
#
# Poissons Ratio (x) = 0.19080 0.24946
# Poissons Ratio (y) = 0.23534 0.19061
# Poissons Ratio (z) = 0.48329 0.29939
#
# Static dielectric constant tensor:
#      x y z
#    x 1.784840 0.000000 -0.026090 
#    y 0.000000 1.876570 0.000000 
#    z -0.026090 0.000000 1.893220 
# 
# From -- ./inp_files/298940.got.cif
#   From: 2010.05.17/outbox.cif.g08.bks.cpg/sg15_150_cif.got.tgz:298940.got - 2010.06.03 18:47:42.
