data_PCOD9278239
_publ_section_title
;
Structure prediction by ZEFSAII (Michael W. Deem and Ramdas Pophale) SiO2 
 PCOD9278239
Probable space group: C 2/C
;
_chemical_formula_sum "Si O2"
_cell_formula_units_Z 44
_cell_length_a 27.945448
_cell_length_b 9.468646
_cell_length_c 7.971602
_cell_angle_alpha 90.000000
_cell_angle_beta 68.798724
_cell_angle_gamma 90.000000
_cell_volume 1966.561731
_symmetry_space_group_name_H-M "C 2/C"
_symmetry_group_IT_number 15
_symmetry_cell_setting 'monoclinic'
loop_
_space_group_symop_operation_xyz
x,y,z
-x,y,1/2-z
-x,-y,-z
x,-y,1/2+z
1/2+x,1/2+y,z
1/2-x,1/2+y,1/2-z
1/2-x,1/2-y,-z
1/2+x,1/2-y,1/2+z
loop_
_atom_site_type_symbol
_atom_site_label
_atom_site_fract_x
_atom_site_fract_y
_atom_site_fract_z
Si Si1 0.347351 0.288595 0.940943
Si Si2 0.707559 0.062761 0.270160
Si Si3 0.675512 0.436750 0.871992
Si Si4 0.000000 0.400744 0.750000
Si Si5 0.345925 0.848781 0.992166
Si Si6 0.432805 0.126404 0.627989
O O1 0.324309 0.379199 0.817187
O O2 0.400403 0.224795 0.797520
O O3 0.310638 0.163922 0.054246
O O4 0.348819 0.409166 0.081128
O O5 0.765947 0.076805 0.140771
O O6 0.668306 0.101864 0.172680
O O7 0.702638 0.901183 0.337352
O O8 0.644524 0.316794 0.011353
O O9 0.039321 0.505391 0.799660
O O10 0.025514 0.316254 0.561624
O O11 0.390392 0.922140 0.044359
#
# Coordination Sequence:
#
# PCOD9278239 Si02
#       6
#     8   8   8   4   8   8
#     4  11  23  39  60  87 125 164 212 247 300 355
#     4  12  21  35  58  89 123 168 211 246 280 343
#     4  11  22  38  56  85 127 172 203 243 288 353
#     4  10  20  42  68  94 122 142 202 260 324 372
#     4  11  22  36  58  87 124 157 203 247 298 349
#     4  10  22  38  64  95 118 155 191 261 316 364
#
# _framework density 22.374074
#
# number of rings (size 3 to 8) (size 9 to 14) (size 15 to 20)
#    0.000    1.091    0.000    8.727    0.000    1.455 
#    0.000    0.000    0.000   13.091    0.000    0.000 
#    0.000    0.000    0.000    0.000    0.000    0.000 
#
# Total GULP energy -122576.855299 kJ/mol
# GULP energy per Si atom -5571.675241 kJ/mol
# Density = 2.232315 g / cm^3
# Si number density = 22.374074 Si / 1000 Ang^3
#
#
#
# Elastic Constant Matrix: (Units=GPa)
#
#
# Indices 1 2 3 4 5 6 
#
# 1 88.8457 11.3082 28.7313 0.0000 0.3705 0.0000
# 2 11.3082 87.5562 44.8630 0.0000 -11.6750 0.0000
# 3 28.7313 44.8630 127.8554 0.0000 -6.4944 0.0000
# 4 0.0000 0.0000 0.0000 21.4534 0.0000 -6.6268
# 5 0.3705 -11.6750 -6.4944 0.0000 32.4136 0.0000
# 6 0.0000 0.0000 0.0000 -6.6268 0.0000 6.0585
#
#
#
# Elastic Compliance Matrix: (Units=1/GPa)
#
#
# Indices 1 2 3 4 5 6 
#
# 1 0.012160 -0.000310 -0.002663 0.000000 -0.000784 0.000000
# 2 -0.000310 0.014488 -0.004797 0.000000 0.004261 0.000000
# 3 -0.002663 -0.004797 0.010120 0.000000 0.000330 0.000000
# 4 0.000000 0.000000 0.000000 0.070399 0.000000 0.077003
# 5 -0.000784 0.004261 0.000330 0.000000 0.032461 0.000000
# 6 0.000000 0.000000 0.000000 0.077003 0.000000 0.249284
#
#
# Mechanical properties :
#
#
# Convention : Reuss Voigt Hill
#
# Bulk Modulus (GPa) = 47.11464 52.67362 49.89413
# Shear Modulus (GPa) = 12.14984 26.60874 19.37929
#
# Velocity S-wave (km/s) = 2.33283 3.45232 2.94623
# Velocity P-wave (km/s) = 5.32537 6.28368 5.82427
#
# Compressibility (1/GPa) = 0.02122483
#
# Stress axis : x y z
#
# Youngs Moduli (GPa) = 82.23995 69.02473 98.81458
#
# Poissons Ratio (x) = 0.02142 0.26318
# Poissons Ratio (y) = 0.02552 0.47405
# Poissons Ratio (z) = 0.21904 0.33114
#
# Static dielectric constant tensor:
#      x y z
#    x 1.861180 0.000000 -0.008080 
#    y 0.000000 1.864740 0.000000 
#    z -0.008080 0.000000 1.943800 
# 
# From -- ./inp_files/68517.got.cif
#   From: 2010.05.17/outbox.cif.g08.bks.cpg/sg15_35_cif.got.tgz:68517.got - 2010.06.03 18:47:42.
