data_PCOD9278122
_publ_section_title
;
Structure prediction by ZEFSAII (Michael W. Deem and Ramdas Pophale) SiO2 
 PCOD9278122
Probable space group: C 2/C
;
_chemical_formula_sum "Si O2"
_cell_formula_units_Z 52
_cell_length_a 24.166439
_cell_length_b 11.664368
_cell_length_c 12.145822
_cell_angle_alpha 90.000000
_cell_angle_beta 133.024075
_cell_angle_gamma 90.000000
_cell_volume 2502.983618
_symmetry_space_group_name_H-M "C 2/C"
_symmetry_group_IT_number 15
_symmetry_cell_setting 'monoclinic'
loop_
_space_group_symop_operation_xyz
x,y,z
-x,y,1/2-z
-x,-y,-z
x,-y,1/2+z
1/2+x,1/2+y,z
1/2-x,1/2+y,1/2-z
1/2-x,1/2-y,-z
1/2+x,1/2-y,1/2+z
loop_
_atom_site_type_symbol
_atom_site_label
_atom_site_fract_x
_atom_site_fract_y
_atom_site_fract_z
Si Si1 0.389975 0.064828 0.682759
Si Si2 0.545313 0.855330 0.455505
Si Si3 0.172480 0.095215 0.467128
Si Si4 0.187884 0.166005 0.045864
Si Si5 0.200896 0.244177 0.302419
Si Si6 0.853941 0.682379 0.196026
Si Si7 0.500000 0.652593 0.250000
O O1 0.399818 0.106220 0.570288
O O2 0.474408 0.058512 0.849694
O O3 0.346795 0.157950 0.698572
O O4 0.351499 0.941609 0.634289
O O5 0.586707 0.834565 0.625390
O O6 0.508957 0.735793 0.366830
O O7 0.198370 0.133215 0.379121
O O8 0.216602 0.194745 0.595366
O O9 0.081377 0.094804 0.349579
O O10 0.194119 0.970266 0.539168
O O11 0.168246 0.207504 0.141223
O O12 0.272840 0.210553 0.138591
O O13 0.133619 0.221658 0.880026
#
# Coordination Sequence:
#
# PCOD9278122 Si02
#       7
#     8   8   8   8   8   8   4
#     4  10  21  42  69  97 127 171 225 265 336 382
#     4  10  21  41  68  98 126 175 217 276 327 394
#     4  11  23  45  67  96 129 177 219 267 331 393
#     4  11  27  41  65 102 131 172 219 272 332 383
#     4  11  23  44  72  95 127 175 227 267 320 405
#     4  11  24  43  62  96 138 165 215 285 324 385
#     4  10  20  42  66  92 130 172 218 258 330 402
#
# _framework density 20.775207000000002
#
# number of rings (size 3 to 8) (size 9 to 14) (size 15 to 20)
#    0.000    1.538    4.615    1.385    4.308    3.692 
#    2.769    1.538    0.000    0.000    0.000    0.000 
#    0.000    0.000    0.000    0.000    0.000    0.000 
#
# Total GULP energy -145000.566763 kJ/mol
# GULP energy per Si atom -5576.944876 kJ/mol
# Density = 2.072792 g / cm^3
# Si number density = 20.775207 Si / 1000 Ang^3
#
#
#
# Elastic Constant Matrix: (Units=GPa)
#
#
# Indices 1 2 3 4 5 6 
#
# 1 71.9690 26.2023 34.7066 0.0000 1.6790 0.0000
# 2 26.2023 72.5565 25.9855 0.0000 -16.4734 0.0000
# 3 34.7066 25.9855 116.6167 0.0000 -19.5725 0.0000
# 4 0.0000 0.0000 0.0000 21.7442 0.0000 7.4441
# 5 1.6790 -16.4734 -19.5725 0.0000 30.2945 0.0000
# 6 0.0000 0.0000 0.0000 7.4441 0.0000 20.4708
#
#
#
# Elastic Compliance Matrix: (Units=1/GPa)
#
#
# Indices 1 2 3 4 5 6 
#
# 1 0.019312 -0.006874 -0.005633 0.000000 -0.008448 0.000000
# 2 -0.006874 0.018751 -0.000400 0.000000 0.010319 0.000000
# 3 -0.005633 -0.000400 0.011616 0.000000 0.007600 0.000000
# 4 0.000000 0.000000 0.000000 0.052529 0.000000 -0.019102
# 5 -0.008448 0.010319 0.007600 0.000000 0.043998 0.000000
# 6 0.000000 0.000000 0.000000 -0.019102 0.000000 0.055796
#
#
# Mechanical properties :
#
#
# Convention : Reuss Voigt Hill
#
# Bulk Modulus (GPa) = 41.90720 48.32568 45.11644
# Shear Modulus (GPa) = 21.20678 26.11840 23.66259
#
# Velocity S-wave (km/s) = 3.19842 3.54954 3.37854
# Velocity P-wave (km/s) = 5.81854 6.33330 6.08137
#
# Compressibility (1/GPa) = 0.02386225
#
# Stress axis : x y z
#
# Youngs Moduli (GPa) = 51.78258 53.33000 86.08528
#
# Poissons Ratio (x) = 0.36662 0.48495
# Poissons Ratio (y) = 0.35598 0.03448
# Poissons Ratio (z) = 0.29171 0.02136
#
# Static dielectric constant tensor:
#      x y z
#    x 1.796830 0.000000 0.037430 
#    y 0.000000 1.739200 0.000000 
#    z 0.037430 0.000000 1.779770 
# 
# From -- ./inp_files/118072.got.cif
#   From: 2010.05.17/outbox.cif.g08.bks.cpg/sg15_60_cif.got.tgz:118072.got - 2010.06.03 18:47:42.
