data_PCOD9278886
_publ_section_title
;
Structure prediction by ZEFSAII (Michael W. Deem and Ramdas Pophale) SiO2 
 PCOD9278886
Probable space group: C 2/C
;
_chemical_formula_sum "Si O2"
_cell_formula_units_Z 44
_cell_length_a 10.792957
_cell_length_b 23.331893
_cell_length_c 8.856129
_cell_angle_alpha 90.000000
_cell_angle_beta 96.497183
_cell_angle_gamma 90.000000
_cell_volume 2215.828123
_symmetry_space_group_name_H-M "C 2/C"
_symmetry_group_IT_number 15
_symmetry_cell_setting 'monoclinic'
loop_
_space_group_symop_operation_xyz
x,y,z
-x,y,1/2-z
-x,-y,-z
x,-y,1/2+z
1/2+x,1/2+y,z
1/2-x,1/2+y,1/2-z
1/2-x,1/2-y,-z
1/2+x,1/2-y,1/2+z
loop_
_atom_site_type_symbol
_atom_site_label
_atom_site_fract_x
_atom_site_fract_y
_atom_site_fract_z
Si Si1 0.802019 0.512623 0.735091
Si Si2 0.755248 0.204273 0.366620
Si Si3 0.500000 0.253528 0.750000
Si Si4 0.076397 0.423328 0.517114
Si Si5 0.275725 0.079844 0.004588
Si Si6 0.356609 0.794043 0.954270
O O1 0.875084 0.468669 0.853548
O O2 0.888686 0.549636 0.637773
O O3 0.733786 0.557738 0.834588
O O4 0.731005 0.469159 0.614504
O O5 0.750000 0.250000 0.500000
O O6 0.757766 0.142176 0.442521
O O7 0.645518 0.215019 0.227771
O O8 0.880779 0.210745 0.285735
O O9 0.464914 0.218193 0.593089
O O10 0.149672 0.363269 0.540327
O O11 0.928095 0.417907 0.518217
O O12 0.250000 0.750000 0.000000
#
# Coordination Sequence:
#
# PCOD9278886 Si02
#       6
#     8   8   4   8   8   8
#     4  10  21  32  53  86 122 158 189 241 307 358
#     4  11  24  40  63  90 118 161 204 245 306 354
#     4  10  24  44  60  86 122 158 204 256 296 354
#     4  11  19  33  54  84 124 152 192 243 298 368
#     4  11  20  34  55  87 118 154 194 241 301 368
#     4  10  23  39  60  87 118 162 197 246 303 353
#
# _framework density 19.857133999999999
#
# number of rings (size 3 to 8) (size 9 to 14) (size 15 to 20)
#    0.000    1.455    1.818    5.455    7.636    2.182 
#    0.000    0.000    0.000    1.091    0.000    0.000 
#    0.000    0.000    0.000    0.000    0.000    0.000 
#
# Total GULP energy -122531.245320 kJ/mol
# GULP energy per Si atom -5569.602060 kJ/mol
# Density = 1.981194 g / cm^3
# Si number density = 19.857134 Si / 1000 Ang^3
#
#
#
# Elastic Constant Matrix: (Units=GPa)
#
#
# Indices 1 2 3 4 5 6 
#
# 1 40.6182 25.6241 19.5685 0.0000 -9.6142 0.0000
# 2 25.6241 140.7164 75.0016 0.0000 -13.7439 0.0000
# 3 19.5685 75.0016 175.4962 0.0000 -10.4934 0.0000
# 4 0.0000 0.0000 0.0000 29.1635 0.0000 -8.1221
# 5 -9.6142 -13.7439 -10.4934 0.0000 24.4330 0.0000
# 6 0.0000 0.0000 0.0000 -8.1221 0.0000 21.6693
#
#
#
# Elastic Compliance Matrix: (Units=1/GPa)
#
#
# Indices 1 2 3 4 5 6 
#
# 1 0.029778 -0.003962 -0.001088 0.000000 0.009022 0.000000
# 2 -0.003962 0.010045 -0.003702 0.000000 0.002502 0.000000
# 3 -0.001088 -0.003702 0.007442 0.000000 0.000686 0.000000
# 4 0.000000 0.000000 0.000000 0.038286 0.000000 0.014350
# 5 0.009022 0.002502 0.000686 0.000000 0.046180 0.000000
# 6 0.000000 0.000000 0.000000 0.014350 0.000000 0.051527
#
#
# Mechanical properties :
#
#
# Convention : Reuss Voigt Hill
#
# Bulk Modulus (GPa) = 33.59801 66.35766 49.97784
# Shear Modulus (GPa) = 23.73237 30.82893 27.28065
#
# Velocity S-wave (km/s) = 3.46085 3.94450 3.71056
# Velocity P-wave (km/s) = 5.73817 7.36448 6.60160
#
# Compressibility (1/GPa) = 0.02976367
#
# Stress axis : x y z
#
# Youngs Moduli (GPa) = 33.58159 99.54959 134.36452
#
# Poissons Ratio (x) = 0.39437 0.14618
# Poissons Ratio (y) = 0.13303 0.49738
# Poissons Ratio (z) = 0.03653 0.36850
#
# Static dielectric constant tensor:
#      x y z
#    x 1.730690 0.000000 0.037700 
#    y 0.000000 1.693840 0.000000 
#    z 0.037700 0.000000 1.783100 
# 
# From -- ./inp_files/30929.got.cif
#   From: 2010.05.17/outbox.cif.g08.bks.cpg/sg15_16_cif.got.tgz:30929.got - 2010.06.03 18:47:42.
