data_PCOD9278427
_publ_section_title
;
Structure prediction by ZEFSAII (Michael W. Deem and Ramdas Pophale) SiO2 
 PCOD9278427
Probable space group: C 2/C
;
_chemical_formula_sum "Si O2"
_cell_formula_units_Z 48
_cell_length_a 7.787167
_cell_length_b 13.747899
_cell_length_c 23.068645
_cell_angle_alpha 90.000000
_cell_angle_beta 71.254866
_cell_angle_gamma 90.000000
_cell_volume 2338.666857
_symmetry_space_group_name_H-M "C 2/C"
_symmetry_group_IT_number 15
_symmetry_cell_setting 'monoclinic'
loop_
_space_group_symop_operation_xyz
x,y,z
-x,y,1/2-z
-x,-y,-z
x,-y,1/2+z
1/2+x,1/2+y,z
1/2-x,1/2+y,1/2-z
1/2-x,1/2-y,-z
1/2+x,1/2-y,1/2+z
loop_
_atom_site_type_symbol
_atom_site_label
_atom_site_fract_x
_atom_site_fract_y
_atom_site_fract_z
Si Si1 0.871615 0.526939 0.685594
Si Si2 0.283207 0.252769 0.065523
Si Si3 0.238925 0.945901 0.810271
Si Si4 0.507147 0.940811 0.939340
Si Si5 0.555456 0.746399 0.311638
Si Si6 0.134908 0.979617 0.433482
O O1 0.725609 0.488833 0.747245
O O2 0.065556 0.483662 0.687737
O O3 0.856596 0.489457 0.621876
O O4 0.883963 0.642626 0.686455
O O5 0.434959 0.170788 0.060161
O O6 0.111162 0.229678 0.125513
O O7 0.331178 0.364464 0.073744
O O8 0.250000 0.250000 0.000000
O O9 0.095227 0.984868 0.872822
O O10 0.212135 0.830890 0.808866
O O11 0.309893 0.958527 0.934155
O O12 0.500000 0.000000 0.000000
O O13 0.500000 0.734890 0.250000
O O14 0.000000 0.000000 0.500000
#
# Coordination Sequence:
#
# PCOD9278427 Si02
#       6
#     8   8   8   8   8   8
#     4  10  20  43  63  91 132 162 213 272 319 381
#     4  12  22  40  66  94 125 173 215 258 330 385
#     4  10  21  38  66  91 124 168 211 262 327 380
#     4  11  22  39  66  94 125 174 215 265 326 387
#     4  12  21  39  70  93 123 174 210 263 333 386
#     4  11  23  42  63  93 135 165 214 278 318 386
#
# _framework density 20.524512999999999
#
# number of rings (size 3 to 8) (size 9 to 14) (size 15 to 20)
#    0.000    1.000    6.667    2.000    0.000    0.667 
#    0.000    1.667   11.000    0.000    0.000    0.000 
#    0.000    0.000    0.000    0.000    0.000    0.000 
#
# Total GULP energy -133892.430610 kJ/mol
# GULP energy per Si atom -5578.851275 kJ/mol
# Density = 2.047780 g / cm^3
# Si number density = 20.524513 Si / 1000 Ang^3
#
#
#
# Elastic Constant Matrix: (Units=GPa)
#
#
# Indices 1 2 3 4 5 6 
#
# 1 37.1306 52.3848 22.5521 0.0000 -13.8054 0.0000
# 2 52.3848 203.1141 39.1617 0.0000 -0.0558 0.0000
# 3 22.5521 39.1617 207.2941 0.0000 -18.6162 0.0000
# 4 0.0000 0.0000 0.0000 38.2051 0.0000 0.8469
# 5 -13.8054 -0.0558 -18.6162 0.0000 25.3336 0.0000
# 6 0.0000 0.0000 0.0000 0.8469 0.0000 47.1762
#
#
#
# Elastic Compliance Matrix: (Units=1/GPa)
#
#
# Indices 1 2 3 4 5 6 
#
# 1 0.062175 -0.015877 -0.000776 0.000000 0.033277 0.000000
# 2 -0.015877 0.009177 -0.000837 0.000000 -0.009247 0.000000
# 3 -0.000776 -0.000837 0.005384 0.000000 0.003531 0.000000
# 4 0.000000 0.000000 0.000000 0.026185 0.000000 -0.000470
# 5 0.033277 -0.009247 0.003531 0.000000 0.060182 0.000000
# 6 0.000000 0.000000 0.000000 -0.000470 0.000000 0.021206
#
#
# Mechanical properties :
#
#
# Convention : Reuss Voigt Hill
#
# Bulk Modulus (GPa) = 23.94854 75.08178 49.51516
# Shear Modulus (GPa) = 21.44017 44.37232 32.90624
#
# Velocity S-wave (km/s) = 3.23555 4.65469 4.00842
# Velocity P-wave (km/s) = 5.06478 8.09624 6.75282
#
# Compressibility (1/GPa) = 0.04175619
#
# Stress axis : x y z
#
# Youngs Moduli (GPa) = 16.08352 108.96942 185.74423
#
# Poissons Ratio (x) = 1.73008 0.14421
# Poissons Ratio (y) = 0.25535 0.15543
# Poissons Ratio (z) = 0.01249 0.09119
#
# Static dielectric constant tensor:
#      x y z
#    x 1.768510 0.000000 -0.022370 
#    y 0.000000 1.688980 0.000000 
#    z -0.022370 0.000000 1.780250 
# 
# From -- ./inp_files/263101.got.cif
#   From: 2010.05.17/outbox.cif.g08.bks.cpg/sg15_132_cif.got.tgz:263101.got - 2010.06.03 18:47:42.
