data_PCOD9278941
_publ_section_title
;
Structure prediction by ZEFSAII (Michael W. Deem and Ramdas Pophale) SiO2 
 PCOD9278941
Probable space group: C 2/C
;
_chemical_formula_sum "Si O2"
_cell_formula_units_Z 52
_cell_length_a 18.279215
_cell_length_b 25.715179
_cell_length_c 12.031575
_cell_angle_alpha 90.000000
_cell_angle_beta 31.659154
_cell_angle_gamma 90.000000
_cell_volume 2968.364093
_symmetry_space_group_name_H-M "C 2/C"
_symmetry_group_IT_number 15
_symmetry_cell_setting 'monoclinic'
loop_
_space_group_symop_operation_xyz
x,y,z
-x,y,1/2-z
-x,-y,-z
x,-y,1/2+z
1/2+x,1/2+y,z
1/2-x,1/2+y,1/2-z
1/2-x,1/2-y,-z
1/2+x,1/2-y,1/2+z
loop_
_atom_site_type_symbol
_atom_site_label
_atom_site_fract_x
_atom_site_fract_y
_atom_site_fract_z
Si Si1 0.835839 0.283240 0.798660
Si Si2 0.500000 0.448414 0.750000
Si Si3 0.817585 0.436945 0.091634
Si Si4 0.384479 0.096420 0.258862
Si Si5 0.013831 0.899555 0.501901
Si Si6 0.821119 0.028693 0.112706
Si Si7 0.559793 0.299072 0.045304
O O1 0.869522 0.341769 0.792235
O O2 0.976827 0.250581 0.605372
O O3 0.750000 0.250000 0.000000
O O4 0.724221 0.288367 0.844111
O O5 0.462056 0.412891 0.693026
O O6 0.621839 0.487362 0.551235
O O7 0.681041 0.402435 0.291121
O O8 0.772972 0.494807 0.182694
O O9 0.849497 0.430496 0.920911
O O10 0.956730 0.418649 0.974830
O O11 0.272056 0.073978 0.318997
O O12 0.952982 0.945778 0.503434
O O13 0.969528 0.847150 0.497651
O O14 0.500000 0.309886 0.250000
#
# Coordination Sequence:
#
# PCOD9278941 Si02
#       7
#     8   4   8   8   8   8   8
#     4  10  21  33  53  83 111 138 177 227 285 337
#     4  10  22  34  58  82 110 150 192 228 264 336
#     4  10  22  31  52  80 112 153 177 222 277 337
#     4  11  21  35  53  82 119 144 178 228 287 335
#     4  11  21  37  57  82 113 150 189 231 275 325
#     4  11  20  37  54  82 110 150 193 226 270 324
#     4  10  21  34  56  83 109 139 179 234 286 334
#
# _framework density 17.518066999999999
#
# number of rings (size 3 to 8) (size 9 to 14) (size 15 to 20)
#    0.000    1.538    1.538    6.000    9.692    0.000 
#    0.000    0.000    0.000    0.923    0.000    0.000 
#    0.000    0.000    0.000    0.000    0.000    0.000 
#
# Total GULP energy -144962.746209 kJ/mol
# GULP energy per Si atom -5575.490239 kJ/mol
# Density = 1.747819 g / cm^3
# Si number density = 17.518067 Si / 1000 Ang^3
#
#
#
# Elastic Constant Matrix: (Units=GPa)
#
#
# Indices 1 2 3 4 5 6 
#
# 1 79.1302 32.8396 31.6692 0.0019 1.7454 -0.0006
# 2 32.8396 118.8512 31.8981 0.0009 11.8706 0.0000
# 3 31.6692 31.8981 66.5217 0.0031 -6.7143 -0.0002
# 4 0.0019 0.0009 0.0031 17.2751 -0.0028 -8.1407
# 5 1.7454 11.8706 -6.7143 -0.0028 21.1842 0.0005
# 6 -0.0006 0.0000 -0.0002 -8.1407 0.0005 30.5433
#
#
#
# Elastic Compliance Matrix: (Units=1/GPa)
#
#
# Indices 1 2 3 4 5 6 
#
# 1 0.016464 -0.002496 -0.006856 -0.000001 -0.002131 0.000000
# 2 -0.002496 0.011195 -0.004951 -0.000001 -0.007637 0.000000
# 3 -0.006856 -0.004951 0.021702 -0.000001 0.010217 -0.000001
# 4 -0.000001 -0.000001 -0.000001 0.066202 0.000008 0.017645
# 5 -0.002131 -0.007637 0.010217 0.000008 0.054898 0.000001
# 6 0.000000 0.000000 -0.000001 0.017645 0.000001 0.037443
#
#
# Mechanical properties :
#
#
# Convention : Reuss Voigt Hill
#
# Bulk Modulus (GPa) = 48.18108 50.81300 49.49704
# Shear Modulus (GPa) = 20.53990 25.00694 22.77342
#
# Velocity S-wave (km/s) = 3.42789 3.78232 3.60946
# Velocity P-wave (km/s) = 6.57500 6.93856 6.75922
#
# Compressibility (1/GPa) = 0.02075504
#
# Stress axis : x y z
#
# Youngs Moduli (GPa) = 60.73721 89.32562 46.07885
#
# Poissons Ratio (x) = 0.22298 0.31593
# Poissons Ratio (y) = 0.15162 0.22812
# Poissons Ratio (z) = 0.41643 0.44221
#
# Static dielectric constant tensor:
#      x y z
#    x 1.623520 0.000000 -0.022080 
#    y 0.000000 1.596510 0.000000 
#    z -0.022080 0.000000 1.618590 
# 
# From -- ./inp_files/108322.got.cif
#   From: 2010.05.17/outbox.cif.g08.bks.cpg/sg15_55_cif.got.tgz:108322.got - 2010.06.03 18:47:42.
