data_PCOD9278637
_publ_section_title
;
Structure prediction by ZEFSAII (Michael W. Deem and Ramdas Pophale) SiO2 
 PCOD9278637
Probable space group: C 2/C
;
_chemical_formula_sum "Si O2"
_cell_formula_units_Z 48
_cell_length_a 20.645537
_cell_length_b 18.776321
_cell_length_c 9.059377
_cell_angle_alpha 90.000000
_cell_angle_beta 40.664869
_cell_angle_gamma 90.000000
_cell_volume 2288.433908
_symmetry_space_group_name_H-M "C 2/C"
_symmetry_group_IT_number 15
_symmetry_cell_setting 'monoclinic'
loop_
_space_group_symop_operation_xyz
x,y,z
-x,y,1/2-z
-x,-y,-z
x,-y,1/2+z
1/2+x,1/2+y,z
1/2-x,1/2+y,1/2-z
1/2-x,1/2-y,-z
1/2+x,1/2-y,1/2+z
loop_
_atom_site_type_symbol
_atom_site_label
_atom_site_fract_x
_atom_site_fract_y
_atom_site_fract_z
Si Si1 0.943393 0.904480 0.714928
Si Si2 0.701404 0.697861 0.463963
Si Si3 0.000000 0.486223 0.250000
Si Si4 0.919064 0.403393 0.103997
Si Si5 0.500000 0.214177 0.250000
Si Si6 0.587724 0.560405 0.713410
Si Si7 0.244059 0.828242 0.571656
O O1 0.866989 0.858241 0.755439
O O2 0.000000 0.865671 0.750000
O O3 0.035075 0.931467 0.460377
O O4 0.887653 0.977774 0.858224
O O5 0.750000 0.750000 0.500000
O O6 0.597975 0.737667 0.600879
O O7 0.673611 0.618412 0.563954
O O8 0.766574 0.681688 0.205714
O O9 0.965459 0.438946 0.171020
O O10 0.919857 0.538957 0.468458
O O11 0.814706 0.375535 0.346478
O O12 0.979363 0.337125 0.927335
O O13 0.500000 0.578752 0.750000
O O14 0.250000 0.750000 0.500000
#
# Coordination Sequence:
#
# PCOD9278637 Si02
#       7
#     8   8   4   8   4   8   8
#     4  10  23  41  71  97 132 177 222 281 346 403
#     4  12  26  43  68 100 139 187 227 279 356 412
#     4   9  22  48  68 100 123 188 228 274 353 398
#     4  10  23  43  72  94 138 176 229 284 341 404
#     4  11  22  46  64  98 149 178 226 294 339 432
#     4  10  20  44  66  95 133 182 224 277 343 408
#     4  12  25  45  62 106 137 169 228 286 331 415
#
# _framework density 20.975041999999998
#
# number of rings (size 3 to 8) (size 9 to 14) (size 15 to 20)
#    0.000    1.333    4.167    0.000    4.667    1.333 
#    7.500    0.000    0.000    0.000    0.000    0.000 
#    0.000    0.000    0.000    0.000    0.000    0.000 
#
# Total GULP energy -133760.623740 kJ/mol
# GULP energy per Si atom -5573.359322 kJ/mol
# Density = 2.092730 g / cm^3
# Si number density = 20.975042 Si / 1000 Ang^3
#
#
#
# Elastic Constant Matrix: (Units=GPa)
#
#
# Indices 1 2 3 4 5 6 
#
# 1 72.4418 30.3329 22.5911 0.0000 19.2657 0.0000
# 2 30.3329 100.4914 29.8032 0.0000 0.5227 0.0000
# 3 22.5911 29.8032 106.5447 0.0000 20.6385 0.0000
# 4 0.0000 0.0000 0.0000 32.9345 0.0000 1.4366
# 5 19.2657 0.5227 20.6385 0.0000 28.1620 0.0000
# 6 0.0000 0.0000 0.0000 1.4366 0.0000 32.7794
#
#
#
# Elastic Compliance Matrix: (Units=1/GPa)
#
#
# Indices 1 2 3 4 5 6 
#
# 1 0.019873 -0.005950 0.000073 0.000000 -0.013538 0.000000
# 2 -0.005950 0.012769 -0.003558 0.000000 0.006441 0.000000
# 3 0.000073 -0.003558 0.012077 0.000000 -0.008834 0.000000
# 4 0.000000 0.000000 0.000000 0.030421 0.000000 -0.001333
# 5 -0.013538 0.006441 -0.008834 0.000000 0.051125 0.000000
# 6 0.000000 0.000000 0.000000 -0.001333 0.000000 0.030565
#
#
# Mechanical properties :
#
#
# Convention : Reuss Voigt Hill
#
# Bulk Modulus (GPa) = 38.68553 49.43692 44.06122
# Shear Modulus (GPa) = 27.12728 31.89192 29.50960
#
# Velocity S-wave (km/s) = 3.60017 3.90355 3.75492
# Velocity P-wave (km/s) = 5.98040 6.62854 6.31279
#
# Compressibility (1/GPa) = 0.02584946
#
# Stress axis : x y z
#
# Youngs Moduli (GPa) = 50.31883 78.31668 82.80408
#
# Poissons Ratio (x) = 0.46598 -0.00605
# Poissons Ratio (y) = 0.29939 0.29459
# Poissons Ratio (z) = -0.00367 0.27863
#
# Static dielectric constant tensor:
#      x y z
#    x 1.809340 0.000000 0.055110 
#    y 0.000000 1.711180 0.000000 
#    z 0.055110 0.000000 1.799930 
# 
# From -- ./inp_files/57738.got.cif
#   From: 2010.05.17/outbox.cif.g08.bks.cpg/sg15_29_cif.got.tgz:57738.got - 2010.06.03 18:47:42.
