data_PCOD9278589
_publ_section_title
;
Structure prediction by ZEFSAII (Michael W. Deem and Ramdas Pophale) SiO2 
 PCOD9278589
Probable space group: C 2/C
;
_chemical_formula_sum "Si O2"
_cell_formula_units_Z 52
_cell_length_a 14.963516
_cell_length_b 12.075579
_cell_length_c 24.695460
_cell_angle_alpha 90.000000
_cell_angle_beta 33.779042
_cell_angle_gamma 90.000000
_cell_volume 2481.001224
_symmetry_space_group_name_H-M "C 2/C"
_symmetry_group_IT_number 15
_symmetry_cell_setting 'monoclinic'
loop_
_space_group_symop_operation_xyz
x,y,z
-x,y,1/2-z
-x,-y,-z
x,-y,1/2+z
1/2+x,1/2+y,z
1/2-x,1/2+y,1/2-z
1/2-x,1/2-y,-z
1/2+x,1/2-y,1/2+z
loop_
_atom_site_type_symbol
_atom_site_label
_atom_site_fract_x
_atom_site_fract_y
_atom_site_fract_z
Si Si1 0.760987 0.533306 0.881293
Si Si2 0.602543 0.679668 0.777105
Si Si3 0.307412 0.344415 0.740587
Si Si4 0.910713 0.684711 0.898076
Si Si5 0.954163 0.028411 0.602204
Si Si6 0.500000 0.843402 0.750000
Si Si7 0.101865 0.543716 0.896903
O O1 0.861688 0.609896 0.871161
O O2 0.675822 0.586568 0.871792
O O3 0.858282 0.428099 0.811569
O O4 0.617883 0.483215 0.988683
O O5 0.685309 0.755343 0.779913
O O6 0.522490 0.582529 0.851211
O O7 0.479956 0.758847 0.808876
O O8 0.750186 0.630307 0.666938
O O9 0.457792 0.275040 0.688081
O O10 0.387519 0.407485 0.649438
O O11 0.201693 0.437048 0.824479
O O12 0.992150 0.606430 0.905162
O O13 0.750000 0.750000 0.000000
O O14 0.000000 0.500000 0.000000
#
# Coordination Sequence:
#
# PCOD9278589 Si02
#       7
#     8   8   8   8   8   4   8
#     4  11  24  40  67  97 126 171 218 272 317 395
#     4  10  23  40  66  92 127 176 210 265 330 389
#     4  10  20  44  63  92 133 175 213 274 329 392
#     4  11  23  42  70 100 130 170 236 274 322 396
#     4  10  22  43  65  89 133 169 214 264 336 385
#     4  12  24  40  64  96 130 160 224 264 314 398
#     4  10  24  44  65  95 139 176 215 273 342 392
#
# _framework density 20.959281000000001
#
# number of rings (size 3 to 8) (size 9 to 14) (size 15 to 20)
#    0.000    1.538    3.077    0.923    4.308    4.308 
#    0.000    0.000    0.000    0.000    0.000    0.000 
#    0.000    0.000    0.000    0.000    0.000    0.000 
#
# Total GULP energy -144794.809709 kJ/mol
# GULP energy per Si atom -5569.031143 kJ/mol
# Density = 2.091158 g / cm^3
# Si number density = 20.959281 Si / 1000 Ang^3
#
#
#
# Elastic Constant Matrix: (Units=GPa)
#
#
# Indices 1 2 3 4 5 6 
#
# 1 42.7155 17.5901 -23.7029 0.0000 -9.6039 0.0000
# 2 17.5901 81.5149 9.0773 0.0000 -5.5677 0.0000
# 3 -23.7029 9.0773 41.3397 -0.0001 -2.4623 0.0000
# 4 0.0000 0.0000 -0.0001 9.5732 0.0000 1.9792
# 5 -9.6039 -5.5677 -2.4623 0.0000 21.6594 0.0000
# 6 0.0000 0.0000 0.0000 1.9792 0.0000 19.4680
#
#
#
# Elastic Compliance Matrix: (Units=1/GPa)
#
#
# Indices 1 2 3 4 5 6 
#
# 1 0.054748 -0.014130 0.035966 0.000000 0.024732 0.000000
# 2 -0.014130 0.016410 -0.011908 0.000000 -0.003401 0.000000
# 3 0.035966 -0.011908 0.048523 0.000001 0.018403 0.000000
# 4 0.000000 0.000000 0.000001 0.106701 0.000000 -0.010848
# 5 0.024732 -0.003401 0.018403 0.000000 0.058354 0.000000
# 6 0.000000 0.000000 0.000000 -0.010848 0.000000 0.052469
#
#
# Mechanical properties :
#
#
# Convention : Reuss Voigt Hill
#
# Bulk Modulus (GPa) = 7.16647 19.05546 13.11097
# Shear Modulus (GPa) = 13.74156 20.98049 17.36102
#
# Velocity S-wave (km/s) = 2.56331 3.16731 2.88118
# Velocity P-wave (km/s) = 3.49104 4.74207 4.16381
#
# Compressibility (1/GPa) = 0.13953862
#
# Stress axis : x y z
#
# Youngs Moduli (GPa) = 18.26559 60.93660 20.60899
#
# Poissons Ratio (x) = 0.86103 -0.74123
# Poissons Ratio (y) = 0.25809 0.24540
# Poissons Ratio (z) = -0.65695 0.72561
#
# Static dielectric constant tensor:
#      x y z
#    x 1.861300 0.000000 -0.034940 
#    y 0.000000 1.763890 0.000000 
#    z -0.034940 0.000000 1.847250 
# 
# From -- ./inp_files/298850.got.cif
#   From: 2010.05.17/outbox.cif.g08.bks.cpg/sg15_150_cif.got.tgz:298850.got - 2010.06.03 18:47:42.
