data_PCOD9278607
_publ_section_title
;
Structure prediction by ZEFSAII (Michael W. Deem and Ramdas Pophale) SiO2 
 PCOD9278607
Probable space group: C 2/C
;
_chemical_formula_sum "Si O2"
_cell_formula_units_Z 36
_cell_length_a 17.365411
_cell_length_b 7.717511
_cell_length_c 16.509376
_cell_angle_alpha 90.000000
_cell_angle_beta 138.536443
_cell_angle_gamma 90.000000
_cell_volume 1465.025315
_symmetry_space_group_name_H-M "C 2/C"
_symmetry_group_IT_number 15
_symmetry_cell_setting 'monoclinic'
loop_
_space_group_symop_operation_xyz
x,y,z
-x,y,1/2-z
-x,-y,-z
x,-y,1/2+z
1/2+x,1/2+y,z
1/2-x,1/2+y,1/2-z
1/2-x,1/2-y,-z
1/2+x,1/2-y,1/2+z
loop_
_atom_site_type_symbol
_atom_site_label
_atom_site_fract_x
_atom_site_fract_y
_atom_site_fract_z
Si Si1 0.657004 0.644536 0.271826
Si Si2 0.500000 0.556810 0.750000
Si Si3 0.246988 0.001935 0.686741
Si Si4 0.002271 0.558763 0.652668
Si Si5 0.146330 0.738356 0.482988
O O1 0.613832 0.555191 0.319051
O O2 0.698548 0.508029 0.238751
O O3 0.748180 0.803873 0.346609
O O4 0.536697 0.747322 0.152191
O O5 0.464880 0.675978 0.647835
O O6 0.383669 0.957591 0.789038
O O7 0.179318 0.856466 0.584043
O O8 0.000000 0.558000 0.750000
O O9 0.889728 0.460871 0.531320
O O10 0.250000 0.750000 0.500000
#
# Coordination Sequence:
#
# PCOD9278607 Si02
#       5
#     8   4   8   8   8
#     4  10  24  45  66  96 139 171 220 274 324 392
#     4  12  26  44  72  94 134 178 218 276 328 396
#     4  10  24  42  66  98 136 171 219 276 328 386
#     4  10  20  44  64  96 133 169 221 273 309 402
#     4  12  23  40  72  98 130 177 223 268 336 388
#
# _framework density 24.572953999999999
#
# number of rings (size 3 to 8) (size 9 to 14) (size 15 to 20)
#    1.333    0.000    4.444    0.000    6.222    2.667 
#    0.000    0.000    0.000    0.000    0.000    0.000 
#    0.000    0.000    0.000    0.000    0.000    0.000 
#
# Total GULP energy -100475.263105 kJ/mol
# GULP energy per Si atom -5581.959061 kJ/mol
# Density = 2.451702 g / cm^3
# Si number density = 24.572954 Si / 1000 Ang^3
#
#
#
# Elastic Constant Matrix: (Units=GPa)
#
#
# Indices 1 2 3 4 5 6 
#
# 1 141.3724 34.2962 4.2171 0.0000 13.7654 0.0000
# 2 34.2962 108.9904 8.1190 0.0000 9.5806 0.0000
# 3 4.2171 8.1190 36.2785 0.0000 10.3277 0.0000
# 4 0.0000 0.0000 0.0000 -62.1816 0.0000 89.3821
# 5 13.7654 9.5806 10.3277 0.0000 23.9621 0.0000
# 6 0.0000 0.0000 0.0000 89.3821 0.0000 -5.6129
#
#
#
# Elastic Compliance Matrix: (Units=1/GPa)
#
#
# Indices 1 2 3 4 5 6 
#
# 1 0.007979 -0.002211 0.000707 0.000000 -0.004004 0.000000
# 2 -0.002211 0.010168 -0.001394 0.000000 -0.002194 0.000000
# 3 0.000707 -0.001394 0.031632 0.000000 -0.013483 0.000000
# 4 0.000000 0.000000 0.000000 0.000735 0.000000 0.011699
# 5 -0.004004 -0.002194 -0.013483 0.000000 0.050721 0.000000
# 6 0.000000 0.000000 0.000000 0.011699 0.000000 0.008139
#
#
# Mechanical properties :
#
#
# Convention : Reuss Voigt Hill
#
# Bulk Modulus (GPa) = 22.73595 42.21178 32.47386
# Shear Modulus (GPa) = 38.51180 7.23413 22.87296
#
# Velocity S-wave (km/s) = 3.96314 1.71765 3.05424
# Velocity P-wave (km/s) = 5.49677 4.59883 5.06772
#
# Compressibility (1/GPa) = 0.04398321
#
# Stress axis : x y z
#
# Youngs Moduli (GPa) = 125.33242 98.35080 31.61309
#
# Poissons Ratio (x) = 0.21749 -0.02236
# Poissons Ratio (y) = 0.27716 0.04406
# Poissons Ratio (z) = -0.08865 0.13708
#
# Static dielectric constant tensor:
#      x y z
#    x 1.914720 0.000000 -0.007640 
#    y 0.000000 2.050300 0.000000 
#    z -0.007640 0.000000 1.981150 
# 
# From -- ./inp_files/208846.got.cif
#   From: 2010.05.17/outbox.cif.g08.bks.cpg/sg15_105_cif.got.tgz:208846.got - 2010.06.03 18:47:42.
