data_PCOD9278164
_publ_section_title
;
Structure prediction by ZEFSAII (Michael W. Deem and Ramdas Pophale) SiO2 
 PCOD9278164
Probable space group: C 2/C
;
_chemical_formula_sum "Si O2"
_cell_formula_units_Z 52
_cell_length_a 8.664455
_cell_length_b 12.906208
_cell_length_c 32.659211
_cell_angle_alpha 90.000000
_cell_angle_beta 140.165940
_cell_angle_gamma 90.000000
_cell_volume 2339.428011
_symmetry_space_group_name_H-M "C 2/C"
_symmetry_group_IT_number 15
_symmetry_cell_setting 'monoclinic'
loop_
_space_group_symop_operation_xyz
x,y,z
-x,y,1/2-z
-x,-y,-z
x,-y,1/2+z
1/2+x,1/2+y,z
1/2-x,1/2+y,1/2-z
1/2-x,1/2-y,-z
1/2+x,1/2-y,1/2+z
loop_
_atom_site_type_symbol
_atom_site_label
_atom_site_fract_x
_atom_site_fract_y
_atom_site_fract_z
Si Si1 0.349090 0.855779 0.617257
Si Si2 0.083372 0.798647 0.016169
Si Si3 0.759307 0.527753 0.781985
Si Si4 0.500000 0.909500 0.250000
Si Si5 0.853376 0.682383 0.868143
Si Si6 0.596355 0.320362 0.115000
Si Si7 0.837531 0.580448 0.944147
O O1 0.300383 0.780065 0.646606
O O2 0.488394 0.783360 0.613042
O O3 0.084909 0.877800 0.543775
O O4 0.518654 0.952977 0.659959
O O5 0.367034 0.793862 0.066560
O O6 0.074619 0.815355 0.062485
O O7 0.960355 0.689631 0.980844
O O8 0.500000 0.493913 0.750000
O O9 0.807567 0.535213 0.742364
O O10 0.799135 0.639902 0.812132
O O11 0.348396 0.841243 0.187431
O O12 0.810750 0.584486 0.889895
O O13 0.429426 0.417207 0.093131
O O14 0.000000 0.500000 0.000000
#
# Coordination Sequence:
#
# PCOD9278164 Si02
#       7
#     8   8   8   4   8   8   8
#     4  10  23  43  69 106 136 181 242 291 371 433
#     4  10  20  42  67 100 139 176 228 293 368 429
#     4  12  27  49  72 101 148 191 251 300 358 441
#     4  12  26  50  66 102 138 190 248 294 352 438
#     4  10  22  44  68  99 141 182 228 300 361 428
#     4  10  22  42  65  94 137 180 228 285 357 424
#     4  10  21  36  66 102 135 169 224 291 353 429
#
# _framework density 22.227657000000001
#
# number of rings (size 3 to 8) (size 9 to 14) (size 15 to 20)
#    0.000    1.846    1.538    5.538    5.385    3.077 
#    6.923    0.000    0.000    0.000    0.000    0.000 
#    0.000    0.000    0.000    0.000    0.000    0.000 
#
# Total GULP energy -144876.005843 kJ/mol
# GULP energy per Si atom -5572.154071 kJ/mol
# Density = 2.217707 g / cm^3
# Si number density = 22.227657 Si / 1000 Ang^3
#
#
#
# Elastic Constant Matrix: (Units=GPa)
#
#
# Indices 1 2 3 4 5 6 
#
# 1 136.0189 20.3011 44.2370 0.0000 -14.6160 0.0000
# 2 20.3011 34.5968 25.4641 0.0000 -1.6000 0.0000
# 3 44.2370 25.4641 81.2306 0.0000 -2.1568 0.0000
# 4 0.0000 0.0000 0.0000 27.0470 0.0000 12.4474
# 5 -14.6160 -1.6000 -2.1568 0.0000 46.4872 0.0000
# 6 0.0000 0.0000 0.0000 12.4474 0.0000 13.6459
#
#
#
# Elastic Compliance Matrix: (Units=1/GPa)
#
#
# Indices 1 2 3 4 5 6 
#
# 1 0.009380 -0.002175 -0.004356 0.000000 0.002672 0.000000
# 2 -0.002175 0.038104 -0.010757 0.000000 0.000129 0.000000
# 3 -0.004356 -0.010757 0.018031 0.000000 -0.000903 0.000000
# 4 0.000000 0.000000 0.000000 0.063723 0.000000 -0.058126
# 5 0.002672 0.000129 -0.000903 0.000000 0.022314 0.000000
# 6 0.000000 0.000000 0.000000 -0.058126 0.000000 0.126303
#
#
# Mechanical properties :
#
#
# Convention : Reuss Voigt Hill
#
# Bulk Modulus (GPa) = 32.32059 47.98341 40.15200
# Shear Modulus (GPa) = 15.49218 28.22562 21.85890
#
# Velocity S-wave (km/s) = 2.64290 3.56735 3.13934
# Velocity P-wave (km/s) = 4.88728 6.21306 5.58962
#
# Compressibility (1/GPa) = 0.03094003
#
# Stress axis : x y z
#
# Youngs Moduli (GPa) = 106.60707 26.24405 55.46075
#
# Poissons Ratio (x) = 0.05708 0.24157
# Poissons Ratio (y) = 0.23185 0.59659
# Poissons Ratio (z) = 0.46434 0.28231
#
# Static dielectric constant tensor:
#      x y z
#    x 1.774160 0.000000 0.073320 
#    y 0.000000 2.108490 0.000000 
#    z 0.073320 0.000000 1.840670 
# 
# From -- ./inp_files/308335.got.cif
#   From: 2010.05.17/outbox.cif.g08.bks.cpg/sg15_155_cif.got.tgz:308335.got - 2010.06.03 18:47:42.
