data_PCOD9278650
_publ_section_title
;
Structure prediction by ZEFSAII (Michael W. Deem and Ramdas Pophale) SiO2 
 PCOD9278650
Probable space group: C 2/C
;
_chemical_formula_sum "Si O2"
_cell_formula_units_Z 64
_cell_length_a 9.193144
_cell_length_b 20.702819
_cell_length_c 20.535599
_cell_angle_alpha 90.000000
_cell_angle_beta 52.229500
_cell_angle_gamma 90.000000
_cell_volume 3089.488459
_symmetry_space_group_name_H-M "C 2/C"
_symmetry_group_IT_number 15
_symmetry_cell_setting 'monoclinic'
loop_
_space_group_symop_operation_xyz
x,y,z
-x,y,1/2-z
-x,-y,-z
x,-y,1/2+z
1/2+x,1/2+y,z
1/2-x,1/2+y,1/2-z
1/2-x,1/2-y,-z
1/2+x,1/2-y,1/2+z
loop_
_atom_site_type_symbol
_atom_site_label
_atom_site_fract_x
_atom_site_fract_y
_atom_site_fract_z
Si Si1 0.811896 0.866728 0.263309
Si Si2 0.011191 0.340207 0.898623
Si Si3 0.213729 0.872263 0.442856
Si Si4 0.277361 0.030761 0.819491
Si Si5 0.200667 0.268520 0.186239
Si Si6 0.200217 0.609869 0.227647
Si Si7 0.028658 0.347656 0.448486
Si Si8 0.648957 0.697464 0.415962
O O1 0.813501 0.922840 0.209228
O O2 0.764528 0.802724 0.235200
O O3 0.658255 0.880576 0.359486
O O4 0.000000 0.858147 0.250000
O O5 0.836586 0.313425 0.905814
O O6 0.143302 0.280207 0.878975
O O7 0.144314 0.384858 0.818219
O O8 0.946033 0.369899 0.984365
O O9 0.226446 0.941829 0.404684
O O10 0.314659 0.824948 0.363241
O O11 0.323498 0.862104 0.479616
O O12 0.008806 0.845998 0.507919
O O13 0.500000 0.034822 0.750000
O O14 0.220633 0.957766 0.818942
O O15 0.000000 0.238579 0.250000
O O16 0.315043 0.668610 0.165945
O O17 0.000000 0.615003 0.250000
O O18 0.084900 0.271632 0.431412
#
# Coordination Sequence:
#
# PCOD9278650 Si02
#       8
#     8   8   8   8   8   8   8   8
#     4  11  22  36  63  91 122 163 207 266 314 369
#     4  11  24  38  60  96 127 167 202 261 322 365
#     4  11  22  37  62  96 120 170 207 260 315 376
#     4  10  20  44  67  83 121 167 226 252 302 385
#     4  11  21  39  59  88 129 169 207 242 318 396
#     4   9  22  43  65  84 121 176 214 253 309 381
#     4  12  22  37  59  98 131 156 205 260 327 374
#     4  11  23  39  62  92 131 163 207 255 321 386
#
# _framework density 20.715403999999999
#
# number of rings (size 3 to 8) (size 9 to 14) (size 15 to 20)
#    0.000    1.250    3.750    3.000    3.500    1.500 
#    0.000    2.500    0.000    0.000    0.000    0.000 
#    0.000    0.000    0.000    0.000    0.000    0.000 
#
# Total GULP energy -178710.965418 kJ/mol
# GULP energy per Si atom -5584.717669 kJ/mol
# Density = 2.066825 g / cm^3
# Si number density = 20.715404 Si / 1000 Ang^3
#
#
#
# Elastic Constant Matrix: (Units=GPa)
#
#
# Indices 1 2 3 4 5 6 
#
# 1 93.5272 12.4416 7.3692 0.0000 5.1946 0.0000
# 2 12.4416 63.2661 13.8890 0.0000 8.5355 0.0000
# 3 7.3692 13.8890 71.8252 0.0000 13.1917 0.0000
# 4 0.0000 0.0000 0.0000 15.9659 0.0000 -4.6653
# 5 5.1946 8.5355 13.1917 0.0000 39.8816 0.0000
# 6 0.0000 0.0000 0.0000 -4.6653 0.0000 7.7751
#
#
#
# Elastic Compliance Matrix: (Units=1/GPa)
#
#
# Indices 1 2 3 4 5 6 
#
# 1 0.011042 -0.001927 -0.000609 0.000000 -0.000825 0.000000
# 2 -0.001927 0.017108 -0.002645 0.000000 -0.002536 0.000000
# 3 -0.000609 -0.002645 0.015308 0.000000 -0.004418 0.000000
# 4 0.000000 0.000000 0.000000 0.075950 0.000000 0.045572
# 5 -0.000825 -0.002536 -0.004418 0.000000 0.027186 0.000000
# 6 0.000000 0.000000 0.000000 0.045572 0.000000 0.155961
#
#
# Mechanical properties :
#
#
# Convention : Reuss Voigt Hill
#
# Bulk Modulus (GPa) = 30.21385 32.89088 31.55237
# Shear Modulus (GPa) = 15.43461 25.71910 20.57685
#
# Velocity S-wave (km/s) = 2.73257 3.52738 3.15510
# Velocity P-wave (km/s) = 4.95710 5.70104 5.34203
#
# Compressibility (1/GPa) = 0.03309741
#
# Stress axis : x y z
#
# Youngs Moduli (GPa) = 90.56216 58.45269 65.32510
#
# Poissons Ratio (x) = 0.11261 0.03978
# Poissons Ratio (y) = 0.17447 0.17277
# Poissons Ratio (z) = 0.05515 0.15460
#
# Static dielectric constant tensor:
#      x y z
#    x 1.752870 0.000000 0.024130 
#    y 0.000000 1.753660 0.000000 
#    z 0.024130 0.000000 1.782120 
# 
# From -- ./inp_files/234433.got.cif
#   From: 2010.05.17/outbox.cif.g08.bks.cpg/sg15_118_cif.got.tgz:234433.got - 2010.06.03 18:47:42.
