data_PCOD9278517
_publ_section_title
;
Structure prediction by ZEFSAII (Michael W. Deem and Ramdas Pophale) SiO2 
 PCOD9278517
Probable space group: C 2/C
;
_chemical_formula_sum "Si O2"
_cell_formula_units_Z 56
_cell_length_a 17.265628
_cell_length_b 7.859503
_cell_length_c 19.905620
_cell_angle_alpha 90.000000
_cell_angle_beta 112.027762
_cell_angle_gamma 90.000000
_cell_volume 2503.997862
_symmetry_space_group_name_H-M "C 2/C"
_symmetry_group_IT_number 15
_symmetry_cell_setting 'monoclinic'
loop_
_space_group_symop_operation_xyz
x,y,z
-x,y,1/2-z
-x,-y,-z
x,-y,1/2+z
1/2+x,1/2+y,z
1/2-x,1/2+y,1/2-z
1/2-x,1/2-y,-z
1/2+x,1/2-y,1/2+z
loop_
_atom_site_type_symbol
_atom_site_label
_atom_site_fract_x
_atom_site_fract_y
_atom_site_fract_z
Si Si1 0.557826 0.933201 0.715756
Si Si2 0.332230 0.850257 0.164575
Si Si3 0.738801 0.450885 0.018295
Si Si4 0.913530 0.953450 0.934247
Si Si5 0.758622 0.007069 0.123101
Si Si6 0.176013 0.862418 0.214827
Si Si7 0.068465 0.449690 0.076442
O O1 0.500000 0.834801 0.750000
O O2 0.635434 0.814730 0.722631
O O3 0.588882 0.092092 0.769256
O O4 0.528273 0.000583 0.634793
O O5 0.326755 0.658115 0.138944
O O6 0.255021 0.854543 0.191442
O O7 0.313843 0.973688 0.096004
O O8 0.738640 0.565974 0.951714
O O9 0.750000 0.250000 0.000000
O O10 0.657348 0.482788 0.036760
O O11 0.911047 0.750409 0.922195
O O12 0.892117 0.037261 0.853980
O O13 0.000000 0.000000 0.000000
O O14 0.787265 0.926282 0.202176
O O15 0.658534 0.043696 0.096801
O O16 0.000000 0.500000 0.000000
#
# Coordination Sequence:
#
# PCOD9278517 Si02
#       7
#     8   8   8   8   8   8   8
#     4  12  27  44  71 107 144 181 239 305 357 414
#     4  10  20  43  69  96 138 187 231 278 356 427
#     4   9  23  41  70 103 135 181 235 289 338 426
#     4  11  26  46  72 101 145 190 232 291 373 429
#     4  11  23  42  72 100 137 184 244 282 349 428
#     4  11  22  43  71  98 138 189 237 286 355 435
#     4  12  27  43  70 105 147 189 232 302 371 426
#
# _framework density 22.364236999999999
#
# number of rings (size 3 to 8) (size 9 to 14) (size 15 to 20)
#    0.000    1.143    2.857    1.714   10.000    4.000 
#    0.000    1.429    0.000    0.000    0.000    0.000 
#    0.000    0.000    0.000    0.000    0.000    0.000 
#
# Total GULP energy -156020.090957 kJ/mol
# GULP energy per Si atom -5572.146106 kJ/mol
# Density = 2.231333 g / cm^3
# Si number density = 22.364237 Si / 1000 Ang^3
#
#
#
# Elastic Constant Matrix: (Units=GPa)
#
#
# Indices 1 2 3 4 5 6 
#
# 1 81.7165 12.1647 56.1482 0.0000 3.5252 0.0000
# 2 12.1647 39.4179 7.4681 0.0000 0.4361 0.0000
# 3 56.1482 7.4681 208.8355 0.0000 -9.6962 0.0000
# 4 0.0000 0.0000 0.0000 20.9350 0.0000 11.1748
# 5 3.5252 0.4361 -9.6962 0.0000 43.0118 0.0000
# 6 0.0000 0.0000 0.0000 11.1748 0.0000 16.0933
#
#
#
# Elastic Compliance Matrix: (Units=1/GPa)
#
#
# Indices 1 2 3 4 5 6 
#
# 1 0.015833 -0.004063 -0.004214 0.000000 -0.002206 0.000000
# 2 -0.004063 0.026594 0.000146 0.000000 0.000096 0.000000
# 3 -0.004214 0.000146 0.005995 0.000000 0.001695 0.000000
# 4 0.000000 0.000000 0.000000 0.075899 0.000000 -0.052702
# 5 -0.002206 0.000096 0.001695 0.000000 0.023811 0.000000
# 6 0.000000 0.000000 0.000000 -0.052702 0.000000 0.098733
#
#
# Mechanical properties :
#
#
# Convention : Reuss Voigt Hill
#
# Bulk Modulus (GPa) = 31.09511 53.50356 42.29933
# Shear Modulus (GPa) = 18.25826 32.95394 25.60610
#
# Velocity S-wave (km/s) = 2.86038 3.84280 3.38739
# Velocity P-wave (km/s) = 4.98429 6.60796 5.85270
#
# Compressibility (1/GPa) = 0.03215940
#
# Stress axis : x y z
#
# Youngs Moduli (GPa) = 63.15907 37.60181 166.80676
#
# Poissons Ratio (x) = 0.15279 0.70293
# Poissons Ratio (y) = 0.25664 -0.02434
# Poissons Ratio (z) = 0.26616 -0.00549
#
# Static dielectric constant tensor:
#      x y z
#    x 1.843150 0.000000 0.038520 
#    y 0.000000 1.961830 0.000000 
#    z 0.038520 0.000000 1.658610 
# 
# From -- ./inp_files/209614.got.cif
#   From: 2010.05.17/outbox.cif.g08.bks.cpg/sg15_105_cif.got.tgz:209614.got - 2010.06.03 18:47:42.
