data_PCOD9278918
_publ_section_title
;
Structure prediction by ZEFSAII (Michael W. Deem and Ramdas Pophale) SiO2 
 PCOD9278918
Probable space group: C 2/C
;
_chemical_formula_sum "Si O2"
_cell_formula_units_Z 52
_cell_length_a 11.442387
_cell_length_b 24.156235
_cell_length_c 9.130971
_cell_angle_alpha 90.000000
_cell_angle_beta 75.195529
_cell_angle_gamma 90.000000
_cell_volume 2440.062970
_symmetry_space_group_name_H-M "C 2/C"
_symmetry_group_IT_number 15
_symmetry_cell_setting 'monoclinic'
loop_
_space_group_symop_operation_xyz
x,y,z
-x,y,1/2-z
-x,-y,-z
x,-y,1/2+z
1/2+x,1/2+y,z
1/2-x,1/2+y,1/2-z
1/2-x,1/2-y,-z
1/2+x,1/2-y,1/2+z
loop_
_atom_site_type_symbol
_atom_site_label
_atom_site_fract_x
_atom_site_fract_y
_atom_site_fract_z
Si Si1 0.000000 0.971876 0.750000
Si Si2 0.549955 0.246815 0.079187
Si Si3 0.260053 0.835029 0.999948
Si Si4 0.864954 0.307125 0.336366
Si Si5 0.093245 0.932770 0.024859
Si Si6 0.885045 0.848999 0.059061
Si Si7 0.731284 0.315673 0.669528
O O1 0.919597 0.943525 0.646494
O O2 0.083608 0.011620 0.621494
O O3 0.500000 0.228079 0.250000
O O4 0.453654 0.289962 0.043196
O O5 0.658097 0.290511 0.076641
O O6 0.615563 0.193488 0.987037
O O7 0.207562 0.896205 0.038085
O O8 0.263155 0.832414 0.820916
O O9 0.247180 0.842897 0.324660
O O10 0.843357 0.310262 0.520605
O O11 0.834698 0.243910 0.301931
O O12 0.000000 0.322604 0.250000
O O13 0.973133 0.895147 0.091401
O O14 0.855907 0.856082 0.895786
#
# Coordination Sequence:
#
# PCOD9278918 Si02
#       7
#     4   8   8   8   8   8   8
#     4  10  22  40  60  86 112 140 202 272 308 352
#     4  10  21  33  48  82 124 160 187 222 283 349
#     4  10  21  34  56  78 120 162 189 233 288 358
#     4   9  19  30  49  78 114 160 202 230 259 325
#     4  10  21  37  61  86 112 146 195 256 320 345
#     4   9  19  34  53  82 116 154 196 235 282 354
#     4   9  19  32  48  77 110 165 200 225 257 345
#
# _framework density 21.310925000000001
#
# number of rings (size 3 to 8) (size 9 to 14) (size 15 to 20)
#    0.923    1.538    0.000    1.846    8.615    0.000 
#    0.000    0.000    0.000    0.000    0.000    6.462 
#    0.000    0.000    0.000    0.000    0.000    0.000 
#
# Total GULP energy -144887.443035 kJ/mol
# GULP energy per Si atom -5572.593963 kJ/mol
# Density = 2.126242 g / cm^3
# Si number density = 21.310925 Si / 1000 Ang^3
#
#
#
# Elastic Constant Matrix: (Units=GPa)
#
#
# Indices 1 2 3 4 5 6 
#
# 1 107.0162 27.2443 48.8396 0.0000 -8.7218 0.0000
# 2 27.2443 54.9482 19.3205 0.0000 -3.5761 0.0000
# 3 48.8396 19.3205 89.3082 0.0000 -3.0435 0.0000
# 4 0.0000 0.0000 0.0000 34.3944 0.0000 4.6370
# 5 -8.7218 -3.5761 -3.0435 0.0000 42.6155 0.0000
# 6 0.0000 0.0000 0.0000 4.6370 0.0000 30.7982
#
#
#
# Elastic Compliance Matrix: (Units=1/GPa)
#
#
# Indices 1 2 3 4 5 6 
#
# 1 0.013523 -0.004331 -0.006392 0.000000 0.001948 0.000000
# 2 -0.004331 0.021162 -0.002185 0.000000 0.000733 0.000000
# 3 -0.006392 -0.002185 0.015151 0.000000 -0.000409 0.000000
# 4 0.000000 0.000000 0.000000 0.029677 0.000000 -0.004468
# 5 0.001948 0.000733 -0.000409 0.000000 0.023897 0.000000
# 6 0.000000 0.000000 0.000000 -0.004468 0.000000 0.033142
#
#
# Mechanical properties :
#
#
# Convention : Reuss Voigt Hill
#
# Bulk Modulus (GPa) = 41.62926 49.12014 45.37470
# Shear Modulus (GPa) = 29.34727 31.95282 30.65004
#
# Velocity S-wave (km/s) = 3.71496 3.87636 3.79652
# Velocity P-wave (km/s) = 6.16262 6.56767 6.36836
#
# Compressibility (1/GPa) = 0.02402156
#
# Stress axis : x y z
#
# Youngs Moduli (GPa) = 73.94987 47.25431 66.00055
#
# Poissons Ratio (x) = 0.20464 0.42187
# Poissons Ratio (y) = 0.32024 0.14420
# Poissons Ratio (z) = 0.47268 0.10325
#
# Static dielectric constant tensor:
#      x y z
#    x 1.940110 0.000000 0.067010 
#    y 0.000000 1.756490 0.000000 
#    z 0.067010 0.000000 1.929240 
# 
# From -- ./inp_files/52461.got.cif
#   From: 2010.05.17/outbox.cif.g08.bks.cpg/sg15_27_cif.got.tgz:52461.got - 2010.06.03 18:47:42.
