data_PCOD9278904
_publ_section_title
;
Structure prediction by ZEFSAII (Michael W. Deem and Ramdas Pophale) SiO2 
 PCOD9278904
Probable space group: C 2/C
;
_chemical_formula_sum "Si O2"
_cell_formula_units_Z 56
_cell_length_a 11.114364
_cell_length_b 30.363931
_cell_length_c 8.849561
_cell_angle_alpha 90.000000
_cell_angle_beta 120.078982
_cell_angle_gamma 90.000000
_cell_volume 2584.334803
_symmetry_space_group_name_H-M "C 2/C"
_symmetry_group_IT_number 15
_symmetry_cell_setting 'monoclinic'
loop_
_space_group_symop_operation_xyz
x,y,z
-x,y,1/2-z
-x,-y,-z
x,-y,1/2+z
1/2+x,1/2+y,z
1/2-x,1/2+y,1/2-z
1/2-x,1/2-y,-z
1/2+x,1/2-y,1/2+z
loop_
_atom_site_type_symbol
_atom_site_label
_atom_site_fract_x
_atom_site_fract_y
_atom_site_fract_z
Si Si1 0.724957 0.494598 0.391843
Si Si2 0.868274 0.309097 0.466303
Si Si3 0.906257 0.149916 0.839756
Si Si4 0.662648 0.161484 0.209726
Si Si5 0.433230 0.556397 0.969042
Si Si6 0.229765 0.560288 0.312554
Si Si7 0.080487 0.216961 0.151187
O O1 0.637210 0.528128 0.442696
O O2 0.625571 0.466173 0.219907
O O3 0.816770 0.526204 0.344902
O O4 0.806646 0.460296 0.548506
O O5 0.743145 0.334699 0.309861
O O6 0.847311 0.314805 0.632731
O O7 0.867732 0.259244 0.408155
O O8 0.020545 0.329304 0.532878
O O9 0.892072 0.107270 0.935913
O O10 0.000000 0.138745 0.750000
O O11 0.983787 0.188369 0.979215
O O12 0.684890 0.109924 0.255351
O O13 0.794991 0.184720 0.219097
O O14 0.600393 0.557425 0.082696
O O15 0.000000 0.231623 0.250000
#
# Coordination Sequence:
#
# PCOD9278904 Si02
#       7
#     8   8   8   8   8   8   8
#     4  10  21  32  59  94 132 168 213 278 322 384
#     4  11  25  45  68  97 134 180 221 275 337 404
#     4  12  24  41  71  99 129 174 229 273 323 405
#     4  11  24  42  72  98 137 178 223 272 336 398
#     4  11  19  34  57  94 130 165 219 269 327 379
#     4  11  19  36  59  95 130 169 217 266 327 384
#     4  12  27  46  70 101 134 171 226 284 333 390
#
# _framework density 21.669018999999999
#
# number of rings (size 3 to 8) (size 9 to 14) (size 15 to 20)
#    0.000    0.857    2.857    6.429    4.000    2.286 
#    0.000    0.000    0.000   15.429    0.000    0.000 
#    0.000    0.000    0.000    0.000    0.000    0.000 
#
# Total GULP energy -156671.448598 kJ/mol
# GULP energy per Si atom -5595.408878 kJ/mol
# Density = 2.161970 g / cm^3
# Si number density = 21.669019 Si / 1000 Ang^3
#
#
#
# Elastic Constant Matrix: (Units=GPa)
#
#
# Indices 1 2 3 4 5 6 
#
# 1 41.3542 20.4778 27.2924 0.0000 16.7051 0.0000
# 2 20.4778 158.6915 36.8922 0.0000 12.5652 0.0000
# 3 27.2924 36.8922 56.6953 0.0000 16.6872 0.0000
# 4 0.0000 0.0000 0.0000 9.6607 0.0000 -20.8776
# 5 16.7051 12.5652 16.6872 0.0000 39.1528 0.0000
# 6 0.0000 0.0000 0.0000 -20.8776 0.0000 4.9545
#
#
#
# Elastic Compliance Matrix: (Units=1/GPa)
#
#
# Indices 1 2 3 4 5 6 
#
# 1 0.038490 -0.000654 -0.015244 0.000000 -0.009716 0.000000
# 2 -0.000654 0.007441 -0.004466 0.000000 -0.000205 0.000000
# 3 -0.015244 -0.004466 0.029211 0.000000 -0.004513 0.000000
# 4 0.000000 0.000000 0.000000 -0.012769 0.000000 -0.053807
# 5 -0.009716 -0.000205 -0.004513 0.000000 0.031675 0.000000
# 6 0.000000 0.000000 0.000000 -0.053807 0.000000 -0.024898
#
#
# Mechanical properties :
#
#
# Convention : Reuss Voigt Hill
#
# Bulk Modulus (GPa) = 29.05828 47.34066 38.19947
# Shear Modulus (GPa) = 41.20359 22.22551 31.71455
#
# Velocity S-wave (km/s) = 4.36535 3.20610 3.82984
# Velocity P-wave (km/s) = 6.23278 5.96658 6.10113
#
# Compressibility (1/GPa) = 0.03441359
#
# Stress axis : x y z
#
# Youngs Moduli (GPa) = 25.98079 134.39945 34.23387
#
# Poissons Ratio (x) = 0.08786 0.52185
# Poissons Ratio (y) = 0.01698 0.15291
# Poissons Ratio (z) = 0.39604 0.60029
#
# Static dielectric constant tensor:
#      x y z
#    x 1.845260 0.000000 -0.024390 
#    y 0.000000 1.769120 0.000000 
#    z -0.024390 0.000000 1.789540 
# 
# From -- ./inp_files/35774.got.cif
#   From: 2010.05.17/outbox.cif.g08.bks.cpg/sg15_18_cif.got.tgz:35774.got - 2010.06.03 18:47:42.
