data_PCOD9278797
_publ_section_title
;
Structure prediction by ZEFSAII (Michael W. Deem and Ramdas Pophale) SiO2 
 PCOD9278797
Probable space group: C 2/C
;
_chemical_formula_sum "Si O2"
_cell_formula_units_Z 60
_cell_length_a 27.583557
_cell_length_b 7.243958
_cell_length_c 12.028068
_cell_angle_alpha 90.000000
_cell_angle_beta 90.733944
_cell_angle_gamma 90.000000
_cell_volume 2403.180742
_symmetry_space_group_name_H-M "C 2/C"
_symmetry_group_IT_number 15
_symmetry_cell_setting 'monoclinic'
loop_
_space_group_symop_operation_xyz
x,y,z
-x,y,1/2-z
-x,-y,-z
x,-y,1/2+z
1/2+x,1/2+y,z
1/2-x,1/2+y,1/2-z
1/2-x,1/2-y,-z
1/2+x,1/2-y,1/2+z
loop_
_atom_site_type_symbol
_atom_site_label
_atom_site_fract_x
_atom_site_fract_y
_atom_site_fract_z
Si Si1 0.629011 0.279371 0.364259
Si Si2 0.734444 0.626220 0.899512
Si Si3 0.467985 0.679599 0.526457
Si Si4 0.248141 0.277215 0.345984
Si Si5 0.136136 0.645236 0.897374
Si Si6 0.146513 0.123087 0.615597
Si Si7 0.000000 0.862151 0.250000
Si Si8 0.422218 0.322039 0.807855
O O1 0.676593 0.393102 0.396749
O O2 0.583003 0.372059 0.418604
O O3 0.631911 0.270769 0.230126
O O4 0.629140 0.072878 0.411180
O O5 0.747597 0.729690 0.786298
O O6 0.757461 0.425398 0.895364
O O7 0.750000 0.750000 0.000000
O O8 0.500000 0.500000 0.500000
O O9 0.493902 0.759794 0.637980
O O10 0.453714 0.772843 0.408398
O O11 0.193317 0.334262 0.369396
O O12 0.295011 0.391783 0.385754
O O13 0.100453 0.712187 0.796511
O O14 0.128160 0.760109 0.010127
O O15 0.123219 0.923343 0.634637
O O16 0.956516 0.008035 0.270796
#
# Coordination Sequence:
#
# PCOD9278797 Si02
#       8
#     8   8   8   8   8   8   4   8
#     4  11  25  44  67 107 145 188 243 297 372 429
#     4  11  25  43  68  98 144 194 243 301 356 426
#     4  10  23  44  76 104 133 181 246 301 364 442
#     4  11  24  42  64 104 143 196 249 289 355 433
#     4  12  26  42  70 107 154 192 236 305 364 425
#     4  11  24  43  68 103 146 194 248 296 351 434
#     4  10  20  46  72 110 126 178 234 304 352 440
#     4  11  24  42  78 104 139 186 250 290 368 434
#
# _framework density 24.966909999999999
#
# number of rings (size 3 to 8) (size 9 to 14) (size 15 to 20)
#    0.000    1.067    1.333    5.200    5.600    2.133 
#    0.000    0.667    0.000    5.600    0.000    0.000 
#    0.000    0.000    0.000    0.000    0.000    0.000 
#
# Total GULP energy -167788.757445 kJ/mol
# GULP energy per Si atom -5592.958581 kJ/mol
# Density = 2.491008 g / cm^3
# Si number density = 24.966910 Si / 1000 Ang^3
#
#
#
# Elastic Constant Matrix: (Units=GPa)
#
#
# Indices 1 2 3 4 5 6 
#
# 1 121.1288 33.2427 41.6392 0.0000 -7.3432 0.0000
# 2 33.2427 74.0277 17.2793 0.0000 5.9692 0.0000
# 3 41.6392 17.2793 169.5232 0.0000 28.4047 0.0000
# 4 0.0000 0.0000 0.0000 31.3115 0.0000 3.0261
# 5 -7.3432 5.9692 28.4047 0.0000 52.2161 0.0000
# 6 0.0000 0.0000 0.0000 3.0261 0.0000 16.0395
#
#
#
# Elastic Compliance Matrix: (Units=1/GPa)
#
#
# Indices 1 2 3 4 5 6 
#
# 1 0.010621 -0.004410 -0.002744 0.000000 0.003491 0.000000
# 2 -0.004410 0.015707 -0.000124 0.000000 -0.002348 0.000000
# 3 -0.002744 -0.000124 0.007315 0.000000 -0.004351 0.000000
# 4 0.000000 0.000000 0.000000 0.032530 0.000000 -0.006137
# 5 0.003491 -0.002348 -0.004351 0.000000 0.022277 0.000000
# 6 0.000000 0.000000 0.000000 -0.006137 0.000000 0.063504
#
#
# Mechanical properties :
#
#
# Convention : Reuss Voigt Hill
#
# Bulk Modulus (GPa) = 52.39611 61.00024 56.69817
# Shear Modulus (GPa) = 28.92285 38.08131 33.50208
#
# Velocity S-wave (km/s) = 3.40729 3.90971 3.66711
# Velocity P-wave (km/s) = 6.04246 6.69825 6.37879
#
# Compressibility (1/GPa) = 0.01908539
#
# Stress axis : x y z
#
# Youngs Moduli (GPa) = 94.15320 63.66462 136.71325
#
# Poissons Ratio (x) = 0.28078 0.37516
# Poissons Ratio (y) = 0.41525 0.01699
# Poissons Ratio (z) = 0.25837 0.00791
#
# Static dielectric constant tensor:
#      x y z
#    x 2.050470 0.000000 0.051250 
#    y 0.000000 1.912980 0.000000 
#    z 0.051250 0.000000 2.096490 
# 
# From -- ./inp_files/121961.got.cif
#   From: 2010.05.17/outbox.cif.g08.bks.cpg/sg15_61_cif.got.tgz:121961.got - 2010.06.03 18:47:42.
