data_PCOD9278533
_publ_section_title
;
Structure prediction by ZEFSAII (Michael W. Deem and Ramdas Pophale) SiO2 
 PCOD9278533
Probable space group: C 2/C
;
_chemical_formula_sum "Si O2"
_cell_formula_units_Z 36
_cell_length_a 7.166995
_cell_length_b 20.565259
_cell_length_c 9.199141
_cell_angle_alpha 90.000000
_cell_angle_beta 99.772590
_cell_angle_gamma 90.000000
_cell_volume 1336.196825
_symmetry_space_group_name_H-M "C 2/C"
_symmetry_group_IT_number 15
_symmetry_cell_setting 'monoclinic'
loop_
_space_group_symop_operation_xyz
x,y,z
-x,y,1/2-z
-x,-y,-z
x,-y,1/2+z
1/2+x,1/2+y,z
1/2-x,1/2+y,1/2-z
1/2-x,1/2-y,-z
1/2+x,1/2-y,1/2+z
loop_
_atom_site_type_symbol
_atom_site_label
_atom_site_fract_x
_atom_site_fract_y
_atom_site_fract_z
Si Si1 0.959938 0.892194 0.581467
Si Si2 0.679940 0.520715 0.887992
Si Si3 0.500000 0.183475 0.250000
Si Si4 0.091034 0.633450 0.568842
Si Si5 0.221876 0.801326 0.161085
O O1 0.921147 0.832338 0.473137
O O2 0.000000 0.871696 0.750000
O O3 0.107560 0.940174 0.520710
O O4 0.788324 0.944625 0.576472
O O5 0.500000 0.525437 0.750000
O O6 0.872190 0.558963 0.877810
O O7 0.586384 0.144355 0.395932
O O8 0.659097 0.229443 0.196136
O O9 0.266952 0.664694 0.680594
O O10 0.916475 0.675608 0.609426
#
# Coordination Sequence:
#
# PCOD9278533 Si02
#       5
#     8   8   4   8   8
#     4  10  22  39  72 103 136 187 228 278 354 432
#     4  10  20  43  71 101 139 184 228 286 355 417
#     4  12  26  48  72  96 140 194 238 292 350 420
#     4  11  25  44  71 100 139 180 238 295 348 414
#     4  11  24  46  68 101 141 184 233 294 352 413
#
# _framework density 26.942136999999999
#
# number of rings (size 3 to 8) (size 9 to 14) (size 15 to 20)
#    0.000    1.333    2.222    2.667    3.111    0.889 
#    4.000    2.222    0.000    0.000    0.000    0.000 
#    0.000    0.000    0.000    0.000    0.000    0.000 
#
# Total GULP energy -100511.412236 kJ/mol
# GULP energy per Si atom -5583.967346 kJ/mol
# Density = 2.688082 g / cm^3
# Si number density = 26.942137 Si / 1000 Ang^3
#
#
#
# Elastic Constant Matrix: (Units=GPa)
#
#
# Indices 1 2 3 4 5 6 
#
# 1 102.0669 36.5337 47.3073 0.0000 -23.1788 0.0000
# 2 36.5337 95.4684 39.8576 0.0000 -2.1048 0.0000
# 3 47.3073 39.8576 247.0417 0.0000 -11.7631 0.0000
# 4 0.0000 0.0000 0.0000 48.2849 0.0000 -9.9984
# 5 -23.1788 -2.1048 -11.7631 0.0000 25.0722 0.0000
# 6 0.0000 0.0000 0.0000 -9.9984 0.0000 74.9052
#
#
#
# Elastic Compliance Matrix: (Units=1/GPa)
#
#
# Indices 1 2 3 4 5 6 
#
# 1 0.015180 -0.004897 -0.001502 0.000000 0.012918 0.000000
# 2 -0.004897 0.012811 -0.001323 0.000000 -0.004073 0.000000
# 3 -0.001502 -0.001323 0.004580 0.000000 0.000649 0.000000
# 4 0.000000 0.000000 0.000000 0.021299 0.000000 0.002843
# 5 0.012918 -0.004073 0.000649 0.000000 0.051790 0.000000
# 6 0.000000 0.000000 0.000000 0.002843 0.000000 0.013730
#
#
# Mechanical properties :
#
#
# Convention : Reuss Voigt Hill
#
# Bulk Modulus (GPa) = 58.38703 76.88602 67.63653
# Shear Modulus (GPa) = 35.57616 51.04435 43.31025
#
# Velocity S-wave (km/s) = 3.63776 4.35741 4.01375
# Velocity P-wave (km/s) = 6.27397 7.34272 6.82928
#
# Compressibility (1/GPa) = 0.01712709
#
# Stress axis : x y z
#
# Youngs Moduli (GPa) = 65.87576 78.05562 218.34781
#
# Poissons Ratio (x) = 0.38227 0.32789
# Poissons Ratio (y) = 0.32262 0.28889
# Poissons Ratio (z) = 0.09892 0.10327
#
# Static dielectric constant tensor:
#      x y z
#    x 2.389140 0.000000 -0.027770 
#    y 0.000000 2.142330 0.000000 
#    z -0.027770 0.000000 2.098550 
# 
# From -- ./inp_files/23857.got.cif
#   From: 2010.05.17/outbox.cif.g08.bks.cpg/sg15_12_cif.got.tgz:23857.got - 2010.06.03 18:47:42.
