data_PCOD9278305
_publ_section_title
;
Structure prediction by ZEFSAII (Michael W. Deem and Ramdas Pophale) SiO2 
 PCOD9278305
Probable space group: C 2/C
;
_chemical_formula_sum "Si O2"
_cell_formula_units_Z 64
_cell_length_a 12.537251
_cell_length_b 25.491981
_cell_length_c 19.474134
_cell_angle_alpha 90.000000
_cell_angle_beta 151.231528
_cell_angle_gamma 90.000000
_cell_volume 2995.395088
_symmetry_space_group_name_H-M "C 2/C"
_symmetry_group_IT_number 15
_symmetry_cell_setting 'monoclinic'
loop_
_space_group_symop_operation_xyz
x,y,z
-x,y,1/2-z
-x,-y,-z
x,-y,1/2+z
1/2+x,1/2+y,z
1/2-x,1/2+y,1/2-z
1/2-x,1/2-y,-z
1/2+x,1/2-y,1/2+z
loop_
_atom_site_type_symbol
_atom_site_label
_atom_site_fract_x
_atom_site_fract_y
_atom_site_fract_z
Si Si1 0.868515 0.895838 0.109875
Si Si2 0.756309 0.306255 0.199601
Si Si3 0.440839 0.928676 0.921005
Si Si4 0.422400 0.422454 0.406530
Si Si5 0.529901 0.413480 0.910732
Si Si6 0.474148 0.273731 0.157698
Si Si7 0.966719 0.457327 0.086750
Si Si8 0.245970 0.197945 0.541449
O O1 0.954041 0.836598 0.152133
O O2 0.000000 0.919515 0.250000
O O3 0.919156 0.929231 0.069987
O O4 0.609063 0.889827 0.978604
O O5 0.620875 0.360032 0.119169
O O6 0.677100 0.269809 0.217566
O O7 0.723009 0.281315 0.106266
O O8 0.010828 0.324600 0.339780
O O9 0.187225 0.923844 0.756514
O O10 0.529387 0.984405 0.942491
O O11 0.475148 0.922826 0.021769
O O12 0.503469 0.433162 0.529384
O O13 0.187092 0.449027 0.256231
O O14 0.745636 0.442577 0.002606
O O15 0.581775 0.350869 0.938621
O O16 0.500000 0.252815 0.250000
O O17 0.250000 0.250000 0.000000
O O18 0.250000 0.250000 0.500000
#
# Coordination Sequence:
#
# PCOD9278305 Si02
#       8
#     8   8   8   8   8   8   8   8
#     4  10  21  43  67  89 125 174 217 248 323 403
#     4   9  20  40  60  91 123 172 214 243 332 390
#     4  11  26  41  66  98 127 166 214 277 321 375
#     4  10  20  42  70  86 126 173 206 261 317 399
#     4  11  24  43  65 101 132 162 217 275 327 374
#     4  10  23  40  64  90 122 171 216 264 314 377
#     4  11  23  43  67  88 129 173 210 259 331 391
#     4  10  21  39  65  93 131 171 209 268 321 386
#
# _framework density 21.366129000000001
#
# number of rings (size 3 to 8) (size 9 to 14) (size 15 to 20)
#    0.000    1.750    2.500    0.750    3.500    2.000 
#   11.250    0.000    0.000    0.000    0.000    0.000 
#    0.000    0.000    0.000    0.000    0.000    0.000 
#
# Total GULP energy -178455.908890 kJ/mol
# GULP energy per Si atom -5576.747153 kJ/mol
# Density = 2.131750 g / cm^3
# Si number density = 21.366129 Si / 1000 Ang^3
#
#
#
# Elastic Constant Matrix: (Units=GPa)
#
#
# Indices 1 2 3 4 5 6 
#
# 1 126.1550 16.9040 13.6896 0.0183 -3.9727 0.0003
# 2 16.9040 29.1016 -2.6807 0.0229 -11.0278 0.0093
# 3 13.6896 -2.6807 53.9786 0.0888 -0.1378 0.0275
# 4 0.0183 0.0229 0.0888 24.9464 0.0209 -1.4742
# 5 -3.9727 -11.0278 -0.1378 0.0209 29.6203 0.0050
# 6 0.0003 0.0093 0.0275 -1.4742 0.0050 29.0046
#
#
#
# Elastic Compliance Matrix: (Units=1/GPa)
#
#
# Indices 1 2 3 4 5 6 
#
# 1 0.008952 -0.005804 -0.002561 0.000009 -0.000972 0.000005
# 2 -0.005804 0.043992 0.003697 -0.000064 0.015617 -0.000023
# 3 -0.002561 0.003697 0.019362 -0.000073 0.001123 -0.000023
# 4 0.000009 -0.000064 -0.000073 0.040207 -0.000052 0.002044
# 5 -0.000972 0.015617 0.001123 -0.000052 0.039450 -0.000015
# 6 0.000005 -0.000023 -0.000023 0.002044 -0.000015 0.034581
#
#
# Mechanical properties :
#
#
# Convention : Reuss Voigt Hill
#
# Bulk Modulus (GPa) = 15.88074 29.45121 22.66598
# Shear Modulus (GPa) = 23.05522 28.80243 25.92883
#
# Velocity S-wave (km/s) = 3.28846 3.67555 3.48738
# Velocity P-wave (km/s) = 4.67626 5.64153 5.18143
#
# Compressibility (1/GPa) = 0.06296936
#
# Stress axis : x y z
#
# Youngs Moduli (GPa) = 111.70994 22.73123 51.64766
#
# Poissons Ratio (x) = 0.13193 0.13227
# Poissons Ratio (y) = 0.64837 -0.19093
# Poissons Ratio (z) = 0.28609 -0.08403
#
# Static dielectric constant tensor:
#      x y z
#    x 1.830070 -0.000040 -0.029250 
#    y -0.000040 1.822660 -0.000050 
#    z -0.029250 -0.000050 1.759190 
# 
# From -- ./inp_files/201497.got.cif
#   From: 2010.05.17/outbox.cif.g08.bks.cpg/sg15_101_cif.got.tgz:201497.got - 2010.06.03 18:47:42.
