data_PCOD9278051
_publ_section_title
;
Structure prediction by ZEFSAII (Michael W. Deem and Ramdas Pophale) SiO2 
 PCOD9278051
Probable space group: C 2/C
;
_chemical_formula_sum "Si O2"
_cell_formula_units_Z 60
_cell_length_a 6.083617
_cell_length_b 18.019947
_cell_length_c 28.396886
_cell_angle_alpha 90.000000
_cell_angle_beta 116.386829
_cell_angle_gamma 90.000000
_cell_volume 2788.713585
_symmetry_space_group_name_H-M "C 2/C"
_symmetry_group_IT_number 15
_symmetry_cell_setting 'monoclinic'
loop_
_space_group_symop_operation_xyz
x,y,z
-x,y,1/2-z
-x,-y,-z
x,-y,1/2+z
1/2+x,1/2+y,z
1/2-x,1/2+y,1/2-z
1/2-x,1/2-y,-z
1/2+x,1/2-y,1/2+z
loop_
_atom_site_type_symbol
_atom_site_label
_atom_site_fract_x
_atom_site_fract_y
_atom_site_fract_z
Si Si1 0.930218 0.065301 0.057126
Si Si2 0.205225 0.081227 0.346197
Si Si3 0.384185 0.683131 0.888057
Si Si4 0.820754 0.679146 0.113326
Si Si5 0.717193 0.929813 0.439762
Si Si6 0.172567 0.081519 0.844975
Si Si7 0.500000 0.308344 0.250000
Si Si8 0.084478 0.774657 0.689475
O O1 0.824348 0.070080 0.099776
O O2 0.090056 0.139898 0.067519
O O3 0.729150 0.061609 0.996995
O O4 0.117764 0.996814 0.065883
O O5 0.473924 0.114661 0.361729
O O6 0.026157 0.145179 0.311074
O O7 0.129804 0.000687 0.321001
O O8 0.569281 0.752046 0.904730
O O9 0.336417 0.647202 0.933951
O O10 0.489080 0.615715 0.866362
O O11 0.134918 0.717926 0.843019
O O12 0.737828 0.711405 0.155805
O O13 0.443684 0.925703 0.393029
O O14 0.136072 0.139644 0.799862
O O15 0.723113 0.256214 0.254241
#
# Coordination Sequence:
#
# PCOD9278051 Si02
#       8
#     8   8   8   8   8   8   4   8
#     4  10  22  38  66  97 135 179 215 262 335 395
#     4  10  22  42  67  95 134 172 216 267 332 398
#     4  11  21  41  66  90 132 172 211 275 327 382
#     4  10  20  42  65  89 132 174 210 269 322 397
#     4  11  22  39  62 101 139 170 219 274 319 401
#     4  12  24  43  65  99 133 168 221 280 328 395
#     4  12  24  46  68  92 128 166 216 274 338 382
#     4  10  23  44  64  94 127 172 216 272 329 394
#
# _framework density 21.515295999999999
#
# number of rings (size 3 to 8) (size 9 to 14) (size 15 to 20)
#    0.000    1.333    5.333    0.000    0.000    2.667 
#    2.400    9.333    0.000    0.000    0.000    0.000 
#    0.000    0.000    0.000    0.000    0.000    0.000 
#
# Total GULP energy -167491.666612 kJ/mol
# GULP energy per Si atom -5583.055554 kJ/mol
# Density = 2.146633 g / cm^3
# Si number density = 21.515296 Si / 1000 Ang^3
#
#
#
# Elastic Constant Matrix: (Units=GPa)
#
#
# Indices 1 2 3 4 5 6 
#
# 1 72.7939 26.4313 36.7647 0.0000 5.7353 0.0000
# 2 26.4313 129.5578 35.8179 0.0000 10.5576 0.0000
# 3 36.7647 35.8179 89.9304 0.0000 18.7240 0.0000
# 4 0.0000 0.0000 0.0000 -4.8967 0.0000 -2.9914
# 5 5.7353 10.5576 18.7240 0.0000 28.1324 0.0000
# 6 0.0000 0.0000 0.0000 -2.9914 0.0000 47.1518
#
#
#
# Elastic Compliance Matrix: (Units=1/GPa)
#
#
# Indices 1 2 3 4 5 6 
#
# 1 0.017746 -0.001859 -0.006857 0.000000 0.001643 0.000000
# 2 -0.001859 0.008898 -0.002517 0.000000 -0.001286 0.000000
# 3 -0.006857 -0.002517 0.016760 0.000000 -0.008813 0.000000
# 4 0.000000 0.000000 0.000000 -0.196600 0.000000 -0.012473
# 5 0.001643 -0.001286 -0.008813 0.000000 0.041559 0.000000
# 6 0.000000 0.000000 0.000000 -0.012473 0.000000 0.020417
#
#
# Mechanical properties :
#
#
# Convention : Reuss Voigt Hill
#
# Bulk Modulus (GPa) = 47.75464 54.47888 51.11676
# Shear Modulus (GPa) = -80.93603 26.96203 -26.98700
#
# Velocity S-wave (km/s) = -6.14000 3.54384 -3.54548
# Velocity P-wave (km/s) = 5.29360 6.49007 2.65507
#
# Compressibility (1/GPa) = 0.02094037
#
# Stress axis : x y z
#
# Youngs Moduli (GPa) = 56.35151 112.38180 59.66631
#
# Poissons Ratio (x) = 0.20888 0.40910
# Poissons Ratio (y) = 0.10474 0.15015
# Poissons Ratio (z) = 0.38638 0.28281
#
# Static dielectric constant tensor:
#      x y z
#    x 1.823790 0.000000 -0.012020 
#    y 0.000000 1.792740 0.000000 
#    z -0.012020 0.000000 1.775470 
# 
# From -- ./inp_files/286063.got.cif
#   From: 2010.05.17/outbox.cif.g08.bks.cpg/sg15_144_cif.got.tgz:286063.got - 2010.06.03 18:47:42.
