data_PCOD9278327
_publ_section_title
;
Structure prediction by ZEFSAII (Michael W. Deem and Ramdas Pophale) SiO2 
 PCOD9278327
Probable space group: C 2/C
;
_chemical_formula_sum "Si O2"
_cell_formula_units_Z 44
_cell_length_a 16.892493
_cell_length_b 8.892636
_cell_length_c 16.991219
_cell_angle_alpha 90.000000
_cell_angle_beta 52.952816
_cell_angle_gamma 90.000000
_cell_volume 2037.171909
_symmetry_space_group_name_H-M "C 2/C"
_symmetry_group_IT_number 15
_symmetry_cell_setting 'monoclinic'
loop_
_space_group_symop_operation_xyz
x,y,z
-x,y,1/2-z
-x,-y,-z
x,-y,1/2+z
1/2+x,1/2+y,z
1/2-x,1/2+y,1/2-z
1/2-x,1/2-y,-z
1/2+x,1/2-y,1/2+z
loop_
_atom_site_type_symbol
_atom_site_label
_atom_site_fract_x
_atom_site_fract_y
_atom_site_fract_z
Si Si1 0.789138 0.896601 0.645986
Si Si2 0.003340 0.749590 0.965607
Si Si3 0.602916 0.053980 0.343752
Si Si4 0.814593 0.828404 0.394591
Si Si5 0.820979 0.117532 0.483727
Si Si6 0.500000 0.852971 0.750000
O O1 0.737679 0.738127 0.651213
O O2 0.721829 0.942968 0.760659
O O3 0.906746 0.867933 0.579775
O O4 0.778637 0.021374 0.583286
O O5 0.925251 0.813064 0.949291
O O6 0.059961 0.597269 0.906702
O O7 0.939405 0.695367 0.080265
O O8 0.421194 0.254225 0.338052
O O9 0.556680 0.058117 0.283666
O O10 0.750000 0.750000 0.500000
O O11 0.823963 0.001985 0.408868
O O12 0.750000 0.250000 0.500000
#
# Coordination Sequence:
#
# PCOD9278327 Si02
#       6
#     8   8   8   8   8   4
#     4  10  23  45  71  94 139 183 233 275 346 416
#     4  11  25  44  70  99 144 178 225 289 351 402
#     4  10  24  41  72 102 134 179 231 286 345 405
#     4   9  20  40  66  93 129 175 219 272 335 395
#     4  11  25  42  69 103 141 180 227 285 342 409
#     4  10  20  42  70  96 130 178 234 270 340 412
#
# _framework density 21.598569000000001
#
# number of rings (size 3 to 8) (size 9 to 14) (size 15 to 20)
#    0.000    1.818    0.000    2.727   15.273    0.000 
#    6.545    0.000    0.000    0.000    0.000    0.000 
#    0.000    0.000    0.000    0.000    0.000    0.000 
#
# Total GULP energy -122747.646826 kJ/mol
# GULP energy per Si atom -5579.438492 kJ/mol
# Density = 2.154941 g / cm^3
# Si number density = 21.598569 Si / 1000 Ang^3
#
#
#
# Elastic Constant Matrix: (Units=GPa)
#
#
# Indices 1 2 3 4 5 6 
#
# 1 90.4304 42.5308 19.9598 0.0000 -24.9808 0.0000
# 2 42.5308 84.5691 32.4744 0.0000 -5.8750 0.0000
# 3 19.9598 32.4744 133.5628 0.0000 -23.6327 0.0000
# 4 0.0000 0.0000 0.0000 25.0964 0.0000 6.5598
# 5 -24.9808 -5.8750 -23.6327 0.0000 31.8473 0.0000
# 6 0.0000 0.0000 0.0000 6.5598 0.0000 29.7397
#
#
#
# Elastic Compliance Matrix: (Units=1/GPa)
#
#
# Indices 1 2 3 4 5 6 
#
# 1 0.019084 -0.009353 0.002032 0.000000 0.014752 0.000000
# 2 -0.009353 0.017626 -0.004156 0.000000 -0.007169 0.000000
# 3 0.002032 -0.004156 0.009601 0.000000 0.007952 0.000000
# 4 0.000000 0.000000 0.000000 0.042284 0.000000 -0.009327
# 5 0.014752 -0.007169 0.007952 0.000000 0.047549 0.000000
# 6 0.000000 0.000000 0.000000 -0.009327 0.000000 0.035682
#
#
# Mechanical properties :
#
#
# Convention : Reuss Voigt Hill
#
# Bulk Modulus (GPa) = 42.81391 55.38803 49.10097
# Shear Modulus (GPa) = 24.68320 31.57648 28.12984
#
# Velocity S-wave (km/s) = 3.38422 3.82772 3.61278
# Velocity P-wave (km/s) = 5.92758 6.72572 6.33922
#
# Compressibility (1/GPa) = 0.02335690
#
# Stress axis : x y z
#
# Youngs Moduli (GPa) = 52.40107 56.73297 104.15546
#
# Poissons Ratio (x) = 0.53062 -0.21169
# Poissons Ratio (y) = 0.49011 0.43292
# Poissons Ratio (z) = -0.10650 0.23581
#
# Static dielectric constant tensor:
#      x y z
#    x 1.798320 0.000000 0.013570 
#    y 0.000000 1.693780 0.000000 
#    z 0.013570 0.000000 1.811730 
# 
# From -- ./inp_files/272543.got.cif
#   From: 2010.05.17/outbox.cif.g08.bks.cpg/sg15_137_cif.got.tgz:272543.got - 2010.06.03 18:47:42.
