data_PCOD9278890
_publ_section_title
;
Structure prediction by ZEFSAII (Michael W. Deem and Ramdas Pophale) SiO2 
 PCOD9278890
Probable space group: C 2/C
;
_chemical_formula_sum "Si O2"
_cell_formula_units_Z 52
_cell_length_a 28.615331
_cell_length_b 18.938372
_cell_length_c 16.710035
_cell_angle_alpha 90.000000
_cell_angle_beta 18.136987
_cell_angle_gamma 90.000000
_cell_volume 2818.927443
_symmetry_space_group_name_H-M "C 2/C"
_symmetry_group_IT_number 15
_symmetry_cell_setting 'monoclinic'
loop_
_space_group_symop_operation_xyz
x,y,z
-x,y,1/2-z
-x,-y,-z
x,-y,1/2+z
1/2+x,1/2+y,z
1/2-x,1/2+y,1/2-z
1/2-x,1/2-y,-z
1/2+x,1/2-y,1/2+z
loop_
_atom_site_type_symbol
_atom_site_label
_atom_site_fract_x
_atom_site_fract_y
_atom_site_fract_z
Si Si1 0.466806 0.513176 0.959494
Si Si2 0.323102 0.858923 0.220160
Si Si3 0.435876 0.210245 0.267669
Si Si4 0.032752 0.574321 0.490199
Si Si5 0.000000 0.091002 0.250000
Si Si6 0.622280 0.007479 0.986251
Si Si7 0.301929 0.362428 0.452351
O O1 0.506392 0.457777 0.821203
O O2 0.564804 0.582741 0.780512
O O3 0.500000 0.500000 0.000000
O O4 0.286192 0.515568 0.248626
O O5 0.396178 0.876344 0.186759
O O6 0.145760 0.859509 0.511417
O O7 0.357151 0.925681 0.106108
O O8 0.421889 0.796294 0.023186
O O9 0.500000 0.194222 0.250000
O O10 0.367219 0.288273 0.376032
O O11 0.305698 0.156910 0.448375
O O12 0.052320 0.556781 0.550004
O O13 0.000000 0.500000 0.500000
O O14 0.186753 0.604579 0.203644
O O15 0.500000 0.027477 0.250000
#
# Coordination Sequence:
#
# PCOD9278890 Si02
#       7
#     8   8   8   8   4   8   8
#     4  11  24  35  60  89 123 152 194 253 305 362
#     4   9  19  35  57  83 114 153 199 238 297 350
#     4  10  22  36  63  82 114 156 199 252 285 350
#     4   9  18  33  58  80 117 148 178 244 302 350
#     4  10  22  38  60  92 118 162 194 248 316 356
#     4  10  21  32  54  86 117 151 187 240 310 358
#     4  10  22  39  57  89 115 152 202 242 298 351
#
# _framework density 18.446732000000001
#
# number of rings (size 3 to 8) (size 9 to 14) (size 15 to 20)
#    0.000    2.154    0.000    3.231   16.154    0.000 
#    0.000    0.000    1.692    0.923    0.000    0.000 
#    0.000    0.000    0.000    0.000    0.000    0.000 
#
# Total GULP energy -144838.175619 kJ/mol
# GULP energy per Si atom -5570.699062 kJ/mol
# Density = 1.840475 g / cm^3
# Si number density = 18.446732 Si / 1000 Ang^3
#
#
#
# Elastic Constant Matrix: (Units=GPa)
#
#
# Indices 1 2 3 4 5 6 
#
# 1 100.7467 4.9541 21.8225 0.0004 -11.3033 -0.0007
# 2 4.9541 50.8278 28.3731 0.0018 -9.2037 -0.0007
# 3 21.8225 28.3731 117.9158 0.0017 -28.3650 -0.0011
# 4 0.0004 0.0018 0.0017 36.5167 -0.0008 -2.4820
# 5 -11.3033 -9.2037 -28.3650 -0.0008 20.6245 0.0008
# 6 -0.0007 -0.0007 -0.0011 -2.4820 0.0008 4.1838
#
#
#
# Elastic Compliance Matrix: (Units=1/GPa)
#
#
# Indices 1 2 3 4 5 6 
#
# 1 0.010637 0.000327 -0.000911 0.000000 0.004722 0.000001
# 2 0.000327 0.022951 -0.004597 -0.000001 0.004099 0.000001
# 3 -0.000911 -0.004597 0.013661 0.000000 0.016238 0.000000
# 4 0.000000 -0.000001 0.000000 0.028535 0.000000 0.016928
# 5 0.004722 0.004099 0.016238 0.000000 0.075235 -0.000009
# 6 0.000001 0.000001 0.000000 0.016928 -0.000009 0.249061
#
#
# Mechanical properties :
#
#
# Convention : Reuss Voigt Hill
#
# Bulk Modulus (GPa) = 27.11011 42.19886 34.65448
# Shear Modulus (GPa) = 11.82763 26.55436 19.19100
#
# Velocity S-wave (km/s) = 2.53490 3.79821 3.22894
# Velocity P-wave (km/s) = 4.82659 6.49315 5.72088
#
# Compressibility (1/GPa) = 0.03688661
#
# Stress axis : x y z
#
# Youngs Moduli (GPa) = 94.01138 43.57165 73.19842
#
# Poissons Ratio (x) = -0.01425 0.06671
# Poissons Ratio (y) = -0.03074 0.33649
# Poissons Ratio (z) = 0.08567 0.20030
#
# Static dielectric constant tensor:
#      x y z
#    x 1.688840 0.000000 -0.012490 
#    y 0.000000 1.637640 0.000000 
#    z -0.012490 0.000000 1.709100 
# 
# From -- ./inp_files/179017.got.cif
#   From: 2010.05.17/outbox.cif.g08.bks.cpg/sg15_90_cif.got.tgz:179017.got - 2010.06.03 18:47:42.
