data_PCOD9278634
_publ_section_title
;
Structure prediction by ZEFSAII (Michael W. Deem and Ramdas Pophale) SiO2 
 PCOD9278634
Probable space group: C 2/C
;
_chemical_formula_sum "Si O2"
_cell_formula_units_Z 32
_cell_length_a 8.974417
_cell_length_b 14.301093
_cell_length_c 9.505953
_cell_angle_alpha 90.000000
_cell_angle_beta 102.599242
_cell_angle_gamma 90.000000
_cell_volume 1190.652972
_symmetry_space_group_name_H-M "C 2/C"
_symmetry_group_IT_number 15
_symmetry_cell_setting 'monoclinic'
loop_
_space_group_symop_operation_xyz
x,y,z
-x,y,1/2-z
-x,-y,-z
x,-y,1/2+z
1/2+x,1/2+y,z
1/2-x,1/2+y,1/2-z
1/2-x,1/2-y,-z
1/2+x,1/2-y,1/2+z
loop_
_atom_site_type_symbol
_atom_site_label
_atom_site_fract_x
_atom_site_fract_y
_atom_site_fract_z
Si Si1 0.000000 0.727081 0.250000
Si Si2 0.500000 0.751589 0.250000
Si Si3 0.277994 0.157607 0.413828
Si Si4 0.735667 0.875056 0.130150
Si Si5 0.821806 0.997418 0.909648
O O1 0.928043 0.664434 0.355332
O O2 0.867281 0.797659 0.174937
O O3 0.633236 0.672908 0.285963
O O4 0.581797 0.824799 0.157481
O O5 0.250000 0.250000 0.500000
O O6 0.264596 0.076460 0.519471
O O7 0.786420 0.963620 0.244032
O O8 0.748338 0.906853 0.970176
O O9 0.000000 0.000000 0.000000
#
# Coordination Sequence:
#
# PCOD9278634 Si02
#       5
#     4   4   8   8   8
#     4  10  20  44  66  94 132 178 220 286 330 404
#     4  10  24  42  66 100 136 170 222 288 332 394
#     4  11  22  44  70  94 137 179 227 281 343 402
#     4  11  23  44  67  97 140 173 225 279 341 404
#     4  12  23  43  70  96 132 184 226 278 339 410
#
# _framework density 26.876010000000001
#
# number of rings (size 3 to 8) (size 9 to 14) (size 15 to 20)
#    0.000    1.000    7.500    0.000    3.500    2.000 
#    4.500    3.750    0.000    0.000    0.000    0.000 
#    0.000    0.000    0.000    0.000    0.000    0.000 
#
# Total GULP energy -89335.542812 kJ/mol
# GULP energy per Si atom -5583.471426 kJ/mol
# Density = 2.681484 g / cm^3
# Si number density = 26.876010 Si / 1000 Ang^3
#
#
#
# Elastic Constant Matrix: (Units=GPa)
#
#
# Indices 1 2 3 4 5 6 
#
# 1 175.6810 5.8628 41.0540 0.0000 -32.1883 0.0000
# 2 5.8628 33.0954 6.0463 0.0000 4.1721 0.0000
# 3 41.0540 6.0463 132.8431 0.0000 -18.4326 0.0000
# 4 0.0000 0.0000 0.0000 52.0059 0.0000 -16.6743
# 5 -32.1883 4.1721 -18.4326 0.0000 35.8802 0.0000
# 6 0.0000 0.0000 0.0000 -16.6743 0.0000 48.6027
#
#
#
# Elastic Compliance Matrix: (Units=1/GPa)
#
#
# Indices 1 2 3 4 5 6 
#
# 1 0.007146 -0.001778 -0.001302 0.000000 0.005948 0.000000
# 2 -0.001778 0.031627 -0.001746 0.000000 -0.006170 0.000000
# 3 -0.001302 -0.001746 0.008480 0.000000 0.003391 0.000000
# 4 0.000000 0.000000 0.000000 0.021605 0.000000 0.007412
# 5 0.005948 -0.006170 0.003391 0.000000 0.035666 0.000000
# 6 0.000000 0.000000 0.000000 0.007412 0.000000 0.023118
#
#
# Mechanical properties :
#
#
# Convention : Reuss Voigt Hill
#
# Bulk Modulus (GPa) = 26.59500 49.72733 38.16116
# Shear Modulus (GPa) = 33.37163 46.54151 39.95657
#
# Velocity S-wave (km/s) = 3.52758 4.16590 3.85996
# Velocity P-wave (km/s) = 5.14866 6.45618 5.83913
#
# Compressibility (1/GPa) = 0.03760105
#
# Stress axis : x y z
#
# Youngs Moduli (GPa) = 139.94734 31.61823 117.92301
#
# Poissons Ratio (x) = 0.05621 0.15354
# Poissons Ratio (y) = 0.24880 0.20591
# Poissons Ratio (z) = 0.18221 0.05521
#
# Static dielectric constant tensor:
#      x y z
#    x 1.963420 0.000000 0.075580 
#    y 0.000000 2.126800 0.000000 
#    z 0.075580 0.000000 2.146870 
# 
# From -- ./inp_files/75363.got.cif
#   From: 2010.05.17/outbox.cif.g08.bks.cpg/sg15_38_cif.got.tgz:75363.got - 2010.06.03 18:47:42.
