data_PCOD9278140
_publ_section_title
;
Structure prediction by ZEFSAII (Michael W. Deem and Ramdas Pophale) SiO2 
 PCOD9278140
Probable space group: C 2/C
;
_chemical_formula_sum "Si O2"
_cell_formula_units_Z 44
_cell_length_a 12.453426
_cell_length_b 5.487524
_cell_length_c 25.546081
_cell_angle_alpha 90.000000
_cell_angle_beta 65.188235
_cell_angle_gamma 90.000000
_cell_volume 1584.629546
_symmetry_space_group_name_H-M "C 2/C"
_symmetry_group_IT_number 15
_symmetry_cell_setting 'monoclinic'
loop_
_space_group_symop_operation_xyz
x,y,z
-x,y,1/2-z
-x,-y,-z
x,-y,1/2+z
1/2+x,1/2+y,z
1/2-x,1/2+y,1/2-z
1/2-x,1/2-y,-z
1/2+x,1/2-y,1/2+z
loop_
_atom_site_type_symbol
_atom_site_label
_atom_site_fract_x
_atom_site_fract_y
_atom_site_fract_z
Si Si1 0.154958 0.659728 0.477263
Si Si2 0.257024 0.010388 0.876773
Si Si3 0.458639 0.642798 0.312532
Si Si4 0.132232 0.836101 0.078240
Si Si5 0.500000 0.500000 0.000000
Si Si6 0.203767 0.721094 0.784972
O O1 0.250000 0.750000 0.500000
O O2 0.234516 0.443228 0.440193
O O3 0.145784 0.878059 0.432729
O O4 0.025322 0.720051 0.523385
O O5 0.333222 0.221265 0.833431
O O6 0.346306 0.932122 0.904766
O O7 0.230337 0.804784 0.839455
O O8 0.500000 0.519883 0.250000
O O9 0.451005 0.463394 0.362685
O O10 0.564972 0.825366 0.303837
O O11 0.084126 0.868236 0.030550
O O12 0.264514 0.474829 0.751912
#
# Coordination Sequence:
#
# PCOD9278140 Si02
#       6
#     8   8   8   8   4   8
#     4   9  21  41  62  96 133 174 235 299 363 445
#     4  11  24  42  68 101 137 194 241 305 377 454
#     4  11  23  44  67 102 142 190 242 305 374 448
#     4  10  23  40  68  95 141 182 244 303 371 453
#     4  10  20  42  66  94 134 184 234 306 380 438
#     4  12  27  45  71 107 146 193 249 309 372 453
#
# _framework density 27.766743000000002
#
# number of rings (size 3 to 8) (size 9 to 14) (size 15 to 20)
#    0.000    1.455    1.818    2.182    5.091    5.091 
#    0.000    9.091    0.000    0.000    0.000    0.000 
#    0.000    0.000    0.000    0.000    0.000    0.000 
#
# Total GULP energy -122516.532592 kJ/mol
# GULP energy per Si atom -5568.933300 kJ/mol
# Density = 2.770355 g / cm^3
# Si number density = 27.766743 Si / 1000 Ang^3
#
#
#
# Elastic Constant Matrix: (Units=GPa)
#
#
# Indices 1 2 3 4 5 6 
#
# 1 146.7771 15.5146 51.4043 -0.0001 12.9115 -0.0002
# 2 15.5146 86.2969 57.2705 -0.0001 6.1727 -0.0003
# 3 51.4043 57.2705 188.6070 -0.0001 18.0091 0.0000
# 4 -0.0001 -0.0001 -0.0001 67.8435 0.0000 3.2571
# 5 12.9115 6.1727 18.0091 0.0000 52.1402 -0.0001
# 6 -0.0002 -0.0003 0.0000 3.2571 -0.0001 46.8857
#
#
#
# Elastic Compliance Matrix: (Units=1/GPa)
#
#
# Indices 1 2 3 4 5 6 
#
# 1 0.007605 0.000023 -0.001964 0.000000 -0.001207 0.000000
# 2 0.000023 0.014515 -0.004394 0.000000 -0.000206 0.000000
# 3 -0.001964 -0.004394 0.007317 0.000000 -0.001521 0.000000
# 4 0.000000 0.000000 0.000000 0.014789 0.000000 -0.001027
# 5 -0.001207 -0.000206 -0.001521 0.000000 0.020028 0.000000
# 6 0.000000 0.000000 0.000000 -0.001027 0.000000 0.021400
#
#
# Mechanical properties :
#
#
# Convention : Reuss Voigt Hill
#
# Bulk Modulus (GPa) = 59.64683 74.45109 67.04896
# Shear Modulus (GPa) = 48.11768 53.20665 50.66217
#
# Velocity S-wave (km/s) = 4.16736 4.38219 4.27612
# Velocity P-wave (km/s) = 6.68460 7.24404 6.96993
#
# Compressibility (1/GPa) = 0.01676535
#
# Stress axis : x y z
#
# Youngs Moduli (GPa) = 131.49603 68.89654 136.67226
#
# Poissons Ratio (x) = -0.00157 0.26846
# Poissons Ratio (y) = -0.00299 0.60051
# Poissons Ratio (z) = 0.25830 0.30272
#
# Static dielectric constant tensor:
#      x y z
#    x 3.797420 0.000000 -1.391710 
#    y 0.000000 2.886200 0.000000 
#    z -1.391710 0.000000 3.489780 
# 
# From -- ./inp_files/309427.got.cif
#   From: 2010.05.17/outbox.cif.g08.bks.cpg/sg15_155_cif.got.tgz:309427.got - 2010.06.03 18:47:42.
