data_PCOD9278662
_publ_section_title
;
Structure prediction by ZEFSAII (Michael W. Deem and Ramdas Pophale) SiO2 
 PCOD9278662
Probable space group: C 2/C
;
_chemical_formula_sum "Si O2"
_cell_formula_units_Z 52
_cell_length_a 18.607297
_cell_length_b 8.052156
_cell_length_c 13.166306
_cell_angle_alpha 90.000000
_cell_angle_beta 82.945792
_cell_angle_gamma 90.000000
_cell_volume 1957.760112
_symmetry_space_group_name_H-M "C 2/C"
_symmetry_group_IT_number 15
_symmetry_cell_setting 'monoclinic'
loop_
_space_group_symop_operation_xyz
x,y,z
-x,y,1/2-z
-x,-y,-z
x,-y,1/2+z
1/2+x,1/2+y,z
1/2-x,1/2+y,1/2-z
1/2-x,1/2-y,-z
1/2+x,1/2-y,1/2+z
loop_
_atom_site_type_symbol
_atom_site_label
_atom_site_fract_x
_atom_site_fract_y
_atom_site_fract_z
Si Si1 0.000000 0.537613 0.750000
Si Si2 0.342961 0.421165 0.090144
Si Si3 0.887361 0.072975 0.817686
Si Si4 0.146404 0.489528 0.315787
Si Si5 0.278050 0.292499 0.822274
Si Si6 0.464996 0.307568 0.919047
Si Si7 0.619827 0.235293 0.993258
O O1 0.933042 0.452101 0.705195
O O2 0.963398 0.653874 0.842242
O O3 0.374869 0.419299 0.199854
O O4 0.265578 0.333441 0.100053
O O5 0.333833 0.610457 0.056764
O O6 0.401979 0.325131 0.012374
O O7 0.823435 0.943219 0.859497
O O8 0.956399 0.973068 0.851129
O O9 0.881076 0.239471 0.885830
O O10 0.210590 0.615193 0.280634
O O11 0.169537 0.318320 0.256098
O O12 0.142192 0.434839 0.435203
O O13 0.540474 0.283749 0.963586
#
# Coordination Sequence:
#
# PCOD9278662 Si02
#       7
#     4   8   8   8   8   8   8
#     4  10  20  44  68  90 134 178 208 264 334 386
#     4  11  22  39  60  99 125 166 218 268 317 391
#     4  11  20  37  63  93 125 166 208 269 324 363
#     4  11  22  44  65  95 132 173 218 271 324 390
#     4  12  23  42  66  94 134 168 219 273 322 389
#     4  10  21  38  67  97 127 168 217 265 321 395
#     4  10  22  39  64  94 128 167 216 269 326 386
#
# _framework density 26.560967000000002
#
# number of rings (size 3 to 8) (size 9 to 14) (size 15 to 20)
#    0.000    1.231    4.615    2.769    0.000    4.923 
#    2.769    6.154    0.000    0.000    0.000    0.000 
#    0.000    0.000    0.000    0.000    0.000    0.000 
#
# Total GULP energy -145496.141795 kJ/mol
# GULP energy per Si atom -5596.005454 kJ/mol
# Density = 2.650051 g / cm^3
# Si number density = 26.560967 Si / 1000 Ang^3
#
#
#
# Elastic Constant Matrix: (Units=GPa)
#
#
# Indices 1 2 3 4 5 6 
#
# 1 83.6205 15.5572 10.8214 0.0000 -0.7988 0.0000
# 2 15.5572 59.2262 14.9281 0.0000 3.7447 0.0000
# 3 10.8214 14.9281 150.3728 0.0000 4.2983 0.0000
# 4 0.0000 0.0000 0.0000 34.5388 0.0000 -3.5545
# 5 -0.7988 3.7447 4.2983 0.0000 45.6281 0.0000
# 6 0.0000 0.0000 0.0000 -3.5545 0.0000 22.9528
#
#
#
# Elastic Compliance Matrix: (Units=1/GPa)
#
#
# Indices 1 2 3 4 5 6 
#
# 1 0.012638 -0.003201 -0.000607 0.000000 0.000541 0.000000
# 2 -0.003201 0.018201 -0.001536 0.000000 -0.001405 0.000000
# 3 -0.000607 -0.001536 0.006862 0.000000 -0.000531 0.000000
# 4 0.000000 0.000000 0.000000 0.029422 0.000000 0.004556
# 5 0.000541 -0.001405 -0.000531 0.000000 0.022091 0.000000
# 6 0.000000 0.000000 0.000000 0.004556 0.000000 0.044273
#
#
# Mechanical properties :
#
#
# Convention : Reuss Voigt Hill
#
# Bulk Modulus (GPa) = 37.02063 41.75922 39.38993
# Shear Modulus (GPa) = 32.64132 37.41813 35.02972
#
# Velocity S-wave (km/s) = 3.50940 3.75742 3.63553
# Velocity P-wave (km/s) = 5.51266 5.88051 5.69956
#
# Compressibility (1/GPa) = 0.02701196
#
# Stress axis : x y z
#
# Youngs Moduli (GPa) = 79.12622 54.94109 145.73998
#
# Poissons Ratio (x) = 0.17586 0.08849
# Poissons Ratio (y) = 0.25327 0.22392
# Poissons Ratio (z) = 0.04804 0.08441
#
# Static dielectric constant tensor:
#      x y z
#    x 2.081770 0.000000 0.017570 
#    y 0.000000 2.113900 0.000000 
#    z 0.017570 0.000000 2.145620 
# 
# From -- ./inp_files/166210.got.cif
#   From: 2010.05.17/outbox.cif.g08.bks.cpg/sg15_84_cif.got.tgz:166210.got - 2010.06.03 18:47:42.
