data_PCOD9278872
_publ_section_title
;
Structure prediction by ZEFSAII (Michael W. Deem and Ramdas Pophale) SiO2 
 PCOD9278872
Probable space group: C 2/C
;
_chemical_formula_sum "Si O2"
_cell_formula_units_Z 64
_cell_length_a 28.183598
_cell_length_b 8.070908
_cell_length_c 14.544003
_cell_angle_alpha 90.000000
_cell_angle_beta 108.697507
_cell_angle_gamma 90.000000
_cell_volume 3133.686779
_symmetry_space_group_name_H-M "C 2/C"
_symmetry_group_IT_number 15
_symmetry_cell_setting 'monoclinic'
loop_
_space_group_symop_operation_xyz
x,y,z
-x,y,1/2-z
-x,-y,-z
x,-y,1/2+z
1/2+x,1/2+y,z
1/2-x,1/2+y,1/2-z
1/2-x,1/2-y,-z
1/2+x,1/2-y,1/2+z
loop_
_atom_site_type_symbol
_atom_site_label
_atom_site_fract_x
_atom_site_fract_y
_atom_site_fract_z
Si Si1 0.695805 0.216764 0.511681
Si Si2 0.345890 0.035826 0.186422
Si Si3 0.412034 0.546690 0.876503
Si Si4 0.355579 0.652726 0.182854
Si Si5 0.446022 0.220478 0.245998
Si Si6 0.602606 0.450552 0.442293
Si Si7 0.809088 0.788038 0.319667
Si Si8 0.246100 0.011397 0.335562
O O1 0.750000 0.250000 0.500000
O O2 0.669896 0.088706 0.425605
O O3 0.655597 0.361574 0.500693
O O4 0.713492 0.128056 0.615077
O O5 0.404252 0.081386 0.236666
O O6 0.316475 0.162136 0.236605
O O7 0.339703 0.840094 0.192537
O O8 0.387971 0.417082 0.788748
O O9 0.447641 0.662394 0.837397
O O10 0.364619 0.659385 0.878651
O O11 0.428636 0.470892 0.983448
O O12 0.385896 0.618117 0.107965
O O13 0.306011 0.536707 0.142554
O O14 0.500000 0.157770 0.250000
O O15 0.424106 0.333436 0.149474
O O16 0.776135 0.679934 0.366225
O O17 0.777469 0.951028 0.275011
#
# Coordination Sequence:
#
# PCOD9278872 Si02
#       8
#     8   8   8   8   8   8   8   8
#     4  11  20  34  50  75 117 155 193 230 270 331
#     4  10  21  37  53  80 110 147 189 234 294 334
#     4   9  21  38  57  85 112 145 186 234 293 337
#     4  10  21  36  54  80 118 151 189 233 271 333
#     4   9  20  43  65  82 110 144 183 239 300 354
#     4  10  21  37  58  85 116 150 188 236 283 335
#     4  10  21  32  49  75 113 151 191 233 270 331
#     4  11  21  33  49  78 110 157 199 223 273 319
#
# _framework density 20.423228000000002
#
# number of rings (size 3 to 8) (size 9 to 14) (size 15 to 20)
#    0.000    2.000    2.500    2.250    7.000    2.000 
#    0.000    2.500    0.000    1.500    0.000    0.000 
#    0.000    0.000    0.000    0.000    0.000    0.000 
#
# Total GULP energy -178260.590188 kJ/mol
# GULP energy per Si atom -5570.643443 kJ/mol
# Density = 2.037674 g / cm^3
# Si number density = 20.423228 Si / 1000 Ang^3
#
#
#
# Elastic Constant Matrix: (Units=GPa)
#
#
# Indices 1 2 3 4 5 6 
#
# 1 61.4308 1.3979 2.3750 0.0000 0.4923 0.0000
# 2 1.3979 57.8311 -2.0467 0.0000 0.8623 0.0000
# 3 2.3750 -2.0467 58.0753 0.0000 -17.0319 0.0000
# 4 0.0000 0.0000 0.0000 10.4102 0.0000 -2.8156
# 5 0.4923 0.8623 -17.0319 0.0000 20.0797 0.0000
# 6 0.0000 0.0000 0.0000 -2.8156 0.0000 16.1543
#
#
#
# Elastic Compliance Matrix: (Units=1/GPa)
#
#
# Indices 1 2 3 4 5 6 
#
# 1 0.016339 -0.000413 -0.001058 0.000000 -0.001280 0.000000
# 2 -0.000413 0.017325 0.000549 0.000000 -0.000268 0.000000
# 3 -0.001058 0.000549 0.023005 0.000000 0.019516 0.000000
# 4 0.000000 0.000000 0.000000 0.100812 0.000000 0.017571
# 5 -0.001280 -0.000268 0.019516 0.000000 0.066398 0.000000
# 6 0.000000 0.000000 0.000000 0.017571 0.000000 0.064966
#
#
# Mechanical properties :
#
#
# Convention : Reuss Voigt Hill
#
# Bulk Modulus (GPa) = 18.24032 20.08775 19.16404
# Shear Modulus (GPa) = 16.18309 21.03626 18.60967
#
# Velocity S-wave (km/s) = 2.81799 3.21287 3.02189
# Velocity P-wave (km/s) = 4.42025 4.86009 4.64538
#
# Compressibility (1/GPa) = 0.05482359
#
# Stress axis : x y z
#
# Youngs Moduli (GPa) = 61.20307 57.71961 43.46867
#
# Poissons Ratio (x) = 0.02386 0.04600
# Poissons Ratio (y) = 0.02530 -0.02385
# Poissons Ratio (z) = 0.06477 -0.03167
#
# Static dielectric constant tensor:
#      x y z
#    x 1.735060 0.000000 -0.051820 
#    y 0.000000 1.744780 0.000000 
#    z -0.051820 0.000000 1.774140 
# 
# From -- ./inp_files/176656.got.cif
#   From: 2010.05.17/outbox.cif.g08.bks.cpg/sg15_89_cif.got.tgz:176656.got - 2010.06.03 18:47:42.
