data_PCOD9278079
_publ_section_title
;
Structure prediction by ZEFSAII (Michael W. Deem and Ramdas Pophale) SiO2 
 PCOD9278079
Probable space group: C 2/C
;
_chemical_formula_sum "Si O2"
_cell_formula_units_Z 56
_cell_length_a 27.372427
_cell_length_b 16.288014
_cell_length_c 5.791577
_cell_angle_alpha 90.000000
_cell_angle_beta 61.923131
_cell_angle_gamma 90.000000
_cell_volume 2278.257958
_symmetry_space_group_name_H-M "C 2/C"
_symmetry_group_IT_number 15
_symmetry_cell_setting 'monoclinic'
loop_
_space_group_symop_operation_xyz
x,y,z
-x,y,1/2-z
-x,-y,-z
x,-y,1/2+z
1/2+x,1/2+y,z
1/2-x,1/2+y,1/2-z
1/2-x,1/2-y,-z
1/2+x,1/2-y,1/2+z
loop_
_atom_site_type_symbol
_atom_site_label
_atom_site_fract_x
_atom_site_fract_y
_atom_site_fract_z
Si Si1 0.613566 0.199956 0.916711
Si Si2 0.215812 0.024401 0.511391
Si Si3 0.414580 0.293013 0.900808
Si Si4 0.437316 0.475069 0.911429
Si Si5 0.500000 0.144175 0.750000
Si Si6 0.500000 0.113314 0.250000
Si Si7 0.655711 0.968041 0.198703
Si Si8 0.192751 0.210137 0.570309
O O1 0.591495 0.285259 0.858622
O O2 0.641501 0.127939 0.701596
O O3 0.557810 0.162167 0.140892
O O4 0.662553 0.228149 0.967048
O O5 0.206972 0.118717 0.457857
O O6 0.194427 0.979026 0.326067
O O7 0.279607 0.993507 0.413453
O O8 0.440181 0.376650 0.930577
O O9 0.449133 0.209984 0.875407
O O10 0.352003 0.292673 0.127369
O O11 0.500000 0.509669 0.750000
O O12 0.412800 0.493434 0.709795
O O13 0.494579 0.088483 0.533733
O O14 0.633512 0.991266 0.508282
O O15 0.250000 0.250000 0.500000
#
# Coordination Sequence:
#
# PCOD9278079 Si02
#       8
#     8   8   8   8   4   4   8   8
#     4  11  26  45  76 107 145 187 245 302 370 433
#     4  10  24  45  68  94 139 189 235 293 350 425
#     4  11  25  42  71 105 142 191 242 302 352 432
#     4  10  23  42  68 101 146 195 239 293 360 426
#     4  10  20  42  66 100 146 176 234 290 358 408
#     4  10  22  42  70 108 140 180 226 302 362 422
#     4  10  23  45  73  98 139 188 231 290 364 429
#     4  12  27  44  72 107 144 190 247 299 363 439
#
# _framework density 24.580183000000002
#
# number of rings (size 3 to 8) (size 9 to 14) (size 15 to 20)
#    0.000    1.429    2.143    1.714   10.000    1.714 
#    1.286    0.714    0.000    0.000    0.000    0.000 
#    0.000    0.000    0.000    0.000    0.000    0.000 
#
# Total GULP energy -155876.437647 kJ/mol
# GULP energy per Si atom -5567.015630 kJ/mol
# Density = 2.452424 g / cm^3
# Si number density = 24.580183 Si / 1000 Ang^3
#
#
#
# Elastic Constant Matrix: (Units=GPa)
#
#
# Indices 1 2 3 4 5 6 
#
# 1 128.1734 18.6269 69.1902 0.0000 0.3268 0.0000
# 2 18.6269 121.4333 2.3342 0.0000 -5.7754 0.0000
# 3 69.1902 2.3342 203.6081 0.0000 30.7667 0.0000
# 4 0.0000 0.0000 0.0000 88.4869 0.0000 0.1046
# 5 0.3268 -5.7754 30.7667 0.0000 66.5503 0.0000
# 6 0.0000 0.0000 0.0000 0.1046 0.0000 -30.3238
#
#
#
# Elastic Compliance Matrix: (Units=1/GPa)
#
#
# Indices 1 2 3 4 5 6 
#
# 1 0.009935 -0.001384 -0.003585 0.000000 0.001488 0.000000
# 2 -0.001384 0.008471 0.000281 0.000000 0.000612 0.000000
# 3 -0.003585 0.000281 0.006580 0.000000 -0.003000 0.000000
# 4 0.000000 0.000000 0.000000 0.011301 0.000000 0.000039
# 5 0.001488 0.000612 -0.003000 0.000000 0.016459 0.000000
# 6 0.000000 0.000000 0.000000 0.000039 0.000000 -0.032977
#
#
# Mechanical properties :
#
#
# Convention : Reuss Voigt Hill
#
# Bulk Modulus (GPa) = 64.06789 70.39081 67.22935
# Shear Modulus (GPa) = 145.57032 49.14691 97.35862
#
# Velocity S-wave (km/s) = 7.70397 4.47638 6.30036
# Velocity P-wave (km/s) = 10.25945 7.44423 8.96306
#
# Compressibility (1/GPa) = 0.01560844
#
# Stress axis : x y z
#
# Youngs Moduli (GPa) = 100.65885 118.04967 151.98160
#
# Poissons Ratio (x) = 0.16340 0.54486
# Poissons Ratio (y) = 0.13933 -0.04267
# Poissons Ratio (z) = 0.36086 -0.03314
#
# Static dielectric constant tensor:
#      x y z
#    x 1.960330 0.000000 0.060000 
#    y 0.000000 1.814080 0.000000 
#    z 0.060000 0.000000 2.031800 
# 
# From -- ./inp_files/18425.got.cif
#   From: 2010.05.17/outbox.cif.g08.bks.cpg/sg15_10_cif.got.tgz:18425.got - 2010.06.03 18:47:42.
