data_PCOD9278587
_publ_section_title
;
Structure prediction by ZEFSAII (Michael W. Deem and Ramdas Pophale) SiO2 
 PCOD9278587
Probable space group: C 2/C
;
_chemical_formula_sum "Si O2"
_cell_formula_units_Z 44
_cell_length_a 11.679936
_cell_length_b 11.483872
_cell_length_c 13.453666
_cell_angle_alpha 90.000000
_cell_angle_beta 75.098314
_cell_angle_gamma 90.000000
_cell_volume 1743.862420
_symmetry_space_group_name_H-M "C 2/C"
_symmetry_group_IT_number 15
_symmetry_cell_setting 'monoclinic'
loop_
_space_group_symop_operation_xyz
x,y,z
-x,y,1/2-z
-x,-y,-z
x,-y,1/2+z
1/2+x,1/2+y,z
1/2-x,1/2+y,1/2-z
1/2-x,1/2-y,-z
1/2+x,1/2-y,1/2+z
loop_
_atom_site_type_symbol
_atom_site_label
_atom_site_fract_x
_atom_site_fract_y
_atom_site_fract_z
Si Si1 0.351273 0.468695 0.388134
Si Si2 0.000000 0.404610 0.750000
Si Si3 0.595916 0.728145 0.151588
Si Si4 0.611202 0.962379 0.538250
Si Si5 0.414603 0.713198 0.033664
Si Si6 0.284816 0.259772 0.258357
O O1 0.406857 0.587681 0.340799
O O2 0.230357 0.511036 0.467769
O O3 0.418736 0.395842 0.458709
O O4 0.321693 0.380056 0.304562
O O5 0.075141 0.482384 0.658411
O O6 0.099416 0.321218 0.776693
O O7 0.500000 0.776210 0.250000
O O8 0.539555 0.747148 0.055955
O O9 0.720962 0.771334 0.166169
O O10 0.625731 0.822891 0.523000
O O11 0.500000 0.000000 0.500000
O O12 0.315902 0.703615 0.144270
#
# Coordination Sequence:
#
# PCOD9278587 Si02
#       6
#     8   4   8   8   8   8
#     4  11  20  42  66  89 129 171 205 260 324 369
#     4  12  20  40  66  88 124 168 222 244 310 386
#     4  10  23  39  63  97 126 161 214 259 312 379
#     4  11  23  40  64  94 128 167 213 258 313 376
#     4  10  20  44  63  88 129 163 206 262 321 367
#     4  10  21  39  62  91 122 165 209 258 306 383
#
# _framework density 25.231349000000002
#
# number of rings (size 3 to 8) (size 9 to 14) (size 15 to 20)
#    0.000    1.455    3.636    2.727    1.273    0.000 
#   11.455    3.636    0.000    0.000    0.000    0.000 
#    0.000    0.000    0.000    0.000    0.000    0.000 
#
# Total GULP energy -123103.839862 kJ/mol
# GULP energy per Si atom -5595.629085 kJ/mol
# Density = 2.517392 g / cm^3
# Si number density = 25.231349 Si / 1000 Ang^3
#
#
#
# Elastic Constant Matrix: (Units=GPa)
#
#
# Indices 1 2 3 4 5 6 
#
# 1 120.7811 7.2566 40.5855 0.0000 22.0130 0.0000
# 2 7.2566 88.3157 22.2386 0.0000 1.7005 0.0000
# 3 40.5855 22.2386 74.5417 0.0000 -5.8856 0.0000
# 4 0.0000 0.0000 0.0000 22.8800 0.0000 5.8144
# 5 22.0130 1.7005 -5.8856 0.0000 54.4070 0.0000
# 6 0.0000 0.0000 0.0000 5.8144 0.0000 34.7488
#
#
#
# Elastic Compliance Matrix: (Units=1/GPa)
#
#
# Indices 1 2 3 4 5 6 
#
# 1 0.011577 0.000919 -0.007009 0.000000 -0.005471 0.000000
# 2 0.000919 0.012349 -0.004281 0.000000 -0.001221 0.000000
# 3 -0.007009 -0.004281 0.018905 0.000000 0.005015 0.000000
# 4 0.000000 0.000000 0.000000 0.045647 0.000000 -0.007638
# 5 -0.005471 -0.001221 0.005015 0.000000 0.021174 0.000000
# 6 0.000000 0.000000 0.000000 -0.007638 0.000000 0.030056
#
#
# Mechanical properties :
#
#
# Convention : Reuss Voigt Hill
#
# Bulk Modulus (GPa) = 45.27327 47.08887 46.18107
# Shear Modulus (GPa) = 29.79510 36.64432 33.21971
#
# Velocity S-wave (km/s) = 3.44012 3.81508 3.63244
# Velocity P-wave (km/s) = 5.81046 6.17332 5.99463
#
# Compressibility (1/GPa) = 0.02208809
#
# Stress axis : x y z
#
# Youngs Moduli (GPa) = 86.38117 80.97824 52.89675
#
# Poissons Ratio (x) = -0.07443 0.37077
# Poissons Ratio (y) = -0.07939 0.22645
# Poissons Ratio (z) = 0.60547 0.34667
#
# Static dielectric constant tensor:
#      x y z
#    x 1.943230 0.000000 0.158180 
#    y 0.000000 1.987750 0.000000 
#    z 0.158180 0.000000 1.458340 
# 
# From -- ./inp_files/86154.got.cif
#   From: 2010.05.17/outbox.cif.g08.bks.cpg/sg15_44_cif.got.tgz:86154.got - 2010.06.03 18:47:42.
