data_PCOD9278600
_publ_section_title
;
Structure prediction by ZEFSAII (Michael W. Deem and Ramdas Pophale) SiO2 
 PCOD9278600
Probable space group: C 2/C
;
_chemical_formula_sum "Si O2"
_cell_formula_units_Z 40
_cell_length_a 7.189815
_cell_length_b 12.076135
_cell_length_c 19.626230
_cell_angle_alpha 90.000000
_cell_angle_beta 99.230886
_cell_angle_gamma 90.000000
_cell_volume 1681.983317
_symmetry_space_group_name_H-M "C 2/C"
_symmetry_group_IT_number 15
_symmetry_cell_setting 'monoclinic'
loop_
_space_group_symop_operation_xyz
x,y,z
-x,y,1/2-z
-x,-y,-z
x,-y,1/2+z
1/2+x,1/2+y,z
1/2-x,1/2+y,1/2-z
1/2-x,1/2-y,-z
1/2+x,1/2-y,1/2+z
loop_
_atom_site_type_symbol
_atom_site_label
_atom_site_fract_x
_atom_site_fract_y
_atom_site_fract_z
Si Si1 0.360258 0.863575 0.018234
Si Si2 0.322509 0.252024 0.881125
Si Si3 0.205803 0.195098 0.731197
Si Si4 0.565692 0.854284 0.625833
Si Si5 0.244198 0.005722 0.136344
O O1 0.555513 0.823489 0.063018
O O2 0.254161 0.941200 0.065419
O O3 0.250000 0.750000 0.000000
O O4 0.385325 0.907717 0.943425
O O5 0.334184 0.204259 0.805109
O O6 0.104898 0.263734 0.894669
O O7 0.377383 0.382452 0.879246
O O8 0.197096 0.078500 0.693007
O O9 0.000000 0.219509 0.750000
O O10 0.228632 0.290929 0.675584
O O11 0.454634 0.946245 0.661935
#
# Coordination Sequence:
#
# PCOD9278600 Si02
#       5
#     8   8   8   8   8
#     4  12  22  41  65  97 132 168 215 266 310 386
#     4   9  24  39  66  92 128 169 211 258 321 378
#     4  10  20  44  64  92 130 164 212 272 313 382
#     4   9  21  43  64  94 128 164 212 263 318 377
#     4  10  23  42  67  92 128 171 214 258 331 371
#
# _framework density 23.781448999999999
#
# number of rings (size 3 to 8) (size 9 to 14) (size 15 to 20)
#    1.200    0.800    2.000    1.200    0.000    4.800 
#    3.600    2.000    0.000    0.000    0.000    0.000 
#    0.000    0.000    0.000    0.000    0.000    0.000 
#
# Total GULP energy -111655.750418 kJ/mol
# GULP energy per Si atom -5582.787521 kJ/mol
# Density = 2.372732 g / cm^3
# Si number density = 23.781449 Si / 1000 Ang^3
#
#
#
# Elastic Constant Matrix: (Units=GPa)
#
#
# Indices 1 2 3 4 5 6 
#
# 1 33.5173 2.7795 18.7570 0.0000 -1.1514 0.0000
# 2 2.7795 90.8691 15.6419 0.0000 -16.3300 0.0000
# 3 18.7570 15.6419 107.4575 0.0000 -19.7199 0.0000
# 4 0.0000 0.0000 0.0000 19.8809 0.0000 -11.4209
# 5 -1.1514 -16.3300 -19.7199 0.0000 28.1115 0.0000
# 6 0.0000 0.0000 0.0000 -11.4209 0.0000 32.3259
#
#
#
# Elastic Compliance Matrix: (Units=1/GPa)
#
#
# Indices 1 2 3 4 5 6 
#
# 1 0.033325 -0.000537 -0.006365 0.000000 -0.003412 0.000000
# 2 -0.000537 0.012325 -0.000448 0.000000 0.006823 0.000000
# 3 -0.006365 -0.000448 0.011921 0.000000 0.007842 0.000000
# 4 0.000000 0.000000 0.000000 0.063108 0.000000 0.022297
# 5 -0.003412 0.006823 0.007842 0.000000 0.044897 0.000000
# 6 0.000000 0.000000 0.000000 0.022297 0.000000 0.038812
#
#
# Mechanical properties :
#
#
# Convention : Reuss Voigt Hill
#
# Bulk Modulus (GPa) = 23.32598 34.02229 28.67414
# Shear Modulus (GPa) = 21.42443 29.04135 25.23289
#
# Velocity S-wave (km/s) = 3.00474 3.49832 3.26088
# Velocity P-wave (km/s) = 4.67629 5.53669 5.12458
#
# Compressibility (1/GPa) = 0.04287066
#
# Stress axis : x y z
#
# Youngs Moduli (GPa) = 30.00783 81.13880 83.88349
#
# Poissons Ratio (x) = 0.04356 0.53391
# Poissons Ratio (y) = 0.01611 0.03760
# Poissons Ratio (z) = 0.19100 0.03637
#
# Static dielectric constant tensor:
#      x y z
#    x 2.000580 0.000000 -0.023930 
#    y 0.000000 1.902580 0.000000 
#    z -0.023930 0.000000 1.927920 
# 
# From -- ./inp_files/230012.got.cif
#   From: 2010.05.17/outbox.cif.g08.bks.cpg/sg15_116_cif.got.tgz:230012.got - 2010.06.03 18:47:42.
