data_PCOD9278809
_publ_section_title
;
Structure prediction by ZEFSAII (Michael W. Deem and Ramdas Pophale) SiO2 
 PCOD9278809
Probable space group: C 2/C
;
_chemical_formula_sum "Si O2"
_cell_formula_units_Z 64
_cell_length_a 28.826512
_cell_length_b 14.727083
_cell_length_c 9.552912
_cell_angle_alpha 90.000000
_cell_angle_beta 46.492818
_cell_angle_gamma 90.000000
_cell_volume 2941.407177
_symmetry_space_group_name_H-M "C 2/C"
_symmetry_group_IT_number 15
_symmetry_cell_setting 'monoclinic'
loop_
_space_group_symop_operation_xyz
x,y,z
-x,y,1/2-z
-x,-y,-z
x,-y,1/2+z
1/2+x,1/2+y,z
1/2-x,1/2+y,1/2-z
1/2-x,1/2-y,-z
1/2+x,1/2-y,1/2+z
loop_
_atom_site_type_symbol
_atom_site_label
_atom_site_fract_x
_atom_site_fract_y
_atom_site_fract_z
Si Si1 0.854512 0.891078 0.491380
Si Si2 0.048176 0.528941 0.277297
Si Si3 0.238508 0.655677 0.605850
Si Si4 0.530269 0.696916 0.339085
Si Si5 0.868647 0.950534 0.766945
Si Si6 0.632068 0.856460 0.103734
Si Si7 0.943396 0.269446 0.755189
Si Si8 0.238528 0.725756 0.187208
O O1 0.869231 0.948013 0.598736
O O2 0.889442 0.794709 0.429819
O O3 0.781303 0.862567 0.631573
O O4 0.874588 0.949969 0.317567
O O5 0.100350 0.452628 0.135174
O O6 0.077097 0.628962 0.241728
O O7 0.000000 0.536177 0.250000
O O8 0.000000 0.500000 0.500000
O O9 0.250000 0.750000 0.500000
O O10 0.299788 0.591460 0.455471
O O11 0.175346 0.624832 0.653238
O O12 0.238265 0.688029 0.767315
O O13 0.500000 0.684305 0.250000
O O14 0.574889 0.613496 0.293064
O O15 0.575532 0.785785 0.254518
O O16 0.472404 0.717108 0.563352
O O17 0.671090 0.806656 0.896130
O O18 0.000000 0.274320 0.750000
O O19 0.250000 0.750000 0.000000
#
# Coordination Sequence:
#
# PCOD9278809 Si02
#       8
#     8   8   8   8   8   8   8   8
#     4  12  28  48  71 106 152 188 251 308 364 441
#     4  11  25  45  72 110 150 190 244 309 370 448
#     4  10  20  46  78  96 141 203 233 300 373 434
#     4  12  25  43  76 105 145 193 242 301 376 435
#     4  12  26  49  73 105 148 192 251 304 369 440
#     4  11  22  47  73 108 148 195 245 299 384 441
#     4  11  26  47  71 102 144 197 244 298 367 445
#     4  11  25  45  75 108 145 194 248 302 367 438
#
# _framework density 21.758292999999998
#
# number of rings (size 3 to 8) (size 9 to 14) (size 15 to 20)
#    0.000    0.750    7.500    0.375    5.250    1.000 
#    6.750    0.000    0.000    0.000    0.000    0.000 
#    0.000    0.000    0.000    0.000    0.000    0.000 
#
# Total GULP energy -178811.462193 kJ/mol
# GULP energy per Si atom -5587.858194 kJ/mol
# Density = 2.170877 g / cm^3
# Si number density = 21.758293 Si / 1000 Ang^3
#
#
#
# Elastic Constant Matrix: (Units=GPa)
#
#
# Indices 1 2 3 4 5 6 
#
# 1 79.3814 6.4465 24.0167 0.0000 11.9124 0.0000
# 2 6.4465 88.0128 7.1516 0.0000 -12.3478 0.0000
# 3 24.0167 7.1516 89.6399 0.0000 25.1907 0.0000
# 4 0.0000 0.0000 0.0000 33.8359 0.0000 -0.2780
# 5 11.9124 -12.3478 25.1907 0.0000 38.7250 0.0000
# 6 0.0000 0.0000 0.0000 -0.2780 0.0000 27.3617
#
#
#
# Elastic Compliance Matrix: (Units=1/GPa)
#
#
# Indices 1 2 3 4 5 6 
#
# 1 0.013982 -0.001187 -0.002859 0.000000 -0.002820 0.000000
# 2 -0.001187 0.012457 -0.002318 0.000000 0.005846 0.000000
# 3 -0.002859 -0.002318 0.014767 0.000000 -0.009466 0.000000
# 4 0.000000 0.000000 0.000000 0.029557 0.000000 0.000300
# 5 -0.002820 0.005846 -0.009466 0.000000 0.034712 0.000000
# 6 0.000000 0.000000 0.000000 0.000300 0.000000 0.036550
#
#
# Mechanical properties :
#
#
# Convention : Reuss Voigt Hill
#
# Bulk Modulus (GPa) = 35.11661 36.91817 36.01739
# Shear Modulus (GPa) = 30.44191 34.61246 32.52719
#
# Velocity S-wave (km/s) = 3.74451 3.99277 3.87063
# Velocity P-wave (km/s) = 5.90504 6.18551 6.04690
#
# Compressibility (1/GPa) = 0.02847655
#
# Stress axis : x y z
#
# Youngs Moduli (GPa) = 71.52065 80.27320 67.71985
#
# Poissons Ratio (x) = 0.09532 0.19360
# Poissons Ratio (y) = 0.08493 0.15701
# Poissons Ratio (z) = 0.20447 0.18611
#
# Static dielectric constant tensor:
#      x y z
#    x 1.779860 0.000000 0.040250 
#    y 0.000000 1.795210 0.000000 
#    z 0.040250 0.000000 1.724760 
# 
# From -- ./inp_files/70125.got.cif
#   From: 2010.05.17/outbox.cif.g08.bks.cpg/sg15_36_cif.got.tgz:70125.got - 2010.06.03 18:47:42.
