data_PCOD9278725
_publ_section_title
;
Structure prediction by ZEFSAII (Michael W. Deem and Ramdas Pophale) SiO2 
 PCOD9278725
Probable space group: C 2/C
;
_chemical_formula_sum "Si O2"
_cell_formula_units_Z 44
_cell_length_a 9.415719
_cell_length_b 27.572369
_cell_length_c 7.273215
_cell_angle_alpha 90.000000
_cell_angle_beta 111.245913
_cell_angle_gamma 90.000000
_cell_volume 1759.890398
_symmetry_space_group_name_H-M "C 2/C"
_symmetry_group_IT_number 15
_symmetry_cell_setting 'monoclinic'
loop_
_space_group_symop_operation_xyz
x,y,z
-x,y,1/2-z
-x,-y,-z
x,-y,1/2+z
1/2+x,1/2+y,z
1/2-x,1/2+y,1/2-z
1/2-x,1/2-y,-z
1/2+x,1/2-y,1/2+z
loop_
_atom_site_type_symbol
_atom_site_label
_atom_site_fract_x
_atom_site_fract_y
_atom_site_fract_z
Si Si1 0.795147 0.960133 0.851568
Si Si2 0.673422 0.356339 0.769564
Si Si3 0.000000 0.243447 0.750000
Si Si4 0.000000 0.525345 0.750000
Si Si5 0.000000 0.961981 0.250000
Si Si6 0.225401 0.686882 0.569669
Si Si7 0.016837 0.385308 0.530311
O O1 0.801536 0.915046 0.719479
O O2 0.643100 0.989157 0.823637
O O3 0.880788 0.935980 0.065304
O O4 0.895838 0.002850 0.819216
O O5 0.500000 0.346817 0.750000
O O6 0.694858 0.330593 0.582903
O O7 0.839829 0.349084 0.942673
O O8 0.091807 0.276012 0.941039
O O9 0.859095 0.210314 0.753283
O O10 0.987074 0.562609 0.572244
O O11 0.135835 0.641482 0.607471
O O12 0.000000 0.388607 0.750000
#
# Coordination Sequence:
#
# PCOD9278725 Si02
#       7
#     8   8   4   4   4   8   8
#     4  11  25  43  64  95 133 190 233 286 336 402
#     4  11  23  42  66  98 141 182 231 292 349 402
#     4  10  20  44  76 102 128 176 236 271 363 450
#     4  12  28  41  72 100 139 193 246 279 336 416
#     4  10  24  43  58  90 131 179 236 286 331 390
#     4  10  22  43  75  98 137 181 222 287 356 424
#     4  10  24  47  66 102 141 185 232 294 350 406
#
# _framework density 25.001556000000001
#
# number of rings (size 3 to 8) (size 9 to 14) (size 15 to 20)
#    0.000    1.455    3.636    1.091   11.455    3.636 
#    0.000    0.909    8.000    0.000    0.000    0.000 
#    0.000    0.000    0.000    0.000    0.000    0.000 
#
# Total GULP energy -122651.423622 kJ/mol
# GULP energy per Si atom -5575.064710 kJ/mol
# Density = 2.494465 g / cm^3
# Si number density = 25.001556 Si / 1000 Ang^3
#
#
#
# Elastic Constant Matrix: (Units=GPa)
#
#
# Indices 1 2 3 4 5 6 
#
# 1 197.3563 47.9665 47.6412 0.0000 42.1649 0.0000
# 2 47.9665 73.0081 14.0457 0.0000 21.9520 0.0000
# 3 47.6412 14.0457 91.3130 0.0000 20.2939 0.0000
# 4 0.0000 0.0000 0.0000 -3.4173 0.0000 2.7102
# 5 42.1649 21.9520 20.2939 0.0000 41.0540 0.0000
# 6 0.0000 0.0000 0.0000 2.7102 0.0000 18.8764
#
#
#
# Elastic Compliance Matrix: (Units=1/GPa)
#
#
# Indices 1 2 3 4 5 6 
#
# 1 0.007380 -0.002941 -0.002318 0.000000 -0.004861 0.000000
# 2 -0.002941 0.017527 0.000281 0.000000 -0.006490 0.000000
# 3 -0.002318 0.000281 0.013056 0.000000 -0.004224 0.000000
# 4 0.000000 0.000000 0.000000 -0.262715 0.000000 0.037720
# 5 -0.004861 -0.006490 -0.004224 0.000000 0.034909 0.000000
# 6 0.000000 0.000000 0.000000 0.037720 0.000000 0.047561
#
#
# Mechanical properties :
#
#
# Convention : Reuss Voigt Hill
#
# Bulk Modulus (GPa) = 35.70515 64.55380 50.12948
# Shear Modulus (GPa) = -40.65311 28.10422 -6.27445
#
# Velocity S-wave (km/s) = -4.03677 3.35640 -1.58590
# Velocity P-wave (km/s) = 2.72309 6.39504 4.09153
#
# Compressibility (1/GPa) = 0.02800716
#
# Stress axis : x y z
#
# Youngs Moduli (GPa) = 135.50435 57.05575 76.59316
#
# Poissons Ratio (x) = 0.16780 0.17751
# Poissons Ratio (y) = 0.39852 -0.02151
# Poissons Ratio (z) = 0.31403 -0.01602
#
# Static dielectric constant tensor:
#      x y z
#    x 2.555190 0.000000 0.834310 
#    y 0.000000 2.045280 0.000000 
#    z 0.834310 0.000000 3.475110 
# 
# From -- ./inp_files/26305.got.cif
#   From: 2010.05.17/outbox.cif.g08.bks.cpg/sg15_14_cif.got.tgz:26305.got - 2010.06.03 18:47:42.
