data_PCOD9278617
_publ_section_title
;
Structure prediction by ZEFSAII (Michael W. Deem and Ramdas Pophale) SiO2 
 PCOD9278617
Probable space group: C 2/C
;
_chemical_formula_sum "Si O2"
_cell_formula_units_Z 56
_cell_length_a 15.331287
_cell_length_b 30.555013
_cell_length_c 5.114685
_cell_angle_alpha 90.000000
_cell_angle_beta 106.008857
_cell_angle_gamma 90.000000
_cell_volume 2303.044656
_symmetry_space_group_name_H-M "C 2/C"
_symmetry_group_IT_number 15
_symmetry_cell_setting 'monoclinic'
loop_
_space_group_symop_operation_xyz
x,y,z
-x,y,1/2-z
-x,-y,-z
x,-y,1/2+z
1/2+x,1/2+y,z
1/2-x,1/2+y,1/2-z
1/2-x,1/2-y,-z
1/2+x,1/2-y,1/2+z
loop_
_atom_site_type_symbol
_atom_site_label
_atom_site_fract_x
_atom_site_fract_y
_atom_site_fract_z
Si Si1 0.122762 0.029359 0.592528
Si Si2 0.837086 0.472685 0.217412
Si Si3 0.901549 0.268315 0.519540
Si Si4 0.096565 0.167734 0.968065
Si Si5 0.715869 0.850400 0.080589
Si Si6 0.000000 0.323161 0.250000
Si Si7 0.000000 0.102246 0.250000
Si Si8 0.872973 0.386793 0.974035
O O1 0.229417 0.039995 0.632009
O O2 0.056312 0.069751 0.484622
O O3 0.107423 0.008705 0.864061
O O4 0.854654 0.512278 0.027368
O O5 0.889183 0.432939 0.124053
O O6 0.877334 0.218127 0.454962
O O7 0.826981 0.303554 0.553041
O O8 0.000000 0.270639 0.750000
O O9 0.922382 0.289711 0.258478
O O10 0.176875 0.150619 0.855003
O O11 0.000000 0.170475 0.750000
O O12 0.074715 0.133950 0.180281
O O13 0.684314 0.862269 0.344963
O O14 0.679318 0.885861 0.841582
O O15 0.037028 0.357479 0.491078
#
# Coordination Sequence:
#
# PCOD9278617 Si02
#       8
#     8   8   8   8   8   4   4   8
#     4  10  23  40  65  87 120 169 220 263 315 383
#     4  10  21  39  60  90 126 164 206 262 325 388
#     4  10  20  44  65  95 130 171 221 267 329 386
#     4  11  27  40  62  96 136 179 215 275 326 383
#     4  11  24  43  68  95 131 176 225 265 321 383
#     4  10  21  40  68  98 126 168 218 274 321 394
#     4  12  25  40  62  88 136 162 228 264 333 366
#     4  11  23  41  71  97 129 168 222 266 330 387
#
# _framework density 24.315638
#
# number of rings (size 3 to 8) (size 9 to 14) (size 15 to 20)
#    0.000    1.429    1.429    3.000    6.000    1.143 
#    0.000    2.857    0.000    0.000    0.000    0.000 
#    0.000    0.000    0.000    0.000    0.000    0.000 
#
# Total GULP energy -156351.797394 kJ/mol
# GULP energy per Si atom -5583.992764 kJ/mol
# Density = 2.426029 g / cm^3
# Si number density = 24.315638 Si / 1000 Ang^3
#
#
#
# Elastic Constant Matrix: (Units=GPa)
#
#
# Indices 1 2 3 4 5 6 
#
# 1 53.9124 11.2959 16.3067 0.0000 -9.9443 0.0000
# 2 11.2959 102.9658 -2.9721 0.0000 -2.5174 0.0000
# 3 16.3067 -2.9721 45.2304 0.0000 -13.0285 0.0000
# 4 0.0000 0.0000 0.0000 28.7149 0.0000 -6.4026
# 5 -9.9443 -2.5174 -13.0285 0.0000 26.3775 0.0000
# 6 0.0000 0.0000 0.0000 -6.4026 0.0000 19.4425
#
#
#
# Elastic Compliance Matrix: (Units=1/GPa)
#
#
# Indices 1 2 3 4 5 6 
#
# 1 0.021976 -0.002489 -0.006725 0.000000 0.004726 0.000000
# 2 -0.002489 0.010060 0.001824 0.000000 0.000923 0.000000
# 3 -0.006725 0.001824 0.027950 0.000000 0.011444 0.000000
# 4 0.000000 0.000000 0.000000 0.037585 0.000000 0.012377
# 5 0.004726 0.000923 0.011444 0.000000 0.045433 0.000000
# 6 0.000000 0.000000 0.000000 0.012377 0.000000 0.055510
#
#
# Mechanical properties :
#
#
# Convention : Reuss Voigt Hill
#
# Bulk Modulus (GPa) = 22.12129 27.92997 25.02563
# Shear Modulus (GPa) = 21.89496 26.73885 24.31691
#
# Velocity S-wave (km/s) = 3.00400 3.31970 3.16579
# Velocity P-wave (km/s) = 4.59884 5.11911 4.86593
#
# Compressibility (1/GPa) = 0.04520532
#
# Stress axis : x y z
#
# Youngs Moduli (GPa) = 45.50416 99.40073 35.77836
#
# Poissons Ratio (x) = 0.24746 0.24062
# Poissons Ratio (y) = 0.11328 -0.06527
# Poissons Ratio (z) = 0.30603 -0.18134
#
# Static dielectric constant tensor:
#      x y z
#    x 2.000910 0.000000 0.003670 
#    y 0.000000 1.963090 0.000000 
#    z 0.003670 0.000000 1.957470 
# 
# From -- ./inp_files/11590.got.cif
#   From: 2010.05.17/outbox.cif.g08.bks.cpg/sg15_6_cif.got.tgz:11590.got - 2010.06.03 18:47:42.
