data_PCOD9278967
_publ_section_title
;
Structure prediction by ZEFSAII (Michael W. Deem and Ramdas Pophale) SiO2 
 PCOD9278967
Probable space group: C 2/C
;
_chemical_formula_sum "Si O2"
_cell_formula_units_Z 64
_cell_length_a 18.898170
_cell_length_b 12.212780
_cell_length_c 15.258598
_cell_angle_alpha 90.000000
_cell_angle_beta 115.417063
_cell_angle_gamma 90.000000
_cell_volume 3180.800700
_symmetry_space_group_name_H-M "C 2/C"
_symmetry_group_IT_number 15
_symmetry_cell_setting 'monoclinic'
loop_
_space_group_symop_operation_xyz
x,y,z
-x,y,1/2-z
-x,-y,-z
x,-y,1/2+z
1/2+x,1/2+y,z
1/2-x,1/2+y,1/2-z
1/2-x,1/2-y,-z
1/2+x,1/2-y,1/2+z
loop_
_atom_site_type_symbol
_atom_site_label
_atom_site_fract_x
_atom_site_fract_y
_atom_site_fract_z
Si Si1 0.300539 0.261153 0.294496
Si Si2 0.255809 0.650570 0.069995
Si Si3 0.418818 0.648611 0.256642
Si Si4 0.941108 0.870525 0.047136
Si Si5 0.870608 0.295693 0.369715
Si Si6 0.854595 0.239578 0.640787
Si Si7 0.798669 0.587406 0.975437
Si Si8 0.890970 0.036132 0.891142
O O1 0.298914 0.182489 0.376294
O O2 0.214174 0.252932 0.207076
O O3 0.359037 0.237367 0.245825
O O4 0.318207 0.385132 0.335181
O O5 0.345020 0.644300 0.152387
O O6 0.226969 0.535009 0.018343
O O7 0.250000 0.750000 0.000000
O O8 0.500000 0.628439 0.250000
O O9 0.421196 0.765348 0.310700
O O10 0.401968 0.556103 0.321954
O O11 0.923840 0.831584 0.135517
O O12 0.031096 0.890902 0.074445
O O13 0.906559 0.777224 0.966118
O O14 0.894755 0.977752 0.987680
O O15 0.850002 0.405738 0.412551
O O16 0.840485 0.350091 0.577963
O O17 0.778884 0.160878 0.584621
#
# Coordination Sequence:
#
# PCOD9278967 Si02
#       8
#     8   8   8   8   8   8   8   8
#     4  10  21  37  52  86 122 163 201 245 301 360
#     4  11  25  40  58  91 126 164 206 256 303 373
#     4  10  21  36  58  91 126 159 196 254 325 365
#     4   9  19  33  58  93 122 156 192 249 327 364
#     4   8  17  37  55  81 117 159 201 239 295 375
#     4   9  18  35  61  87 116 160 199 257 296 372
#     4   9  18  36  60  85 115 157 207 248 301 357
#     4  10  21  33  57  94 132 160 189 259 320 380
#
# _framework density 20.120721
#
# number of rings (size 3 to 8) (size 9 to 14) (size 15 to 20)
#    0.000    2.500    0.000    2.250    5.250    2.000 
#    6.750    0.000    0.000    6.750    0.000    0.000 
#    0.000    0.000    0.000    0.000    0.000    0.000 
#
# Total GULP energy -178311.592364 kJ/mol
# GULP energy per Si atom -5572.237261 kJ/mol
# Density = 2.007493 g / cm^3
# Si number density = 20.120721 Si / 1000 Ang^3
#
#
#
# Elastic Constant Matrix: (Units=GPa)
#
#
# Indices 1 2 3 4 5 6 
#
# 1 62.8968 38.0241 26.0167 0.0000 -12.3686 0.0000
# 2 38.0241 107.6098 43.3671 0.0000 -9.2099 0.0000
# 3 26.0167 43.3671 73.2307 0.0000 -7.7147 0.0000
# 4 0.0000 0.0000 0.0000 28.9009 0.0000 -2.6898
# 5 -12.3686 -9.2099 -7.7147 0.0000 28.6054 0.0000
# 6 0.0000 0.0000 0.0000 -2.6898 0.0000 47.5814
#
#
#
# Elastic Compliance Matrix: (Units=1/GPa)
#
#
# Indices 1 2 3 4 5 6 
#
# 1 0.022282 -0.005768 -0.003788 0.000000 0.006755 0.000000
# 2 -0.005768 0.013816 -0.006100 0.000000 0.000309 0.000000
# 3 -0.003788 -0.006100 0.018767 0.000000 0.001460 0.000000
# 4 0.000000 0.000000 0.000000 0.034784 0.000000 0.001966
# 5 0.006755 0.000309 0.001460 0.000000 0.038373 0.000000
# 6 0.000000 0.000000 0.000000 0.001966 0.000000 0.021128
#
#
# Mechanical properties :
#
#
# Convention : Reuss Voigt Hill
#
# Bulk Modulus (GPa) = 42.45945 50.95034 46.70489
# Shear Modulus (GPa) = 26.55153 30.10616 28.32884
#
# Velocity S-wave (km/s) = 3.63659 3.87237 3.75633
# Velocity P-wave (km/s) = 6.22745 6.73580 6.48661
#
# Compressibility (1/GPa) = 0.02355188
#
# Stress axis : x y z
#
# Youngs Moduli (GPa) = 44.87971 72.38090 53.28386
#
# Poissons Ratio (x) = 0.41752 0.20186
# Poissons Ratio (y) = 0.25889 0.32502
# Poissons Ratio (z) = 0.17002 0.44151
#
# Static dielectric constant tensor:
#      x y z
#    x 1.757380 0.000000 -0.048190 
#    y 0.000000 1.724710 0.000000 
#    z -0.048190 0.000000 1.741980 
# 
# From -- ./inp_files/167660.got.cif
#   From: 2010.05.17/outbox.cif.g08.bks.cpg/sg15_84_cif.got.tgz:167660.got - 2010.06.03 18:47:42.
