data_PCOD9278549
_publ_section_title
;
Structure prediction by ZEFSAII (Michael W. Deem and Ramdas Pophale) SiO2 
 PCOD9278549
Probable space group: C 2/C
;
_chemical_formula_sum "Si O2"
_cell_formula_units_Z 48
_cell_length_a 7.183688
_cell_length_b 19.152647
_cell_length_c 14.179846
_cell_angle_alpha 90.000000
_cell_angle_beta 99.064535
_cell_angle_gamma 90.000000
_cell_volume 1926.592870
_symmetry_space_group_name_H-M "C 2/C"
_symmetry_group_IT_number 15
_symmetry_cell_setting 'monoclinic'
loop_
_space_group_symop_operation_xyz
x,y,z
-x,y,1/2-z
-x,-y,-z
x,-y,1/2+z
1/2+x,1/2+y,z
1/2-x,1/2+y,1/2-z
1/2-x,1/2-y,-z
1/2+x,1/2-y,1/2+z
loop_
_atom_site_type_symbol
_atom_site_label
_atom_site_fract_x
_atom_site_fract_y
_atom_site_fract_z
Si Si1 0.708194 0.472885 0.741158
Si Si2 0.752348 0.330425 0.635730
Si Si3 0.251217 0.409428 0.394270
Si Si4 0.273527 0.313884 0.228472
Si Si5 0.315060 0.603714 0.549165
Si Si6 0.951024 0.415119 0.926204
O O1 0.500000 0.499129 0.750000
O O2 0.685186 0.398546 0.687198
O O3 0.806233 0.526347 0.677662
O O4 0.827377 0.459586 0.844761
O O5 0.708750 0.261283 0.688653
O O6 0.665365 0.332082 0.523717
O O7 0.972697 0.348302 0.628682
O O8 0.213364 0.342318 0.324873
O O9 0.475251 0.423765 0.425570
O O10 0.164752 0.398382 0.489617
O O11 0.500000 0.310114 0.250000
O O12 0.236931 0.369763 0.142363
O O13 0.152583 0.558178 0.485402
#
# Coordination Sequence:
#
# PCOD9278549 Si02
#       6
#     8   8   8   8   8   8
#     4  12  25  46  72 102 146 193 238 297 362 429
#     4  10  23  46  72 102 146 186 241 296 363 426
#     4  11  25  48  73 104 146 190 243 294 361 429
#     4  10  20  43  73 102 143 188 236 303 354 423
#     4   9  22  44  73 103 140 188 232 301 356 422
#     4  10  25  47  71 107 138 191 237 298 360 427
#
# _framework density 24.914449999999999
#
# number of rings (size 3 to 8) (size 9 to 14) (size 15 to 20)
#    1.000    0.667    0.000    4.500    0.000    5.333 
#   15.000    7.500    3.667    0.000    0.000    0.000 
#    0.000    0.000    0.000    0.000    0.000    0.000 
#
# Total GULP energy -134215.531357 kJ/mol
# GULP energy per Si atom -5592.313807 kJ/mol
# Density = 2.485774 g / cm^3
# Si number density = 24.914450 Si / 1000 Ang^3
#
#
#
# Elastic Constant Matrix: (Units=GPa)
#
#
# Indices 1 2 3 4 5 6 
#
# 1 108.7387 7.4361 49.7073 0.0000 0.6781 0.0000
# 2 7.4361 84.4016 46.1665 0.0000 -11.3383 0.0000
# 3 49.7073 46.1665 163.2621 0.0000 -11.1473 0.0000
# 4 0.0000 0.0000 0.0000 45.9229 0.0000 5.3416
# 5 0.6781 -11.3383 -11.1473 0.0000 58.0710 0.0000
# 6 0.0000 0.0000 0.0000 5.3416 0.0000 20.1058
#
#
#
# Elastic Compliance Matrix: (Units=1/GPa)
#
#
# Indices 1 2 3 4 5 6 
#
# 1 0.010776 0.000927 -0.003586 0.000000 -0.000633 0.000000
# 2 0.000927 0.014329 -0.004199 0.000000 0.001981 0.000000
# 3 -0.003586 -0.004199 0.008462 0.000000 0.000846 0.000000
# 4 0.000000 0.000000 0.000000 0.022470 0.000000 -0.005970
# 5 -0.000633 0.001981 0.000846 0.000000 0.017777 0.000000
# 6 0.000000 0.000000 0.000000 -0.005970 0.000000 0.051323
#
#
# Mechanical properties :
#
#
# Convention : Reuss Voigt Hill
#
# Bulk Modulus (GPa) = 50.37419 62.55802 56.46611
# Shear Modulus (GPa) = 34.37096 41.69276 38.03186
#
# Velocity S-wave (km/s) = 3.71827 4.09520 3.91128
# Velocity P-wave (km/s) = 6.22068 6.89381 6.56587
#
# Compressibility (1/GPa) = 0.01985144
#
# Stress axis : x y z
#
# Youngs Moduli (GPa) = 92.79581 69.78678 118.17205
#
# Poissons Ratio (x) = -0.06471 0.42382
# Poissons Ratio (y) = -0.08604 0.49621
# Poissons Ratio (z) = 0.33281 0.29304
#
# Static dielectric constant tensor:
#      x y z
#    x 2.000620 0.000000 0.005560 
#    y 0.000000 2.008210 0.000000 
#    z 0.005560 0.000000 1.981330 
# 
# From -- ./inp_files/134842.got.cif
#   From: 2010.05.17/outbox.cif.g08.bks.cpg/sg15_68_cif.got.tgz:134842.got - 2010.06.03 18:47:42.
