data_PCOD9278513
_publ_section_title
;
Structure prediction by ZEFSAII (Michael W. Deem and Ramdas Pophale) SiO2 
 PCOD9278513
Probable space group: C 2/C
;
_chemical_formula_sum "Si O2"
_cell_formula_units_Z 48
_cell_length_a 8.437524
_cell_length_b 29.426743
_cell_length_c 15.159938
_cell_angle_alpha 90.000000
_cell_angle_beta 142.913326
_cell_angle_gamma 90.000000
_cell_volume 2269.802845
_symmetry_space_group_name_H-M "C 2/C"
_symmetry_group_IT_number 15
_symmetry_cell_setting 'monoclinic'
loop_
_space_group_symop_operation_xyz
x,y,z
-x,y,1/2-z
-x,-y,-z
x,-y,1/2+z
1/2+x,1/2+y,z
1/2-x,1/2+y,1/2-z
1/2-x,1/2-y,-z
1/2+x,1/2-y,1/2+z
loop_
_atom_site_type_symbol
_atom_site_label
_atom_site_fract_x
_atom_site_fract_y
_atom_site_fract_z
Si Si1 0.420372 0.211181 0.816568
Si Si2 0.017005 0.187189 0.359235
Si Si3 0.037263 0.030585 0.363670
Si Si4 0.313278 0.393345 0.891590
Si Si5 0.114207 0.123008 0.705039
Si Si6 0.922230 0.538055 0.816108
O O1 0.500000 0.205381 0.750000
O O2 0.367685 0.264598 0.805526
O O3 0.191832 0.175841 0.735447
O O4 0.677854 0.197738 0.986119
O O5 0.000000 0.172658 0.250000
O O6 0.906940 0.150259 0.377383
O O7 0.340751 0.020922 0.518068
O O8 0.000000 0.051554 0.250000
O O9 0.940946 0.063826 0.398395
O O10 0.849535 0.986921 0.283024
O O11 0.000000 0.397481 0.750000
O O12 0.421062 0.388957 0.038713
O O13 0.372342 0.091734 0.805883
O O14 0.000000 0.112421 0.750000
O O15 0.000000 0.528774 0.750000
#
# Coordination Sequence:
#
# PCOD9278513 Si02
#       6
#     8   8   8   8   8   8
#     4  10  20  43  69  92 130 173 226 274 332 398
#     4  10  22  40  69  99 126 172 222 278 335 400
#     4  12  27  45  74 101 138 175 224 278 336 400
#     4  12  27  44  65  99 140 175 223 279 336 396
#     4  12  27  44  67  96 137 182 224 272 336 402
#     4  12  25  47  72 100 135 181 224 276 334 396
#
# _framework density 21.147210000000001
#
# number of rings (size 3 to 8) (size 9 to 14) (size 15 to 20)
#    0.000    0.667    3.333    4.000    7.000    0.667 
#    0.000    1.667    0.000    0.000    0.000    0.000 
#    0.000    0.000    0.000    0.000    0.000    0.000 
#
# Total GULP energy -134342.538800 kJ/mol
# GULP energy per Si atom -5597.605783 kJ/mol
# Density = 2.109908 g / cm^3
# Si number density = 21.147210 Si / 1000 Ang^3
#
#
#
# Elastic Constant Matrix: (Units=GPa)
#
#
# Indices 1 2 3 4 5 6 
#
# 1 75.2270 27.9541 47.4980 0.0000 -20.9820 0.0000
# 2 27.9541 86.9780 20.9064 0.0000 -1.5482 0.0000
# 3 47.4980 20.9064 139.4842 0.0000 -22.1014 0.0000
# 4 0.0000 0.0000 0.0000 -213.7132 0.0000 -43.4532
# 5 -20.9820 -1.5482 -22.1014 0.0000 44.4098 0.0000
# 6 0.0000 0.0000 0.0000 -43.4532 0.0000 12.8292
#
#
#
# Elastic Compliance Matrix: (Units=1/GPa)
#
#
# Indices 1 2 3 4 5 6 
#
# 1 0.020345 -0.005201 -0.005053 0.000000 0.006917 0.000000
# 2 -0.005201 0.013267 -0.000579 0.000000 -0.002283 0.000000
# 3 -0.005053 -0.000579 0.009331 0.000000 0.002236 0.000000
# 4 0.000000 0.000000 0.000000 -0.002771 0.000000 -0.009385
# 5 0.006917 -0.002283 0.002236 0.000000 0.026819 0.000000
# 6 0.000000 0.000000 0.000000 -0.009385 0.000000 0.046159
#
#
# Mechanical properties :
#
#
# Convention : Reuss Voigt Hill
#
# Bulk Modulus (GPa) = 46.99774 54.93400 50.96587
# Shear Modulus (GPa) = 35.23394 -17.60614 8.81390
#
# Velocity S-wave (km/s) = 4.08625 -2.88853 2.04375
# Velocity P-wave (km/s) = 6.67350 3.86116 5.45180
#
# Compressibility (1/GPa) = 0.02127762
#
# Stress axis : x y z
#
# Youngs Moduli (GPa) = 49.15179 75.37292 107.17009
#
# Poissons Ratio (x) = 0.39203 0.54148
# Poissons Ratio (y) = 0.25565 0.06207
# Poissons Ratio (z) = 0.24834 0.04365
#
# Static dielectric constant tensor:
#      x y z
#    x 1.730490 0.000000 0.009140 
#    y 0.000000 1.775510 0.000000 
#    z 0.009140 0.000000 1.776400 
# 
# From -- ./inp_files/139057.got.cif
#   From: 2010.05.17/outbox.cif.g08.bks.cpg/sg15_70_cif.got.tgz:139057.got - 2010.06.03 18:47:42.
