data_PCOD9278220
_publ_section_title
;
Structure prediction by ZEFSAII (Michael W. Deem and Ramdas Pophale) SiO2 
 PCOD9278220
Probable space group: C 2/C
;
_chemical_formula_sum "Si O2"
_cell_formula_units_Z 44
_cell_length_a 20.913388
_cell_length_b 7.402624
_cell_length_c 13.903996
_cell_angle_alpha 90.000000
_cell_angle_beta 113.131713
_cell_angle_gamma 90.000000
_cell_volume 1979.477938
_symmetry_space_group_name_H-M "C 2/C"
_symmetry_group_IT_number 15
_symmetry_cell_setting 'monoclinic'
loop_
_space_group_symop_operation_xyz
x,y,z
-x,y,1/2-z
-x,-y,-z
x,-y,1/2+z
1/2+x,1/2+y,z
1/2-x,1/2+y,1/2-z
1/2-x,1/2-y,-z
1/2+x,1/2-y,1/2+z
loop_
_atom_site_type_symbol
_atom_site_label
_atom_site_fract_x
_atom_site_fract_y
_atom_site_fract_z
Si Si1 0.285803 0.568974 0.976947
Si Si2 0.500000 0.493498 0.750000
Si Si3 0.210515 0.037910 0.814597
Si Si4 0.821491 0.428282 0.746395
Si Si5 0.432320 0.433184 0.019557
Si Si6 0.602355 0.248761 0.685103
O O1 0.291336 0.442133 0.073079
O O2 0.365982 0.571205 0.986732
O O3 0.250000 0.750000 0.000000
O O4 0.234771 0.486222 0.867524
O O5 0.543789 0.601702 0.856409
O O6 0.546766 0.360940 0.713255
O O7 0.174783 0.214245 0.749161
O O8 0.288208 0.007590 0.824125
O O9 0.171903 0.857662 0.756347
O O10 0.890901 0.543673 0.776028
O O11 0.500000 0.500000 0.000000
O O12 0.407855 0.272172 0.935082
#
# Coordination Sequence:
#
# PCOD9278220 Si02
#       6
#     8   4   8   8   8   8
#     4  12  21  38  64  97 130 168 216 274 332 392
#     4  10  20  42  68  90 126 182 224 276 326 402
#     4  12  22  37  63  95 131 168 207 267 332 387
#     4  12  23  40  61  97 134 163 214 273 334 395
#     4  10  21  37  67  96 126 179 226 263 338 405
#     4  11  22  41  65  92 130 171 217 270 334 396
#
# _framework density 22.228083999999999
#
# number of rings (size 3 to 8) (size 9 to 14) (size 15 to 20)
#    0.000    0.727    7.273    0.545    0.000    0.000 
#    0.000    0.909    0.000    5.455    0.000    0.000 
#    0.000    0.000    0.000    0.000    0.000    0.000 
#
# Total GULP energy -122722.982923 kJ/mol
# GULP energy per Si atom -5578.317406 kJ/mol
# Density = 2.217749 g / cm^3
# Si number density = 22.228084 Si / 1000 Ang^3
#
#
#
# Elastic Constant Matrix: (Units=GPa)
#
#
# Indices 1 2 3 4 5 6 
#
# 1 69.4153 4.6967 30.6688 0.0000 -11.4409 0.0000
# 2 4.6967 85.8531 15.2835 0.0000 -2.6834 0.0000
# 3 30.6688 15.2835 150.1126 0.0000 -7.6547 0.0000
# 4 0.0000 0.0000 0.0000 18.6761 0.0000 4.6827
# 5 -11.4409 -2.6834 -7.6547 0.0000 29.6933 0.0000
# 6 0.0000 0.0000 0.0000 4.6827 0.0000 -0.5421
#
#
#
# Elastic Compliance Matrix: (Units=1/GPa)
#
#
# Indices 1 2 3 4 5 6 
#
# 1 0.016720 -0.000185 -0.003110 0.000000 0.005624 0.000000
# 2 -0.000185 0.011882 -0.001136 0.000000 0.000710 0.000000
# 3 -0.003110 -0.001136 0.007444 0.000000 0.000618 0.000000
# 4 0.000000 0.000000 0.000000 0.016913 0.000000 0.146097
# 5 0.005624 0.000710 0.000618 0.000000 0.036068 0.000000
# 6 0.000000 0.000000 0.000000 0.146097 0.000000 -0.582680
#
#
# Mechanical properties :
#
#
# Convention : Reuss Voigt Hill
#
# Bulk Modulus (GPa) = 36.78675 45.18657 40.98666
# Shear Modulus (GPa) = -10.51018 26.54761 8.01872
#
# Velocity S-wave (km/s) = -2.17683 3.45965 1.90139
# Velocity P-wave (km/s) = 3.20429 6.02757 4.82696
#
# Compressibility (1/GPa) = 0.02718370
#
# Stress axis : x y z
#
# Youngs Moduli (GPa) = 59.80994 84.15876 134.33160
#
# Poissons Ratio (x) = 0.01559 0.41781
# Poissons Ratio (y) = 0.01108 0.15257
# Poissons Ratio (z) = 0.18603 0.09558
#
# Static dielectric constant tensor:
#      x y z
#    x 1.481480 0.000000 -0.061280 
#    y 0.000000 1.833940 0.000000 
#    z -0.061280 0.000000 1.834600 
# 
# From -- ./inp_files/165811.got.cif
#   From: 2010.05.17/outbox.cif.g08.bks.cpg/sg15_83_cif.got.tgz:165811.got - 2010.06.03 18:47:42.
