data_PCOD9278395
_publ_section_title
;
Structure prediction by ZEFSAII (Michael W. Deem and Ramdas Pophale) SiO2 
 PCOD9278395
Probable space group: C 2/C
;
_chemical_formula_sum "Si O2"
_cell_formula_units_Z 36
_cell_length_a 18.073346
_cell_length_b 9.101760
_cell_length_c 12.206758
_cell_angle_alpha 90.000000
_cell_angle_beta 128.646989
_cell_angle_gamma 90.000000
_cell_volume 1568.267238
_symmetry_space_group_name_H-M "C 2/C"
_symmetry_group_IT_number 15
_symmetry_cell_setting 'monoclinic'
loop_
_space_group_symop_operation_xyz
x,y,z
-x,y,1/2-z
-x,-y,-z
x,-y,1/2+z
1/2+x,1/2+y,z
1/2-x,1/2+y,1/2-z
1/2-x,1/2-y,-z
1/2+x,1/2-y,1/2+z
loop_
_atom_site_type_symbol
_atom_site_label
_atom_site_fract_x
_atom_site_fract_y
_atom_site_fract_z
Si Si1 0.000000 0.901146 0.750000
Si Si2 0.937521 0.230776 0.916572
Si Si3 0.889058 0.930075 0.956888
Si Si4 0.305420 0.871133 0.622898
Si Si5 0.646986 0.182647 0.925237
O O1 0.920950 0.782051 0.714743
O O2 0.939024 0.003101 0.612654
O O3 0.892336 0.307854 0.771472
O O4 0.905562 0.059321 0.884878
O O5 0.894546 0.293645 0.990203
O O6 0.051133 0.215440 0.014814
O O7 0.778186 0.916234 0.871053
O O8 0.250000 0.750000 0.500000
O O9 0.342894 0.011896 0.592388
O O10 0.750000 0.250000 0.000000
#
# Coordination Sequence:
#
# PCOD9278395 Si02
#       5
#     4   8   8   8   8
#     4  10  20  42  74  94 148 186 240 284 368 426
#     4  10  24  42  72 102 142 190 235 287 358 435
#     4  10  22  46  69 105 141 197 227 294 368 429
#     4  12  26  43  74 105 143 185 244 300 354 428
#     4  11  24  44  66 107 140 188 235 298 354 427
#
# _framework density 22.955269999999999
#
# number of rings (size 3 to 8) (size 9 to 14) (size 15 to 20)
#    0.000    1.333    4.444    1.333    3.111    5.333 
#    0.000    5.556    0.000    0.000    0.000    0.000 
#    0.000    0.000    0.000    0.000    0.000    0.000 
#
# Total GULP energy -100491.598979 kJ/mol
# GULP energy per Si atom -5582.866610 kJ/mol
# Density = 2.290302 g / cm^3
# Si number density = 22.955270 Si / 1000 Ang^3
#
#
#
# Elastic Constant Matrix: (Units=GPa)
#
#
# Indices 1 2 3 4 5 6 
#
# 1 84.2473 45.6429 16.1960 0.0000 18.8373 0.0000
# 2 45.6429 109.8054 51.9381 0.0000 -9.2358 0.0000
# 3 16.1960 51.9381 90.7305 0.0000 1.7374 0.0000
# 4 0.0000 0.0000 0.0000 49.5532 0.0000 1.0029
# 5 18.8373 -9.2358 1.7374 0.0000 39.0723 0.0000
# 6 0.0000 0.0000 0.0000 1.0029 0.0000 41.6652
#
#
#
# Elastic Compliance Matrix: (Units=1/GPa)
#
#
# Indices 1 2 3 4 5 6 
#
# 1 0.019762 -0.010527 0.002731 0.000000 -0.012137 0.000000
# 2 -0.010527 0.018529 -0.008916 0.000000 0.009851 0.000000
# 3 0.002731 -0.008916 0.015717 0.000000 -0.004123 0.000000
# 4 0.000000 0.000000 0.000000 0.020190 0.000000 -0.000486
# 5 -0.012137 0.009851 -0.004123 0.000000 0.033957 0.000000
# 6 0.000000 0.000000 0.000000 -0.000486 0.000000 0.024013
#
#
# Mechanical properties :
#
#
# Convention : Reuss Voigt Hill
#
# Bulk Modulus (GPa) = 48.58328 56.92636 52.75482
# Shear Modulus (GPa) = 28.99333 37.45855 33.22594
#
# Velocity S-wave (km/s) = 3.55778 4.04394 3.80863
# Velocity P-wave (km/s) = 6.17149 6.83062 6.50940
#
# Compressibility (1/GPa) = 0.02058321
#
# Stress axis : x y z
#
# Youngs Moduli (GPa) = 50.60239 53.97002 63.62476
#
# Poissons Ratio (x) = 0.56815 -0.17375
# Poissons Ratio (y) = 0.53269 0.56729
# Poissons Ratio (z) = -0.13819 0.48121
#
# Static dielectric constant tensor:
#      x y z
#    x 2.000440 0.000000 -0.035870 
#    y 0.000000 1.877190 0.000000 
#    z -0.035870 0.000000 1.917270 
# 
# From -- ./inp_files/166720.got.cif
#   From: 2010.05.17/outbox.cif.g08.bks.cpg/sg15_84_cif.got.tgz:166720.got - 2010.06.03 18:47:42.
