data_PCOD9278698
_publ_section_title
;
Structure prediction by ZEFSAII (Michael W. Deem and Ramdas Pophale) SiO2 
 PCOD9278698
Probable space group: C 2/C
;
_chemical_formula_sum "Si O2"
_cell_formula_units_Z 56
_cell_length_a 9.609016
_cell_length_b 13.405470
_cell_length_c 23.044994
_cell_angle_alpha 90.000000
_cell_angle_beta 49.419566
_cell_angle_gamma 90.000000
_cell_volume 2254.559081
_symmetry_space_group_name_H-M "C 2/C"
_symmetry_group_IT_number 15
_symmetry_cell_setting 'monoclinic'
loop_
_space_group_symop_operation_xyz
x,y,z
-x,y,1/2-z
-x,-y,-z
x,-y,1/2+z
1/2+x,1/2+y,z
1/2-x,1/2+y,1/2-z
1/2-x,1/2-y,-z
1/2+x,1/2-y,1/2+z
loop_
_atom_site_type_symbol
_atom_site_label
_atom_site_fract_x
_atom_site_fract_y
_atom_site_fract_z
Si Si1 0.895316 0.015608 0.723226
Si Si2 0.589155 0.605461 0.987603
Si Si3 0.434469 0.090830 0.978572
Si Si4 0.143645 0.820047 0.641249
Si Si5 0.874276 0.251596 0.132020
Si Si6 0.889819 0.792651 0.144294
Si Si7 0.414321 0.870289 0.717082
O O1 0.702733 0.957112 0.782705
O O2 0.000000 0.058113 0.750000
O O3 0.030257 0.922952 0.670330
O O4 0.875896 0.107446 0.685310
O O5 0.581058 0.663353 0.928155
O O6 0.500000 0.500000 0.000000
O O7 0.783064 0.580843 0.968054
O O8 0.462215 0.667571 0.066578
O O9 0.322202 0.158551 0.054305
O O10 0.615484 0.146259 0.905599
O O11 0.500000 0.000000 0.000000
O O12 0.207563 0.775324 0.684751
O O13 0.025636 0.737798 0.641065
O O14 0.702634 0.209568 0.212648
O O15 0.010779 0.705283 0.144191
O O16 0.500000 0.925803 0.750000
#
# Coordination Sequence:
#
# PCOD9278698 Si02
#       7
#     8   8   8   8   8   8   8
#     4  11  24  45  73 101 141 193 238 297 370 445
#     4  11  22  44  71 102 134 185 238 287 362 438
#     4  11  22  40  68 100 137 175 230 295 354 428
#     4  10  20  44  70  99 135 183 236 284 354 441
#     4  10  21  44  69  92 138 184 229 282 355 429
#     4  12  22  43  75 100 139 189 235 299 363 422
#     4  11  26  47  66 103 143 177 245 302 358 437
#
# _framework density 24.838560000000001
#
# number of rings (size 3 to 8) (size 9 to 14) (size 15 to 20)
#    0.000    1.143    4.286    3.857    0.000    3.429 
#   10.286    1.429    0.000    0.000    0.000    0.000 
#    0.000    0.000    0.000    0.000    0.000    0.000 
#
# Total GULP energy -156115.176054 kJ/mol
# GULP energy per Si atom -5575.542002 kJ/mol
# Density = 2.478203 g / cm^3
# Si number density = 24.838560 Si / 1000 Ang^3
#
#
#
# Elastic Constant Matrix: (Units=GPa)
#
#
# Indices 1 2 3 4 5 6 
#
# 1 97.4335 48.3941 28.4580 0.0000 33.9502 0.0000
# 2 48.3941 97.3904 13.0731 -0.0001 24.0244 0.0001
# 3 28.4580 13.0731 70.8479 0.0000 23.1646 0.0000
# 4 0.0000 -0.0001 0.0000 38.2578 0.0000 17.6918
# 5 33.9502 24.0244 23.1646 0.0000 42.6632 0.0000
# 6 0.0000 0.0001 0.0000 17.6918 0.0000 47.0766
#
#
#
# Elastic Compliance Matrix: (Units=1/GPa)
#
#
# Indices 1 2 3 4 5 6 
#
# 1 0.017101 -0.005969 -0.002939 0.000000 -0.008652 0.000000
# 2 -0.005969 0.014008 0.001020 0.000000 -0.003692 0.000000
# 3 -0.002939 0.001020 0.017666 0.000000 -0.007828 0.000000
# 4 0.000000 0.000000 0.000000 0.031636 0.000000 -0.011889
# 5 -0.008652 -0.003692 -0.007828 0.000000 0.036653 0.000000
# 6 0.000000 0.000000 0.000000 -0.011889 0.000000 0.025710
#
#
# Mechanical properties :
#
#
# Convention : Reuss Voigt Hill
#
# Bulk Modulus (GPa) = 30.30363 49.50249 39.90306
# Shear Modulus (GPa) = 29.48962 37.31596 33.40279
#
# Velocity S-wave (km/s) = 3.44939 3.88021 3.67112
# Velocity P-wave (km/s) = 5.30010 6.32832 5.83690
#
# Compressibility (1/GPa) = 0.03299935
#
# Stress axis : x y z
#
# Youngs Moduli (GPa) = 58.47554 71.38874 56.60437
#
# Poissons Ratio (x) = 0.42612 0.16636
# Poissons Ratio (y) = 0.34904 -0.05773
# Poissons Ratio (z) = 0.17186 -0.07281
#
# Static dielectric constant tensor:
#      x y z
#    x 2.056560 0.000000 0.039400 
#    y 0.000000 1.965150 0.000000 
#    z 0.039400 0.000000 2.053410 
# 
# From -- ./inp_files/264596.got.cif
#   From: 2010.05.17/outbox.cif.g08.bks.cpg/sg15_133_cif.got.tgz:264596.got - 2010.06.03 18:47:42.
