data_PCOD9278275
_publ_section_title
;
Structure prediction by ZEFSAII (Michael W. Deem and Ramdas Pophale) SiO2 
 PCOD9278275
Probable space group: C 2/C
;
_chemical_formula_sum "Si O2"
_cell_formula_units_Z 40
_cell_length_a 9.214616
_cell_length_b 15.753862
_cell_length_c 13.707475
_cell_angle_alpha 90.000000
_cell_angle_beta 114.374944
_cell_angle_gamma 90.000000
_cell_volume 1812.489034
_symmetry_space_group_name_H-M "C 2/C"
_symmetry_group_IT_number 15
_symmetry_cell_setting 'monoclinic'
loop_
_space_group_symop_operation_xyz
x,y,z
-x,y,1/2-z
-x,-y,-z
x,-y,1/2+z
1/2+x,1/2+y,z
1/2-x,1/2+y,1/2-z
1/2-x,1/2-y,-z
1/2+x,1/2-y,1/2+z
loop_
_atom_site_type_symbol
_atom_site_label
_atom_site_fract_x
_atom_site_fract_y
_atom_site_fract_z
Si Si1 0.440310 0.069381 0.884183
Si Si2 0.421171 0.395050 0.888483
Si Si3 0.220134 0.008437 0.969706
Si Si4 0.071854 0.724806 0.981556
Si Si5 0.384959 0.878315 0.805902
O O1 0.283666 0.076078 0.909430
O O2 0.402646 0.981863 0.817086
O O3 0.483994 0.166713 0.874521
O O4 0.617051 0.044122 0.973000
O O5 0.572924 0.450376 0.896654
O O6 0.299199 0.366112 0.772130
O O7 0.325194 0.452168 0.939546
O O8 0.482064 0.313610 0.963580
O O9 0.070536 0.673376 0.083983
O O10 0.250000 0.750000 0.000000
O O11 0.500000 0.850487 0.750000
#
# Coordination Sequence:
#
# PCOD9278275 Si02
#       5
#     8   8   8   8   8
#     4  11  20  44  68  92 133 182 218 274 360 402
#     4  11  24  42  70 102 136 179 238 283 337 416
#     4  10  20  42  69  91 134 182 214 280 345 410
#     4  12  24  44  71 101 143 177 230 294 350 399
#     4  12  24  44  71  98 141 186 232 284 353 419
#
# _framework density 22.069096999999999
#
# number of rings (size 3 to 8) (size 9 to 14) (size 15 to 20)
#    0.000    0.800    8.000    0.000    0.000    6.400 
#   10.800    0.000    0.000    0.000    0.000    0.000 
#    0.000    0.000    0.000    0.000    0.000    0.000 
#
# Total GULP energy -111353.760504 kJ/mol
# GULP energy per Si atom -5567.688025 kJ/mol
# Density = 2.201887 g / cm^3
# Si number density = 22.069097 Si / 1000 Ang^3
#
#
#
# Elastic Constant Matrix: (Units=GPa)
#
#
# Indices 1 2 3 4 5 6 
#
# 1 141.7849 46.1368 42.7209 0.0000 2.5064 0.0000
# 2 46.1368 86.2363 30.0264 0.0000 2.2742 0.0000
# 3 42.7209 30.0264 76.0364 0.0000 5.9982 0.0000
# 4 0.0000 0.0000 0.0000 29.4563 0.0000 15.3780
# 5 2.5064 2.2742 5.9982 0.0000 38.3244 0.0000
# 6 0.0000 0.0000 0.0000 15.3780 0.0000 27.2362
#
#
#
# Elastic Compliance Matrix: (Units=1/GPa)
#
#
# Indices 1 2 3 4 5 6 
#
# 1 0.009412 -0.003703 -0.003842 0.000000 0.000206 0.000000
# 2 -0.003703 0.014902 -0.003800 0.000000 -0.000047 0.000000
# 3 -0.003842 -0.003800 0.016983 0.000000 -0.002181 0.000000
# 4 0.000000 0.000000 0.000000 0.048138 0.000000 -0.027179
# 5 0.000206 -0.000047 -0.002181 0.000000 0.026424 0.000000
# 6 0.000000 0.000000 0.000000 -0.027179 0.000000 0.052062
#
#
# Mechanical properties :
#
#
# Convention : Reuss Voigt Hill
#
# Bulk Modulus (GPa) = 53.74641 60.20287 56.97464
# Shear Modulus (GPa) = 25.40491 31.34830 28.37660
#
# Velocity S-wave (km/s) = 3.39655 3.77299 3.58971
# Velocity P-wave (km/s) = 6.30782 6.80581 6.56154
#
# Compressibility (1/GPa) = 0.01860590
#
# Stress axis : x y z
#
# Youngs Moduli (GPa) = 106.24848 67.10643 58.88252
#
# Poissons Ratio (x) = 0.24850 0.22622
# Poissons Ratio (y) = 0.39345 0.22377
# Poissons Ratio (z) = 0.40820 0.25502
#
# Static dielectric constant tensor:
#      x y z
#    x 1.795640 0.000000 -0.042700 
#    y 0.000000 1.905110 0.000000 
#    z -0.042700 0.000000 1.970820 
# 
# From -- ./inp_files/133300.got.cif
#   From: 2010.05.17/outbox.cif.g08.bks.cpg/sg15_67_cif.got.tgz:133300.got - 2010.06.03 18:47:42.
