data_PCOD9278524
_publ_section_title
;
Structure prediction by ZEFSAII (Michael W. Deem and Ramdas Pophale) SiO2 
 PCOD9278524
Probable space group: C 2/C
;
_chemical_formula_sum "Si O2"
_cell_formula_units_Z 40
_cell_length_a 22.822700
_cell_length_b 17.955027
_cell_length_c 12.550032
_cell_angle_alpha 90.000000
_cell_angle_beta 160.089700
_cell_angle_gamma 90.000000
_cell_volume 1751.366306
_symmetry_space_group_name_H-M "C 2/C"
_symmetry_group_IT_number 15
_symmetry_cell_setting 'monoclinic'
loop_
_space_group_symop_operation_xyz
x,y,z
-x,y,1/2-z
-x,-y,-z
x,-y,1/2+z
1/2+x,1/2+y,z
1/2-x,1/2+y,1/2-z
1/2-x,1/2-y,-z
1/2+x,1/2-y,1/2+z
loop_
_atom_site_type_symbol
_atom_site_label
_atom_site_fract_x
_atom_site_fract_y
_atom_site_fract_z
Si Si1 0.036059 0.765946 0.038628
Si Si2 0.206532 0.124531 0.251886
Si Si3 0.500000 0.515077 0.750000
Si Si4 0.000000 0.731197 0.750000
Si Si5 0.382063 0.146162 0.153833
Si Si6 0.310136 0.492215 0.620845
O O1 0.229927 0.797035 0.359113
O O2 0.032090 0.688531 0.098115
O O3 0.948345 0.770090 0.771755
O O4 0.941879 0.825198 0.952542
O O5 0.347391 0.179123 0.447864
O O6 0.283675 0.073711 0.477954
O O7 0.124745 0.069344 0.028065
O O8 0.369466 0.471932 0.603390
O O9 0.500000 0.134744 0.250000
O O10 0.294898 0.068555 0.043391
O O11 0.500000 0.500000 0.000000
#
# Coordination Sequence:
#
# PCOD9278524 Si02
#       6
#     8   8   4   4   8   8
#     4  11  24  44  66  98 137 188 225 286 358 405
#     4  11  24  43  66  98 136 180 229 279 359 409
#     4  10  20  43  70  85 132 184 226 276 332 434
#     4  12  26  41  64 101 142 170 222 302 338 412
#     4  11  23  41  72 100 132 177 246 279 333 429
#     4  10  21  42  63  96 127 177 222 278 341 400
#
# _framework density 22.839312
#
# number of rings (size 3 to 8) (size 9 to 14) (size 15 to 20)
#    0.000    1.200    4.000    3.000    5.600    0.800 
#    7.200    2.000    0.000    0.000    0.000    0.000 
#    0.000    0.000    0.000    0.000    0.000    0.000 
#
# Total GULP energy -111652.084788 kJ/mol
# GULP energy per Si atom -5582.604239 kJ/mol
# Density = 2.278733 g / cm^3
# Si number density = 22.839312 Si / 1000 Ang^3
#
#
#
# Elastic Constant Matrix: (Units=GPa)
#
#
# Indices 1 2 3 4 5 6 
#
# 1 107.7969 9.4821 1.6360 0.0000 -1.1655 0.0000
# 2 9.4821 68.9414 -4.4603 0.0000 0.8963 0.0000
# 3 1.6360 -4.4603 25.1753 0.0000 -8.4592 0.0000
# 4 0.0000 0.0000 0.0000 21.2295 0.0000 40.4489
# 5 -1.1655 0.8963 -8.4592 0.0000 32.5649 0.0000
# 6 0.0000 0.0000 0.0000 40.4489 0.0000 152.6783
#
#
#
# Elastic Compliance Matrix: (Units=1/GPa)
#
#
# Indices 1 2 3 4 5 6 
#
# 1 0.009409 -0.001348 -0.000794 0.000000 0.000168 0.000000
# 2 -0.001348 0.014869 0.002814 0.000000 0.000273 0.000000
# 3 -0.000794 0.002814 0.044084 0.000000 0.011346 0.000000
# 4 0.000000 0.000000 0.000000 0.095117 0.000000 -0.025199
# 5 0.000168 0.000273 0.011346 0.000000 0.033654 0.000000
# 6 0.000000 0.000000 0.000000 -0.025199 0.000000 0.013226
#
#
# Mechanical properties :
#
#
# Convention : Reuss Voigt Hill
#
# Bulk Modulus (GPa) = 14.34590 23.91435 19.13013
# Shear Modulus (GPa) = 21.52864 54.31159 37.92012
#
# Velocity S-wave (km/s) = 3.07353 4.88175 4.07910
# Velocity P-wave (km/s) = 4.34630 6.50144 5.52988
#
# Compressibility (1/GPa) = 0.06970634
#
# Stress axis : x y z
#
# Youngs Moduli (GPa) = 106.27996 67.25442 22.68403
#
# Poissons Ratio (x) = 0.09064 0.01801
# Poissons Ratio (y) = 0.14323 -0.06383
# Poissons Ratio (z) = 0.08437 -0.18924
#
# Static dielectric constant tensor:
#      x y z
#    x 1.925650 0.000000 -0.033460 
#    y 0.000000 1.905860 0.000000 
#    z -0.033460 0.000000 1.900620 
# 
# From -- ./inp_files/76943.got.cif
#   From: 2010.05.17/outbox.cif.g08.bks.cpg/sg15_39_cif.got.tgz:76943.got - 2010.06.03 18:47:42.
