data_PCOD9278761
_publ_section_title
;
Structure prediction by ZEFSAII (Michael W. Deem and Ramdas Pophale) SiO2 
 PCOD9278761
Probable space group: C 2/C
;
_chemical_formula_sum "Si O2"
_cell_formula_units_Z 44
_cell_length_a 8.089984
_cell_length_b 22.567454
_cell_length_c 12.112347
_cell_angle_alpha 90.000000
_cell_angle_beta 122.451031
_cell_angle_gamma 90.000000
_cell_volume 1866.052974
_symmetry_space_group_name_H-M "C 2/C"
_symmetry_group_IT_number 15
_symmetry_cell_setting 'monoclinic'
loop_
_space_group_symop_operation_xyz
x,y,z
-x,y,1/2-z
-x,-y,-z
x,-y,1/2+z
1/2+x,1/2+y,z
1/2-x,1/2+y,1/2-z
1/2-x,1/2-y,-z
1/2+x,1/2-y,1/2+z
loop_
_atom_site_type_symbol
_atom_site_label
_atom_site_fract_x
_atom_site_fract_y
_atom_site_fract_z
Si Si1 0.000000 0.967507 0.250000
Si Si2 0.109635 0.668095 0.018063
Si Si3 0.000000 0.389362 0.250000
Si Si4 0.210096 0.998054 0.136813
Si Si5 0.388600 0.279261 0.949541
Si Si6 0.766276 0.397474 0.516968
Si Si7 0.500000 0.309893 0.750000
O O1 0.848563 0.009020 0.259200
O O2 0.132896 0.924916 0.372691
O O3 0.333197 0.654584 0.124238
O O4 0.961362 0.633291 0.043656
O O5 0.032573 0.650366 0.869358
O O6 0.079567 0.738358 0.028573
O O7 0.183388 0.434904 0.321057
O O8 0.325466 0.048413 0.115961
O O9 0.000000 0.000000 0.000000
O O10 0.365638 0.347902 0.970659
O O11 0.377827 0.278970 0.809545
O O12 0.250000 0.250000 0.000000
#
# Coordination Sequence:
#
# PCOD9278761 Si02
#       7
#     4   8   4   8   8   8   4
#     4  10  20  45  73 105 142 200 261 328 398 482
#     4  11  26  48  76 114 160 205 266 323 408 485
#     4  12  25  50  77 107 156 216 255 324 402 496
#     4  10  24  44  72 107 143 195 265 319 392 471
#     4  10  25  47  76 112 158 206 262 331 398 478
#     4  10  23  45  71 109 149 203 259 331 402 471
#     4  12  27  45  74 122 162 208 266 330 394 486
#
# _framework density 23.579180999999998
#
# number of rings (size 3 to 8) (size 9 to 14) (size 15 to 20)
#    0.000    1.455    1.818    1.091    5.091    8.727 
#    3.273    0.000    0.000    0.000    0.000    0.000 
#    0.000    0.000    0.000    0.000    0.000    0.000 
#
# Total GULP energy -122477.585027 kJ/mol
# GULP energy per Si atom -5567.162956 kJ/mol
# Density = 2.352551 g / cm^3
# Si number density = 23.579181 Si / 1000 Ang^3
#
#
#
# Elastic Constant Matrix: (Units=GPa)
#
#
# Indices 1 2 3 4 5 6 
#
# 1 112.3718 26.5314 65.0638 0.0000 -10.5055 0.0000
# 2 26.5314 62.1412 64.7635 0.0000 -4.6416 0.0000
# 3 65.0638 64.7635 144.5608 0.0000 5.8625 0.0000
# 4 0.0000 0.0000 0.0000 39.7714 0.0000 -44.3126
# 5 -10.5055 -4.6416 5.8625 0.0000 55.9978 0.0000
# 6 0.0000 0.0000 0.0000 -44.3126 0.0000 704.3550
#
#
#
# Elastic Compliance Matrix: (Units=1/GPa)
#
#
# Indices 1 2 3 4 5 6 
#
# 1 0.012593 0.001695 -0.006557 0.000000 0.003189 0.000000
# 2 0.001695 0.031304 -0.014969 0.000000 0.004480 0.000000
# 3 -0.006557 -0.014969 0.016746 0.000000 -0.004224 0.000000
# 4 0.000000 0.000000 0.000000 0.027039 0.000000 0.001701
# 5 0.003189 0.004480 -0.004224 0.000000 0.019270 0.000000
# 6 0.000000 0.000000 0.000000 0.001701 0.000000 0.001527
#
#
# Mechanical properties :
#
#
# Convention : Reuss Voigt Hill
#
# Bulk Modulus (GPa) = 47.66003 70.19902 58.92953
# Shear Modulus (GPa) = 32.23041 170.87250 101.55146
#
# Velocity S-wave (km/s) = 3.70117 8.52202 6.56976
# Velocity P-wave (km/s) = 6.20657 11.25475 9.08820
#
# Compressibility (1/GPa) = 0.02098194
#
# Stress axis : x y z
#
# Youngs Moduli (GPa) = 79.40675 31.94520 59.71673
#
# Poissons Ratio (x) = -0.05414 0.39154
# Poissons Ratio (y) = -0.13457 0.89387
# Poissons Ratio (z) = 0.52064 0.47817
#
# Static dielectric constant tensor:
#      x y z
#    x 2.042260 0.000000 -0.002630 
#    y 0.000000 2.004870 0.000000 
#    z -0.002630 0.000000 1.973370 
# 
# From -- ./inp_files/80006.got.cif
#   From: 2010.05.17/outbox.cif.g08.bks.cpg/sg15_41_cif.got.tgz:80006.got - 2010.06.03 18:47:42.
