data_PCOD9278551
_publ_section_title
;
Structure prediction by ZEFSAII (Michael W. Deem and Ramdas Pophale) SiO2 
 PCOD9278551
Probable space group: C 2/C
;
_chemical_formula_sum "Si O2"
_cell_formula_units_Z 40
_cell_length_a 10.186474
_cell_length_b 17.193123
_cell_length_c 9.177445
_cell_angle_alpha 90.000000
_cell_angle_beta 60.838513
_cell_angle_gamma 90.000000
_cell_volume 1403.585719
_symmetry_space_group_name_H-M "C 2/C"
_symmetry_group_IT_number 15
_symmetry_cell_setting 'monoclinic'
loop_
_space_group_symop_operation_xyz
x,y,z
-x,y,1/2-z
-x,-y,-z
x,-y,1/2+z
1/2+x,1/2+y,z
1/2-x,1/2+y,1/2-z
1/2-x,1/2-y,-z
1/2+x,1/2-y,1/2+z
loop_
_atom_site_type_symbol
_atom_site_label
_atom_site_fract_x
_atom_site_fract_y
_atom_site_fract_z
Si Si1 0.743567 0.033522 0.584999
Si Si2 0.820333 0.619276 0.453253
Si Si3 0.000000 0.645338 0.750000
Si Si4 0.497160 0.255137 0.513981
Si Si5 0.000000 0.847349 0.250000
Si Si6 0.322645 0.399793 0.740176
O O1 0.634917 0.091339 0.730481
O O2 0.821404 0.079598 0.410669
O O3 0.636830 0.971054 0.556721
O O4 0.842366 0.983592 0.645752
O O5 0.883787 0.695089 0.494638
O O6 0.642784 0.613935 0.596226
O O7 0.827649 0.626080 0.270826
O O8 0.925813 0.699484 0.912038
O O9 0.575847 0.298001 0.338882
O O10 0.421044 0.324832 0.646551
#
# Coordination Sequence:
#
# PCOD9278551 Si02
#       6
#     8   8   4   8   4   8
#     4  10  23  43  65 101 140 177 225 291 338 416
#     4   9  22  41  68  99 134 185 226 280 341 412
#     4  12  28  41  69 110 136 182 230 288 364 381
#     4  11  24  43  67 105 138 187 231 283 343 420
#     4  10  20  43  73  96 124 188 238 262 336 427
#     4   9  21  43  64  94 137 179 222 284 336 403
#
# _framework density 28.498438
#
# number of rings (size 3 to 8) (size 9 to 14) (size 15 to 20)
#    1.200    0.800    0.000    3.600    5.600    4.800 
#    3.600    5.000    0.000    0.000    0.000    0.000 
#    0.000    0.000    0.000    0.000    0.000    0.000 
#
# Total GULP energy -111518.550661 kJ/mol
# GULP energy per Si atom -5575.927533 kJ/mol
# Density = 2.843357 g / cm^3
# Si number density = 28.498438 Si / 1000 Ang^3
#
#
#
# Elastic Constant Matrix: (Units=GPa)
#
#
# Indices 1 2 3 4 5 6 
#
# 1 53.4602 43.4657 8.0589 0.0000 7.6301 0.0000
# 2 43.4657 143.5539 43.3576 0.0000 -6.4895 0.0000
# 3 8.0589 43.3576 123.7113 0.0000 -1.2505 0.0000
# 4 0.0000 0.0000 0.0000 70.9791 0.0000 12.8201
# 5 7.6301 -6.4895 -1.2505 0.0000 37.7584 0.0000
# 6 0.0000 0.0000 0.0000 12.8201 0.0000 30.0225
#
#
#
# Elastic Compliance Matrix: (Units=1/GPa)
#
#
# Indices 1 2 3 4 5 6 
#
# 1 0.026601 -0.008745 0.001263 0.000000 -0.006837 0.000000
# 2 -0.008745 0.010725 -0.003154 0.000000 0.003506 0.000000
# 3 0.001263 -0.003154 0.009101 0.000000 -0.000496 0.000000
# 4 0.000000 0.000000 0.000000 0.015266 0.000000 -0.006519
# 5 -0.006837 0.003506 -0.000496 0.000000 0.028452 0.000000
# 6 0.000000 0.000000 0.000000 -0.006519 0.000000 0.036092
#
#
# Mechanical properties :
#
#
# Convention : Reuss Voigt Hill
#
# Bulk Modulus (GPa) = 39.75230 56.72110 48.23670
# Shear Modulus (GPa) = 32.07327 42.80822 37.44074
#
# Velocity S-wave (km/s) = 3.35840 3.87993 3.62855
# Velocity P-wave (km/s) = 5.38680 6.32600 5.87520
#
# Compressibility (1/GPa) = 0.02515577
#
# Stress axis : x y z
#
# Youngs Moduli (GPa) = 37.59295 93.24219 109.87394
#
# Poissons Ratio (x) = 0.81538 -0.13875
# Poissons Ratio (y) = 0.32874 0.34651
# Poissons Ratio (z) = -0.04747 0.29405
#
# Static dielectric constant tensor:
#      x y z
#    x 2.346900 0.000000 0.016190 
#    y 0.000000 2.257330 0.000000 
#    z 0.016190 0.000000 2.236380 
# 
# From -- ./inp_files/38989.got.cif
#   From: 2010.05.17/outbox.cif.g08.bks.cpg/sg15_20_cif.got.tgz:38989.got - 2010.06.03 18:47:42.
