data_PCOD9278473
_publ_section_title
;
Structure prediction by ZEFSAII (Michael W. Deem and Ramdas Pophale) SiO2 
 PCOD9278473
Probable space group: C 2/C
;
_chemical_formula_sum "Si O2"
_cell_formula_units_Z 40
_cell_length_a 26.644515
_cell_length_b 5.094431
_cell_length_c 14.539188
_cell_angle_alpha 90.000000
_cell_angle_beta 64.244732
_cell_angle_gamma 90.000000
_cell_volume 1777.475844
_symmetry_space_group_name_H-M "C 2/C"
_symmetry_group_IT_number 15
_symmetry_cell_setting 'monoclinic'
loop_
_space_group_symop_operation_xyz
x,y,z
-x,y,1/2-z
-x,-y,-z
x,-y,1/2+z
1/2+x,1/2+y,z
1/2-x,1/2+y,1/2-z
1/2-x,1/2-y,-z
1/2+x,1/2-y,1/2+z
loop_
_atom_site_type_symbol
_atom_site_label
_atom_site_fract_x
_atom_site_fract_y
_atom_site_fract_z
Si Si1 0.321820 0.754264 0.000531
Si Si2 0.678613 0.873415 0.707829
Si Si3 0.439972 0.185763 0.111755
Si Si4 0.731376 0.254773 0.357736
Si Si5 0.941131 0.813846 0.483185
O O1 0.310369 0.763283 0.901718
O O2 0.388094 0.756340 0.964688
O O3 0.297874 0.497108 0.067682
O O4 0.293873 0.002665 0.072524
O O5 0.614248 0.828867 0.782166
O O6 0.712154 0.750022 0.766992
O O7 0.702967 0.172800 0.688191
O O8 0.498252 0.275223 0.110935
O O9 0.433121 0.399943 0.035061
O O10 0.443533 0.897676 0.064119
#
# Coordination Sequence:
#
# PCOD9278473 Si02
#       5
#     8   8   8   8   8
#     4  12  25  45  71 100 141 176 231 285 343 407
#     4  12  26  45  72  99 137 190 227 281 348 412
#     4  10  22  40  71  96 137 178 223 278 351 407
#     4  12  27  45  65 103 141 179 227 290 334 413
#     4  10  20  43  67 101 134 175 221 290 340 406
#
# _framework density 22.503820000000001
#
# number of rings (size 3 to 8) (size 9 to 14) (size 15 to 20)
#    0.000    0.800    4.000    2.400    0.000    7.200 
#    0.000    0.000    0.000    9.600    0.000    0.000 
#    0.000    0.000    0.000    0.000    0.000    0.000 
#
# Total GULP energy -111907.298748 kJ/mol
# GULP energy per Si atom -5595.364937 kJ/mol
# Density = 2.245260 g / cm^3
# Si number density = 22.503820 Si / 1000 Ang^3
#
#
#
# Elastic Constant Matrix: (Units=GPa)
#
#
# Indices 1 2 3 4 5 6 
#
# 1 166.3943 34.0448 76.8487 0.0000 -24.8265 0.0000
# 2 34.0448 131.5655 46.2175 -0.0001 -6.3711 0.0000
# 3 76.8487 46.2175 156.1425 0.0000 -6.3659 0.0000
# 4 0.0000 -0.0001 0.0000 21.1716 0.0000 -10.3572
# 5 -24.8265 -6.3711 -6.3659 0.0000 49.6214 0.0000
# 6 0.0000 0.0000 0.0000 -10.3572 0.0000 23.3845
#
#
#
# Elastic Compliance Matrix: (Units=1/GPa)
#
#
# Indices 1 2 3 4 5 6 
#
# 1 0.008453 -0.000671 -0.003813 0.000000 0.003654 0.000000
# 2 -0.000671 0.008566 -0.002185 0.000000 0.000484 0.000000
# 3 -0.003813 -0.002185 0.008885 0.000000 -0.001048 0.000000
# 4 0.000000 0.000000 0.000000 0.060298 0.000000 0.026707
# 5 0.003654 0.000484 -0.001048 0.000000 0.021908 0.000000
# 6 0.000000 0.000000 0.000000 0.026707 0.000000 0.054592
#
#
# Mechanical properties :
#
#
# Convention : Reuss Voigt Hill
#
# Bulk Modulus (GPa) = 79.58394 85.36937 82.47666
# Shear Modulus (GPa) = 27.74245 38.63492 33.18868
#
# Velocity S-wave (km/s) = 3.51492 4.14794 3.84448
# Velocity P-wave (km/s) = 7.20516 7.80759 7.51241
#
# Compressibility (1/GPa) = 0.01256535
#
# Stress axis : x y z
#
# Youngs Moduli (GPa) = 118.29762 116.74682 112.54816
#
# Poissons Ratio (x) = 0.07835 0.42913
# Poissons Ratio (y) = 0.07939 0.24596
# Poissons Ratio (z) = 0.45105 0.25513
#
# Static dielectric constant tensor:
#      x y z
#    x 1.890160 0.000000 -0.069210 
#    y 0.000000 1.871370 0.000000 
#    z -0.069210 0.000000 1.812030 
# 
# From -- ./inp_files/179582.got.cif
#   From: 2010.05.17/outbox.cif.g08.bks.cpg/sg15_90_cif.got.tgz:179582.got - 2010.06.03 18:47:42.
