data_PCOD9278191
_publ_section_title
;
Structure prediction by ZEFSAII (Michael W. Deem and Ramdas Pophale) SiO2 
 PCOD9278191
Probable space group: C 2/C
;
_chemical_formula_sum "Si O2"
_cell_formula_units_Z 48
_cell_length_a 7.045971
_cell_length_b 21.143712
_cell_length_c 16.332886
_cell_angle_alpha 90.000000
_cell_angle_beta 119.007192
_cell_angle_gamma 90.000000
_cell_volume 2128.011905
_symmetry_space_group_name_H-M "C 2/C"
_symmetry_group_IT_number 15
_symmetry_cell_setting 'monoclinic'
loop_
_space_group_symop_operation_xyz
x,y,z
-x,y,1/2-z
-x,-y,-z
x,-y,1/2+z
1/2+x,1/2+y,z
1/2-x,1/2+y,1/2-z
1/2-x,1/2-y,-z
1/2+x,1/2-y,1/2+z
loop_
_atom_site_type_symbol
_atom_site_label
_atom_site_fract_x
_atom_site_fract_y
_atom_site_fract_z
Si Si1 0.000000 0.753561 0.250000
Si Si2 0.916999 0.309242 0.013978
Si Si3 0.000000 0.572664 0.250000
Si Si4 0.109047 0.919913 0.976459
Si Si5 0.673283 0.837747 0.908918
Si Si6 0.303777 0.146437 0.771243
Si Si7 0.134025 0.973699 0.155094
O O1 0.177018 0.713298 0.336541
O O2 0.130192 0.798790 0.216224
O O3 0.073065 0.304555 0.967441
O O4 0.080258 0.333963 0.119633
O O5 0.750000 0.250000 0.000000
O O6 0.759409 0.368776 0.965600
O O7 0.003682 0.613786 0.332764
O O8 0.205100 0.528785 0.287743
O O9 0.892055 0.879690 0.958148
O O10 0.203388 0.943167 0.082738
O O11 0.073591 0.983514 0.914787
O O12 0.500000 0.145891 0.750000
O O13 0.172710 0.081263 0.729241
#
# Coordination Sequence:
#
# PCOD9278191 Si02
#       7
#     4   8   4   8   8   8   8
#     4  11  26  44  64  98 128 175 228 272 332 391
#     4  12  25  42  69 100 134 174 223 278 331 399
#     4   9  18  44  66  90 134 173 212 270 332 389
#     4  10  22  43  67  99 132 173 218 271 335 390
#     4  10  24  43  67  93 131 175 218 273 332 392
#     4  12  24  42  67  96 133 172 219 272 334 391
#     4  10  20  42  67  94 136 173 214 276 328 393
#
# _framework density 22.556263999999999
#
# number of rings (size 3 to 8) (size 9 to 14) (size 15 to 20)
#    0.000    1.333    2.500    2.000    2.333    1.333 
#    3.000   15.833    0.000    0.000    0.000    0.000 
#    0.000    0.000    0.000    0.000    0.000    0.000 
#
# Total GULP energy -133663.424225 kJ/mol
# GULP energy per Si atom -5569.309343 kJ/mol
# Density = 2.250492 g / cm^3
# Si number density = 22.556264 Si / 1000 Ang^3
#
#
#
# Elastic Constant Matrix: (Units=GPa)
#
#
# Indices 1 2 3 4 5 6 
#
# 1 64.7620 23.8246 14.4124 0.0000 -11.4759 0.0000
# 2 23.8246 137.4555 38.0105 0.0000 -8.1876 0.0000
# 3 14.4124 38.0105 99.3344 0.0000 -7.2081 0.0000
# 4 0.0000 0.0000 0.0000 50.6769 0.0000 63.2840
# 5 -11.4759 -8.1876 -7.2081 0.0000 17.2442 0.0000
# 6 0.0000 0.0000 0.0000 63.2840 0.0000 536.6174
#
#
#
# Elastic Compliance Matrix: (Units=1/GPa)
#
#
# Indices 1 2 3 4 5 6 
#
# 1 0.018407 -0.002267 -0.001023 0.000000 0.010746 0.000000
# 2 -0.002267 0.008534 -0.002838 0.000000 0.001357 0.000000
# 3 -0.001023 -0.002838 0.011503 0.000000 0.002780 0.000000
# 4 0.000000 0.000000 0.000000 0.023141 0.000000 -0.002729
# 5 0.010746 0.001357 0.002780 0.000000 0.066948 0.000000
# 6 0.000000 0.000000 0.000000 -0.002729 0.000000 0.002185
#
#
# Mechanical properties :
#
#
# Convention : Reuss Voigt Hill
#
# Bulk Modulus (GPa) = 38.18755 50.44966 44.31860
# Shear Modulus (GPa) = 32.95884 135.92799 84.44341
#
# Velocity S-wave (km/s) = 3.82669 7.77127 6.12520
# Velocity P-wave (km/s) = 6.04081 10.14584 8.34954
#
# Compressibility (1/GPa) = 0.02618655
#
# Stress axis : x y z
#
# Youngs Moduli (GPa) = 54.32668 117.18276 86.93253
#
# Poissons Ratio (x) = 0.26570 0.08896
# Poissons Ratio (y) = 0.12318 0.24672
# Poissons Ratio (z) = 0.05559 0.33257
#
# Static dielectric constant tensor:
#      x y z
#    x 1.792840 0.000000 -0.044530 
#    y 0.000000 1.999350 0.000000 
#    z -0.044530 0.000000 1.854570 
# 
# From -- ./inp_files/233638.got.cif
#   From: 2010.05.17/outbox.cif.g08.bks.cpg/sg15_117_cif.got.tgz:233638.got - 2010.06.03 18:47:42.
