data_PCOD9278404
_publ_section_title
;
Structure prediction by ZEFSAII (Michael W. Deem and Ramdas Pophale) SiO2 
 PCOD9278404
Probable space group: C 2/C
;
_chemical_formula_sum "Si O2"
_cell_formula_units_Z 44
_cell_length_a 17.951733
_cell_length_b 17.650365
_cell_length_c 5.491888
_cell_angle_alpha 90.000000
_cell_angle_beta 70.117662
_cell_angle_gamma 90.000000
_cell_volume 1636.406267
_symmetry_space_group_name_H-M "C 2/C"
_symmetry_group_IT_number 15
_symmetry_cell_setting 'monoclinic'
loop_
_space_group_symop_operation_xyz
x,y,z
-x,y,1/2-z
-x,-y,-z
x,-y,1/2+z
1/2+x,1/2+y,z
1/2-x,1/2+y,1/2-z
1/2-x,1/2-y,-z
1/2+x,1/2-y,1/2+z
loop_
_atom_site_type_symbol
_atom_site_label
_atom_site_fract_x
_atom_site_fract_y
_atom_site_fract_z
Si Si1 0.757148 0.961387 0.269256
Si Si2 0.000000 0.189756 0.250000
Si Si3 0.425625 0.426165 0.217406
Si Si4 0.854693 0.203071 0.107241
Si Si5 0.689457 0.162855 0.173037
Si Si6 0.532410 0.912534 0.964960
O O1 0.852720 0.963286 0.159377
O O2 0.726391 0.880070 0.394856
O O3 0.732063 0.013233 0.529023
O O4 0.963523 0.136818 0.500130
O O5 0.921047 0.228823 0.225531
O O6 0.500000 0.471017 0.250000
O O7 0.384175 0.377948 0.477639
O O8 0.762094 0.186714 0.267077
O O9 0.851046 0.262395 0.889582
O O10 0.624778 0.106115 0.353199
O O11 0.500000 0.878794 0.750000
O O12 0.500000 0.879813 0.250000
O O13 0.500000 0.000000 0.000000
#
# Coordination Sequence:
#
# PCOD9278404 Si02
#       6
#     8   4   8   8   8   8
#     4  11  27  43  70 104 142 198 245 299 365 442
#     4  10  20  42  78 104 148 178 244 310 388 450
#     4   9  21  41  67 101 145 181 240 305 368 447
#     4   9  21  46  71 112 141 196 249 317 382 452
#     4  10  23  47  74 103 156 193 257 310 384 449
#     4  10  24  45  71 104 147 196 251 310 372 451
#
# _framework density 26.888189000000001
#
# number of rings (size 3 to 8) (size 9 to 14) (size 15 to 20)
#    0.000    2.182    0.000    0.000   12.727    2.909 
#   13.091    2.727    0.000    0.000    0.000    0.000 
#    0.000    0.000    0.000    0.000    0.000    0.000 
#
# Total GULP energy -123063.180299 kJ/mol
# GULP energy per Si atom -5593.780923 kJ/mol
# Density = 2.682699 g / cm^3
# Si number density = 26.888189 Si / 1000 Ang^3
#
#
#
# Elastic Constant Matrix: (Units=GPa)
#
#
# Indices 1 2 3 4 5 6 
#
# 1 235.9827 68.2315 90.2217 0.0000 2.7220 0.0000
# 2 68.2315 101.2609 3.5221 0.0000 -8.4705 0.0000
# 3 90.2217 3.5221 102.6948 0.0000 0.5816 0.0000
# 4 0.0000 0.0000 0.0000 19.9692 0.0000 0.2590
# 5 2.7220 -8.4705 0.5816 0.0000 47.0547 0.0000
# 6 0.0000 0.0000 0.0000 0.2590 0.0000 47.9296
#
#
#
# Elastic Compliance Matrix: (Units=1/GPa)
#
#
# Indices 1 2 3 4 5 6 
#
# 1 0.008811 -0.005797 -0.007534 0.000000 -0.001460 0.000000
# 2 -0.005797 0.013853 0.004602 0.000000 0.002772 0.000000
# 3 -0.007534 0.004602 0.016192 0.000000 0.001064 0.000000
# 4 0.000000 0.000000 0.000000 0.050081 0.000000 -0.000271
# 5 -0.001460 0.002772 0.001064 0.000000 0.021822 0.000000
# 6 0.000000 0.000000 0.000000 -0.000271 0.000000 0.020865
#
#
# Mechanical properties :
#
#
# Convention : Reuss Voigt Hill
#
# Bulk Modulus (GPa) = 46.72996 84.87654 65.80325
# Shear Modulus (GPa) = 32.00716 41.52159 36.76437
#
# Velocity S-wave (km/s) = 3.45393 3.93393 3.70172
# Velocity P-wave (km/s) = 5.77263 7.22976 6.54189
#
# Compressibility (1/GPa) = 0.02139955
#
# Stress axis : x y z
#
# Youngs Moduli (GPa) = 113.49642 72.18424 61.75766
#
# Poissons Ratio (x) = 0.41845 0.46526
# Poissons Ratio (y) = 0.65794 -0.28421
# Poissons Ratio (z) = 0.85504 -0.33220
#
# Static dielectric constant tensor:
#      x y z
#    x 2.051640 0.000000 -0.034130 
#    y 0.000000 1.832630 0.000000 
#    z -0.034130 0.000000 2.089320 
# 
# From -- ./inp_files/10297.got.cif
#   From: 2010.05.17/outbox.cif.g08.bks.cpg/sg15_6_cif.got.tgz:10297.got - 2010.06.03 18:47:42.
