data_PCOD9278935
_publ_section_title
;
Structure prediction by ZEFSAII (Michael W. Deem and Ramdas Pophale) SiO2 
 PCOD9278935
Probable space group: C 2/C
;
_chemical_formula_sum "Si O2"
_cell_formula_units_Z 56
_cell_length_a 20.239040
_cell_length_b 10.116718
_cell_length_c 15.878524
_cell_angle_alpha 90.000000
_cell_angle_beta 100.576176
_cell_angle_gamma 90.000000
_cell_volume 3195.938349
_symmetry_space_group_name_H-M "C 2/C"
_symmetry_group_IT_number 15
_symmetry_cell_setting 'monoclinic'
loop_
_space_group_symop_operation_xyz
x,y,z
-x,y,1/2-z
-x,-y,-z
x,-y,1/2+z
1/2+x,1/2+y,z
1/2-x,1/2+y,1/2-z
1/2-x,1/2-y,-z
1/2+x,1/2-y,1/2+z
loop_
_atom_site_type_symbol
_atom_site_label
_atom_site_fract_x
_atom_site_fract_y
_atom_site_fract_z
Si Si1 0.683015 0.015832 0.913636
Si Si2 0.696296 0.750425 0.817629
Si Si3 0.877415 0.619461 0.344625
Si Si4 0.181413 0.254549 0.281667
Si Si5 0.738095 0.470687 0.898343
Si Si6 0.952231 0.347824 0.317854
Si Si7 0.049033 0.385159 0.477091
O O1 0.687019 0.865420 0.883850
O O2 0.693302 0.107799 0.834155
O O3 0.610240 0.053614 0.936180
O O4 0.738688 0.037399 0.999269
O O5 0.638801 0.778921 0.733932
O O6 0.763888 0.766836 0.778095
O O7 0.704999 0.609252 0.864082
O O8 0.807578 0.556523 0.363015
O O9 0.920837 0.493506 0.325778
O O10 0.915681 0.680525 0.434048
O O11 0.109710 0.255992 0.220511
O O12 0.189483 0.145109 0.355758
O O13 0.000000 0.358473 0.250000
O O14 0.998995 0.303632 0.406211
O O15 0.000000 0.500000 0.500000
#
# Coordination Sequence:
#
# PCOD9278935 Si02
#       7
#     8   8   8   8   8   8   8
#     4  11  20  36  56  86 110 143 190 229 278 323
#     4  11  19  35  55  81 116 143 182 230 278 331
#     4   9  18  33  52  80 109 138 185 223 281 312
#     4  11  20  34  54  81 112 148 183 221 279 330
#     4  10  21  33  52  82 118 143 171 229 283 335
#     4  11  17  32  55  79 104 141 189 228 261 316
#     4   9  19  32  56  87 109 136 183 245 266 310
#
# _framework density 17.522241000000001
#
# number of rings (size 3 to 8) (size 9 to 14) (size 15 to 20)
#    0.000    1.714    4.286    1.714    0.000    0.000 
#    0.000    0.000    0.000    5.143    0.000    0.000 
#    0.000    0.000    0.000    0.000    0.000    0.000 
#
# Total GULP energy -156008.703773 kJ/mol
# GULP energy per Si atom -5571.739420 kJ/mol
# Density = 1.748236 g / cm^3
# Si number density = 17.522241 Si / 1000 Ang^3
#
#
#
# Elastic Constant Matrix: (Units=GPa)
#
#
# Indices 1 2 3 4 5 6 
#
# 1 64.8776 2.6297 26.9751 0.0000 20.6221 0.0000
# 2 2.6297 46.9666 7.9220 0.0000 25.3157 0.0000
# 3 26.9751 7.9220 92.6623 0.0000 39.5544 0.0000
# 4 0.0000 0.0000 0.0000 11.9159 0.0000 10.2604
# 5 20.6221 25.3157 39.5544 0.0000 40.4567 0.0000
# 6 0.0000 0.0000 0.0000 10.2604 0.0000 14.3018
#
#
#
# Elastic Compliance Matrix: (Units=1/GPa)
#
#
# Indices 1 2 3 4 5 6 
#
# 1 0.019631 0.006183 -0.000550 0.000000 -0.013338 0.000000
# 2 0.006183 0.040588 0.011871 0.000000 -0.040156 0.000000
# 3 -0.000550 0.011871 0.022292 0.000000 -0.028943 0.000000
# 4 0.000000 0.000000 0.000000 0.219547 0.000000 -0.157508
# 5 -0.013338 -0.040156 -0.028943 0.000000 0.084941 0.000000
# 6 0.000000 0.000000 0.000000 -0.157508 0.000000 0.182921
#
#
# Mechanical properties :
#
#
# Convention : Reuss Voigt Hill
#
# Bulk Modulus (GPa) = 8.50926 31.06225 19.78575
# Shear Modulus (GPa) = 8.70952 24.46685 16.58819
#
# Velocity S-wave (km/s) = 2.23189 3.74081 3.08018
# Velocity P-wave (km/s) = 3.39243 6.03523 4.89554
#
# Compressibility (1/GPa) = 0.11751899
#
# Stress axis : x y z
#
# Youngs Moduli (GPa) = 50.93906 24.63797 44.85985
#
# Poissons Ratio (x) = -0.15233 0.02467
# Poissons Ratio (y) = -0.31495 -0.53254
# Poissons Ratio (z) = 0.02802 -0.29248
#
# Static dielectric constant tensor:
#      x y z
#    x 1.597010 0.000000 0.024160 
#    y 0.000000 1.579360 0.000000 
#    z 0.024160 0.000000 1.653580 
# 
# From -- ./inp_files/213465.got.cif
#   From: 2010.05.17/outbox.cif.g08.bks.cpg/sg15_107_cif.got.tgz:213465.got - 2010.06.03 18:47:42.
