data_PCOD9278347
_publ_section_title
;
Structure prediction by ZEFSAII (Michael W. Deem and Ramdas Pophale) SiO2 
 PCOD9278347
Probable space group: C 2/C
;
_chemical_formula_sum "Si O2"
_cell_formula_units_Z 56
_cell_length_a 18.572534
_cell_length_b 10.186660
_cell_length_c 11.395573
_cell_angle_alpha 90.000000
_cell_angle_beta 100.609121
_cell_angle_gamma 90.000000
_cell_volume 2119.098530
_symmetry_space_group_name_H-M "C 2/C"
_symmetry_group_IT_number 15
_symmetry_cell_setting 'monoclinic'
loop_
_space_group_symop_operation_xyz
x,y,z
-x,y,1/2-z
-x,-y,-z
x,-y,1/2+z
1/2+x,1/2+y,z
1/2-x,1/2+y,1/2-z
1/2-x,1/2-y,-z
1/2+x,1/2-y,1/2+z
loop_
_atom_site_type_symbol
_atom_site_label
_atom_site_fract_x
_atom_site_fract_y
_atom_site_fract_z
Si Si1 0.946985 0.611926 0.343426
Si Si2 0.931197 0.664886 0.972632
Si Si3 0.699123 0.197755 0.128637
Si Si4 0.580169 0.495231 0.814133
Si Si5 0.819359 0.485900 0.580559
Si Si6 0.865978 0.737845 0.724204
Si Si7 0.342303 0.510698 0.918574
O O1 0.944705 0.471349 0.406153
O O2 0.865399 0.664048 0.299983
O O3 0.000000 0.604307 0.250000
O O4 0.992129 0.704479 0.447712
O O5 0.894200 0.752887 0.864668
O O6 0.871000 0.629142 0.051329
O O7 0.781421 0.220825 0.192642
O O8 0.674969 0.334256 0.062757
O O9 0.696883 0.076073 0.039243
O O10 0.500000 0.542641 0.750000
O O11 0.581491 0.336635 0.828460
O O12 0.628033 0.515490 0.708195
O O13 0.611643 0.539171 0.951828
O O14 0.863666 0.589406 0.675246
O O15 0.739608 0.449257 0.604197
#
# Coordination Sequence:
#
# PCOD9278347 Si02
#       7
#     8   8   8   8   8   8   8
#     4  10  22  41  61  97 136 171 206 283 355 393
#     4  10  23  37  69 102 128 166 228 280 335 414
#     4  10  21  41  69  89 134 176 220 262 347 408
#     4  12  27  44  69  94 136 178 234 279 328 399
#     4  10  20  42  71  94 133 172 216 279 351 401
#     4  11  22  41  68  97 126 178 228 272 332 416
#     4  11  24  45  68  97 129 185 224 278 333 397
#
# _framework density 26.426331000000001
#
# number of rings (size 3 to 8) (size 9 to 14) (size 15 to 20)
#    0.000    1.429    2.857    2.143    6.000    3.429 
#    2.571    1.429    0.000    0.000    0.000    0.000 
#    0.000    0.000    0.000    0.000    0.000    0.000 
#
# Total GULP energy -156591.637282 kJ/mol
# GULP energy per Si atom -5592.558474 kJ/mol
# Density = 2.636618 g / cm^3
# Si number density = 26.426331 Si / 1000 Ang^3
#
#
#
# Elastic Constant Matrix: (Units=GPa)
#
#
# Indices 1 2 3 4 5 6 
#
# 1 112.5467 -10.1543 32.6187 0.0000 -8.6687 0.0000
# 2 -10.1543 36.2189 -0.9327 0.0000 0.5475 0.0000
# 3 32.6187 -0.9327 135.1847 0.0000 -9.0204 0.0000
# 4 0.0000 0.0000 0.0000 41.0892 0.0000 1.8579
# 5 -8.6687 0.5475 -9.0204 0.0000 55.3341 0.0000
# 6 0.0000 0.0000 0.0000 1.8579 0.0000 23.7380
#
#
#
# Elastic Compliance Matrix: (Units=1/GPa)
#
#
# Indices 1 2 3 4 5 6 
#
# 1 0.009880 0.002694 -0.002289 0.000000 0.001148 0.000000
# 2 0.002694 0.028353 -0.000450 0.000000 0.000068 0.000000
# 3 -0.002289 -0.000450 0.008010 0.000000 0.000952 0.000000
# 4 0.000000 0.000000 0.000000 0.024424 0.000000 -0.001912
# 5 0.001148 0.000068 0.000952 0.000000 0.018406 0.000000
# 6 0.000000 0.000000 0.000000 -0.001912 0.000000 0.042276
#
#
# Mechanical properties :
#
#
# Convention : Reuss Voigt Hill
#
# Bulk Modulus (GPa) = 21.66722 36.33485 29.00103
# Shear Modulus (GPa) = 34.05467 41.52681 37.79074
#
# Velocity S-wave (km/s) = 3.59369 3.96841 3.78569
# Velocity P-wave (km/s) = 5.04345 5.89721 5.48696
#
# Compressibility (1/GPa) = 0.04615266
#
# Stress axis : x y z
#
# Youngs Moduli (GPa) = 101.21474 35.27025 124.84496
#
# Poissons Ratio (x) = -0.09501 0.28574
# Poissons Ratio (y) = -0.27264 0.05615
# Poissons Ratio (z) = 0.23165 0.01586
#
# Static dielectric constant tensor:
#      x y z
#    x 2.025480 0.000000 0.016110 
#    y 0.000000 2.155470 0.000000 
#    z 0.016110 0.000000 2.175580 
# 
# From -- ./inp_files/111131.got.cif
#   From: 2010.05.17/outbox.cif.g08.bks.cpg/sg15_56_cif.got.tgz:111131.got - 2010.06.03 18:47:42.
