data_PCOD9278209
_publ_section_title
;
Structure prediction by ZEFSAII (Michael W. Deem and Ramdas Pophale) SiO2 
 PCOD9278209
Probable space group: C 2/C
;
_chemical_formula_sum "Si O2"
_cell_formula_units_Z 48
_cell_length_a 26.718071
_cell_length_b 13.274135
_cell_length_c 8.443798
_cell_angle_alpha 90.000000
_cell_angle_beta 139.572679
_cell_angle_gamma 90.000000
_cell_volume 1941.993330
_symmetry_space_group_name_H-M "C 2/C"
_symmetry_group_IT_number 15
_symmetry_cell_setting 'monoclinic'
loop_
_space_group_symop_operation_xyz
x,y,z
-x,y,1/2-z
-x,-y,-z
x,-y,1/2+z
1/2+x,1/2+y,z
1/2-x,1/2+y,1/2-z
1/2-x,1/2-y,-z
1/2+x,1/2-y,1/2+z
loop_
_atom_site_type_symbol
_atom_site_label
_atom_site_fract_x
_atom_site_fract_y
_atom_site_fract_z
Si Si1 0.000000 0.638972 0.750000
Si Si2 0.728229 0.213279 0.151285
Si Si3 0.301196 0.416684 0.286848
Si Si4 0.500000 0.719114 0.750000
Si Si5 0.145091 0.600528 0.232750
Si Si6 0.368377 0.618813 0.603874
Si Si7 0.100646 0.381616 0.178244
O O1 0.929650 0.674162 0.459797
O O2 0.942498 0.604422 0.755831
O O3 0.691522 0.322629 0.078206
O O4 0.699530 0.147168 0.231393
O O5 0.818165 0.207390 0.400054
O O6 0.688785 0.156695 0.911550
O O7 0.335383 0.517394 0.442969
O O8 0.208707 0.419103 0.023915
O O9 0.348248 0.391766 0.239988
O O10 0.454506 0.646070 0.761246
O O11 0.445264 0.796527 0.524349
O O12 0.105249 0.491645 0.113509
#
# Coordination Sequence:
#
# PCOD9278209 Si02
#       7
#     4   8   8   4   8   8   8
#     4  10  23  38  67 102 152 180 223 286 361 420
#     4  10  24  46  78 104 139 189 237 292 354 419
#     4  11  25  47  78 100 144 189 240 291 347 425
#     4  12  31  44  69 106 146 190 233 302 359 418
#     4  10  20  42  68 108 138 183 226 289 353 415
#     4  11  26  49  70 106 137 190 240 291 354 422
#     4  11  24  44  68 108 140 189 233 292 358 423
#
# _framework density 24.716871000000001
#
# number of rings (size 3 to 8) (size 9 to 14) (size 15 to 20)
#    0.000    1.333    1.667    3.000    9.333    5.333 
#    0.000    0.000    0.000    0.000    0.000    0.000 
#    0.000    0.000    0.000    0.000    0.000    0.000 
#
# Total GULP energy -133774.890675 kJ/mol
# GULP energy per Si atom -5573.953778 kJ/mol
# Density = 2.466061 g / cm^3
# Si number density = 24.716871 Si / 1000 Ang^3
#
#
#
# Elastic Constant Matrix: (Units=GPa)
#
#
# Indices 1 2 3 4 5 6 
#
# 1 129.8659 38.5357 7.7303 0.0000 7.2299 0.0000
# 2 38.5357 132.9616 12.5524 0.0000 -8.5040 0.0000
# 3 7.7303 12.5524 48.4163 0.0000 7.9168 0.0000
# 4 0.0000 0.0000 0.0000 18.1175 0.0000 3.2431
# 5 7.2299 -8.5040 7.9168 0.0000 31.9385 0.0000
# 6 0.0000 0.0000 0.0000 3.2431 0.0000 31.9371
#
#
#
# Elastic Compliance Matrix: (Units=1/GPa)
#
#
# Indices 1 2 3 4 5 6 
#
# 1 0.008646 -0.002646 -0.000270 0.000000 -0.002595 0.000000
# 2 -0.002646 0.008742 -0.002421 0.000000 0.003527 0.000000
# 3 -0.000270 -0.002421 0.022325 0.000000 -0.006117 0.000000
# 4 0.000000 0.000000 0.000000 0.056217 0.000000 -0.005709
# 5 -0.002595 0.003527 -0.006117 0.000000 0.034353 0.000000
# 6 0.000000 0.000000 0.000000 -0.005709 0.000000 0.031891
#
#
# Mechanical properties :
#
#
# Convention : Reuss Voigt Hill
#
# Bulk Modulus (GPa) = 34.43619 47.65339 41.04479
# Shear Modulus (GPa) = 27.39303 33.22698 30.31001
#
# Velocity S-wave (km/s) = 3.33268 3.67045 3.50564
# Velocity P-wave (km/s) = 5.36391 6.10610 5.74700
#
# Compressibility (1/GPa) = 0.02903922
#
# Stress axis : x y z
#
# Youngs Moduli (GPa) = 115.65988 114.39002 44.79255
#
# Poissons Ratio (x) = 0.30271 0.01210
# Poissons Ratio (y) = 0.30607 0.10843
# Poissons Ratio (z) = 0.03124 0.27689
#
# Static dielectric constant tensor:
#      x y z
#    x 1.994440 0.000000 0.005420 
#    y 0.000000 1.946600 0.000000 
#    z 0.005420 0.000000 2.091610 
# 
# From -- ./inp_files/66523.got.cif
#   From: 2010.05.17/outbox.cif.g08.bks.cpg/sg15_34_cif.got.tgz:66523.got - 2010.06.03 18:47:42.
