data_PCOD9278070
_publ_section_title
;
Structure prediction by ZEFSAII (Michael W. Deem and Ramdas Pophale) SiO2 
 PCOD9278070
Probable space group: C 2/C
;
_chemical_formula_sum "Si O2"
_cell_formula_units_Z 44
_cell_length_a 21.912575
_cell_length_b 14.084881
_cell_length_c 5.621892
_cell_angle_alpha 90.000000
_cell_angle_beta 96.779116
_cell_angle_gamma 90.000000
_cell_volume 1722.987416
_symmetry_space_group_name_H-M "C 2/C"
_symmetry_group_IT_number 15
_symmetry_cell_setting 'monoclinic'
loop_
_space_group_symop_operation_xyz
x,y,z
-x,y,1/2-z
-x,-y,-z
x,-y,1/2+z
1/2+x,1/2+y,z
1/2-x,1/2+y,1/2-z
1/2-x,1/2-y,-z
1/2+x,1/2-y,1/2+z
loop_
_atom_site_type_symbol
_atom_site_label
_atom_site_fract_x
_atom_site_fract_y
_atom_site_fract_z
Si Si1 0.770981 0.034627 0.368583
Si Si2 0.000000 0.847754 0.750000
Si Si3 0.407959 0.756940 0.554257
Si Si4 0.200097 0.223154 0.281798
Si Si5 0.886265 0.902929 0.427210
Si Si6 0.928149 0.460630 0.733735
O O1 0.770675 0.147764 0.387647
O O2 0.743944 0.991341 0.597331
O O3 0.840752 0.991545 0.372029
O O4 0.962127 0.777430 0.905490
O O5 0.952390 0.913065 0.580655
O O6 0.346539 0.788707 0.383305
O O7 0.394334 0.662314 0.699558
O O8 0.424742 0.846491 0.722981
O O9 0.250000 0.250000 0.500000
O O10 0.152070 0.162566 0.412911
O O11 0.902337 0.501298 0.471901
O O12 0.000000 0.489599 0.750000
#
# Coordination Sequence:
#
# PCOD9278070 Si02
#       6
#     8   4   8   8   8   8
#     4  10  20  42  65  95 132 174 219 271 334 396
#     4  10  22  36  66 102 132 178 222 268 332 418
#     4  11  22  41  65  95 135 175 227 273 341 401
#     4  10  23  42  67  95 127 178 225 280 333 395
#     4  10  21  39  68  96 136 179 219 273 337 407
#     4  10  23  38  62  92 130 174 219 275 335 396
#
# _framework density 25.537043000000001
#
# number of rings (size 3 to 8) (size 9 to 14) (size 15 to 20)
#    0.000    1.818    1.818    1.636    8.909    0.727 
#    0.000   11.818    0.000    0.000    0.000    0.000 
#    0.000    0.000    0.000    0.000    0.000    0.000 
#
# Total GULP energy -122958.519521 kJ/mol
# GULP energy per Si atom -5589.023615 kJ/mol
# Density = 2.547892 g / cm^3
# Si number density = 25.537043 Si / 1000 Ang^3
#
#
#
# Elastic Constant Matrix: (Units=GPa)
#
#
# Indices 1 2 3 4 5 6 
#
# 1 115.5841 14.2459 37.9430 0.0000 23.6139 0.0000
# 2 14.2459 71.3067 21.9853 0.0000 3.6549 0.0000
# 3 37.9430 21.9853 142.4452 0.0000 6.2589 0.0000
# 4 0.0000 0.0000 0.0000 49.2549 0.0000 12.4537
# 5 23.6139 3.6549 6.2589 0.0000 24.6539 0.0000
# 6 0.0000 0.0000 0.0000 12.4537 0.0000 17.6852
#
#
#
# Elastic Compliance Matrix: (Units=1/GPa)
#
#
# Indices 1 2 3 4 5 6 
#
# 1 0.011738 -0.001036 -0.002507 0.000000 -0.010453 0.000000
# 2 -0.001036 0.014881 -0.001990 0.000000 -0.000708 0.000000
# 3 -0.002507 -0.001990 0.007966 0.000000 0.000674 0.000000
# 4 0.000000 0.000000 0.000000 0.024700 0.000000 -0.017394
# 5 -0.010453 -0.000708 0.000674 0.000000 0.050507 0.000000
# 6 0.000000 0.000000 0.000000 -0.017394 0.000000 0.068793
#
#
# Mechanical properties :
#
#
# Convention : Reuss Voigt Hill
#
# Bulk Modulus (GPa) = 42.52084 53.07603 47.79844
# Shear Modulus (GPa) = 25.31769 35.32958 30.32364
#
# Velocity S-wave (km/s) = 3.15208 3.72353 3.44966
# Velocity P-wave (km/s) = 5.47122 6.27019 5.88428
#
# Compressibility (1/GPa) = 0.02351788
#
# Stress axis : x y z
#
# Youngs Moduli (GPa) = 85.19305 67.20122 125.53993
#
# Poissons Ratio (x) = 0.06963 0.31478
# Poissons Ratio (y) = 0.08828 0.24977
# Poissons Ratio (z) = 0.21362 0.13370
#
# Static dielectric constant tensor:
#      x y z
#    x 2.039460 0.000000 0.083640 
#    y 0.000000 1.988230 0.000000 
#    z 0.083640 0.000000 2.226400 
# 
# From -- ./inp_files/15137.got.cif
#   From: 2010.05.17/outbox.cif.g08.bks.cpg/sg15_8_cif.got.tgz:15137.got - 2010.06.03 18:47:42.
