data_PCOD9278668
_publ_section_title
;
Structure prediction by ZEFSAII (Michael W. Deem and Ramdas Pophale) SiO2 
 PCOD9278668
Probable space group: C 2/C
;
_chemical_formula_sum "Si O2"
_cell_formula_units_Z 48
_cell_length_a 27.233205
_cell_length_b 8.827663
_cell_length_c 14.660001
_cell_angle_alpha 90.000000
_cell_angle_beta 43.251736
_cell_angle_gamma 90.000000
_cell_volume 2414.899498
_symmetry_space_group_name_H-M "C 2/C"
_symmetry_group_IT_number 15
_symmetry_cell_setting 'monoclinic'
loop_
_space_group_symop_operation_xyz
x,y,z
-x,y,1/2-z
-x,-y,-z
x,-y,1/2+z
1/2+x,1/2+y,z
1/2-x,1/2+y,1/2-z
1/2-x,1/2-y,-z
1/2+x,1/2-y,1/2+z
loop_
_atom_site_type_symbol
_atom_site_label
_atom_site_fract_x
_atom_site_fract_y
_atom_site_fract_z
Si Si1 0.750000 0.250000 0.000000
Si Si2 0.454238 0.396973 0.632292
Si Si3 0.394940 0.608968 0.866818
Si Si4 0.038684 0.413561 0.030176
Si Si5 0.807661 0.286310 0.721530
Si Si6 0.338805 0.433072 0.643187
Si Si7 0.500000 0.877535 0.750000
O O1 0.684630 0.367170 0.062150
O O2 0.707566 0.203217 0.151018
O O3 0.500000 0.500000 0.500000
O O4 0.434390 0.484969 0.751710
O O5 0.497925 0.246174 0.594975
O O6 0.382420 0.368185 0.670281
O O7 0.438238 0.765737 0.797662
O O8 0.386510 0.579689 0.986446
O O9 0.030154 0.517376 0.129978
O O10 0.121948 0.380268 0.899432
O O11 0.000000 0.500000 0.000000
O O12 0.735910 0.345192 0.769123
O O13 0.822059 0.109974 0.680511
#
# Coordination Sequence:
#
# PCOD9278668 Si02
#       7
#     4   8   8   8   8   8   4
#     4  10  20  44  68  94 126 180 224 278 336 404
#     4  12  23  44  71 100 136 182 232 279 344 416
#     4  11  24  44  72  96 132 184 229 278 349 410
#     4  12  27  44  68 105 143 178 231 293 347 408
#     4  11  25  44  69 100 138 181 229 282 348 411
#     4  11  25  44  70  98 136 178 231 287 339 419
#     4  12  28  42  70 100 142 180 226 290 346 402
#
# _framework density 19.876604
#
# number of rings (size 3 to 8) (size 9 to 14) (size 15 to 20)
#    0.000    0.667    3.333    4.000    9.333    0.000 
#    0.000    0.833    0.000    0.000    0.000    0.000 
#    0.000    0.000    0.000    0.000    0.000    0.000 
#
# Total GULP energy -133705.341676 kJ/mol
# GULP energy per Si atom -5571.055903 kJ/mol
# Density = 1.983136 g / cm^3
# Si number density = 19.876604 Si / 1000 Ang^3
#
#
#
# Elastic Constant Matrix: (Units=GPa)
#
#
# Indices 1 2 3 4 5 6 
#
# 1 86.1602 18.6599 49.3132 0.0000 -1.2953 0.0000
# 2 18.6599 89.2506 68.3054 0.0000 1.2952 -0.0003
# 3 49.3132 68.3054 164.1713 0.0000 2.6461 -0.0001
# 4 0.0000 0.0000 0.0000 17.6532 0.0000 -2.3918
# 5 -1.2953 1.2952 2.6461 0.0000 19.6028 0.0000
# 6 0.0000 -0.0003 -0.0001 -2.3918 0.0000 31.1234
#
#
#
# Elastic Compliance Matrix: (Units=1/GPa)
#
#
# Indices 1 2 3 4 5 6 
#
# 1 0.014071 0.000425 -0.004427 0.000000 0.001499 0.000000
# 2 0.000425 0.016452 -0.006971 0.000000 -0.000118 0.000000
# 3 -0.004427 -0.006971 0.010341 0.000000 -0.001228 0.000000
# 4 0.000000 0.000000 0.000000 0.057243 0.000000 0.004399
# 5 0.001499 -0.000118 -0.001228 0.000000 0.051286 0.000000
# 6 0.000000 0.000000 0.000000 0.004399 0.000000 0.032468
#
#
# Mechanical properties :
#
#
# Convention : Reuss Voigt Hill
#
# Bulk Modulus (GPa) = 52.86159 68.01544 60.43851
# Shear Modulus (GPa) = 23.79661 27.22946 25.51303
#
# Velocity S-wave (km/s) = 3.46384 3.70527 3.58658
# Velocity P-wave (km/s) = 6.53071 7.25248 6.90104
#
# Compressibility (1/GPa) = 0.01891733
#
# Stress axis : x y z
#
# Youngs Moduli (GPa) = 71.06887 60.78203 96.70052
#
# Poissons Ratio (x) = -0.02582 0.42814
# Poissons Ratio (y) = -0.03019 0.67409
# Poissons Ratio (z) = 0.31466 0.42370
#
# Static dielectric constant tensor:
#      x y z
#    x 1.735760 0.000000 -0.013980 
#    y 0.000000 1.669870 0.000000 
#    z -0.013980 0.000000 1.672070 
# 
# From -- ./inp_files/176932.got.cif
#   From: 2010.05.17/outbox.cif.g08.bks.cpg/sg15_89_cif.got.tgz:176932.got - 2010.06.03 18:47:42.
