data_PCOD9278877
_publ_section_title
;
Structure prediction by ZEFSAII (Michael W. Deem and Ramdas Pophale) SiO2 
 PCOD9278877
Probable space group: C 2/C
;
_chemical_formula_sum "Si O2"
_cell_formula_units_Z 64
_cell_length_a 22.660579
_cell_length_b 24.343770
_cell_length_c 9.136608
_cell_angle_alpha 90.000000
_cell_angle_beta 46.527701
_cell_angle_gamma 90.000000
_cell_volume 3657.675685
_symmetry_space_group_name_H-M "C 2/C"
_symmetry_group_IT_number 15
_symmetry_cell_setting 'monoclinic'
loop_
_space_group_symop_operation_xyz
x,y,z
-x,y,1/2-z
-x,-y,-z
x,-y,1/2+z
1/2+x,1/2+y,z
1/2-x,1/2+y,1/2-z
1/2-x,1/2-y,-z
1/2+x,1/2-y,1/2+z
loop_
_atom_site_type_symbol
_atom_site_label
_atom_site_fract_x
_atom_site_fract_y
_atom_site_fract_z
Si Si1 0.821850 0.378878 0.564428
Si Si2 0.159696 0.741061 0.597516
Si Si3 0.120718 0.373184 0.537213
Si Si4 0.061140 0.571620 0.418913
Si Si5 0.367633 0.261363 0.178219
Si Si6 0.244030 0.165373 0.465418
Si Si7 0.031625 0.266092 0.550151
Si Si8 0.124623 0.454606 0.265287
O O1 0.840659 0.324238 0.438692
O O2 0.900611 0.387568 0.530964
O O3 0.749987 0.371602 0.807806
O O4 0.819600 0.430744 0.459025
O O5 0.250000 0.750000 0.500000
O O6 0.134312 0.771826 0.491717
O O7 0.099102 0.758345 0.829377
O O8 0.062854 0.400323 0.758026
O O9 0.201114 0.357190 0.493435
O O10 0.077304 0.320600 0.536434
O O11 0.140180 0.418160 0.381726
O O12 0.121137 0.519007 0.306315
O O13 0.970083 0.555811 0.616285
O O14 0.294558 0.218217 0.323892
O O15 0.340808 0.313088 0.323880
O O16 0.449896 0.231845 0.091918
O O17 0.000000 0.236222 0.750000
#
# Coordination Sequence:
#
# PCOD9278877 Si02
#       8
#     8   8   8   8   8   8   8   8
#     4  10  21  32  51  69 101 138 186 220 276 324
#     4  11  24  37  54  77 106 143 188 234 278 330
#     4  11  20  32  50  69  98 136 181 221 269 324
#     4  10  22  33  45  71 103 142 175 238 272 313
#     4  10  21  35  52  70 102 130 180 228 273 316
#     4   9  20  35  48  71  99 136 170 231 279 312
#     4  12  22  33  54  79 100 139 185 228 267 326
#     4  11  20  32  50  70 101 135 190 229 273 311
#
# _framework density 17.497451000000002
#
# number of rings (size 3 to 8) (size 9 to 14) (size 15 to 20)
#    0.000    1.500    2.500    3.375    7.000    4.000 
#    0.000    0.000    0.000    0.000    0.000    0.000 
#    0.000    0.000    0.000   20.250    1.000    1.750 
#
# Total GULP energy -178322.025558 kJ/mol
# GULP energy per Si atom -5572.563299 kJ/mol
# Density = 1.745763 g / cm^3
# Si number density = 17.497451 Si / 1000 Ang^3
#
#
#
# Elastic Constant Matrix: (Units=GPa)
#
#
# Indices 1 2 3 4 5 6 
#
# 1 60.3260 15.2950 39.3687 0.0000 17.1217 0.0000
# 2 15.2950 47.2146 25.1170 0.0000 3.6602 0.0000
# 3 39.3687 25.1170 115.7289 0.0000 17.9034 0.0000
# 4 0.0000 0.0000 0.0000 18.8693 0.0000 2.0783
# 5 17.1217 3.6602 17.9034 0.0000 25.2848 0.0000
# 6 0.0000 0.0000 0.0000 2.0783 0.0000 13.9751
#
#
#
# Elastic Compliance Matrix: (Units=1/GPa)
#
#
# Indices 1 2 3 4 5 6 
#
# 1 0.024752 -0.004067 -0.005655 0.000000 -0.012168 0.000000
# 2 -0.004067 0.024614 -0.004305 0.000000 0.002239 0.000000
# 3 -0.005655 -0.004305 0.012140 0.000000 -0.004143 0.000000
# 4 0.000000 0.000000 0.000000 0.053879 0.000000 -0.008013
# 5 -0.012168 0.002239 -0.004143 0.000000 0.050399 0.000000
# 6 0.000000 0.000000 0.000000 -0.008013 0.000000 0.072748
#
#
# Mechanical properties :
#
#
# Convention : Reuss Voigt Hill
#
# Bulk Modulus (GPa) = 29.89346 42.53678 36.21512
# Shear Modulus (GPa) = 18.00283 21.19176 19.59729
#
# Velocity S-wave (km/s) = 3.21110 3.48391 3.35028
# Velocity P-wave (km/s) = 5.55606 6.36762 5.97563
#
# Compressibility (1/GPa) = 0.03345213
#
# Stress axis : x y z
#
# Youngs Moduli (GPa) = 40.40145 40.62757 82.37277
#
# Poissons Ratio (x) = 0.16521 0.46582
# Poissons Ratio (y) = 0.16429 0.35462
# Poissons Ratio (z) = 0.22847 0.17490
#
# Static dielectric constant tensor:
#      x y z
#    x 1.623290 0.000000 0.044710 
#    y 0.000000 1.681050 0.000000 
#    z 0.044710 0.000000 1.677960 
# 
# From -- ./inp_files/59016.got.cif
#   From: 2010.05.17/outbox.cif.g08.bks.cpg/sg15_30_cif.got.tgz:59016.got - 2010.06.03 18:47:42.
