data_PCOD9278579
_publ_section_title
;
Structure prediction by ZEFSAII (Michael W. Deem and Ramdas Pophale) SiO2 
 PCOD9278579
Probable space group: C 2/C
;
_chemical_formula_sum "Si O2"
_cell_formula_units_Z 28
_cell_length_a 24.095140
_cell_length_b 11.632695
_cell_length_c 10.768230
_cell_angle_alpha 90.000000
_cell_angle_beta 157.880467
_cell_angle_gamma 90.000000
_cell_volume 1136.489329
_symmetry_space_group_name_H-M "C 2/C"
_symmetry_group_IT_number 15
_symmetry_cell_setting 'monoclinic'
loop_
_space_group_symop_operation_xyz
x,y,z
-x,y,1/2-z
-x,-y,-z
x,-y,1/2+z
1/2+x,1/2+y,z
1/2-x,1/2+y,1/2-z
1/2-x,1/2-y,-z
1/2+x,1/2-y,1/2+z
loop_
_atom_site_type_symbol
_atom_site_label
_atom_site_fract_x
_atom_site_fract_y
_atom_site_fract_z
Si Si1 0.067413 0.352332 0.253377
Si Si2 0.312131 0.088934 0.022773
Si Si3 0.000000 0.267736 0.750000
Si Si4 0.492787 0.636284 0.992005
O O1 0.000000 0.361121 0.250000
O O2 0.191468 0.450405 0.497270
O O3 0.940173 0.385061 0.889584
O O4 0.103068 0.219841 0.296134
O O5 0.367383 0.145123 0.009011
O O6 0.164106 0.147542 0.762845
O O7 0.999275 0.186251 0.629593
O O8 0.500000 0.500000 0.000000
#
# Coordination Sequence:
#
# PCOD9278579 Si02
#       4
#     8   8   4   8
#     4  10  21  42  68  97 125 175 226 264 333 402
#     4  10  22  43  70  94 131 174 220 275 331 390
#     4  10  20  44  62  90 132 172 216 274 330 380
#     4  11  26  42  64 102 135 172 219 275 336 398
#
# _framework density 24.637274999999999
#
# number of rings (size 3 to 8) (size 9 to 14) (size 15 to 20)
#    0.000    1.714    1.429    3.429    2.000    5.714 
#    0.000    2.857    0.000    0.000    0.000    0.000 
#    0.000    0.000    0.000    0.000    0.000    0.000 
#
# Total GULP energy -78210.878658 kJ/mol
# GULP energy per Si atom -5586.491333 kJ/mol
# Density = 2.458120 g / cm^3
# Si number density = 24.637275 Si / 1000 Ang^3
#
#
#
# Elastic Constant Matrix: (Units=GPa)
#
#
# Indices 1 2 3 4 5 6 
#
# 1 163.7297 66.6282 37.4222 0.0000 30.1460 0.0000
# 2 66.6282 254.8812 36.6052 0.0000 11.5498 0.0000
# 3 37.4222 36.6052 62.3955 0.0000 19.8506 0.0000
# 4 0.0000 0.0000 0.0000 -1.0841 0.0000 13.7209
# 5 30.1460 11.5498 19.8506 0.0000 29.8631 0.0000
# 6 0.0000 0.0000 0.0000 13.7209 0.0000 28.6161
#
#
#
# Elastic Compliance Matrix: (Units=1/GPa)
#
#
# Indices 1 2 3 4 5 6 
#
# 1 0.008433 -0.001617 -0.002029 0.000000 -0.006539 0.000000
# 2 -0.001617 0.004594 -0.002130 0.000000 0.001271 0.000000
# 3 -0.002029 -0.002130 0.022294 0.000000 -0.011947 0.000000
# 4 0.000000 0.000000 0.000000 -0.130497 0.000000 0.062571
# 5 -0.006539 0.001271 -0.011947 0.000000 0.047537 0.000000
# 6 0.000000 0.000000 0.000000 0.062571 0.000000 0.004944
#
#
# Mechanical properties :
#
#
# Convention : Reuss Voigt Hill
#
# Bulk Modulus (GPa) = 42.06952 84.70196 63.38574
# Shear Modulus (GPa) = -215.34292 34.16909 -90.58692
#
# Velocity S-wave (km/s) = -9.35922 3.72813 -6.07026
# Velocity P-wave (km/s) = 9.98403 7.27916 4.83191
#
# Compressibility (1/GPa) = 0.02377018
#
# Stress axis : x y z
#
# Youngs Moduli (GPa) = 118.57714 217.65833 44.85445
#
# Poissons Ratio (x) = 0.35191 0.09101
# Poissons Ratio (y) = 0.19172 0.09554
# Poissons Ratio (z) = 0.24060 0.46362
#
# Static dielectric constant tensor:
#      x y z
#    x 1.902670 0.000000 -0.004770 
#    y 0.000000 2.096760 0.000000 
#    z -0.004770 0.000000 1.964020 
# 
# From -- ./inp_files/75501.got.cif
#   From: 2010.05.17/outbox.cif.g08.bks.cpg/sg15_38_cif.got.tgz:75501.got - 2010.06.03 18:47:42.
