data_PCOD9278695
_publ_section_title
;
Structure prediction by ZEFSAII (Michael W. Deem and Ramdas Pophale) SiO2 
 PCOD9278695
Probable space group: C 2/C
;
_chemical_formula_sum "Si O2"
_cell_formula_units_Z 48
_cell_length_a 16.496001
_cell_length_b 8.016455
_cell_length_c 29.446239
_cell_angle_alpha 90.000000
_cell_angle_beta 143.958350
_cell_angle_gamma 90.000000
_cell_volume 2291.098417
_symmetry_space_group_name_H-M "C 2/C"
_symmetry_group_IT_number 15
_symmetry_cell_setting 'monoclinic'
loop_
_space_group_symop_operation_xyz
x,y,z
-x,y,1/2-z
-x,-y,-z
x,-y,1/2+z
1/2+x,1/2+y,z
1/2-x,1/2+y,1/2-z
1/2-x,1/2-y,-z
1/2+x,1/2-y,1/2+z
loop_
_atom_site_type_symbol
_atom_site_label
_atom_site_fract_x
_atom_site_fract_y
_atom_site_fract_z
Si Si1 0.048044 0.485151 0.074701
Si Si2 0.381288 0.697706 0.529940
Si Si3 0.000000 0.360468 0.250000
Si Si4 0.650321 0.402828 0.758531
Si Si5 0.077409 0.887051 0.624706
Si Si6 0.729655 0.903219 0.871206
Si Si7 0.500000 0.637763 0.750000
O O1 0.208383 0.530027 0.155877
O O2 0.025264 0.296314 0.083868
O O3 0.970441 0.633965 0.065858
O O4 0.000000 0.500000 0.000000
O O5 0.250000 0.750000 0.500000
O O6 0.465567 0.532637 0.582886
O O7 0.328286 0.644164 0.456408
O O8 0.903717 0.259303 0.240259
O O9 0.888255 0.463473 0.170610
O O10 0.658571 0.370712 0.708898
O O11 0.529120 0.530414 0.718396
O O12 0.178452 0.949240 0.630535
O O13 0.635254 0.746285 0.816716
#
# Coordination Sequence:
#
# PCOD9278695 Si02
#       7
#     8   8   4   8   8   8   4
#     4  12  27  48  75 104 146 192 238 299 363 429
#     4  12  28  47  70 103 148 188 243 297 359 428
#     4  10  26  40  74  98 144 180 236 296 356 424
#     4  11  25  45  69 106 138 185 239 293 358 429
#     4  12  27  45  75 105 141 190 241 295 361 429
#     4  11  23  44  69 104 138 188 235 293 361 428
#     4  10  20  44  70  96 144 176 236 292 360 416
#
# _framework density 20.950648000000001
#
# number of rings (size 3 to 8) (size 9 to 14) (size 15 to 20)
#    0.000    0.667    3.333    2.500    9.333    3.333 
#    0.000    0.000    0.000    0.000    0.000    0.000 
#    0.000    0.000    0.000    0.000    0.000    0.000 
#
# Total GULP energy -133949.987335 kJ/mol
# GULP energy per Si atom -5581.249472 kJ/mol
# Density = 2.090296 g / cm^3
# Si number density = 20.950648 Si / 1000 Ang^3
#
#
#
# Elastic Constant Matrix: (Units=GPa)
#
#
# Indices 1 2 3 4 5 6 
#
# 1 123.9607 42.4317 44.7310 0.0000 5.2557 0.0000
# 2 42.4317 141.9100 43.6253 0.0000 19.1290 0.0000
# 3 44.7310 43.6253 100.7959 0.0000 -7.4888 0.0000
# 4 0.0000 0.0000 0.0000 21.3713 0.0000 22.3964
# 5 5.2557 19.1290 -7.4888 0.0000 43.4910 0.0000
# 6 0.0000 0.0000 0.0000 22.3964 0.0000 -2.1195
#
#
#
# Elastic Compliance Matrix: (Units=1/GPa)
#
#
# Indices 1 2 3 4 5 6 
#
# 1 0.010072 -0.001682 -0.003826 0.000000 -0.001136 0.000000
# 2 -0.001682 0.009260 -0.003595 0.000000 -0.004488 0.000000
# 3 -0.003826 -0.003595 0.013499 0.000000 0.004368 0.000000
# 4 0.000000 0.000000 0.000000 0.003875 0.000000 0.040952
# 5 -0.001136 -0.004488 0.004368 0.000000 0.025857 0.000000
# 6 0.000000 0.000000 0.000000 0.040952 0.000000 -0.039077
#
#
# Mechanical properties :
#
#
# Convention : Reuss Voigt Hill
#
# Bulk Modulus (GPa) = 68.37560 69.80472 69.09016
# Shear Modulus (GPa) = 107.37447 28.27381 67.82414
#
# Velocity S-wave (km/s) = 7.16676 3.67760 5.69593
# Velocity P-wave (km/s) = 10.05935 7.17105 8.73540
#
# Compressibility (1/GPa) = 0.01462510
#
# Stress axis : x y z
#
# Youngs Moduli (GPa) = 99.28894 107.99382 74.07838
#
# Poissons Ratio (x) = 0.18167 0.28342
# Poissons Ratio (y) = 0.16702 0.26629
# Poissons Ratio (z) = 0.37987 0.38820
#
# Static dielectric constant tensor:
#      x y z
#    x 1.708750 0.000000 -0.026080 
#    y 0.000000 1.838430 0.000000 
#    z -0.026080 0.000000 1.727660 
# 
# From -- ./inp_files/224569.got.cif
#   From: 2010.05.17/outbox.cif.g08.bks.cpg/sg15_113_cif.got.tgz:224569.got - 2010.06.03 18:47:42.
