data_PCOD9278153
_publ_section_title
;
Structure prediction by ZEFSAII (Michael W. Deem and Ramdas Pophale) SiO2 
 PCOD9278153
Probable space group: C 2/C
;
_chemical_formula_sum "Si O2"
_cell_formula_units_Z 40
_cell_length_a 22.307557
_cell_length_b 10.831340
_cell_length_c 13.193301
_cell_angle_alpha 90.000000
_cell_angle_beta 142.224077
_cell_angle_gamma 90.000000
_cell_volume 1952.751185
_symmetry_space_group_name_H-M "C 2/C"
_symmetry_group_IT_number 15
_symmetry_cell_setting 'monoclinic'
loop_
_space_group_symop_operation_xyz
x,y,z
-x,y,1/2-z
-x,-y,-z
x,-y,1/2+z
1/2+x,1/2+y,z
1/2-x,1/2+y,1/2-z
1/2-x,1/2-y,-z
1/2+x,1/2-y,1/2+z
loop_
_atom_site_type_symbol
_atom_site_label
_atom_site_fract_x
_atom_site_fract_y
_atom_site_fract_z
Si Si1 0.010611 0.212364 0.626321
Si Si2 0.657773 0.616146 0.988978
Si Si3 0.346983 0.204709 0.355517
Si Si4 0.411123 0.058294 0.941851
Si Si5 0.738549 0.347439 0.075751
O O1 0.097470 0.179809 0.818574
O O2 0.062845 0.239798 0.588828
O O3 0.923489 0.112898 0.528159
O O4 0.954361 0.340928 0.574656
O O5 0.751882 0.690965 0.155438
O O6 0.694150 0.483379 0.996996
O O7 0.327505 0.288532 0.425156
O O8 0.359038 0.064076 0.412780
O O9 0.341668 0.127149 0.769157
O O10 0.500000 0.000000 0.000000
O O11 0.750000 0.250000 0.000000
#
# Coordination Sequence:
#
# PCOD9278153 Si02
#       5
#     8   8   8   8   8
#     4  10  20  42  66  97 129 159 225 267 318 394
#     4  10  22  40  65  99 131 170 215 269 331 383
#     4  10  21  41  68  93 130 178 212 269 326 386
#     4   9  20  43  65  91 124 168 218 261 322 383
#     4  11  24  44  61  93 137 172 217 267 325 390
#
# _framework density 20.483920000000001
#
# number of rings (size 3 to 8) (size 9 to 14) (size 15 to 20)
#    0.000    2.000    2.000    0.600    0.000    4.000 
#   36.000    0.000    0.000    0.000    0.000    0.000 
#    0.000    0.000    0.000    0.000    0.000    0.000 
#
# Total GULP energy -111393.381107 kJ/mol
# GULP energy per Si atom -5569.669055 kJ/mol
# Density = 2.043730 g / cm^3
# Si number density = 20.483920 Si / 1000 Ang^3
#
#
#
# Elastic Constant Matrix: (Units=GPa)
#
#
# Indices 1 2 3 4 5 6 
#
# 1 109.7871 32.5413 14.0593 0.0000 6.0010 0.0000
# 2 32.5413 86.5525 47.6550 0.0000 -12.0224 0.0000
# 3 14.0593 47.6550 66.3639 0.0000 5.9126 0.0000
# 4 0.0000 0.0000 0.0000 37.3820 0.0000 -0.5899
# 5 6.0010 -12.0224 5.9126 0.0000 23.4593 0.0000
# 6 0.0000 0.0000 0.0000 -0.5899 0.0000 38.3485
#
#
#
# Elastic Compliance Matrix: (Units=1/GPa)
#
#
# Indices 1 2 3 4 5 6 
#
# 1 0.011174 -0.007072 0.003364 0.000000 -0.007330 0.000000
# 2 -0.007072 0.028990 -0.021282 0.000000 0.022029 0.000000
# 3 0.003364 -0.021282 0.031391 0.000000 -0.019679 0.000000
# 4 0.000000 0.000000 0.000000 0.026757 0.000000 0.000412
# 5 -0.007330 0.022029 -0.019679 0.000000 0.060752 0.000000
# 6 0.000000 0.000000 0.000000 0.000412 0.000000 0.026083
#
#
# Mechanical properties :
#
#
# Convention : Reuss Voigt Hill
#
# Bulk Modulus (GPa) = 46.34697 50.13495 48.24096
# Shear Modulus (GPa) = 20.63399 31.06781 25.85090
#
# Velocity S-wave (km/s) = 3.17728 3.89870 3.55633
# Velocity P-wave (km/s) = 6.01127 6.69290 6.36122
#
# Compressibility (1/GPa) = 0.02157638
#
# Stress axis : x y z
#
# Youngs Moduli (GPa) = 89.48957 34.49484 31.85609
#
# Poissons Ratio (x) = 0.24393 -0.10715
# Poissons Ratio (y) = 0.63283 0.67795
# Poissons Ratio (z) = -0.30102 0.73411
#
# Static dielectric constant tensor:
#      x y z
#    x 1.755970 0.000000 0.032420 
#    y 0.000000 1.797360 0.000000 
#    z 0.032420 0.000000 1.714070 
# 
# From -- ./inp_files/172150.got.cif
#   From: 2010.05.17/outbox.cif.g08.bks.cpg/sg15_87_cif.got.tgz:172150.got - 2010.06.03 18:47:42.
