data_PCOD9278676
_publ_section_title
;
Structure prediction by ZEFSAII (Michael W. Deem and Ramdas Pophale) SiO2 
 PCOD9278676
Probable space group: C 2/C
;
_chemical_formula_sum "Si O2"
_cell_formula_units_Z 64
_cell_length_a 16.333660
_cell_length_b 16.337877
_cell_length_c 12.238132
_cell_angle_alpha 90.000000
_cell_angle_beta 91.296371
_cell_angle_gamma 90.000000
_cell_volume 3264.999297
_symmetry_space_group_name_H-M "C 2/C"
_symmetry_group_IT_number 15
_symmetry_cell_setting 'monoclinic'
loop_
_space_group_symop_operation_xyz
x,y,z
-x,y,1/2-z
-x,-y,-z
x,-y,1/2+z
1/2+x,1/2+y,z
1/2-x,1/2+y,1/2-z
1/2-x,1/2-y,-z
1/2+x,1/2-y,1/2+z
loop_
_atom_site_type_symbol
_atom_site_label
_atom_site_fract_x
_atom_site_fract_y
_atom_site_fract_z
Si Si1 0.205099 0.976647 0.058596
Si Si2 0.883174 0.277710 0.991507
Si Si3 0.629987 0.957390 0.034751
Si Si4 0.571372 0.392261 0.909076
Si Si5 0.747718 0.691628 0.661576
Si Si6 0.015751 0.416392 0.627027
Si Si7 0.891729 0.118083 0.343325
Si Si8 0.692436 0.778524 0.097331
O O1 0.214342 0.899806 0.140243
O O2 0.180157 0.058446 0.120847
O O3 0.133135 0.952812 0.971991
O O4 0.289563 0.992870 0.998166
O O5 0.926159 0.192990 0.025283
O O6 0.833317 0.305268 0.097721
O O7 0.813684 0.254758 0.900011
O O8 0.944100 0.344859 0.945197
O O9 0.655455 0.867402 0.073315
O O10 0.579863 0.008508 0.123212
O O11 0.567883 0.946555 0.931543
O O12 0.603326 0.378031 0.787132
O O13 0.477213 0.417369 0.891585
O O14 0.758876 0.714489 0.787206
O O15 0.000000 0.389454 0.750000
O O16 0.875464 0.208563 0.387878
O O17 0.750000 0.750000 0.000000
#
# Coordination Sequence:
#
# PCOD9278676 Si02
#       8
#     8   8   8   8   8   8   8   8
#     4  11  23  42  68  93 133 172 226 268 326 402
#     4  10  20  44  69  92 129 173 225 267 328 404
#     4  11  26  42  61  98 135 176 217 274 339 394
#     4  10  23  42  66  99 126 176 218 275 330 397
#     4  10  23  40  69  97 124 175 222 271 331 398
#     4  11  26  43  68  98 134 175 223 277 335 401
#     4  11  23  41  68  94 131 172 221 274 337 394
#     4  12  25  41  65 101 134 171 223 281 332 391
#
# _framework density 19.601842000000001
#
# number of rings (size 3 to 8) (size 9 to 14) (size 15 to 20)
#    0.000    1.250    3.750    1.125    5.250    0.000 
#    2.250    0.000    5.500    0.000    0.000    0.000 
#    0.000    0.000    0.000    0.000    0.000    0.000 
#
# Total GULP energy -178823.548393 kJ/mol
# GULP energy per Si atom -5588.235887 kJ/mol
# Density = 1.955723 g / cm^3
# Si number density = 19.601842 Si / 1000 Ang^3
#
#
#
# Elastic Constant Matrix: (Units=GPa)
#
#
# Indices 1 2 3 4 5 6 
#
# 1 69.8836 17.2745 43.6286 0.0000 2.1794 0.0000
# 2 17.2745 81.2488 22.8194 0.0000 -1.7022 0.0000
# 3 43.6286 22.8194 117.0976 0.0000 -4.5974 0.0000
# 4 0.0000 0.0000 0.0000 18.3786 0.0000 -3.2739
# 5 2.1794 -1.7022 -4.5974 0.0000 17.8081 0.0000
# 6 0.0000 0.0000 0.0000 -3.2739 0.0000 28.7734
#
#
#
# Elastic Compliance Matrix: (Units=1/GPa)
#
#
# Indices 1 2 3 4 5 6 
#
# 1 0.019333 -0.002254 -0.006935 0.000000 -0.004372 0.000000
# 2 -0.002254 0.013290 -0.001707 0.000000 0.001106 0.000000
# 3 -0.006935 -0.001707 0.011601 0.000000 0.003681 0.000000
# 4 0.000000 0.000000 0.000000 0.055537 0.000000 0.006319
# 5 -0.004372 0.001106 0.003681 0.000000 0.057745 0.000000
# 6 0.000000 0.000000 0.000000 0.006319 0.000000 0.035473
#
#
# Mechanical properties :
#
#
# Convention : Reuss Voigt Hill
#
# Bulk Modulus (GPa) = 44.58083 48.40832 46.49458
# Shear Modulus (GPa) = 22.49737 25.29251 23.89494
#
# Velocity S-wave (km/s) = 3.39147 3.59599 3.49523
# Velocity P-wave (km/s) = 6.17484 6.48004 6.32928
#
# Compressibility (1/GPa) = 0.02243117
#
# Stress axis : x y z
#
# Youngs Moduli (GPa) = 51.72529 75.24686 86.19948
#
# Poissons Ratio (x) = 0.16962 0.59784
# Poissons Ratio (y) = 0.11660 0.14710
# Poissons Ratio (z) = 0.35874 0.12841
#
# Static dielectric constant tensor:
#      x y z
#    x 1.685170 0.000000 0.010890 
#    y 0.000000 1.685570 0.000000 
#    z 0.010890 0.000000 1.654730 
# 
# From -- ./inp_files/105726.got.cif
#   From: 2010.05.17/outbox.cif.g08.bks.cpg/sg15_53_cif.got.tgz:105726.got - 2010.06.03 18:47:42.
