data_PCOD9278466
_publ_section_title
;
Structure prediction by ZEFSAII (Michael W. Deem and Ramdas Pophale) SiO2 
 PCOD9278466
Probable space group: C 2/C
;
_chemical_formula_sum "Si O2"
_cell_formula_units_Z 56
_cell_length_a 22.886331
_cell_length_b 25.220203
_cell_length_c 14.886782
_cell_angle_alpha 90.000000
_cell_angle_beta 19.923451
_cell_angle_gamma 90.000000
_cell_volume 2928.058652
_symmetry_space_group_name_H-M "C 2/C"
_symmetry_group_IT_number 15
_symmetry_cell_setting 'monoclinic'
loop_
_space_group_symop_operation_xyz
x,y,z
-x,y,1/2-z
-x,-y,-z
x,-y,1/2+z
1/2+x,1/2+y,z
1/2-x,1/2+y,1/2-z
1/2-x,1/2-y,-z
1/2+x,1/2-y,1/2+z
loop_
_atom_site_type_symbol
_atom_site_label
_atom_site_fract_x
_atom_site_fract_y
_atom_site_fract_z
Si Si1 0.619624 0.533501 0.257144
Si Si2 0.335120 0.809337 0.075935
Si Si3 0.500000 0.710617 0.750000
Si Si4 0.797335 0.651106 0.430173
Si Si5 0.823527 0.950542 0.485187
Si Si6 0.606729 0.618483 0.005610
Si Si7 0.000000 0.514287 0.750000
Si Si8 0.860693 0.522775 0.632608
O O1 0.500000 0.500000 0.500000
O O2 0.642872 0.498621 0.132480
O O3 0.515618 0.586754 0.386508
O O4 0.819545 0.544226 0.993268
O O5 0.298369 0.843229 0.037220
O O6 0.181336 0.826489 0.361932
O O7 0.372187 0.749734 0.990239
O O8 0.515763 0.824999 0.860903
O O9 0.632700 0.680894 0.625195
O O10 0.793579 0.592330 0.394132
O O11 0.000000 0.921457 0.250000
O O12 0.774640 0.975886 0.651549
O O13 0.500000 0.624280 0.250000
O O14 0.767014 0.577760 0.787411
O O15 0.057791 0.479009 0.582530
O O16 0.000000 0.500000 0.500000
#
# Coordination Sequence:
#
# PCOD9278466 Si02
#       8
#     8   8   4   8   8   8   4   8
#     4  12  22  36  55  85 125 168 209 248 291 360
#     4  10  22  36  63  91 117 152 205 249 309 375
#     4  10  20  43  66  96 122 142 190 273 332 366
#     4  10  21  37  65  94 120 149 197 259 321 365
#     4  12  20  35  54  84 122 166 194 244 306 356
#     4  12  22  39  56  84 124 166 207 248 293 366
#     4  12  24  35  60  78 118 176 212 257 300 338
#     4  12  22  36  54  82 121 163 207 247 292 355
#
# _framework density 19.125301
#
# number of rings (size 3 to 8) (size 9 to 14) (size 15 to 20)
#    0.000    0.857    6.429    3.429    0.000    0.571 
#    0.000    0.000    0.000    3.429    1.857    0.000 
#    0.000    0.000    0.000    0.000    0.000    0.000 
#
# Total GULP energy -155916.433154 kJ/mol
# GULP energy per Si atom -5568.444041 kJ/mol
# Density = 1.908177 g / cm^3
# Si number density = 19.125301 Si / 1000 Ang^3
#
#
#
# Elastic Constant Matrix: (Units=GPa)
#
#
# Indices 1 2 3 4 5 6 
#
# 1 85.2421 22.8526 46.8454 -0.0091 -8.2369 -0.0009
# 2 22.8526 61.2938 27.4090 -0.0145 1.2462 -0.0005
# 3 46.8454 27.4090 126.4360 -0.0352 8.1709 0.0191
# 4 -0.0091 -0.0145 -0.0352 24.4436 0.0214 -13.0138
# 5 -8.2369 1.2462 8.1709 0.0214 54.2538 -0.0043
# 6 -0.0009 -0.0005 0.0191 -13.0138 -0.0043 15.7351
#
#
#
# Elastic Compliance Matrix: (Units=1/GPa)
#
#
# Indices 1 2 3 4 5 6 
#
# 1 0.015959 -0.003629 -0.005340 -0.000004 0.003311 0.000005
# 2 -0.003629 0.018893 -0.002714 0.000015 -0.000576 0.000016
# 3 -0.005340 -0.002714 0.010628 0.000011 -0.002349 -0.000005
# 4 -0.000004 0.000015 0.000011 0.073097 -0.000027 0.060455
# 5 0.003311 -0.000576 -0.002349 -0.000027 0.019301 -0.000014
# 6 0.000005 0.000016 -0.000005 0.060455 -0.000014 0.113551
#
#
# Mechanical properties :
#
#
# Convention : Reuss Voigt Hill
#
# Bulk Modulus (GPa) = 45.22125 51.90955 48.56540
# Shear Modulus (GPa) = 17.72002 30.61084 24.16543
#
# Velocity S-wave (km/s) = 3.04719 4.00502 3.55848
# Velocity P-wave (km/s) = 6.00637 6.97048 6.50631
#
# Compressibility (1/GPa) = 0.02211350
#
# Stress axis : x y z
#
# Youngs Moduli (GPa) = 62.66119 52.92888 94.09328
#
# Poissons Ratio (x) = 0.19210 0.50246
# Poissons Ratio (y) = 0.22742 0.25534
# Poissons Ratio (z) = 0.33461 0.14364
#
# Static dielectric constant tensor:
#      x y z
#    x 1.849560 -0.000050 -0.377320 
#    y -0.000050 1.676230 0.000100 
#    z -0.377320 0.000100 2.647970 
# 
# From -- ./inp_files/174866.got.cif
#   From: 2010.05.17/outbox.cif.g08.bks.cpg/sg15_88_cif.got.tgz:174866.got - 2010.06.03 18:47:42.
