data_PCOD9278962
_publ_section_title
;
Structure prediction by ZEFSAII (Michael W. Deem and Ramdas Pophale) SiO2 
 PCOD9278962
Probable space group: C 2/C
;
_chemical_formula_sum "Si O2"
_cell_formula_units_Z 56
_cell_length_a 21.855899
_cell_length_b 20.794328
_cell_length_c 12.704727
_cell_angle_alpha 90.000000
_cell_angle_beta 153.227719
_cell_angle_gamma 90.000000
_cell_volume 2600.885988
_symmetry_space_group_name_H-M "C 2/C"
_symmetry_group_IT_number 15
_symmetry_cell_setting 'monoclinic'
loop_
_space_group_symop_operation_xyz
x,y,z
-x,y,1/2-z
-x,-y,-z
x,-y,1/2+z
1/2+x,1/2+y,z
1/2-x,1/2+y,1/2-z
1/2-x,1/2-y,-z
1/2+x,1/2-y,1/2+z
loop_
_atom_site_type_symbol
_atom_site_label
_atom_site_fract_x
_atom_site_fract_y
_atom_site_fract_z
Si Si1 0.662034 0.008152 0.736022
Si Si2 0.131438 0.379126 0.020717
Si Si3 0.876157 0.419030 0.127657
Si Si4 0.428490 0.315030 0.746380
Si Si5 0.386545 0.810798 0.299770
Si Si6 0.151985 0.942090 0.630852
Si Si7 0.093642 0.914309 0.130067
O O1 0.667747 0.064843 0.659507
O O2 0.697460 0.031911 0.906383
O O3 0.500000 0.000000 0.500000
O O4 0.765546 0.955361 0.850177
O O5 0.099190 0.322804 0.054432
O O6 0.264806 0.375406 0.152897
O O7 0.000000 0.393227 0.750000
O O8 0.943948 0.364662 0.306496
O O9 0.000000 0.448076 0.250000
O O10 0.758381 0.401018 0.864852
O O11 0.500000 0.292659 0.750000
O O12 0.437398 0.258947 0.845758
O O13 0.271770 0.320297 0.473590
O O14 0.500889 0.379416 0.898344
O O15 0.001622 0.913050 0.412606
O O16 0.127945 0.012805 0.647058
#
# Coordination Sequence:
#
# PCOD9278962 Si02
#       7
#     8   8   8   8   8   8   8
#     4  10  21  33  56  89 120 164 209 253 310 378
#     4  10  22  40  63  84 120 165 215 254 320 394
#     4  11  20  35  58  89 129 163 207 264 319 379
#     4  11  20  38  64  92 125 153 213 274 326 383
#     4  10  22  37  62  96 116 161 213 270 328 378
#     4  10  21  36  56  88 126 164 207 251 318 384
#     4  10  21  37  60  85 122 167 203 257 318 382
#
# _framework density 21.531123000000001
#
# number of rings (size 3 to 8) (size 9 to 14) (size 15 to 20)
#    0.000    1.714    4.286    0.429    4.000    0.000 
#    0.000    2.857    0.000    1.714    0.000    0.000 
#    0.000    0.000    0.000    0.000    0.000    0.000 
#
# Total GULP energy -155992.957508 kJ/mol
# GULP energy per Si atom -5571.177054 kJ/mol
# Density = 2.148212 g / cm^3
# Si number density = 21.531123 Si / 1000 Ang^3
#
#
#
# Elastic Constant Matrix: (Units=GPa)
#
#
# Indices 1 2 3 4 5 6 
#
# 1 144.2374 14.6249 39.5747 0.0000 25.5413 0.0000
# 2 14.6249 38.2599 11.5381 0.0000 -4.8562 0.0000
# 3 39.5747 11.5381 63.3101 0.0000 8.6106 0.0000
# 4 0.0000 0.0000 0.0000 19.4606 0.0000 -2.7617
# 5 25.5413 -4.8562 8.6106 0.0000 31.8043 0.0000
# 6 0.0000 0.0000 0.0000 -2.7617 0.0000 16.0979
#
#
#
# Elastic Compliance Matrix: (Units=1/GPa)
#
#
# Indices 1 2 3 4 5 6 
#
# 1 0.009771 -0.003268 -0.004545 0.000000 -0.007116 0.000000
# 2 -0.003268 0.029821 -0.004535 0.000000 0.008405 0.000000
# 3 -0.004545 -0.004535 0.019789 0.000000 -0.002400 0.000000
# 4 0.000000 0.000000 0.000000 0.052668 0.000000 0.009036
# 5 -0.007116 0.008405 -0.002400 0.000000 0.039090 0.000000
# 6 0.000000 0.000000 0.000000 0.009036 0.000000 0.063670
#
#
# Mechanical properties :
#
#
# Convention : Reuss Voigt Hill
#
# Bulk Modulus (GPa) = 28.83028 41.92032 35.37530
# Shear Modulus (GPa) = 19.91503 25.47720 22.69611
#
# Velocity S-wave (km/s) = 3.04458 3.44361 3.25022
# Velocity P-wave (km/s) = 5.07725 5.94333 5.52728
#
# Compressibility (1/GPa) = 0.03468575
#
# Stress axis : x y z
#
# Youngs Moduli (GPa) = 102.34048 33.53373 50.53274
#
# Poissons Ratio (x) = 0.10958 0.22965
# Poissons Ratio (y) = 0.33442 0.22918
# Poissons Ratio (z) = 0.46510 0.15209
#
# Static dielectric constant tensor:
#      x y z
#    x 1.855550 0.000000 0.038750 
#    y 0.000000 1.850900 0.000000 
#    z 0.038750 0.000000 1.790080 
# 
# From -- ./inp_files/114752.got.cif
#   From: 2010.05.17/outbox.cif.g08.bks.cpg/sg15_58_cif.got.tgz:114752.got - 2010.06.03 18:47:42.
