data_PCOD9278520
_publ_section_title
;
Structure prediction by ZEFSAII (Michael W. Deem and Ramdas Pophale) SiO2 
 PCOD9278520
Probable space group: C 2/C
;
_chemical_formula_sum "Si O2"
_cell_formula_units_Z 48
_cell_length_a 21.401529
_cell_length_b 9.312573
_cell_length_c 21.619143
_cell_angle_alpha 90.000000
_cell_angle_beta 155.920347
_cell_angle_gamma 90.000000
_cell_volume 1758.003763
_symmetry_space_group_name_H-M "C 2/C"
_symmetry_group_IT_number 15
_symmetry_cell_setting 'monoclinic'
loop_
_space_group_symop_operation_xyz
x,y,z
-x,y,1/2-z
-x,-y,-z
x,-y,1/2+z
1/2+x,1/2+y,z
1/2-x,1/2+y,1/2-z
1/2-x,1/2-y,-z
1/2+x,1/2-y,1/2+z
loop_
_atom_site_type_symbol
_atom_site_label
_atom_site_fract_x
_atom_site_fract_y
_atom_site_fract_z
Si Si1 0.920080 0.882094 0.975431
Si Si2 0.137525 0.743492 0.455849
Si Si3 0.840387 0.672484 0.347329
Si Si4 0.020329 0.529106 0.915022
Si Si5 0.461262 0.548611 0.126576
Si Si6 0.139213 0.302805 0.330329
O O1 0.817331 0.792421 0.933506
O O2 0.827172 0.853142 0.829593
O O3 0.944131 0.025200 0.037298
O O4 0.088295 0.822365 0.111243
O O5 0.250000 0.750000 0.500000
O O6 0.080862 0.583527 0.418387
O O7 0.026650 0.880845 0.342852
O O8 0.938475 0.565692 0.392578
O O9 0.898474 0.625390 0.769511
O O10 0.132133 0.629309 0.056784
O O11 0.303906 0.636899 0.000783
O O12 0.600577 0.636113 0.281512
O O13 0.000000 0.348478 0.250000
#
# Coordination Sequence:
#
# PCOD9278520 Si02
#       6
#     8   8   8   8   8   8
#     4   9  21  43  68 103 143 187 239 304 364 437
#     4   9  19  42  71 103 137 182 251 299 364 438
#     4  10  20  43  70 101 142 181 247 298 363 438
#     4  10  21  39  74  99 134 198 232 298 371 426
#     4  10  24  44  65 101 141 186 240 290 372 432
#     4  12  24  45  66  99 147 190 237 299 370 438
#
# _framework density 27.303697
#
# number of rings (size 3 to 8) (size 9 to 14) (size 15 to 20)
#    1.000    1.000    1.667    1.500    0.000    1.333 
#   12.000    4.167    0.000    0.000    0.000    0.000 
#    0.000    0.000    0.000    0.000    0.000    0.000 
#
# Total GULP energy -133956.096971 kJ/mol
# GULP energy per Si atom -5581.504040 kJ/mol
# Density = 2.724155 g / cm^3
# Si number density = 27.303697 Si / 1000 Ang^3
#
#
#
# Elastic Constant Matrix: (Units=GPa)
#
#
# Indices 1 2 3 4 5 6 
#
# 1 131.9210 60.8378 69.0353 0.0000 21.8909 0.0000
# 2 60.8378 140.5562 42.2084 -0.0001 -3.9597 -0.0001
# 3 69.0353 42.2084 137.4087 -0.0002 -26.7551 -0.0001
# 4 0.0000 -0.0001 -0.0002 28.7867 -0.0001 11.8393
# 5 21.8909 -3.9597 -26.7551 -0.0001 38.0406 -0.0001
# 6 0.0000 -0.0001 -0.0001 11.8393 -0.0001 78.1769
#
#
#
# Elastic Compliance Matrix: (Units=1/GPa)
#
#
# Indices 1 2 3 4 5 6 
#
# 1 0.020185 -0.005569 -0.012520 0.000000 -0.021001 0.000000
# 2 -0.005569 0.009408 0.000837 0.000000 0.004773 0.000000
# 3 -0.012520 0.000837 0.017067 0.000000 0.019296 0.000000
# 4 0.000000 0.000000 0.000000 0.037046 0.000000 -0.005610
# 5 -0.021001 0.004773 0.019296 0.000000 0.052441 0.000000
# 6 0.000000 0.000000 0.000000 -0.005610 0.000000 0.013641
#
#
# Mechanical properties :
#
#
# Convention : Reuss Voigt Hill
#
# Bulk Modulus (GPa) = 82.24989 83.78322 83.01655
# Shear Modulus (GPa) = 26.54737 44.85447 35.70092
#
# Velocity S-wave (km/s) = 3.12155 4.05754 3.61993
# Velocity P-wave (km/s) = 6.57127 7.25974 6.92407
#
# Compressibility (1/GPa) = 0.01215807
#
# Stress axis : x y z
#
# Youngs Moduli (GPa) = 49.54210 106.29245 58.59125
#
# Poissons Ratio (x) = 0.59192 0.73353
# Poissons Ratio (y) = 0.27589 -0.04905
# Poissons Ratio (z) = 0.62024 -0.08899
#
# Static dielectric constant tensor:
#      x y z
#    x 2.152480 0.000000 0.003980 
#    y 0.000000 2.256940 0.000000 
#    z 0.003980 0.000000 2.130800 
# 
# From -- ./inp_files/281711.got.cif
#   From: 2010.05.17/outbox.cif.g08.bks.cpg/sg15_141_cif.got.tgz:281711.got - 2010.06.03 18:47:42.
