data_PCOD9278468
_publ_section_title
;
Structure prediction by ZEFSAII (Michael W. Deem and Ramdas Pophale) SiO2 
 PCOD9278468
Probable space group: C 2/C
;
_chemical_formula_sum "Si O2"
_cell_formula_units_Z 56
_cell_length_a 10.041062
_cell_length_b 25.569571
_cell_length_c 9.231416
_cell_angle_alpha 90.000000
_cell_angle_beta 106.343037
_cell_angle_gamma 90.000000
_cell_volume 2274.359053
_symmetry_space_group_name_H-M "C 2/C"
_symmetry_group_IT_number 15
_symmetry_cell_setting 'monoclinic'
loop_
_space_group_symop_operation_xyz
x,y,z
-x,y,1/2-z
-x,-y,-z
x,-y,1/2+z
1/2+x,1/2+y,z
1/2-x,1/2+y,1/2-z
1/2-x,1/2-y,-z
1/2+x,1/2-y,1/2+z
loop_
_atom_site_type_symbol
_atom_site_label
_atom_site_fract_x
_atom_site_fract_y
_atom_site_fract_z
Si Si1 0.000000 0.731044 0.750000
Si Si2 0.179585 0.039674 0.059284
Si Si3 0.082308 0.460153 0.422170
Si Si4 0.277642 0.777211 0.701557
Si Si5 0.380326 0.330490 0.363583
Si Si6 0.343294 0.844670 0.978985
Si Si7 0.500000 0.503915 0.250000
Si Si8 0.206103 0.145702 0.951051
O O1 0.121343 0.764260 0.709855
O O2 0.064151 0.693483 0.892499
O O3 0.107990 0.038940 0.193623
O O4 0.276986 0.989712 0.077464
O O5 0.253664 0.093998 0.047362
O O6 0.069407 0.031494 0.895194
O O7 0.110805 0.404200 0.500286
O O8 0.000000 0.451251 0.250000
O O9 0.000000 0.500000 0.500000
O O10 0.362749 0.726606 0.784034
O O11 0.274887 0.802327 0.539687
O O12 0.338697 0.823386 0.817309
O O13 0.308247 0.336531 0.494910
O O14 0.285467 0.362517 0.218941
O O15 0.539508 0.347086 0.421488
#
# Coordination Sequence:
#
# PCOD9278468 Si02
#       8
#     4   8   8   8   8   8   4   8
#     4  10  20  43  66  96 132 174 223 274 346 416
#     4  11  26  44  73 101 141 180 238 288 360 407
#     4  12  29  49  71 100 146 192 241 288 346 430
#     4  11  22  39  68 102 132 171 229 286 334 423
#     4  10  23  42  66  97 142 174 223 281 356 422
#     4  11  24  42  70  97 132 183 229 277 351 410
#     4  10  24  45  70 104 138 170 229 306 348 410
#     4  11  24  40  67 100 136 178 221 286 359 407
#
# _framework density 24.622322
#
# number of rings (size 3 to 8) (size 9 to 14) (size 15 to 20)
#    0.000    1.143    0.714    5.571   12.000    0.571 
#    0.000    2.857    0.000    0.000    0.000    0.000 
#    0.000    0.000    0.000    0.000    0.000    0.000 
#
# Total GULP energy -156827.131431 kJ/mol
# GULP energy per Si atom -5600.968980 kJ/mol
# Density = 2.456628 g / cm^3
# Si number density = 24.622322 Si / 1000 Ang^3
#
#
#
# Elastic Constant Matrix: (Units=GPa)
#
#
# Indices 1 2 3 4 5 6 
#
# 1 58.5672 -2.7448 9.4649 0.0000 0.1605 0.0000
# 2 -2.7448 131.5862 13.7870 0.0000 7.5167 0.0000
# 3 9.4649 13.7870 55.4402 0.0000 -6.0466 0.0000
# 4 0.0000 0.0000 0.0000 35.0513 0.0000 -1.1664
# 5 0.1605 7.5167 -6.0466 0.0000 31.3276 0.0000
# 6 0.0000 0.0000 0.0000 -1.1664 0.0000 8.3206
#
#
#
# Elastic Compliance Matrix: (Units=1/GPa)
#
#
# Indices 1 2 3 4 5 6 
#
# 1 0.017647 0.000766 -0.003303 0.000000 -0.000912 0.000000
# 2 0.000766 0.008001 -0.002380 0.000000 -0.002383 0.000000
# 3 -0.003303 -0.002380 0.019672 0.000000 0.004385 0.000000
# 4 0.000000 0.000000 0.000000 0.028663 0.000000 0.004018
# 5 -0.000912 -0.002383 0.004385 0.000000 0.033344 0.000000
# 6 0.000000 0.000000 0.000000 0.004018 0.000000 0.120747
#
#
# Mechanical properties :
#
#
# Convention : Reuss Voigt Hill
#
# Bulk Modulus (GPa) = 28.18063 31.84532 30.01298
# Shear Modulus (GPa) = 20.02120 29.94566 24.98343
#
# Velocity S-wave (km/s) = 2.85464 3.49119 3.18884
# Velocity P-wave (km/s) = 4.72602 5.40489 5.07681
#
# Compressibility (1/GPa) = 0.03548536
#
# Stress axis : x y z
#
# Youngs Moduli (GPa) = 56.66830 124.98267 50.83492
#
# Poissons Ratio (x) = -0.09576 0.16789
# Poissons Ratio (y) = -0.04342 0.12101
# Poissons Ratio (z) = 0.18716 0.29752
#
# Static dielectric constant tensor:
#      x y z
#    x 1.968170 0.000000 0.012670 
#    y 0.000000 1.983040 0.000000 
#    z 0.012670 0.000000 1.932350 
# 
# From -- ./inp_files/34400.got.cif
#   From: 2010.05.17/outbox.cif.g08.bks.cpg/sg15_18_cif.got.tgz:34400.got - 2010.06.03 18:47:42.
