data_PCOD9278901
_publ_section_title
;
Structure prediction by ZEFSAII (Michael W. Deem and Ramdas Pophale) SiO2 
 PCOD9278901
Probable space group: C 2/C
;
_chemical_formula_sum "Si O2"
_cell_formula_units_Z 64
_cell_length_a 28.564793
_cell_length_b 15.208065
_cell_length_c 10.154604
_cell_angle_alpha 90.000000
_cell_angle_beta 116.760773
_cell_angle_gamma 90.000000
_cell_volume 3938.837670
_symmetry_space_group_name_H-M "C 2/C"
_symmetry_group_IT_number 15
_symmetry_cell_setting 'monoclinic'
loop_
_space_group_symop_operation_xyz
x,y,z
-x,y,1/2-z
-x,-y,-z
x,-y,1/2+z
1/2+x,1/2+y,z
1/2-x,1/2+y,1/2-z
1/2-x,1/2-y,-z
1/2+x,1/2-y,1/2+z
loop_
_atom_site_type_symbol
_atom_site_label
_atom_site_fract_x
_atom_site_fract_y
_atom_site_fract_z
Si Si1 0.390724 0.454636 0.422337
Si Si2 0.794786 0.517124 0.657405
Si Si3 0.296344 0.571235 0.318091
Si Si4 0.307531 0.105244 0.927636
Si Si5 0.692175 0.694961 0.720206
Si Si6 0.351567 0.281214 0.047354
Si Si7 0.778437 0.328562 0.960053
Si Si8 0.939202 0.076409 0.703453
O O1 0.348404 0.528170 0.328361
O O2 0.352552 0.370793 0.392461
O O3 0.418125 0.494959 0.586637
O O4 0.428202 0.439491 0.344637
O O5 0.734674 0.493807 0.623064
O O6 0.819811 0.531443 0.833197
O O7 0.808223 0.440675 0.571442
O O8 0.806599 0.610026 0.601639
O O9 0.311474 0.657359 0.417314
O O10 0.260729 0.601133 0.153655
O O11 0.249247 0.146982 0.817608
O O12 0.348399 0.185384 0.980102
O O13 0.671640 0.724862 0.835837
O O14 0.695270 0.778114 0.627717
O O15 0.405030 0.337322 0.121147
O O16 0.750000 0.250000 0.000000
O O17 0.000000 0.088499 0.750000
#
# Coordination Sequence:
#
# PCOD9278901 Si02
#       8
#     8   8   8   8   8   8   8   8
#     4  10  21  32  57  76 106 138 175 213 268 310
#     4  12  22  30  49  68 109 145 179 205 248 298
#     4  11  19  32  46  73 102 148 176 208 246 313
#     4  12  21  34  47  74 107 142 175 208 254 312
#     4  11  19  31  48  73 108 142 177 205 251 313
#     4  10  21  34  52  71 101 141 175 214 266 308
#     4  12  21  28  45  69 107 143 184 210 239 293
#     4  10  22  39  57  78 102 135 182 226 265 307
#
# _framework density 16.248446999999999
#
# number of rings (size 3 to 8) (size 9 to 14) (size 15 to 20)
#    0.000    1.000    6.250    1.500    5.250    0.000 
#    0.000    0.000    0.000    0.000    0.000    0.875 
#    0.000    0.000    0.000    0.000    0.000    0.000 
#
# Total GULP energy -178221.083420 kJ/mol
# GULP energy per Si atom -5569.408857 kJ/mol
# Density = 1.621147 g / cm^3
# Si number density = 16.248447 Si / 1000 Ang^3
#
#
#
# Elastic Constant Matrix: (Units=GPa)
#
#
# Indices 1 2 3 4 5 6 
#
# 1 34.2362 5.5644 7.9316 0.0000 -6.2731 0.0000
# 2 5.5644 62.7802 5.4314 0.0000 -2.1220 0.0000
# 3 7.9316 5.4314 37.4623 0.0000 -2.7975 0.0000
# 4 0.0000 0.0000 0.0000 37.0941 0.0000 -13.1321
# 5 -6.2731 -2.1220 -2.7975 0.0000 13.3134 0.0000
# 6 0.0000 0.0000 0.0000 -13.1321 0.0000 15.6086
#
#
#
# Elastic Compliance Matrix: (Units=1/GPa)
#
#
# Indices 1 2 3 4 5 6 
#
# 1 0.033471 -0.001989 -0.005734 0.000000 0.014249 0.000000
# 2 -0.001989 0.016308 -0.001848 0.000000 0.001274 0.000000
# 3 -0.005734 -0.001848 0.028397 0.000000 0.002971 0.000000
# 4 0.000000 0.000000 0.000000 0.038394 0.000000 0.032303
# 5 0.014249 0.001274 0.002971 0.000000 0.082653 0.000000
# 6 0.000000 0.000000 0.000000 0.032303 0.000000 0.091245
#
#
# Mechanical properties :
#
#
# Convention : Reuss Voigt Hill
#
# Bulk Modulus (GPa) = 16.93937 19.14816 18.04377
# Shear Modulus (GPa) = 15.18421 20.90665 18.04543
#
# Velocity S-wave (km/s) = 3.06028 3.59093 3.33617
# Velocity P-wave (km/s) = 4.78904 5.38547 5.09599
#
# Compressibility (1/GPa) = 0.05903406
#
# Stress axis : x y z
#
# Youngs Moduli (GPa) = 29.87618 61.32030 35.21463
#
# Poissons Ratio (x) = 0.12196 0.20193
# Poissons Ratio (y) = 0.05942 0.06508
# Poissons Ratio (z) = 0.17132 0.11333
#
# Static dielectric constant tensor:
#      x y z
#    x 1.541680 0.000000 -0.018180 
#    y 0.000000 1.598640 0.000000 
#    z -0.018180 0.000000 1.643730 
# 
# From -- ./inp_files/69960.got.cif
#   From: 2010.05.17/outbox.cif.g08.bks.cpg/sg15_35_cif.got.tgz:69960.got - 2010.06.03 18:47:42.
