data_PCOD9278732
_publ_section_title
;
Structure prediction by ZEFSAII (Michael W. Deem and Ramdas Pophale) SiO2 
 PCOD9278732
Probable space group: C 2/C
;
_chemical_formula_sum "Si O2"
_cell_formula_units_Z 56
_cell_length_a 9.775078
_cell_length_b 27.376767
_cell_length_c 10.938947
_cell_angle_alpha 90.000000
_cell_angle_beta 107.974036
_cell_angle_gamma 90.000000
_cell_volume 2784.505827
_symmetry_space_group_name_H-M "C 2/C"
_symmetry_group_IT_number 15
_symmetry_cell_setting 'monoclinic'
loop_
_space_group_symop_operation_xyz
x,y,z
-x,y,1/2-z
-x,-y,-z
x,-y,1/2+z
1/2+x,1/2+y,z
1/2-x,1/2+y,1/2-z
1/2-x,1/2-y,-z
1/2+x,1/2-y,1/2+z
loop_
_atom_site_type_symbol
_atom_site_label
_atom_site_fract_x
_atom_site_fract_y
_atom_site_fract_z
Si Si1 0.642337 0.681447 0.705664
Si Si2 0.826358 0.610399 0.916597
Si Si3 0.155923 0.769087 0.772254
Si Si4 0.637498 0.095730 0.119345
Si Si5 0.704266 0.354831 0.635567
Si Si6 0.606617 0.637904 0.434371
Si Si7 0.088197 0.488755 0.150820
O O1 0.500000 0.687155 0.750000
O O2 0.769151 0.651452 0.808785
O O3 0.712894 0.732380 0.683248
O O4 0.601504 0.651660 0.574185
O O5 0.808222 0.556368 0.853613
O O6 0.740607 0.623251 0.015771
O O7 0.993113 0.608981 0.006038
O O8 0.170729 0.797258 0.645615
O O9 0.149401 0.812951 0.870130
O O10 0.000000 0.744391 0.750000
O O11 0.666467 0.133180 0.237174
O O12 0.769444 0.100004 0.062106
O O13 0.646293 0.043158 0.187002
O O14 0.555147 0.378224 0.641515
O O15 0.000000 0.475559 0.250000
O O16 0.000000 0.500000 0.000000
#
# Coordination Sequence:
#
# PCOD9278732 Si02
#       7
#     8   8   8   8   8   8   8
#     4  12  25  41  58  91 134 165 196 260 322 370
#     4  11  24  38  64  93 127 159 206 262 311 371
#     4   9  22  40  66  87 117 165 218 253 301 371
#     4  10  21  39  70  90 117 166 213 258 300 372
#     4  10  20  45  62  92 124 162 208 257 308 371
#     4  10  22  42  64  89 127 163 203 260 313 371
#     4  10  22  40  63  97 130 161 210 268 318 368
#
# _framework density 20.111287000000001
#
# number of rings (size 3 to 8) (size 9 to 14) (size 15 to 20)
#    0.000    1.714    1.429    3.857    6.000    2.857 
#    2.571    2.143    0.000    0.000    0.000    0.000 
#    0.000    0.000    0.000    0.000    0.000    0.000 
#
# Total GULP energy -155918.799651 kJ/mol
# GULP energy per Si atom -5568.528559 kJ/mol
# Density = 2.006551 g / cm^3
# Si number density = 20.111287 Si / 1000 Ang^3
#
#
#
# Elastic Constant Matrix: (Units=GPa)
#
#
# Indices 1 2 3 4 5 6 
#
# 1 98.2347 26.7745 27.0384 0.0000 3.4557 0.0000
# 2 26.7745 41.0810 4.6436 0.0000 8.3847 0.0000
# 3 27.0384 4.6436 72.3714 0.0000 -9.0967 0.0000
# 4 0.0000 0.0000 0.0000 34.5632 0.0000 2.5508
# 5 3.4557 8.3847 -9.0967 0.0000 32.1396 0.0000
# 6 0.0000 0.0000 0.0000 2.5508 0.0000 35.9954
#
#
#
# Elastic Compliance Matrix: (Units=1/GPa)
#
#
# Indices 1 2 3 4 5 6 
#
# 1 0.013756 -0.008305 -0.004687 0.000000 -0.000639 0.000000
# 2 -0.008305 0.031200 0.000197 0.000000 -0.007191 0.000000
# 3 -0.004687 0.000197 0.016189 0.000000 0.005035 0.000000
# 4 0.000000 0.000000 0.000000 0.029085 0.000000 -0.002061
# 5 -0.000639 -0.007191 0.005035 0.000000 0.034484 0.000000
# 6 0.000000 0.000000 0.000000 -0.002061 0.000000 0.027927
#
#
# Mechanical properties :
#
#
# Convention : Reuss Voigt Hill
#
# Bulk Modulus (GPa) = 28.12511 36.51113 32.31812
# Shear Modulus (GPa) = 26.30444 30.75502 28.52973
#
# Velocity S-wave (km/s) = 3.62047 3.91479 3.77051
# Velocity P-wave (km/s) = 5.61179 6.21515 5.92116
#
# Compressibility (1/GPa) = 0.03555542
#
# Stress axis : x y z
#
# Youngs Moduli (GPa) = 72.69690 32.05091 61.77136
#
# Poissons Ratio (x) = 0.26619 0.28950
# Poissons Ratio (y) = 0.60376 -0.01217
# Poissons Ratio (z) = 0.34070 -0.00632
#
# Static dielectric constant tensor:
#      x y z
#    x 1.737540 0.000000 0.007020 
#    y 0.000000 1.772090 0.000000 
#    z 0.007020 0.000000 1.815980 
# 
# From -- ./inp_files/81431.got.cif
#   From: 2010.05.17/outbox.cif.g08.bks.cpg/sg15_41_cif.got.tgz:81431.got - 2010.06.03 18:47:42.
