data_PCOD9278832
_publ_section_title
;
Structure prediction by ZEFSAII (Michael W. Deem and Ramdas Pophale) SiO2 
 PCOD9278832
Probable space group: C 2/C
;
_chemical_formula_sum "Si O2"
_cell_formula_units_Z 44
_cell_length_a 9.274989
_cell_length_b 12.408386
_cell_length_c 16.339342
_cell_angle_alpha 90.000000
_cell_angle_beta 118.953686
_cell_angle_gamma 90.000000
_cell_volume 1645.420588
_symmetry_space_group_name_H-M "C 2/C"
_symmetry_group_IT_number 15
_symmetry_cell_setting 'monoclinic'
loop_
_space_group_symop_operation_xyz
x,y,z
-x,y,1/2-z
-x,-y,-z
x,-y,1/2+z
1/2+x,1/2+y,z
1/2-x,1/2+y,1/2-z
1/2-x,1/2-y,-z
1/2+x,1/2-y,1/2+z
loop_
_atom_site_type_symbol
_atom_site_label
_atom_site_fract_x
_atom_site_fract_y
_atom_site_fract_z
Si Si1 0.022285 0.074540 0.903482
Si Si2 0.709888 0.059489 0.099720
Si Si3 0.170676 0.213809 0.235968
Si Si4 0.170370 0.540814 0.757158
Si Si5 0.000000 0.760574 0.250000
Si Si6 0.063023 0.246514 0.481430
O O1 0.854150 0.006989 0.838135
O O2 0.050053 0.158977 0.836863
O O3 0.989726 0.149034 0.973025
O O4 0.952013 0.767312 0.871784
O O5 0.832869 0.133802 0.188408
O O6 0.564038 0.138581 0.030060
O O7 0.655957 0.977434 0.155938
O O8 0.817625 0.002301 0.058779
O O9 0.182977 0.331956 0.279251
O O10 0.347506 0.193703 0.241768
O O11 0.000000 0.505561 0.750000
O O12 0.250000 0.250000 0.500000
#
# Coordination Sequence:
#
# PCOD9278832 Si02
#       6
#     8   8   8   8   4   8
#     4  11  23  50  78 114 163 214 276 331 417 498
#     4  12  26  50  82 109 160 225 257 341 431 470
#     4  11  26  49  80 114 161 210 274 335 411 492
#     4  11  24  45  79 112 153 210 276 327 404 504
#     4  10  20  50  76 108 158 214 264 336 400 484
#     4  12  29  47  79 124 159 209 282 345 409 498
#
# _framework density 26.740884000000001
#
# number of rings (size 3 to 8) (size 9 to 14) (size 15 to 20)
#    0.000    0.727    7.273    1.091    6.364    2.182 
#    3.273    0.000    0.000    0.000    0.000    0.000 
#    0.000    0.000    0.000    0.000    0.000    0.000 
#
# Total GULP energy -123172.559325 kJ/mol
# GULP energy per Si atom -5598.752697 kJ/mol
# Density = 2.668002 g / cm^3
# Si number density = 26.740884 Si / 1000 Ang^3
#
#
#
# Elastic Constant Matrix: (Units=GPa)
#
#
# Indices 1 2 3 4 5 6 
#
# 1 172.2173 40.3072 35.8219 0.0000 -21.2996 0.0000
# 2 40.3072 111.8278 33.9314 0.0000 -10.4539 0.0000
# 3 35.8219 33.9314 122.7334 0.0000 4.7312 0.0000
# 4 0.0000 0.0000 0.0000 51.4847 0.0000 -14.2067
# 5 -21.2996 -10.4539 4.7312 0.0000 52.8071 0.0000
# 6 0.0000 0.0000 0.0000 -14.2067 0.0000 47.1171
#
#
#
# Elastic Compliance Matrix: (Units=1/GPa)
#
#
# Indices 1 2 3 4 5 6 
#
# 1 0.006870 -0.001744 -0.001622 0.000000 0.002571 0.000000
# 2 -0.001744 0.010461 -0.002444 0.000000 0.001587 0.000000
# 3 -0.001622 -0.002444 0.009373 0.000000 -0.001978 0.000000
# 4 0.000000 0.000000 0.000000 0.021186 0.000000 0.006388
# 5 0.002571 0.001587 -0.001978 0.000000 0.020465 0.000000
# 6 0.000000 0.000000 0.000000 0.006388 0.000000 0.023150
#
#
# Mechanical properties :
#
#
# Convention : Reuss Voigt Hill
#
# Bulk Modulus (GPa) = 66.29631 69.65551 67.97591
# Shear Modulus (GPa) = 46.23061 50.06298 48.14679
#
# Velocity S-wave (km/s) = 4.16244 4.33153 4.24783
# Velocity P-wave (km/s) = 6.92439 7.14990 7.03805
#
# Compressibility (1/GPa) = 0.01508379
#
# Stress axis : x y z
#
# Youngs Moduli (GPa) = 145.55702 95.59515 106.68699
#
# Poissons Ratio (x) = 0.16669 0.17307
# Poissons Ratio (y) = 0.25381 0.26077
# Poissons Ratio (z) = 0.23613 0.23366
#
# Static dielectric constant tensor:
#      x y z
#    x 2.189090 0.000000 0.026310 
#    y 0.000000 2.301720 0.000000 
#    z 0.026310 0.000000 2.031630 
# 
# From -- ./inp_files/236343.got.cif
#   From: 2010.05.17/outbox.cif.g08.bks.cpg/sg15_119_cif.got.tgz:236343.got - 2010.06.03 18:47:42.
