data_PCOD9278860
_publ_section_title
;
Structure prediction by ZEFSAII (Michael W. Deem and Ramdas Pophale) SiO2 
 PCOD9278860
Probable space group: C 2/C
;
_chemical_formula_sum "Si O2"
_cell_formula_units_Z 48
_cell_length_a 9.083559
_cell_length_b 12.112902
_cell_length_c 19.748886
_cell_angle_alpha 90.000000
_cell_angle_beta 124.046287
_cell_angle_gamma 90.000000
_cell_volume 1800.463013
_symmetry_space_group_name_H-M "C 2/C"
_symmetry_group_IT_number 15
_symmetry_cell_setting 'monoclinic'
loop_
_space_group_symop_operation_xyz
x,y,z
-x,y,1/2-z
-x,-y,-z
x,-y,1/2+z
1/2+x,1/2+y,z
1/2-x,1/2+y,1/2-z
1/2-x,1/2-y,-z
1/2+x,1/2-y,1/2+z
loop_
_atom_site_type_symbol
_atom_site_label
_atom_site_fract_x
_atom_site_fract_y
_atom_site_fract_z
Si Si1 0.162893 0.205965 0.582283
Si Si2 0.206802 0.495293 0.201269
Si Si3 0.819186 0.564164 0.449280
Si Si4 0.932661 0.742187 0.847857
Si Si5 0.052956 0.983792 0.603665
Si Si6 0.426473 0.796021 0.803350
O O1 0.131658 0.308269 0.521902
O O2 0.377402 0.217656 0.636574
O O3 0.124793 0.075483 0.570504
O O4 0.039728 0.240195 0.615865
O O5 0.259657 0.560606 0.147230
O O6 0.146126 0.377991 0.156810
O O7 0.345889 0.485201 0.298689
O O8 0.043286 0.572121 0.185024
O O9 0.659224 0.507299 0.446524
O O10 0.000000 0.500000 0.500000
O O11 0.785410 0.782569 0.756543
O O12 0.923553 0.849588 0.895596
O O13 0.500000 0.754549 0.750000
#
# Coordination Sequence:
#
# PCOD9278860 Si02
#       6
#     8   8   8   8   8   8
#     4  10  21  39  61  90 129 172 212 268 334 388
#     4  10  21  36  62  93 123 162 213 271 329 381
#     4  10  23  43  63  92 131 175 219 268 329 399
#     4  10  21  35  58  92 127 161 206 268 331 393
#     4  10  21  37  64  92 126 163 219 264 333 388
#     4  10  21  31  54  92 129 158 206 264 327 391
#
# _framework density 26.659808999999999
#
# number of rings (size 3 to 8) (size 9 to 14) (size 15 to 20)
#    0.000    2.000    1.667    1.000    7.000    4.667 
#    0.000    3.333    0.000    2.000    0.000    0.000 
#    0.000    0.000    0.000    0.000    0.000    0.000 
#
# Total GULP energy -133701.257615 kJ/mol
# GULP energy per Si atom -5570.885734 kJ/mol
# Density = 2.659913 g / cm^3
# Si number density = 26.659809 Si / 1000 Ang^3
#
#
#
# Elastic Constant Matrix: (Units=GPa)
#
#
# Indices 1 2 3 4 5 6 
#
# 1 119.7606 61.1309 54.9069 0.0000 -7.5861 0.0000
# 2 61.1309 216.2298 45.1218 0.0000 24.8018 0.0000
# 3 54.9069 45.1218 83.4744 0.0000 -0.7047 0.0000
# 4 0.0000 0.0000 0.0000 27.6000 0.0000 2.3850
# 5 -7.5861 24.8018 -0.7047 0.0000 36.5880 0.0000
# 6 0.0000 0.0000 0.0000 2.3850 0.0000 45.0031
#
#
#
# Elastic Compliance Matrix: (Units=1/GPa)
#
#
# Indices 1 2 3 4 5 6 
#
# 1 0.013390 -0.002789 -0.007261 0.000000 0.004527 0.000000
# 2 -0.002789 0.006312 -0.001618 0.000000 -0.004888 0.000000
# 3 -0.007261 -0.001618 0.017630 0.000000 -0.000069 0.000000
# 4 0.000000 0.000000 0.000000 0.036399 0.000000 -0.001929
# 5 0.004527 -0.004888 -0.000069 0.000000 0.031582 0.000000
# 6 0.000000 0.000000 0.000000 -0.001929 0.000000 0.022323
#
#
# Mechanical properties :
#
#
# Convention : Reuss Voigt Hill
#
# Bulk Modulus (GPa) = 71.46131 82.42046 76.94088
# Shear Modulus (GPa) = 32.12592 39.05856 35.59224
#
# Velocity S-wave (km/s) = 3.47512 3.83178 3.65780
# Velocity P-wave (km/s) = 6.55477 7.11052 6.83829
#
# Compressibility (1/GPa) = 0.01399359
#
# Stress axis : x y z
#
# Youngs Moduli (GPa) = 74.68403 158.43689 56.72116
#
# Poissons Ratio (x) = 0.44196 0.41187
# Poissons Ratio (y) = 0.20833 0.09179
# Poissons Ratio (z) = 0.54230 0.25638
#
# Static dielectric constant tensor:
#      x y z
#    x 2.110470 0.000000 -0.033020 
#    y 0.000000 2.340430 0.000000 
#    z -0.033020 0.000000 2.207670 
# 
# From -- ./inp_files/287785.got.cif
#   From: 2010.05.17/outbox.cif.g08.bks.cpg/sg15_144_cif.got.tgz:287785.got - 2010.06.03 18:47:42.
