data_PCOD9278891
_publ_section_title
;
Structure prediction by ZEFSAII (Michael W. Deem and Ramdas Pophale) SiO2 
 PCOD9278891
Probable space group: C 2/C
;
_chemical_formula_sum "Si O2"
_cell_formula_units_Z 60
_cell_length_a 27.962891
_cell_length_b 14.563972
_cell_length_c 20.806225
_cell_angle_alpha 90.000000
_cell_angle_beta 163.070602
_cell_angle_gamma 90.000000
_cell_volume 2467.381242
_symmetry_space_group_name_H-M "C 2/C"
_symmetry_group_IT_number 15
_symmetry_cell_setting 'monoclinic'
loop_
_space_group_symop_operation_xyz
x,y,z
-x,y,1/2-z
-x,-y,-z
x,-y,1/2+z
1/2+x,1/2+y,z
1/2-x,1/2+y,1/2-z
1/2-x,1/2-y,-z
1/2+x,1/2-y,1/2+z
loop_
_atom_site_type_symbol
_atom_site_label
_atom_site_fract_x
_atom_site_fract_y
_atom_site_fract_z
Si Si1 0.000000 0.280059 0.250000
Si Si2 0.519731 0.800510 0.479236
Si Si3 0.339994 0.602119 0.366844
Si Si4 0.302161 0.058694 0.445759
Si Si5 0.913719 0.363726 0.548143
Si Si6 0.415500 0.344378 0.745575
Si Si7 0.625211 0.274999 0.251034
Si Si8 0.775029 0.418009 0.228917
O O1 0.885447 0.211393 0.142227
O O2 0.081901 0.351214 0.405169
O O3 0.702983 0.818696 0.690365
O O4 0.420854 0.728701 0.310250
O O5 0.544754 0.758250 0.581181
O O6 0.413472 0.891421 0.355615
O O7 0.333644 0.563842 0.285822
O O8 0.511921 0.635184 0.616801
O O9 0.258848 0.525017 0.306779
O O10 0.206132 0.074589 0.389330
O O11 0.407617 0.967063 0.569210
O O12 0.806334 0.304270 0.461071
O O13 0.078306 0.305460 0.741492
O O14 0.823040 0.380320 0.362170
O O15 0.602622 0.377616 0.984503
#
# Coordination Sequence:
#
# PCOD9278891 Si02
#       8
#     4   8   8   8   8   8   8   8
#     4  12  26  40  60  84 116 168 206 252 290 358
#     4  11  18  32  52  81 123 156 190 239 299 368
#     4  11  19  33  55  87 122 154 196 244 301 363
#     4  11  23  39  58  84 119 163 207 246 301 360
#     4  10  21  35  59  90 126 156 199 249 308 370
#     4  12  21  39  58  82 116 163 206 246 296 363
#     4  11  18  34  58  89 119 160 190 247 315 367
#     4  10  21  32  54  86 122 158 192 245 303 360
#
# _framework density 24.317281999999999
#
# number of rings (size 3 to 8) (size 9 to 14) (size 15 to 20)
#    0.000    1.067    5.333    3.200    0.000    2.133 
#    0.000    0.000    0.000    0.800    0.000    0.933 
#    0.000    0.000    0.000    0.000    0.000    0.000 
#
# Total GULP energy -167486.587452 kJ/mol
# GULP energy per Si atom -5582.886248 kJ/mol
# Density = 2.426193 g / cm^3
# Si number density = 24.317282 Si / 1000 Ang^3
#
#
#
# Elastic Constant Matrix: (Units=GPa)
#
#
# Indices 1 2 3 4 5 6 
#
# 1 74.9568 27.0512 12.0436 -0.0003 14.8965 -0.0006
# 2 27.0512 94.1081 -5.9716 -0.0002 3.2883 0.0001
# 3 12.0436 -5.9716 41.1489 -0.0013 13.0661 0.0000
# 4 -0.0003 -0.0002 -0.0013 20.1665 -0.0002 20.8748
# 5 14.8965 3.2883 13.0661 -0.0002 38.6451 0.0002
# 6 -0.0006 0.0001 0.0000 20.8748 0.0002 31.2779
#
#
#
# Elastic Compliance Matrix: (Units=1/GPa)
#
#
# Indices 1 2 3 4 5 6 
#
# 1 0.016690 -0.004898 -0.004129 -0.000002 -0.004621 0.000001
# 2 -0.004898 0.012253 0.003297 0.000001 -0.000269 -0.000001
# 3 -0.004129 0.003297 0.028648 0.000006 -0.008375 -0.000004
# 4 -0.000002 0.000001 0.000006 0.160391 0.000000 -0.107045
# 5 -0.004621 -0.000269 -0.008375 0.000000 0.030512 0.000000
# 6 0.000001 -0.000001 -0.000004 -0.107045 0.000000 0.103413
#
#
# Mechanical properties :
#
#
# Convention : Reuss Voigt Hill
#
# Bulk Modulus (GPa) = 21.67669 30.71782 26.19726
# Shear Modulus (GPa) = 13.20153 29.82393 21.51273
#
# Velocity S-wave (km/s) = 2.33252 3.50587 2.97756
# Velocity P-wave (km/s) = 4.02339 5.38959 4.75580
#
# Compressibility (1/GPa) = 0.04613251
#
# Stress axis : x y z
#
# Youngs Moduli (GPa) = 59.91466 81.61478 34.90611
#
# Poissons Ratio (x) = 0.39976 0.14411
# Poissons Ratio (y) = 0.29347 -0.11509
# Poissons Ratio (z) = 0.24736 -0.26910
#
# Static dielectric constant tensor:
#      x y z
#    x 1.974210 0.000000 0.022020 
#    y 0.000000 2.008900 0.000000 
#    z 0.022020 0.000000 1.974530 
# 
# From -- ./inp_files/257871.got.cif
#   From: 2010.05.17/outbox.cif.g08.bks.cpg/sg15_129_cif.got.tgz:257871.got - 2010.06.03 18:47:42.
