data_PCOD9278700
_publ_section_title
;
Structure prediction by ZEFSAII (Michael W. Deem and Ramdas Pophale) SiO2 
 PCOD9278700
Probable space group: C 2/C
;
_chemical_formula_sum "Si O2"
_cell_formula_units_Z 40
_cell_length_a 13.944906
_cell_length_b 13.483497
_cell_length_c 14.760894
_cell_angle_alpha 90.000000
_cell_angle_beta 139.669170
_cell_angle_gamma 90.000000
_cell_volume 1796.260619
_symmetry_space_group_name_H-M "C 2/C"
_symmetry_group_IT_number 15
_symmetry_cell_setting 'monoclinic'
loop_
_space_group_symop_operation_xyz
x,y,z
-x,y,1/2-z
-x,-y,-z
x,-y,1/2+z
1/2+x,1/2+y,z
1/2-x,1/2+y,1/2-z
1/2-x,1/2-y,-z
1/2+x,1/2-y,1/2+z
loop_
_atom_site_type_symbol
_atom_site_label
_atom_site_fract_x
_atom_site_fract_y
_atom_site_fract_z
Si Si1 0.747280 0.456633 0.958620
Si Si2 0.500000 0.044836 0.250000
Si Si3 0.000000 0.880881 0.250000
Si Si4 0.000000 0.793145 0.750000
Si Si5 0.581634 0.795362 0.118937
Si Si6 0.895598 0.716758 0.311434
Si Si7 0.500000 0.000000 0.500000
O O1 0.638631 0.550663 0.873211
O O2 0.639269 0.362495 0.879498
O O3 0.858083 0.455270 0.953858
O O4 0.858367 0.479754 0.121555
O O5 0.458263 0.115780 0.307504
O O6 0.961589 0.807416 0.303282
O O7 0.042535 0.730466 0.692909
O O8 0.720451 0.728730 0.186866
O O9 0.453932 0.772801 0.954499
O O10 0.607314 0.911717 0.121523
#
# Coordination Sequence:
#
# PCOD9278700 Si02
#       7
#     8   4   4   4   8   8   4
#     4  11  24  46  71 112 150 195 247 306 367 452
#     4  11  22  42  78 117 144 188 247 313 377 433
#     4  10  20  44  71 109 150 186 250 316 372 434
#     4  11  30  50  73 106 160 198 247 299 379 439
#     4  12  26  48  71 110 145 201 245 304 371 445
#     4  11  22  43  78 109 144 190 248 316 371 434
#     4  12  24  44  72 100 142 194 246 296 362 452
#
# _framework density 22.268481999999999
#
# number of rings (size 3 to 8) (size 9 to 14) (size 15 to 20)
#    0.000    0.800    4.000    2.400    0.000    8.800 
#    0.000    3.000    0.000    0.000    0.000    0.000 
#    0.000    0.000    0.000    0.000    0.000    0.000 
#
# Total GULP energy -111409.137410 kJ/mol
# GULP energy per Si atom -5570.456871 kJ/mol
# Density = 2.221780 g / cm^3
# Si number density = 22.268482 Si / 1000 Ang^3
#
#
#
# Elastic Constant Matrix: (Units=GPa)
#
#
# Indices 1 2 3 4 5 6 
#
# 1 89.7636 30.2389 17.4717 0.0000 2.5369 0.0000
# 2 30.2389 96.3386 53.1494 0.0000 -13.0138 0.0000
# 3 17.4717 53.1494 139.6018 0.0000 6.5576 0.0000
# 4 0.0000 0.0000 0.0000 24.5572 0.0000 1.4528
# 5 2.5369 -13.0138 6.5576 0.0000 41.7821 0.0000
# 6 0.0000 0.0000 0.0000 1.4528 0.0000 21.5839
#
#
#
# Elastic Compliance Matrix: (Units=1/GPa)
#
#
# Indices 1 2 3 4 5 6 
#
# 1 0.012633 -0.004354 0.000178 0.000000 -0.002151 0.000000
# 2 -0.004354 0.015725 -0.005727 0.000000 0.006061 0.000000
# 3 0.000178 -0.005727 0.009475 0.000000 -0.003282 0.000000
# 4 0.000000 0.000000 0.000000 0.040884 0.000000 -0.002752
# 5 -0.002151 0.006061 -0.003282 0.000000 0.026467 0.000000
# 6 0.000000 0.000000 0.000000 -0.002752 0.000000 0.046516
#
#
# Mechanical properties :
#
#
# Convention : Reuss Voigt Hill
#
# Bulk Modulus (GPa) = 55.47036 58.60267 57.03651
# Shear Modulus (GPa) = 28.16655 32.57423 30.37039
#
# Velocity S-wave (km/s) = 3.56035 3.82880 3.69701
# Velocity P-wave (km/s) = 6.47034 6.77642 6.62515
#
# Compressibility (1/GPa) = 0.01802765
#
# Stress axis : x y z
#
# Youngs Moduli (GPa) = 79.15574 63.59431 105.53689
#
# Poissons Ratio (x) = 0.27688 -0.01874
# Poissons Ratio (y) = 0.34464 0.60436
# Poissons Ratio (z) = -0.01405 0.36417
#
# Static dielectric constant tensor:
#      x y z
#    x 2.535940 0.000000 -0.598110 
#    y 0.000000 1.883300 0.000000 
#    z -0.598110 0.000000 2.282150 
# 
# From -- ./inp_files/153780.got.cif
#   From: 2010.05.17/outbox.cif.g08.bks.cpg/sg15_77_cif.got.tgz:153780.got - 2010.06.03 18:47:42.
