data_PCOD9278836
_publ_section_title
;
Structure prediction by ZEFSAII (Michael W. Deem and Ramdas Pophale) SiO2 
 PCOD9278836
Probable space group: C 2/C
;
_chemical_formula_sum "Si O2"
_cell_formula_units_Z 56
_cell_length_a 26.663028
_cell_length_b 19.386052
_cell_length_c 7.015149
_cell_angle_alpha 90.000000
_cell_angle_beta 123.927504
_cell_angle_gamma 90.000000
_cell_volume 3008.708404
_symmetry_space_group_name_H-M "C 2/C"
_symmetry_group_IT_number 15
_symmetry_cell_setting 'monoclinic'
loop_
_space_group_symop_operation_xyz
x,y,z
-x,y,1/2-z
-x,-y,-z
x,-y,1/2+z
1/2+x,1/2+y,z
1/2-x,1/2+y,1/2-z
1/2-x,1/2-y,-z
1/2+x,1/2-y,1/2+z
loop_
_atom_site_type_symbol
_atom_site_label
_atom_site_fract_x
_atom_site_fract_y
_atom_site_fract_z
Si Si1 0.692244 0.502889 0.057270
Si Si2 0.167861 0.242275 0.759642
Si Si3 0.293441 0.351876 0.497156
Si Si4 0.748997 0.345882 0.697084
Si Si5 0.553471 0.664152 0.579735
Si Si6 0.431117 0.363443 0.941607
Si Si7 0.401953 0.489721 0.393933
O O1 0.722248 0.427312 0.115518
O O2 0.674926 0.501870 0.769502
O O3 0.728711 0.574760 0.132574
O O4 0.614992 0.506314 0.894206
O O5 0.201030 0.202182 0.658219
O O6 0.191114 0.320031 0.784527
O O7 0.097615 0.223907 0.600718
O O8 0.195847 0.202834 0.000542
O O9 0.248778 0.333946 0.572313
O O10 0.362110 0.357426 0.727098
O O11 0.481244 0.671451 0.414698
O O12 0.576244 0.589633 0.549378
O O13 0.564098 0.661281 0.831667
O O14 0.446379 0.444984 0.974262
#
# Coordination Sequence:
#
# PCOD9278836 Si02
#       7
#     8   8   8   8   8   8   8
#     4  11  17  29  51  65  96 128 169 208 245 278
#     4  11  22  34  52  67  97 138 174 205 259 291
#     4  11  20  35  52  74  97 133 171 214 245 296
#     4  11  21  36  49  71  97 133 172 217 246 303
#     4  11  19  33  43  69  97 138 167 202 243 287
#     4  10  21  29  47  65 101 130 168 213 233 279
#     4  11  16  30  42  65  94 129 167 201 236 276
#
# _framework density 18.612636999999999
#
# number of rings (size 3 to 8) (size 9 to 14) (size 15 to 20)
#    0.000    1.143    8.571    0.857    0.000    0.571 
#    0.000    0.000    0.000    0.000    0.000    0.000 
#    0.000    0.000    0.000   27.000    0.000    0.000 
#
# Total GULP energy -156104.060298 kJ/mol
# GULP energy per Si atom -5575.145011 kJ/mol
# Density = 1.857027 g / cm^3
# Si number density = 18.612637 Si / 1000 Ang^3
#
#
#
# Elastic Constant Matrix: (Units=GPa)
#
#
# Indices 1 2 3 4 5 6 
#
# 1 107.1015 53.3796 14.3638 0.0000 -5.2173 0.0000
# 2 53.3796 76.2262 9.6288 0.0000 3.4423 0.0000
# 3 14.3638 9.6288 50.8498 0.0000 -18.2215 0.0000
# 4 0.0000 0.0000 0.0000 21.3180 0.0000 -1.7489
# 5 -5.2173 3.4423 -18.2215 0.0000 36.0359 0.0000
# 6 0.0000 0.0000 0.0000 -1.7489 0.0000 37.3129
#
#
#
# Elastic Compliance Matrix: (Units=1/GPa)
#
#
# Indices 1 2 3 4 5 6 
#
# 1 0.014757 -0.010273 -0.001351 0.000000 0.002435 0.000000
# 2 -0.010273 0.020890 -0.002811 0.000000 -0.004904 0.000000
# 3 -0.001351 -0.002811 0.025166 0.000000 0.012798 0.000000
# 4 0.000000 0.000000 0.000000 0.047090 0.000000 0.002207
# 5 0.002435 -0.004904 0.012798 0.000000 0.035042 0.000000
# 6 0.000000 0.000000 0.000000 0.002207 0.000000 0.026904
#
#
# Mechanical properties :
#
#
# Convention : Reuss Voigt Hill
#
# Bulk Modulus (GPa) = 31.30652 43.21353 37.26003
# Shear Modulus (GPa) = 23.88168 29.38704 26.63436
#
# Velocity S-wave (km/s) = 3.58591 3.97782 3.78694
# Velocity P-wave (km/s) = 5.83109 6.66071 6.25966
#
# Compressibility (1/GPa) = 0.03194222
#
# Stress axis : x y z
#
# Youngs Moduli (GPa) = 67.76478 47.87073 39.73677
#
# Poissons Ratio (x) = 0.49179 0.05367
# Poissons Ratio (y) = 0.69617 0.11170
# Poissons Ratio (z) = 0.09152 0.13457
#
# Static dielectric constant tensor:
#      x y z
#    x 1.772950 0.000000 -0.172510 
#    y 0.000000 1.589040 0.000000 
#    z -0.172510 0.000000 1.948820 
# 
# From -- ./inp_files/69777.got.cif
#   From: 2010.05.17/outbox.cif.g08.bks.cpg/sg15_35_cif.got.tgz:69777.got - 2010.06.03 18:47:42.
