data_PCOD9278657
_publ_section_title
;
Structure prediction by ZEFSAII (Michael W. Deem and Ramdas Pophale) SiO2 
 PCOD9278657
Probable space group: C 2/C
;
_chemical_formula_sum "Si O2"
_cell_formula_units_Z 52
_cell_length_a 10.041768
_cell_length_b 10.734399
_cell_length_c 29.719381
_cell_angle_alpha 90.000000
_cell_angle_beta 133.974979
_cell_angle_gamma 90.000000
_cell_volume 2305.392286
_symmetry_space_group_name_H-M "C 2/C"
_symmetry_group_IT_number 15
_symmetry_cell_setting 'monoclinic'
loop_
_space_group_symop_operation_xyz
x,y,z
-x,y,1/2-z
-x,-y,-z
x,-y,1/2+z
1/2+x,1/2+y,z
1/2-x,1/2+y,1/2-z
1/2-x,1/2-y,-z
1/2+x,1/2-y,1/2+z
loop_
_atom_site_type_symbol
_atom_site_label
_atom_site_fract_x
_atom_site_fract_y
_atom_site_fract_z
Si Si1 0.198862 0.204708 0.108981
Si Si2 0.000000 0.339792 0.750000
Si Si3 0.895201 0.457138 0.583748
Si Si4 0.156871 0.268288 0.421743
Si Si5 0.418468 0.768323 0.277984
Si Si6 0.222885 0.513513 0.227236
Si Si7 0.047548 0.639107 0.498154
O O1 0.347567 0.229291 0.183372
O O2 0.265843 0.088422 0.094488
O O3 0.998897 0.194017 0.086177
O O4 0.189861 0.311066 0.068847
O O5 0.102347 0.428880 0.739145
O O6 0.893703 0.366507 0.540402
O O7 0.833578 0.594423 0.554694
O O8 0.101557 0.471928 0.653204
O O9 0.067622 0.284282 0.351846
O O10 0.859165 0.715396 0.461667
O O11 0.500000 0.810178 0.250000
O O12 0.377381 0.620881 0.263131
O O13 0.255935 0.867009 0.254774
O O14 0.000000 0.500000 0.500000
#
# Coordination Sequence:
#
# PCOD9278657 Si02
#       7
#     8   4   8   8   8   8   8
#     4  11  23  45  73  97 137 186 225 287 346 414
#     4  10  20  44  68 100 130 180 226 276 348 410
#     4  10  24  45  67 100 138 179 235 289 341 414
#     4  11  24  45  69  98 141 181 228 288 352 406
#     4  11  22  41  66 100 135 183 224 283 349 410
#     4  10  21  41  66  95 141 172 227 286 338 410
#     4  12  25  46  69 101 142 179 234 289 343 412
#
# _framework density 22.555814999999999
#
# number of rings (size 3 to 8) (size 9 to 14) (size 15 to 20)
#    0.000    1.231    3.846    1.846    0.000    0.615 
#    9.692    0.000    0.000    0.000    0.000    0.000 
#    0.000    0.000    0.000    0.000    0.000    0.000 
#
# Total GULP energy -145051.435963 kJ/mol
# GULP energy per Si atom -5578.901383 kJ/mol
# Density = 2.250448 g / cm^3
# Si number density = 22.555815 Si / 1000 Ang^3
#
#
#
# Elastic Constant Matrix: (Units=GPa)
#
#
# Indices 1 2 3 4 5 6 
#
# 1 102.0919 27.2510 43.7382 0.0000 -28.6525 0.0000
# 2 27.2510 80.5394 35.3415 0.0000 10.9595 0.0000
# 3 43.7382 35.3415 143.6735 0.0000 -19.3793 0.0000
# 4 0.0000 0.0000 0.0000 0.2850 0.0000 57.2023
# 5 -28.6525 10.9595 -19.3793 0.0000 34.3829 0.0000
# 6 0.0000 0.0000 0.0000 57.2023 0.0000 -62.9013
#
#
#
# Elastic Compliance Matrix: (Units=1/GPa)
#
#
# Indices 1 2 3 4 5 6 
#
# 1 0.016541 -0.007167 -0.001196 0.000000 0.015394 0.000000
# 2 -0.007167 0.018715 -0.004364 0.000000 -0.014397 0.000000
# 3 -0.001196 -0.004364 0.009146 0.000000 0.005549 0.000000
# 4 0.000000 0.000000 0.000000 0.019119 0.000000 0.017387
# 5 0.015394 -0.014397 0.005549 0.000000 0.049630 0.000000
# 6 0.000000 0.000000 0.000000 0.017387 0.000000 -0.000087
#
#
# Mechanical properties :
#
#
# Convention : Reuss Voigt Hill
#
# Bulk Modulus (GPa) = 52.77300 59.88515 56.32908
# Shear Modulus (GPa) = 34.52212 9.01825 21.77019
#
# Velocity S-wave (km/s) = 3.91643 2.00172 3.11009
# Velocity P-wave (km/s) = 6.62561 5.65242 6.15827
#
# Compressibility (1/GPa) = 0.01894908
#
# Stress axis : x y z
#
# Youngs Moduli (GPa) = 60.45559 53.43238 109.33316
#
# Poissons Ratio (x) = 0.38293 0.13078
# Poissons Ratio (y) = 0.43327 0.47712
# Poissons Ratio (z) = 0.07232 0.23317
#
# Static dielectric constant tensor:
#      x y z
#    x 2.128530 0.000000 0.007430 
#    y 0.000000 1.881340 0.000000 
#    z 0.007430 0.000000 1.878510 
# 
# From -- ./inp_files/310528.got.cif
#   From: 2010.05.17/outbox.cif.g08.bks.cpg/sg15_156_cif.got.tgz:310528.got - 2010.06.03 18:47:42.
