data_PCOD9278605
_publ_section_title
;
Structure prediction by ZEFSAII (Michael W. Deem and Ramdas Pophale) SiO2 
 PCOD9278605
Probable space group: C 2/C
;
_chemical_formula_sum "Si O2"
_cell_formula_units_Z 48
_cell_length_a 20.913796
_cell_length_b 7.117950
_cell_length_c 27.581777
_cell_angle_alpha 90.000000
_cell_angle_beta 146.384835
_cell_angle_gamma 90.000000
_cell_volume 2273.084226
_symmetry_space_group_name_H-M "C 2/C"
_symmetry_group_IT_number 15
_symmetry_cell_setting 'monoclinic'
loop_
_space_group_symop_operation_xyz
x,y,z
-x,y,1/2-z
-x,-y,-z
x,-y,1/2+z
1/2+x,1/2+y,z
1/2-x,1/2+y,1/2-z
1/2-x,1/2-y,-z
1/2+x,1/2-y,1/2+z
loop_
_atom_site_type_symbol
_atom_site_label
_atom_site_fract_x
_atom_site_fract_y
_atom_site_fract_z
Si Si1 0.553657 0.998581 0.087946
Si Si2 0.295651 0.474634 0.697426
Si Si3 0.830090 0.338797 0.978358
Si Si4 0.987615 0.722952 0.345371
Si Si5 0.986003 0.687296 0.799257
Si Si6 0.823428 0.026855 0.037832
O O1 0.535048 0.174826 0.112206
O O2 0.690872 0.981734 0.168113
O O3 0.500000 0.000000 0.000000
O O4 0.468249 0.845931 0.058422
O O5 0.232425 0.437425 0.606193
O O6 0.388024 0.642136 0.760531
O O7 0.370211 0.283441 0.748056
O O8 0.784299 0.461233 0.994557
O O9 0.795784 0.123083 0.968528
O O10 0.988239 0.528774 0.316445
O O11 0.107472 0.835711 0.418597
O O12 0.000000 0.700866 0.750000
O O13 0.087331 0.821144 0.883157
#
# Coordination Sequence:
#
# PCOD9278605 Si02
#       6
#     8   8   8   8   8   8
#     4  10  23  45  64  93 131 170 217 263 318 391
#     4  10  24  42  66  91 134 167 218 268 324 385
#     4  10  20  44  64  93 135 170 206 279 322 384
#     4  11  25  40  69  97 122 175 217 270 319 393
#     4  11  22  41  65  96 128 169 219 271 330 381
#     4  10  22  41  67  92 133 167 216 270 333 377
#
# _framework density 21.116682999999998
#
# number of rings (size 3 to 8) (size 9 to 14) (size 15 to 20)
#    0.000    1.667    3.333    0.000    4.667    0.667 
#    6.000    1.667    0.000    0.000    0.000    0.000 
#    0.000    0.000    0.000    0.000    0.000    0.000 
#
# Total GULP energy -133710.759899 kJ/mol
# GULP energy per Si atom -5571.281662 kJ/mol
# Density = 2.106862 g / cm^3
# Si number density = 21.116683 Si / 1000 Ang^3
#
#
#
# Elastic Constant Matrix: (Units=GPa)
#
#
# Indices 1 2 3 4 5 6 
#
# 1 101.0090 27.7754 30.4866 0.0001 15.5697 0.0001
# 2 27.7754 126.7495 35.2976 0.0003 3.7964 -0.0002
# 3 30.4866 35.2976 80.0307 0.0000 5.1011 0.0000
# 4 0.0001 0.0003 0.0000 31.1930 0.0001 -0.5003
# 5 15.5697 3.7964 5.1011 0.0001 46.5116 0.0001
# 6 0.0001 -0.0002 0.0000 -0.5003 0.0001 30.0275
#
#
#
# Elastic Compliance Matrix: (Units=1/GPa)
#
#
# Indices 1 2 3 4 5 6 
#
# 1 0.011956 -0.001492 -0.003674 0.000000 -0.003477 0.000000
# 2 -0.001492 0.009185 -0.003491 0.000000 0.000133 0.000000
# 3 -0.003674 -0.003491 0.015446 0.000000 -0.000179 0.000000
# 4 0.000000 0.000000 0.000000 0.032067 0.000000 0.000534
# 5 -0.003477 0.000133 -0.000179 0.000000 0.022673 0.000000
# 6 0.000000 0.000000 0.000000 0.000534 0.000000 0.033312
#
#
# Mechanical properties :
#
#
# Convention : Reuss Voigt Hill
#
# Bulk Modulus (GPa) = 51.89203 54.98984 53.44093
# Shear Modulus (GPa) = 33.69795 35.82840 34.76318
#
# Velocity S-wave (km/s) = 3.99908 4.12355 4.06179
# Velocity P-wave (km/s) = 6.77870 6.98349 6.88186
#
# Compressibility (1/GPa) = 0.01927078
#
# Stress axis : x y z
#
# Youngs Moduli (GPa) = 83.64347 108.87543 64.74173
#
# Poissons Ratio (x) = 0.16249 0.23789
# Poissons Ratio (y) = 0.12484 0.22601
# Poissons Ratio (z) = 0.30734 0.38007
#
# Static dielectric constant tensor:
#      x y z
#    x 1.814670 0.000000 -0.018420 
#    y 0.000000 1.766950 0.000000 
#    z -0.018420 0.000000 1.865700 
# 
# From -- ./inp_files/279025.got.cif
#   From: 2010.05.17/outbox.cif.g08.bks.cpg/sg15_140_cif.got.tgz:279025.got - 2010.06.03 18:47:42.
