data_PCOD9278640
_publ_section_title
;
Structure prediction by ZEFSAII (Michael W. Deem and Ramdas Pophale) SiO2 
 PCOD9278640
Probable space group: C 2/C
;
_chemical_formula_sum "Si O2"
_cell_formula_units_Z 40
_cell_length_a 20.974282
_cell_length_b 8.902050
_cell_length_c 9.699268
_cell_angle_alpha 90.000000
_cell_angle_beta 67.131953
_cell_angle_gamma 90.000000
_cell_volume 1668.650450
_symmetry_space_group_name_H-M "C 2/C"
_symmetry_group_IT_number 15
_symmetry_cell_setting 'monoclinic'
loop_
_space_group_symop_operation_xyz
x,y,z
-x,y,1/2-z
-x,-y,-z
x,-y,1/2+z
1/2+x,1/2+y,z
1/2-x,1/2+y,1/2-z
1/2-x,1/2-y,-z
1/2+x,1/2-y,1/2+z
loop_
_atom_site_type_symbol
_atom_site_label
_atom_site_fract_x
_atom_site_fract_y
_atom_site_fract_z
Si Si1 0.000000 0.508925 0.250000
Si Si2 0.298681 0.137439 0.223773
Si Si3 0.343832 0.788355 0.196245
Si Si4 0.608196 0.254153 0.148064
Si Si5 0.418964 0.240194 0.925549
Si Si6 0.500000 0.504300 0.250000
O O1 0.061992 0.615951 0.240730
O O2 0.030534 0.402113 0.106940
O O3 0.221187 0.175290 0.245354
O O4 0.317145 0.220555 0.351526
O O5 0.314298 0.959501 0.215892
O O6 0.353284 0.217684 0.076025
O O7 0.389151 0.766387 0.294498
O O8 0.386104 0.754607 0.021283
O O9 0.565026 0.398536 0.232265
O O10 0.466617 0.386789 0.893265
#
# Coordination Sequence:
#
# PCOD9278640 Si02
#       6
#     4   8   8   8   8   4
#     4  10  20  44  66  96 124 172 216 274 324 400
#     4  12  26  45  70  98 134 179 225 276 329 394
#     4  12  26  45  70  98 134 179 225 276 329 394
#     4  11  25  44  71  98 134 174 224 275 336 394
#     4  11  25  44  71  98 134 174 224 275 336 394
#     4  10  28  44  70 104 136 176 216 282 332 400
#
# _framework density 23.971467000000001
#
# number of rings (size 3 to 8) (size 9 to 14) (size 15 to 20)
#    0.000    0.800    4.000    1.200    5.600    9.600 
#    0.000    0.000    0.000    0.000    0.000    0.000 
#    0.000    0.000    0.000    0.000    0.000    0.000 
#
# Total GULP energy -111915.145005 kJ/mol
# GULP energy per Si atom -5595.757250 kJ/mol
# Density = 2.391691 g / cm^3
# Si number density = 23.971467 Si / 1000 Ang^3
#
#
#
# Elastic Constant Matrix: (Units=GPa)
#
#
# Indices 1 2 3 4 5 6 
#
# 1 93.5726 26.2522 41.9752 0.0000 -9.4199 0.0000
# 2 26.2522 141.6081 22.2201 0.0000 -14.7383 0.0000
# 3 41.9752 22.2201 120.5549 0.0000 4.2379 0.0000
# 4 0.0000 0.0000 0.0000 17.6405 0.0000 -10.7249
# 5 -9.4199 -14.7383 4.2379 0.0000 40.4291 0.0000
# 6 0.0000 0.0000 0.0000 -10.7249 0.0000 35.0741
#
#
#
# Elastic Compliance Matrix: (Units=1/GPa)
#
#
# Indices 1 2 3 4 5 6 
#
# 1 0.013431 -0.001462 -0.004515 0.000000 0.003070 0.000000
# 2 -0.001462 0.007762 -0.001013 0.000000 0.002595 0.000000
# 3 -0.004515 -0.001013 0.010141 0.000000 -0.002484 0.000000
# 4 0.000000 0.000000 0.000000 0.069632 0.000000 0.021292
# 5 0.003070 0.002595 -0.002484 0.000000 0.026656 0.000000
# 6 0.000000 0.000000 0.000000 0.021292 0.000000 0.035022
#
#
# Mechanical properties :
#
#
# Convention : Reuss Voigt Hill
#
# Bulk Modulus (GPa) = 57.62175 59.62562 58.62369
# Shear Modulus (GPa) = 27.41085 36.31462 31.86274
#
# Velocity S-wave (km/s) = 3.38520 3.89641 3.64977
# Velocity P-wave (km/s) = 6.27450 6.72088 6.50152
#
# Compressibility (1/GPa) = 0.01735456
#
# Stress axis : x y z
#
# Youngs Moduli (GPa) = 74.45185 128.83621 98.60909
#
# Poissons Ratio (x) = 0.18836 0.44523
# Poissons Ratio (y) = 0.10885 0.09987
# Poissons Ratio (z) = 0.33616 0.13048
#
# Static dielectric constant tensor:
#      x y z
#    x 1.916000 0.000000 0.049510 
#    y 0.000000 1.926690 0.000000 
#    z 0.049510 0.000000 1.889010 
# 
# From -- ./inp_files/116195.got.cif
#   From: 2010.05.17/outbox.cif.g08.bks.cpg/sg15_59_cif.got.tgz:116195.got - 2010.06.03 18:47:42.
