data_PCOD9278225
_publ_section_title
;
Structure prediction by ZEFSAII (Michael W. Deem and Ramdas Pophale) SiO2 
 PCOD9278225
Probable space group: C 2/C
;
_chemical_formula_sum "Si O2"
_cell_formula_units_Z 52
_cell_length_a 9.512935
_cell_length_b 19.616434
_cell_length_c 17.491235
_cell_angle_alpha 90.000000
_cell_angle_beta 124.244496
_cell_angle_gamma 90.000000
_cell_volume 2698.195934
_symmetry_space_group_name_H-M "C 2/C"
_symmetry_group_IT_number 15
_symmetry_cell_setting 'monoclinic'
loop_
_space_group_symop_operation_xyz
x,y,z
-x,y,1/2-z
-x,-y,-z
x,-y,1/2+z
1/2+x,1/2+y,z
1/2-x,1/2+y,1/2-z
1/2-x,1/2-y,-z
1/2+x,1/2-y,1/2+z
loop_
_atom_site_type_symbol
_atom_site_label
_atom_site_fract_x
_atom_site_fract_y
_atom_site_fract_z
Si Si1 0.269831 0.213153 0.756475
Si Si2 0.500000 0.185739 0.250000
Si Si3 0.470053 0.943424 0.847380
Si Si4 0.653677 0.257141 0.889461
Si Si5 0.847329 0.915619 0.647036
Si Si6 0.181978 0.577259 0.780688
Si Si7 0.318925 0.475124 0.471941
O O1 0.464872 0.226509 0.839493
O O2 0.257025 0.229218 0.661057
O O3 0.237041 0.131558 0.752542
O O4 0.151167 0.263556 0.769508
O O5 0.486708 0.129309 0.178204
O O6 0.337452 0.928468 0.873562
O O7 0.363737 0.001107 0.764906
O O8 0.651319 0.976953 0.922219
O O9 0.628713 0.336179 0.861878
O O10 0.750000 0.250000 0.000000
O O11 0.849279 0.950091 0.565956
O O12 0.000000 0.938323 0.750000
O O13 0.276927 0.576035 0.890147
O O14 0.000000 0.606095 0.750000
O O15 0.500000 0.500000 0.500000
#
# Coordination Sequence:
#
# PCOD9278225 Si02
#       7
#     8   4   8   8   8   8   8
#     4  11  23  43  65  97 133 168 219 271 337 394
#     4  12  22  44  70  98 142 172 212 284 342 382
#     4  11  23  43  69  94 132 178 219 271 334 398
#     4  11  22  39  68  92 123 175 223 264 325 409
#     4  12  23  41  65  96 126 169 224 277 326 396
#     4  10  20  42  68  92 125 176 220 263 325 402
#     4  11  24  40  66  96 130 170 226 278 327 390
#
# _framework density 19.272136
#
# number of rings (size 3 to 8) (size 9 to 14) (size 15 to 20)
#    0.000    0.923    6.923    2.308    4.308    0.000 
#    4.154    0.769    0.000    0.000    0.000    0.000 
#    0.000    0.000    0.000    0.000    0.000    0.000 
#
# Total GULP energy -144735.120880 kJ/mol
# GULP energy per Si atom -5566.735418 kJ/mol
# Density = 1.922827 g / cm^3
# Si number density = 19.272136 Si / 1000 Ang^3
#
#
#
# Elastic Constant Matrix: (Units=GPa)
#
#
# Indices 1 2 3 4 5 6 
#
# 1 120.0845 51.7178 52.6179 0.0000 0.0268 0.0000
# 2 51.7178 95.0378 51.5497 0.0000 -0.9049 0.0000
# 3 52.6179 51.5497 141.2491 0.0000 0.0512 0.0000
# 4 0.0000 0.0000 0.0000 -306.7921 0.0000 133.3817
# 5 0.0268 -0.9049 0.0512 0.0000 21.5673 0.0000
# 6 0.0000 0.0000 0.0000 133.3817 0.0000 -34.7135
#
#
#
# Elastic Compliance Matrix: (Units=1/GPa)
#
#
# Indices 1 2 3 4 5 6 
#
# 1 0.011546 -0.004928 -0.002503 0.000000 -0.000215 0.000000
# 2 -0.004928 0.015229 -0.003722 0.000000 0.000654 0.000000
# 3 -0.002503 -0.003722 0.009371 0.000000 -0.000175 0.000000
# 4 0.000000 0.000000 0.000000 0.004861 0.000000 0.018679
# 5 -0.000215 0.000654 -0.000175 0.000000 0.046395 0.000000
# 6 0.000000 0.000000 0.000000 0.018679 0.000000 0.042963
#
#
# Mechanical properties :
#
#
# Convention : Reuss Voigt Hill
#
# Bulk Modulus (GPa) = 72.25424 74.23801 73.24612
# Shear Modulus (GPa) = 31.78951 -50.62192 -9.41621
#
# Velocity S-wave (km/s) = 4.06582 -5.13068 -2.21281
# Velocity P-wave (km/s) = 7.72102 1.87242 5.61783
#
# Compressibility (1/GPa) = 0.01384002
#
# Stress axis : x y z
#
# Youngs Moduli (GPa) = 86.60635 65.66355 106.71675
#
# Poissons Ratio (x) = 0.32358 0.26708
# Poissons Ratio (y) = 0.42679 0.39725
# Poissons Ratio (z) = 0.21675 0.24443
#
# Static dielectric constant tensor:
#      x y z
#    x 1.632260 0.000000 -0.027940 
#    y 0.000000 1.774140 0.000000 
#    z -0.027940 0.000000 1.650090 
# 
# From -- ./inp_files/191117.got.cif
#   From: 2010.05.17/outbox.cif.g08.bks.cpg/sg15_96_cif.got.tgz:191117.got - 2010.06.03 18:47:42.
