data_PCOD9278276
_publ_section_title
;
Structure prediction by ZEFSAII (Michael W. Deem and Ramdas Pophale) SiO2 
 PCOD9278276
Probable space group: C 2/C
;
_chemical_formula_sum "Si O2"
_cell_formula_units_Z 56
_cell_length_a 17.960650
_cell_length_b 8.057093
_cell_length_c 18.039967
_cell_angle_alpha 90.000000
_cell_angle_beta 71.833283
_cell_angle_gamma 90.000000
_cell_volume 2480.446464
_symmetry_space_group_name_H-M "C 2/C"
_symmetry_group_IT_number 15
_symmetry_cell_setting 'monoclinic'
loop_
_space_group_symop_operation_xyz
x,y,z
-x,y,1/2-z
-x,-y,-z
x,-y,1/2+z
1/2+x,1/2+y,z
1/2-x,1/2+y,1/2-z
1/2-x,1/2-y,-z
1/2+x,1/2-y,1/2+z
loop_
_atom_site_type_symbol
_atom_site_label
_atom_site_fract_x
_atom_site_fract_y
_atom_site_fract_z
Si Si1 0.279891 0.075118 0.461197
Si Si2 0.951555 0.548531 0.189941
Si Si3 0.488695 0.408375 0.163594
Si Si4 0.292043 0.829144 0.789793
Si Si5 0.367498 0.396080 0.928809
Si Si6 0.055176 0.578028 0.545469
Si Si7 0.655221 0.558526 0.232856
O O1 0.250000 0.250000 0.500000
O O2 0.273935 0.091797 0.374789
O O3 0.217439 0.947118 0.515065
O O4 0.369643 0.036429 0.456330
O O5 0.966236 0.725123 0.144936
O O6 0.861076 0.556497 0.235324
O O7 0.000000 0.552782 0.250000
O O8 0.992256 0.406655 0.131181
O O9 0.500000 0.397496 0.250000
O O10 0.566436 0.461488 0.097160
O O11 0.417143 0.537034 0.187401
O O12 0.319329 0.636012 0.790305
O O13 0.221719 0.842566 0.754620
O O14 0.403370 0.255964 0.970793
O O15 0.360956 0.356353 0.842047
O O16 0.000000 0.500000 0.500000
#
# Coordination Sequence:
#
# PCOD9278276 Si02
#       7
#     8   8   8   8   8   8   8
#     4  12  25  48  73  99 147 193 237 292 372 437
#     4  10  20  42  69  93 135 180 238 293 356 423
#     4   8  18  40  66  95 127 173 228 286 349 417
#     4  11  24  41  71 106 135 189 238 304 363 433
#     4  11  24  45  72  98 146 185 236 299 357 433
#     4  12  29  45  69 106 144 190 239 299 361 426
#     4  10  23  41  69 106 139 178 243 295 361 433
#
# _framework density 22.576581999999998
#
# number of rings (size 3 to 8) (size 9 to 14) (size 15 to 20)
#    0.000    1.429    2.857    2.143    4.000    6.286 
#    0.000    2.143    0.000    0.000    0.000    0.000 
#    0.000    0.000    0.000    0.000    0.000    0.000 
#
# Total GULP energy -156267.888050 kJ/mol
# GULP energy per Si atom -5580.996002 kJ/mol
# Density = 2.252520 g / cm^3
# Si number density = 22.576582 Si / 1000 Ang^3
#
#
#
# Elastic Constant Matrix: (Units=GPa)
#
#
# Indices 1 2 3 4 5 6 
#
# 1 90.6254 19.4799 40.3424 0.0000 5.6861 0.0000
# 2 19.4799 56.5445 19.9900 0.0000 -1.9149 0.0000
# 3 40.3424 19.9900 74.4688 0.0000 -11.4306 0.0000
# 4 0.0000 0.0000 0.0000 66.1555 0.0000 -29.0498
# 5 5.6861 -1.9149 -11.4306 0.0000 32.0562 0.0000
# 6 0.0000 0.0000 0.0000 -29.0498 0.0000 50.7915
#
#
#
# Elastic Compliance Matrix: (Units=1/GPa)
#
#
# Indices 1 2 3 4 5 6 
#
# 1 0.015924 -0.002553 -0.008884 0.000000 -0.006145 0.000000
# 2 -0.002553 0.019966 -0.003939 0.000000 0.000241 0.000000
# 3 -0.008884 -0.003939 0.020634 0.000000 0.008698 0.000000
# 4 0.000000 0.000000 0.000000 0.020185 0.000000 0.011545
# 5 -0.006145 0.000241 0.008698 0.000000 0.035401 0.000000
# 6 0.000000 0.000000 0.000000 0.011545 0.000000 0.026291
#
#
# Mechanical properties :
#
#
# Convention : Reuss Voigt Hill
#
# Bulk Modulus (GPa) = 38.80531 42.36259 40.58395
# Shear Modulus (GPa) = 28.13022 39.25572 33.69297
#
# Velocity S-wave (km/s) = 3.53369 4.17439 3.86733
# Velocity P-wave (km/s) = 5.82021 6.48373 6.16091
#
# Compressibility (1/GPa) = 0.02576967
#
# Stress axis : x y z
#
# Youngs Moduli (GPa) = 62.79955 50.08626 48.46368
#
# Poissons Ratio (x) = 0.12787 0.43057
# Poissons Ratio (y) = 0.16033 0.19092
# Poissons Ratio (z) = 0.55793 0.19731
#
# Static dielectric constant tensor:
#      x y z
#    x 2.495800 0.000000 0.343660 
#    y 0.000000 1.901730 0.000000 
#    z 0.343660 0.000000 2.016150 
# 
# From -- ./inp_files/209508.got.cif
#   From: 2010.05.17/outbox.cif.g08.bks.cpg/sg15_105_cif.got.tgz:209508.got - 2010.06.03 18:47:42.
