data_PCOD9278490
_publ_section_title
;
Structure prediction by ZEFSAII (Michael W. Deem and Ramdas Pophale) SiO2 
 PCOD9278490
Probable space group: C 2/C
;
_chemical_formula_sum "Si O2"
_cell_formula_units_Z 60
_cell_length_a 26.050700
_cell_length_b 7.341919
_cell_length_c 20.363204
_cell_angle_alpha 90.000000
_cell_angle_beta 31.489508
_cell_angle_gamma 90.000000
_cell_volume 2034.372121
_symmetry_space_group_name_H-M "C 2/C"
_symmetry_group_IT_number 15
_symmetry_cell_setting 'monoclinic'
loop_
_space_group_symop_operation_xyz
x,y,z
-x,y,1/2-z
-x,-y,-z
x,-y,1/2+z
1/2+x,1/2+y,z
1/2-x,1/2+y,1/2-z
1/2-x,1/2-y,-z
1/2+x,1/2-y,1/2+z
loop_
_atom_site_type_symbol
_atom_site_label
_atom_site_fract_x
_atom_site_fract_y
_atom_site_fract_z
Si Si1 0.500000 0.433221 0.250000
Si Si2 0.859713 0.811509 0.832875
Si Si3 0.546376 0.769367 0.836326
Si Si4 0.753140 0.566678 0.427237
Si Si5 0.125176 0.217975 0.401990
Si Si6 0.955640 0.645413 0.930650
Si Si7 0.286645 0.626147 0.658634
Si Si8 0.306932 0.079993 0.536740
O O1 0.596009 0.568863 0.154867
O O2 0.491472 0.313566 0.192178
O O3 0.808569 0.610944 0.899819
O O4 0.959421 0.780744 0.683033
O O5 0.785699 0.946439 0.874730
O O6 0.660001 0.810245 0.701694
O O7 0.508469 0.968423 0.899792
O O8 0.486004 0.665113 0.958701
O O9 0.698969 0.463237 0.427692
O O10 0.689865 0.748345 0.516645
O O11 0.172174 0.332255 0.292051
O O12 0.171998 0.322929 0.415303
O O13 0.181067 0.030162 0.328064
O O14 0.868868 0.718932 0.070811
O O15 0.898983 0.557823 0.930078
#
# Coordination Sequence:
#
# PCOD9278490 Si02
#       8
#     4   8   8   8   8   8   8   8
#     4  12  24  44  76  94 138 190 230 300 358 404
#     4  11  23  43  71  99 136 183 237 285 351 411
#     4  10  22  42  67 100 136 184 235 294 351 404
#     4  10  22  39  71  98 141 185 225 294 342 413
#     4  10  22  38  67  99 142 185 230 282 349 421
#     4  10  22  41  71 100 141 182 227 286 349 420
#     4  11  21  39  68 101 140 191 224 281 355 418
#     4  10  20  43  67  95 147 177 227 295 336 405
#
# _framework density 29.493127999999999
#
# number of rings (size 3 to 8) (size 9 to 14) (size 15 to 20)
#    0.000    1.600    2.667    2.400    0.000    2.667 
#    0.000    5.333    5.867    0.000    0.000    0.000 
#    0.000    0.000    0.000    0.000    0.000    0.000 
#
# Total GULP energy -167405.734881 kJ/mol
# GULP energy per Si atom -5580.191163 kJ/mol
# Density = 2.942600 g / cm^3
# Si number density = 29.493128 Si / 1000 Ang^3
#
#
#
# Elastic Constant Matrix: (Units=GPa)
#
#
# Indices 1 2 3 4 5 6 
#
# 1 95.3453 35.4558 17.7139 -0.0040 -26.7822 -0.0002
# 2 35.4558 194.3521 59.1493 -0.0166 -10.9309 0.0020
# 3 17.7139 59.1493 101.6437 -0.0079 12.6750 -0.0023
# 4 -0.0040 -0.0166 -0.0079 49.3854 0.0053 -12.7334
# 5 -26.7822 -10.9309 12.6750 0.0053 39.9131 -0.0033
# 6 -0.0002 0.0020 -0.0023 -12.7334 -0.0033 40.7193
#
#
#
# Elastic Compliance Matrix: (Units=1/GPa)
#
#
# Indices 1 2 3 4 5 6 
#
# 1 0.014391 -0.001076 -0.003175 -0.000001 0.010370 0.000001
# 2 -0.001076 0.006695 -0.004006 0.000001 0.002384 0.000000
# 3 -0.003175 -0.004006 0.013666 0.000002 -0.007568 0.000001
# 4 -0.000001 0.000001 0.000002 0.022025 -0.000003 0.006887
# 5 0.010370 0.002384 -0.007568 -0.000003 0.035069 0.000001
# 6 0.000001 0.000000 0.000001 0.006887 0.000001 0.026712
#
#
# Mechanical properties :
#
#
# Convention : Reuss Voigt Hill
#
# Bulk Modulus (GPa) = 54.82752 68.44213 61.63483
# Shear Modulus (GPa) = 35.42311 44.60503 40.01407
#
# Velocity S-wave (km/s) = 3.46940 3.89316 3.68737
# Velocity P-wave (km/s) = 5.88891 6.59283 6.25079
#
# Compressibility (1/GPa) = 0.01823902
#
# Stress axis : x y z
#
# Youngs Moduli (GPa) = 69.48720 149.37235 73.17288
#
# Poissons Ratio (x) = 0.16069 0.23234
# Poissons Ratio (y) = 0.07475 0.29310
# Poissons Ratio (z) = 0.22063 0.59832
#
# Static dielectric constant tensor:
#      x y z
#    x 2.336020 -0.000010 -0.083650 
#    y -0.000010 2.368770 0.000010 
#    z -0.083650 0.000010 2.769400 
# 
# From -- ./inp_files/284305.got.cif
#   From: 2010.05.17/outbox.cif.g08.bks.cpg/sg15_143_cif.got.tgz:284305.got - 2010.06.03 18:47:42.
