data_PCOD9278245
_publ_section_title
;
Structure prediction by ZEFSAII (Michael W. Deem and Ramdas Pophale) SiO2 
 PCOD9278245
Probable space group: C 2/C
;
_chemical_formula_sum "Si O2"
_cell_formula_units_Z 52
_cell_length_a 13.690797
_cell_length_b 14.228089
_cell_length_c 22.542534
_cell_angle_alpha 90.000000
_cell_angle_beta 149.868001
_cell_angle_gamma 90.000000
_cell_volume 2204.329037
_symmetry_space_group_name_H-M "C 2/C"
_symmetry_group_IT_number 15
_symmetry_cell_setting 'monoclinic'
loop_
_space_group_symop_operation_xyz
x,y,z
-x,y,1/2-z
-x,-y,-z
x,-y,1/2+z
1/2+x,1/2+y,z
1/2-x,1/2+y,1/2-z
1/2-x,1/2-y,-z
1/2+x,1/2-y,1/2+z
loop_
_atom_site_type_symbol
_atom_site_label
_atom_site_fract_x
_atom_site_fract_y
_atom_site_fract_z
Si Si1 0.690022 0.852455 0.071729
Si Si2 0.578677 0.485884 0.394387
Si Si3 0.500000 0.262637 0.750000
Si Si4 0.839183 0.163614 0.993064
Si Si5 0.708365 0.770643 0.208200
Si Si6 0.275467 0.103884 0.316685
Si Si7 0.006678 0.846987 0.454139
O O1 0.169314 0.921356 0.390743
O O2 0.758015 0.821548 0.172851
O O3 0.481148 0.904395 0.956427
O O4 0.634794 0.748472 0.016780
O O5 0.669590 0.587416 0.459206
O O6 0.354405 0.513243 0.263493
O O7 0.605319 0.427966 0.468706
O O8 0.636330 0.198287 0.861653
O O9 0.356658 0.330683 0.710689
O O10 0.956125 0.129324 0.995254
O O11 0.977922 0.250590 0.084740
O O12 0.793615 0.665150 0.265439
O O13 0.805341 0.827277 0.312838
#
# Coordination Sequence:
#
# PCOD9278245 Si02
#       7
#     8   8   4   8   8   8   8
#     4  10  21  44  64 100 136 181 220 270 349 407
#     4  11  24  40  67 102 137 173 221 288 340 389
#     4  12  20  44  70  92 126 182 234 270 342 414
#     4  10  22  40  66  99 131 174 229 281 330 396
#     4   9  18  40  67  87 129 179 214 273 327 399
#     4  10  23  42  65  99 130 174 236 277 328 415
#     4  10  20  42  68  94 135 179 226 267 339 416
#
# _framework density 23.589945
#
# number of rings (size 3 to 8) (size 9 to 14) (size 15 to 20)
#    0.000    1.846    4.615    0.923    0.000    5.538 
#    2.769    6.154    0.000    0.000    0.000    0.000 
#    0.000    0.000    0.000    0.000    0.000    0.000 
#
# Total GULP energy -145171.967620 kJ/mol
# GULP energy per Si atom -5583.537216 kJ/mol
# Density = 2.353625 g / cm^3
# Si number density = 23.589945 Si / 1000 Ang^3
#
#
#
# Elastic Constant Matrix: (Units=GPa)
#
#
# Indices 1 2 3 4 5 6 
#
# 1 117.3637 57.4615 26.3530 0.0000 -30.2801 0.0000
# 2 57.4615 132.3563 26.1538 0.0003 -4.2874 0.0000
# 3 26.3530 26.1538 83.9584 0.0012 -13.3123 0.0001
# 4 0.0000 0.0003 0.0012 36.8674 0.0002 -3.5724
# 5 -30.2801 -4.2874 -13.3123 0.0002 35.7362 -0.0001
# 6 0.0000 0.0000 0.0001 -3.5724 -0.0001 51.8951
#
#
#
# Elastic Compliance Matrix: (Units=1/GPa)
#
#
# Indices 1 2 3 4 5 6 
#
# 1 0.014412 -0.005702 -0.000977 0.000000 0.011163 0.000000
# 2 -0.005702 0.010307 -0.002116 0.000000 -0.004383 0.000000
# 3 -0.000977 -0.002116 0.013503 0.000000 0.003948 0.000000
# 4 0.000000 0.000000 0.000000 0.027306 0.000000 0.001880
# 5 0.011163 -0.004383 0.003948 0.000000 0.038387 0.000000
# 6 0.000000 0.000000 0.000000 0.001880 0.000000 0.019399
#
#
# Mechanical properties :
#
#
# Convention : Reuss Voigt Hill
#
# Bulk Modulus (GPa) = 48.47138 61.51278 54.99208
# Shear Modulus (GPa) = 33.83382 39.81375 36.82379
#
# Velocity S-wave (km/s) = 3.79125 4.11267 3.95523
# Velocity P-wave (km/s) = 6.30531 6.97743 6.64987
#
# Compressibility (1/GPa) = 0.02063073
#
# Stress axis : x y z
#
# Youngs Moduli (GPa) = 69.38710 97.02132 74.06018
#
# Poissons Ratio (x) = 0.55322 0.07238
# Poissons Ratio (y) = 0.39565 0.15671
# Poissons Ratio (z) = 0.06781 0.20529
#
# Static dielectric constant tensor:
#      x y z
#    x 1.982480 0.000000 -0.008260 
#    y 0.000000 1.920540 0.000000 
#    z -0.008260 0.000000 1.904990 
# 
# From -- ./inp_files/317899.got.cif
#   From: 2010.05.17/outbox.cif.g08.bks.cpg/sg15_159_cif.got.tgz:317899.got - 2010.06.03 18:47:42.
