data_PCOD9278762
_publ_section_title
;
Structure prediction by ZEFSAII (Michael W. Deem and Ramdas Pophale) SiO2 
 PCOD9278762
Probable space group: C 2/C
;
_chemical_formula_sum "Si O2"
_cell_formula_units_Z 52
_cell_length_a 15.601098
_cell_length_b 8.735526
_cell_length_c 23.601296
_cell_angle_alpha 90.000000
_cell_angle_beta 127.841151
_cell_angle_gamma 90.000000
_cell_volume 2540.096686
_symmetry_space_group_name_H-M "C 2/C"
_symmetry_group_IT_number 15
_symmetry_cell_setting 'monoclinic'
loop_
_space_group_symop_operation_xyz
x,y,z
-x,y,1/2-z
-x,-y,-z
x,-y,1/2+z
1/2+x,1/2+y,z
1/2-x,1/2+y,1/2-z
1/2-x,1/2-y,-z
1/2+x,1/2-y,1/2+z
loop_
_atom_site_type_symbol
_atom_site_label
_atom_site_fract_x
_atom_site_fract_y
_atom_site_fract_z
Si Si1 0.114605 0.118852 0.828399
Si Si2 0.000000 0.300469 0.250000
Si Si3 0.574286 0.916456 0.448524
Si Si4 0.833106 0.471232 0.627395
Si Si5 0.482789 0.610442 0.131211
Si Si6 0.354400 0.063564 0.907443
Si Si7 0.100926 0.922913 0.571450
O O1 0.135125 0.297682 0.845520
O O2 0.225500 0.057650 0.843705
O O3 0.000000 0.103252 0.750000
O O4 0.095221 0.023748 0.878451
O O5 0.097164 0.409901 0.307958
O O6 0.022602 0.197937 0.203858
O O7 0.576815 0.738916 0.431213
O O8 0.446515 0.967940 0.397472
O O9 0.640006 0.003712 0.427252
O O10 0.619900 0.955810 0.528657
O O11 0.709304 0.497975 0.592649
O O12 0.579974 0.557070 0.130105
O O13 0.384471 0.240895 0.934891
O O14 0.000000 0.000000 0.500000
#
# Coordination Sequence:
#
# PCOD9278762 Si02
#       7
#     8   4   8   8   8   8   8
#     4  11  22  40  62  93 122 164 206 260 317 381
#     4  10  20  46  58  86 122 170 212 248 316 384
#     4   9  20  42  62  88 120 167 205 261 310 371
#     4  10  22  41  67  86 124 167 209 254 314 383
#     4  10  22  41  60  91 130 158 213 262 313 385
#     4   9  21  41  63  89 129 161 211 257 316 380
#     4  10  23  41  61  97 128 160 213 270 320 374
#
# _framework density 20.471661999999998
#
# number of rings (size 3 to 8) (size 9 to 14) (size 15 to 20)
#    0.000    2.154    1.538    0.000    4.308    1.846 
#   24.923    0.000    0.000    0.000    0.000    0.000 
#    0.000    0.000    0.000    0.000    0.000    0.000 
#
# Total GULP energy -145033.675628 kJ/mol
# GULP energy per Si atom -5578.218293 kJ/mol
# Density = 2.042507 g / cm^3
# Si number density = 20.471662 Si / 1000 Ang^3
#
#
#
# Elastic Constant Matrix: (Units=GPa)
#
#
# Indices 1 2 3 4 5 6 
#
# 1 194.5818 46.5409 65.6925 0.0000 13.9174 0.0000
# 2 46.5409 54.6497 33.0816 0.0000 2.1032 0.0000
# 3 65.6925 33.0816 74.6666 0.0000 9.0031 0.0000
# 4 0.0000 0.0000 0.0000 18.5050 0.0000 -6.0610
# 5 13.9174 2.1032 9.0031 0.0000 36.5136 0.0000
# 6 0.0000 0.0000 0.0000 -6.0610 0.0000 30.2135
#
#
#
# Elastic Compliance Matrix: (Units=1/GPa)
#
#
# Indices 1 2 3 4 5 6 
#
# 1 0.007821 -0.003481 -0.005157 0.000000 -0.001509 0.000000
# 2 -0.003481 0.026617 -0.008972 0.000000 0.002006 0.000000
# 3 -0.005157 -0.008972 0.022268 0.000000 -0.003008 0.000000
# 4 0.000000 0.000000 0.000000 0.057840 0.000000 0.011603
# 5 -0.001509 0.002006 -0.003008 0.000000 0.028588 0.000000
# 6 0.000000 0.000000 0.000000 0.011603 0.000000 0.035425
#
#
# Mechanical properties :
#
#
# Convention : Reuss Voigt Hill
#
# Bulk Modulus (GPa) = 46.54215 68.28090 57.41153
# Shear Modulus (GPa) = 22.63067 28.95198 25.79132
#
# Velocity S-wave (km/s) = 3.32846 3.76473 3.55329
# Velocity P-wave (km/s) = 6.12828 7.23352 6.70372
#
# Compressibility (1/GPa) = 0.02148590
#
# Stress axis : x y z
#
# Youngs Moduli (GPa) = 127.86815 37.57058 44.90822
#
# Poissons Ratio (x) = 0.13077 0.23157
# Poissons Ratio (y) = 0.44506 0.40293
# Poissons Ratio (z) = 0.65936 0.33709
#
# Static dielectric constant tensor:
#      x y z
#    x 1.758380 0.000000 0.004440 
#    y 0.000000 1.752970 0.000000 
#    z 0.004440 0.000000 1.737740 
# 
# From -- ./inp_files/294879.got.cif
#   From: 2010.05.17/outbox.cif.g08.bks.cpg/sg15_148_cif.got.tgz:294879.got - 2010.06.03 18:47:42.
