data_PCOD9278373
_publ_section_title
;
Structure prediction by ZEFSAII (Michael W. Deem and Ramdas Pophale) SiO2 
 PCOD9278373
Probable space group: C 2/C
;
_chemical_formula_sum "Si O2"
_cell_formula_units_Z 40
_cell_length_a 22.253321
_cell_length_b 6.601155
_cell_length_c 22.412301
_cell_angle_alpha 90.000000
_cell_angle_beta 29.876223
_cell_angle_gamma 90.000000
_cell_volume 1639.993462
_symmetry_space_group_name_H-M "C 2/C"
_symmetry_group_IT_number 15
_symmetry_cell_setting 'monoclinic'
loop_
_space_group_symop_operation_xyz
x,y,z
-x,y,1/2-z
-x,-y,-z
x,-y,1/2+z
1/2+x,1/2+y,z
1/2-x,1/2+y,1/2-z
1/2-x,1/2-y,-z
1/2+x,1/2-y,1/2+z
loop_
_atom_site_type_symbol
_atom_site_label
_atom_site_fract_x
_atom_site_fract_y
_atom_site_fract_z
Si Si1 0.720569 0.631693 0.150230
Si Si2 0.637654 0.595212 0.606534
Si Si3 0.004202 0.112977 0.881689
Si Si4 0.371789 0.825845 0.092511
Si Si5 0.655329 0.968841 0.764384
O O1 0.687277 0.570162 0.111109
O O2 0.608540 0.548238 0.285955
O O3 0.831031 0.497016 0.079370
O O4 0.719183 0.865706 0.168262
O O5 0.500000 0.648589 0.750000
O O6 0.750000 0.750000 0.500000
O O7 0.601627 0.539116 0.570174
O O8 0.061580 0.327695 0.810028
O O9 0.963764 0.173184 0.982195
O O10 0.404053 0.928257 0.126753
O O11 0.253366 0.688563 0.205186
#
# Coordination Sequence:
#
# PCOD9278373 Si02
#       5
#     8   8   8   8   8
#     4  10  22  41  62  97 132 175 232 279 346 421
#     4  10  20  42  72  94 136 181 231 288 349 409
#     4  10  23  40  66  95 133 180 228 286 354 414
#     4  11  21  40  64  94 137 175 221 289 349 417
#     4  11  23  40  65 100 134 179 229 286 354 423
#
# _framework density 24.390339000000001
#
# number of rings (size 3 to 8) (size 9 to 14) (size 15 to 20)
#    0.000    1.600    4.000    0.600    0.000    2.400 
#    0.000   16.000    0.000    0.000    0.000    0.000 
#    0.000    0.000    0.000    0.000    0.000    0.000 
#
# Total GULP energy -111639.952808 kJ/mol
# GULP energy per Si atom -5581.997640 kJ/mol
# Density = 2.433483 g / cm^3
# Si number density = 24.390339 Si / 1000 Ang^3
#
#
#
# Elastic Constant Matrix: (Units=GPa)
#
#
# Indices 1 2 3 4 5 6 
#
# 1 135.6574 65.1264 17.3209 -0.0094 -2.4383 0.0037
# 2 65.1264 52.3752 7.0170 -0.0179 8.7496 0.0080
# 3 17.3209 7.0170 97.1437 -0.0079 0.6678 0.0016
# 4 -0.0094 -0.0179 -0.0079 25.6160 -0.0002 7.8951
# 5 -2.4383 8.7496 0.6678 -0.0002 36.1615 0.0043
# 6 0.0037 0.0080 0.0016 7.8951 0.0043 36.0495
#
#
#
# Elastic Compliance Matrix: (Units=1/GPa)
#
#
# Indices 1 2 3 4 5 6 
#
# 1 0.020479 -0.026534 -0.001789 -0.000013 0.007834 0.000006
# 2 -0.026534 0.054470 0.000900 0.000033 -0.014985 -0.000015
# 3 -0.001789 0.000900 0.010552 0.000004 -0.000533 -0.000001
# 4 -0.000013 0.000033 0.000004 0.041864 -0.000008 -0.009168
# 5 0.007834 -0.014985 -0.000533 -0.000008 0.031818 0.000000
# 6 0.000006 -0.000015 -0.000001 -0.009168 0.000000 0.029748
#
#
# Mechanical properties :
#
#
# Convention : Reuss Voigt Hill
#
# Bulk Modulus (GPa) = 32.62175 51.56721 42.09448
# Shear Modulus (GPa) = 19.68539 32.61285 26.14912
#
# Velocity S-wave (km/s) = 2.84403 3.66063 3.27786
# Velocity P-wave (km/s) = 4.91819 6.24943 5.62334
#
# Compressibility (1/GPa) = 0.03065439
#
# Stress axis : x y z
#
# Youngs Moduli (GPa) = 48.82976 18.35863 94.77196
#
# Poissons Ratio (x) = 0.48713 0.16952
# Poissons Ratio (y) = 1.29566 -0.08526
# Poissons Ratio (z) = 0.08734 -0.01652
#
# Static dielectric constant tensor:
#      x y z
#    x 1.918470 0.000000 -0.007310 
#    y 0.000000 1.934730 0.000000 
#    z -0.007310 0.000000 2.060320 
# 
# From -- ./inp_files/301764.got.cif
#   From: 2010.05.17/outbox.cif.g08.bks.cpg/sg15_151_cif.got.tgz:301764.got - 2010.06.03 18:47:42.
