data_PCOD9278622
_publ_section_title
;
Structure prediction by ZEFSAII (Michael W. Deem and Ramdas Pophale) SiO2 
 PCOD9278622
Probable space group: C 2/C
;
_chemical_formula_sum "Si O2"
_cell_formula_units_Z 52
_cell_length_a 21.414917
_cell_length_b 10.143444
_cell_length_c 21.605860
_cell_angle_alpha 90.000000
_cell_angle_beta 29.719712
_cell_angle_gamma 90.000000
_cell_volume 2326.712199
_symmetry_space_group_name_H-M "C 2/C"
_symmetry_group_IT_number 15
_symmetry_cell_setting 'monoclinic'
loop_
_space_group_symop_operation_xyz
x,y,z
-x,y,1/2-z
-x,-y,-z
x,-y,1/2+z
1/2+x,1/2+y,z
1/2-x,1/2+y,1/2-z
1/2-x,1/2-y,-z
1/2+x,1/2-y,1/2+z
loop_
_atom_site_type_symbol
_atom_site_label
_atom_site_fract_x
_atom_site_fract_y
_atom_site_fract_z
Si Si1 0.710767 0.439576 0.157404
Si Si2 0.010168 0.391630 0.546295
Si Si3 0.655727 0.536006 0.003720
Si Si4 0.500000 0.570496 0.750000
Si Si5 0.945660 0.512089 0.236309
Si Si6 0.522798 0.400016 0.426289
Si Si7 0.831733 0.686808 0.985741
O O1 0.613348 0.367221 0.193906
O O2 0.636039 0.448951 0.285550
O O3 0.748932 0.580221 0.094373
O O4 0.844258 0.376491 0.058373
O O5 0.000000 0.500000 0.500000
O O6 0.944259 0.427532 0.668563
O O7 0.959792 0.250055 0.569134
O O8 0.804658 0.521767 0.876758
O O9 0.630047 0.686629 0.006245
O O10 0.578901 0.514885 0.133042
O O11 0.601125 0.420645 0.008634
O O12 0.000000 0.588755 0.250000
O O13 0.042994 0.389195 0.144649
O O14 0.500000 0.500000 0.500000
O O15 0.750000 0.750000 0.000000
#
# Coordination Sequence:
#
# PCOD9278622 Si02
#       7
#     8   8   8   4   8   8   8
#     4  10  24  44  73 105 152 192 251 314 376 451
#     4  11  28  51  75 108 153 202 255 316 387 462
#     4  11  24  39  70 103 152 186 249 302 375 442
#     4  10  20  44  66 110 148 202 232 324 374 450
#     4  11  24  43  70 112 143 202 252 310 372 457
#     4  11  29  48  72 105 144 201 255 307 384 456
#     4  11  21  39  71 110 152 185 248 308 380 441
#
# _framework density 22.349132000000001
#
# number of rings (size 3 to 8) (size 9 to 14) (size 15 to 20)
#    0.000    1.231    3.077    0.923   14.000    0.000 
#    5.538    3.846    0.000    0.000    0.000    0.000 
#    0.000    0.000    0.000    0.000    0.000    0.000 
#
# Total GULP energy -145030.136311 kJ/mol
# GULP energy per Si atom -5578.082166 kJ/mol
# Density = 2.229826 g / cm^3
# Si number density = 22.349132 Si / 1000 Ang^3
#
#
#
# Elastic Constant Matrix: (Units=GPa)
#
#
# Indices 1 2 3 4 5 6 
#
# 1 76.9502 43.3862 58.4548 0.0000 21.1628 0.0000
# 2 43.3862 117.4267 54.1833 0.0001 26.9911 -0.0001
# 3 58.4548 54.1833 169.8369 0.0000 0.2083 0.0000
# 4 0.0000 0.0001 0.0000 3.1365 0.0000 -1.7535
# 5 21.1628 26.9911 0.2083 0.0000 40.9899 0.0000
# 6 0.0000 -0.0001 0.0000 -1.7535 0.0000 35.3636
#
#
#
# Elastic Compliance Matrix: (Units=1/GPa)
#
#
# Indices 1 2 3 4 5 6 
#
# 1 0.022451 -0.002963 -0.006770 0.000000 -0.009605 0.000000
# 2 -0.002963 0.012519 -0.002966 0.000000 -0.006699 0.000000
# 3 -0.006770 -0.002966 0.009158 0.000000 0.005402 0.000000
# 4 0.000000 0.000000 0.000000 0.327922 0.000000 0.016260
# 5 -0.009605 -0.006699 0.005402 0.000000 0.033739 0.000000
# 6 0.000000 0.000000 0.000000 0.016260 0.000000 0.029084
#
#
# Mechanical properties :
#
#
# Convention : Reuss Voigt Hill
#
# Bulk Modulus (GPa) = 53.39267 75.14028 64.26648
# Shear Modulus (GPa) = 10.71782 29.77731 20.24757
#
# Velocity S-wave (km/s) = 2.19227 3.65412 3.01319
# Velocity P-wave (km/s) = 5.50910 7.17618 6.39718
#
# Compressibility (1/GPa) = 0.01872916
#
# Stress axis : x y z
#
# Youngs Moduli (GPa) = 44.54226 79.87868 109.19831
#
# Poissons Ratio (x) = 0.23670 0.73926
# Poissons Ratio (y) = 0.13199 0.32386
# Poissons Ratio (z) = 0.30155 0.23691
#
# Static dielectric constant tensor:
#      x y z
#    x 1.874960 0.000000 0.007380 
#    y 0.000000 1.875860 0.000000 
#    z 0.007380 0.000000 1.789540 
# 
# From -- ./inp_files/252710.got.cif
#   From: 2010.05.17/outbox.cif.g08.bks.cpg/sg15_127_cif.got.tgz:252710.got - 2010.06.03 18:47:42.
