data_PCOD9278312
_publ_section_title
;
Structure prediction by ZEFSAII (Michael W. Deem and Ramdas Pophale) SiO2 
 PCOD9278312
Probable space group: C 2/C
;
_chemical_formula_sum "Si O2"
_cell_formula_units_Z 64
_cell_length_a 9.245486
_cell_length_b 28.343624
_cell_length_c 17.970783
_cell_angle_alpha 90.000000
_cell_angle_beta 138.603985
_cell_angle_gamma 90.000000
_cell_volume 3114.039910
_symmetry_space_group_name_H-M "C 2/C"
_symmetry_group_IT_number 15
_symmetry_cell_setting 'monoclinic'
loop_
_space_group_symop_operation_xyz
x,y,z
-x,y,1/2-z
-x,-y,-z
x,-y,1/2+z
1/2+x,1/2+y,z
1/2-x,1/2+y,1/2-z
1/2-x,1/2-y,-z
1/2+x,1/2-y,1/2+z
loop_
_atom_site_type_symbol
_atom_site_label
_atom_site_fract_x
_atom_site_fract_y
_atom_site_fract_z
Si Si1 0.562298 0.159941 0.098307
Si Si2 0.577543 0.693224 0.944211
Si Si3 0.427641 0.451654 0.514624
Si Si4 0.953835 0.473807 0.322384
Si Si5 0.255856 0.886874 0.184001
Si Si6 0.873009 0.733249 0.267780
Si Si7 0.042431 0.263812 0.468832
Si Si8 0.305416 0.564507 0.234031
O O1 0.706647 0.194777 0.205145
O O2 0.656899 0.108401 0.149611
O O3 0.571044 0.186074 0.021871
O O4 0.312022 0.167685 0.030229
O O5 0.389843 0.656537 0.849983
O O6 0.559278 0.734306 0.876134
O O7 0.505077 0.720874 0.991047
O O8 0.500000 0.500000 0.500000
O O9 0.380824 0.411798 0.435120
O O10 0.585428 0.433560 0.640826
O O11 0.184185 0.463193 0.449790
O O12 0.801683 0.427538 0.262249
O O13 0.840894 0.517965 0.315575
O O14 0.000000 0.481992 0.250000
O O15 0.500000 0.873481 0.250000
O O16 0.671929 0.764322 0.164549
O O17 0.000000 0.708253 0.250000
O O18 0.250000 0.250000 0.500000
O O19 0.500000 0.559538 0.250000
#
# Coordination Sequence:
#
# PCOD9278312 Si02
#       8
#     8   8   8   8   8   8   8   8
#     4  11  26  42  62 101 137 169 227 271 336 407
#     4  11  23  41  67  98 126 173 229 271 319 409
#     4  10  20  42  70  91 129 175 225 262 324 407
#     4   9  20  44  68  93 126 177 228 269 322 407
#     4   9  21  39  64  98 122 163 232 271 308 388
#     4  11  21  44  66  88 131 181 216 266 330 398
#     4  11  25  43  68  94 135 178 217 278 341 394
#     4  12  27  41  65 106 142 167 216 293 350 385
#
# _framework density 20.55208
#
# number of rings (size 3 to 8) (size 9 to 14) (size 15 to 20)
#    0.000    1.750    5.000    0.750    7.000    2.000 
#    2.250    0.625    0.000    0.000    0.000    0.000 
#    0.000    0.000    0.000    0.000    0.000    0.000 
#
# Total GULP energy -178443.656239 kJ/mol
# GULP energy per Si atom -5576.364257 kJ/mol
# Density = 2.050530 g / cm^3
# Si number density = 20.552080 Si / 1000 Ang^3
#
#
#
# Elastic Constant Matrix: (Units=GPa)
#
#
# Indices 1 2 3 4 5 6 
#
# 1 75.9570 38.4411 20.3745 0.0000 14.7519 0.0000
# 2 38.4411 121.9573 32.7989 0.0000 19.2605 0.0000
# 3 20.3745 32.7989 88.8740 0.0000 12.8595 0.0000
# 4 0.0000 0.0000 0.0000 37.2912 0.0000 6.8812
# 5 14.7519 19.2605 12.8595 0.0000 16.7610 0.0000
# 6 0.0000 0.0000 0.0000 6.8812 0.0000 23.7167
#
#
#
# Elastic Compliance Matrix: (Units=1/GPa)
#
#
# Indices 1 2 3 4 5 6 
#
# 1 0.017243 -0.003499 -0.001178 0.000000 -0.010251 0.000000
# 2 -0.003499 0.011158 -0.002144 0.000000 -0.008097 0.000000
# 3 -0.001178 -0.002144 0.013281 0.000000 -0.006689 0.000000
# 4 0.000000 0.000000 0.000000 0.028333 0.000000 -0.008221
# 5 -0.010251 -0.008097 -0.006689 0.000000 0.083121 0.000000
# 6 0.000000 0.000000 0.000000 -0.008221 0.000000 0.044550
#
#
# Mechanical properties :
#
#
# Convention : Reuss Voigt Hill
#
# Bulk Modulus (GPa) = 35.66450 52.22413 43.94432
# Shear Modulus (GPa) = 22.65772 28.56537 25.61155
#
# Velocity S-wave (km/s) = 3.32392 3.73218 3.53395
# Velocity P-wave (km/s) = 5.66765 6.63612 6.17091
#
# Compressibility (1/GPa) = 0.02803908
#
# Stress axis : x y z
#
# Youngs Moduli (GPa) = 57.99362 89.62238 75.29492
#
# Poissons Ratio (x) = 0.31361 0.08872
# Poissons Ratio (y) = 0.20293 0.16143
# Poissons Ratio (z) = 0.06834 0.19215
#
# Static dielectric constant tensor:
#      x y z
#    x 1.766020 0.000000 -0.030340 
#    y 0.000000 1.728180 0.000000 
#    z -0.030340 0.000000 1.794910 
# 
# From -- ./inp_files/194273.got.cif
#   From: 2010.05.17/outbox.cif.g08.bks.cpg/sg15_98_cif.got.tgz:194273.got - 2010.06.03 18:47:42.
