data_PCOD9278920
_publ_section_title
;
Structure prediction by ZEFSAII (Michael W. Deem and Ramdas Pophale) SiO2 
 PCOD9278920
Probable space group: C 2/C
;
_chemical_formula_sum "Si O2"
_cell_formula_units_Z 56
_cell_length_a 30.739225
_cell_length_b 8.784267
_cell_length_c 9.461909
_cell_angle_alpha 90.000000
_cell_angle_beta 119.091490
_cell_angle_gamma 90.000000
_cell_volume 2232.602155
_symmetry_space_group_name_H-M "C 2/C"
_symmetry_group_IT_number 15
_symmetry_cell_setting 'monoclinic'
loop_
_space_group_symop_operation_xyz
x,y,z
-x,y,1/2-z
-x,-y,-z
x,-y,1/2+z
1/2+x,1/2+y,z
1/2-x,1/2+y,1/2-z
1/2-x,1/2-y,-z
1/2+x,1/2-y,1/2+z
loop_
_atom_site_type_symbol
_atom_site_label
_atom_site_fract_x
_atom_site_fract_y
_atom_site_fract_z
Si Si1 0.286031 0.001565 0.359345
Si Si2 0.693613 0.195436 0.367766
Si Si3 0.461129 0.664707 0.055285
Si Si4 0.802454 0.794331 0.713444
Si Si5 0.380232 0.631754 0.585987
Si Si6 0.453156 0.696703 0.496471
Si Si7 0.885106 0.775190 0.635856
O O1 0.306676 0.128946 0.287775
O O2 0.236975 0.070317 0.352687
O O3 0.319198 0.934031 0.536463
O O4 0.277976 0.857438 0.241525
O O5 0.750000 0.250000 0.500000
O O6 0.651458 0.317613 0.329254
O O7 0.500000 0.651933 0.250000
O O8 0.492024 0.732260 0.972856
O O9 0.415267 0.766712 0.041161
O O10 0.449374 0.490357 0.988636
O O11 0.829029 0.759979 0.606656
O O12 0.842566 0.848241 0.893757
O O13 0.428712 0.724455 0.610811
O O14 0.391288 0.457033 0.629174
O O15 0.417803 0.772145 0.322718
#
# Coordination Sequence:
#
# PCOD9278920 Si02
#       7
#     8   8   8   8   8   8   8
#     4  11  22  38  56  74 105 144 182 230 271 324
#     4  11  21  39  53  77 107 142 183 229 274 321
#     4   8  13  23  40  65 101 129 162 207 258 317
#     4  10  21  33  49  73  98 139 180 220 268 320
#     4   9  17  31  48  66 104 136 167 215 272 315
#     4   8  14  24  41  69  96 134 167 203 266 319
#     4   9  16  27  45  69  98 135 170 214 265 318
#
# _framework density 25.082839
#
# number of rings (size 3 to 8) (size 9 to 14) (size 15 to 20)
#    0.000    2.571    2.857    0.857    0.000    0.571 
#    0.000    1.429    0.000    0.000    0.000    1.000 
#    0.000   45.714    0.000   25.714    0.000    0.143 
#
# Total GULP energy -156186.611072 kJ/mol
# GULP energy per Si atom -5578.093253 kJ/mol
# Density = 2.502575 g / cm^3
# Si number density = 25.082839 Si / 1000 Ang^3
#
#
#
# Elastic Constant Matrix: (Units=GPa)
#
#
# Indices 1 2 3 4 5 6 
#
# 1 181.5498 24.0935 4.1206 0.0000 -28.8128 0.0000
# 2 24.0935 21.6920 0.7558 0.0000 -8.4979 0.0000
# 3 4.1206 0.7558 88.1706 0.0000 3.9649 0.0000
# 4 0.0000 0.0000 0.0000 26.9369 0.0000 -14.6034
# 5 -28.8128 -8.4979 3.9649 0.0000 24.7642 0.0000
# 6 0.0000 0.0000 0.0000 -14.6034 0.0000 23.4364
#
#
#
# Elastic Compliance Matrix: (Units=1/GPa)
#
#
# Indices 1 2 3 4 5 6 
#
# 1 0.007316 -0.005468 -0.000598 0.000000 0.006731 0.000000
# 2 -0.005468 0.057492 -0.000844 0.000000 0.013502 0.000000
# 3 -0.000598 -0.000844 0.011504 0.000000 -0.002827 0.000000
# 4 0.000000 0.000000 0.000000 0.056062 0.000000 0.034932
# 5 0.006731 0.013502 -0.002827 0.000000 0.053298 0.000000
# 6 0.000000 0.000000 0.000000 0.034932 0.000000 0.064435
#
#
# Mechanical properties :
#
#
# Convention : Reuss Voigt Hill
#
# Bulk Modulus (GPa) = 16.00215 38.81690 27.40952
# Shear Modulus (GPa) = 17.55884 32.52367 25.04126
#
# Velocity S-wave (km/s) = 2.64869 3.60481 3.16308
# Velocity P-wave (km/s) = 3.96833 5.73021 4.92864
#
# Compressibility (1/GPa) = 0.06249160
#
# Stress axis : x y z
#
# Youngs Moduli (GPa) = 136.69511 17.39378 86.92665
#
# Poissons Ratio (x) = 0.09510 0.05196
# Poissons Ratio (y) = 0.74741 0.07340
# Poissons Ratio (z) = 0.08170 0.01469
#
# Static dielectric constant tensor:
#      x y z
#    x 2.124030 0.000000 0.019590 
#    y 0.000000 2.025010 0.000000 
#    z 0.019590 0.000000 2.061390 
# 
# From -- ./inp_files/125626.got.cif
#   From: 2010.05.17/outbox.cif.g08.bks.cpg/sg15_63_cif.got.tgz:125626.got - 2010.06.03 18:47:42.
