data_PCOD9278653
_publ_section_title
;
Structure prediction by ZEFSAII (Michael W. Deem and Ramdas Pophale) SiO2 
 PCOD9278653
Probable space group: C 2/C
;
_chemical_formula_sum "Si O2"
_cell_formula_units_Z 48
_cell_length_a 25.492232
_cell_length_b 9.011934
_cell_length_c 14.531823
_cell_angle_alpha 90.000000
_cell_angle_beta 45.355394
_cell_angle_gamma 90.000000
_cell_volume 2375.243649
_symmetry_space_group_name_H-M "C 2/C"
_symmetry_group_IT_number 15
_symmetry_cell_setting 'monoclinic'
loop_
_space_group_symop_operation_xyz
x,y,z
-x,y,1/2-z
-x,-y,-z
x,-y,1/2+z
1/2+x,1/2+y,z
1/2-x,1/2+y,1/2-z
1/2-x,1/2-y,-z
1/2+x,1/2-y,1/2+z
loop_
_atom_site_type_symbol
_atom_site_label
_atom_site_fract_x
_atom_site_fract_y
_atom_site_fract_z
Si Si1 0.560357 0.320306 0.608316
Si Si2 0.710939 0.476634 0.225019
Si Si3 0.962167 0.344365 0.558842
Si Si4 0.210414 0.098121 0.021271
Si Si5 0.796041 0.624010 0.275927
Si Si6 0.054548 0.081345 0.502403
O O1 0.500000 0.252871 0.750000
O O2 0.556471 0.233831 0.516482
O O3 0.638721 0.337994 0.558686
O O4 0.541418 0.492020 0.611029
O O5 0.699063 0.518706 0.133379
O O6 0.778420 0.550912 0.197861
O O7 0.722637 0.298890 0.212004
O O8 0.637723 0.542736 0.367038
O O9 0.881545 0.370759 0.700676
O O10 0.000000 0.500000 0.500000
O O11 0.022267 0.245482 0.539184
O O12 0.250000 0.250000 0.000000
O O13 0.251546 0.980537 0.902981
O O14 0.000000 0.000000 0.500000
#
# Coordination Sequence:
#
# PCOD9278653 Si02
#       6
#     8   8   8   8   8   8
#     4  11  23  44  70  98 136 184 233 276 346 426
#     4  12  24  45  70  99 139 180 233 289 354 416
#     4  11  25  42  67 102 135 181 227 285 352 404
#     4  12  26  43  71 104 135 184 234 292 349 417
#     4  12  25  45  70 101 140 181 233 290 349 430
#     4  10  20  44  67  93 132 181 226 274 345 415
#
# _framework density 20.208452000000001
#
# number of rings (size 3 to 8) (size 9 to 14) (size 15 to 20)
#    0.000    0.667    5.000    4.500    7.000    0.000 
#    0.000    0.833    0.000    0.000    0.000    0.000 
#    0.000    0.000    0.000    0.000    0.000    0.000 
#
# Total GULP energy -133738.014881 kJ/mol
# GULP energy per Si atom -5572.417287 kJ/mol
# Density = 2.016246 g / cm^3
# Si number density = 20.208452 Si / 1000 Ang^3
#
#
#
# Elastic Constant Matrix: (Units=GPa)
#
#
# Indices 1 2 3 4 5 6 
#
# 1 107.6918 57.9772 27.6203 0.0000 2.4215 0.0000
# 2 57.9772 143.6567 13.0639 0.0003 -18.8866 -0.0001
# 3 27.6203 13.0639 86.7119 0.0001 0.0039 0.0000
# 4 0.0000 0.0003 0.0001 8.6961 0.0000 -2.9783
# 5 2.4215 -18.8866 0.0039 0.0000 28.4640 0.0000
# 6 0.0000 -0.0001 0.0000 -2.9783 0.0000 35.3988
#
#
#
# Elastic Compliance Matrix: (Units=1/GPa)
#
#
# Indices 1 2 3 4 5 6 
#
# 1 0.013350 -0.005729 -0.003389 0.000000 -0.004936 0.000000
# 2 -0.005729 0.010201 0.000288 0.000000 0.007256 0.000000
# 3 -0.003389 0.000288 0.012569 0.000000 0.000477 0.000000
# 4 0.000000 0.000000 0.000000 0.118406 0.000000 0.009962
# 5 -0.004936 0.007256 0.000477 0.000000 0.040366 0.000000
# 6 0.000000 0.000000 0.000000 0.009962 0.000000 0.029088
#
#
# Mechanical properties :
#
#
# Convention : Reuss Voigt Hill
#
# Bulk Modulus (GPa) = 54.17366 59.48703 56.83034
# Shear Modulus (GPa) = 20.17814 30.47172 25.32493
#
# Velocity S-wave (km/s) = 3.16333 3.88734 3.54388
# Velocity P-wave (km/s) = 6.34097 7.04622 6.70287
#
# Compressibility (1/GPa) = 0.01845916
#
# Stress axis : x y z
#
# Youngs Moduli (GPa) = 74.90619 98.03189 79.56321
#
# Poissons Ratio (x) = 0.56159 0.26965
# Poissons Ratio (y) = 0.42911 -0.02288
# Poissons Ratio (z) = 0.25386 -0.02819
#
# Static dielectric constant tensor:
#      x y z
#    x 1.775430 0.000000 -0.018470 
#    y 0.000000 1.774480 0.000000 
#    z -0.018470 0.000000 1.798810 
# 
# From -- ./inp_files/176880.got.cif
#   From: 2010.05.17/outbox.cif.g08.bks.cpg/sg15_89_cif.got.tgz:176880.got - 2010.06.03 18:47:42.
