data_PCOD9278398
_publ_section_title
;
Structure prediction by ZEFSAII (Michael W. Deem and Ramdas Pophale) SiO2 
 PCOD9278398
Probable space group: C 2/C
;
_chemical_formula_sum "Si O2"
_cell_formula_units_Z 36
_cell_length_a 10.722213
_cell_length_b 26.538940
_cell_length_c 6.041192
_cell_angle_alpha 90.000000
_cell_angle_beta 71.330977
_cell_angle_gamma 90.000000
_cell_volume 1628.607568
_symmetry_space_group_name_H-M "C 2/C"
_symmetry_group_IT_number 15
_symmetry_cell_setting 'monoclinic'
loop_
_space_group_symop_operation_xyz
x,y,z
-x,y,1/2-z
-x,-y,-z
x,-y,1/2+z
1/2+x,1/2+y,z
1/2-x,1/2+y,1/2-z
1/2-x,1/2-y,-z
1/2+x,1/2-y,1/2+z
loop_
_atom_site_type_symbol
_atom_site_label
_atom_site_fract_x
_atom_site_fract_y
_atom_site_fract_z
Si Si1 0.240124 0.101867 0.647511
Si Si2 0.820900 0.336097 0.492577
Si Si3 0.500000 0.525828 0.750000
Si Si4 0.155777 0.795175 0.973654
Si Si5 0.500000 0.115888 0.250000
Si Si6 0.500000 0.247480 0.750000
O O1 0.284754 0.115170 0.870621
O O2 0.176141 0.155194 0.607406
O O3 0.371549 0.089772 0.429660
O O4 0.131232 0.059753 0.682697
O O5 0.703195 0.315926 0.706849
O O6 0.938451 0.350382 0.591906
O O7 0.875656 0.289864 0.321834
O O8 0.500000 0.500000 0.500000
O O9 0.012194 0.775533 0.980458
O O10 0.250000 0.750000 0.000000
#
# Coordination Sequence:
#
# PCOD9278398 Si02
#       6
#     8   8   4   8   4   4
#     4  11  25  46  78 104 153 201 255 325 401 462
#     4  11  21  40  62 100 147 202 251 315 376 454
#     4  12  34  59  85 118 154 202 270 344 416 484
#     4  11  24  36  60 105 150 204 252 304 376 472
#     4  10  20  42  75 107 138 192 254 306 388 460
#     4  12  20  35  56  95 154 196 252 296 354 464
#
# _framework density 22.104772000000001
#
# number of rings (size 3 to 8) (size 9 to 14) (size 15 to 20)
#    0.000    0.889    4.444    2.000    9.333    0.000 
#    0.000    1.111    0.000    0.000    0.000    0.000 
#    0.000    0.000    0.000    0.000    0.000    0.000 
#
# Total GULP energy -100418.785941 kJ/mol
# GULP energy per Si atom -5578.821441 kJ/mol
# Density = 2.205446 g / cm^3
# Si number density = 22.104772 Si / 1000 Ang^3
#
#
#
# Elastic Constant Matrix: (Units=GPa)
#
#
# Indices 1 2 3 4 5 6 
#
# 1 129.0892 61.8313 50.3250 0.0000 23.5188 0.0000
# 2 61.8313 90.9725 52.0926 0.0000 7.0975 0.0000
# 3 50.3250 52.0926 111.2795 0.0000 17.5136 0.0000
# 4 0.0000 0.0000 0.0000 20.1047 0.0000 0.1390
# 5 23.5188 7.0975 17.5136 0.0000 57.4945 0.0000
# 6 0.0000 0.0000 0.0000 0.1390 0.0000 50.9245
#
#
#
# Elastic Compliance Matrix: (Units=1/GPa)
#
#
# Indices 1 2 3 4 5 6 
#
# 1 0.012576 -0.007290 -0.001688 0.000000 -0.003730 0.000000
# 2 -0.007290 0.019249 -0.006102 0.000000 0.002465 0.000000
# 3 -0.001688 -0.006102 0.013002 0.000000 -0.002517 0.000000
# 4 0.000000 0.000000 0.000000 0.049741 0.000000 -0.000136
# 5 -0.003730 0.002465 -0.002517 0.000000 0.019381 0.000000
# 6 0.000000 0.000000 0.000000 -0.000136 0.000000 0.019637
#
#
# Mechanical properties :
#
#
# Convention : Reuss Voigt Hill
#
# Bulk Modulus (GPa) = 68.17616 73.31544 70.74580
# Shear Modulus (GPa) = 29.64984 36.84421 33.24702
#
# Velocity S-wave (km/s) = 3.66639 4.08707 3.88244
# Velocity P-wave (km/s) = 6.98802 7.45060 7.22302
#
# Compressibility (1/GPa) = 0.01466788
#
# Stress axis : x y z
#
# Youngs Moduli (GPa) = 79.51684 51.95072 76.91026
#
# Poissons Ratio (x) = 0.37873 0.12979
# Poissons Ratio (y) = 0.57969 0.46930
# Poissons Ratio (z) = 0.13419 0.31700
#
# Static dielectric constant tensor:
#      x y z
#    x 1.979110 0.000000 -0.010350 
#    y 0.000000 1.808340 0.000000 
#    z -0.010350 0.000000 1.934520 
# 
# From -- ./inp_files/4323.got.cif
#   From: 2010.05.17/outbox.cif.g08.bks.cpg/sg15_3_cif.got.tgz:4323.got - 2010.06.03 18:47:42.
