data_PCOD9278769
_publ_section_title
;
Structure prediction by ZEFSAII (Michael W. Deem and Ramdas Pophale) SiO2 
 PCOD9278769
Probable space group: C 2/C
;
_chemical_formula_sum "Si O2"
_cell_formula_units_Z 36
_cell_length_a 12.103885
_cell_length_b 6.654379
_cell_length_c 20.791808
_cell_angle_alpha 90.000000
_cell_angle_beta 117.338771
_cell_angle_gamma 90.000000
_cell_volume 1487.604557
_symmetry_space_group_name_H-M "C 2/C"
_symmetry_group_IT_number 15
_symmetry_cell_setting 'monoclinic'
loop_
_space_group_symop_operation_xyz
x,y,z
-x,y,1/2-z
-x,-y,-z
x,-y,1/2+z
1/2+x,1/2+y,z
1/2-x,1/2+y,1/2-z
1/2-x,1/2-y,-z
1/2+x,1/2-y,1/2+z
loop_
_atom_site_type_symbol
_atom_site_label
_atom_site_fract_x
_atom_site_fract_y
_atom_site_fract_z
Si Si1 0.146389 0.615202 0.634917
Si Si2 0.374108 0.398026 0.990004
Si Si3 0.875490 0.091749 0.251390
Si Si4 0.113754 0.425430 0.902805
Si Si5 0.500000 0.212002 0.250000
O O1 0.157138 0.723735 0.569986
O O2 0.154508 0.779057 0.694523
O O3 0.252890 0.448270 0.675719
O O4 0.006969 0.533563 0.602280
O O5 0.246582 0.524732 0.953787
O O6 0.500000 0.500000 0.000000
O O7 0.387553 0.291172 0.062064
O O8 0.000000 0.177924 0.250000
O O9 0.923420 0.862846 0.275761
O O10 0.091889 0.405804 0.820647
#
# Coordination Sequence:
#
# PCOD9278769 Si02
#       5
#     8   8   8   8   4
#     4  12  24  42  70  98 135 181 224 274 341 394
#     4  11  25  46  69  96 137 182 223 273 341 404
#     4  10  24  39  64 100 134 169 225 275 332 393
#     4  11  25  43  69  98 138 174 223 282 329 400
#     4  10  20  46  64  96 140 168 222 280 330 394
#
# _framework density 24.19998
#
# number of rings (size 3 to 8) (size 9 to 14) (size 15 to 20)
#    0.667    0.444    2.222    3.333    1.556    2.667 
#    0.000    0.000    0.000    0.000    0.000    0.000 
#    0.000    0.000    0.000    0.000    0.000    0.000 
#
# Total GULP energy -100568.898672 kJ/mol
# GULP energy per Si atom -5587.161037 kJ/mol
# Density = 2.414490 g / cm^3
# Si number density = 24.199980 Si / 1000 Ang^3
#
#
#
# Elastic Constant Matrix: (Units=GPa)
#
#
# Indices 1 2 3 4 5 6 
#
# 1 187.7407 41.4014 61.7176 0.0000 38.8699 0.0000
# 2 41.4014 42.7343 30.7383 0.0000 7.7152 0.0000
# 3 61.7176 30.7383 133.9554 0.0000 13.5518 0.0000
# 4 0.0000 0.0000 0.0000 27.2443 0.0000 -1.5949
# 5 38.8699 7.7152 13.5518 0.0000 54.8809 0.0000
# 6 0.0000 0.0000 0.0000 -1.5949 0.0000 37.6214
#
#
#
# Elastic Compliance Matrix: (Units=1/GPa)
#
#
# Indices 1 2 3 4 5 6 
#
# 1 0.008164 -0.005652 -0.002010 0.000000 -0.004491 0.000000
# 2 -0.005652 0.032255 -0.004865 0.000000 0.000670 0.000000
# 3 -0.002010 -0.004865 0.009532 0.000000 -0.000246 0.000000
# 4 0.000000 0.000000 0.000000 0.036796 0.000000 0.001560
# 5 -0.004491 0.000670 -0.000246 0.000000 0.021369 0.000000
# 6 0.000000 0.000000 0.000000 0.001560 0.000000 0.026647
#
#
# Mechanical properties :
#
#
# Convention : Reuss Voigt Hill
#
# Bulk Modulus (GPa) = 40.16652 70.23833 55.20242
# Shear Modulus (GPa) = 29.74142 39.32086 34.53114
#
# Velocity S-wave (km/s) = 3.50949 4.03529 3.78154
# Velocity P-wave (km/s) = 5.74942 7.12731 6.47512
#
# Compressibility (1/GPa) = 0.02489636
#
# Stress axis : x y z
#
# Youngs Moduli (GPa) = 122.49633 31.00308 104.90498
#
# Poissons Ratio (x) = 0.17524 0.21084
# Poissons Ratio (y) = 0.69240 0.51036
# Poissons Ratio (z) = 0.24619 0.15083
#
# Static dielectric constant tensor:
#      x y z
#    x 1.979920 0.000000 0.057290 
#    y 0.000000 1.964910 0.000000 
#    z 0.057290 0.000000 1.903900 
# 
# From -- ./inp_files/235954.got.cif
#   From: 2010.05.17/outbox.cif.g08.bks.cpg/sg15_118_cif.got.tgz:235954.got - 2010.06.03 18:47:42.
