data_PCOD9278406
_publ_section_title
;
Structure prediction by ZEFSAII (Michael W. Deem and Ramdas Pophale) SiO2 
 PCOD9278406
Probable space group: C 2/C
;
_chemical_formula_sum "Si O2"
_cell_formula_units_Z 28
_cell_length_a 6.764137
_cell_length_b 21.623078
_cell_length_c 6.912106
_cell_angle_alpha 90.000000
_cell_angle_beta 92.594180
_cell_angle_gamma 90.000000
_cell_volume 1009.938654
_symmetry_space_group_name_H-M "C 2/C"
_symmetry_group_IT_number 15
_symmetry_cell_setting 'monoclinic'
loop_
_space_group_symop_operation_xyz
x,y,z
-x,y,1/2-z
-x,-y,-z
x,-y,1/2+z
1/2+x,1/2+y,z
1/2-x,1/2+y,1/2-z
1/2-x,1/2-y,-z
1/2+x,1/2-y,1/2+z
loop_
_atom_site_type_symbol
_atom_site_label
_atom_site_fract_x
_atom_site_fract_y
_atom_site_fract_z
Si Si1 0.874678 0.558950 0.559394
Si Si2 0.282742 0.664451 0.178250
Si Si3 0.736095 0.793954 0.241693
Si Si4 0.500000 0.597590 0.750000
O O1 0.853402 0.606879 0.382612
O O2 0.646855 0.555350 0.627514
O O3 0.000000 0.581569 0.750000
O O4 0.000000 0.500000 0.500000
O O5 0.500000 0.643649 0.250000
O O6 0.209779 0.722564 0.305384
O O7 0.307129 0.693194 0.964398
O O8 0.500000 0.792434 0.250000
O O9 0.841362 0.853236 0.147632
#
# Coordination Sequence:
#
# PCOD9278406 Si02
#       4
#     8   8   8   4
#     4  11  26  52  72 100 147 203 257 310 361 440
#     4   9  18  39  69 105 147 190 236 300 376 446
#     4   9  18  37  68 108 150 186 229 299 381 455
#     4  10  20  42  78 108 144 196 240 302 376 438
#
# _framework density 27.724453
#
# number of rings (size 3 to 8) (size 9 to 14) (size 15 to 20)
#    0.000    2.286    0.000    3.429    0.000    2.286 
#   15.429   45.714    0.000    0.000    3.714    0.000 
#    0.000    0.000    0.000    0.000    0.000    0.000 
#
# Total GULP energy -78039.420378 kJ/mol
# GULP energy per Si atom -5574.244313 kJ/mol
# Density = 2.766135 g / cm^3
# Si number density = 27.724453 Si / 1000 Ang^3
#
#
#
# Elastic Constant Matrix: (Units=GPa)
#
#
# Indices 1 2 3 4 5 6 
#
# 1 260.0503 111.1842 67.3463 0.0000 -2.0530 0.0000
# 2 111.1842 226.8185 30.5304 0.0000 0.6289 0.0000
# 3 67.3463 30.5304 84.0320 0.0000 27.5238 0.0000
# 4 0.0000 0.0000 0.0000 22.4510 0.0000 26.9010
# 5 -2.0530 0.6289 27.5238 0.0000 72.3315 0.0000
# 6 0.0000 0.0000 0.0000 26.9010 0.0000 36.1927
#
#
#
# Elastic Compliance Matrix: (Units=1/GPa)
#
#
# Indices 1 2 3 4 5 6 
#
# 1 0.006074 -0.002356 -0.004655 0.000000 0.001964 0.000000
# 2 -0.002356 0.005580 -0.000115 0.000000 -0.000071 0.000000
# 3 -0.004655 -0.000115 0.017954 0.000000 -0.006963 0.000000
# 4 0.000000 0.000000 0.000000 0.407116 0.000000 -0.302597
# 5 0.001964 -0.000071 -0.006963 0.000000 0.016531 0.000000
# 6 0.000000 0.000000 0.000000 -0.302597 0.000000 0.252541
#
#
# Mechanical properties :
#
#
# Convention : Reuss Voigt Hill
#
# Bulk Modulus (GPa) = 65.13174 109.89140 87.51157
# Shear Modulus (GPa) = 6.89497 50.31771 28.60634
#
# Velocity S-wave (km/s) = 1.57872 4.26481 3.21566
# Velocity P-wave (km/s) = 5.18331 7.99841 6.73948
#
# Compressibility (1/GPa) = 0.01535350
#
# Stress axis : x y z
#
# Youngs Moduli (GPa) = 164.63969 179.22662 55.69926
#
# Poissons Ratio (x) = 0.42229 0.25929
# Poissons Ratio (y) = 0.38792 0.00643
# Poissons Ratio (z) = 0.76642 0.02068
#
# Static dielectric constant tensor:
#      x y z
#    x 2.288140 0.000000 -0.119960 
#    y 0.000000 2.401620 0.000000 
#    z -0.119960 0.000000 2.228430 
# 
# From -- ./inp_files/72061.got.cif
#   From: 2010.05.17/outbox.cif.g08.bks.cpg/sg15_37_cif.got.tgz:72061.got - 2010.06.03 18:47:42.
