data_PCOD9278453
_publ_section_title
;
Structure prediction by ZEFSAII (Michael W. Deem and Ramdas Pophale) SiO2 
 PCOD9278453
Probable space group: C 2/C
;
_chemical_formula_sum "Si O2"
_cell_formula_units_Z 40
_cell_length_a 17.392895
_cell_length_b 7.160217
_cell_length_c 15.285196
_cell_angle_alpha 90.000000
_cell_angle_beta 94.968295
_cell_angle_gamma 90.000000
_cell_volume 1896.418817
_symmetry_space_group_name_H-M "C 2/C"
_symmetry_group_IT_number 15
_symmetry_cell_setting 'monoclinic'
loop_
_space_group_symop_operation_xyz
x,y,z
-x,y,1/2-z
-x,-y,-z
x,-y,1/2+z
1/2+x,1/2+y,z
1/2-x,1/2+y,1/2-z
1/2-x,1/2-y,-z
1/2+x,1/2-y,1/2+z
loop_
_atom_site_type_symbol
_atom_site_label
_atom_site_fract_x
_atom_site_fract_y
_atom_site_fract_z
Si Si1 0.858370 0.452510 0.381134
Si Si2 0.268309 0.747699 0.140533
Si Si3 0.637962 0.744131 0.756305
Si Si4 0.586362 0.664348 0.244385
Si Si5 0.690766 0.895837 0.949215
O O1 0.773457 0.550947 0.381032
O O2 0.893845 0.598165 0.313995
O O3 0.874583 0.254553 0.337866
O O4 0.875929 0.437176 0.485520
O O5 0.221052 0.811967 0.221940
O O6 0.357099 0.722170 0.171663
O O7 0.236299 0.585778 0.928650
O O8 0.588411 0.558848 0.744594
O O9 0.654728 0.820250 0.854687
O O10 0.500000 0.732230 0.250000
O O11 0.750000 0.750000 0.000000
#
# Coordination Sequence:
#
# PCOD9278453 Si02
#       5
#     8   8   8   8   8
#     4  10  24  41  69  94 136 167 226 269 332 383
#     4  10  20  43  65  94 130 168 214 275 317 391
#     4  10  23  41  68  94 138 164 229 268 330 384
#     4  12  23  43  68  95 133 183 216 270 335 388
#     4  12  21  37  71 105 126 169 221 278 328 382
#
# _framework density 21.092386000000001
#
# number of rings (size 3 to 8) (size 9 to 14) (size 15 to 20)
#    1.200    0.000    2.000    6.600    0.000    0.800 
#    0.000    2.000    0.000    0.000    0.000    0.000 
#    0.000    0.000    0.000    0.000    0.000    0.000 
#
# Total GULP energy -111341.184222 kJ/mol
# GULP energy per Si atom -5567.059211 kJ/mol
# Density = 2.104438 g / cm^3
# Si number density = 21.092386 Si / 1000 Ang^3
#
#
#
# Elastic Constant Matrix: (Units=GPa)
#
#
# Indices 1 2 3 4 5 6 
#
# 1 84.0877 21.5531 17.0170 0.0000 -2.6759 0.0000
# 2 21.5531 126.4463 65.6857 0.0000 -8.2820 0.0000
# 3 17.0170 65.6857 160.9715 0.0000 -23.4345 0.0000
# 4 0.0000 0.0000 0.0000 48.2971 0.0000 -1.5848
# 5 -2.6759 -8.2820 -23.4345 0.0000 5.7210 0.0000
# 6 0.0000 0.0000 0.0000 -1.5848 0.0000 15.2707
#
#
#
# Elastic Compliance Matrix: (Units=1/GPa)
#
#
# Indices 1 2 3 4 5 6 
#
# 1 0.012487 -0.001858 -0.000256 0.000000 0.002104 0.000000
# 2 -0.001858 0.010384 -0.004903 0.000000 -0.005919 0.000000
# 3 -0.000256 -0.004903 0.017810 0.000000 0.065737 0.000000
# 4 0.000000 0.000000 0.000000 0.020776 0.000000 0.002156
# 5 0.002104 -0.005919 0.065737 0.000000 0.436483 0.000000
# 6 0.000000 0.000000 0.000000 0.002156 0.000000 0.065709
#
#
# Mechanical properties :
#
#
# Convention : Reuss Voigt Hill
#
# Bulk Modulus (GPa) = 37.52460 64.44635 50.98548
# Shear Modulus (GPa) = 8.52421 31.67443 20.09932
#
# Velocity S-wave (km/s) = 2.01250 3.87938 3.09029
# Velocity P-wave (km/s) = 4.81969 7.11946 6.07932
#
# Compressibility (1/GPa) = 0.02664918
#
# Stress axis : x y z
#
# Youngs Moduli (GPa) = 80.08175 96.29908 56.14837
#
# Poissons Ratio (x) = 0.17891 0.01436
# Poissons Ratio (y) = 0.14878 0.27527
# Poissons Ratio (z) = 0.02047 0.47212
#
# Static dielectric constant tensor:
#      x y z
#    x 1.780500 0.000000 -0.014710 
#    y 0.000000 1.822520 0.000000 
#    z -0.014710 0.000000 1.847980 
# 
# From -- ./inp_files/158815.got.cif
#   From: 2010.05.17/outbox.cif.g08.bks.cpg/sg15_80_cif.got.tgz:158815.got - 2010.06.03 18:47:42.
