data_PCOD9278195
_publ_section_title
;
Structure prediction by ZEFSAII (Michael W. Deem and Ramdas Pophale) SiO2 
 PCOD9278195
Probable space group: C 2/C
;
_chemical_formula_sum "Si O2"
_cell_formula_units_Z 32
_cell_length_a 22.795159
_cell_length_b 11.423431
_cell_length_c 8.985786
_cell_angle_alpha 90.000000
_cell_angle_beta 144.197453
_cell_angle_gamma 90.000000
_cell_volume 1368.820405
_symmetry_space_group_name_H-M "C 2/C"
_symmetry_group_IT_number 15
_symmetry_cell_setting 'monoclinic'
loop_
_space_group_symop_operation_xyz
x,y,z
-x,y,1/2-z
-x,-y,-z
x,-y,1/2+z
1/2+x,1/2+y,z
1/2-x,1/2+y,1/2-z
1/2-x,1/2-y,-z
1/2+x,1/2-y,1/2+z
loop_
_atom_site_type_symbol
_atom_site_label
_atom_site_fract_x
_atom_site_fract_y
_atom_site_fract_z
Si Si1 0.568900 0.926605 0.252294
Si Si2 0.891219 0.200460 0.355642
Si Si3 0.282915 0.486309 0.191329
Si Si4 0.884724 0.875288 0.145499
O O1 0.500000 0.896605 0.250000
O O2 0.601977 0.809780 0.235780
O O3 0.667619 0.001027 0.497326
O O4 0.500000 0.000000 0.000000
O O5 0.807805 0.104756 0.147598
O O6 0.871170 0.225649 0.491238
O O7 0.999594 0.135655 0.572430
O O8 0.316832 0.382163 0.152793
O O9 0.355199 0.513194 0.480307
#
# Coordination Sequence:
#
# PCOD9278195 Si02
#       4
#     8   8   8   8
#     4  12  27  44  65  92 136 178 216 261 318 391
#     4   9  22  40  67  96 130 163 214 271 322 378
#     4  10  20  42  67  97 127 169 212 266 324 380
#     4   9  20  38  70  98 128 158 212 276 320 379
#
# _framework density 23.377790999999998
#
# number of rings (size 3 to 8) (size 9 to 14) (size 15 to 20)
#    1.500    0.500    0.000    3.000    3.500    2.000 
#    0.000    7.500    0.000    0.000    0.000    0.000 
#    0.000    0.000    0.000    0.000    0.000    0.000 
#
# Total GULP energy -89117.223811 kJ/mol
# GULP energy per Si atom -5569.826488 kJ/mol
# Density = 2.332458 g / cm^3
# Si number density = 23.377791 Si / 1000 Ang^3
#
#
#
# Elastic Constant Matrix: (Units=GPa)
#
#
# Indices 1 2 3 4 5 6 
#
# 1 130.5196 34.3468 46.0193 0.0000 7.4936 0.0000
# 2 34.3468 56.6253 18.5606 0.0000 -0.5395 0.0000
# 3 46.0193 18.5606 89.6084 0.0000 25.8761 0.0000
# 4 0.0000 0.0000 0.0000 22.0630 0.0000 -12.7241
# 5 7.4936 -0.5395 25.8761 0.0000 36.6331 0.0000
# 6 0.0000 0.0000 0.0000 -12.7241 0.0000 29.2632
#
#
#
# Elastic Compliance Matrix: (Units=1/GPa)
#
#
# Indices 1 2 3 4 5 6 
#
# 1 0.010538 -0.004829 -0.004734 0.000000 0.001117 0.000000
# 2 -0.004829 0.021598 -0.002978 0.000000 0.003409 0.000000
# 3 -0.004734 -0.002978 0.017513 0.000000 -0.011446 0.000000
# 4 0.000000 0.000000 0.000000 0.060495 0.000000 0.026304
# 5 0.001117 0.003409 -0.011446 0.000000 0.035204 0.000000
# 6 0.000000 0.000000 0.000000 0.026304 0.000000 0.045610
#
#
# Mechanical properties :
#
#
# Convention : Reuss Voigt Hill
#
# Bulk Modulus (GPa) = 40.70710 52.73407 46.72059
# Shear Modulus (GPa) = 22.29867 29.44695 25.87281
#
# Velocity S-wave (km/s) = 3.09178 3.55295 3.33036
# Velocity P-wave (km/s) = 5.49509 6.27994 5.90058
#
# Compressibility (1/GPa) = 0.02456574
#
# Stress axis : x y z
#
# Youngs Moduli (GPa) = 94.89885 46.30094 57.10080
#
# Poissons Ratio (x) = 0.22360 0.27031
# Poissons Ratio (y) = 0.45830 0.17004
# Poissons Ratio (z) = 0.44925 0.13788
#
# Static dielectric constant tensor:
#      x y z
#    x 1.960650 0.000000 -0.033560 
#    y 0.000000 1.924480 0.000000 
#    z -0.033560 0.000000 1.893960 
# 
# From -- ./inp_files/55532.got.cif
#   From: 2010.05.17/outbox.cif.g08.bks.cpg/sg15_28_cif.got.tgz:55532.got - 2010.06.03 18:47:42.
