data_PCOD9278102
_publ_section_title
;
Structure prediction by ZEFSAII (Michael W. Deem and Ramdas Pophale) SiO2 
 PCOD9278102
Probable space group: C 2/C
;
_chemical_formula_sum "Si O2"
_cell_formula_units_Z 40
_cell_length_a 14.833763
_cell_length_b 8.038094
_cell_length_c 29.511483
_cell_angle_alpha 90.000000
_cell_angle_beta 31.942069
_cell_angle_gamma 90.000000
_cell_volume 1861.665477
_symmetry_space_group_name_H-M "C 2/C"
_symmetry_group_IT_number 15
_symmetry_cell_setting 'monoclinic'
loop_
_space_group_symop_operation_xyz
x,y,z
-x,y,1/2-z
-x,-y,-z
x,-y,1/2+z
1/2+x,1/2+y,z
1/2-x,1/2+y,1/2-z
1/2-x,1/2-y,-z
1/2+x,1/2-y,1/2+z
loop_
_atom_site_type_symbol
_atom_site_label
_atom_site_fract_x
_atom_site_fract_y
_atom_site_fract_z
Si Si1 0.425257 0.816302 0.537288
Si Si2 0.521615 0.694915 0.803530
Si Si3 0.940571 0.817878 0.826501
Si Si4 0.749925 0.354025 0.861325
Si Si5 0.784649 0.816663 0.186412
O O1 0.253788 0.767963 0.582652
O O2 0.573330 0.690392 0.460069
O O3 0.361714 0.805839 0.615995
O O4 0.500000 0.000000 0.500000
O O5 0.437717 0.516403 0.831552
O O6 0.394476 0.840596 0.839503
O O7 0.684088 0.712095 0.701305
O O8 0.585622 0.689896 0.827333
O O9 0.000000 0.774373 0.750000
O O10 0.100102 0.739474 0.784676
O O11 0.735710 0.513688 0.834393
#
# Coordination Sequence:
#
# PCOD9278102 Si02
#       5
#     8   8   8   8   8
#     4  11  22  43  68  92 134 178 216 277 345 396
#     4  11  22  43  68  95 135 175 223 274 341 402
#     4  10  20  42  66  89 130 177 212 267 342 399
#     4  11  23  42  70  98 134 174 225 284 334 396
#     4  11  25  41  69  99 128 177 231 272 333 416
#
# _framework density 21.486138
#
# number of rings (size 3 to 8) (size 9 to 14) (size 15 to 20)
#    0.000    1.200    4.000    3.000    8.400    0.800 
#    0.000    4.000    0.000    0.000    0.000    0.000 
#    0.000    0.000    0.000    0.000    0.000    0.000 
#
# Total GULP energy -111493.834132 kJ/mol
# GULP energy per Si atom -5574.691707 kJ/mol
# Density = 2.143723 g / cm^3
# Si number density = 21.486138 Si / 1000 Ang^3
#
#
#
# Elastic Constant Matrix: (Units=GPa)
#
#
# Indices 1 2 3 4 5 6 
#
# 1 131.0763 52.2640 46.2885 -0.0006 -12.5860 0.0011
# 2 52.2640 65.8418 27.6859 0.0005 -10.8637 0.0015
# 3 46.2885 27.6859 130.5661 0.0004 -37.9236 -0.0001
# 4 -0.0006 0.0005 0.0004 34.6924 -0.0001 -9.2511
# 5 -12.5860 -10.8637 -37.9236 -0.0001 19.7609 0.0001
# 6 0.0011 0.0015 -0.0001 -9.2511 0.0001 22.1033
#
#
#
# Elastic Compliance Matrix: (Units=1/GPa)
#
#
# Indices 1 2 3 4 5 6 
#
# 1 0.011951 -0.008646 -0.003555 0.000000 -0.003963 0.000000
# 2 -0.008646 0.023187 0.000568 -0.000001 0.008331 -0.000002
# 3 -0.003555 0.000568 0.018600 0.000000 0.033743 0.000000
# 4 0.000000 -0.000001 0.000000 0.032446 0.000000 0.013580
# 5 -0.003963 0.008331 0.033743 0.000000 0.117418 -0.000001
# 6 0.000000 -0.000002 0.000000 0.013580 -0.000001 0.050926
#
#
# Mechanical properties :
#
#
# Convention : Reuss Voigt Hill
#
# Bulk Modulus (GPa) = 32.81644 64.44013 48.62829
# Shear Modulus (GPa) = 17.36416 28.72770 23.04593
#
# Velocity S-wave (km/s) = 2.84589 3.66051 3.27860
# Velocity P-wave (km/s) = 5.10933 6.92260 6.08390
#
# Compressibility (1/GPa) = 0.03047253
#
# Stress axis : x y z
#
# Youngs Moduli (GPa) = 83.67268 43.12853 53.76462
#
# Poissons Ratio (x) = 0.37289 0.19113
# Poissons Ratio (y) = 0.72343 -0.03056
# Poissons Ratio (z) = 0.29745 -0.02451
#
# Static dielectric constant tensor:
#      x y z
#    x 1.885670 0.000000 -0.077680 
#    y 0.000000 1.831750 0.000000 
#    z -0.077680 0.000000 1.766970 
# 
# From -- ./inp_files/202840.got.cif
#   From: 2010.05.17/outbox.cif.g08.bks.cpg/sg15_102_cif.got.tgz:202840.got - 2010.06.03 18:47:42.
