data_PCOD9278487
_publ_section_title
;
Structure prediction by ZEFSAII (Michael W. Deem and Ramdas Pophale) SiO2 
 PCOD9278487
Probable space group: C 2/C
;
_chemical_formula_sum "Si O2"
_cell_formula_units_Z 48
_cell_length_a 18.795460
_cell_length_b 10.548731
_cell_length_c 18.887626
_cell_angle_alpha 90.000000
_cell_angle_beta 28.813213
_cell_angle_gamma 90.000000
_cell_volume 1804.835873
_symmetry_space_group_name_H-M "C 2/C"
_symmetry_group_IT_number 15
_symmetry_cell_setting 'monoclinic'
loop_
_space_group_symop_operation_xyz
x,y,z
-x,y,1/2-z
-x,-y,-z
x,-y,1/2+z
1/2+x,1/2+y,z
1/2-x,1/2+y,1/2-z
1/2-x,1/2-y,-z
1/2+x,1/2-y,1/2+z
loop_
_atom_site_type_symbol
_atom_site_label
_atom_site_fract_x
_atom_site_fract_y
_atom_site_fract_z
Si Si1 0.271857 0.114032 0.946533
Si Si2 0.984711 0.976448 0.640069
Si Si3 0.703827 0.363944 0.348495
Si Si4 0.078911 0.430487 0.574369
Si Si5 0.612338 0.716678 0.717935
Si Si6 0.689268 0.926003 0.855429
O O1 0.301845 0.132479 0.835967
O O2 0.250000 0.250000 0.000000
O O3 0.375242 0.025937 0.903510
O O4 0.111216 0.048442 0.085943
O O5 0.740164 0.029567 0.753967
O O6 0.954405 0.124873 0.663967
O O7 0.825732 0.919956 0.793131
O O8 0.046829 0.908852 0.516611
O O9 0.680878 0.220398 0.340711
O O10 0.219369 0.329339 0.444189
O O11 0.067793 0.507654 0.510774
O O12 0.926426 0.358129 0.724108
O O13 0.500000 0.700164 0.750000
#
# Coordination Sequence:
#
# PCOD9278487 Si02
#       6
#     8   8   8   8   8   8
#     4  10  20  43  67  94 133 182 239 288 347 425
#     4   9  22  40  67  88 133 187 225 274 360 431
#     4  10  23  42  67  96 129 182 233 285 349 427
#     4  11  23  42  69 102 139 182 235 289 359 419
#     4  11  21  38  66 100 138 174 226 284 353 419
#     4  11  23  43  69  95 134 182 231 290 356 427
#
# _framework density 26.595216000000001
#
# number of rings (size 3 to 8) (size 9 to 14) (size 15 to 20)
#    1.000    0.667    3.333    1.000    2.333    0.000 
#    3.000    7.500    0.000    0.000    0.000    0.000 
#    0.000    0.000    0.000    0.000    0.000    0.000 
#
# Total GULP energy -134151.192440 kJ/mol
# GULP energy per Si atom -5589.633018 kJ/mol
# Density = 2.653468 g / cm^3
# Si number density = 26.595216 Si / 1000 Ang^3
#
#
#
# Elastic Constant Matrix: (Units=GPa)
#
#
# Indices 1 2 3 4 5 6 
#
# 1 124.9859 70.0697 22.2711 0.0000 17.5737 0.0000
# 2 70.0697 239.8676 46.4401 -0.0001 36.2780 0.0000
# 3 22.2711 46.4401 94.3065 -0.0001 16.0687 0.0001
# 4 0.0000 -0.0001 -0.0001 40.7650 0.0000 12.8490
# 5 17.5737 36.2780 16.0687 0.0000 45.0076 0.0000
# 6 0.0000 0.0000 0.0001 12.8490 0.0000 55.6647
#
#
#
# Elastic Compliance Matrix: (Units=1/GPa)
#
#
# Indices 1 2 3 4 5 6 
#
# 1 0.009739 -0.002453 -0.000832 0.000000 -0.001529 0.000000
# 2 -0.002453 0.005669 -0.001700 0.000000 -0.003005 0.000000
# 3 -0.000832 -0.001700 0.012084 0.000000 -0.002619 0.000000
# 4 0.000000 0.000000 0.000000 0.026456 0.000000 -0.006107
# 5 -0.001529 -0.003005 -0.002619 0.000000 0.026172 0.000000
# 6 0.000000 0.000000 0.000000 -0.006107 0.000000 0.019374
#
#
# Mechanical properties :
#
#
# Convention : Reuss Voigt Hill
#
# Bulk Modulus (GPa) = 57.07040 81.85796 69.46418
# Shear Modulus (GPa) = 43.36334 49.64605 46.50470
#
# Velocity S-wave (km/s) = 4.04232 4.32525 4.18618
# Velocity P-wave (km/s) = 6.57971 7.46926 7.03855
#
# Compressibility (1/GPa) = 0.01752222
#
# Stress axis : x y z
#
# Youngs Moduli (GPa) = 102.67877 176.39397 82.75600
#
# Poissons Ratio (x) = 0.43265 0.06882
# Poissons Ratio (y) = 0.25184 0.14073
# Poissons Ratio (z) = 0.08539 0.29996
#
# Static dielectric constant tensor:
#      x y z
#    x 2.187970 0.000000 0.004260 
#    y 0.000000 2.136590 0.000000 
#    z 0.004260 0.000000 2.096690 
# 
# From -- ./inp_files/279854.got.cif
#   From: 2010.05.17/outbox.cif.g08.bks.cpg/sg15_140_cif.got.tgz:279854.got - 2010.06.03 18:47:42.
