data_PCOD9278100
_publ_section_title
;
Structure prediction by ZEFSAII (Michael W. Deem and Ramdas Pophale) SiO2 
 PCOD9278100
Probable space group: C 2/C
;
_chemical_formula_sum "Si O2"
_cell_formula_units_Z 48
_cell_length_a 6.792860
_cell_length_b 20.296068
_cell_length_c 15.447196
_cell_angle_alpha 90.000000
_cell_angle_beta 110.260675
_cell_angle_gamma 90.000000
_cell_volume 1997.909392
_symmetry_space_group_name_H-M "C 2/C"
_symmetry_group_IT_number 15
_symmetry_cell_setting 'monoclinic'
loop_
_space_group_symop_operation_xyz
x,y,z
-x,y,1/2-z
-x,-y,-z
x,-y,1/2+z
1/2+x,1/2+y,z
1/2-x,1/2+y,1/2-z
1/2-x,1/2-y,-z
1/2+x,1/2-y,1/2+z
loop_
_atom_site_type_symbol
_atom_site_label
_atom_site_fract_x
_atom_site_fract_y
_atom_site_fract_z
Si Si1 0.000000 0.971325 0.250000
Si Si2 0.500000 0.149288 0.250000
Si Si3 0.716612 0.752864 0.651359
Si Si4 0.307634 0.578135 0.986961
Si Si5 0.437816 0.642971 0.617738
Si Si6 0.502089 0.201720 0.942276
Si Si7 0.689326 0.544297 0.138421
O O1 0.102146 0.921760 0.334009
O O2 0.185637 0.009987 0.231322
O O3 0.349778 0.191836 0.290764
O O4 0.349120 0.104197 0.167554
O O5 0.640244 0.683814 0.680229
O O6 0.580917 0.763378 0.541873
O O7 0.938680 0.741070 0.637168
O O8 0.494210 0.615681 0.964315
O O9 0.120578 0.630463 0.961708
O O10 0.260336 0.511209 0.926541
O O11 0.439400 0.561721 0.092488
O O12 0.242032 0.690111 0.589631
#
# Coordination Sequence:
#
# PCOD9278100 Si02
#       7
#     4   4   8   8   8   8   8
#     4  10  23  40  60  92 125 164 214 270 316 374
#     4  12  25  40  62  94 143 172 204 280 346 370
#     4  10  23  41  60 101 126 162 217 270 322 386
#     4   9  21  43  64  92 125 168 224 266 307 392
#     4  10  20  42  66  89 126 163 211 273 318 374
#     4  10  21  40  74  89 118 175 223 253 323 403
#     4  10  23  41  59  90 135 168 211 269 319 385
#
# _framework density 24.025113000000001
#
# number of rings (size 3 to 8) (size 9 to 14) (size 15 to 20)
#    0.000    2.000    0.000    2.000    4.667    2.667 
#    0.000   10.000    0.000    0.000    0.000    0.000 
#    0.000    0.000    0.000    0.000    0.000    0.000 
#
# Total GULP energy -134036.560257 kJ/mol
# GULP energy per Si atom -5584.856677 kJ/mol
# Density = 2.397043 g / cm^3
# Si number density = 24.025113 Si / 1000 Ang^3
#
#
#
# Elastic Constant Matrix: (Units=GPa)
#
#
# Indices 1 2 3 4 5 6 
#
# 1 94.1420 30.9873 17.9622 0.0000 -10.6635 0.0000
# 2 30.9873 110.4874 23.4533 0.0000 -11.8852 0.0000
# 3 17.9622 23.4533 49.2577 0.0000 -9.6657 0.0000
# 4 0.0000 0.0000 0.0000 28.2332 0.0000 -2.0942
# 5 -10.6635 -11.8852 -9.6657 0.0000 21.5022 0.0000
# 6 0.0000 0.0000 0.0000 -2.0942 0.0000 43.7981
#
#
#
# Elastic Compliance Matrix: (Units=1/GPa)
#
#
# Indices 1 2 3 4 5 6 
#
# 1 0.012355 -0.002530 -0.002602 0.000000 0.003559 0.000000
# 2 -0.002530 0.010868 -0.003641 0.000000 0.003116 0.000000
# 3 -0.002602 -0.003641 0.024497 0.000000 0.007709 0.000000
# 4 0.000000 0.000000 0.000000 0.035545 0.000000 0.001700
# 5 0.003559 0.003116 0.007709 0.000000 0.053459 0.000000
# 6 0.000000 0.000000 0.000000 0.001700 0.000000 0.022913
#
#
# Mechanical properties :
#
#
# Convention : Reuss Voigt Hill
#
# Bulk Modulus (GPa) = 33.14147 44.29918 38.72033
# Shear Modulus (GPa) = 26.70352 30.80567 28.75459
#
# Velocity S-wave (km/s) = 3.33751 3.58471 3.46331
# Velocity P-wave (km/s) = 5.35504 5.96760 5.66960
#
# Compressibility (1/GPa) = 0.03017368
#
# Stress axis : x y z
#
# Youngs Moduli (GPa) = 80.94171 92.01026 40.82206
#
# Poissons Ratio (x) = 0.23276 0.10623
# Poissons Ratio (y) = 0.20476 0.14863
# Poissons Ratio (z) = 0.21064 0.33499
#
# Static dielectric constant tensor:
#      x y z
#    x 1.889380 0.000000 -0.009110 
#    y 0.000000 1.973860 0.000000 
#    z -0.009110 0.000000 2.091050 
# 
# From -- ./inp_files/185358.got.cif
#   From: 2010.05.17/outbox.cif.g08.bks.cpg/sg15_93_cif.got.tgz:185358.got - 2010.06.03 18:47:42.
