data_PCOD9278882
_publ_section_title
;
Structure prediction by ZEFSAII (Michael W. Deem and Ramdas Pophale) SiO2 
 PCOD9278882
Probable space group: C 2/C
;
_chemical_formula_sum "Si O2"
_cell_formula_units_Z 52
_cell_length_a 20.991034
_cell_length_b 22.593204
_cell_length_c 5.682069
_cell_angle_alpha 90.000000
_cell_angle_beta 98.790002
_cell_angle_gamma 90.000000
_cell_volume 2663.098357
_symmetry_space_group_name_H-M "C 2/C"
_symmetry_group_IT_number 15
_symmetry_cell_setting 'monoclinic'
loop_
_space_group_symop_operation_xyz
x,y,z
-x,y,1/2-z
-x,-y,-z
x,-y,1/2+z
1/2+x,1/2+y,z
1/2-x,1/2+y,1/2-z
1/2-x,1/2-y,-z
1/2+x,1/2-y,1/2+z
loop_
_atom_site_type_symbol
_atom_site_label
_atom_site_fract_x
_atom_site_fract_y
_atom_site_fract_z
Si Si1 0.901750 0.862071 0.328033
Si Si2 0.195375 0.263711 0.164489
Si Si3 0.760074 0.020988 0.078884
Si Si4 0.437334 0.753723 0.596531
Si Si5 0.500000 0.333204 0.750000
Si Si6 0.222595 0.848118 0.971271
Si Si7 0.409365 0.477855 0.097579
O O1 0.911877 0.794158 0.269521
O O2 0.950332 0.871900 0.570818
O O3 0.829043 0.869650 0.366542
O O4 0.914906 0.907075 0.125208
O O5 0.187536 0.199694 0.284923
O O6 0.222335 0.310715 0.367071
O O7 0.250000 0.250000 0.000000
O O8 0.127393 0.285774 0.022843
O O9 0.757080 0.090963 0.137038
O O10 0.732293 0.989207 0.297992
O O11 0.834098 0.998696 0.077457
O O12 0.500000 0.784237 0.750000
O O13 0.462687 0.711815 0.401656
O O14 0.435359 0.501029 0.362524
#
# Coordination Sequence:
#
# PCOD9278882 Si02
#       7
#     8   8   8   8   4   8   8
#     4  11  20  35  54  74 104 146 193 236 285 336
#     4  11  23  35  57  84 117 145 188 248 291 351
#     4  10  21  34  55  81 110 156 187 238 296 344
#     4  10  22  36  57  76 106 152 189 233 287 346
#     4  10  22  36  54  70 106 146 198 234 274 348
#     4  11  22  34  55  82 113 148 191 241 299 340
#     4  10  21  32  53  76 101 146 189 242 293 321
#
# _framework density 19.526128
#
# number of rings (size 3 to 8) (size 9 to 14) (size 15 to 20)
#    0.000    1.538    6.154    0.000    8.615    0.000 
#    0.000    0.769    0.000    0.000    0.000    0.000 
#    0.000    1.231    0.000    0.154    0.000    0.000 
#
# Total GULP energy -145046.081567 kJ/mol
# GULP energy per Si atom -5578.695445 kJ/mol
# Density = 1.948169 g / cm^3
# Si number density = 19.526128 Si / 1000 Ang^3
#
#
#
# Elastic Constant Matrix: (Units=GPa)
#
#
# Indices 1 2 3 4 5 6 
#
# 1 64.2493 4.2173 19.6842 0.0000 21.5331 0.0000
# 2 4.2173 46.9257 3.4923 0.0000 6.4891 0.0000
# 3 19.6842 3.4923 85.7177 0.0000 -1.1529 0.0000
# 4 0.0000 0.0000 0.0000 21.7692 0.0000 1.1755
# 5 21.5331 6.4891 -1.1529 0.0000 32.5896 0.0000
# 6 0.0000 0.0000 0.0000 1.1755 0.0000 8.0474
#
#
#
# Elastic Compliance Matrix: (Units=1/GPa)
#
#
# Indices 1 2 3 4 5 6 
#
# 1 0.022162 0.000467 -0.005309 0.000000 -0.014924 0.000000
# 2 0.000467 0.022001 -0.001067 0.000000 -0.004727 0.000000
# 3 -0.005309 -0.001067 0.012985 0.000000 0.004180 0.000000
# 4 0.000000 0.000000 0.000000 0.046302 0.000000 -0.006764
# 5 -0.014924 -0.004727 0.004180 0.000000 0.041635 0.000000
# 6 0.000000 0.000000 0.000000 -0.006764 0.000000 0.125252
#
#
# Mechanical properties :
#
#
# Convention : Reuss Voigt Hill
#
# Bulk Modulus (GPa) = 22.06034 27.96449 25.01241
# Shear Modulus (GPa) = 16.81998 23.78116 20.30057
#
# Velocity S-wave (km/s) = 2.93816 3.49365 3.22788
# Velocity P-wave (km/s) = 4.77836 5.53415 5.17008
#
# Compressibility (1/GPa) = 0.04533022
#
# Stress axis : x y z
#
# Youngs Moduli (GPa) = 45.12218 45.45159 77.01155
#
# Poissons Ratio (x) = -0.02123 0.40886
# Poissons Ratio (y) = -0.02108 0.08219
# Poissons Ratio (z) = 0.23956 0.04851
#
# Static dielectric constant tensor:
#      x y z
#    x 1.713470 0.000000 0.009500 
#    y 0.000000 1.681060 0.000000 
#    z 0.009500 0.000000 1.798890 
# 
# From -- ./inp_files/13402.got.cif
#   From: 2010.05.17/outbox.cif.g08.bks.cpg/sg15_7_cif.got.tgz:13402.got - 2010.06.03 18:47:42.
