data_PCOD9278092
_publ_section_title
;
Structure prediction by ZEFSAII (Michael W. Deem and Ramdas Pophale) SiO2 
 PCOD9278092
Probable space group: C 2/C
;
_chemical_formula_sum "Si O2"
_cell_formula_units_Z 44
_cell_length_a 12.129323
_cell_length_b 30.555137
_cell_length_c 8.734808
_cell_angle_alpha 90.000000
_cell_angle_beta 47.329969
_cell_angle_gamma 90.000000
_cell_volume 2380.238856
_symmetry_space_group_name_H-M "C 2/C"
_symmetry_group_IT_number 15
_symmetry_cell_setting 'monoclinic'
loop_
_space_group_symop_operation_xyz
x,y,z
-x,y,1/2-z
-x,-y,-z
x,-y,1/2+z
1/2+x,1/2+y,z
1/2-x,1/2+y,1/2-z
1/2-x,1/2-y,-z
1/2+x,1/2-y,1/2+z
loop_
_atom_site_type_symbol
_atom_site_label
_atom_site_fract_x
_atom_site_fract_y
_atom_site_fract_z
Si Si1 0.595313 0.635246 0.796630
Si Si2 0.338211 0.878827 0.826798
Si Si3 0.790588 0.296905 0.296024
Si Si4 0.000000 0.005518 0.250000
Si Si5 0.355417 0.797311 0.592199
Si Si6 0.632883 0.439028 0.881147
O O1 0.500000 0.658242 0.750000
O O2 0.724476 0.612858 0.574005
O O3 0.681166 0.667441 0.826935
O O4 0.488078 0.600480 0.981213
O O5 0.500000 0.878135 0.750000
O O6 0.309984 0.833575 0.760266
O O7 0.295264 0.917507 0.750906
O O8 0.717189 0.250455 0.318841
O O9 0.802937 0.306406 0.466496
O O10 0.962898 0.296776 0.077009
O O11 0.107588 0.036661 0.246506
O O12 0.907730 0.974550 0.451180
#
# Coordination Sequence:
#
# PCOD9278092 Si02
#       6
#     8   8   8   4   8   8
#     4  10  21  38  57  86 115 155 194 236 288 348
#     4  11  21  39  57  87 120 154 193 242 295 344
#     4  10  22  40  54  84 118 156 207 243 283 349
#     4  10  20  42  66  88 120 144 202 232 302 352
#     4  10  23  37  58  81 119 159 199 249 286 337
#     4  10  22  39  65  90 116 156 188 247 286 363
#
# _framework density 18.48554
#
# number of rings (size 3 to 8) (size 9 to 14) (size 15 to 20)
#    0.000    1.818    4.545    0.000    7.636    1.455 
#    0.000    0.909    0.000    0.000    0.000    0.000 
#    0.000    0.000    0.000    0.000    0.000    0.000 
#
# Total GULP energy -122565.790316 kJ/mol
# GULP energy per Si atom -5571.172287 kJ/mol
# Density = 1.844347 g / cm^3
# Si number density = 18.485540 Si / 1000 Ang^3
#
#
#
# Elastic Constant Matrix: (Units=GPa)
#
#
# Indices 1 2 3 4 5 6 
#
# 1 136.8906 79.1445 14.3502 0.0000 -2.9301 0.0000
# 2 79.1445 100.7949 8.9217 0.0000 8.7145 0.0000
# 3 14.3502 8.9217 20.5828 0.0000 -2.7581 0.0000
# 4 0.0000 0.0000 0.0000 -17.5789 0.0000 41.6352
# 5 -2.9301 8.7145 -2.7581 0.0000 18.2404 0.0000
# 6 0.0000 0.0000 0.0000 41.6352 0.0000 5.9226
#
#
#
# Elastic Compliance Matrix: (Units=1/GPa)
#
#
# Indices 1 2 3 4 5 6 
#
# 1 0.014755 -0.011859 -0.004155 0.000000 0.007408 0.000000
# 2 -0.011859 0.020468 -0.002214 0.000000 -0.012018 0.000000
# 3 -0.004155 -0.002214 0.053578 0.000000 0.008492 0.000000
# 4 0.000000 0.000000 0.000000 -0.003223 0.000000 0.022657
# 5 0.007408 -0.012018 0.008492 0.000000 0.063039 0.000000
# 6 0.000000 0.000000 0.000000 0.022657 0.000000 0.009566
#
#
# Mechanical properties :
#
#
# Convention : Reuss Voigt Hill
#
# Bulk Modulus (GPa) = 19.10358 51.45567 35.27962
# Shear Modulus (GPa) = 23.57511 11.70695 17.64103
#
# Velocity S-wave (km/s) = 3.57505 2.51928 3.09255
# Velocity P-wave (km/s) = 5.23431 6.02980 5.64608
#
# Compressibility (1/GPa) = 0.05234622
#
# Stress axis : x y z
#
# Youngs Moduli (GPa) = 67.77178 48.85741 18.66421
#
# Poissons Ratio (x) = 0.57939 0.07754
# Poissons Ratio (y) = 0.80369 0.04133
# Poissons Ratio (z) = 0.28156 0.10819
#
# Static dielectric constant tensor:
#      x y z
#    x 1.675330 0.000000 0.014550 
#    y 0.000000 1.636910 0.000000 
#    z 0.014550 0.000000 1.664800 
# 
# From -- ./inp_files/34015.got.cif
#   From: 2010.05.17/outbox.cif.g08.bks.cpg/sg15_18_cif.got.tgz:34015.got - 2010.06.03 18:47:42.
