data_PCOD9278730
_publ_section_title
;
Structure prediction by ZEFSAII (Michael W. Deem and Ramdas Pophale) SiO2 
 PCOD9278730
Probable space group: C 2/C
;
_chemical_formula_sum "Si O2"
_cell_formula_units_Z 40
_cell_length_a 5.674542
_cell_length_b 21.468597
_cell_length_c 14.175018
_cell_angle_alpha 90.000000
_cell_angle_beta 86.861443
_cell_angle_gamma 90.000000
_cell_volume 1724.273642
_symmetry_space_group_name_H-M "C 2/C"
_symmetry_group_IT_number 15
_symmetry_cell_setting 'monoclinic'
loop_
_space_group_symop_operation_xyz
x,y,z
-x,y,1/2-z
-x,-y,-z
x,-y,1/2+z
1/2+x,1/2+y,z
1/2-x,1/2+y,1/2-z
1/2-x,1/2-y,-z
1/2+x,1/2-y,1/2+z
loop_
_atom_site_type_symbol
_atom_site_label
_atom_site_fract_x
_atom_site_fract_y
_atom_site_fract_z
Si Si1 0.768487 0.756845 0.667991
Si Si2 0.657789 0.472750 0.618296
Si Si3 0.500000 0.966985 0.250000
Si Si4 0.000000 0.869162 0.750000
Si Si5 0.282376 0.284304 0.129999
Si Si6 0.714824 0.579011 0.926783
O O1 0.793701 0.821069 0.726070
O O2 0.742831 0.707069 0.754942
O O3 0.526316 0.754561 0.615477
O O4 0.022043 0.744021 0.612509
O O5 0.519437 0.412380 0.657766
O O6 0.504165 0.533350 0.594249
O O7 0.799624 0.448385 0.524525
O O8 0.805254 0.490594 0.706227
O O9 0.600865 0.928830 0.161195
O O10 0.332665 0.347895 0.073225
#
# Coordination Sequence:
#
# PCOD9278730 Si02
#       6
#     8   8   4   4   8   8
#     4   9  20  36  65  94 125 180 238 264 336 409
#     4  11  25  42  64 102 135 182 218 285 350 424
#     4  12  22  41  68  98 133 184 218 282 344 418
#     4  10  20  45  60  92 137 186 220 278 350 408
#     4   9  19  37  62  94 127 170 219 292 320 390
#     4  11  24  41  66 102 138 166 240 277 352 417
#
# _framework density 23.198173000000001
#
# number of rings (size 3 to 8) (size 9 to 14) (size 15 to 20)
#    0.000    2.000    2.000    1.800    8.400    3.200 
#    0.000    5.000    0.000    0.000    0.000    2.800 
#    0.000    0.000    0.000    0.000    0.000    0.000 
#
# Total GULP energy -111446.408231 kJ/mol
# GULP energy per Si atom -5572.320412 kJ/mol
# Density = 2.314537 g / cm^3
# Si number density = 23.198173 Si / 1000 Ang^3
#
#
#
# Elastic Constant Matrix: (Units=GPa)
#
#
# Indices 1 2 3 4 5 6 
#
# 1 138.4263 23.5971 9.3080 0.0000 4.5418 0.0000
# 2 23.5971 132.5046 -31.7617 0.0000 -80.2168 0.0000
# 3 9.3080 -31.7617 105.8632 0.0000 35.5711 0.0000
# 4 0.0000 0.0000 0.0000 19.0345 0.0000 2.4149
# 5 4.5418 -80.2168 35.5711 0.0000 116.3301 0.0000
# 6 0.0000 0.0000 0.0000 2.4149 0.0000 16.4636
#
#
#
# Elastic Compliance Matrix: (Units=1/GPa)
#
#
# Indices 1 2 3 4 5 6 
#
# 1 0.007822 -0.002790 -0.000865 0.000000 -0.001965 0.000000
# 2 -0.002790 0.014043 0.001302 0.000000 0.009394 0.000000
# 3 -0.000865 0.001302 0.010699 0.000000 -0.002340 0.000000
# 4 0.000000 0.000000 0.000000 0.053532 0.000000 -0.007852
# 5 -0.001965 0.009394 -0.002340 0.000000 0.015866 0.000000
# 6 0.000000 0.000000 0.000000 -0.007852 0.000000 0.061892
#
#
# Mechanical properties :
#
#
# Convention : Reuss Voigt Hill
#
# Bulk Modulus (GPa) = 35.89413 42.12010 39.00711
# Shear Modulus (GPa) = 28.11419 55.40900 41.76160
#
# Velocity S-wave (km/s) = 3.48503 4.89254 4.24749
# Velocity P-wave (km/s) = 5.63031 7.07898 6.39579
#
# Compressibility (1/GPa) = 0.02785971
#
# Stress axis : x y z
#
# Youngs Moduli (GPa) = 127.84126 71.20979 93.46620
#
# Poissons Ratio (x) = 0.19865 0.08081
# Poissons Ratio (y) = 0.35663 -0.12169
# Poissons Ratio (z) = 0.11053 -0.09271
#
# Static dielectric constant tensor:
#      x y z
#    x 1.952620 0.000000 -0.025740 
#    y 0.000000 1.921590 0.000000 
#    z -0.025740 0.000000 1.893790 
# 
# From -- ./inp_files/129158.got.cif
#   From: 2010.05.17/outbox.cif.g08.bks.cpg/sg15_65_cif.got.tgz:129158.got - 2010.06.03 18:47:42.
