data_PCOD9278543
_publ_section_title
;
Structure prediction by ZEFSAII (Michael W. Deem and Ramdas Pophale) SiO2 
 PCOD9278543
Probable space group: C 2/C
;
_chemical_formula_sum "Si O2"
_cell_formula_units_Z 40
_cell_length_a 20.375773
_cell_length_b 16.584142
_cell_length_c 10.881324
_cell_angle_alpha 90.000000
_cell_angle_beta 151.689185
_cell_angle_gamma 90.000000
_cell_volume 1743.814199
_symmetry_space_group_name_H-M "C 2/C"
_symmetry_group_IT_number 15
_symmetry_cell_setting 'monoclinic'
loop_
_space_group_symop_operation_xyz
x,y,z
-x,y,1/2-z
-x,-y,-z
x,-y,1/2+z
1/2+x,1/2+y,z
1/2-x,1/2+y,1/2-z
1/2-x,1/2-y,-z
1/2+x,1/2-y,1/2+z
loop_
_atom_site_type_symbol
_atom_site_label
_atom_site_fract_x
_atom_site_fract_y
_atom_site_fract_z
Si Si1 0.297499 0.155857 0.303656
Si Si2 0.000000 0.814005 0.250000
Si Si3 0.890128 0.184708 0.835753
Si Si4 0.000000 0.549715 0.750000
Si Si5 0.563741 0.550050 0.220316
Si Si6 0.323479 0.946084 0.619846
O O1 0.331318 0.248137 0.330789
O O2 0.370401 0.111121 0.534319
O O3 0.364515 0.107334 0.302237
O O4 0.134029 0.141079 0.024123
O O5 0.933625 0.780819 0.270733
O O6 0.771130 0.116408 0.617356
O O7 0.021999 0.140908 0.114363
O O8 0.956661 0.485677 0.781382
O O9 0.500000 0.534602 0.250000
O O10 0.718912 0.517567 0.485107
O O11 0.500000 0.500000 0.000000
#
# Coordination Sequence:
#
# PCOD9278543 Si02
#       6
#     8   4   8   4   8   8
#     4  11  25  43  67 101 133 181 231 284 350 410
#     4  10  20  43  72  91 132 180 234 274 328 425
#     4  10  23  41  70 103 130 179 235 288 340 406
#     4  12  26  45  62 103 150 170 224 298 360 399
#     4  10  23  40  70 101 139 179 239 281 346 413
#     4  10  23  41  69  93 134 189 228 272 347 426
#
# _framework density 22.938222
#
# number of rings (size 3 to 8) (size 9 to 14) (size 15 to 20)
#    0.000    1.600    0.000    4.200   19.600    3.200 
#    3.600    2.000    0.000    0.000    0.000    0.000 
#    0.000    0.000    0.000    0.000    0.000    0.000 
#
# Total GULP energy -111354.086188 kJ/mol
# GULP energy per Si atom -5567.704309 kJ/mol
# Density = 2.288601 g / cm^3
# Si number density = 22.938222 Si / 1000 Ang^3
#
#
#
# Elastic Constant Matrix: (Units=GPa)
#
#
# Indices 1 2 3 4 5 6 
#
# 1 91.7544 17.3524 -2.6762 0.0000 -2.1485 0.0000
# 2 17.3524 97.7190 17.0608 0.0000 6.4117 0.0000
# 3 -2.6762 17.0608 25.5746 0.0000 7.3808 0.0000
# 4 0.0000 0.0000 0.0000 11.8587 0.0000 -12.3039
# 5 -2.1485 6.4117 7.3808 0.0000 24.0244 0.0000
# 6 0.0000 0.0000 0.0000 -12.3039 0.0000 19.5313
#
#
#
# Elastic Compliance Matrix: (Units=1/GPa)
#
#
# Indices 1 2 3 4 5 6 
#
# 1 0.011481 -0.002560 0.002651 0.000000 0.000896 0.000000
# 2 -0.002560 0.012167 -0.008099 0.000000 -0.000988 0.000000
# 3 0.002651 -0.008099 0.048379 0.000000 -0.012464 0.000000
# 4 0.000000 0.000000 0.000000 0.243441 0.000000 0.153358
# 5 0.000896 -0.000988 -0.012464 0.000000 0.045797 0.000000
# 6 0.000000 0.000000 0.000000 0.153358 0.000000 0.147809
#
#
# Mechanical properties :
#
#
# Convention : Reuss Voigt Hill
#
# Bulk Modulus (GPa) = 17.85412 30.94690 24.40051
# Shear Modulus (GPa) = 9.19520 23.30361 16.24940
#
# Velocity S-wave (km/s) = 2.00434 3.19082 2.66446
# Velocity P-wave (km/s) = 3.62725 5.20537 4.48625
#
# Compressibility (1/GPa) = 0.05600949
#
# Stress axis : x y z
#
# Youngs Moduli (GPa) = 87.09925 82.18963 20.67009
#
# Poissons Ratio (x) = 0.21043 -0.05480
# Poissons Ratio (y) = 0.22301 0.16742
# Poissons Ratio (z) = -0.23089 0.66569
#
# Static dielectric constant tensor:
#      x y z
#    x 1.956920 0.000000 -0.106840 
#    y 0.000000 1.869750 0.000000 
#    z -0.106840 0.000000 2.015820 
# 
# From -- ./inp_files/87616.got.cif
#   From: 2010.05.17/outbox.cif.g08.bks.cpg/sg15_44_cif.got.tgz:87616.got - 2010.06.03 18:47:42.
