data_PCOD9278614
_publ_section_title
;
Structure prediction by ZEFSAII (Michael W. Deem and Ramdas Pophale) SiO2 
 PCOD9278614
Probable space group: C 2/C
;
_chemical_formula_sum "Si O2"
_cell_formula_units_Z 60
_cell_length_a 8.579158
_cell_length_b 28.671687
_cell_length_c 17.648305
_cell_angle_alpha 90.000000
_cell_angle_beta 134.938453
_cell_angle_gamma 90.000000
_cell_volume 3072.924807
_symmetry_space_group_name_H-M "C 2/C"
_symmetry_group_IT_number 15
_symmetry_cell_setting 'monoclinic'
loop_
_space_group_symop_operation_xyz
x,y,z
-x,y,1/2-z
-x,-y,-z
x,-y,1/2+z
1/2+x,1/2+y,z
1/2-x,1/2+y,1/2-z
1/2-x,1/2-y,-z
1/2+x,1/2-y,1/2+z
loop_
_atom_site_type_symbol
_atom_site_label
_atom_site_fract_x
_atom_site_fract_y
_atom_site_fract_z
Si Si1 0.628923 0.140041 0.490813
Si Si2 0.141078 0.152645 0.646368
Si Si3 0.898572 0.481471 0.044134
Si Si4 0.884137 0.893661 0.519544
Si Si5 0.000000 0.730097 0.750000
Si Si6 0.261597 0.417589 0.185976
Si Si7 0.845574 0.432607 0.627330
Si Si8 0.669387 0.319340 0.871111
O O1 0.665165 0.107606 0.577757
O O2 0.561187 0.106560 0.397995
O O3 0.425314 0.174799 0.435362
O O4 0.874608 0.160292 0.557362
O O5 0.201439 0.122633 0.592324
O O6 0.293377 0.198134 0.700681
O O7 0.201477 0.121722 0.739314
O O8 0.795935 0.523200 0.056942
O O9 0.104278 0.458592 0.158493
O O10 0.736466 0.437522 0.983371
O O11 0.000000 0.500000 0.000000
O O12 0.864254 0.848575 0.565045
O O13 0.129445 0.910307 0.588627
O O14 0.911847 0.765774 0.655214
O O15 0.500000 0.438084 0.250000
O O16 0.000000 0.445297 0.750000
O O17 0.500000 0.340036 0.750000
#
# Coordination Sequence:
#
# PCOD9278614 Si02
#       8
#     8   8   8   8   4   8   8   8
#     4  10  20  44  65  89 127 177 204 254 330 379
#     4  10  23  41  67  93 128 161 215 272 323 381
#     4  12  23  38  61  92 126 169 217 255 304 386
#     4  11  23  41  65  87 130 172 199 266 327 365
#     4  10  24  40  66 102 122 158 226 258 332 390
#     4  10  21  39  65  89 127 167 209 258 321 370
#     4  11  24  38  62  93 129 163 219 259 305 373
#     4  10  22  41  67  89 128 163 213 257 323 393
#
# _framework density 19.525372000000001
#
# number of rings (size 3 to 8) (size 9 to 14) (size 15 to 20)
#    0.400    1.067    2.667    2.000    1.867    2.133 
#    0.000    0.667    8.800    0.000    0.000    0.000 
#    0.000    0.000    0.000    0.000    0.000    0.000 
#
# Total GULP energy -167284.383534 kJ/mol
# GULP energy per Si atom -5576.146118 kJ/mol
# Density = 1.948093 g / cm^3
# Si number density = 19.525372 Si / 1000 Ang^3
#
#
#
# Elastic Constant Matrix: (Units=GPa)
#
#
# Indices 1 2 3 4 5 6 
#
# 1 86.4970 39.0948 21.2464 0.0000 0.1167 0.0000
# 2 39.0948 86.4077 4.9845 0.0000 8.0154 0.0000
# 3 21.2464 4.9845 55.4756 0.0000 -5.6580 0.0000
# 4 0.0000 0.0000 0.0000 12.9537 0.0000 -19.4503
# 5 0.1167 8.0154 -5.6580 0.0000 32.2936 0.0000
# 6 0.0000 0.0000 0.0000 -19.4503 0.0000 2.3767
#
#
#
# Elastic Compliance Matrix: (Units=1/GPa)
#
#
# Indices 1 2 3 4 5 6 
#
# 1 0.016075 -0.007026 -0.005451 0.000000 0.000731 0.000000
# 2 -0.007026 0.015023 0.000981 0.000000 -0.003532 0.000000
# 3 -0.005451 0.000981 0.020366 0.000000 0.003345 0.000000
# 4 0.000000 0.000000 0.000000 -0.006839 0.000000 -0.055968
# 5 0.000731 -0.003532 0.003345 0.000000 0.032426 0.000000
# 6 0.000000 0.000000 0.000000 -0.055968 0.000000 -0.037274
#
#
# Mechanical properties :
#
#
# Convention : Reuss Voigt Hill
#
# Bulk Modulus (GPa) = 35.12170 39.89242 37.50706
# Shear Modulus (GPa) = 69.19508 20.39511 44.79510
#
# Velocity S-wave (km/s) = 5.95949 3.23545 4.79498
# Velocity P-wave (km/s) = 8.08584 5.86796 7.06448
#
# Compressibility (1/GPa) = 0.02847243
#
# Stress axis : x y z
#
# Youngs Moduli (GPa) = 62.20961 66.56430 49.10046
#
# Poissons Ratio (x) = 0.46770 0.26762
# Poissons Ratio (y) = 0.43710 -0.04817
# Poissons Ratio (z) = 0.33908 -0.06530
#
# Static dielectric constant tensor:
#      x y z
#    x 1.715570 0.000000 0.019320 
#    y 0.000000 1.667910 0.000000 
#    z 0.019320 0.000000 1.729640 
# 
# From -- ./inp_files/193731.got.cif
#   From: 2010.05.17/outbox.cif.g08.bks.cpg/sg15_97_cif.got.tgz:193731.got - 2010.06.03 18:47:42.
