data_PCOD9278141
_publ_section_title
;
Structure prediction by ZEFSAII (Michael W. Deem and Ramdas Pophale) SiO2 
 PCOD9278141
Probable space group: C 2/C
;
_chemical_formula_sum "Si O2"
_cell_formula_units_Z 36
_cell_length_a 9.795483
_cell_length_b 10.722331
_cell_length_c 15.361437
_cell_angle_alpha 90.000000
_cell_angle_beta 97.547125
_cell_angle_gamma 90.000000
_cell_volume 1599.441276
_symmetry_space_group_name_H-M "C 2/C"
_symmetry_group_IT_number 15
_symmetry_cell_setting 'monoclinic'
loop_
_space_group_symop_operation_xyz
x,y,z
-x,y,1/2-z
-x,-y,-z
x,-y,1/2+z
1/2+x,1/2+y,z
1/2-x,1/2+y,1/2-z
1/2-x,1/2-y,-z
1/2+x,1/2-y,1/2+z
loop_
_atom_site_type_symbol
_atom_site_label
_atom_site_fract_x
_atom_site_fract_y
_atom_site_fract_z
Si Si1 0.619647 0.931313 0.871618
Si Si2 0.928422 0.080554 0.419284
Si Si3 0.861906 0.282136 0.083812
Si Si4 0.649892 0.194397 0.200809
Si Si5 0.000000 0.926290 0.250000
O O1 0.767490 0.899773 0.924625
O O2 0.482280 0.845868 0.870437
O O3 0.653345 0.915239 0.771451
O O4 0.604084 0.074120 0.897461
O O5 0.998388 0.213244 0.423354
O O6 0.000000 0.000000 0.500000
O O7 0.969788 0.009139 0.332667
O O8 0.787368 0.219483 0.160531
O O9 0.750000 0.250000 0.000000
O O10 0.621659 0.322022 0.252531
#
# Coordination Sequence:
#
# PCOD9278141 Si02
#       5
#     8   8   8   8   4
#     4  10  23  44  64  98 132 171 233 267 344 391
#     4  12  23  43  71  98 136 184 219 279 345 400
#     4  12  24  44  67  98 140 172 227 286 332 405
#     4  10  24  44  68  97 135 177 227 286 325 409
#     4  10  20  42  66  94 136 172 224 274 334 402
#
# _framework density 22.507859
#
# number of rings (size 3 to 8) (size 9 to 14) (size 15 to 20)
#    0.000    1.333    4.444    1.333    0.000    6.222 
#    4.000    5.556    0.000    0.000    0.000    0.000 
#    0.000    0.000    0.000    0.000    0.000    0.000 
#
# Total GULP energy -100370.214215 kJ/mol
# GULP energy per Si atom -5576.123012 kJ/mol
# Density = 2.245663 g / cm^3
# Si number density = 22.507859 Si / 1000 Ang^3
#
#
#
# Elastic Constant Matrix: (Units=GPa)
#
#
# Indices 1 2 3 4 5 6 
#
# 1 92.9795 27.6589 -20.1686 0.0000 23.7350 0.0000
# 2 27.6589 111.3783 5.5682 0.0000 7.1153 0.0000
# 3 -20.1686 5.5682 49.4326 0.0000 -0.4501 0.0000
# 4 0.0000 0.0000 0.0000 35.9292 0.0000 -4.2685
# 5 23.7350 7.1153 -0.4501 0.0000 32.4787 0.0000
# 6 0.0000 0.0000 0.0000 -4.2685 0.0000 -44.4561
#
#
#
# Elastic Compliance Matrix: (Units=1/GPa)
#
#
# Indices 1 2 3 4 5 6 
#
# 1 0.016112 -0.003650 0.006886 0.000000 -0.010879 0.000000
# 2 -0.003650 0.009987 -0.002610 0.000000 0.000443 0.000000
# 3 0.006886 -0.002610 0.023295 0.000000 -0.004137 0.000000
# 4 0.000000 0.000000 0.000000 0.027519 0.000000 -0.002642
# 5 -0.010879 0.000443 -0.004137 0.000000 0.038585 0.000000
# 6 0.000000 0.000000 0.000000 -0.002642 0.000000 -0.022240
#
#
# Mechanical properties :
#
#
# Convention : Reuss Voigt Hill
#
# Bulk Modulus (GPa) = 19.74555 31.10083 25.42319
# Shear Modulus (GPa) = 45.91852 20.83916 33.37884
#
# Velocity S-wave (km/s) = 4.52166 3.04610 3.85513
# Velocity P-wave (km/s) = 6.00436 5.12049 5.57995
#
# Compressibility (1/GPa) = 0.05064431
#
# Stress axis : x y z
#
# Youngs Moduli (GPa) = 62.06687 100.12957 42.92712
#
# Poissons Ratio (x) = 0.36550 -0.29558
# Poissons Ratio (y) = 0.22656 0.11205
# Poissons Ratio (z) = -0.42737 0.26136
#
# Static dielectric constant tensor:
#      x y z
#    x 1.863290 0.000000 -0.002970 
#    y 0.000000 1.830600 0.000000 
#    z -0.002970 0.000000 1.954170 
# 
# From -- ./inp_files/195295.got.cif
#   From: 2010.05.17/outbox.cif.g08.bks.cpg/sg15_98_cif.got.tgz:195295.got - 2010.06.03 18:47:42.
