data_PCOD9278852
_publ_section_title
;
Structure prediction by ZEFSAII (Michael W. Deem and Ramdas Pophale) SiO2 
 PCOD9278852
Probable space group: C 2/C
;
_chemical_formula_sum "Si O2"
_cell_formula_units_Z 64
_cell_length_a 26.894186
_cell_length_b 23.789852
_cell_length_c 5.343672
_cell_angle_alpha 90.000000
_cell_angle_beta 105.850466
_cell_angle_gamma 90.000000
_cell_volume 3288.932689
_symmetry_space_group_name_H-M "C 2/C"
_symmetry_group_IT_number 15
_symmetry_cell_setting 'monoclinic'
loop_
_space_group_symop_operation_xyz
x,y,z
-x,y,1/2-z
-x,-y,-z
x,-y,1/2+z
1/2+x,1/2+y,z
1/2-x,1/2+y,1/2-z
1/2-x,1/2-y,-z
1/2+x,1/2-y,1/2+z
loop_
_atom_site_type_symbol
_atom_site_label
_atom_site_fract_x
_atom_site_fract_y
_atom_site_fract_z
Si Si1 0.724307 0.693613 0.567899
Si Si2 0.621804 0.744892 0.261004
Si Si3 0.762262 0.639392 0.123303
Si Si4 0.133188 0.472941 0.086499
Si Si5 0.958791 0.307852 0.009839
Si Si6 0.481558 0.310501 0.982879
Si Si7 0.871769 0.651284 0.069119
Si Si8 0.745307 0.521264 0.840039
O O1 0.750000 0.750000 0.500000
O O2 0.664036 0.707849 0.457839
O O3 0.740838 0.680830 0.875042
O O4 0.742294 0.649738 0.376723
O O5 0.589993 0.784537 0.404335
O O6 0.578523 0.703971 0.087814
O O7 0.641783 0.790165 0.087428
O O8 0.744689 0.580318 0.982832
O O9 0.824897 0.642026 0.201384
O O10 0.110488 0.495599 0.794643
O O11 0.130010 0.405422 0.098349
O O12 0.193969 0.489268 0.140593
O O13 0.000000 0.337682 0.250000
O O14 0.988408 0.250350 0.975286
O O15 0.930230 0.341594 0.752954
O O16 0.500000 0.336959 0.750000
O O17 0.500000 0.342742 0.250000
O O18 0.722777 0.519037 0.527584
#
# Coordination Sequence:
#
# PCOD9278852 Si02
#       8
#     8   8   8   8   8   8   8   8
#     4  12  23  35  46  72 115 140 172 195 246 314
#     4  10  21  31  50  71  97 136 163 201 247 287
#     4  11  24  34  51  78 104 141 172 211 251 302
#     4   9  20  33  47  71  92 116 155 214 266 304
#     4   9  20  33  51  74  91 119 174 218 244 292
#     4   9  17  31  47  68  89 112 168 212 235 276
#     4  11  20  32  56  68  96 127 172 207 258 299
#     4   9  17  34  54  70  93 125 174 221 253 285
#
# _framework density 19.459202000000001
#
# number of rings (size 3 to 8) (size 9 to 14) (size 15 to 20)
#    0.000    2.250    2.500    1.875    3.500    2.000 
#    0.000    0.000    0.000    0.750    0.000    0.000 
#    0.000    0.000    0.000    0.000    0.000  287.500 
#
# Total GULP energy -178202.231020 kJ/mol
# GULP energy per Si atom -5568.819719 kJ/mol
# Density = 1.941491 g / cm^3
# Si number density = 19.459202 Si / 1000 Ang^3
#
#
#
# Elastic Constant Matrix: (Units=GPa)
#
#
# Indices 1 2 3 4 5 6 
#
# 1 48.1732 2.9841 7.6289 0.0000 12.2758 0.0000
# 2 2.9841 33.6805 4.6075 0.0000 -0.1157 0.0000
# 3 7.6289 4.6075 85.8168 0.0000 -2.8913 0.0000
# 4 0.0000 0.0000 0.0000 19.3484 0.0000 -0.9552
# 5 12.2758 -0.1157 -2.8913 0.0000 30.9741 0.0000
# 6 0.0000 0.0000 0.0000 -0.9552 0.0000 1.8929
#
#
#
# Elastic Compliance Matrix: (Units=1/GPa)
#
#
# Indices 1 2 3 4 5 6 
#
# 1 0.023690 -0.001813 -0.002333 0.000000 -0.009613 0.000000
# 2 -0.001813 0.030049 -0.001429 0.000000 0.000697 0.000000
# 3 -0.002333 -0.001429 0.012006 0.000000 0.002040 0.000000
# 4 0.000000 0.000000 0.000000 0.053004 0.000000 0.026747
# 5 -0.009613 0.000697 0.002040 0.000000 0.036288 0.000000
# 6 0.000000 0.000000 0.000000 0.026747 0.000000 0.541794
#
#
# Mechanical properties :
#
#
# Convention : Reuss Voigt Hill
#
# Bulk Modulus (GPa) = 18.31620 22.01239 20.16430
# Shear Modulus (GPa) = 6.88536 20.60640 13.74588
#
# Velocity S-wave (km/s) = 1.88309 3.25769 2.66069
# Velocity P-wave (km/s) = 3.76312 5.04843 4.45240
#
# Compressibility (1/GPa) = 0.05459647
#
# Stress axis : x y z
#
# Youngs Moduli (GPa) = 42.21221 33.27871 83.29501
#
# Poissons Ratio (x) = 0.06033 0.19429
# Poissons Ratio (y) = 0.07652 0.11900
# Poissons Ratio (z) = 0.09846 0.04755
#
# Static dielectric constant tensor:
#      x y z
#    x 1.750980 0.000000 -0.027430 
#    y 0.000000 1.707430 0.000000 
#    z -0.027430 0.000000 1.851740 
# 
# From -- ./inp_files/16234.got.cif
#   From: 2010.05.17/outbox.cif.g08.bks.cpg/sg15_9_cif.got.tgz:16234.got - 2010.06.03 18:47:42.
