data_PCOD9278446
_publ_section_title
;
Structure prediction by ZEFSAII (Michael W. Deem and Ramdas Pophale) SiO2 
 PCOD9278446
Probable space group: C 2/C
;
_chemical_formula_sum "Si O2"
_cell_formula_units_Z 48
_cell_length_a 10.191965
_cell_length_b 8.018619
_cell_length_c 25.530301
_cell_angle_alpha 90.000000
_cell_angle_beta 97.136803
_cell_angle_gamma 90.000000
_cell_volume 2070.310902
_symmetry_space_group_name_H-M "C 2/C"
_symmetry_group_IT_number 15
_symmetry_cell_setting 'monoclinic'
loop_
_space_group_symop_operation_xyz
x,y,z
-x,y,1/2-z
-x,-y,-z
x,-y,1/2+z
1/2+x,1/2+y,z
1/2-x,1/2+y,1/2-z
1/2-x,1/2-y,-z
1/2+x,1/2-y,1/2+z
loop_
_atom_site_type_symbol
_atom_site_label
_atom_site_fract_x
_atom_site_fract_y
_atom_site_fract_z
Si Si1 0.614530 0.684787 0.711919
Si Si2 0.246019 0.123085 0.419735
Si Si3 0.652234 0.784719 0.044412
Si Si4 0.048742 0.127352 0.137298
Si Si5 0.908335 0.839184 0.485828
Si Si6 0.878148 0.565802 0.784124
O O1 0.500000 0.690379 0.750000
O O2 0.572283 0.545935 0.667955
O O3 0.746809 0.616715 0.746114
O O4 0.636086 0.876638 0.693804
O O5 0.993430 0.303987 0.487552
O O6 0.351168 0.273010 0.428159
O O7 0.108307 0.145825 0.383070
O O8 0.306617 0.941467 0.418077
O O9 0.633796 0.642051 0.087898
O O10 0.750000 0.750000 0.000000
O O11 0.794328 0.117490 0.020830
O O12 0.090455 0.283354 0.175146
O O13 0.000000 0.000000 0.500000
O O14 0.000000 0.558990 0.750000
#
# Coordination Sequence:
#
# PCOD9278446 Si02
#       6
#     8   8   8   8   8   8
#     4  11  25  48  80 105 154 193 243 311 382 451
#     4  10  23  42  66  97 141 182 245 299 354 421
#     4  11  23  44  71 101 147 194 249 295 361 431
#     4  11  26  46  71 112 147 194 248 301 372 444
#     4  10  20  43  65  91 130 191 235 299 358 411
#     4  11  25  48  77 112 145 195 247 311 382 450
#
# _framework density 23.184922
#
# number of rings (size 3 to 8) (size 9 to 14) (size 15 to 20)
#    0.000    1.333    3.333    1.000    2.333    0.000 
#   15.000    0.000    0.000    0.000    0.000    0.000 
#    0.000    0.000    0.000    0.000    0.000    0.000 
#
# Total GULP energy -133872.200793 kJ/mol
# GULP energy per Si atom -5578.008366 kJ/mol
# Density = 2.313215 g / cm^3
# Si number density = 23.184922 Si / 1000 Ang^3
#
#
#
# Elastic Constant Matrix: (Units=GPa)
#
#
# Indices 1 2 3 4 5 6 
#
# 1 95.8789 31.7789 29.4985 0.0000 19.1056 0.0000
# 2 31.7789 189.1436 68.7269 0.0000 14.4371 0.0000
# 3 29.4985 68.7269 100.2036 0.0000 12.2342 0.0000
# 4 0.0000 0.0000 0.0000 53.9783 0.0000 5.5184
# 5 19.1056 14.4371 12.2342 0.0000 51.2568 0.0000
# 6 0.0000 0.0000 0.0000 5.5184 0.0000 34.0875
#
#
#
# Elastic Compliance Matrix: (Units=1/GPa)
#
#
# Indices 1 2 3 4 5 6 
#
# 1 0.012239 -0.000837 -0.002576 0.000000 -0.003712 0.000000
# 2 -0.000837 0.007136 -0.004574 0.000000 -0.000606 0.000000
# 3 -0.002576 -0.004574 0.014009 0.000000 -0.001095 0.000000
# 4 0.000000 0.000000 0.000000 0.018838 0.000000 -0.003050
# 5 -0.003712 -0.000606 -0.001095 0.000000 0.021325 0.000000
# 6 0.000000 0.000000 0.000000 -0.003050 0.000000 0.029830
#
#
# Mechanical properties :
#
#
# Convention : Reuss Voigt Hill
#
# Bulk Modulus (GPa) = 57.43674 71.69274 64.56474
# Shear Modulus (GPa) = 39.95082 44.87931 42.41507
#
# Velocity S-wave (km/s) = 4.15557 4.40444 4.28182
# Velocity P-wave (km/s) = 6.91752 7.54021 7.23557
#
# Compressibility (1/GPa) = 0.01741046
#
# Stress axis : x y z
#
# Youngs Moduli (GPa) = 81.70364 140.13751 71.38404
#
# Poissons Ratio (x) = 0.11732 0.18387
# Poissons Ratio (y) = 0.06840 0.32650
# Poissons Ratio (z) = 0.21045 0.64096
#
# Static dielectric constant tensor:
#      x y z
#    x 2.677580 0.000000 0.203040 
#    y 0.000000 2.556390 0.000000 
#    z 0.203040 0.000000 2.000270 
# 
# From -- ./inp_files/267820.got.cif
#   From: 2010.05.17/outbox.cif.g08.bks.cpg/sg15_134_cif.got.tgz:267820.got - 2010.06.03 18:47:42.
