data_PCOD9278928
_publ_section_title
;
Structure prediction by ZEFSAII (Michael W. Deem and Ramdas Pophale) SiO2 
 PCOD9278928
Probable space group: C 2/C
;
_chemical_formula_sum "Si O2"
_cell_formula_units_Z 56
_cell_length_a 9.265958
_cell_length_b 20.365132
_cell_length_c 19.548489
_cell_angle_alpha 90.000000
_cell_angle_beta 47.641882
_cell_angle_gamma 90.000000
_cell_volume 2725.866955
_symmetry_space_group_name_H-M "C 2/C"
_symmetry_group_IT_number 15
_symmetry_cell_setting 'monoclinic'
loop_
_space_group_symop_operation_xyz
x,y,z
-x,y,1/2-z
-x,-y,-z
x,-y,1/2+z
1/2+x,1/2+y,z
1/2-x,1/2+y,1/2-z
1/2-x,1/2-y,-z
1/2+x,1/2-y,1/2+z
loop_
_atom_site_type_symbol
_atom_site_label
_atom_site_fract_x
_atom_site_fract_y
_atom_site_fract_z
Si Si1 0.219437 0.434315 0.708006
Si Si2 0.163568 0.197076 0.255878
Si Si3 0.581651 0.698922 0.793885
Si Si4 0.928708 0.108909 0.009067
Si Si5 0.968114 0.246586 0.455461
Si Si6 0.719631 0.081377 0.708799
Si Si7 0.305150 0.820953 0.014076
O O1 0.278910 0.375837 0.740069
O O2 0.367995 0.431030 0.595756
O O3 0.227398 0.507618 0.735460
O O4 0.000000 0.422886 0.750000
O O5 0.349779 0.242049 0.178366
O O6 0.000000 0.198315 0.250000
O O7 0.095812 0.236133 0.346057
O O8 0.500000 0.729830 0.750000
O O9 0.735579 0.639851 0.752293
O O10 0.384846 0.663404 0.880289
O O11 0.723022 0.123865 0.034645
O O12 0.110729 0.085115 0.904403
O O13 0.997898 0.180018 0.013579
O O14 0.750000 0.250000 0.500000
O O15 0.024934 0.307636 0.485780
O O16 0.500000 0.091231 0.750000
O O17 0.250000 0.750000 0.000000
#
# Coordination Sequence:
#
# PCOD9278928 Si02
#       7
#     8   8   8   8   8   8   8
#     4  10  22  40  60  85 116 160 201 240 292 360
#     4  11  24  35  57  84 117 154 193 248 295 341
#     4  11  21  36  59  84 114 152 193 249 289 352
#     4   9  20  36  59  83 115 152 197 243 285 356
#     4  10  21  33  51  85 120 148 185 244 300 345
#     4  10  22  38  61  86 117 156 201 240 296 352
#     4   9  19  33  52  81 111 148 186 231 295 344
#
# _framework density 20.543921000000001
#
# number of rings (size 3 to 8) (size 9 to 14) (size 15 to 20)
#    0.000    2.000    1.429    1.286   12.000    0.571 
#    0.000    0.000    0.000    0.000    0.000   15.000 
#    0.000    0.000    0.000    0.000    0.000    0.000 
#
# Total GULP energy -155893.814782 kJ/mol
# GULP energy per Si atom -5567.636242 kJ/mol
# Density = 2.049716 g / cm^3
# Si number density = 20.543921 Si / 1000 Ang^3
#
#
#
# Elastic Constant Matrix: (Units=GPa)
#
#
# Indices 1 2 3 4 5 6 
#
# 1 165.9967 73.8932 18.4062 0.0000 -11.8884 0.0000
# 2 73.8932 115.5107 9.0169 0.0000 1.0222 0.0000
# 3 18.4062 9.0169 51.5127 0.0000 -10.4552 0.0000
# 4 0.0000 0.0000 0.0000 20.4981 0.0000 -1.5630
# 5 -11.8884 1.0222 -10.4552 0.0000 25.6611 0.0000
# 6 0.0000 0.0000 0.0000 -1.5630 0.0000 24.7710
#
#
#
# Elastic Compliance Matrix: (Units=1/GPa)
#
#
# Indices 1 2 3 4 5 6 
#
# 1 0.008978 -0.005664 -0.001446 0.000000 0.003796 0.000000
# 2 -0.005664 0.012377 -0.000845 0.000000 -0.003461 0.000000
# 3 -0.001446 -0.000845 0.021747 0.000000 0.008224 0.000000
# 4 0.000000 0.000000 0.000000 0.049021 0.000000 0.003093
# 5 0.003796 -0.003461 0.008224 0.000000 0.044217 0.000000
# 6 0.000000 0.000000 0.000000 0.003093 0.000000 0.040565
#
#
# Mechanical properties :
#
#
# Convention : Reuss Voigt Hill
#
# Bulk Modulus (GPa) = 36.77697 59.51695 48.14696
# Shear Modulus (GPa) = 24.76750 29.63295 27.20023
#
# Velocity S-wave (km/s) = 3.47592 3.80204 3.64263
# Velocity P-wave (km/s) = 5.83523 6.95036 6.41706
#
# Compressibility (1/GPa) = 0.02719093
#
# Stress axis : x y z
#
# Youngs Moduli (GPa) = 111.38815 80.79511 45.98435
#
# Poissons Ratio (x) = 0.45760 0.06650
# Poissons Ratio (y) = 0.63088 0.03887
# Poissons Ratio (z) = 0.16107 0.06829
#
# Static dielectric constant tensor:
#      x y z
#    x 1.834270 0.000000 0.094760 
#    y 0.000000 1.744210 0.000000 
#    z 0.094760 0.000000 2.371840 
# 
# From -- ./inp_files/234257.got.cif
#   From: 2010.05.17/outbox.cif.g08.bks.cpg/sg15_118_cif.got.tgz:234257.got - 2010.06.03 18:47:42.
