data_PCOD9278252
_publ_section_title
;
Structure prediction by ZEFSAII (Michael W. Deem and Ramdas Pophale) SiO2 
 PCOD9278252
Probable space group: C 2/C
;
_chemical_formula_sum "Si O2"
_cell_formula_units_Z 44
_cell_length_a 8.512051
_cell_length_b 20.101799
_cell_length_c 13.462752
_cell_angle_alpha 90.000000
_cell_angle_beta 70.197351
_cell_angle_gamma 90.000000
_cell_volume 2167.356493
_symmetry_space_group_name_H-M "C 2/C"
_symmetry_group_IT_number 15
_symmetry_cell_setting 'monoclinic'
loop_
_space_group_symop_operation_xyz
x,y,z
-x,y,1/2-z
-x,-y,-z
x,-y,1/2+z
1/2+x,1/2+y,z
1/2-x,1/2+y,1/2-z
1/2-x,1/2-y,-z
1/2+x,1/2-y,1/2+z
loop_
_atom_site_type_symbol
_atom_site_label
_atom_site_fract_x
_atom_site_fract_y
_atom_site_fract_z
Si Si1 0.549382 0.316700 0.623355
Si Si2 0.500000 0.868137 0.250000
Si Si3 0.391467 0.458397 0.602831
Si Si4 0.672728 0.433188 0.223276
Si Si5 0.620695 0.940564 0.509594
Si Si6 0.567341 0.188132 0.521842
O O1 0.500000 0.304630 0.750000
O O2 0.478959 0.388374 0.607069
O O3 0.489646 0.261499 0.554724
O O4 0.750076 0.312479 0.566742
O O5 0.336614 0.904546 0.241723
O O6 0.425549 0.832423 0.363239
O O7 0.500000 0.500000 0.500000
O O8 0.371718 0.501443 0.705697
O O9 0.205446 0.449111 0.597686
O O10 0.500000 0.391951 0.250000
O O11 0.729083 0.445470 0.100110
O O12 0.536773 0.868758 0.511639
O O13 0.500000 0.000000 0.500000
#
# Coordination Sequence:
#
# PCOD9278252 Si02
#       6
#     8   4   8   8   8   8
#     4  11  24  43  67  95 133 176 231 273 337 414
#     4  10  20  42  68  96 132 172 230 276 344 404
#     4  12  23  39  65  97 130 169 222 279 334 396
#     4  11  22  38  64  98 129 173 222 273 337 401
#     4  11  24  41  64  96 135 170 220 281 338 400
#     4  10  23  43  67  92 130 180 220 275 347 400
#
# _framework density 20.301228999999999
#
# number of rings (size 3 to 8) (size 9 to 14) (size 15 to 20)
#    0.000    1.091    2.727    4.909    2.545    0.727 
#    0.000    0.000    0.000    0.000    0.000    0.000 
#    0.000    0.000    0.000    0.000    0.000    0.000 
#
# Total GULP energy -122634.236418 kJ/mol
# GULP energy per Si atom -5574.283474 kJ/mol
# Density = 2.025502 g / cm^3
# Si number density = 20.301229 Si / 1000 Ang^3
#
#
#
# Elastic Constant Matrix: (Units=GPa)
#
#
# Indices 1 2 3 4 5 6 
#
# 1 108.9618 35.5626 39.5164 0.0000 -3.7887 0.0000
# 2 35.5626 106.7300 22.9623 0.0000 -7.7775 0.0000
# 3 39.5164 22.9623 91.8454 0.0000 -18.7823 0.0000
# 4 0.0000 0.0000 0.0000 13.7093 0.0000 -2.4598
# 5 -3.7887 -7.7775 -18.7823 0.0000 39.4927 0.0000
# 6 0.0000 0.0000 0.0000 -2.4598 0.0000 26.3338
#
#
#
# Elastic Compliance Matrix: (Units=1/GPa)
#
#
# Indices 1 2 3 4 5 6 
#
# 1 0.011806 -0.003054 -0.004661 0.000000 -0.001685 0.000000
# 2 -0.003054 0.010718 -0.001101 0.000000 0.001294 0.000000
# 3 -0.004661 -0.001101 0.014437 0.000000 0.006202 0.000000
# 4 0.000000 0.000000 0.000000 0.074187 0.000000 0.006930
# 5 -0.001685 0.001294 0.006202 0.000000 0.028364 0.000000
# 6 0.000000 0.000000 0.000000 0.006930 0.000000 0.038621
#
#
# Mechanical properties :
#
#
# Convention : Reuss Voigt Hill
#
# Bulk Modulus (GPa) = 51.73413 55.95774 53.84594
# Shear Modulus (GPa) = 24.72716 29.87356 27.30036
#
# Velocity S-wave (km/s) = 3.49379 3.84019 3.67108
# Velocity P-wave (km/s) = 6.46637 6.87651 6.67459
#
# Compressibility (1/GPa) = 0.01932960
#
# Stress axis : x y z
#
# Youngs Moduli (GPa) = 84.70369 93.29949 69.26809
#
# Poissons Ratio (x) = 0.28492 0.32283
# Poissons Ratio (y) = 0.25867 0.07627
# Poissons Ratio (z) = 0.39477 0.10273
#
# Static dielectric constant tensor:
#      x y z
#    x 1.749690 0.000000 0.000520 
#    y 0.000000 1.796830 0.000000 
#    z 0.000520 0.000000 1.698630 
# 
# From -- ./inp_files/134282.got.cif
#   From: 2010.05.17/outbox.cif.g08.bks.cpg/sg15_68_cif.got.tgz:134282.got - 2010.06.03 18:47:42.
