data_PCOD9278846
_publ_section_title
;
Structure prediction by ZEFSAII (Michael W. Deem and Ramdas Pophale) SiO2 
 PCOD9278846
Probable space group: C 2/C
;
_chemical_formula_sum "Si O2"
_cell_formula_units_Z 40
_cell_length_a 20.089568
_cell_length_b 11.412143
_cell_length_c 11.037867
_cell_angle_alpha 90.000000
_cell_angle_beta 40.502589
_cell_angle_gamma 90.000000
_cell_volume 1643.578122
_symmetry_space_group_name_H-M "C 2/C"
_symmetry_group_IT_number 15
_symmetry_cell_setting 'monoclinic'
loop_
_space_group_symop_operation_xyz
x,y,z
-x,y,1/2-z
-x,-y,-z
x,-y,1/2+z
1/2+x,1/2+y,z
1/2-x,1/2+y,1/2-z
1/2-x,1/2-y,-z
1/2+x,1/2-y,1/2+z
loop_
_atom_site_type_symbol
_atom_site_label
_atom_site_fract_x
_atom_site_fract_y
_atom_site_fract_z
Si Si1 0.498506 0.215796 0.387607
Si Si2 0.769031 0.775364 0.684471
Si Si3 0.948097 0.326627 0.438926
Si Si4 0.538976 0.564817 0.325474
Si Si5 0.191129 0.103024 0.613229
O O1 0.500000 0.164348 0.250000
O O2 0.386092 0.272953 0.564400
O O3 0.525180 0.131501 0.462496
O O4 0.589123 0.313423 0.257135
O O5 0.759321 0.862136 0.582234
O O6 0.750662 0.647104 0.648731
O O7 0.674131 0.806536 0.901724
O O8 0.000000 0.383372 0.250000
O O9 0.999490 0.196438 0.376574
O O10 0.500000 0.514144 0.250000
O O11 0.500000 0.500000 0.500000
O O12 0.658383 0.531354 0.160443
#
# Coordination Sequence:
#
# PCOD9278846 Si02
#       5
#     8   8   8   8   8
#     4   9  16  28  47  67  95 133 170 202 244 301
#     4   9  16  28  47  68  99 139 172 200 252 309
#     4  10  21  31  44  75 111 131 161 215 265 300
#     4  11  19  30  48  71 104 136 162 204 258 305
#     4   9  17  29  47  73 101 133 173 211 244 304
#
# _framework density 24.337147000000002
#
# number of rings (size 3 to 8) (size 9 to 14) (size 15 to 20)
#    0.000    2.400    4.000    3.000    0.000    0.800 
#    0.000    0.000    0.000    0.000    0.000    0.000 
#    0.000  443.200    0.000    0.000    0.000    0.000 
#
# Total GULP energy -111478.990114 kJ/mol
# GULP energy per Si atom -5573.949506 kJ/mol
# Density = 2.428175 g / cm^3
# Si number density = 24.337147 Si / 1000 Ang^3
#
#
#
# Elastic Constant Matrix: (Units=GPa)
#
#
# Indices 1 2 3 4 5 6 
#
# 1 121.7845 -3.1700 54.4919 0.0000 7.7711 0.0000
# 2 -3.1700 64.9058 10.4481 0.0000 -6.1418 0.0000
# 3 54.4919 10.4481 156.3973 0.0000 -5.1809 0.0000
# 4 0.0000 0.0000 0.0000 14.4826 0.0000 -10.7600
# 5 7.7711 -6.1418 -5.1809 0.0000 56.0981 0.0000
# 6 0.0000 0.0000 0.0000 -10.7600 0.0000 7.0774
#
#
#
# Elastic Compliance Matrix: (Units=1/GPa)
#
#
# Indices 1 2 3 4 5 6 
#
# 1 0.009938 0.000909 -0.003576 0.000000 -0.001607 0.000000
# 2 0.000909 0.015805 -0.001323 0.000000 0.001482 0.000000
# 3 -0.003576 -0.001323 0.007764 0.000000 0.001068 0.000000
# 4 0.000000 0.000000 0.000000 -0.532998 0.000000 -0.810334
# 5 -0.001607 0.001482 0.001068 0.000000 0.018309 0.000000
# 6 0.000000 0.000000 0.000000 -0.810334 0.000000 -1.090682
#
#
# Mechanical properties :
#
#
# Convention : Reuss Voigt Hill
#
# Bulk Modulus (GPa) = 39.17825 51.84750 45.51288
# Shear Modulus (GPa) = -3.21466 34.28613 15.53574
#
# Velocity S-wave (km/s) = -1.15054 3.75747 2.52931
# Velocity P-wave (km/s) = 3.79052 6.33836 5.22221
#
# Compressibility (1/GPa) = 0.02552436
#
# Stress axis : x y z
#
# Youngs Moduli (GPa) = 100.62654 63.27260 128.80181
#
# Poissons Ratio (x) = -0.05751 0.46066
# Poissons Ratio (y) = -0.09147 0.17046
# Poissons Ratio (z) = 0.35989 0.08374
#
# Static dielectric constant tensor:
#      x y z
#    x 2.024610 0.000000 0.059950 
#    y 0.000000 2.015790 0.000000 
#    z 0.059950 0.000000 2.035170 
# 
# From -- ./inp_files/113130.got.cif
#   From: 2010.05.17/outbox.cif.g08.bks.cpg/sg15_57_cif.got.tgz:113130.got - 2010.06.03 18:47:42.
