data_PCOD9278578
_publ_section_title
;
Structure prediction by ZEFSAII (Michael W. Deem and Ramdas Pophale) SiO2 
 PCOD9278578
Probable space group: C 2/C
;
_chemical_formula_sum "Si O2"
_cell_formula_units_Z 40
_cell_length_a 12.333360
_cell_length_b 12.983114
_cell_length_c 22.956518
_cell_angle_alpha 90.000000
_cell_angle_beta 155.330464
_cell_angle_gamma 90.000000
_cell_volume 1534.270920
_symmetry_space_group_name_H-M "C 2/C"
_symmetry_group_IT_number 15
_symmetry_cell_setting 'monoclinic'
loop_
_space_group_symop_operation_xyz
x,y,z
-x,y,1/2-z
-x,-y,-z
x,-y,1/2+z
1/2+x,1/2+y,z
1/2-x,1/2+y,1/2-z
1/2-x,1/2-y,-z
1/2+x,1/2-y,1/2+z
loop_
_atom_site_type_symbol
_atom_site_label
_atom_site_fract_x
_atom_site_fract_y
_atom_site_fract_z
Si Si1 0.725211 0.372565 0.177592
Si Si2 0.880169 0.262913 0.421222
Si Si3 0.418624 0.675459 0.146348
Si Si4 0.690842 0.088413 0.254334
Si Si5 0.793578 0.860304 0.051829
O O1 0.789217 0.489741 0.194794
O O2 0.956561 0.290641 0.295006
O O3 0.532915 0.319727 0.037198
O O4 0.577136 0.387020 0.167073
O O5 0.684764 0.193524 0.288817
O O6 0.760899 0.345999 0.406955
O O7 0.109977 0.313738 0.495588
O O8 0.500000 0.634112 0.250000
O O9 0.560224 0.610829 0.165617
O O10 0.437324 0.074399 0.090378
O O11 0.750000 0.750000 0.000000
#
# Coordination Sequence:
#
# PCOD9278578 Si02
#       5
#     8   8   8   8   8
#     4  10  23  40  63  97 129 159 216 265 308 378
#     4  10  22  42  67  93 125 166 216 262 314 378
#     4  10  20  44  62  89 131 165 205 266 312 378
#     4  12  22  39  72  90 125 174 206 262 330 360
#     4  10  21  44  61  92 134 162 207 268 311 379
#
# _framework density 26.071016
#
# number of rings (size 3 to 8) (size 9 to 14) (size 15 to 20)
#    0.000    1.600    6.000    1.200    2.800    3.200 
#   10.800    3.000    0.000    0.000    0.000    0.000 
#    0.000    0.000    0.000    0.000    0.000    0.000 
#
# Total GULP energy -111954.819249 kJ/mol
# GULP energy per Si atom -5597.740962 kJ/mol
# Density = 2.601168 g / cm^3
# Si number density = 26.071016 Si / 1000 Ang^3
#
#
#
# Elastic Constant Matrix: (Units=GPa)
#
#
# Indices 1 2 3 4 5 6 
#
# 1 158.7552 3.9967 39.1071 0.0004 28.4667 0.0000
# 2 3.9967 47.7439 -3.0300 0.0004 8.2710 0.0003
# 3 39.1071 -3.0300 110.1419 0.0026 6.6368 -0.0022
# 4 0.0004 0.0004 0.0026 11.4833 -0.0004 -13.5067
# 5 28.4667 8.2710 6.6368 -0.0004 50.9646 -0.0001
# 6 0.0000 0.0003 -0.0022 -13.5067 -0.0001 5.2790
#
#
#
# Elastic Compliance Matrix: (Units=1/GPa)
#
#
# Indices 1 2 3 4 5 6 
#
# 1 0.007612 -0.000116 -0.002470 0.000001 -0.003911 0.000000
# 2 -0.000116 0.021625 0.000850 0.000001 -0.003555 0.000002
# 3 -0.002470 0.000850 0.009983 -0.000001 -0.000058 0.000001
# 4 0.000001 0.000001 -0.000001 -0.043339 -0.000001 -0.110884
# 5 -0.003911 -0.003555 -0.000058 -0.000001 0.022391 -0.000002
# 6 0.000000 0.000002 0.000001 -0.110884 -0.000002 -0.094273
#
#
# Mechanical properties :
#
#
# Convention : Reuss Voigt Hill
#
# Bulk Modulus (GPa) = 27.97414 44.08764 36.03089
# Shear Modulus (GPa) = -82.48962 31.98321 -25.25320
#
# Velocity S-wave (km/s) = -5.63108 3.50633 -3.11566
# Velocity P-wave (km/s) = 5.61475 5.77406 0.95245
#
# Compressibility (1/GPa) = 0.03574730
#
# Stress axis : x y z
#
# Youngs Moduli (GPa) = 131.37636 46.24345 100.16857
#
# Poissons Ratio (x) = 0.00538 0.24743
# Poissons Ratio (y) = 0.01530 -0.08519
# Poissons Ratio (z) = 0.32452 -0.03933
#
# Static dielectric constant tensor:
#      x y z
#    x 2.138480 0.000000 0.008780 
#    y 0.000000 2.021550 0.000000 
#    z 0.008780 0.000000 2.058480 
# 
# From -- ./inp_files/270038.got.cif
#   From: 2010.05.17/outbox.cif.g08.bks.cpg/sg15_136_cif.got.tgz:270038.got - 2010.06.03 18:47:42.
