data_PCOD9278328
_publ_section_title
;
Structure prediction by ZEFSAII (Michael W. Deem and Ramdas Pophale) SiO2 
 PCOD9278328
Probable space group: C 2/C
;
_chemical_formula_sum "Si O2"
_cell_formula_units_Z 44
_cell_length_a 19.519172
_cell_length_b 11.470135
_cell_length_c 10.268485
_cell_angle_alpha 90.000000
_cell_angle_beta 49.398239
_cell_angle_gamma 90.000000
_cell_volume 1745.507988
_symmetry_space_group_name_H-M "C 2/C"
_symmetry_group_IT_number 15
_symmetry_cell_setting 'monoclinic'
loop_
_space_group_symop_operation_xyz
x,y,z
-x,y,1/2-z
-x,-y,-z
x,-y,1/2+z
1/2+x,1/2+y,z
1/2-x,1/2+y,1/2-z
1/2-x,1/2-y,-z
1/2+x,1/2-y,1/2+z
loop_
_atom_site_type_symbol
_atom_site_label
_atom_site_fract_x
_atom_site_fract_y
_atom_site_fract_z
Si Si1 0.248739 0.115999 0.717783
Si Si2 0.432380 0.259483 0.103267
Si Si3 0.808738 0.964845 0.954306
Si Si4 0.000000 0.079069 0.750000
Si Si5 0.378364 0.227209 0.742176
Si Si6 0.936554 0.517713 0.206373
O O1 0.156897 0.188028 0.847237
O O2 0.333716 0.195980 0.654984
O O3 0.236734 0.049631 0.596868
O O4 0.242238 0.026099 0.845014
O O5 0.479241 0.342050 0.151446
O O6 0.397989 0.143577 0.218377
O O7 0.514731 0.248491 0.900961
O O8 0.824871 0.834952 0.872309
O O9 0.909646 0.004473 0.867544
O O10 0.380097 0.099646 0.808505
O O11 0.000000 0.536553 0.250000
O O12 0.000000 0.500000 0.000000
#
# Coordination Sequence:
#
# PCOD9278328 Si02
#       6
#     8   8   8   4   8   8
#     4  11  26  44  71 102 136 181 226 288 335 411
#     4  10  22  44  67 100 137 178 229 277 345 405
#     4  11  24  44  68 101 137 176 236 274 349 399
#     4  10  20  42  70  96 132 182 222 286 334 400
#     4  11  25  41  70  98 141 178 225 285 340 403
#     4  10  23  40  67  96 131 178 225 274 336 398
#
# _framework density 25.207560999999998
#
# number of rings (size 3 to 8) (size 9 to 14) (size 15 to 20)
#    0.000    1.455    0.909    2.727    8.909    5.818 
#    0.000    2.727    0.000    0.000    0.000    0.000 
#    0.000    0.000    0.000    0.000    0.000    0.000 
#
# Total GULP energy -122873.452402 kJ/mol
# GULP energy per Si atom -5585.156927 kJ/mol
# Density = 2.515019 g / cm^3
# Si number density = 25.207561 Si / 1000 Ang^3
#
#
#
# Elastic Constant Matrix: (Units=GPa)
#
#
# Indices 1 2 3 4 5 6 
#
# 1 113.5084 34.0985 16.2066 0.0000 -2.6082 0.0000
# 2 34.0985 85.5889 -10.7865 0.0000 -8.9969 0.0000
# 3 16.2066 -10.7865 42.1533 0.0000 -1.2118 0.0000
# 4 0.0000 0.0000 0.0000 -19.6772 0.0000 66.3307
# 5 -2.6082 -8.9969 -1.2118 0.0000 33.5865 0.0000
# 6 0.0000 0.0000 0.0000 66.3307 0.0000 -43.1174
#
#
#
# Elastic Compliance Matrix: (Units=1/GPa)
#
#
# Indices 1 2 3 4 5 6 
#
# 1 0.011176 -0.005244 -0.005660 0.000000 -0.000741 0.000000
# 2 -0.005244 0.014922 0.005944 0.000000 0.003804 0.000000
# 3 -0.005660 0.005944 0.027482 0.000000 0.002144 0.000000
# 4 0.000000 0.000000 0.000000 0.012141 0.000000 0.018678
# 5 -0.000741 0.003804 0.002144 0.000000 0.030813 0.000000
# 6 0.000000 0.000000 0.000000 0.018678 0.000000 0.005541
#
#
# Mechanical properties :
#
#
# Convention : Reuss Voigt Hill
#
# Bulk Modulus (GPa) = 22.90448 35.58753 29.24600
# Shear Modulus (GPa) = 39.51069 7.60719 23.55894
#
# Velocity S-wave (km/s) = 3.96335 1.73907 3.06044
# Velocity P-wave (km/s) = 5.48182 4.26391 4.91077
#
# Compressibility (1/GPa) = 0.04365959
#
# Stress axis : x y z
#
# Youngs Moduli (GPa) = 89.47501 67.01565 36.38792
#
# Poissons Ratio (x) = 0.35142 0.20596
# Poissons Ratio (y) = 0.46919 -0.21628
# Poissons Ratio (z) = 0.50644 -0.39833
#
# Static dielectric constant tensor:
#      x y z
#    x 1.978410 0.000000 -0.069060 
#    y 0.000000 2.082790 0.000000 
#    z -0.069060 0.000000 2.134350 
# 
# From -- ./inp_files/104106.got.cif
#   From: 2010.05.17/outbox.cif.g08.bks.cpg/sg15_53_cif.got.tgz:104106.got - 2010.06.03 18:47:42.
