data_PCOD9278958
_publ_section_title
;
Structure prediction by ZEFSAII (Michael W. Deem and Ramdas Pophale) SiO2 
 PCOD9278958
Probable space group: C 2/C
;
_chemical_formula_sum "Si O2"
_cell_formula_units_Z 44
_cell_length_a 6.388073
_cell_length_b 19.646585
_cell_length_c 20.687817
_cell_angle_alpha 90.000000
_cell_angle_beta 123.979988
_cell_angle_gamma 90.000000
_cell_volume 2153.020167
_symmetry_space_group_name_H-M "C 2/C"
_symmetry_group_IT_number 15
_symmetry_cell_setting 'monoclinic'
loop_
_space_group_symop_operation_xyz
x,y,z
-x,y,1/2-z
-x,-y,-z
x,-y,1/2+z
1/2+x,1/2+y,z
1/2-x,1/2+y,1/2-z
1/2-x,1/2-y,-z
1/2+x,1/2-y,1/2+z
loop_
_atom_site_type_symbol
_atom_site_label
_atom_site_fract_x
_atom_site_fract_y
_atom_site_fract_z
Si Si1 0.931889 0.163911 0.566775
Si Si2 0.627835 0.730315 0.341242
Si Si3 0.000000 0.538381 0.250000
Si Si4 0.543137 0.726700 0.054942
Si Si5 0.726592 0.090334 0.166837
Si Si6 0.023690 0.960271 0.329558
O O1 0.717850 0.213761 0.557700
O O2 0.196482 0.203831 0.622141
O O3 0.912366 0.162859 0.485164
O O4 0.924036 0.096400 0.607989
O O5 0.500000 0.734933 0.250000
O O6 0.423427 0.720354 0.362689
O O7 0.795807 0.661315 0.373559
O O8 0.972538 0.581638 0.310462
O O9 0.748620 0.493253 0.202927
O O10 0.250000 0.750000 0.000000
O O11 0.000000 0.094503 0.250000
O O12 0.765255 0.020471 0.134014
O O13 0.000000 0.935316 0.250000
#
# Coordination Sequence:
#
# PCOD9278958 Si02
#       6
#     8   8   4   8   8   8
#     4  10  21  35  56  79 106 145 179 221 273 324
#     4  10  21  33  56  84 110 135 180 227 267 320
#     4   8  16  32  52  72 114 142 164 218 276 312
#     4   9  21  39  52  73 113 146 173 221 282 318
#     4   8  17  33  48  77 111 145 169 215 273 324
#     4   9  19  31  52  80 108 136 181 222 267 320
#
# _framework density 20.436409000000001
#
# number of rings (size 3 to 8) (size 9 to 14) (size 15 to 20)
#    0.000    3.273    0.000    0.000    3.818    8.727 
#    0.000    0.909    0.000   10.909    0.000    0.000 
#    0.000    0.000    0.000    0.000    0.000    0.000 
#
# Total GULP energy -122546.334434 kJ/mol
# GULP energy per Si atom -5570.287929 kJ/mol
# Density = 2.038989 g / cm^3
# Si number density = 20.436409 Si / 1000 Ang^3
#
#
#
# Elastic Constant Matrix: (Units=GPa)
#
#
# Indices 1 2 3 4 5 6 
#
# 1 100.9334 1.0444 26.5152 0.0000 -33.5261 0.0000
# 2 1.0444 61.0153 9.3694 0.0000 -15.7384 0.0000
# 3 26.5152 9.3694 78.8805 0.0000 -29.7986 0.0000
# 4 0.0000 0.0000 0.0000 0.8214 0.0000 4.7873
# 5 -33.5261 -15.7384 -29.7986 0.0000 34.2135 0.0000
# 6 0.0000 0.0000 0.0000 4.7873 0.0000 12.6114
#
#
#
# Elastic Compliance Matrix: (Units=1/GPa)
#
#
# Indices 1 2 3 4 5 6 
#
# 1 0.015636 0.004273 0.001143 0.000000 0.018283 0.000000
# 2 0.004273 0.019887 0.001847 0.000000 0.014944 0.000000
# 3 0.001143 0.001847 0.019103 0.000000 0.018608 0.000000
# 4 0.000000 0.000000 0.000000 -1.004146 0.000000 0.381179
# 5 0.018283 0.014944 0.018608 0.000000 0.070225 0.000000
# 6 0.000000 0.000000 0.000000 0.381179 0.000000 -0.065404
#
#
# Mechanical properties :
#
#
# Convention : Reuss Voigt Hill
#
# Bulk Modulus (GPa) = 14.46090 34.96524 24.71307
# Shear Modulus (GPa) = -5.34089 23.12261 8.89086
#
# Velocity S-wave (km/s) = -1.61836 3.36734 2.08805
# Velocity P-wave (km/s) = 1.89718 5.68024 4.23464
#
# Compressibility (1/GPa) = 0.06915197
#
# Stress axis : x y z
#
# Youngs Moduli (GPa) = 63.95569 50.28369 52.34697
#
# Poissons Ratio (x) = -0.21485 -0.05985
# Poissons Ratio (y) = -0.27327 -0.09667
# Poissons Ratio (z) = -0.07312 -0.09286
#
# Static dielectric constant tensor:
#      x y z
#    x 1.737040 0.000000 -0.026330 
#    y 0.000000 1.782090 0.000000 
#    z -0.026330 0.000000 1.829500 
# 
# From -- ./inp_files/184983.got.cif
#   From: 2010.05.17/outbox.cif.g08.bks.cpg/sg15_93_cif.got.tgz:184983.got - 2010.06.03 18:47:42.
