data_PCOD9278142
_publ_section_title
;
Structure prediction by ZEFSAII (Michael W. Deem and Ramdas Pophale) SiO2 
 PCOD9278142
Probable space group: C 2/C
;
_chemical_formula_sum "Si O2"
_cell_formula_units_Z 44
_cell_length_a 23.382102
_cell_length_b 16.364924
_cell_length_c 5.646785
_cell_angle_alpha 90.000000
_cell_angle_beta 121.927617
_cell_angle_gamma 90.000000
_cell_volume 1833.840816
_symmetry_space_group_name_H-M "C 2/C"
_symmetry_group_IT_number 15
_symmetry_cell_setting 'monoclinic'
loop_
_space_group_symop_operation_xyz
x,y,z
-x,y,1/2-z
-x,-y,-z
x,-y,1/2+z
1/2+x,1/2+y,z
1/2-x,1/2+y,1/2-z
1/2-x,1/2-y,-z
1/2+x,1/2-y,1/2+z
loop_
_atom_site_type_symbol
_atom_site_label
_atom_site_fract_x
_atom_site_fract_y
_atom_site_fract_z
Si Si1 0.688478 0.798399 0.469684
Si Si2 0.372903 0.127914 0.274193
Si Si3 0.500000 0.949547 0.250000
Si Si4 0.579901 0.272977 0.446652
Si Si5 0.582269 0.542105 0.903519
Si Si6 0.223965 0.480890 0.455157
O O1 0.750000 0.750000 0.500000
O O2 0.687280 0.819948 0.741617
O O3 0.697157 0.888866 0.378242
O O4 0.620576 0.746504 0.275541
O O5 0.433321 0.105670 0.586809
O O6 0.402699 0.189753 0.152689
O O7 0.340059 0.040982 0.146989
O O8 0.500000 0.000000 0.500000
O O9 0.500000 0.277762 0.250000
O O10 0.604134 0.362994 0.421636
O O11 0.500000 0.541129 0.750000
O O12 0.601826 0.493487 0.706127
O O13 0.259316 0.492207 0.788345
#
# Coordination Sequence:
#
# PCOD9278142 Si02
#       6
#     8   8   4   8   8   8
#     4  11  25  45  67 100 143 197 248 307 363 439
#     4  11  24  41  69 102 149 190 242 296 367 444
#     4  12  26  40  70 112 156 202 244 292 374 456
#     4  11  24  42  72 107 141 185 244 301 371 449
#     4   9  20  40  65  93 134 179 227 295 361 419
#     4  10  20  42  66  94 139 187 230 288 353 430
#
# _framework density 23.993359000000002
#
# number of rings (size 3 to 8) (size 9 to 14) (size 15 to 20)
#    0.000    1.455    1.818    3.273    6.364    0.727 
#    1.636    3.636    0.000    0.000    0.000    0.000 
#    0.000    0.000    0.000    0.000    0.000    0.000 
#
# Total GULP energy -122644.382205 kJ/mol
# GULP energy per Si atom -5574.744646 kJ/mol
# Density = 2.393875 g / cm^3
# Si number density = 23.993359 Si / 1000 Ang^3
#
#
#
# Elastic Constant Matrix: (Units=GPa)
#
#
# Indices 1 2 3 4 5 6 
#
# 1 61.9948 35.4991 28.2059 0.0000 -7.4315 0.0000
# 2 35.4991 164.0788 52.2521 0.0000 0.3725 0.0000
# 3 28.2059 52.2521 104.1211 0.0000 -10.7396 0.0000
# 4 0.0000 0.0000 0.0000 25.2962 0.0000 -9.6254
# 5 -7.4315 0.3725 -10.7396 0.0000 37.3188 0.0000
# 6 0.0000 0.0000 0.0000 -9.6254 0.0000 36.1080
#
#
#
# Elastic Compliance Matrix: (Units=1/GPa)
#
#
# Indices 1 2 3 4 5 6 
#
# 1 0.019907 -0.003207 -0.003474 0.000000 0.002996 0.000000
# 2 -0.003207 0.007819 -0.003225 0.000000 -0.001645 0.000000
# 3 -0.003474 -0.003225 0.012466 0.000000 0.002928 0.000000
# 4 0.000000 0.000000 0.000000 0.043994 0.000000 0.011728
# 5 0.002996 -0.001645 0.002928 0.000000 0.028252 0.000000
# 6 0.000000 0.000000 0.000000 0.011728 0.000000 0.030821
#
#
# Mechanical properties :
#
#
# Convention : Reuss Voigt Hill
#
# Bulk Modulus (GPa) = 49.06948 62.45654 55.76301
# Shear Modulus (GPa) = 29.43535 34.02711 31.73123
#
# Velocity S-wave (km/s) = 3.50639 3.76997 3.64057
# Velocity P-wave (km/s) = 6.07361 6.71100 6.40024
#
# Compressibility (1/GPa) = 0.02037927
#
# Stress axis : x y z
#
# Youngs Moduli (GPa) = 50.23430 127.88932 80.22083
#
# Poissons Ratio (x) = 0.41019 0.27868
# Poissons Ratio (y) = 0.16112 0.25870
# Poissons Ratio (z) = 0.17451 0.41242
#
# Static dielectric constant tensor:
#      x y z
#    x 1.948950 0.000000 -0.073030 
#    y 0.000000 1.900030 0.000000 
#    z -0.073030 0.000000 1.862670 
# 
# From -- ./inp_files/16951.got.cif
#   From: 2010.05.17/outbox.cif.g08.bks.cpg/sg15_9_cif.got.tgz:16951.got - 2010.06.03 18:47:42.
