data_PCOD9278643
_publ_section_title
;
Structure prediction by ZEFSAII (Michael W. Deem and Ramdas Pophale) SiO2 
 PCOD9278643
Probable space group: C 2/C
;
_chemical_formula_sum "Si O2"
_cell_formula_units_Z 44
_cell_length_a 5.543653
_cell_length_b 21.473142
_cell_length_c 17.223373
_cell_angle_alpha 90.000000
_cell_angle_beta 63.804815
_cell_angle_gamma 90.000000
_cell_volume 1839.692832
_symmetry_space_group_name_H-M "C 2/C"
_symmetry_group_IT_number 15
_symmetry_cell_setting 'monoclinic'
loop_
_space_group_symop_operation_xyz
x,y,z
-x,y,1/2-z
-x,-y,-z
x,-y,1/2+z
1/2+x,1/2+y,z
1/2-x,1/2+y,1/2-z
1/2-x,1/2-y,-z
1/2+x,1/2-y,1/2+z
loop_
_atom_site_type_symbol
_atom_site_label
_atom_site_fract_x
_atom_site_fract_y
_atom_site_fract_z
Si Si1 0.000000 0.652271 0.750000
Si Si2 0.484423 0.412021 0.344433
Si Si3 0.500000 0.925956 0.750000
Si Si4 0.576315 0.676230 0.069509
Si Si5 0.000000 0.847261 0.750000
Si Si6 0.114881 0.299534 0.398090
Si Si7 0.555831 0.468687 0.911295
O O1 0.214963 0.608605 0.675931
O O2 0.122880 0.692366 0.803038
O O3 0.500000 0.409944 0.250000
O O4 0.300808 0.355721 0.401366
O O5 0.406792 0.482115 0.376626
O O6 0.745391 0.886727 0.752849
O O7 0.359302 0.966294 0.836492
O O8 0.619679 0.686165 0.156354
O O9 0.339307 0.726825 0.086820
O O10 0.522235 0.603124 0.071001
O O11 0.823859 0.688964 0.977434
O O12 0.500000 0.500000 0.000000
#
# Coordination Sequence:
#
# PCOD9278643 Si02
#       7
#     4   8   4   8   4   8   8
#     4  10  20  44  66  96 136 184 232 294 374 436
#     4  10  23  41  70  98 139 184 237 303 368 442
#     4  10  25  46  72 109 151 191 246 308 378 445
#     4  10  23  43  67 102 142 184 246 300 369 441
#     4  10  23  48  72 107 149 193 244 310 372 447
#     4  10  22  44  67  99 138 190 241 301 363 449
#     4  11  24  43  69 103 139 190 242 309 370 447
#
# _framework density 23.917034999999998
#
# number of rings (size 3 to 8) (size 9 to 14) (size 15 to 20)
#    0.000    1.818    0.000    2.182    7.636    2.182 
#   26.182    2.727    0.000    0.000    0.000    0.000 
#    0.000    0.000    0.000    0.000    0.000    0.000 
#
# Total GULP energy -122607.019786 kJ/mol
# GULP energy per Si atom -5573.046354 kJ/mol
# Density = 2.386260 g / cm^3
# Si number density = 23.917035 Si / 1000 Ang^3
#
#
#
# Elastic Constant Matrix: (Units=GPa)
#
#
# Indices 1 2 3 4 5 6 
#
# 1 52.4761 28.2721 -0.7740 0.0000 -10.5165 0.0000
# 2 28.2721 217.4611 17.6256 0.0000 -14.5975 0.0000
# 3 -0.7740 17.6256 120.5379 0.0000 0.3554 0.0000
# 4 0.0000 0.0000 0.0000 2.3053 0.0000 4.1923
# 5 -10.5165 -14.5975 0.3554 0.0000 23.0228 0.0000
# 6 0.0000 0.0000 0.0000 4.1923 0.0000 27.8143
#
#
#
# Elastic Compliance Matrix: (Units=1/GPa)
#
#
# Indices 1 2 3 4 5 6 
#
# 1 0.022036 -0.002326 0.000456 0.000000 0.008584 0.000000
# 2 -0.002326 0.005110 -0.000769 0.000000 0.002190 0.000000
# 3 0.000456 -0.000769 0.008413 0.000000 -0.000409 0.000000
# 4 0.000000 0.000000 0.000000 0.597567 0.000000 -0.090068
# 5 0.008584 0.002190 -0.000409 0.000000 0.048751 0.000000
# 6 0.000000 0.000000 0.000000 -0.090068 0.000000 0.049528
#
#
# Mechanical properties :
#
#
# Convention : Reuss Voigt Hill
#
# Bulk Modulus (GPa) = 33.02172 53.41360 43.21766
# Shear Modulus (GPa) = 6.69545 33.65192 20.17369
#
# Velocity S-wave (km/s) = 1.67497 3.75511 2.90743
# Velocity P-wave (km/s) = 4.19255 6.41735 5.42033
#
# Compressibility (1/GPa) = 0.03028310
#
# Stress axis : x y z
#
# Youngs Moduli (GPa) = 45.37956 195.68835 118.86824
#
# Poissons Ratio (x) = 0.45511 -0.05424
# Poissons Ratio (y) = 0.10554 0.09136
# Poissons Ratio (z) = -0.02071 0.15041
#
# Static dielectric constant tensor:
#      x y z
#    x 2.092810 0.000000 0.030630 
#    y 0.000000 2.095920 0.000000 
#    z 0.030630 0.000000 1.874970 
# 
# From -- ./inp_files/227247.got.cif
#   From: 2010.05.17/outbox.cif.g08.bks.cpg/sg15_114_cif.got.tgz:227247.got - 2010.06.03 18:47:42.
