data_PCOD9278907
_publ_section_title
;
Structure prediction by ZEFSAII (Michael W. Deem and Ramdas Pophale) SiO2 
 PCOD9278907
Probable space group: C 2/C
;
_chemical_formula_sum "Si O2"
_cell_formula_units_Z 60
_cell_length_a 5.462067
_cell_length_b 26.387832
_cell_length_c 24.524684
_cell_angle_alpha 90.000000
_cell_angle_beta 128.343218
_cell_angle_gamma 90.000000
_cell_volume 2772.369796
_symmetry_space_group_name_H-M "C 2/C"
_symmetry_group_IT_number 15
_symmetry_cell_setting 'monoclinic'
loop_
_space_group_symop_operation_xyz
x,y,z
-x,y,1/2-z
-x,-y,-z
x,-y,1/2+z
1/2+x,1/2+y,z
1/2-x,1/2+y,1/2-z
1/2-x,1/2-y,-z
1/2+x,1/2-y,1/2+z
loop_
_atom_site_type_symbol
_atom_site_label
_atom_site_fract_x
_atom_site_fract_y
_atom_site_fract_z
Si Si1 0.515964 0.821498 0.506331
Si Si2 0.937907 0.527268 0.823847
Si Si3 0.933804 0.848860 0.658480
Si Si4 0.374138 0.320210 0.294283
Si Si5 0.000000 0.065059 0.250000
Si Si6 0.555268 0.296711 0.017863
Si Si7 0.532350 0.568487 0.666227
Si Si8 0.594568 0.791644 0.850651
O O1 0.706724 0.856315 0.574446
O O2 0.601917 0.762738 0.536688
O O3 0.148427 0.823420 0.464824
O O4 0.636059 0.823409 0.461222
O O5 0.804437 0.470425 0.799604
O O6 0.748319 0.556031 0.749240
O O7 0.806257 0.548397 0.862616
O O8 0.295496 0.538999 0.859008
O O9 0.036356 0.900111 0.701849
O O10 0.718825 0.819894 0.673270
O O11 0.222003 0.816251 0.674901
O O12 0.500000 0.327985 0.250000
O O13 0.460295 0.371516 0.337666
O O14 0.521798 0.266981 0.332414
O O15 0.000000 0.314794 0.250000
O O16 0.329097 0.297691 0.933978
#
# Coordination Sequence:
#
# PCOD9278907 Si02
#       8
#     8   8   8   8   4   8   8   8
#     4   8  14  27  47  59  78 114 153 189 220 240
#     4   9  17  30  45  59  77 106 149 194 222 244
#     4  10  21  33  42  64  95 128 156 176 211 273
#     4  12  20  30  46  64  89 126 147 181 222 276
#     4  10  22  32  46  64  94 126 150 188 224 266
#     4   8  14  28  44  61  80 110 152 194 215 243
#     4   9  15  30  45  61  75 102 146 192 224 252
#     4  10  22  31  42  65  95 125 156 175 214 271
#
# _framework density 21.642135
#
# number of rings (size 3 to 8) (size 9 to 14) (size 15 to 20)
#    0.000    2.667    2.667    0.800    2.800    4.267 
#    0.000    0.000    0.000    0.000    0.000    0.000 
#    0.000    5.333    0.000    1.200    0.000    0.800 
#
# Total GULP energy -167393.950895 kJ/mol
# GULP energy per Si atom -5579.798363 kJ/mol
# Density = 2.159288 g / cm^3
# Si number density = 21.642135 Si / 1000 Ang^3
#
#
#
# Elastic Constant Matrix: (Units=GPa)
#
#
# Indices 1 2 3 4 5 6 
#
# 1 241.1933 59.2693 23.5765 0.0000 -11.5972 0.0000
# 2 59.2693 129.5305 28.5184 0.0000 -8.2134 0.0000
# 3 23.5765 28.5184 36.9359 0.0000 -1.0380 0.0000
# 4 0.0000 0.0000 0.0000 -54.0166 0.0000 -212.4319
# 5 -11.5972 -8.2134 -1.0380 0.0000 10.2609 0.0000
# 6 0.0000 0.0000 0.0000 -212.4319 0.0000 -783.0282
#
#
#
# Elastic Compliance Matrix: (Units=1/GPa)
#
#
# Indices 1 2 3 4 5 6 
#
# 1 0.004909 -0.001593 -0.001789 0.000000 0.004092 0.000000
# 2 -0.001593 0.010307 -0.006779 0.000000 0.005764 0.000000
# 3 -0.001789 -0.006779 0.033336 0.000000 -0.004076 0.000000
# 4 0.000000 0.000000 0.000000 0.276609 0.000000 -0.075043
# 5 0.004092 0.005764 -0.004076 0.000000 0.106285 0.000000
# 6 0.000000 0.000000 0.000000 -0.075043 0.000000 0.019082
#
#
# Mechanical properties :
#
#
# Convention : Reuss Voigt Hill
#
# Bulk Modulus (GPa) = 35.42355 70.04314 52.73335
# Shear Modulus (GPa) = 10.41105 -145.60374 -67.59635
#
# Velocity S-wave (km/s) = 2.19567 -8.21121 -5.59477
# Velocity P-wave (km/s) = 4.77822 7.58051 4.16129
#
# Compressibility (1/GPa) = 0.02822981
#
# Stress axis : x y z
#
# Youngs Moduli (GPa) = 203.70295 97.01950 29.99803
#
# Poissons Ratio (x) = 0.15455 0.05365
# Poissons Ratio (y) = 0.32449 0.20337
# Poissons Ratio (z) = 0.36434 0.65774
#
# Static dielectric constant tensor:
#      x y z
#    x 1.891070 0.000000 -0.089310 
#    y 0.000000 1.764240 0.000000 
#    z -0.089310 0.000000 1.802160 
# 
# From -- ./inp_files/306066.got.cif
#   From: 2010.05.17/outbox.cif.g08.bks.cpg/sg15_154_cif.got.tgz:306066.got - 2010.06.03 18:47:42.
