data_PCOD9278392
_publ_section_title
;
Structure prediction by ZEFSAII (Michael W. Deem and Ramdas Pophale) SiO2 
 PCOD9278392
Probable space group: C 2/C
;
_chemical_formula_sum "Si O2"
_cell_formula_units_Z 40
_cell_length_a 8.678968
_cell_length_b 11.971355
_cell_length_c 17.730455
_cell_angle_alpha 90.000000
_cell_angle_beta 122.642146
_cell_angle_gamma 90.000000
_cell_volume 1551.215652
_symmetry_space_group_name_H-M "C 2/C"
_symmetry_group_IT_number 15
_symmetry_cell_setting 'monoclinic'
loop_
_space_group_symop_operation_xyz
x,y,z
-x,y,1/2-z
-x,-y,-z
x,-y,1/2+z
1/2+x,1/2+y,z
1/2-x,1/2+y,1/2-z
1/2-x,1/2-y,-z
1/2+x,1/2-y,1/2+z
loop_
_atom_site_type_symbol
_atom_site_label
_atom_site_fract_x
_atom_site_fract_y
_atom_site_fract_z
Si Si1 0.022727 0.184810 0.866416
Si Si2 0.164677 0.821580 0.735137
Si Si3 0.878450 0.355467 0.012454
Si Si4 0.296490 0.023562 0.858215
Si Si5 0.140834 0.178151 0.052885
O O1 0.145066 0.299045 0.896384
O O2 0.819491 0.226828 0.792462
O O3 0.137132 0.109656 0.838133
O O4 0.049707 0.120889 0.955318
O O5 0.242596 0.942330 0.777285
O O6 0.105183 0.837216 0.632257
O O7 0.000000 0.799030 0.750000
O O8 0.002616 0.422474 0.105393
O O9 0.044544 0.297208 0.013199
O O10 0.750000 0.250000 0.000000
O O11 0.801259 0.443417 0.933385
#
# Coordination Sequence:
#
# PCOD9278392 Si02
#       5
#     8   8   8   8   8
#     4  10  23  47  78 110 150 206 252 309 393 454
#     4  12  25  44  78 114 154 199 260 323 376 460
#     4  10  20  42  74 106 143 193 249 306 370 447
#     4  10  23  44  79 100 149 203 242 309 391 445
#     4  10  22  42  80 107 151 202 244 319 382 448
#
# _framework density 25.786225999999999
#
# number of rings (size 3 to 8) (size 9 to 14) (size 15 to 20)
#    0.000    1.600    2.000    1.800    2.800    3.200 
#    0.000    4.000   22.000    0.000    0.000    0.000 
#    0.000    0.000    0.000    0.000    0.000    0.000 
#
# Total GULP energy -111399.760112 kJ/mol
# GULP energy per Si atom -5569.988006 kJ/mol
# Density = 2.572754 g / cm^3
# Si number density = 25.786226 Si / 1000 Ang^3
#
#
#
# Elastic Constant Matrix: (Units=GPa)
#
#
# Indices 1 2 3 4 5 6 
#
# 1 114.1668 43.8248 83.0591 0.0000 7.6677 0.0000
# 2 43.8248 106.5629 56.7790 0.0000 6.0700 0.0000
# 3 83.0591 56.7790 194.0057 0.0000 -15.7915 0.0000
# 4 0.0000 0.0000 0.0000 41.7222 0.0000 20.9361
# 5 7.6677 6.0700 -15.7915 0.0000 48.7902 0.0000
# 6 0.0000 0.0000 0.0000 20.9361 0.0000 39.2448
#
#
#
# Elastic Compliance Matrix: (Units=1/GPa)
#
#
# Indices 1 2 3 4 5 6 
#
# 1 0.014045 -0.002610 -0.005548 0.000000 -0.003678 0.000000
# 2 -0.002610 0.011909 -0.002521 0.000000 -0.001887 0.000000
# 3 -0.005548 -0.002521 0.008591 0.000000 0.003966 0.000000
# 4 0.000000 0.000000 0.000000 0.032730 0.000000 -0.017460
# 5 -0.003678 -0.001887 0.003966 0.000000 0.022592 0.000000
# 6 0.000000 0.000000 0.000000 -0.017460 0.000000 0.034796
#
#
# Mechanical properties :
#
#
# Convention : Reuss Voigt Hill
#
# Bulk Modulus (GPa) = 75.84950 86.89571 81.37260
# Shear Modulus (GPa) = 33.24105 41.35627 37.29866
#
# Velocity S-wave (km/s) = 3.59430 4.00911 3.80736
# Velocity P-wave (km/s) = 6.83403 7.42982 7.13814
#
# Compressibility (1/GPa) = 0.01318400
#
# Stress axis : x y z
#
# Youngs Moduli (GPa) = 71.20108 83.97340 116.40527
#
# Poissons Ratio (x) = 0.21918 0.64587
# Poissons Ratio (y) = 0.18585 0.29350
# Poissons Ratio (z) = 0.39505 0.21173
#
# Static dielectric constant tensor:
#      x y z
#    x 2.044190 0.000000 0.010960 
#    y 0.000000 2.139450 0.000000 
#    z 0.010960 0.000000 2.368840 
# 
# From -- ./inp_files/189062.got.cif
#   From: 2010.05.17/outbox.cif.g08.bks.cpg/sg15_95_cif.got.tgz:189062.got - 2010.06.03 18:47:42.
