data_PCOD9278064
_publ_section_title
;
Structure prediction by ZEFSAII (Michael W. Deem and Ramdas Pophale) SiO2 
 PCOD9278064
Probable space group: C 2/C
;
_chemical_formula_sum "Si O2"
_cell_formula_units_Z 40
_cell_length_a 11.716345
_cell_length_b 13.158291
_cell_length_c 12.076183
_cell_angle_alpha 90.000000
_cell_angle_beta 66.109897
_cell_angle_gamma 90.000000
_cell_volume 1702.242413
_symmetry_space_group_name_H-M "C 2/C"
_symmetry_group_IT_number 15
_symmetry_cell_setting 'monoclinic'
loop_
_space_group_symop_operation_xyz
x,y,z
-x,y,1/2-z
-x,-y,-z
x,-y,1/2+z
1/2+x,1/2+y,z
1/2-x,1/2+y,1/2-z
1/2-x,1/2-y,-z
1/2+x,1/2-y,1/2+z
loop_
_atom_site_type_symbol
_atom_site_label
_atom_site_fract_x
_atom_site_fract_y
_atom_site_fract_z
Si Si1 0.391160 0.423091 0.576061
Si Si2 0.120855 0.276971 0.326882
Si Si3 0.871609 0.458725 0.864561
Si Si4 0.624664 0.718760 0.634535
Si Si5 0.855226 0.334918 0.436063
O O1 0.500000 0.500000 0.500000
O O2 0.409570 0.343605 0.667651
O O3 0.255839 0.468855 0.655637
O O4 0.374574 0.351561 0.473691
O O5 0.250790 0.294157 0.340054
O O6 0.133576 0.324498 0.201208
O O7 0.991533 0.313285 0.432421
O O8 0.883364 0.339570 0.889158
O O9 0.840181 0.545183 0.968039
O O10 0.000000 0.482033 0.750000
O O11 0.500000 0.692490 0.750000
O O12 0.750000 0.250000 0.500000
#
# Coordination Sequence:
#
# PCOD9278064 Si02
#       5
#     8   8   8   8   8
#     4  11  24  45  68  97 139 175 231 293 343 414
#     4  10  22  43  66  96 136 178 229 277 351 411
#     4  10  20  42  65  94 133 176 220 274 336 406
#     4  10  24  44  69  98 135 181 230 280 342 424
#     4  11  23  41  69 100 140 177 227 293 341 405
#
# _framework density 23.498415999999999
#
# number of rings (size 3 to 8) (size 9 to 14) (size 15 to 20)
#    0.000    1.600    2.000    3.600    5.600    0.000 
#   10.800    8.000    0.000    0.000    0.000    0.000 
#    0.000    0.000    0.000    0.000    0.000    0.000 
#
# Total GULP energy -111421.432011 kJ/mol
# GULP energy per Si atom -5571.071601 kJ/mol
# Density = 2.344493 g / cm^3
# Si number density = 23.498416 Si / 1000 Ang^3
#
#
#
# Elastic Constant Matrix: (Units=GPa)
#
#
# Indices 1 2 3 4 5 6 
#
# 1 149.1511 47.9825 42.4706 0.0000 -3.9851 0.0000
# 2 47.9825 115.8176 16.0720 0.0000 3.3626 0.0000
# 3 42.4706 16.0720 76.6436 0.0000 -16.2538 0.0000
# 4 0.0000 0.0000 0.0000 28.4805 0.0000 -1.8282
# 5 -3.9851 3.3626 -16.2538 0.0000 27.8896 0.0000
# 6 0.0000 0.0000 0.0000 -1.8282 0.0000 40.4124
#
#
#
# Elastic Compliance Matrix: (Units=1/GPa)
#
#
# Indices 1 2 3 4 5 6 
#
# 1 0.008949 -0.003050 -0.004530 0.000000 -0.000994 0.000000
# 2 -0.003050 0.010083 -0.000884 0.000000 -0.002167 0.000000
# 3 -0.004530 -0.000884 0.017832 0.000000 0.009852 0.000000
# 4 0.000000 0.000000 0.000000 0.035214 0.000000 0.001593
# 5 -0.000994 -0.002167 0.009852 0.000000 0.041717 0.000000
# 6 0.000000 0.000000 0.000000 0.001593 0.000000 0.024817
#
#
# Mechanical properties :
#
#
# Convention : Reuss Voigt Hill
#
# Bulk Modulus (GPa) = 50.15839 61.62916 55.89378
# Shear Modulus (GPa) = 30.82875 35.02898 32.92886
#
# Velocity S-wave (km/s) = 3.62601 3.86514 3.74749
# Velocity P-wave (km/s) = 6.23878 6.79728 6.52401
#
# Compressibility (1/GPa) = 0.01993684
#
# Stress axis : x y z
#
# Youngs Moduli (GPa) = 111.74102 99.17234 56.07790
#
# Poissons Ratio (x) = 0.30249 0.25404
# Poissons Ratio (y) = 0.34082 0.04956
# Poissons Ratio (z) = 0.50621 0.08765
#
# Static dielectric constant tensor:
#      x y z
#    x 1.970730 0.000000 0.007330 
#    y 0.000000 2.087090 0.000000 
#    z 0.007330 0.000000 1.956780 
# 
# From -- ./inp_files/142151.got.cif
#   From: 2010.05.17/outbox.cif.g08.bks.cpg/sg15_72_cif.got.tgz:142151.got - 2010.06.03 18:47:42.
