data_PCOD9278620
_publ_section_title
;
Structure prediction by ZEFSAII (Michael W. Deem and Ramdas Pophale) SiO2 
 PCOD9278620
Probable space group: C 2/C
;
_chemical_formula_sum "Si O2"
_cell_formula_units_Z 48
_cell_length_a 8.892572
_cell_length_b 19.022355
_cell_length_c 19.387895
_cell_angle_alpha 90.000000
_cell_angle_beta 143.834555
_cell_angle_gamma 90.000000
_cell_volume 1935.360370
_symmetry_space_group_name_H-M "C 2/C"
_symmetry_group_IT_number 15
_symmetry_cell_setting 'monoclinic'
loop_
_space_group_symop_operation_xyz
x,y,z
-x,y,1/2-z
-x,-y,-z
x,-y,1/2+z
1/2+x,1/2+y,z
1/2-x,1/2+y,1/2-z
1/2-x,1/2-y,-z
1/2+x,1/2-y,1/2+z
loop_
_atom_site_type_symbol
_atom_site_label
_atom_site_fract_x
_atom_site_fract_y
_atom_site_fract_z
Si Si1 0.500000 0.266637 0.250000
Si Si2 0.956222 0.432899 0.546842
Si Si3 0.128497 0.392577 0.131999
Si Si4 0.000000 0.854503 0.750000
Si Si5 0.187393 0.494719 0.256346
Si Si6 0.751919 0.311632 0.556093
Si Si7 0.031221 0.864031 0.913256
O O1 0.493657 0.211906 0.310047
O O2 0.738390 0.318989 0.339767
O O3 0.858333 0.440774 0.432897
O O4 0.239748 0.399320 0.648187
O O5 0.996808 0.488214 0.622254
O O6 0.771761 0.379652 0.517680
O O7 0.284257 0.423492 0.255482
O O8 0.831682 0.376682 0.035143
O O9 0.004035 0.823063 0.829222
O O10 0.378318 0.559988 0.344512
O O11 0.000000 0.481973 0.250000
O O12 0.750000 0.250000 0.500000
O O13 0.567891 0.327200 0.553109
#
# Coordination Sequence:
#
# PCOD9278620 Si02
#       7
#     4   8   8   4   8   8   8
#     4  12  26  45  68 110 146 187 246 292 364 422
#     4  10  20  44  66 102 133 188 235 290 364 428
#     4  11  26  43  69 106 146 183 238 301 358 425
#     4   8  18  35  68  98 132 169 238 284 340 428
#     4  11  22  41  73 100 139 187 239 298 357 437
#     4  12  24  46  76  98 143 194 240 296 354 430
#     4  10  23  46  72 105 139 192 244 289 368 428
#
# _framework density 24.801583000000001
#
# number of rings (size 3 to 8) (size 9 to 14) (size 15 to 20)
#    0.000    1.333    3.333    2.500    0.000    8.000 
#    3.000    0.000    1.833    0.000    0.000    0.000 
#    0.000    0.000    0.000    0.000    0.000    0.000 
#
# Total GULP energy -133633.219260 kJ/mol
# GULP energy per Si atom -5568.050803 kJ/mol
# Density = 2.474513 g / cm^3
# Si number density = 24.801583 Si / 1000 Ang^3
#
#
#
# Elastic Constant Matrix: (Units=GPa)
#
#
# Indices 1 2 3 4 5 6 
#
# 1 214.5933 41.5291 82.4337 -0.0013 -31.3120 -0.0004
# 2 41.5291 32.7143 27.8332 -0.0018 1.2015 -0.0004
# 3 82.4337 27.8332 117.0432 -0.0039 -6.6539 -0.0005
# 4 -0.0013 -0.0018 -0.0039 30.9981 -0.0013 -18.5684
# 5 -31.3120 1.2015 -6.6539 -0.0013 53.2138 -0.0005
# 6 -0.0004 -0.0004 -0.0005 -18.5684 -0.0005 26.3572
#
#
#
# Elastic Compliance Matrix: (Units=1/GPa)
#
#
# Indices 1 2 3 4 5 6 
#
# 1 0.008187 -0.007361 -0.003759 -0.000001 0.004514 0.000000
# 2 -0.007361 0.045155 -0.005900 0.000003 -0.006088 0.000002
# 3 -0.003759 -0.005900 0.012566 0.000002 -0.000508 0.000001
# 4 -0.000001 0.000003 0.000002 0.055814 0.000002 0.039320
# 5 0.004514 -0.006088 -0.000508 0.000002 0.021522 0.000002
# 6 0.000000 0.000002 0.000001 0.039320 0.000002 0.065641
#
#
# Mechanical properties :
#
#
# Convention : Reuss Voigt Hill
#
# Bulk Modulus (GPa) = 31.37942 74.21586 52.79764
# Shear Modulus (GPa) = 19.72026 36.28413 28.00220
#
# Velocity S-wave (km/s) = 2.82285 3.82904 3.36378
# Velocity P-wave (km/s) = 4.82745 7.03829 6.03497
#
# Compressibility (1/GPa) = 0.03186802
#
# Stress axis : x y z
#
# Youngs Moduli (GPa) = 122.14378 22.14601 79.58185
#
# Poissons Ratio (x) = 0.16301 0.29917
# Poissons Ratio (y) = 0.89904 0.46954
# Poissons Ratio (z) = 0.45917 0.13066
#
# Static dielectric constant tensor:
#      x y z
#    x 1.939770 0.000010 0.065660 
#    y 0.000010 7.044870 -0.000020 
#    z 0.065660 -0.000020 1.890760 
# 
# From -- ./inp_files/234013.got.cif
#   From: 2010.05.17/outbox.cif.g08.bks.cpg/sg15_118_cif.got.tgz:234013.got - 2010.06.03 18:47:42.
