data_PCOD9278329
_publ_section_title
;
Structure prediction by ZEFSAII (Michael W. Deem and Ramdas Pophale) SiO2 
 PCOD9278329
Probable space group: C 2/C
;
_chemical_formula_sum "Si O2"
_cell_formula_units_Z 52
_cell_length_a 19.193212
_cell_length_b 8.166877
_cell_length_c 15.551463
_cell_angle_alpha 90.000000
_cell_angle_beta 64.001023
_cell_angle_gamma 90.000000
_cell_volume 2190.982433
_symmetry_space_group_name_H-M "C 2/C"
_symmetry_group_IT_number 15
_symmetry_cell_setting 'monoclinic'
loop_
_space_group_symop_operation_xyz
x,y,z
-x,y,1/2-z
-x,-y,-z
x,-y,1/2+z
1/2+x,1/2+y,z
1/2-x,1/2+y,1/2-z
1/2-x,1/2-y,-z
1/2+x,1/2-y,1/2+z
loop_
_atom_site_type_symbol
_atom_site_label
_atom_site_fract_x
_atom_site_fract_y
_atom_site_fract_z
Si Si1 0.353102 0.895373 0.751267
Si Si2 0.876509 0.223631 0.278007
Si Si3 0.554291 0.356704 0.936151
Si Si4 0.705773 0.900320 0.896200
Si Si5 0.713251 0.730181 0.425979
Si Si6 0.937075 0.642512 0.909009
Si Si7 0.500000 0.131961 0.250000
O O1 0.339952 0.838760 0.662118
O O2 0.271486 0.885367 0.843400
O O3 0.421290 0.788901 0.758067
O O4 0.376927 0.086223 0.746357
O O5 0.905322 0.121577 0.179906
O O6 0.789842 0.178299 0.352478
O O7 0.927852 0.225610 0.336782
O O8 0.624523 0.325474 0.964564
O O9 0.496753 0.204183 0.948452
O O10 0.500000 0.500000 0.000000
O O11 0.717525 0.093750 0.878596
O O12 0.648672 0.879894 0.007119
O O13 0.750000 0.750000 0.500000
O O14 0.967765 0.478730 0.846679
#
# Coordination Sequence:
#
# PCOD9278329 Si02
#       7
#     8   8   8   8   8   8   4
#     4  11  22  44  70  96 149 185 231 297 354 427
#     4  11  23  48  70 102 139 193 238 291 351 441
#     4  12  26  44  72 104 144 185 240 302 360 425
#     4  12  24  41  75 103 137 190 240 291 365 425
#     4  12  27  46  66 108 149 183 236 305 367 430
#     4  11  23  43  73 101 136 187 246 292 348 442
#     4  10  20  42  70  96 132 192 236 292 338 430
#
# _framework density 23.733644999999999
#
# number of rings (size 3 to 8) (size 9 to 14) (size 15 to 20)
#    0.000    0.615    6.154    2.308    4.308    4.923 
#    0.000    0.000    0.000    0.000    0.000    0.000 
#    0.000    0.000    0.000    0.000    0.000    0.000 
#
# Total GULP energy -145384.194819 kJ/mol
# GULP energy per Si atom -5591.699801 kJ/mol
# Density = 2.367963 g / cm^3
# Si number density = 23.733645 Si / 1000 Ang^3
#
#
#
# Elastic Constant Matrix: (Units=GPa)
#
#
# Indices 1 2 3 4 5 6 
#
# 1 171.5250 12.7366 22.6009 0.0000 -4.3360 0.0000
# 2 12.7366 27.6040 16.5561 0.0000 -4.9044 0.0000
# 3 22.6009 16.5561 119.6818 0.0000 -22.6565 0.0000
# 4 0.0000 0.0000 0.0000 19.4909 0.0000 -5.1645
# 5 -4.3360 -4.9044 -22.6565 0.0000 48.6508 0.0000
# 6 0.0000 0.0000 0.0000 -5.1645 0.0000 21.8722
#
#
#
# Elastic Compliance Matrix: (Units=1/GPa)
#
#
# Indices 1 2 3 4 5 6 
#
# 1 0.006112 -0.002326 -0.000849 0.000000 -0.000085 0.000000
# 2 -0.002326 0.040500 -0.004858 0.000000 0.001613 0.000000
# 3 -0.000849 -0.004858 0.009959 0.000000 0.004072 0.000000
# 4 0.000000 0.000000 0.000000 0.054730 0.000000 0.012923
# 5 -0.000085 0.001613 0.004072 0.000000 0.022606 0.000000
# 6 0.000000 0.000000 0.000000 0.012923 0.000000 0.048772
#
#
# Mechanical properties :
#
#
# Convention : Reuss Voigt Hill
#
# Bulk Modulus (GPa) = 24.68791 46.95534 35.82162
# Shear Modulus (GPa) = 23.55744 35.79725 29.67735
#
# Velocity S-wave (km/s) = 3.15393 3.88789 3.53998
# Velocity P-wave (km/s) = 4.86700 6.32309 5.64221
#
# Compressibility (1/GPa) = 0.04050566
#
# Stress axis : x y z
#
# Youngs Moduli (GPa) = 163.60010 24.69118 100.41509
#
# Poissons Ratio (x) = 0.05744 0.08521
# Poissons Ratio (y) = 0.38061 0.48780
# Poissons Ratio (z) = 0.13882 0.11995
#
# Static dielectric constant tensor:
#      x y z
#    x 2.128660 0.000000 0.015900 
#    y 0.000000 1.899530 0.000000 
#    z 0.015900 0.000000 1.922140 
# 
# From -- ./inp_files/209463.got.cif
#   From: 2010.05.17/outbox.cif.g08.bks.cpg/sg15_105_cif.got.tgz:209463.got - 2010.06.03 18:47:42.
