data_PCOD9278107
_publ_section_title
;
Structure prediction by ZEFSAII (Michael W. Deem and Ramdas Pophale) SiO2 
 PCOD9278107
Probable space group: C 2/C
;
_chemical_formula_sum "Si O2"
_cell_formula_units_Z 28
_cell_length_a 5.864112
_cell_length_b 14.411222
_cell_length_c 17.246263
_cell_angle_alpha 90.000000
_cell_angle_beta 46.417114
_cell_angle_gamma 90.000000
_cell_volume 1055.755155
_symmetry_space_group_name_H-M "C 2/C"
_symmetry_group_IT_number 15
_symmetry_cell_setting 'monoclinic'
loop_
_space_group_symop_operation_xyz
x,y,z
-x,y,1/2-z
-x,-y,-z
x,-y,1/2+z
1/2+x,1/2+y,z
1/2-x,1/2+y,1/2-z
1/2-x,1/2-y,-z
1/2+x,1/2-y,1/2+z
loop_
_atom_site_type_symbol
_atom_site_label
_atom_site_fract_x
_atom_site_fract_y
_atom_site_fract_z
Si Si1 0.500000 0.176264 0.250000
Si Si2 0.975225 0.633503 0.429716
Si Si3 0.742941 0.938469 0.375297
Si Si4 0.597402 0.192767 0.643264
O O1 0.432137 0.126485 0.347622
O O2 0.193540 0.238569 0.308527
O O3 0.211612 0.548253 0.391572
O O4 0.116588 0.733653 0.419011
O O5 0.698696 0.607062 0.554580
O O6 0.429320 0.887985 0.414201
O O7 0.000000 0.920733 0.250000
O O8 0.500000 0.154187 0.750000
#
# Coordination Sequence:
#
# PCOD9278107 Si02
#       4
#     4   8   8   8
#     4  10  20  42  66  90 126 168 206 268 320 372
#     4  10  24  42  65  94 131 166 211 274 314 378
#     4  11  22  43  65  94 129 169 217 260 321 390
#     4  10  21  41  63  95 128 165 213 261 319 386
#
# _framework density 26.521298999999999
#
# number of rings (size 3 to 8) (size 9 to 14) (size 15 to 20)
#    0.000    1.714    1.429    3.429    2.000    1.143 
#    5.143    4.286    0.000    0.000    0.000    0.000 
#    0.000    0.000    0.000    0.000    0.000    0.000 
#
# Total GULP energy -78330.862093 kJ/mol
# GULP energy per Si atom -5595.061578 kJ/mol
# Density = 2.646094 g / cm^3
# Si number density = 26.521299 Si / 1000 Ang^3
#
#
#
# Elastic Constant Matrix: (Units=GPa)
#
#
# Indices 1 2 3 4 5 6 
#
# 1 64.5776 30.3214 41.6923 -0.0004 27.8638 0.0011
# 2 30.3214 145.7319 48.0030 0.0000 25.4312 0.0001
# 3 41.6923 48.0030 203.6098 0.0000 42.3231 0.0001
# 4 -0.0004 0.0000 0.0000 42.5275 0.0001 20.4827
# 5 27.8638 25.4312 42.3231 0.0001 57.4582 -0.0006
# 6 0.0011 0.0001 0.0001 20.4827 -0.0006 26.0727
#
#
#
# Elastic Compliance Matrix: (Units=1/GPa)
#
#
# Indices 1 2 3 4 5 6 
#
# 1 0.021337 -0.002372 -0.002217 0.000001 -0.007665 -0.000002
# 2 -0.002372 0.007985 -0.001064 0.000000 -0.001600 0.000000
# 3 -0.002217 -0.001064 0.006252 0.000000 -0.003059 0.000000
# 4 0.000001 0.000000 0.000000 0.037827 -0.000001 -0.029717
# 5 -0.007665 -0.001600 -0.003059 -0.000001 0.024082 0.000002
# 6 -0.000002 0.000000 0.000000 -0.029717 0.000002 0.061700
#
#
# Mechanical properties :
#
#
# Convention : Reuss Voigt Hill
#
# Bulk Modulus (GPa) = 41.20514 72.66140 56.93327
# Shear Modulus (GPa) = 27.99890 44.80520 36.40205
#
# Velocity S-wave (km/s) = 3.25270 4.11470 3.70883
# Velocity P-wave (km/s) = 5.44767 7.07327 6.31301
#
# Compressibility (1/GPa) = 0.02426881
#
# Stress axis : x y z
#
# Youngs Moduli (GPa) = 46.86654 125.23161 159.94679
#
# Poissons Ratio (x) = 0.29702 0.35456
# Poissons Ratio (y) = 0.11116 0.17023
# Poissons Ratio (z) = 0.10389 0.13329
#
# Static dielectric constant tensor:
#      x y z
#    x 2.208070 0.000000 -0.040840 
#    y 0.000000 1.992010 0.000000 
#    z -0.040840 0.000000 2.134360 
# 
# From -- ./inp_files/127996.got.cif
#   From: 2010.05.17/outbox.cif.g08.bks.cpg/sg15_64_cif.got.tgz:127996.got - 2010.06.03 18:47:42.
