data_PCOD9278027
_publ_section_title
;
Structure prediction by ZEFSAII (Michael W. Deem and Ramdas Pophale) SiO2 
 PCOD9278027
Probable space group: C 2/C
;
_chemical_formula_sum "Si O2"
_cell_formula_units_Z 56
_cell_length_a 21.203353
_cell_length_b 8.953631
_cell_length_c 13.892217
_cell_angle_alpha 90.000000
_cell_angle_beta 69.913502
_cell_angle_gamma 90.000000
_cell_volume 2476.976666
_symmetry_space_group_name_H-M "C 2/C"
_symmetry_group_IT_number 15
_symmetry_cell_setting 'monoclinic'
loop_
_space_group_symop_operation_xyz
x,y,z
-x,y,1/2-z
-x,-y,-z
x,-y,1/2+z
1/2+x,1/2+y,z
1/2-x,1/2+y,1/2-z
1/2-x,1/2-y,-z
1/2+x,1/2-y,1/2+z
loop_
_atom_site_type_symbol
_atom_site_label
_atom_site_fract_x
_atom_site_fract_y
_atom_site_fract_z
Si Si1 0.153677 0.133405 0.289879
Si Si2 0.686298 0.143504 0.054981
Si Si3 0.011311 0.076110 0.357673
Si Si4 0.492925 0.082078 0.903366
Si Si5 0.878266 0.909330 0.476921
Si Si6 0.735724 0.399983 0.569574
Si Si7 0.388515 0.943911 0.289817
O O1 0.157017 0.133082 0.402958
O O2 0.217404 0.095803 0.191837
O O3 0.134843 0.289751 0.246960
O O4 0.088739 0.023908 0.316119
O O5 0.701067 0.008234 0.975617
O O6 0.750000 0.250000 0.000000
O O7 0.623014 0.250791 0.075778
O O8 0.672827 0.056872 0.161580
O O9 0.008444 0.240790 0.406487
O O10 0.000000 0.099308 0.250000
O O11 0.952930 0.976670 0.434899
O O12 0.551154 0.005829 0.809226
O O13 0.425225 0.079601 0.874276
O O14 0.500000 0.000000 0.000000
O O15 0.829565 0.025867 0.448006
O O16 0.750000 0.250000 0.500000
#
# Coordination Sequence:
#
# PCOD9278027 Si02
#       7
#     8   8   8   8   8   8   8
#     4  11  22  42  72 100 135 182 230 287 353 419
#     4  10  24  44  63  95 140 176 236 285 334 415
#     4  11  20  44  70  99 144 178 223 292 368 420
#     4  10  21  39  69 103 132 177 230 278 353 434
#     4  11  25  43  68 104 139 182 237 290 350 433
#     4  11  22  44  72  96 139 188 231 290 353 408
#     4  10  20  42  64  95 141 176 216 287 349 400
#
# _framework density 22.608205999999999
#
# number of rings (size 3 to 8) (size 9 to 14) (size 15 to 20)
#    0.000    1.429    5.714    0.429    4.000    1.143 
#    7.714    0.000    0.000    0.000    0.000    0.000 
#    0.000    0.000    0.000    0.000    0.000    0.000 
#
# Total GULP energy -155930.798004 kJ/mol
# GULP energy per Si atom -5568.957072 kJ/mol
# Density = 2.255675 g / cm^3
# Si number density = 22.608206 Si / 1000 Ang^3
#
#
#
# Elastic Constant Matrix: (Units=GPa)
#
#
# Indices 1 2 3 4 5 6 
#
# 1 48.9871 20.1647 30.6901 0.0000 -15.9890 0.0000
# 2 20.1647 104.7079 55.8382 0.0000 -20.0448 0.0000
# 3 30.6901 55.8382 159.5248 0.0000 -19.3918 0.0000
# 4 0.0000 0.0000 0.0000 29.5572 0.0000 -9.4107
# 5 -15.9890 -20.0448 -19.3918 0.0000 49.9703 0.0000
# 6 0.0000 0.0000 0.0000 -9.4107 0.0000 29.9200
#
#
#
# Elastic Compliance Matrix: (Units=1/GPa)
#
#
# Indices 1 2 3 4 5 6 
#
# 1 0.025327 -0.001868 -0.003489 0.000000 0.006001 0.000000
# 2 -0.001868 0.012412 -0.003624 0.000000 0.002975 0.000000
# 3 -0.003489 -0.003624 0.008287 0.000000 0.000646 0.000000
# 4 0.000000 0.000000 0.000000 0.037598 0.000000 0.011826
# 5 0.006001 0.002975 0.000646 0.000000 0.023376 0.000000
# 6 0.000000 0.000000 0.000000 0.011826 0.000000 0.037142
#
#
# Mechanical properties :
#
#
# Convention : Reuss Voigt Hill
#
# Bulk Modulus (GPa) = 35.63271 58.51177 47.07224
# Shear Modulus (GPa) = 29.16170 35.65796 32.40983
#
# Velocity S-wave (km/s) = 3.59538 3.97572 3.79032
# Velocity P-wave (km/s) = 5.74724 6.85654 6.32625
#
# Compressibility (1/GPa) = 0.02806411
#
# Stress axis : x y z
#
# Youngs Moduli (GPa) = 39.48352 80.56734 120.67479
#
# Poissons Ratio (x) = 0.15050 0.42106
# Poissons Ratio (y) = 0.07376 0.43727
# Poissons Ratio (z) = 0.13777 0.29194
#
# Static dielectric constant tensor:
#      x y z
#    x 2.007730 0.000000 0.013530 
#    y 0.000000 1.920750 0.000000 
#    z 0.013530 0.000000 1.932970 
# 
# From -- ./inp_files/171791.got.cif
#   From: 2010.05.17/outbox.cif.g08.bks.cpg/sg15_86_cif.got.tgz:171791.got - 2010.06.03 18:47:42.
