data_PCOD9278782
_publ_section_title
;
Structure prediction by ZEFSAII (Michael W. Deem and Ramdas Pophale) SiO2 
 PCOD9278782
Probable space group: C 2/C
;
_chemical_formula_sum "Si O2"
_cell_formula_units_Z 56
_cell_length_a 8.738619
_cell_length_b 12.841021
_cell_length_c 24.385627
_cell_angle_alpha 90.000000
_cell_angle_beta 107.790477
_cell_angle_gamma 90.000000
_cell_volume 2605.526104
_symmetry_space_group_name_H-M "C 2/C"
_symmetry_group_IT_number 15
_symmetry_cell_setting 'monoclinic'
loop_
_space_group_symop_operation_xyz
x,y,z
-x,y,1/2-z
-x,-y,-z
x,-y,1/2+z
1/2+x,1/2+y,z
1/2-x,1/2+y,1/2-z
1/2-x,1/2-y,-z
1/2+x,1/2-y,1/2+z
loop_
_atom_site_type_symbol
_atom_site_label
_atom_site_fract_x
_atom_site_fract_y
_atom_site_fract_z
Si Si1 0.500000 0.033358 0.750000
Si Si2 0.681290 0.914279 0.672528
Si Si3 0.978937 0.474831 0.061518
Si Si4 0.504659 0.263629 0.400808
Si Si5 0.441493 0.752134 0.020671
Si Si6 0.000000 0.989097 0.750000
Si Si7 0.820345 0.059066 0.832150
Si Si8 0.714021 0.382996 0.591019
O O1 0.590428 0.961807 0.715237
O O2 0.637910 0.094541 0.798880
O O3 0.618775 0.801288 0.650079
O O4 0.867877 0.921580 0.704422
O O5 0.623590 0.982529 0.614339
O O6 0.977867 0.350474 0.063362
O O7 0.818508 0.533304 0.066641
O O8 0.000000 0.500000 0.000000
O O9 0.495295 0.232040 0.463465
O O10 0.435721 0.379268 0.386507
O O11 0.677791 0.222466 0.399238
O O12 0.539504 0.650998 0.050899
O O13 0.250000 0.750000 0.000000
O O14 0.088513 0.059044 0.715191
O O15 0.800625 0.941426 0.852818
#
# Coordination Sequence:
#
# PCOD9278782 Si02
#       8
#     4   8   8   8   8   4   8   8
#     4  10  20  46  68  94 144 186 232 298 350 404
#     4  10  22  43  68 100 142 185 236 294 355 419
#     4  11  22  43  73 100 145 187 227 302 357 418
#     4  11  24  44  71 103 138 189 237 285 366 430
#     4  12  27  42  70 110 140 188 240 284 369 438
#     4  10  26  42  68 104 138 188 240 300 346 428
#     4  11  24  45  71 102 140 183 239 295 354 414
#     4  11  25  48  70 101 149 185 229 300 351 434
#
# _framework density 21.492778999999999
#
# number of rings (size 3 to 8) (size 9 to 14) (size 15 to 20)
#    0.000    1.143    5.714    1.286    4.000    3.429 
#    0.000    0.000    0.000    0.000    0.000    0.000 
#    0.000    0.000    0.000    0.000    0.000    0.000 
#
# Total GULP energy -156225.031326 kJ/mol
# GULP energy per Si atom -5579.465405 kJ/mol
# Density = 2.144386 g / cm^3
# Si number density = 21.492779 Si / 1000 Ang^3
#
#
#
# Elastic Constant Matrix: (Units=GPa)
#
#
# Indices 1 2 3 4 5 6 
#
# 1 104.0212 27.4166 38.6669 0.0000 22.2324 0.0000
# 2 27.4166 41.3346 17.8664 0.0000 9.0434 0.0000
# 3 38.6669 17.8664 99.5811 0.0000 12.1789 0.0000
# 4 0.0000 0.0000 0.0000 28.6035 0.0000 6.1447
# 5 22.2324 9.0434 12.1789 0.0000 35.8447 0.0000
# 6 0.0000 0.0000 0.0000 6.1447 0.0000 26.4784
#
#
#
# Elastic Compliance Matrix: (Units=1/GPa)
#
#
# Indices 1 2 3 4 5 6 
#
# 1 0.013842 -0.006396 -0.003521 0.000000 -0.005776 0.000000
# 2 -0.006396 0.030159 -0.002590 0.000000 -0.002762 0.000000
# 3 -0.003521 -0.002590 0.012027 0.000000 -0.001249 0.000000
# 4 0.000000 0.000000 0.000000 0.036795 0.000000 -0.008539
# 5 -0.005776 -0.002762 -0.001249 0.000000 0.032602 0.000000
# 6 0.000000 0.000000 0.000000 -0.008539 0.000000 0.039748
#
#
# Mechanical properties :
#
#
# Convention : Reuss Voigt Hill
#
# Bulk Modulus (GPa) = 32.24287 45.87076 39.05681
# Shear Modulus (GPa) = 24.93461 28.91777 26.92619
#
# Velocity S-wave (km/s) = 3.40978 3.67204 3.54333
# Velocity P-wave (km/s) = 5.52597 6.27433 5.91200
#
# Compressibility (1/GPa) = 0.03101461
#
# Stress axis : x y z
#
# Youngs Moduli (GPa) = 72.24137 33.15784 83.14860
#
# Poissons Ratio (x) = 0.21208 0.29277
# Poissons Ratio (y) = 0.46205 0.21532
# Poissons Ratio (z) = 0.25437 0.08587
#
# Static dielectric constant tensor:
#      x y z
#    x 1.834230 0.000000 0.173160 
#    y 0.000000 1.844300 0.000000 
#    z 0.173160 0.000000 2.674560 
# 
# From -- ./inp_files/288100.got.cif
#   From: 2010.05.17/outbox.cif.g08.bks.cpg/sg15_145_cif.got.tgz:288100.got - 2010.06.03 18:47:42.
