data_PCOD9278997
_publ_section_title
;
Structure prediction by ZEFSAII (Michael W. Deem and Ramdas Pophale) SiO2 
 PCOD9278997
Probable space group: C 2/C
;
_chemical_formula_sum "Si O2"
_cell_formula_units_Z 64
_cell_length_a 13.324611
_cell_length_b 20.022572
_cell_length_c 19.062132
_cell_angle_alpha 90.000000
_cell_angle_beta 45.652592
_cell_angle_gamma 90.000000
_cell_volume 3636.817614
_symmetry_space_group_name_H-M "C 2/C"
_symmetry_group_IT_number 15
_symmetry_cell_setting 'monoclinic'
loop_
_space_group_symop_operation_xyz
x,y,z
-x,y,1/2-z
-x,-y,-z
x,-y,1/2+z
1/2+x,1/2+y,z
1/2-x,1/2+y,1/2-z
1/2-x,1/2-y,-z
1/2+x,1/2-y,1/2+z
loop_
_atom_site_type_symbol
_atom_site_label
_atom_site_fract_x
_atom_site_fract_y
_atom_site_fract_z
Si Si1 0.464816 0.850419 0.994256
Si Si2 0.453329 0.350419 0.505743
Si Si3 0.500019 0.258856 0.135604
Si Si4 0.769665 0.458978 0.862105
Si Si5 0.771227 0.758856 0.364396
Si Si6 0.005603 0.380630 0.362227
Si Si7 0.230058 0.619370 0.637772
Si Si8 0.993876 0.458978 0.637894
O O1 0.529539 0.793999 0.911565
O O2 0.490840 0.919487 0.941678
O O3 0.302319 0.827850 0.078098
O O4 0.511583 0.850919 0.052104
O O5 0.458517 0.327850 0.421901
O O6 0.374196 0.419487 0.558322
O O7 0.352669 0.293999 0.588435
O O8 0.615790 0.350920 0.447897
O O9 0.369531 0.266571 0.250000
O O10 0.629912 0.234776 0.120088
O O11 0.752894 0.538829 0.867811
O O12 0.856082 0.438518 0.750000
O O13 0.873672 0.443594 0.876328
O O14 0.146742 0.360933 0.250000
O O15 0.011485 0.461170 0.367811
O O16 0.875732 0.365366 0.374268
#
# Coordination Sequence:
#
# PCOD9278997 Si02
#       8
#     8   8   8   8   8   8   8   8
#     4  11  18  30  52  73  94 127 168 202 235 283
#     4  11  18  30  52  73  94 127 168 202 235 283
#     4  10  21  34  48  72 104 131 158 198 245 291
#     4   9  17  30  50  76 103 129 158 194 238 290
#     4  10  21  34  48  72 104 131 158 198 245 291
#     4   9  19  34  50  71  99 129 163 202 241 284
#     4   9  19  34  50  71  99 129 163 202 241 284
#     4   9  17  30  50  76 103 129 158 194 238 290
#
# _framework density 17.597802999999999
#
# number of rings (size 3 to 8) (size 9 to 14) (size 15 to 20)
#    0.000    2.250    0.000    6.750    0.000    2.000 
#    0.000    2.500    0.000    4.500    0.000   17.500 
#    0.000    0.000    0.000    0.000    0.000    0.000 
#
# Total GULP energy -178338.922255 kJ/mol
# GULP energy per Si atom -5573.091320 kJ/mol
# Density = 1.755775 g / cm^3
# Si number density = 17.597803 Si / 1000 Ang^3
#
#
#
# Elastic Constant Matrix: (Units=GPa)
#
#
# Indices 1 2 3 4 5 6 
#
# 1 76.2178 22.4427 53.0860 -0.0002 -0.9209 0.0000
# 2 22.4427 27.5028 23.1667 -0.0004 -0.0123 0.0001
# 3 53.0860 23.1667 131.9748 -0.0011 -0.0004 0.0006
# 4 -0.0002 -0.0004 -0.0011 27.8714 0.0006 -0.1196
# 5 -0.9209 -0.0123 -0.0004 0.0006 39.4528 -0.0002
# 6 0.0000 0.0001 0.0006 -0.1196 -0.0002 20.6493
#
#
#
# Elastic Compliance Matrix: (Units=1/GPa)
#
#
# Indices 1 2 3 4 5 6 
#
# 1 0.021055 -0.011791 -0.006400 0.000000 0.000488 0.000000
# 2 -0.011791 0.049272 -0.003906 0.000000 -0.000260 0.000000
# 3 -0.006400 -0.003906 0.010837 0.000000 -0.000150 0.000000
# 4 0.000000 0.000000 0.000000 0.035880 -0.000001 0.000208
# 5 0.000488 -0.000260 -0.000150 -0.000001 0.025358 0.000000
# 6 0.000000 0.000000 0.000000 0.000208 0.000000 0.048429
#
#
# Mechanical properties :
#
#
# Convention : Reuss Voigt Hill
#
# Bulk Modulus (GPa) = 27.04833 48.12069 37.58451
# Shear Modulus (GPa) = 20.21441 26.72803 23.47122
#
# Velocity S-wave (km/s) = 3.39291 3.90144 3.65603
# Velocity P-wave (km/s) = 5.54552 6.90645 6.26306
#
# Compressibility (1/GPa) = 0.03697086
#
# Stress axis : x y z
#
# Youngs Moduli (GPa) = 47.49382 20.29564 92.27512
#
# Poissons Ratio (x) = 0.23930 0.59053
# Poissons Ratio (y) = 0.55998 0.36047
# Poissons Ratio (z) = 0.30395 0.07928
#
# Static dielectric constant tensor:
#      x y z
#    x 1.599720 0.000000 -0.000030 
#    y 0.000000 1.635490 0.000000 
#    z -0.000030 0.000000 1.601910 
# 
# From -- ./inp_files/200353.got.cif
#   From: 2010.05.17/outbox.cif.g08.bks.cpg/sg15_101_cif.got.tgz:200353.got - 2010.06.03 18:47:42.
