data_PCOD9278645
_publ_section_title
;
Structure prediction by ZEFSAII (Michael W. Deem and Ramdas Pophale) SiO2 
 PCOD9278645
Probable space group: C 2/C
;
_chemical_formula_sum "Si O2"
_cell_formula_units_Z 44
_cell_length_a 18.783154
_cell_length_b 12.003667
_cell_length_c 10.647273
_cell_angle_alpha 90.000000
_cell_angle_beta 58.481952
_cell_angle_gamma 90.000000
_cell_volume 2046.457702
_symmetry_space_group_name_H-M "C 2/C"
_symmetry_group_IT_number 15
_symmetry_cell_setting 'monoclinic'
loop_
_space_group_symop_operation_xyz
x,y,z
-x,y,1/2-z
-x,-y,-z
x,-y,1/2+z
1/2+x,1/2+y,z
1/2-x,1/2+y,1/2-z
1/2-x,1/2-y,-z
1/2+x,1/2-y,1/2+z
loop_
_atom_site_type_symbol
_atom_site_label
_atom_site_fract_x
_atom_site_fract_y
_atom_site_fract_z
Si Si1 0.393327 0.695316 0.553965
Si Si2 0.058107 0.508498 0.074819
Si Si3 0.048261 0.237565 0.579301
Si Si4 0.220629 0.346423 0.926891
Si Si5 0.500000 0.374545 0.750000
Si Si6 0.378606 0.447635 0.656274
O O1 0.471656 0.744364 0.553428
O O2 0.313026 0.768493 0.653926
O O3 0.426091 0.696724 0.379838
O O4 0.373434 0.569352 0.604984
O O5 0.085469 0.638928 0.056932
O O6 0.000000 0.487702 0.250000
O O7 0.139727 0.428670 0.015989
O O8 0.000000 0.500000 0.000000
O O9 0.107889 0.144178 0.465068
O O10 0.000000 0.203157 0.750000
O O11 0.298972 0.417954 0.812914
O O12 0.250000 0.250000 0.000000
O O13 0.458740 0.442665 0.675050
#
# Coordination Sequence:
#
# PCOD9278645 Si02
#       6
#     8   8   8   8   4   8
#     4  11  24  41  71  99 136 183 238 282 360 424
#     4  11  26  47  75 105 144 198 249 299 371 448
#     4  10  23  45  71 100 135 185 236 292 361 433
#     4  12  27  45  70 105 144 185 242 302 355 436
#     4  10  20  44  66  98 124 186 224 284 336 426
#     4  11  26  40  73 100 141 178 232 298 348 427
#
# _framework density 21.500567
#
# number of rings (size 3 to 8) (size 9 to 14) (size 15 to 20)
#    0.000    1.091    3.636    2.182   11.455    0.000 
#    0.000    0.909    0.000    0.000    0.000    0.000 
#    0.000    0.000    0.000    0.000    0.000    0.000 
#
# Total GULP energy -122611.351070 kJ/mol
# GULP energy per Si atom -5573.243230 kJ/mol
# Density = 2.145163 g / cm^3
# Si number density = 21.500567 Si / 1000 Ang^3
#
#
#
# Elastic Constant Matrix: (Units=GPa)
#
#
# Indices 1 2 3 4 5 6 
#
# 1 71.0780 46.0595 37.5557 0.0000 -23.5309 0.0000
# 2 46.0595 168.6023 54.2931 0.0000 -23.1130 0.0000
# 3 37.5557 54.2931 102.0336 0.0000 -2.0216 0.0000
# 4 0.0000 0.0000 0.0000 -86.0406 0.0000 6.6302
# 5 -23.5309 -23.1130 -2.0216 0.0000 33.4192 0.0000
# 6 0.0000 0.0000 0.0000 6.6302 0.0000 21.5635
#
#
#
# Elastic Compliance Matrix: (Units=1/GPa)
#
#
# Indices 1 2 3 4 5 6 
#
# 1 0.024554 -0.002164 -0.007582 0.000000 0.015333 0.000000
# 2 -0.002164 0.008180 -0.003479 0.000000 0.003923 0.000000
# 3 -0.007582 -0.003479 0.014306 0.000000 -0.006879 0.000000
# 4 0.000000 0.000000 0.000000 -0.011353 0.000000 0.003491
# 5 0.015333 0.003923 -0.006879 0.000000 0.043017 0.000000
# 6 0.000000 0.000000 0.000000 0.003491 0.000000 0.045301
#
#
# Mechanical properties :
#
#
# Convention : Reuss Voigt Hill
#
# Bulk Modulus (GPa) = 48.56594 68.61449 58.59021
# Shear Modulus (GPa) = 31.78272 7.37547 19.57910
#
# Velocity S-wave (km/s) = 3.84894 1.85413 3.02094
# Velocity P-wave (km/s) = 6.51074 6.04697 6.28314
#
# Compressibility (1/GPa) = 0.02059056
#
# Stress axis : x y z
#
# Youngs Moduli (GPa) = 40.72672 122.24466 69.89986
#
# Poissons Ratio (x) = 0.26455 0.53000
# Poissons Ratio (y) = 0.08814 0.24315
# Poissons Ratio (z) = 0.30880 0.42523
#
# Static dielectric constant tensor:
#      x y z
#    x 1.918190 0.000000 0.170290 
#    y 0.000000 1.827080 0.000000 
#    z 0.170290 0.000000 2.018430 
# 
# From -- ./inp_files/104094.got.cif
#   From: 2010.05.17/outbox.cif.g08.bks.cpg/sg15_53_cif.got.tgz:104094.got - 2010.06.03 18:47:42.
