data_PCOD9278456
_publ_section_title
;
Structure prediction by ZEFSAII (Michael W. Deem and Ramdas Pophale) SiO2 
 PCOD9278456
Probable space group: C 2/C
;
_chemical_formula_sum "Si O2"
_cell_formula_units_Z 60
_cell_length_a 13.753718
_cell_length_b 14.541047
_cell_length_c 19.559739
_cell_angle_alpha 90.000000
_cell_angle_beta 45.592397
_cell_angle_gamma 90.000000
_cell_volume 2794.525218
_symmetry_space_group_name_H-M "C 2/C"
_symmetry_group_IT_number 15
_symmetry_cell_setting 'monoclinic'
loop_
_space_group_symop_operation_xyz
x,y,z
-x,y,1/2-z
-x,-y,-z
x,-y,1/2+z
1/2+x,1/2+y,z
1/2-x,1/2+y,1/2-z
1/2-x,1/2-y,-z
1/2+x,1/2-y,1/2+z
loop_
_atom_site_type_symbol
_atom_site_label
_atom_site_fract_x
_atom_site_fract_y
_atom_site_fract_z
Si Si1 0.399830 0.775378 0.396680
Si Si2 0.922722 0.098425 0.179093
Si Si3 0.803552 0.542408 0.107269
Si Si4 0.289682 0.092026 0.341378
Si Si5 0.340672 0.540300 0.947240
Si Si6 0.801190 0.776279 0.400102
Si Si7 0.500000 0.066700 0.750000
Si Si8 0.952789 0.358215 0.049023
O O1 0.250000 0.750000 0.500000
O O2 0.482722 0.681977 0.340456
O O3 0.408471 0.859364 0.338183
O O4 0.493856 0.812966 0.410231
O O5 0.831588 0.064229 0.286438
O O6 0.818565 0.111473 0.166237
O O7 0.027470 0.019998 0.105957
O O8 0.768070 0.516232 0.046091
O O9 0.883463 0.455731 0.097886
O O10 0.910643 0.624789 0.061378
O O11 0.220138 0.063988 0.448462
O O12 0.356922 0.189854 0.330464
O O13 0.392155 0.008018 0.271376
O O14 0.377455 0.628374 0.880604
O O15 0.750000 0.750000 0.500000
O O16 0.662310 0.801445 0.430325
#
# Coordination Sequence:
#
# PCOD9278456 Si02
#       8
#     8   8   8   8   8   8   4   8
#     4  12  27  44  69 102 145 189 236 299 359 437
#     4  12  24  41  69 104 140 174 243 288 355 419
#     4  10  22  39  70  97 136 183 229 287 349 431
#     4  11  23  47  68  99 138 187 231 296 354 432
#     4  10  22  41  70 100 139 181 229 288 358 424
#     4   9  20  41  67  96 129 175 231 277 350 419
#     4  12  28  46  68 100 146 186 242 292 370 428
#     4  10  20  43  65  96 135 180 228 282 353 415
#
# _framework density 21.470551
#
# number of rings (size 3 to 8) (size 9 to 14) (size 15 to 20)
#    0.000    1.333    1.333    4.000    3.733    4.267 
#    4.800    2.667    0.000    0.000    0.000    0.000 
#    0.000    0.000    0.000    0.000    0.000    0.000 
#
# Total GULP energy -167194.089844 kJ/mol
# GULP energy per Si atom -5573.136328 kJ/mol
# Density = 2.142168 g / cm^3
# Si number density = 21.470551 Si / 1000 Ang^3
#
#
#
# Elastic Constant Matrix: (Units=GPa)
#
#
# Indices 1 2 3 4 5 6 
#
# 1 59.7602 26.1614 6.9101 0.0000 14.1778 0.0000
# 2 26.1614 81.3462 10.0781 0.0000 -6.9012 0.0000
# 3 6.9101 10.0781 49.9922 0.0000 -10.0601 0.0000
# 4 0.0000 0.0000 0.0000 19.2396 0.0000 2.7751
# 5 14.1778 -6.9012 -10.0601 0.0000 27.2386 0.0000
# 6 0.0000 0.0000 0.0000 2.7751 0.0000 39.2009
#
#
#
# Elastic Compliance Matrix: (Units=1/GPa)
#
#
# Indices 1 2 3 4 5 6 
#
# 1 0.025415 -0.009008 -0.005205 0.000000 -0.017433 0.000000
# 2 -0.009008 0.015952 -0.000231 0.000000 0.008645 0.000000
# 3 -0.005205 -0.000231 0.023013 0.000000 0.011150 0.000000
# 4 0.000000 0.000000 0.000000 0.052512 0.000000 -0.003717
# 5 -0.017433 0.008645 0.011150 0.000000 0.052095 0.000000
# 6 0.000000 0.000000 0.000000 -0.003717 0.000000 0.025773
#
#
# Mechanical properties :
#
#
# Convention : Reuss Voigt Hill
#
# Bulk Modulus (GPa) = 28.17545 30.82199 29.49872
# Shear Modulus (GPa) = 21.23341 26.99907 24.11624
#
# Velocity S-wave (km/s) = 3.14818 3.54996 3.35509
# Velocity P-wave (km/s) = 5.13479 5.58477 5.36450
#
# Compressibility (1/GPa) = 0.03549189
#
# Stress axis : x y z
#
# Youngs Moduli (GPa) = 39.34756 62.68789 43.45375
#
# Poissons Ratio (x) = 0.56466 0.22618
# Poissons Ratio (y) = 0.35443 0.01004
# Poissons Ratio (z) = 0.20481 0.01449
#
# Static dielectric constant tensor:
#      x y z
#    x 1.746090 0.000000 0.010970 
#    y 0.000000 1.969270 0.000000 
#    z 0.010970 0.000000 1.848740 
# 
# From -- ./inp_files/244696.got.cif
#   From: 2010.05.17/outbox.cif.g08.bks.cpg/sg15_123_cif.got.tgz:244696.got - 2010.06.03 18:47:42.
