data_PCOD9278898
_publ_section_title
;
Structure prediction by ZEFSAII (Michael W. Deem and Ramdas Pophale) SiO2 
 PCOD9278898
Probable space group: C 2/C
;
_chemical_formula_sum "Si O2"
_cell_formula_units_Z 56
_cell_length_a 22.933300
_cell_length_b 17.700125
_cell_length_c 8.982599
_cell_angle_alpha 90.000000
_cell_angle_beta 51.597486
_cell_angle_gamma 90.000000
_cell_volume 2857.432730
_symmetry_space_group_name_H-M "C 2/C"
_symmetry_group_IT_number 15
_symmetry_cell_setting 'monoclinic'
loop_
_space_group_symop_operation_xyz
x,y,z
-x,y,1/2-z
-x,-y,-z
x,-y,1/2+z
1/2+x,1/2+y,z
1/2-x,1/2+y,1/2-z
1/2-x,1/2-y,-z
1/2+x,1/2-y,1/2+z
loop_
_atom_site_type_symbol
_atom_site_label
_atom_site_fract_x
_atom_site_fract_y
_atom_site_fract_z
Si Si1 0.074776 0.764098 0.217120
Si Si2 0.215022 0.130333 0.972497
Si Si3 0.580002 0.684704 0.038479
Si Si4 0.833931 0.241228 0.199203
Si Si5 0.348284 0.038522 0.748910
Si Si6 0.417703 0.915467 0.826049
Si Si7 0.421308 0.825497 0.294647
O O1 0.073724 0.806805 0.374050
O O2 0.076874 0.672586 0.225578
O O3 0.000000 0.785279 0.250000
O O4 0.144776 0.780805 0.000145
O O5 0.272755 0.192338 0.810871
O O6 0.260934 0.053155 0.909229
O O7 0.139835 0.124531 0.997674
O O8 0.192518 0.169623 0.163679
O O9 0.500000 0.677990 0.250000
O O10 0.615509 0.765505 0.035571
O O11 0.908606 0.277981 0.160203
O O12 0.369062 0.064761 0.549341
O O13 0.385175 0.096000 0.810456
O O14 0.383905 0.959531 0.739027
O O15 0.500000 0.939342 0.750000
O O16 0.500000 0.838601 0.250000
#
# Coordination Sequence:
#
# PCOD9278898 Si02
#       7
#     8   8   8   8   8   8   8
#     4  11  20  33  52  83 115 140 182 225 260 325
#     4   9  18  36  53  71 107 146 177 227 273 330
#     4  10  21  32  56  83 106 140 177 219 291 330
#     4   9  17  33  50  75 104 143 181 220 273 312
#     4  11  22  38  49  74 108 149 196 220 261 306
#     4  11  24  35  52  76 110 153 190 224 248 312
#     4   9  16  29  49  68 102 138 173 208 257 310
#
# _framework density 19.598011
#
# number of rings (size 3 to 8) (size 9 to 14) (size 15 to 20)
#    0.000    2.000    2.857    4.286    6.000    0.571 
#    0.000    0.000    0.000    0.000    0.000    1.000 
#    0.000    0.000    0.000    0.000    0.000    0.143 
#
# Total GULP energy -155972.304057 kJ/mol
# GULP energy per Si atom -5570.439431 kJ/mol
# Density = 1.955341 g / cm^3
# Si number density = 19.598011 Si / 1000 Ang^3
#
#
#
# Elastic Constant Matrix: (Units=GPa)
#
#
# Indices 1 2 3 4 5 6 
#
# 1 93.1923 12.2448 38.7297 0.0000 -2.6146 0.0000
# 2 12.2448 15.4356 9.9158 0.0000 -7.2149 0.0000
# 3 38.7297 9.9158 110.3751 0.0000 3.5846 0.0000
# 4 0.0000 0.0000 0.0000 7.5896 0.0000 -2.1286
# 5 -2.6146 -7.2149 3.5846 0.0000 22.9816 0.0000
# 6 0.0000 0.0000 0.0000 -2.1286 0.0000 4.7191
#
#
#
# Elastic Compliance Matrix: (Units=1/GPa)
#
#
# Indices 1 2 3 4 5 6 
#
# 1 0.013460 -0.008358 -0.003957 0.000000 -0.000475 0.000000
# 2 -0.008358 0.088106 -0.005880 0.000000 0.027626 0.000000
# 3 -0.003957 -0.005880 0.011107 0.000000 -0.004029 0.000000
# 4 0.000000 0.000000 0.000000 0.150841 0.000000 0.068037
# 5 -0.000475 0.027626 -0.004029 0.000000 0.052760 0.000000
# 6 0.000000 0.000000 0.000000 0.068037 0.000000 0.242593
#
#
# Mechanical properties :
#
#
# Convention : Reuss Voigt Hill
#
# Bulk Modulus (GPa) = 13.10885 37.86485 25.48685
# Shear Modulus (GPa) = 8.05564 17.59889 12.82727
#
# Velocity S-wave (km/s) = 2.02962 2.99991 2.56113
# Velocity P-wave (km/s) = 3.49226 5.60017 4.66679
#
# Compressibility (1/GPa) = 0.07628436
#
# Stress axis : x y z
#
# Youngs Moduli (GPa) = 74.29622 11.35002 90.03002
#
# Poissons Ratio (x) = 0.09486 0.35621
# Poissons Ratio (y) = 0.62096 0.52935
# Poissons Ratio (z) = 0.29396 0.06673
#
# Static dielectric constant tensor:
#      x y z
#    x 1.763040 0.000000 -0.015130 
#    y 0.000000 1.701960 0.000000 
#    z -0.015130 0.000000 1.750800 
# 
# From -- ./inp_files/62659.got.cif
#   From: 2010.05.17/outbox.cif.g08.bks.cpg/sg15_32_cif.got.tgz:62659.got - 2010.06.03 18:47:42.
