data_PCOD9278521
_publ_section_title
;
Structure prediction by ZEFSAII (Michael W. Deem and Ramdas Pophale) SiO2 
 PCOD9278521
Probable space group: C 2/C
;
_chemical_formula_sum "Si O2"
_cell_formula_units_Z 52
_cell_length_a 9.264888
_cell_length_b 17.889547
_cell_length_c 17.364343
_cell_angle_alpha 90.000000
_cell_angle_beta 60.298322
_cell_angle_gamma 90.000000
_cell_volume 2499.920511
_symmetry_space_group_name_H-M "C 2/C"
_symmetry_group_IT_number 15
_symmetry_cell_setting 'monoclinic'
loop_
_space_group_symop_operation_xyz
x,y,z
-x,y,1/2-z
-x,-y,-z
x,-y,1/2+z
1/2+x,1/2+y,z
1/2-x,1/2+y,1/2-z
1/2-x,1/2-y,-z
1/2+x,1/2-y,1/2+z
loop_
_atom_site_type_symbol
_atom_site_label
_atom_site_fract_x
_atom_site_fract_y
_atom_site_fract_z
Si Si1 0.877415 0.420083 0.876322
Si Si2 0.136072 0.446293 0.923637
Si Si3 0.000000 0.714731 0.250000
Si Si4 0.141303 0.929934 0.087052
Si Si5 0.865175 0.680122 0.952887
Si Si6 0.752722 0.926574 0.155387
Si Si7 0.770733 0.328998 0.192324
O O1 0.817079 0.490990 0.843268
O O2 0.063749 0.436076 0.858312
O O3 0.892308 0.340852 0.831124
O O4 0.754369 0.415643 0.982042
O O5 0.306758 0.489926 0.890602
O O6 0.131124 0.369942 0.971381
O O7 0.000000 0.500000 0.000000
O O8 0.864102 0.768010 0.245139
O O9 0.188186 0.870955 0.141117
O O10 0.951244 0.929431 0.112800
O O11 0.795834 0.626562 0.903428
O O12 0.052415 0.702945 0.880882
O O13 0.750000 0.750000 0.000000
O O14 0.691589 0.888406 0.250385
#
# Coordination Sequence:
#
# PCOD9278521 Si02
#       7
#     8   8   4   8   8   8   8
#     4  11  25  44  75 101 143 185 244 293 356 434
#     4  10  20  43  70 103 130 185 234 288 348 425
#     4  12  30  44  72 112 142 190 238 302 366 422
#     4  11  22  44  77 100 140 189 243 292 356 440
#     4  12  27  43  75 102 145 190 241 295 363 425
#     4  12  25  44  72 110 137 193 242 298 360 433
#     4  12  26  49  67 106 153 187 233 301 374 416
#
# _framework density 20.800661000000002
#
# number of rings (size 3 to 8) (size 9 to 14) (size 15 to 20)
#    0.000    0.615    7.692    0.923    8.615    0.615 
#    0.000    0.000    0.000    0.000    0.000    0.000 
#    0.000    0.000    0.000    0.000    0.000    0.000 
#
# Total GULP energy -145361.422550 kJ/mol
# GULP energy per Si atom -5590.823944 kJ/mol
# Density = 2.075332 g / cm^3
# Si number density = 20.800661 Si / 1000 Ang^3
#
#
#
# Elastic Constant Matrix: (Units=GPa)
#
#
# Indices 1 2 3 4 5 6 
#
# 1 135.6285 45.8507 40.2077 0.0000 -7.7115 0.0000
# 2 45.8507 124.4196 47.9308 0.0000 -1.2181 0.0000
# 3 40.2077 47.9308 89.5217 0.0000 0.9788 0.0000
# 4 0.0000 0.0000 0.0000 31.6524 0.0000 -1.9693
# 5 -7.7115 -1.2181 0.9788 0.0000 37.1393 0.0000
# 6 0.0000 0.0000 0.0000 -1.9693 0.0000 36.7423
#
#
#
# Elastic Compliance Matrix: (Units=1/GPa)
#
#
# Indices 1 2 3 4 5 6 
#
# 1 0.009093 -0.002206 -0.002924 0.000000 0.001893 0.000000
# 2 -0.002206 0.010670 -0.004722 0.000000 0.000016 0.000000
# 3 -0.002924 -0.004722 0.015024 0.000000 -0.001158 0.000000
# 4 0.000000 0.000000 0.000000 0.031699 0.000000 0.001699
# 5 0.001893 0.000016 -0.001158 0.000000 0.027350 0.000000
# 6 0.000000 0.000000 0.000000 0.001699 0.000000 0.027308
#
#
# Mechanical properties :
#
#
# Convention : Reuss Voigt Hill
#
# Bulk Modulus (GPa) = 66.29624 68.61647 67.45636
# Shear Modulus (GPa) = 34.27599 35.47883 34.87741
#
# Velocity S-wave (km/s) = 4.06375 4.13444 4.09925
# Velocity P-wave (km/s) = 7.34576 7.47334 7.40982
#
# Compressibility (1/GPa) = 0.01508381
#
# Stress axis : x y z
#
# Youngs Moduli (GPa) = 109.97168 93.72489 66.55856
#
# Poissons Ratio (x) = 0.20678 0.19459
# Poissons Ratio (y) = 0.24262 0.31428
# Poissons Ratio (z) = 0.32151 0.44255
#
# Static dielectric constant tensor:
#      x y z
#    x 1.764370 0.000000 -0.009010 
#    y 0.000000 1.746930 0.000000 
#    z -0.009010 0.000000 1.766680 
# 
# From -- ./inp_files/190821.got.cif
#   From: 2010.05.17/outbox.cif.g08.bks.cpg/sg15_96_cif.got.tgz:190821.got - 2010.06.03 18:47:42.
