data_PCOD9278286
_publ_section_title
;
Structure prediction by ZEFSAII (Michael W. Deem and Ramdas Pophale) SiO2 
 PCOD9278286
Probable space group: C 2/C
;
_chemical_formula_sum "Si O2"
_cell_formula_units_Z 56
_cell_length_a 9.512893
_cell_length_b 21.919551
_cell_length_c 12.710792
_cell_angle_alpha 90.000000
_cell_angle_beta 95.456264
_cell_angle_gamma 90.000000
_cell_volume 2638.424364
_symmetry_space_group_name_H-M "C 2/C"
_symmetry_group_IT_number 15
_symmetry_cell_setting 'monoclinic'
loop_
_space_group_symop_operation_xyz
x,y,z
-x,y,1/2-z
-x,-y,-z
x,-y,1/2+z
1/2+x,1/2+y,z
1/2-x,1/2+y,1/2-z
1/2-x,1/2-y,-z
1/2+x,1/2-y,1/2+z
loop_
_atom_site_type_symbol
_atom_site_label
_atom_site_fract_x
_atom_site_fract_y
_atom_site_fract_z
Si Si1 0.851576 0.883803 0.295162
Si Si2 0.235897 0.770472 0.329644
Si Si3 0.666732 0.653109 0.273800
Si Si4 0.540752 0.784026 0.974099
Si Si5 0.383026 0.959190 0.151800
Si Si6 0.614464 0.903338 0.852299
Si Si7 0.720565 0.147879 0.989944
O O1 0.761550 0.837248 0.218034
O O2 0.768353 0.946996 0.303225
O O3 0.842819 0.852150 0.410131
O O4 0.000000 0.890844 0.250000
O O5 0.261913 0.718765 0.245046
O O6 0.361153 0.763666 0.422792
O O7 0.087787 0.758061 0.379208
O O8 0.500000 0.657434 0.250000
O O9 0.735406 0.609227 0.191631
O O10 0.713908 0.633223 0.392886
O O11 0.588266 0.850726 0.934851
O O12 0.381630 0.793861 0.002241
O O13 0.500000 0.949786 0.250000
O O14 0.395678 0.027443 0.110130
O O15 0.378320 0.906695 0.063301
O O16 0.500000 0.895294 0.750000
#
# Coordination Sequence:
#
# PCOD9278286 Si02
#       7
#     8   8   8   8   8   8   8
#     4  10  24  41  62  92 135 168 218 266 332 385
#     4  10  24  40  63  95 133 176 207 278 334 381
#     4  11  25  42  63  94 137 175 222 265 330 393
#     4  10  21  40  67  97 128 165 228 263 330 396
#     4   9  21  42  67  98 128 171 216 276 327 388
#     4  10  20  42  69  98 132 171 217 276 330 385
#     4  10  23  41  67  95 128 173 220 267 328 394
#
# _framework density 21.224789999999999
#
# number of rings (size 3 to 8) (size 9 to 14) (size 15 to 20)
#    0.857    1.143    1.429    0.857    4.000    5.143 
#    2.571    0.714    0.000    0.000    0.000    0.000 
#    0.000    0.000    0.000    0.000    0.000    0.000 
#
# Total GULP energy -156224.757402 kJ/mol
# GULP energy per Si atom -5579.455621 kJ/mol
# Density = 2.117648 g / cm^3
# Si number density = 21.224790 Si / 1000 Ang^3
#
#
#
# Elastic Constant Matrix: (Units=GPa)
#
#
# Indices 1 2 3 4 5 6 
#
# 1 116.2762 3.5580 17.5799 0.0000 -24.8250 0.0000
# 2 3.5580 65.9360 12.7780 0.0000 -0.9346 0.0000
# 3 17.5799 12.7780 74.2229 0.0000 -13.5667 0.0000
# 4 0.0000 0.0000 0.0000 28.8625 0.0000 -3.2791
# 5 -24.8250 -0.9346 -13.5667 0.0000 27.9233 0.0000
# 6 0.0000 0.0000 0.0000 -3.2791 0.0000 18.2527
#
#
#
# Elastic Compliance Matrix: (Units=1/GPa)
#
#
# Indices 1 2 3 4 5 6 
#
# 1 0.010671 -0.000289 -0.000818 0.000000 0.009080 0.000000
# 2 -0.000289 0.015717 -0.002840 0.000000 -0.001111 0.000000
# 3 -0.000818 -0.002840 0.015370 0.000000 0.006645 0.000000
# 4 0.000000 0.000000 0.000000 0.035369 0.000000 0.006354
# 5 0.009080 -0.001111 0.006645 0.000000 0.047076 0.000000
# 6 0.000000 0.000000 0.000000 0.006354 0.000000 0.055928
#
#
# Mechanical properties :
#
#
# Convention : Reuss Voigt Hill
#
# Bulk Modulus (GPa) = 29.52986 36.02965 32.77976
# Shear Modulus (GPa) = 25.08606 29.84231 27.46419
#
# Velocity S-wave (km/s) = 3.44164 3.75375 3.60108
# Velocity P-wave (km/s) = 5.45310 5.98328 5.72433
#
# Compressibility (1/GPa) = 0.03386403
#
# Stress axis : x y z
#
# Youngs Moduli (GPa) = 93.70887 63.62739 65.06030
#
# Poissons Ratio (x) = 0.01836 0.05323
# Poissons Ratio (y) = 0.02704 0.18479
# Poissons Ratio (z) = 0.07667 0.18072
#
# Static dielectric constant tensor:
#      x y z
#    x 1.809230 0.000000 -0.024270 
#    y 0.000000 1.741410 0.000000 
#    z -0.024270 0.000000 1.751380 
# 
# From -- ./inp_files/137463.got.cif
#   From: 2010.05.17/outbox.cif.g08.bks.cpg/sg15_69_cif.got.tgz:137463.got - 2010.06.03 18:47:42.
