data_PCOD9278006
_publ_section_title
;
Structure prediction by ZEFSAII (Michael W. Deem and Ramdas Pophale) SiO2 
 PCOD9278006
Probable space group: C 2/C
;
_chemical_formula_sum "Si O2"
_cell_formula_units_Z 36
_cell_length_a 20.880536
_cell_length_b 11.147605
_cell_length_c 11.866338
_cell_angle_alpha 90.000000
_cell_angle_beta 145.506548
_cell_angle_gamma 90.000000
_cell_volume 1564.212423
_symmetry_space_group_name_H-M "C 2/C"
_symmetry_group_IT_number 15
_symmetry_cell_setting 'monoclinic'
loop_
_space_group_symop_operation_xyz
x,y,z
-x,y,1/2-z
-x,-y,-z
x,-y,1/2+z
1/2+x,1/2+y,z
1/2-x,1/2+y,1/2-z
1/2-x,1/2-y,-z
1/2+x,1/2-y,1/2+z
loop_
_atom_site_type_symbol
_atom_site_label
_atom_site_fract_x
_atom_site_fract_y
_atom_site_fract_z
Si Si1 0.071353 0.704996 0.709067
Si Si2 0.000000 0.917899 0.750000
Si Si3 0.632652 0.174444 0.219708
Si Si4 0.243751 0.648068 0.145631
Si Si5 0.677910 0.565327 0.873489
O O1 0.177596 0.747323 0.789343
O O2 0.000670 0.823533 0.646986
O O3 0.986316 0.635868 0.505129
O O4 0.128855 0.650132 0.903942
O O5 0.894975 0.000927 0.633971
O O6 0.716509 0.172540 0.234389
O O7 0.625646 0.307140 0.263418
O O8 0.695274 0.091135 0.399794
O O9 0.309649 0.525462 0.213061
#
# Coordination Sequence:
#
# PCOD9278006 Si02
#       5
#     8   4   8   8   8
#     4  10  21  39  65  96 122 168 213 250 319 373
#     4  10  20  42  64  92 124 164 220 260 300 386
#     4  11  23  43  61  97 129 164 213 265 309 382
#     4  10  22  40  65  92 129 165 206 267 309 381
#     4  10  26  39  64  98 125 167 216 257 325 362
#
# _framework density 23.014776000000001
#
# number of rings (size 3 to 8) (size 9 to 14) (size 15 to 20)
#    0.000    1.778    2.222    0.000    6.222    2.667 
#    0.000    2.222    0.000    0.000    0.000    0.000 
#    0.000    0.000    0.000    0.000    0.000    0.000 
#
# Total GULP energy -100476.998043 kJ/mol
# GULP energy per Si atom -5582.055447 kJ/mol
# Density = 2.296239 g / cm^3
# Si number density = 23.014776 Si / 1000 Ang^3
#
#
#
# Elastic Constant Matrix: (Units=GPa)
#
#
# Indices 1 2 3 4 5 6 
#
# 1 63.4014 28.3228 4.0576 0.0000 3.0388 0.0000
# 2 28.3228 88.8006 9.1017 0.0000 3.2647 0.0000
# 3 4.0576 9.1017 70.2060 0.0000 2.4858 0.0000
# 4 0.0000 0.0000 0.0000 12.1124 0.0000 5.0449
# 5 3.0388 3.2647 2.4858 0.0000 29.3549 0.0000
# 6 0.0000 0.0000 0.0000 5.0449 0.0000 25.8242
#
#
#
# Elastic Compliance Matrix: (Units=1/GPa)
#
#
# Indices 1 2 3 4 5 6 
#
# 1 0.018444 -0.005810 -0.000269 0.000000 -0.001240 0.000000
# 2 -0.005810 0.013281 -0.001359 0.000000 -0.000761 0.000000
# 3 -0.000269 -0.001359 0.014473 0.000000 -0.001047 0.000000
# 4 0.000000 0.000000 0.000000 0.089873 0.000000 -0.017557
# 5 -0.001240 -0.000761 -0.001047 0.000000 0.034368 0.000000
# 6 0.000000 0.000000 0.000000 -0.017557 0.000000 0.042153
#
#
# Mechanical properties :
#
#
# Convention : Reuss Voigt Hill
#
# Bulk Modulus (GPa) = 31.92532 33.93024 32.92778
# Shear Modulus (GPa) = 21.01648 25.52002 23.26825
#
# Velocity S-wave (km/s) = 3.02515 3.33356 3.18309
# Velocity P-wave (km/s) = 5.10919 5.43982 5.27710
#
# Compressibility (1/GPa) = 0.03132310
#
# Stress axis : x y z
#
# Youngs Moduli (GPa) = 54.21674 75.29305 69.09607
#
# Poissons Ratio (x) = 0.43743 0.01858
# Poissons Ratio (y) = 0.31498 0.09391
# Poissons Ratio (z) = 0.01458 0.10233
#
# Static dielectric constant tensor:
#      x y z
#    x 1.819920 0.000000 0.023870 
#    y 0.000000 1.879130 0.000000 
#    z 0.023870 0.000000 1.916910 
# 
# From -- ./inp_files/85782.got.cif
#   From: 2010.05.17/outbox.cif.g08.bks.cpg/sg15_43_cif.got.tgz:85782.got - 2010.06.03 18:47:42.
