data_PCOD9278422
_publ_section_title
;
Structure prediction by ZEFSAII (Michael W. Deem and Ramdas Pophale) SiO2 
 PCOD9278422
Probable space group: C 2/C
;
_chemical_formula_sum "Si O2"
_cell_formula_units_Z 48
_cell_length_a 13.743670
_cell_length_b 14.670496
_cell_length_c 20.742864
_cell_angle_alpha 90.000000
_cell_angle_beta 143.631166
_cell_angle_gamma 90.000000
_cell_volume 2480.030361
_symmetry_space_group_name_H-M "C 2/C"
_symmetry_group_IT_number 15
_symmetry_cell_setting 'monoclinic'
loop_
_space_group_symop_operation_xyz
x,y,z
-x,y,1/2-z
-x,-y,-z
x,-y,1/2+z
1/2+x,1/2+y,z
1/2-x,1/2+y,1/2-z
1/2-x,1/2-y,-z
1/2+x,1/2-y,1/2+z
loop_
_atom_site_type_symbol
_atom_site_label
_atom_site_fract_x
_atom_site_fract_y
_atom_site_fract_z
Si Si1 0.773978 0.158054 0.471486
Si Si2 0.500000 0.422262 0.750000
Si Si3 0.509761 0.635734 0.040769
Si Si4 0.000000 0.443338 0.750000
Si Si5 0.568457 0.265097 0.879308
Si Si6 0.313994 0.889475 0.210068
Si Si7 0.559756 0.534110 0.661449
O O1 0.750000 0.250000 0.500000
O O2 0.602194 0.115841 0.355822
O O3 0.876739 0.162579 0.458936
O O4 0.888018 0.088513 0.573181
O O5 0.593797 0.350082 0.844608
O O6 0.590510 0.483990 0.745377
O O7 0.534326 0.702335 0.113587
O O8 0.538339 0.537306 0.090160
O O9 0.322696 0.640195 0.915107
O O10 0.881297 0.512267 0.724757
O O11 0.464176 0.180379 0.797210
O O12 0.750000 0.250000 0.000000
O O13 0.208855 0.901745 0.219311
#
# Coordination Sequence:
#
# PCOD9278422 Si02
#       7
#     8   4   8   4   8   8   8
#     4  11  24  39  64  93 123 161 208 260 308 369
#     4  10  23  39  62  90 128 160 204 261 315 358
#     4  10  20  43  63  87 127 163 206 253 312 376
#     4  12  21  39  64  92 116 166 218 241 311 384
#     4  11  23  38  62  96 124 158 209 263 303 371
#     4  11  21  39  68  88 119 173 206 244 314 378
#     4  10  21  44  63  87 127 167 205 256 313 374
#
# _framework density 19.354602
#
# number of rings (size 3 to 8) (size 9 to 14) (size 15 to 20)
#    0.000    1.333    3.333    3.500    2.333    4.667 
#    3.000    0.833    0.000    0.000    0.000    0.000 
#    0.000    0.000    0.000    0.000    0.000    0.000 
#
# Total GULP energy -133754.881258 kJ/mol
# GULP energy per Si atom -5573.120052 kJ/mol
# Density = 1.931055 g / cm^3
# Si number density = 19.354602 Si / 1000 Ang^3
#
#
#
# Elastic Constant Matrix: (Units=GPa)
#
#
# Indices 1 2 3 4 5 6 
#
# 1 96.9052 51.8928 48.4967 0.0000 -19.1110 0.0000
# 2 51.8928 112.9109 52.4651 0.0000 -6.4490 0.0000
# 3 48.4967 52.4651 92.5983 0.0001 3.1229 0.0000
# 4 0.0000 0.0000 0.0001 22.4522 0.0000 -8.4543
# 5 -19.1110 -6.4490 3.1229 0.0000 27.1580 0.0000
# 6 0.0000 0.0000 0.0000 -8.4543 0.0000 34.4773
#
#
#
# Elastic Compliance Matrix: (Units=1/GPa)
#
#
# Indices 1 2 3 4 5 6 
#
# 1 0.019406 -0.004356 -0.008153 0.000000 0.013559 0.000000
# 2 -0.004356 0.013371 -0.005319 0.000000 0.000721 0.000000
# 3 -0.008153 -0.005319 0.018390 0.000000 -0.009115 0.000000
# 4 0.000000 0.000000 0.000000 0.049070 0.000000 0.012033
# 5 0.013559 0.000721 -0.009115 0.000000 0.047583 0.000000
# 6 0.000000 0.000000 0.000000 0.012033 0.000000 0.031955
#
#
# Mechanical properties :
#
#
# Convention : Reuss Voigt Hill
#
# Bulk Modulus (GPa) = 64.46605 67.56930 66.01767
# Shear Modulus (GPa) = 22.66529 26.78814 24.72672
#
# Velocity S-wave (km/s) = 3.42578 3.72435 3.57818
# Velocity P-wave (km/s) = 7.00201 7.31310 7.15924
#
# Compressibility (1/GPa) = 0.01551204
#
# Stress axis : x y z
#
# Youngs Moduli (GPa) = 51.52970 74.78721 54.37687
#
# Poissons Ratio (x) = 0.32579 0.44332
# Poissons Ratio (y) = 0.22448 0.28922
# Poissons Ratio (z) = 0.42011 0.39778
#
# Static dielectric constant tensor:
#      x y z
#    x 1.748420 0.000000 -0.035990 
#    y 0.000000 1.711300 0.000000 
#    z -0.035990 0.000000 1.753010 
# 
# From -- ./inp_files/274406.got.cif
#   From: 2010.05.17/outbox.cif.g08.bks.cpg/sg15_138_cif.got.tgz:274406.got - 2010.06.03 18:47:42.
