data_PCOD9278121
_publ_section_title
;
Structure prediction by ZEFSAII (Michael W. Deem and Ramdas Pophale) SiO2 
 PCOD9278121
Probable space group: C 2/C
;
_chemical_formula_sum "Si O2"
_cell_formula_units_Z 40
_cell_length_a 11.778767
_cell_length_b 13.968715
_cell_length_c 13.096317
_cell_angle_alpha 90.000000
_cell_angle_beta 130.841978
_cell_angle_gamma 90.000000
_cell_volume 1630.135305
_symmetry_space_group_name_H-M "C 2/C"
_symmetry_group_IT_number 15
_symmetry_cell_setting 'monoclinic'
loop_
_space_group_symop_operation_xyz
x,y,z
-x,y,1/2-z
-x,-y,-z
x,-y,1/2+z
1/2+x,1/2+y,z
1/2-x,1/2+y,1/2-z
1/2-x,1/2-y,-z
1/2+x,1/2-y,1/2+z
loop_
_atom_site_type_symbol
_atom_site_label
_atom_site_fract_x
_atom_site_fract_y
_atom_site_fract_z
Si Si1 0.264493 0.287994 0.624733
Si Si2 0.703409 0.098424 0.754703
Si Si3 0.432811 0.821879 0.519686
Si Si4 0.034269 0.874591 0.385755
Si Si5 0.000000 0.948505 0.750000
Si Si6 0.000000 0.446597 0.750000
O O1 0.250000 0.250000 0.500000
O O2 0.344105 0.200005 0.727389
O O3 0.367134 0.379679 0.705554
O O4 0.101682 0.310678 0.575639
O O5 0.656721 0.110560 0.610072
O O6 0.883006 0.102355 0.860028
O O7 0.622945 0.013848 0.766846
O O8 0.381940 0.711111 0.506800
O O9 0.432379 0.878669 0.624408
O O10 0.000000 0.834084 0.250000
O O11 0.078749 0.981872 0.379671
#
# Coordination Sequence:
#
# PCOD9278121 Si02
#       6
#     8   8   8   8   4   4
#     4  11  23  43  67  95 133 173 220 271 334 404
#     4  11  24  41  66  94 131 174 218 274 339 398
#     4  11  23  43  65  97 133 174 225 280 332 401
#     4   9  22  44  63  94 131 172 221 270 337 397
#     4  10  20  42  66  92 128 170 212 270 322 396
#     4  12  22  40  64  98 128 170 224 280 334 394
#
# _framework density 24.537841
#
# number of rings (size 3 to 8) (size 9 to 14) (size 15 to 20)
#    0.600    0.800    1.000    4.800    0.000    2.400 
#    0.000    9.000    0.000    0.000    0.000    0.000 
#    0.000    0.000    0.000    0.000    0.000    0.000 
#
# Total GULP energy -111753.603946 kJ/mol
# GULP energy per Si atom -5587.680197 kJ/mol
# Density = 2.448199 g / cm^3
# Si number density = 24.537841 Si / 1000 Ang^3
#
#
#
# Elastic Constant Matrix: (Units=GPa)
#
#
# Indices 1 2 3 4 5 6 
#
# 1 119.7475 62.2570 20.1882 0.0000 3.1083 0.0000
# 2 62.2570 156.3064 23.1020 0.0000 -8.2194 0.0000
# 3 20.1882 23.1020 71.2858 0.0000 -28.6310 0.0000
# 4 0.0000 0.0000 0.0000 22.0517 0.0000 -16.8946
# 5 3.1083 -8.2194 -28.6310 0.0000 38.5713 0.0000
# 6 0.0000 0.0000 0.0000 -16.8946 0.0000 -109.3215
#
#
#
# Elastic Compliance Matrix: (Units=1/GPa)
#
#
# Indices 1 2 3 4 5 6 
#
# 1 0.011255 -0.004182 -0.003640 0.000000 -0.004500 0.000000
# 2 -0.004182 0.008275 -0.000932 0.000000 0.001409 0.000000
# 3 -0.003640 -0.000932 0.021940 0.000000 0.016380 0.000000
# 4 0.000000 0.000000 0.000000 0.040547 0.000000 -0.006266
# 5 -0.004500 0.001409 0.016380 0.000000 0.038748 0.000000
# 6 0.000000 0.000000 0.000000 -0.006266 0.000000 -0.008179
#
#
# Mechanical properties :
#
#
# Convention : Reuss Voigt Hill
#
# Bulk Modulus (GPa) = 41.72902 62.04823 51.88863
# Shear Modulus (GPa) = 36.21085 6.37980 21.29533
#
# Velocity S-wave (km/s) = 3.84567 1.61420 2.94914
# Velocity P-wave (km/s) = 6.06315 5.36804 5.72615
#
# Compressibility (1/GPa) = 0.02396414
#
# Stress axis : x y z
#
# Youngs Moduli (GPa) = 88.84626 120.84508 45.57956
#
# Poissons Ratio (x) = 0.50534 0.16589
# Poissons Ratio (y) = 0.37153 0.04246
# Poissons Ratio (z) = 0.32337 0.11259
#
# Static dielectric constant tensor:
#      x y z
#    x 1.862510 0.000000 -0.015510 
#    y 0.000000 1.917940 0.000000 
#    z -0.015510 0.000000 2.316830 
# 
# From -- ./inp_files/152332.got.cif
#   From: 2010.05.17/outbox.cif.g08.bks.cpg/sg15_77_cif.got.tgz:152332.got - 2010.06.03 18:47:42.
