data_PCOD9278938
_publ_section_title
;
Structure prediction by ZEFSAII (Michael W. Deem and Ramdas Pophale) SiO2 
 PCOD9278938
Probable space group: C 2/C
;
_chemical_formula_sum "Si O2"
_cell_formula_units_Z 48
_cell_length_a 21.272595
_cell_length_b 22.820228
_cell_length_c 13.984609
_cell_angle_alpha 90.000000
_cell_angle_beta 20.792061
_cell_angle_gamma 90.000000
_cell_volume 2409.858361
_symmetry_space_group_name_H-M "C 2/C"
_symmetry_group_IT_number 15
_symmetry_cell_setting 'monoclinic'
loop_
_space_group_symop_operation_xyz
x,y,z
-x,y,1/2-z
-x,-y,-z
x,-y,1/2+z
1/2+x,1/2+y,z
1/2-x,1/2+y,1/2-z
1/2-x,1/2-y,-z
1/2+x,1/2-y,1/2+z
loop_
_atom_site_type_symbol
_atom_site_label
_atom_site_fract_x
_atom_site_fract_y
_atom_site_fract_z
Si Si1 0.688544 0.502794 0.284064
Si Si2 0.823714 0.493972 0.387502
Si Si3 0.189113 0.813807 0.682830
Si Si4 0.482485 0.799912 0.427130
Si Si5 0.117267 0.581108 0.357134
Si Si6 0.002909 0.912434 0.645682
O O1 0.500000 0.500000 0.500000
O O2 0.718436 0.558125 0.310819
O O3 0.683726 0.443304 0.354303
O O4 0.820895 0.502127 0.006369
O O5 0.852599 0.554206 0.289929
O O6 0.633828 0.464699 0.635944
O O7 0.963430 0.451244 0.137282
O O8 0.311496 0.801018 0.600558
O O9 0.340749 0.816265 0.384705
O O10 0.082708 0.873869 0.816768
O O11 0.042643 0.762898 0.880683
O O12 0.433596 0.851176 0.570189
O O13 0.000000 0.876839 0.750000
#
# Coordination Sequence:
#
# PCOD9278938 Si02
#       6
#     8   8   8   8   8   8
#     4  10  21  33  53  80 117 148 186 235 289 343
#     4  10  21  34  54  83 111 158 187 227 295 347
#     4  10  22  35  55  82 112 153 192 239 298 337
#     4  10  21  36  55  80 114 151 194 242 288 348
#     4  11  20  36  56  82 118 150 193 235 289 353
#     4  11  20  36  54  84 120 146 190 242 290 351
#
# _framework density 19.918182999999999
#
# number of rings (size 3 to 8) (size 9 to 14) (size 15 to 20)
#    0.000    1.667    3.333    2.500    7.000    0.000 
#    0.000    0.000    0.000    1.000    0.000    0.000 
#    0.000    0.000    0.000    1.667    0.000    0.000 
#
# Total GULP energy -133613.073124 kJ/mol
# GULP energy per Si atom -5567.211380 kJ/mol
# Density = 1.987285 g / cm^3
# Si number density = 19.918183 Si / 1000 Ang^3
#
#
#
# Elastic Constant Matrix: (Units=GPa)
#
#
# Indices 1 2 3 4 5 6 
#
# 1 54.8120 18.3511 14.0495 0.0000 4.7087 0.0068
# 2 18.3511 109.0013 28.3174 0.0137 0.9729 0.0044
# 3 14.0495 28.3174 53.0420 0.0188 -5.9262 0.0097
# 4 0.0000 0.0137 0.0188 37.9149 -0.0004 -4.1843
# 5 4.7087 0.9729 -5.9262 -0.0004 32.6566 -0.0069
# 6 0.0068 0.0044 0.0097 -4.1843 -0.0069 22.6513
#
#
#
# Elastic Compliance Matrix: (Units=1/GPa)
#
#
# Indices 1 2 3 4 5 6 
#
# 1 0.020501 -0.002205 -0.004671 0.000003 -0.003738 -0.000004
# 2 -0.002205 0.010950 -0.005372 -0.000001 -0.000983 0.000000
# 3 -0.004671 -0.005372 0.023528 -0.000011 0.005103 -0.000008
# 4 0.000003 -0.000001 -0.000011 0.026924 -0.000001 0.004974
# 5 -0.003738 -0.000983 0.005103 -0.000001 0.032116 0.000009
# 6 -0.000004 0.000000 -0.000008 0.004974 0.000009 0.045066
#
#
# Mechanical properties :
#
#
# Convention : Reuss Voigt Hill
#
# Bulk Modulus (GPa) = 32.80366 37.58793 35.19580
# Shear Modulus (GPa) = 25.80784 29.05372 27.43078
#
# Velocity S-wave (km/s) = 3.60348 3.82337 3.71505
# Velocity P-wave (km/s) = 5.81536 6.19702 6.00922
#
# Compressibility (1/GPa) = 0.03048440
#
# Stress axis : x y z
#
# Youngs Moduli (GPa) = 48.77904 91.32740 42.50258
#
# Poissons Ratio (x) = 0.20135 0.19852
# Poissons Ratio (y) = 0.10754 0.22830
# Poissons Ratio (z) = 0.22783 0.49057
#
# Static dielectric constant tensor:
#      x y z
#    x 1.936390 0.000000 -0.034950 
#    y 0.000000 1.735630 0.000010 
#    z -0.034950 0.000010 1.740250 
# 
# From -- ./inp_files/174483.got.cif
#   From: 2010.05.17/outbox.cif.g08.bks.cpg/sg15_88_cif.got.tgz:174483.got - 2010.06.03 18:47:42.
