data_PCOD9278975
_publ_section_title
;
Structure prediction by ZEFSAII (Michael W. Deem and Ramdas Pophale) SiO2 
 PCOD9278975
Probable space group: C 2/C
;
_chemical_formula_sum "Si O2"
_cell_formula_units_Z 60
_cell_length_a 22.823569
_cell_length_b 15.847411
_cell_length_c 9.348470
_cell_angle_alpha 90.000000
_cell_angle_beta 110.785091
_cell_angle_gamma 90.000000
_cell_volume 3161.229027
_symmetry_space_group_name_H-M "C 2/C"
_symmetry_group_IT_number 15
_symmetry_cell_setting 'monoclinic'
loop_
_space_group_symop_operation_xyz
x,y,z
-x,y,1/2-z
-x,-y,-z
x,-y,1/2+z
1/2+x,1/2+y,z
1/2-x,1/2+y,1/2-z
1/2-x,1/2-y,-z
1/2+x,1/2-y,1/2+z
loop_
_atom_site_type_symbol
_atom_site_label
_atom_site_fract_x
_atom_site_fract_y
_atom_site_fract_z
Si Si1 0.858481 0.084358 0.655592
Si Si2 0.366680 0.781831 0.609390
Si Si3 0.557435 0.188626 0.617746
Si Si4 0.714063 0.933399 0.044441
Si Si5 0.000000 0.835232 0.750000
Si Si6 0.860061 0.547345 0.734903
Si Si7 0.956387 0.401759 0.851107
Si Si8 0.566843 0.469390 0.997069
O O1 0.855174 0.185104 0.634091
O O2 0.787354 0.051407 0.592107
O O3 0.891614 0.060864 0.833685
O O4 0.898457 0.042041 0.562925
O O5 0.403821 0.790430 0.491843
O O6 0.306840 0.843226 0.540576
O O7 0.411975 0.824411 0.765635
O O8 0.533253 0.273459 0.666937
O O9 0.602188 0.133431 0.758449
O O10 0.500049 0.129428 0.516947
O O11 0.691508 0.935442 0.188405
O O12 0.673056 0.003362 0.926673
O O13 0.950010 0.894114 0.626444
O O14 0.911410 0.480774 0.839516
O O15 0.000000 0.421254 0.750000
O O16 0.500000 0.500000 0.000000
#
# Coordination Sequence:
#
# PCOD9278975 Si02
#       8
#     8   8   8   8   4   8   8   8
#     4  12  23  42  69  83 119 158 200 245 307 349
#     4   9  20  38  61  87 122 154 205 245 286 349
#     4  10  21  33  58  89 128 158 189 251 296 353
#     4  10  22  40  61  91 118 163 204 240 282 355
#     4  12  24  38  58  94 122 148 202 236 324 352
#     4  10  21  37  58  89 129 159 204 237 287 347
#     4   9  18  34  58  92 121 163 199 235 294 359
#     4  12  25  43  64  92 117 152 195 259 305 366
#
# _framework density 18.979959999999998
#
# number of rings (size 3 to 8) (size 9 to 14) (size 15 to 20)
#    0.000    1.600    1.333    4.000    2.800    2.133 
#    0.000    0.000    0.000    2.400    0.000    0.000 
#    0.000    0.000    0.000    0.000    0.000    0.000 
#
# Total GULP energy -167623.974450 kJ/mol
# GULP energy per Si atom -5587.465815 kJ/mol
# Density = 1.893676 g / cm^3
# Si number density = 18.979960 Si / 1000 Ang^3
#
#
#
# Elastic Constant Matrix: (Units=GPa)
#
#
# Indices 1 2 3 4 5 6 
#
# 1 94.3836 12.2955 19.5387 0.0000 14.0988 0.0000
# 2 12.2955 69.9401 12.6743 0.0000 7.9366 0.0000
# 3 19.5387 12.6743 62.8690 0.0000 17.9323 0.0000
# 4 0.0000 0.0000 0.0000 17.3589 0.0000 -7.9455
# 5 14.0988 7.9366 17.9323 0.0000 25.0880 0.0000
# 6 0.0000 0.0000 0.0000 -7.9455 0.0000 24.7716
#
#
#
# Elastic Compliance Matrix: (Units=1/GPa)
#
#
# Indices 1 2 3 4 5 6 
#
# 1 0.011900 -0.001166 -0.002086 0.000000 -0.004827 0.000000
# 2 -0.001166 0.015163 -0.001901 0.000000 -0.002783 0.000000
# 3 -0.002086 -0.001901 0.020640 0.000000 -0.012979 0.000000
# 4 0.000000 0.000000 0.000000 0.067520 0.000000 0.021657
# 5 -0.004827 -0.002783 -0.012979 0.000000 0.052730 0.000000
# 6 0.000000 0.000000 0.000000 0.021657 0.000000 0.047316
#
#
# Mechanical properties :
#
#
# Convention : Reuss Voigt Hill
#
# Bulk Modulus (GPa) = 26.74041 35.13440 30.93741
# Shear Modulus (GPa) = 21.00482 25.62264 23.31373
#
# Velocity S-wave (km/s) = 3.33029 3.67820 3.50856
# Velocity P-wave (km/s) = 5.37654 6.04900 5.72265
#
# Compressibility (1/GPa) = 0.03739658
#
# Stress axis : x y z
#
# Youngs Moduli (GPa) = 84.03390 65.94915 48.45028
#
# Poissons Ratio (x) = 0.07691 0.10108
# Poissons Ratio (y) = 0.09800 0.09209
# Poissons Ratio (z) = 0.17532 0.12535
#
# Static dielectric constant tensor:
#      x y z
#    x 1.646340 0.000000 0.001470 
#    y 0.000000 1.647740 0.000000 
#    z 0.001470 0.000000 1.653810 
# 
# From -- ./inp_files/61958.got.cif
#   From: 2010.05.17/outbox.cif.g08.bks.cpg/sg15_31_cif.got.tgz:61958.got - 2010.06.03 18:47:42.
