data_PCOD9278783
_publ_section_title
;
Structure prediction by ZEFSAII (Michael W. Deem and Ramdas Pophale) SiO2 
 PCOD9278783
Probable space group: C 2/C
;
_chemical_formula_sum "Si O2"
_cell_formula_units_Z 52
_cell_length_a 8.469365
_cell_length_b 16.304295
_cell_length_c 30.416626
_cell_angle_alpha 90.000000
_cell_angle_beta 143.403343
_cell_angle_gamma 90.000000
_cell_volume 2504.032041
_symmetry_space_group_name_H-M "C 2/C"
_symmetry_group_IT_number 15
_symmetry_cell_setting 'monoclinic'
loop_
_space_group_symop_operation_xyz
x,y,z
-x,y,1/2-z
-x,-y,-z
x,-y,1/2+z
1/2+x,1/2+y,z
1/2-x,1/2+y,1/2-z
1/2-x,1/2-y,-z
1/2+x,1/2-y,1/2+z
loop_
_atom_site_type_symbol
_atom_site_label
_atom_site_fract_x
_atom_site_fract_y
_atom_site_fract_z
Si Si1 0.883330 0.164894 0.019920
Si Si2 0.500000 0.199193 0.250000
Si Si3 0.270027 0.086726 0.332424
Si Si4 0.703307 0.595608 0.665810
Si Si5 0.764040 0.541258 0.579078
Si Si6 0.447519 0.759633 0.640370
Si Si7 0.503678 0.417830 0.862358
O O1 0.174000 0.192649 0.068061
O O2 0.908960 0.108239 0.069029
O O3 0.750000 0.250000 0.000000
O O4 0.701513 0.119003 0.944365
O O5 0.547969 0.248450 0.305583
O O6 0.248863 0.140428 0.202578
O O7 0.333636 0.175288 0.326328
O O8 0.000000 0.056059 0.250000
O O9 0.223216 0.095004 0.374110
O O10 0.501855 0.023898 0.372153
O O11 0.723850 0.573528 0.619066
O O12 0.513146 0.672621 0.633268
O O13 0.589926 0.511792 0.661186
O O14 0.000000 0.612573 0.750000
O O15 0.500000 0.500000 0.500000
#
# Coordination Sequence:
#
# PCOD9278783 Si02
#       7
#     8   4   8   8   8   8   8
#     4  11  27  47  68 101 139 192 235 293 356 425
#     4  10  20  46  68  94 148 190 230 296 362 418
#     4  12  24  44  74 108 137 189 242 295 363 434
#     4  12  26  44  71 108 141 187 239 304 361 426
#     4  12  25  50  73 100 149 193 238 292 368 434
#     4  11  25  44  71 104 143 188 239 297 361 420
#     4  11  23  43  71  97 143 184 235 291 356 426
#
# _framework density 20.766507000000001
#
# number of rings (size 3 to 8) (size 9 to 14) (size 15 to 20)
#    0.000    0.615    5.385    2.308    4.308    3.692 
#    1.385    0.000    0.000    0.000    0.000    0.000 
#    0.000    0.000    0.000    0.000    0.000    0.000 
#
# Total GULP energy -145367.894378 kJ/mol
# GULP energy per Si atom -5591.072861 kJ/mol
# Density = 2.071924 g / cm^3
# Si number density = 20.766507 Si / 1000 Ang^3
#
#
#
# Elastic Constant Matrix: (Units=GPa)
#
#
# Indices 1 2 3 4 5 6 
#
# 1 115.2914 58.8621 26.4485 0.0000 -11.5932 0.0000
# 2 58.8621 112.2044 24.6882 0.0001 0.9441 0.0003
# 3 26.4485 24.6882 70.2742 0.0003 0.2922 0.0008
# 4 0.0000 0.0001 0.0003 5.1109 0.0000 7.0735
# 5 -11.5932 0.9441 0.2922 0.0000 31.2574 0.0005
# 6 0.0000 0.0003 0.0008 7.0735 0.0005 36.3027
#
#
#
# Elastic Compliance Matrix: (Units=1/GPa)
#
#
# Indices 1 2 3 4 5 6 
#
# 1 0.013002 -0.006266 -0.002713 0.000000 0.005037 0.000000
# 2 -0.006266 0.012681 -0.002085 0.000000 -0.002688 0.000000
# 3 -0.002713 -0.002085 0.015988 0.000000 -0.001093 0.000000
# 4 0.000000 0.000000 0.000000 0.267903 0.000001 -0.052200
# 5 0.005037 -0.002688 -0.001093 0.000001 0.033952 -0.000001
# 6 0.000000 0.000000 0.000000 -0.052200 -0.000001 0.037717
#
#
# Mechanical properties :
#
#
# Convention : Reuss Voigt Hill
#
# Bulk Modulus (GPa) = 51.17222 57.52973 54.35098
# Shear Modulus (GPa) = 12.19851 27.05229 19.62540
#
# Velocity S-wave (km/s) = 2.42629 3.61319 3.07750
# Velocity P-wave (km/s) = 5.70477 6.72088 6.23356
#
# Compressibility (1/GPa) = 0.01954185
#
# Stress axis : x y z
#
# Youngs Moduli (GPa) = 76.91311 78.85835 62.54606
#
# Poissons Ratio (x) = 0.49414 0.16968
# Poissons Ratio (y) = 0.48195 0.13044
# Poissons Ratio (z) = 0.20866 0.16446
#
# Static dielectric constant tensor:
#      x y z
#    x 1.805000 0.000000 -0.020270 
#    y 0.000000 1.876980 0.000000 
#    z -0.020270 0.000000 1.821330 
# 
# From -- ./inp_files/288602.got.cif
#   From: 2010.05.17/outbox.cif.g08.bks.cpg/sg15_145_cif.got.tgz:288602.got - 2010.06.03 18:47:42.
