data_PCOD9278681
_publ_section_title
;
Structure prediction by ZEFSAII (Michael W. Deem and Ramdas Pophale) SiO2 
 PCOD9278681
Probable space group: C 2/C
;
_chemical_formula_sum "Si O2"
_cell_formula_units_Z 64
_cell_length_a 10.761520
_cell_length_b 17.516899
_cell_length_c 23.964002
_cell_angle_alpha 90.000000
_cell_angle_beta 144.627277
_cell_angle_gamma 90.000000
_cell_volume 2615.101337
_symmetry_space_group_name_H-M "C 2/C"
_symmetry_group_IT_number 15
_symmetry_cell_setting 'monoclinic'
loop_
_space_group_symop_operation_xyz
x,y,z
-x,y,1/2-z
-x,-y,-z
x,-y,1/2+z
1/2+x,1/2+y,z
1/2-x,1/2+y,1/2-z
1/2-x,1/2-y,-z
1/2+x,1/2-y,1/2+z
loop_
_atom_site_type_symbol
_atom_site_label
_atom_site_fract_x
_atom_site_fract_y
_atom_site_fract_z
Si Si1 0.934790 0.420049 0.005945
Si Si2 0.647396 0.633719 0.893969
Si Si3 0.343391 0.831098 0.575651
Si Si4 0.512072 0.536713 0.138486
Si Si5 0.270957 0.735894 0.749676
Si Si6 0.905601 0.630466 0.623968
Si Si7 0.046950 0.170059 0.070540
Si Si8 0.996490 0.528521 0.186459
O O1 0.122444 0.366625 0.051415
O O2 0.952466 0.405616 0.079140
O O3 0.677471 0.413615 0.900850
O O4 0.000000 0.500000 0.000000
O O5 0.575269 0.548924 0.885719
O O6 0.450874 0.676774 0.792962
O O7 0.695877 0.678369 0.968485
O O8 0.583377 0.797156 0.664420
O O9 0.213658 0.810337 0.583478
O O10 0.371277 0.921877 0.595802
O O11 0.533180 0.581430 0.086930
O O12 0.759286 0.528511 0.246239
O O13 0.101374 0.681276 0.717626
O O14 0.129437 0.781026 0.652832
O O15 0.693590 0.681390 0.539788
O O16 0.888583 0.553887 0.653665
O O17 0.000000 0.565097 0.250000
#
# Coordination Sequence:
#
# PCOD9278681 Si02
#       8
#     8   8   8   8   8   8   8   8
#     4   9  21  43  65  98 133 174 230 281 341 400
#     4  11  25  44  71  99 143 185 238 285 348 419
#     4  12  25  43  71 103 140 184 228 290 358 422
#     4  10  20  44  70 102 135 178 231 291 340 413
#     4  12  25  45  64  99 140 187 232 281 356 433
#     4  11  26  42  74  99 136 184 237 291 343 421
#     4  11  24  44  72 101 136 184 231 292 361 416
#     4  12  22  42  74 109 139 179 235 297 358 409
#
# _framework density 24.473239
#
# number of rings (size 3 to 8) (size 9 to 14) (size 15 to 20)
#    0.000    1.000    3.750    3.375    5.250    1.000 
#    0.000    1.875    5.500    0.000    0.000    0.000 
#    0.000    0.000    0.000    0.000    0.000    0.000 
#
# Total GULP energy -178527.755815 kJ/mol
# GULP energy per Si atom -5578.992369 kJ/mol
# Density = 2.441754 g / cm^3
# Si number density = 24.473239 Si / 1000 Ang^3
#
#
#
# Elastic Constant Matrix: (Units=GPa)
#
#
# Indices 1 2 3 4 5 6 
#
# 1 22.8433 2.7435 14.1956 0.0000 12.7333 0.0000
# 2 2.7435 85.5872 32.4623 0.0000 10.4172 0.0000
# 3 14.1956 32.4623 132.4328 -0.0003 37.1915 -0.0001
# 4 0.0000 0.0000 -0.0003 50.7849 0.0000 6.2710
# 5 12.7333 10.4172 37.1915 0.0000 38.3064 0.0000
# 6 0.0000 0.0000 -0.0001 6.2710 0.0000 20.5580
#
#
#
# Elastic Compliance Matrix: (Units=1/GPa)
#
#
# Indices 1 2 3 4 5 6 
#
# 1 0.053883 0.000795 -0.001210 0.000000 -0.016953 0.000000
# 2 0.000795 0.012903 -0.003009 0.000000 -0.000852 0.000000
# 3 -0.001210 -0.003009 0.011103 0.000000 -0.009559 0.000000
# 4 0.000000 0.000000 0.000000 0.020462 0.000000 -0.006242
# 5 -0.016953 -0.000852 -0.009559 0.000000 0.041253 0.000000
# 6 0.000000 0.000000 0.000000 -0.006242 0.000000 0.050547
#
#
# Mechanical properties :
#
#
# Convention : Reuss Voigt Hill
#
# Bulk Modulus (GPa) = 14.07625 37.74065 25.90845
# Shear Modulus (GPa) = 22.65743 34.69398 28.67570
#
# Velocity S-wave (km/s) = 3.04600 3.76923 3.42675
# Velocity P-wave (km/s) = 4.25852 5.86493 5.12506
#
# Compressibility (1/GPa) = 0.07104164
#
# Stress axis : x y z
#
# Youngs Moduli (GPa) = 18.55887 77.49871 90.06760
#
# Poissons Ratio (x) = -0.06161 0.10896
# Poissons Ratio (y) = -0.01475 0.27100
# Poissons Ratio (z) = 0.02245 0.23318
#
# Static dielectric constant tensor:
#      x y z
#    x 1.954060 0.000000 0.003450 
#    y 0.000000 2.073690 0.000000 
#    z 0.003450 0.000000 1.920570 
# 
# From -- ./inp_files/311663.got.cif
#   From: 2010.05.17/outbox.cif.g08.bks.cpg/sg15_156_cif.got.tgz:311663.got - 2010.06.03 18:47:42.
