data_PCOD9278706
_publ_section_title
;
Structure prediction by ZEFSAII (Michael W. Deem and Ramdas Pophale) SiO2 
 PCOD9278706
Probable space group: C 2/C
;
_chemical_formula_sum "Si O2"
_cell_formula_units_Z 32
_cell_length_a 17.571727
_cell_length_b 6.696418
_cell_length_c 12.499105
_cell_angle_alpha 90.000000
_cell_angle_beta 102.076857
_cell_angle_gamma 90.000000
_cell_volume 1438.189376
_symmetry_space_group_name_H-M "C 2/C"
_symmetry_group_IT_number 15
_symmetry_cell_setting 'monoclinic'
loop_
_space_group_symop_operation_xyz
x,y,z
-x,y,1/2-z
-x,-y,-z
x,-y,1/2+z
1/2+x,1/2+y,z
1/2-x,1/2+y,1/2-z
1/2-x,1/2-y,-z
1/2+x,1/2-y,1/2+z
loop_
_atom_site_type_symbol
_atom_site_label
_atom_site_fract_x
_atom_site_fract_y
_atom_site_fract_z
Si Si1 0.370561 0.719093 0.360939
Si Si2 0.750000 0.750000 0.500000
Si Si3 0.282593 0.551489 0.698662
Si Si4 0.868100 0.613963 0.089575
Si Si5 0.000000 0.621274 0.750000
O O1 0.327138 0.512266 0.319968
O O2 0.306630 0.886946 0.310707
O O3 0.386596 0.753398 0.489930
O O4 0.446201 0.746739 0.311514
O O5 0.713298 0.629172 0.384071
O O6 0.809848 0.560976 0.536845
O O7 0.324712 0.740523 0.658986
O O8 0.944416 0.517257 0.162255
#
# Coordination Sequence:
#
# PCOD9278706 Si02
#       5
#     8   4   8   8   4
#     4  11  24  43  74 101 144 189 235 300 361 429
#     4  10  20  44  72  98 136 182 242 300 338 428
#     4  11  24  44  73 106 136 192 251 290 354 434
#     4  11  25  46  73 106 146 188 245 301 362 428
#     4  12  24  48  66 110 148 190 234 310 368 430
#
# _framework density 22.250197
#
# number of rings (size 3 to 8) (size 9 to 14) (size 15 to 20)
#    0.000    1.000    2.500    5.250    3.500    1.000 
#    0.000    2.500    0.000    0.000    0.000    0.000 
#    0.000    0.000    0.000    0.000    0.000    0.000 
#
# Total GULP energy -89101.269723 kJ/mol
# GULP energy per Si atom -5568.829358 kJ/mol
# Density = 2.219955 g / cm^3
# Si number density = 22.250197 Si / 1000 Ang^3
#
#
#
# Elastic Constant Matrix: (Units=GPa)
#
#
# Indices 1 2 3 4 5 6 
#
# 1 105.7025 19.6757 21.3587 0.0000 -17.9215 0.0000
# 2 19.6757 61.7849 10.6619 0.0000 1.1513 0.0000
# 3 21.3587 10.6619 95.7087 0.0000 21.9084 0.0000
# 4 0.0000 0.0000 0.0000 29.5739 0.0000 5.6500
# 5 -17.9215 1.1513 21.9084 0.0000 28.2944 0.0000
# 6 0.0000 0.0000 0.0000 5.6500 0.0000 20.0596
#
#
#
# Elastic Compliance Matrix: (Units=1/GPa)
#
#
# Indices 1 2 3 4 5 6 
#
# 1 0.013452 -0.003563 -0.005577 0.000000 0.012984 0.000000
# 2 -0.003563 0.017466 -0.000573 0.000000 -0.002524 0.000000
# 3 -0.005577 -0.000573 0.015266 0.000000 -0.015330 0.000000
# 4 0.000000 0.000000 0.000000 0.035737 0.000000 -0.010066
# 5 0.012984 -0.002524 -0.015330 0.000000 0.055539 0.000000
# 6 0.000000 0.000000 0.000000 -0.010066 0.000000 0.052686
#
#
# Mechanical properties :
#
#
# Convention : Reuss Voigt Hill
#
# Bulk Modulus (GPa) = 37.37285 40.73208 39.05247
# Shear Modulus (GPa) = 22.88424 29.68559 26.28491
#
# Velocity S-wave (km/s) = 3.21050 3.65659 3.44078
# Velocity P-wave (km/s) = 5.52957 6.01446 5.77710
#
# Compressibility (1/GPa) = 0.02675739
#
# Stress axis : x y z
#
# Youngs Moduli (GPa) = 74.33768 57.25463 65.50590
#
# Poissons Ratio (x) = 0.20402 0.36534
# Poissons Ratio (y) = 0.26490 0.03751
# Poissons Ratio (z) = 0.41459 0.03278
#
# Static dielectric constant tensor:
#      x y z
#    x 1.827400 0.000000 -0.038530 
#    y 0.000000 2.304170 0.000000 
#    z -0.038530 0.000000 1.813120 
# 
# From -- ./inp_files/109064.got.cif
#   From: 2010.05.17/outbox.cif.g08.bks.cpg/sg15_55_cif.got.tgz:109064.got - 2010.06.03 18:47:42.
