data_PCOD9278686
_publ_section_title
;
Structure prediction by ZEFSAII (Michael W. Deem and Ramdas Pophale) SiO2 
 PCOD9278686
Probable space group: C 2/C
;
_chemical_formula_sum "Si O2"
_cell_formula_units_Z 32
_cell_length_a 6.142662
_cell_length_b 14.434788
_cell_length_c 14.795019
_cell_angle_alpha 90.000000
_cell_angle_beta 114.191214
_cell_angle_gamma 90.000000
_cell_volume 1196.642749
_symmetry_space_group_name_H-M "C 2/C"
_symmetry_group_IT_number 15
_symmetry_cell_setting 'monoclinic'
loop_
_space_group_symop_operation_xyz
x,y,z
-x,y,1/2-z
-x,-y,-z
x,-y,1/2+z
1/2+x,1/2+y,z
1/2-x,1/2+y,1/2-z
1/2-x,1/2-y,-z
1/2+x,1/2-y,1/2+z
loop_
_atom_site_type_symbol
_atom_site_label
_atom_site_fract_x
_atom_site_fract_y
_atom_site_fract_z
Si Si1 0.434488 0.974223 0.840626
Si Si2 0.004949 0.782690 0.517599
Si Si3 0.278182 0.412093 0.048269
Si Si4 0.241024 0.217507 0.240695
O O1 0.500000 0.002307 0.750000
O O2 0.324342 0.870944 0.812898
O O3 0.247611 0.039085 0.861207
O O4 0.656783 0.972459 0.948704
O O5 0.750000 0.750000 0.500000
O O6 0.133523 0.684973 0.519744
O O7 0.976856 0.865218 0.440457
O O8 0.136735 0.820609 0.628610
O O9 0.500000 0.261997 0.250000
O O10 0.000000 0.258846 0.250000
#
# Coordination Sequence:
#
# PCOD9278686 Si02
#       4
#     8   8   8   8
#     4  10  20  44  70 107 149 203 256 324 389 467
#     4  11  23  42  72 107 149 203 256 323 390 470
#     4  10  22  42  70 104 150 197 262 312 397 464
#     4  11  23  44  72 105 149 205 252 318 397 455
#
# _framework density 26.741479999999999
#
# number of rings (size 3 to 8) (size 9 to 14) (size 15 to 20)
#    0.000    1.500    5.000    1.500    3.500    1.000 
#    9.000    5.000    0.000    0.000    0.000    0.000 
#    0.000    0.000    0.000    0.000    0.000    0.000 
#
# Total GULP energy -89244.889469 kJ/mol
# GULP energy per Si atom -5577.805592 kJ/mol
# Density = 2.668061 g / cm^3
# Si number density = 26.741480 Si / 1000 Ang^3
#
#
#
# Elastic Constant Matrix: (Units=GPa)
#
#
# Indices 1 2 3 4 5 6 
#
# 1 152.3565 44.6794 37.9295 0.0000 -13.3571 0.0000
# 2 44.6794 72.1769 16.8523 0.0000 -3.6829 0.0000
# 3 37.9295 16.8523 131.9186 0.0000 -29.6546 0.0000
# 4 0.0000 0.0000 0.0000 32.0127 0.0000 -12.8414
# 5 -13.3571 -3.6829 -29.6546 0.0000 37.6300 0.0000
# 6 0.0000 0.0000 0.0000 -12.8414 0.0000 55.0734
#
#
#
# Elastic Compliance Matrix: (Units=1/GPa)
#
#
# Indices 1 2 3 4 5 6 
#
# 1 0.008473 -0.004822 -0.001519 0.000000 0.001338 0.000000
# 2 -0.004822 0.017025 -0.000971 0.000000 -0.000810 0.000000
# 3 -0.001519 -0.000971 0.009721 0.000000 0.007026 0.000000
# 4 0.000000 0.000000 0.000000 0.034461 0.000000 0.008035
# 5 0.001338 -0.000810 0.007026 0.000000 0.032507 0.000000
# 6 0.000000 0.000000 0.000000 0.008035 0.000000 0.020031
#
#
# Mechanical properties :
#
#
# Convention : Reuss Voigt Hill
#
# Bulk Modulus (GPa) = 48.55565 61.70825 55.13195
# Shear Modulus (GPa) = 34.79287 42.07595 38.43441
#
# Velocity S-wave (km/s) = 3.61097 3.97096 3.79523
# Velocity P-wave (km/s) = 5.96509 6.64459 6.31399
#
# Compressibility (1/GPa) = 0.02059492
#
# Stress axis : x y z
#
# Youngs Moduli (GPa) = 118.01840 58.73663 102.87301
#
# Poissons Ratio (x) = 0.28324 0.15630
# Poissons Ratio (y) = 0.56910 0.09985
# Poissons Ratio (z) = 0.17931 0.05701
#
# Static dielectric constant tensor:
#      x y z
#    x 11.430090 0.000000 -4.687880 
#    y 0.000000 2.059770 0.000000 
#    z -4.687880 0.000000 4.602720 
# 
# From -- ./inp_files/128377.got.cif
#   From: 2010.05.17/outbox.cif.g08.bks.cpg/sg15_65_cif.got.tgz:128377.got - 2010.06.03 18:47:42.
