data_PCOD9278366
_publ_section_title
;
Structure prediction by ZEFSAII (Michael W. Deem and Ramdas Pophale) SiO2 
 PCOD9278366
Probable space group: C 2/C
;
_chemical_formula_sum "Si O2"
_cell_formula_units_Z 44
_cell_length_a 8.398128
_cell_length_b 12.424789
_cell_length_c 22.241327
_cell_angle_alpha 90.000000
_cell_angle_beta 121.095217
_cell_angle_gamma 90.000000
_cell_volume 1987.299508
_symmetry_space_group_name_H-M "C 2/C"
_symmetry_group_IT_number 15
_symmetry_cell_setting 'monoclinic'
loop_
_space_group_symop_operation_xyz
x,y,z
-x,y,1/2-z
-x,-y,-z
x,-y,1/2+z
1/2+x,1/2+y,z
1/2-x,1/2+y,1/2-z
1/2-x,1/2-y,-z
1/2+x,1/2-y,1/2+z
loop_
_atom_site_type_symbol
_atom_site_label
_atom_site_fract_x
_atom_site_fract_y
_atom_site_fract_z
Si Si1 0.453788 0.265328 0.064541
Si Si2 0.500000 0.755742 0.250000
Si Si3 0.925179 0.064345 0.145850
Si Si4 0.386184 0.633704 0.788010
Si Si5 0.191127 0.869271 0.009396
Si Si6 0.470054 0.984671 0.923270
O O1 0.486660 0.318248 0.134337
O O2 0.519058 0.142506 0.084055
O O3 0.250000 0.250000 0.000000
O O4 0.552980 0.343446 0.036203
O O5 0.434660 0.677394 0.182720
O O6 0.322365 0.821971 0.240839
O O7 0.897434 0.079715 0.068610
O O8 0.745094 0.995172 0.133225
O O9 0.103403 0.994859 0.199054
O O10 0.500000 0.662024 0.750000
O O11 0.250000 0.750000 0.000000
O O12 0.364795 0.939769 0.068289
O O13 0.500000 0.000000 0.000000
#
# Coordination Sequence:
#
# PCOD9278366 Si02
#       6
#     8   4   8   8   8   8
#     4  12  25  44  71 117 148 190 259 314 384 460
#     4  12  26  56  74 106 156 202 266 304 384 466
#     4  11  24  48  76 111 147 200 255 313 382 463
#     4  12  29  51  78 109 156 209 252 321 383 463
#     4  11  22  42  77 110 147 196 237 321 391 439
#     4  10  20  42  72 108 152 185 239 316 382 445
#
# _framework density 22.140599000000002
#
# number of rings (size 3 to 8) (size 9 to 14) (size 15 to 20)
#    0.000    0.727    6.364    2.182    2.545    4.364 
#    1.636    0.000    0.000    0.000    0.000    0.000 
#    0.000    0.000    0.000    0.000    0.000    0.000 
#
# Total GULP energy -122823.078305 kJ/mol
# GULP energy per Si atom -5582.867196 kJ/mol
# Density = 2.209021 g / cm^3
# Si number density = 22.140599 Si / 1000 Ang^3
#
#
#
# Elastic Constant Matrix: (Units=GPa)
#
#
# Indices 1 2 3 4 5 6 
#
# 1 182.6025 85.0099 83.9234 0.0000 4.5065 0.0000
# 2 85.0099 105.2755 31.5425 0.0000 8.7661 0.0000
# 3 83.9234 31.5425 122.2819 0.0000 -7.2513 0.0000
# 4 0.0000 0.0000 0.0000 33.5202 0.0000 16.5854
# 5 4.5065 8.7661 -7.2513 0.0000 47.1392 0.0000
# 6 0.0000 0.0000 0.0000 16.5854 0.0000 53.1763
#
#
#
# Elastic Compliance Matrix: (Units=1/GPa)
#
#
# Indices 1 2 3 4 5 6 
#
# 1 0.011971 -0.007735 -0.006260 0.000000 -0.000669 0.000000
# 2 -0.007735 0.015556 0.001179 0.000000 -0.001972 0.000000
# 3 -0.006260 0.001179 0.012305 0.000000 0.002272 0.000000
# 4 0.000000 0.000000 0.000000 0.035277 0.000000 -0.011003
# 5 -0.000669 -0.001972 0.002272 0.000000 0.021994 0.000000
# 6 0.000000 0.000000 0.000000 -0.011003 0.000000 0.022237
#
#
# Mechanical properties :
#
#
# Convention : Reuss Voigt Hill
#
# Bulk Modulus (GPa) = 70.42589 90.12351 80.27470
# Shear Modulus (GPa) = 33.39876 40.74607 37.07241
#
# Velocity S-wave (km/s) = 3.88814 4.29456 4.09639
# Velocity P-wave (km/s) = 7.21348 8.08607 7.66221
#
# Compressibility (1/GPa) = 0.01419932
#
# Stress axis : x y z
#
# Youngs Moduli (GPa) = 83.53306 64.28361 81.26824
#
# Poissons Ratio (x) = 0.49726 0.50877
# Poissons Ratio (y) = 0.64616 -0.09584
# Poissons Ratio (z) = 0.52295 -0.07581
#
# Static dielectric constant tensor:
#      x y z
#    x 1.836280 0.000000 -0.118550 
#    y 0.000000 2.034140 0.000000 
#    z -0.118550 0.000000 1.517930 
# 
# From -- ./inp_files/263615.got.cif
#   From: 2010.05.17/outbox.cif.g08.bks.cpg/sg15_132_cif.got.tgz:263615.got - 2010.06.03 18:47:42.
