data_PCOD9278792
_publ_section_title
;
Structure prediction by ZEFSAII (Michael W. Deem and Ramdas Pophale) SiO2 
 PCOD9278792
Probable space group: C 2/C
;
_chemical_formula_sum "Si O2"
_cell_formula_units_Z 44
_cell_length_a 27.012377
_cell_length_b 12.151407
_cell_length_c 7.612615
_cell_angle_alpha 90.000000
_cell_angle_beta 135.019666
_cell_angle_gamma 90.000000
_cell_volume 1766.278251
_symmetry_space_group_name_H-M "C 2/C"
_symmetry_group_IT_number 15
_symmetry_cell_setting 'monoclinic'
loop_
_space_group_symop_operation_xyz
x,y,z
-x,y,1/2-z
-x,-y,-z
x,-y,1/2+z
1/2+x,1/2+y,z
1/2-x,1/2+y,1/2-z
1/2-x,1/2-y,-z
1/2+x,1/2-y,1/2+z
loop_
_atom_site_type_symbol
_atom_site_label
_atom_site_fract_x
_atom_site_fract_y
_atom_site_fract_z
Si Si1 0.615066 0.540720 0.248461
Si Si2 0.735557 0.122077 0.974898
Si Si3 0.907505 0.374246 0.528422
Si Si4 0.500000 0.317033 0.250000
Si Si5 0.113867 0.609735 0.918927
Si Si6 0.418588 0.672444 0.992768
O O1 0.692264 0.559035 0.363712
O O2 0.616501 0.600886 0.438678
O O3 0.552652 0.604546 0.989521
O O4 0.595824 0.411784 0.202634
O O5 0.750000 0.250000 0.000000
O O6 0.676424 0.115122 0.674493
O O7 0.693675 0.095097 0.049456
O O8 0.947747 0.272736 0.714610
O O9 0.925278 0.498083 0.626740
O O10 0.919589 0.352436 0.350189
O O11 0.109927 0.703602 0.056235
O O12 0.500000 0.677997 0.250000
#
# Coordination Sequence:
#
# PCOD9278792 Si02
#       6
#     8   8   8   4   8   8
#     4  12  25  44  72  96 137 177 224 275 339 393
#     4  10  20  46  70  94 137 175 219 279 330 395
#     4  10  24  42  70  97 141 167 233 263 345 383
#     4  12  22  42  70 100 128 184 214 280 326 400
#     4  10  24  45  68 102 130 184 216 283 328 402
#     4  12  26  44  65 101 139 175 222 279 334 404
#
# _framework density 24.911137
#
# number of rings (size 3 to 8) (size 9 to 14) (size 15 to 20)
#    1.091    0.000    6.364    0.545    3.818    2.182 
#    0.000    0.909    0.000    0.000    0.000    0.000 
#    0.000    0.000    0.000    0.000    0.000    0.000 
#
# Total GULP energy -122719.775101 kJ/mol
# GULP energy per Si atom -5578.171596 kJ/mol
# Density = 2.485444 g / cm^3
# Si number density = 24.911137 Si / 1000 Ang^3
#
#
#
# Elastic Constant Matrix: (Units=GPa)
#
#
# Indices 1 2 3 4 5 6 
#
# 1 117.4753 48.1895 27.2709 0.0000 33.9007 0.0000
# 2 48.1895 192.3826 25.4830 0.0000 20.8868 0.0000
# 3 27.2709 25.4830 80.8722 0.0000 41.8768 0.0000
# 4 0.0000 0.0000 0.0000 -22.0128 0.0000 -78.1252
# 5 33.9007 20.8868 41.8768 0.0000 46.2821 0.0000
# 6 0.0000 0.0000 0.0000 -78.1252 0.0000 -79.2718
#
#
#
# Elastic Compliance Matrix: (Units=1/GPa)
#
#
# Indices 1 2 3 4 5 6 
#
# 1 0.011596 -0.002129 0.001244 0.000000 -0.008658 0.000000
# 2 -0.002129 0.005887 -0.001070 0.000000 -0.000129 0.000000
# 3 0.001244 -0.001070 0.023528 0.000000 -0.021717 0.000000
# 4 0.000000 0.000000 0.000000 0.018188 0.000000 -0.017925
# 5 -0.008658 -0.000129 -0.021717 0.000000 0.047657 0.000000
# 6 0.000000 0.000000 0.000000 -0.017925 0.000000 0.005050
#
#
# Mechanical properties :
#
#
# Convention : Reuss Voigt Hill
#
# Bulk Modulus (GPa) = 26.95404 65.84631 46.40017
# Shear Modulus (GPa) = 39.00644 8.31861 23.66253
#
# Velocity S-wave (km/s) = 3.96134 1.82936 3.08535
# Velocity P-wave (km/s) = 5.63618 5.56345 5.59993
#
# Compressibility (1/GPa) = 0.03710019
#
# Stress axis : x y z
#
# Youngs Moduli (GPa) = 86.23886 169.86300 42.50181
#
# Poissons Ratio (x) = 0.36170 -0.05288
# Poissons Ratio (y) = 0.18363 0.04550
# Poissons Ratio (z) = -0.10730 0.18183
#
# Static dielectric constant tensor:
#      x y z
#    x 2.325090 0.000000 0.060340 
#    y 0.000000 2.210690 0.000000 
#    z 0.060340 0.000000 2.223810 
# 
# From -- ./inp_files/65663.got.cif
#   From: 2010.05.17/outbox.cif.g08.bks.cpg/sg15_33_cif.got.tgz:65663.got - 2010.06.03 18:47:42.
