data_PCOD9278504
_publ_section_title
;
Structure prediction by ZEFSAII (Michael W. Deem and Ramdas Pophale) SiO2 
 PCOD9278504
Probable space group: C 2/C
;
_chemical_formula_sum "Si O2"
_cell_formula_units_Z 48
_cell_length_a 7.868982
_cell_length_b 14.863695
_cell_length_c 27.219817
_cell_angle_alpha 90.000000
_cell_angle_beta 135.017683
_cell_angle_gamma 90.000000
_cell_volume 2250.512679
_symmetry_space_group_name_H-M "C 2/C"
_symmetry_group_IT_number 15
_symmetry_cell_setting 'monoclinic'
loop_
_space_group_symop_operation_xyz
x,y,z
-x,y,1/2-z
-x,-y,-z
x,-y,1/2+z
1/2+x,1/2+y,z
1/2-x,1/2+y,1/2-z
1/2-x,1/2-y,-z
1/2+x,1/2-y,1/2+z
loop_
_atom_site_type_symbol
_atom_site_label
_atom_site_fract_x
_atom_site_fract_y
_atom_site_fract_z
Si Si1 0.474141 0.761656 0.461439
Si Si2 0.279235 0.798682 0.317381
Si Si3 0.598710 0.563617 0.062983
Si Si4 0.021167 0.128115 0.199259
Si Si5 0.835699 0.420071 0.947665
Si Si6 0.565909 0.022706 0.708399
O O1 0.333181 0.802930 0.386354
O O2 0.366799 0.664328 0.450523
O O3 0.505204 0.831003 0.511731
O O4 0.750000 0.750000 0.500000
O O5 0.416801 0.711744 0.323474
O O6 0.356205 0.890969 0.307130
O O7 0.000000 0.783302 0.250000
O O8 0.397299 0.574243 0.064225
O O9 0.837234 0.523526 0.135854
O O10 0.500000 0.500000 0.000000
O O11 0.000000 0.163612 0.250000
O O12 0.777542 0.081737 0.129527
O O13 0.226165 0.051949 0.242779
O O14 0.000000 0.500000 0.000000
O O15 0.500000 0.052823 0.750000
#
# Coordination Sequence:
#
# PCOD9278504 Si02
#       6
#     8   8   8   8   8   8
#     4  10  20  43  68  94 132 175 221 277 345 404
#     4  12  25  44  73  99 136 185 232 288 351 413
#     4  11  23  42  72  98 133 180 225 284 349 410
#     4  12  26  45  67 101 145 185 228 291 341 416
#     4  11  25  44  68 102 137 179 233 285 345 419
#     4  12  24  44  68 101 138 179 236 284 347 414
#
# _framework density 21.328472999999999
#
# number of rings (size 3 to 8) (size 9 to 14) (size 15 to 20)
#    0.000    0.667    5.000    4.500    7.000    0.000 
#    0.000    0.833    0.000    0.000    0.000    0.000 
#    0.000    0.000    0.000    0.000    0.000    0.000 
#
# Total GULP energy -134249.322752 kJ/mol
# GULP energy per Si atom -5593.721781 kJ/mol
# Density = 2.127993 g / cm^3
# Si number density = 21.328473 Si / 1000 Ang^3
#
#
#
# Elastic Constant Matrix: (Units=GPa)
#
#
# Indices 1 2 3 4 5 6 
#
# 1 27.6886 9.3807 17.8308 0.0000 -4.1256 0.0000
# 2 9.3807 130.0045 45.2569 0.0000 3.0696 0.0000
# 3 17.8308 45.2569 192.6384 0.0000 4.3471 0.0000
# 4 0.0000 0.0000 0.0000 41.1731 0.0000 4.2290
# 5 -4.1256 3.0696 4.3471 0.0000 29.6476 0.0000
# 6 0.0000 0.0000 0.0000 4.2290 0.0000 22.3069
#
#
#
# Elastic Compliance Matrix: (Units=1/GPa)
#
#
# Indices 1 2 3 4 5 6 
#
# 1 0.039856 -0.001840 -0.003397 0.000000 0.006235 0.000000
# 2 -0.001840 0.008472 -0.001800 0.000000 -0.000869 0.000000
# 3 -0.003397 -0.001800 0.005955 0.000000 -0.001159 0.000000
# 4 0.000000 0.000000 0.000000 0.024770 0.000000 -0.004696
# 5 0.006235 -0.000869 -0.001159 0.000000 0.034857 0.000000
# 6 0.000000 0.000000 0.000000 -0.004696 0.000000 0.045719
#
#
# Mechanical properties :
#
#
# Convention : Reuss Voigt Hill
#
# Bulk Modulus (GPa) = 24.87157 55.02983 39.95070
# Shear Modulus (GPa) = 26.72245 37.14972 31.93609
#
# Velocity S-wave (km/s) = 3.54347 4.17800 3.87375
# Velocity P-wave (km/s) = 5.33180 7.00938 6.22734
#
# Compressibility (1/GPa) = 0.04020656
#
# Stress axis : x y z
#
# Youngs Moduli (GPa) = 25.09012 118.03423 167.93506
#
# Poissons Ratio (x) = 0.21723 0.57056
# Poissons Ratio (y) = 0.04618 0.30235
# Poissons Ratio (z) = 0.08524 0.21251
#
# Static dielectric constant tensor:
#      x y z
#    x 1.796880 0.000000 -0.015370 
#    y 0.000000 1.783710 0.000000 
#    z -0.015370 0.000000 1.745010 
# 
# From -- ./inp_files/289036.got.cif
#   From: 2010.05.17/outbox.cif.g08.bks.cpg/sg15_145_cif.got.tgz:289036.got - 2010.06.03 18:47:42.
