data_PCOD9278916
_publ_section_title
;
Structure prediction by ZEFSAII (Michael W. Deem and Ramdas Pophale) SiO2 
 PCOD9278916
Probable space group: C 2/C
;
_chemical_formula_sum "Si O2"
_cell_formula_units_Z 64
_cell_length_a 20.995613
_cell_length_b 30.162228
_cell_length_c 17.840424
_cell_angle_alpha 90.000000
_cell_angle_beta 159.855323
_cell_angle_gamma 90.000000
_cell_volume 3890.899612
_symmetry_space_group_name_H-M "C 2/C"
_symmetry_group_IT_number 15
_symmetry_cell_setting 'monoclinic'
loop_
_space_group_symop_operation_xyz
x,y,z
-x,y,1/2-z
-x,-y,-z
x,-y,1/2+z
1/2+x,1/2+y,z
1/2-x,1/2+y,1/2-z
1/2-x,1/2-y,-z
1/2+x,1/2-y,1/2+z
loop_
_atom_site_type_symbol
_atom_site_label
_atom_site_fract_x
_atom_site_fract_y
_atom_site_fract_z
Si Si1 0.697879 0.992059 0.924836
Si Si2 0.327648 0.518677 0.221034
Si Si3 0.746251 0.686138 0.116498
Si Si4 0.917378 0.853143 0.321569
Si Si5 0.096832 0.716717 0.437091
Si Si6 0.215618 0.392259 0.960609
Si Si7 0.672020 0.432912 0.176440
Si Si8 0.538433 0.036875 0.606071
O O1 0.500000 0.991293 0.750000
O O2 0.668842 0.017699 0.815684
O O3 0.747271 0.941157 0.963233
O O4 0.826167 0.013799 0.129878
O O5 0.298312 0.468813 0.223009
O O6 0.511227 0.542207 0.452886
O O7 0.154587 0.545823 0.065273
O O8 0.749851 0.647045 0.059383
O O9 0.956012 0.703331 0.347794
O O10 0.626557 0.664528 0.050152
O O11 0.639051 0.731310 0.977556
O O12 0.881901 0.885254 0.351669
O O13 0.779366 0.811667 0.155823
O O14 0.856927 0.883596 0.184204
O O15 0.000000 0.705632 0.250000
O O16 0.000000 0.390941 0.750000
O O17 0.850514 0.427747 0.320348
O O18 0.500000 0.000000 0.500000
#
# Coordination Sequence:
#
# PCOD9278916 Si02
#       8
#     8   8   8   8   8   8   8   8
#     4   9  18  33  54  73  99 138 177 215 250 297
#     4   9  18  35  50  68 101 132 173 215 254 298
#     4  12  23  34  51  68  96 134 171 219 265 301
#     4  12  22  34  49  71  97 130 174 220 253 306
#     4  12  22  35  50  68  97 131 171 218 268 304
#     4  11  20  32  49  73  96 128 178 222 246 288
#     4  10  21  33  48  72  98 132 171 218 258 292
#     4   9  19  33  51  69  99 135 164 208 264 298
#
# _framework density 16.448637999999999
#
# number of rings (size 3 to 8) (size 9 to 14) (size 15 to 20)
#    0.000    1.500    5.000    1.500    1.750    4.500 
#    2.250    0.000    0.000    0.000    0.000    0.000 
#    0.000    0.000    0.000    4.500    1.000    0.500 
#
# Total GULP energy -178268.293098 kJ/mol
# GULP energy per Si atom -5570.884159 kJ/mol
# Density = 1.641120 g / cm^3
# Si number density = 16.448638 Si / 1000 Ang^3
#
#
#
# Elastic Constant Matrix: (Units=GPa)
#
#
# Indices 1 2 3 4 5 6 
#
# 1 69.3341 25.0579 18.5747 0.0000 6.3746 0.0000
# 2 25.0579 45.4470 -5.2535 0.0000 10.7008 0.0000
# 3 18.5747 -5.2535 37.1277 -0.0002 9.1361 0.0000
# 4 0.0000 0.0000 -0.0002 7.4331 -0.0001 9.0889
# 5 6.3746 10.7008 9.1361 -0.0001 32.8852 0.0001
# 6 0.0000 0.0000 0.0000 9.0889 0.0001 10.1225
#
#
#
# Elastic Compliance Matrix: (Units=1/GPa)
#
#
# Indices 1 2 3 4 5 6 
#
# 1 0.023957 -0.016156 -0.015481 0.000002 0.004914 -0.000002
# 2 -0.016156 0.035890 0.016384 0.000001 -0.013099 0.000000
# 3 -0.015481 0.016384 0.040328 -0.000008 -0.013534 0.000007
# 4 0.000002 0.000001 -0.000008 -1.373977 -0.000004 1.233684
# 5 0.004914 -0.013099 -0.013534 -0.000004 0.037479 0.000003
# 6 -0.000002 0.000000 0.000007 1.233684 0.000003 -1.008926
#
#
# Mechanical properties :
#
#
# Convention : Reuss Voigt Hill
#
# Bulk Modulus (GPa) = 14.35346 25.40741 19.88043
# Shear Modulus (GPa) = -2.28152 17.65682 7.68765
#
# Velocity S-wave (km/s) = -1.17901 3.27991 2.16423
# Velocity P-wave (km/s) = 2.62521 5.46112 4.28460
#
# Compressibility (1/GPa) = 0.06966961
#
# Stress axis : x y z
#
# Youngs Moduli (GPa) = 41.74091 27.86327 24.79678
#
# Poissons Ratio (x) = 0.45015 0.38388
# Poissons Ratio (y) = 0.67436 -0.40627
# Poissons Ratio (z) = 0.64619 -0.45652
#
# Static dielectric constant tensor:
#      x y z
#    x 1.600320 0.000000 0.055010 
#    y 0.000000 1.552790 0.000000 
#    z 0.055010 0.000000 1.615190 
# 
# From -- ./inp_files/217200.got.cif
#   From: 2010.05.17/outbox.cif.g08.bks.cpg/sg15_109_cif.got.tgz:217200.got - 2010.06.03 18:47:42.
