data_PCOD9278061
_publ_section_title
;
Structure prediction by ZEFSAII (Michael W. Deem and Ramdas Pophale) SiO2 
 PCOD9278061
Probable space group: C 2/C
;
_chemical_formula_sum "Si O2"
_cell_formula_units_Z 48
_cell_length_a 25.982247
_cell_length_b 13.926350
_cell_length_c 9.671376
_cell_angle_alpha 90.000000
_cell_angle_beta 31.069467
_cell_angle_gamma 90.000000
_cell_volume 1805.995828
_symmetry_space_group_name_H-M "C 2/C"
_symmetry_group_IT_number 15
_symmetry_cell_setting 'monoclinic'
loop_
_space_group_symop_operation_xyz
x,y,z
-x,y,1/2-z
-x,-y,-z
x,-y,1/2+z
1/2+x,1/2+y,z
1/2-x,1/2+y,1/2-z
1/2-x,1/2-y,-z
1/2+x,1/2-y,1/2+z
loop_
_atom_site_type_symbol
_atom_site_label
_atom_site_fract_x
_atom_site_fract_y
_atom_site_fract_z
Si Si1 0.644696 0.995040 0.078476
Si Si2 0.155884 0.892910 0.987620
Si Si3 0.382043 0.297142 0.716394
Si Si4 0.191125 0.602899 0.731777
Si Si5 0.000000 0.031023 0.250000
Si Si6 0.500000 0.865555 0.250000
Si Si7 0.092736 0.800876 0.382462
O O1 0.744209 0.949024 0.780924
O O2 0.640429 0.092977 0.998278
O O3 0.666492 0.989291 0.191363
O O4 0.549041 0.933293 0.252888
O O5 0.171234 0.823509 0.082602
O O6 0.062176 0.966212 0.214935
O O7 0.124514 0.834885 0.924025
O O8 0.347934 0.187888 0.777543
O O9 0.488905 0.295963 0.537307
O O10 0.306038 0.364546 0.976453
O O11 0.081277 0.101510 0.995784
O O12 0.415168 0.792962 0.504537
#
# Coordination Sequence:
#
# PCOD9278061 Si02
#       7
#     8   8   8   8   4   4   8
#     4  11  25  44  65  96 128 172 224 269 315 387
#     4  11  23  38  65  99 126 163 220 261 328 395
#     4  10  20  42  65  93 128 170 206 267 324 387
#     4  10  23  42  69  92 132 170 219 263 323 379
#     4  11  22  34  65  96 132 164 199 270 334 389
#     4  11  26  46  61  88 134 176 219 268 318 369
#     4  11  22  40  63  93 133 165 209 270 329 385
#
# _framework density 26.578133999999999
#
# number of rings (size 3 to 8) (size 9 to 14) (size 15 to 20)
#    0.000    1.333    3.333    1.500    4.667    2.667 
#    3.000    0.000    0.000    0.000    0.000    0.000 
#    0.000    0.000    0.000    0.000    0.000    0.000 
#
# Total GULP energy -134307.758770 kJ/mol
# GULP energy per Si atom -5596.156615 kJ/mol
# Density = 2.651764 g / cm^3
# Si number density = 26.578134 Si / 1000 Ang^3
#
#
#
# Elastic Constant Matrix: (Units=GPa)
#
#
# Indices 1 2 3 4 5 6 
#
# 1 83.5892 15.3811 -4.8547 0.0000 6.3786 0.0000
# 2 15.3811 78.1933 15.8873 0.0000 8.7007 0.0000
# 3 -4.8547 15.8873 52.2711 0.0000 -11.3834 0.0000
# 4 0.0000 0.0000 0.0000 15.8023 0.0000 5.1494
# 5 6.3786 8.7007 -11.3834 0.0000 32.0098 0.0000
# 6 0.0000 0.0000 0.0000 5.1494 0.0000 38.6180
#
#
#
# Elastic Compliance Matrix: (Units=1/GPa)
#
#
# Indices 1 2 3 4 5 6 
#
# 1 0.012653 -0.002715 0.001747 0.000000 -0.001162 0.000000
# 2 -0.002715 0.015211 -0.006133 0.000000 -0.005775 0.000000
# 3 0.001747 -0.006133 0.023245 0.000000 0.009585 0.000000
# 4 0.000000 0.000000 0.000000 0.066157 0.000000 -0.008821
# 5 -0.001162 -0.005775 0.009585 0.000000 0.036450 0.000000
# 6 0.000000 0.000000 0.000000 -0.008821 0.000000 0.027071
#
#
# Mechanical properties :
#
#
# Convention : Reuss Voigt Hill
#
# Bulk Modulus (GPa) = 27.09433 29.65346 28.37390
# Shear Modulus (GPa) = 24.12067 29.79535 26.95801
#
# Velocity S-wave (km/s) = 3.01581 3.35184 3.18825
# Velocity P-wave (km/s) = 4.72685 5.11479 4.92464
#
# Compressibility (1/GPa) = 0.03690809
#
# Stress axis : x y z
#
# Youngs Moduli (GPa) = 79.03312 65.73981 43.02032
#
# Poissons Ratio (x) = 0.17846 -0.07516
# Poissons Ratio (y) = 0.21454 0.26385
# Poissons Ratio (z) = -0.13808 0.40319
#
# Static dielectric constant tensor:
#      x y z
#    x 2.042070 0.000000 0.062870 
#    y 0.000000 2.259990 0.000000 
#    z 0.062870 0.000000 2.157720 
# 
# From -- ./inp_files/96356.got.cif
#   From: 2010.05.17/outbox.cif.g08.bks.cpg/sg15_49_cif.got.tgz:96356.got - 2010.06.03 18:47:42.
