data_PCOD9278292
_publ_section_title
;
Structure prediction by ZEFSAII (Michael W. Deem and Ramdas Pophale) SiO2 
 PCOD9278292
Probable space group: C 2/C
;
_chemical_formula_sum "Si O2"
_cell_formula_units_Z 36
_cell_length_a 11.445922
_cell_length_b 8.825630
_cell_length_c 19.957659
_cell_angle_alpha 90.000000
_cell_angle_beta 142.289979
_cell_angle_gamma 90.000000
_cell_volume 1233.161683
_symmetry_space_group_name_H-M "C 2/C"
_symmetry_group_IT_number 15
_symmetry_cell_setting 'monoclinic'
loop_
_space_group_symop_operation_xyz
x,y,z
-x,y,1/2-z
-x,-y,-z
x,-y,1/2+z
1/2+x,1/2+y,z
1/2-x,1/2+y,1/2-z
1/2-x,1/2-y,-z
1/2+x,1/2-y,1/2+z
loop_
_atom_site_type_symbol
_atom_site_label
_atom_site_fract_x
_atom_site_fract_y
_atom_site_fract_z
Si Si1 0.880342 0.410978 0.053194
Si Si2 0.000000 0.266182 0.250000
Si Si3 0.901911 0.159212 0.433738
Si Si4 0.962859 0.304695 0.656786
Si Si5 0.930755 0.034478 0.315285
O O1 0.912630 0.353456 0.146126
O O2 0.980130 0.300918 0.044366
O O3 0.974868 0.573787 0.103488
O O4 0.655998 0.429662 0.934614
O O5 0.865677 0.141992 0.225386
O O6 0.811517 0.091772 0.324081
O O7 0.000000 0.000000 0.500000
O O8 0.731817 0.287521 0.566704
O O9 0.000000 0.356167 0.750000
O O10 0.068286 0.143791 0.695946
#
# Coordination Sequence:
#
# PCOD9278292 Si02
#       5
#     8   4   8   8   8
#     4  11  24  45  73 104 143 189 236 300 363 429
#     4  10  20  42  70 100 142 184 230 300 352 420
#     4  11  25  44  73 106 135 192 240 291 370 434
#     4  12  26  47  69 106 149 186 243 305 353 437
#     4  11  24  48  72 105 145 189 244 299 361 437
#
# _framework density 29.193252000000001
#
# number of rings (size 3 to 8) (size 9 to 14) (size 15 to 20)
#    0.000    0.889    4.444    3.333    0.000    2.667 
#    0.000    0.000    0.000    0.000    0.000    0.000 
#    0.000    0.000    0.000    0.000    0.000    0.000 
#
# Total GULP energy -100543.588889 kJ/mol
# GULP energy per Si atom -5585.754938 kJ/mol
# Density = 2.912681 g / cm^3
# Si number density = 29.193252 Si / 1000 Ang^3
#
#
#
# Elastic Constant Matrix: (Units=GPa)
#
#
# Indices 1 2 3 4 5 6 
#
# 1 162.0542 51.8495 12.4940 0.0000 -18.7671 0.0000
# 2 51.8495 181.2172 56.1341 0.0000 -12.6067 0.0000
# 3 12.4940 56.1341 123.1674 0.0001 -9.9800 0.0000
# 4 0.0000 0.0000 0.0001 54.9961 0.0000 -24.2630
# 5 -18.7671 -12.6067 -9.9800 0.0000 49.2490 0.0000
# 6 0.0000 0.0000 0.0000 -24.2630 0.0000 48.6651
#
#
#
# Elastic Compliance Matrix: (Units=1/GPa)
#
#
# Indices 1 2 3 4 5 6 
#
# 1 0.007033 -0.001969 0.000366 0.000000 0.002250 0.000000
# 2 -0.001969 0.007033 -0.002969 0.000000 0.000448 0.000000
# 3 0.000366 -0.002969 0.009541 0.000000 0.001313 0.000000
# 4 0.000000 0.000000 0.000000 0.023310 0.000000 0.011622
# 5 0.002250 0.000448 0.001313 0.000000 0.021543 0.000000
# 6 0.000000 0.000000 0.000000 0.011622 0.000000 0.026343
#
#
# Mechanical properties :
#
#
# Convention : Reuss Voigt Hill
#
# Bulk Modulus (GPa) = 69.14039 78.59931 73.86985
# Shear Modulus (GPa) = 45.96904 53.64611 49.80758
#
# Velocity S-wave (km/s) = 3.97249 4.29140 4.13502
# Velocity P-wave (km/s) = 6.69148 7.17893 6.93949
#
# Compressibility (1/GPa) = 0.01446333
#
# Stress axis : x y z
#
# Youngs Moduli (GPa) = 142.18279 142.19583 104.80618
#
# Poissons Ratio (x) = 0.28002 -0.03840
# Poissons Ratio (y) = 0.28000 0.31117
# Poissons Ratio (z) = -0.05210 0.42219
#
# Static dielectric constant tensor:
#      x y z
#    x 2.665000 0.000000 0.134610 
#    y 0.000000 2.492930 0.000000 
#    z 0.134610 0.000000 2.657050 
# 
# From -- ./inp_files/267428.got.cif
#   From: 2010.05.17/outbox.cif.g08.bks.cpg/sg15_134_cif.got.tgz:267428.got - 2010.06.03 18:47:42.
