data_PCOD9278988
_publ_section_title
;
Structure prediction by ZEFSAII (Michael W. Deem and Ramdas Pophale) SiO2 
 PCOD9278988
Probable space group: C 2/C
;
_chemical_formula_sum "Si O2"
_cell_formula_units_Z 48
_cell_length_a 27.889707
_cell_length_b 12.777590
_cell_length_c 14.038525
_cell_angle_alpha 90.000000
_cell_angle_beta 29.065432
_cell_angle_gamma 90.000000
_cell_volume 2430.407811
_symmetry_space_group_name_H-M "C 2/C"
_symmetry_group_IT_number 15
_symmetry_cell_setting 'monoclinic'
loop_
_space_group_symop_operation_xyz
x,y,z
-x,y,1/2-z
-x,-y,-z
x,-y,1/2+z
1/2+x,1/2+y,z
1/2-x,1/2+y,1/2-z
1/2-x,1/2-y,-z
1/2+x,1/2-y,1/2+z
loop_
_atom_site_type_symbol
_atom_site_label
_atom_site_fract_x
_atom_site_fract_y
_atom_site_fract_z
Si Si1 0.459148 0.535948 0.228169
Si Si2 0.652229 0.252563 0.546691
Si Si3 0.864296 0.996785 0.704830
Si Si4 0.354470 0.979383 0.495755
Si Si5 0.018649 0.440789 0.566079
Si Si6 0.875018 0.249986 0.182569
O O1 0.500000 0.475505 0.250000
O O2 0.408520 0.640970 0.356830
O O3 0.382057 0.484407 0.287053
O O4 0.554953 0.558833 0.996327
O O5 0.767240 0.273738 0.326745
O O6 0.638190 0.223527 0.682741
O O7 0.626269 0.145875 0.537980
O O8 0.890665 0.873581 0.647187
O O9 0.754903 0.004776 0.852610
O O10 0.383222 0.018994 0.550126
O O11 0.429300 0.033437 0.291732
O O12 0.039136 0.319479 0.509875
O O13 0.000000 0.500000 0.500000
#
# Coordination Sequence:
#
# PCOD9278988 Si02
#       6
#     8   8   8   8   8   8
#     4  10  21  33  62  87 107 146 188 237 280 328
#     4   9  18  35  60  86 107 144 198 231 271 335
#     4   9  21  41  55  82 118 143 190 234 280 341
#     4  10  22  37  55  85 114 148 186 236 278 341
#     4  11  22  34  58  88 115 149 191 237 289 334
#     4   9  18  36  60  79 115 154 178 232 290 335
#
# _framework density 19.749773000000001
#
# number of rings (size 3 to 8) (size 9 to 14) (size 15 to 20)
#    0.000    2.333    1.667    1.000    4.667    0.000 
#    3.000    0.000    0.000   11.000    0.000    0.000 
#    0.000    0.000    0.000    0.000    0.000    0.000 
#
# Total GULP energy -133740.227461 kJ/mol
# GULP energy per Si atom -5572.509478 kJ/mol
# Density = 1.970482 g / cm^3
# Si number density = 19.749773 Si / 1000 Ang^3
#
#
#
# Elastic Constant Matrix: (Units=GPa)
#
#
# Indices 1 2 3 4 5 6 
#
# 1 153.4097 6.3596 25.4981 0.0000 -12.0232 0.0000
# 2 6.3596 44.6098 19.6332 0.0000 -3.5623 0.0000
# 3 25.4981 19.6332 56.7523 0.0000 -16.8102 0.0000
# 4 0.0000 0.0000 0.0000 33.6397 0.0000 -2.3188
# 5 -12.0232 -3.5623 -16.8102 0.0000 30.4619 0.0000
# 6 0.0000 0.0000 0.0000 -2.3188 0.0000 14.5668
#
#
#
# Elastic Compliance Matrix: (Units=1/GPa)
#
#
# Indices 1 2 3 4 5 6 
#
# 1 0.007089 0.000389 -0.002962 0.000000 0.001209 0.000000
# 2 0.000389 0.026604 -0.010055 0.000000 -0.002284 0.000000
# 3 -0.002962 -0.010055 0.025982 0.000000 0.011993 0.000000
# 4 0.000000 0.000000 0.000000 0.030057 0.000000 0.004785
# 5 0.001209 -0.002284 0.011993 0.000000 0.039656 0.000000
# 6 0.000000 0.000000 0.000000 0.004785 0.000000 0.069411
#
#
# Mechanical properties :
#
#
# Convention : Reuss Voigt Hill
#
# Bulk Modulus (GPa) = 29.05223 39.75038 34.40131
# Shear Modulus (GPa) = 21.22895 29.28574 25.25735
#
# Velocity S-wave (km/s) = 3.28212 3.85494 3.58001
# Velocity P-wave (km/s) = 5.39492 6.32335 5.87750
#
# Compressibility (1/GPa) = 0.03442077
#
# Stress axis : x y z
#
# Youngs Moduli (GPa) = 141.05597 37.58836 38.48821
#
# Poissons Ratio (x) = -0.01464 0.11399
# Poissons Ratio (y) = -0.05492 0.38700
# Poissons Ratio (z) = 0.41776 0.37795
#
# Static dielectric constant tensor:
#      x y z
#    x 1.771810 0.000000 -0.020470 
#    y 0.000000 1.698340 0.000000 
#    z -0.020470 0.000000 1.689310 
# 
# From -- ./inp_files/151960.got.cif
#   From: 2010.05.17/outbox.cif.g08.bks.cpg/sg15_76_cif.got.tgz:151960.got - 2010.06.03 18:47:42.
