data_PCOD9278569
_publ_section_title
;
Structure prediction by ZEFSAII (Michael W. Deem and Ramdas Pophale) SiO2 
 PCOD9278569
Probable space group: C 2/C
;
_chemical_formula_sum "Si O2"
_cell_formula_units_Z 52
_cell_length_a 11.122440
_cell_length_b 10.550622
_cell_length_c 27.239762
_cell_angle_alpha 90.000000
_cell_angle_beta 40.244512
_cell_angle_gamma 90.000000
_cell_volume 2065.133638
_symmetry_space_group_name_H-M "C 2/C"
_symmetry_group_IT_number 15
_symmetry_cell_setting 'monoclinic'
loop_
_space_group_symop_operation_xyz
x,y,z
-x,y,1/2-z
-x,-y,-z
x,-y,1/2+z
1/2+x,1/2+y,z
1/2-x,1/2+y,1/2-z
1/2-x,1/2-y,-z
1/2+x,1/2-y,1/2+z
loop_
_atom_site_type_symbol
_atom_site_label
_atom_site_fract_x
_atom_site_fract_y
_atom_site_fract_z
Si Si1 0.036539 0.278359 0.680569
Si Si2 0.836370 0.067875 0.204875
Si Si3 0.792733 0.221235 0.430777
Si Si4 0.475188 0.619734 0.908100
Si Si5 0.895544 0.620772 0.092511
Si Si6 0.500000 0.431555 0.750000
Si Si7 0.317836 0.003632 0.426679
O O1 0.837790 0.344047 0.730273
O O2 0.000000 0.252086 0.750000
O O3 0.096510 0.167391 0.623638
O O4 0.172126 0.392670 0.620276
O O5 0.902328 0.002028 0.234875
O O6 0.005944 0.157874 0.136350
O O7 0.837746 0.957254 0.164279
O O8 0.750000 0.250000 0.500000
O O9 0.638100 0.126474 0.455458
O O10 0.797302 0.365433 0.409383
O O11 0.497529 0.751644 0.928234
O O12 0.345350 0.536845 0.983739
O O13 0.678825 0.641854 0.174493
O O14 0.998499 0.518075 0.094688
#
# Coordination Sequence:
#
# PCOD9278569 Si02
#       7
#     8   8   8   8   8   4   8
#     4  11  26  44  70 107 134 181 238 297 353 426
#     4  11  24  42  68  99 137 181 236 285 357 423
#     4  11  25  45  66 103 137 185 240 290 358 440
#     4  11  24  46  69 101 142 184 229 294 362 426
#     4  10  23  42  71  94 137 187 228 292 354 424
#     4  10  20  44  60  96 134 180 224 280 346 412
#     4  11  24  48  72  99 144 187 238 292 370 427
#
# _framework density 25.179969
#
# number of rings (size 3 to 8) (size 9 to 14) (size 15 to 20)
#    0.000    1.231    4.615    1.846    5.385    3.692 
#    4.154    0.000    0.000    0.000    0.000    0.000 
#    0.000    0.000    0.000    0.000    0.000    0.000 
#
# Total GULP energy -144775.303117 kJ/mol
# GULP energy per Si atom -5568.280889 kJ/mol
# Density = 2.512266 g / cm^3
# Si number density = 25.179969 Si / 1000 Ang^3
#
#
#
# Elastic Constant Matrix: (Units=GPa)
#
#
# Indices 1 2 3 4 5 6 
#
# 1 85.0887 -14.4244 10.0704 0.0000 20.3322 0.0000
# 2 -14.4244 58.2005 -3.7093 0.0000 10.2414 0.0000
# 3 10.0704 -3.7093 99.6864 0.0000 20.4532 0.0000
# 4 0.0000 0.0000 0.0000 34.0772 0.0000 17.0638
# 5 20.3322 10.2414 20.4532 0.0000 39.8557 0.0000
# 6 0.0000 0.0000 0.0000 17.0638 0.0000 29.1740
#
#
#
# Elastic Compliance Matrix: (Units=1/GPa)
#
#
# Indices 1 2 3 4 5 6 
#
# 1 0.014787 0.005325 0.000596 0.000000 -0.009218 0.000000
# 2 0.005325 0.020210 0.002053 0.000000 -0.008963 0.000000
# 3 0.000596 0.002053 0.011421 0.000000 -0.006692 0.000000
# 4 0.000000 0.000000 0.000000 0.041500 0.000000 -0.024273
# 5 -0.009218 -0.008963 -0.006692 0.000000 0.035530 0.000000
# 6 0.000000 0.000000 0.000000 -0.024273 0.000000 0.048474
#
#
# Mechanical properties :
#
#
# Convention : Reuss Voigt Hill
#
# Bulk Modulus (GPa) = 16.03475 25.20546 20.62010
# Shear Modulus (GPa) = 28.28639 37.35731 32.82185
#
# Velocity S-wave (km/s) = 3.35531 3.85595 3.61431
# Velocity P-wave (km/s) = 4.62522 5.46409 5.06206
#
# Compressibility (1/GPa) = 0.06236457
#
# Stress axis : x y z
#
# Youngs Moduli (GPa) = 67.62614 49.48100 87.55965
#
# Poissons Ratio (x) = -0.26348 -0.05214
# Poissons Ratio (y) = -0.36010 -0.17977
# Poissons Ratio (z) = -0.04027 -0.10159
#
# Static dielectric constant tensor:
#      x y z
#    x 2.134450 0.000000 0.114040 
#    y 0.000000 2.036670 0.000000 
#    z 0.114040 0.000000 2.081460 
# 
# From -- ./inp_files/310766.got.cif
#   From: 2010.05.17/outbox.cif.g08.bks.cpg/sg15_156_cif.got.tgz:310766.got - 2010.06.03 18:47:42.
