data_PCOD9278646
_publ_section_title
;
Structure prediction by ZEFSAII (Michael W. Deem and Ramdas Pophale) SiO2 
 PCOD9278646
Probable space group: C 2/C
;
_chemical_formula_sum "Si O2"
_cell_formula_units_Z 52
_cell_length_a 11.819107
_cell_length_b 21.898401
_cell_length_c 9.902400
_cell_angle_alpha 90.000000
_cell_angle_beta 105.190443
_cell_angle_gamma 90.000000
_cell_volume 2473.386271
_symmetry_space_group_name_H-M "C 2/C"
_symmetry_group_IT_number 15
_symmetry_cell_setting 'monoclinic'
loop_
_space_group_symop_operation_xyz
x,y,z
-x,y,1/2-z
-x,-y,-z
x,-y,1/2+z
1/2+x,1/2+y,z
1/2-x,1/2+y,1/2-z
1/2-x,1/2-y,-z
1/2+x,1/2-y,1/2+z
loop_
_atom_site_type_symbol
_atom_site_label
_atom_site_fract_x
_atom_site_fract_y
_atom_site_fract_z
Si Si1 0.691958 0.500370 0.021041
Si Si2 0.383163 0.808585 0.126181
Si Si3 0.870940 0.213647 0.884467
Si Si4 0.997337 0.400614 0.519286
Si Si5 0.000798 0.088402 0.590636
Si Si6 0.500000 0.807798 0.750000
Si Si7 0.847128 0.506478 0.820542
O O1 0.600058 0.449911 0.042903
O O2 0.802691 0.496330 0.154702
O O3 0.623142 0.564895 0.005590
O O4 0.737401 0.492271 0.883706
O O5 0.500000 0.804588 0.250000
O O6 0.261202 0.811483 0.167753
O O7 0.379186 0.749341 0.028632
O O8 0.402667 0.867137 0.037011
O O9 0.964022 0.158868 0.909685
O O10 0.901556 0.263502 0.780797
O O11 0.954476 0.350702 0.614190
O O12 0.901452 0.429562 0.389009
O O13 0.056119 0.455642 0.619094
O O14 0.000000 0.072757 0.750000
#
# Coordination Sequence:
#
# PCOD9278646 Si02
#       7
#     8   8   8   8   8   4   8
#     4  11  24  40  64  96 131 172 222 271 334 399
#     4  10  23  43  63  98 124 175 221 273 331 405
#     4  10  22  44  67  89 139 169 221 278 336 390
#     4  10  23  39  67  94 133 169 224 269 337 394
#     4  11  22  42  64  93 129 176 219 273 333 404
#     4  10  20  44  66  98 130 178 222 282 328 406
#     4  11  23  41  64  97 134 175 216 280 334 397
#
# _framework density 21.023810000000001
#
# number of rings (size 3 to 8) (size 9 to 14) (size 15 to 20)
#    0.000    1.538    2.308    1.846    4.308    1.231 
#   13.846    1.538    0.000    0.000    0.000    0.000 
#    0.000    0.000    0.000    0.000    0.000    0.000 
#
# Total GULP energy -145332.402185 kJ/mol
# GULP energy per Si atom -5589.707776 kJ/mol
# Density = 2.097596 g / cm^3
# Si number density = 21.023810 Si / 1000 Ang^3
#
#
#
# Elastic Constant Matrix: (Units=GPa)
#
#
# Indices 1 2 3 4 5 6 
#
# 1 70.8550 36.2254 17.4239 0.0000 -12.7689 0.0000
# 2 36.2254 116.8396 31.8442 0.0000 1.3082 0.0000
# 3 17.4239 31.8442 60.2875 0.0000 10.9603 0.0000
# 4 0.0000 0.0000 0.0000 22.6292 0.0000 -13.4581
# 5 -12.7689 1.3082 10.9603 0.0000 36.9801 0.0000
# 6 0.0000 0.0000 0.0000 -13.4581 0.0000 -12.6636
#
#
#
# Elastic Compliance Matrix: (Units=1/GPa)
#
#
# Indices 1 2 3 4 5 6 
#
# 1 0.019126 -0.004804 -0.004462 0.000000 0.008096 0.000000
# 2 -0.004804 0.011263 -0.004425 0.000000 -0.000746 0.000000
# 3 -0.004462 -0.004425 0.021631 0.000000 -0.007795 0.000000
# 4 0.000000 0.000000 0.000000 0.027077 0.000000 -0.028776
# 5 0.008096 -0.000746 -0.007795 0.000000 0.032174 0.000000
# 6 0.000000 0.000000 0.000000 -0.028776 0.000000 -0.048385
#
#
# Mechanical properties :
#
#
# Convention : Reuss Voigt Hill
#
# Bulk Modulus (GPa) = 40.58864 46.55211 43.57037
# Shear Modulus (GPa) = 50.77174 20.22174 35.49674
#
# Velocity S-wave (km/s) = 4.91956 3.10473 4.11348
# Velocity P-wave (km/s) = 7.18452 5.91972 6.58257
#
# Compressibility (1/GPa) = 0.02463743
#
# Stress axis : x y z
#
# Youngs Moduli (GPa) = 52.28507 88.78899 46.22975
#
# Poissons Ratio (x) = 0.42658 0.20627
# Poissons Ratio (y) = 0.25120 0.20456
# Poissons Ratio (z) = 0.23329 0.39288
#
# Static dielectric constant tensor:
#      x y z
#    x 1.764490 0.000000 -0.014980 
#    y 0.000000 1.755250 0.000000 
#    z -0.014980 0.000000 1.734780 
# 
# From -- ./inp_files/89086.got.cif
#   From: 2010.05.17/outbox.cif.g08.bks.cpg/sg15_45_cif.got.tgz:89086.got - 2010.06.03 18:47:42.
