data_PCOD9278018
_publ_section_title
;
Structure prediction by ZEFSAII (Michael W. Deem and Ramdas Pophale) SiO2 
 PCOD9278018
Probable space group: C 2/C
;
_chemical_formula_sum "Si O2"
_cell_formula_units_Z 60
_cell_length_a 15.668047
_cell_length_b 8.633098
_cell_length_c 18.236478
_cell_angle_alpha 90.000000
_cell_angle_beta 104.406986
_cell_angle_gamma 90.000000
_cell_volume 2389.163211
_symmetry_space_group_name_H-M "C 2/C"
_symmetry_group_IT_number 15
_symmetry_cell_setting 'monoclinic'
loop_
_space_group_symop_operation_xyz
x,y,z
-x,y,1/2-z
-x,-y,-z
x,-y,1/2+z
1/2+x,1/2+y,z
1/2-x,1/2+y,1/2-z
1/2-x,1/2-y,-z
1/2+x,1/2-y,1/2+z
loop_
_atom_site_type_symbol
_atom_site_label
_atom_site_fract_x
_atom_site_fract_y
_atom_site_fract_z
Si Si1 0.073507 0.343199 0.516881
Si Si2 0.856215 0.617295 0.050121
Si Si3 0.000000 0.105800 0.750000
Si Si4 0.692838 0.576077 0.529621
Si Si5 0.135001 0.672827 0.193347
Si Si6 0.149937 0.925362 0.367527
Si Si7 0.895545 0.807695 0.922855
Si Si8 0.295130 0.144518 0.776819
O O1 0.073452 0.498778 0.468824
O O2 0.165589 0.252797 0.522137
O O3 0.088442 0.368362 0.606672
O O4 0.993270 0.237843 0.470361
O O5 0.877080 0.751533 0.111843
O O6 0.784541 0.503282 0.069622
O O7 0.834343 0.716616 0.970923
O O8 0.068495 0.213852 0.721000
O O9 0.061165 0.004786 0.815299
O O10 0.677369 0.515988 0.444477
O O11 0.623275 0.488101 0.568413
O O12 0.229723 0.762700 0.208734
O O13 0.156221 0.510892 0.238870
O O14 0.227062 0.915787 0.325027
O O15 0.863550 0.752500 0.836455
#
# Coordination Sequence:
#
# PCOD9278018 Si02
#       8
#     8   8   4   8   8   8   8   8
#     4  12  25  37  64 101 132 155 212 273 315 354
#     4  11  20  38  67  89 123 163 211 253 307 378
#     4  10  24  40  68  84 122 170 218 252 306 384
#     4  11  21  38  63  95 127 162 206 260 316 370
#     4  11  25  44  64  93 125 170 211 260 313 380
#     4  10  20  42  64  93 121 172 209 249 314 387
#     4  11  21  39  62  91 122 171 203 258 308 369
#     4  11  23  42  68  90 128 168 212 253 315 385
#
# _framework density 25.113396000000002
#
# number of rings (size 3 to 8) (size 9 to 14) (size 15 to 20)
#    0.000    1.067    4.000    3.600    3.733    0.000 
#    2.400    0.000    0.000    0.800    0.000    0.000 
#    0.000    0.000    0.000    0.000    0.000    0.000 
#
# Total GULP energy -167710.105038 kJ/mol
# GULP energy per Si atom -5590.336835 kJ/mol
# Density = 2.505624 g / cm^3
# Si number density = 25.113396 Si / 1000 Ang^3
#
#
#
# Elastic Constant Matrix: (Units=GPa)
#
#
# Indices 1 2 3 4 5 6 
#
# 1 63.1733 -3.3886 24.3383 0.0000 22.0929 0.0000
# 2 -3.3886 58.0813 0.7122 0.0000 2.7236 0.0000
# 3 24.3383 0.7122 93.2111 0.0000 30.0733 0.0000
# 4 0.0000 0.0000 0.0000 22.3650 0.0000 0.6359
# 5 22.0929 2.7236 30.0733 0.0000 39.2576 0.0000
# 6 0.0000 0.0000 0.0000 0.6359 0.0000 39.4578
#
#
#
# Elastic Compliance Matrix: (Units=1/GPa)
#
#
# Indices 1 2 3 4 5 6 
#
# 1 0.020176 0.001665 -0.002099 0.000000 -0.009862 0.000000
# 2 0.001665 0.017419 0.000165 0.000000 -0.002272 0.000000
# 3 -0.002099 0.000165 0.014475 0.000000 -0.009919 0.000000
# 4 0.000000 0.000000 0.000000 0.044733 0.000000 -0.000721
# 5 -0.009862 -0.002272 -0.009919 0.000000 0.038779 0.000000
# 6 0.000000 0.000000 0.000000 -0.000721 0.000000 0.025355
#
#
# Mechanical properties :
#
#
# Convention : Reuss Voigt Hill
#
# Bulk Modulus (GPa) = 19.40478 28.64328 24.02403
# Shear Modulus (GPa) = 27.98716 33.06966 30.52841
#
# Velocity S-wave (km/s) = 3.34193 3.63273 3.49036
# Velocity P-wave (km/s) = 4.75762 5.38757 5.08237
#
# Compressibility (1/GPa) = 0.05153369
#
# Stress axis : x y z
#
# Youngs Moduli (GPa) = 49.56266 57.40875 69.08266
#
# Poissons Ratio (x) = -0.09561 0.14501
# Poissons Ratio (y) = -0.08254 -0.01141
# Poissons Ratio (z) = 0.10404 -0.00948
#
# Static dielectric constant tensor:
#      x y z
#    x 2.086680 0.000000 -0.009030 
#    y 0.000000 2.026990 0.000000 
#    z -0.009030 0.000000 1.964640 
# 
# From -- ./inp_files/247541.got.cif
#   From: 2010.05.17/outbox.cif.g08.bks.cpg/sg15_124_cif.got.tgz:247541.got - 2010.06.03 18:47:42.
