data_PCOD9278172
_publ_section_title
;
Structure prediction by ZEFSAII (Michael W. Deem and Ramdas Pophale) SiO2 
 PCOD9278172
Probable space group: C 2/C
;
_chemical_formula_sum "Si O2"
_cell_formula_units_Z 56
_cell_length_a 29.975632
_cell_length_b 11.331900
_cell_length_c 8.373853
_cell_angle_alpha 90.000000
_cell_angle_beta 63.196669
_cell_angle_gamma 90.000000
_cell_volume 2538.830120
_symmetry_space_group_name_H-M "C 2/C"
_symmetry_group_IT_number 15
_symmetry_cell_setting 'monoclinic'
loop_
_space_group_symop_operation_xyz
x,y,z
-x,y,1/2-z
-x,-y,-z
x,-y,1/2+z
1/2+x,1/2+y,z
1/2-x,1/2+y,1/2-z
1/2-x,1/2-y,-z
1/2+x,1/2-y,1/2+z
loop_
_atom_site_type_symbol
_atom_site_label
_atom_site_fract_x
_atom_site_fract_y
_atom_site_fract_z
Si Si1 0.201032 0.054136 0.437773
Si Si2 0.374400 0.322516 0.199624
Si Si3 0.959648 0.981440 0.926681
Si Si4 0.644248 0.125361 0.848782
Si Si5 0.943657 0.254591 0.850208
Si Si6 0.300262 0.323197 0.902247
Si Si7 0.312913 0.113461 0.362247
O O1 0.156031 0.105252 0.615955
O O2 0.200520 0.097907 0.257609
O O3 0.254216 0.093095 0.426732
O O4 0.195886 0.913622 0.459055
O O5 0.416903 0.247373 0.222764
O O6 0.333907 0.221964 0.222328
O O7 0.408578 0.410395 0.039927
O O8 0.000000 0.915281 0.750000
O O9 0.944740 0.115141 0.899261
O O10 0.000000 0.000000 0.000000
O O11 0.658156 0.227311 0.700733
O O12 0.658223 0.002678 0.744820
O O13 0.588544 0.158398 0.989225
O O14 0.675936 0.134309 0.966021
O O15 0.000000 0.293617 0.750000
O O16 0.250000 0.250000 0.000000
#
# Coordination Sequence:
#
# PCOD9278172 Si02
#       7
#     8   8   8   8   8   8   8
#     4  12  25  44  68 101 134 181 224 276 336 406
#     4  11  23  40  67  97 129 174 222 269 339 403
#     4  11  21  41  67  96 130 166 218 289 344 388
#     4  11  24  47  63  99 132 185 221 278 335 403
#     4  10  20  42  67  88 129 170 214 282 337 383
#     4  12  26  43  68  97 140 176 228 272 340 399
#     4  11  24  45  67  92 144 174 223 271 338 401
#
# _framework density 22.057402
#
# number of rings (size 3 to 8) (size 9 to 14) (size 15 to 20)
#    0.000    0.857    7.143    2.143    0.000    0.000 
#    2.571    3.571    0.000    0.000    0.000    0.000 
#    0.000    0.000    0.000    0.000    0.000    0.000 
#
# Total GULP energy -156327.986032 kJ/mol
# GULP energy per Si atom -5583.142358 kJ/mol
# Density = 2.200720 g / cm^3
# Si number density = 22.057402 Si / 1000 Ang^3
#
#
#
# Elastic Constant Matrix: (Units=GPa)
#
#
# Indices 1 2 3 4 5 6 
#
# 1 83.5913 20.6290 26.7464 0.0000 -41.9242 0.0000
# 2 20.6290 96.2821 38.9652 0.0000 1.1608 0.0000
# 3 26.7464 38.9652 107.8976 0.0000 -33.5837 0.0000
# 4 0.0000 0.0000 0.0000 53.3419 0.0000 -5.0380
# 5 -41.9242 1.1608 -33.5837 0.0000 36.3448 0.0000
# 6 0.0000 0.0000 0.0000 -5.0380 0.0000 19.8778
#
#
#
# Elastic Compliance Matrix: (Units=1/GPa)
#
#
# Indices 1 2 3 4 5 6 
#
# 1 0.043859 -0.016414 0.015393 0.000000 0.065339 0.000000
# 2 -0.016414 0.019407 -0.012670 0.000000 -0.031261 0.000000
# 3 0.015393 -0.012670 0.022011 0.000000 0.038499 0.000000
# 4 0.000000 0.000000 0.000000 0.019207 0.000000 0.004868
# 5 0.065339 -0.031261 0.038499 0.000000 0.139457 0.000000
# 6 0.000000 0.000000 0.000000 0.004868 0.000000 0.051541
#
#
# Mechanical properties :
#
#
# Convention : Reuss Voigt Hill
#
# Bulk Modulus (GPa) = 17.27280 51.16134 34.21707
# Shear Modulus (GPa) = 14.61295 35.34160 24.97728
#
# Velocity S-wave (km/s) = 2.57669 4.00716 3.36873
# Velocity P-wave (km/s) = 4.08660 6.68242 5.53873
#
# Compressibility (1/GPa) = 0.05789449
#
# Stress axis : x y z
#
# Youngs Moduli (GPa) = 22.80056 51.52681 45.43171
#
# Poissons Ratio (x) = 0.84577 -0.69933
# Poissons Ratio (y) = 0.37425 0.57562
# Poissons Ratio (z) = -0.35097 0.65284
#
# Static dielectric constant tensor:
#      x y z
#    x 1.636620 0.000000 -0.371330 
#    y 0.000000 1.794380 0.000000 
#    z -0.371330 0.000000 1.000700 
# 
# From -- ./inp_files/69280.got.cif
#   From: 2010.05.17/outbox.cif.g08.bks.cpg/sg15_35_cif.got.tgz:69280.got - 2010.06.03 18:47:42.
