data_PCOD9278026
_publ_section_title
;
Structure prediction by ZEFSAII (Michael W. Deem and Ramdas Pophale) SiO2 
 PCOD9278026
Probable space group: C 2/C
;
_chemical_formula_sum "Si O2"
_cell_formula_units_Z 44
_cell_length_a 11.909569
_cell_length_b 9.201064
_cell_length_c 25.889722
_cell_angle_alpha 90.000000
_cell_angle_beta 41.438370
_cell_angle_gamma 90.000000
_cell_volume 1877.575755
_symmetry_space_group_name_H-M "C 2/C"
_symmetry_group_IT_number 15
_symmetry_cell_setting 'monoclinic'
loop_
_space_group_symop_operation_xyz
x,y,z
-x,y,1/2-z
-x,-y,-z
x,-y,1/2+z
1/2+x,1/2+y,z
1/2-x,1/2+y,1/2-z
1/2-x,1/2-y,-z
1/2+x,1/2-y,1/2+z
loop_
_atom_site_type_symbol
_atom_site_label
_atom_site_fract_x
_atom_site_fract_y
_atom_site_fract_z
Si Si1 0.425872 0.277724 0.665405
Si Si2 0.184683 0.578400 0.171419
Si Si3 0.924850 0.476936 0.611459
Si Si4 0.000000 0.704414 0.750000
Si Si5 0.859072 0.254075 0.910512
Si Si6 0.739946 0.557538 0.070545
O O1 0.313506 0.390627 0.672513
O O2 0.419470 0.285907 0.729547
O O3 0.623531 0.315816 0.588409
O O4 0.375021 0.118822 0.661569
O O5 0.238882 0.658711 0.100609
O O6 0.000000 0.644132 0.250000
O O7 0.140525 0.409414 0.179163
O O8 0.801785 0.425095 0.608178
O O9 0.976610 0.347614 0.632043
O O10 0.095571 0.526486 0.521255
O O11 0.875769 0.087950 0.888723
O O12 0.750000 0.250000 0.000000
#
# Coordination Sequence:
#
# PCOD9278026 Si02
#       6
#     8   8   8   4   8   8
#     4  12  23  42  67  92 124 170 225 261 328 387
#     4  10  23  44  64  89 133 170 216 274 326 391
#     4  10  20  42  64  95 138 160 205 270 322 391
#     4  10  26  44  60  94 128 176 216 280 322 380
#     4  10  20  42  68  95 132 174 206 266 339 388
#     4  10  23  37  66 101 125 168 211 258 331 392
#
# _framework density 23.434474000000002
#
# number of rings (size 3 to 8) (size 9 to 14) (size 15 to 20)
#    0.545    1.091    3.636    0.545    0.000    5.818 
#    1.636    1.818    0.000    0.000    0.000    0.000 
#    0.000    0.000    0.000    0.000    0.000    0.000 
#
# Total GULP energy -122927.288627 kJ/mol
# GULP energy per Si atom -5587.604028 kJ/mol
# Density = 2.338114 g / cm^3
# Si number density = 23.434474 Si / 1000 Ang^3
#
#
#
# Elastic Constant Matrix: (Units=GPa)
#
#
# Indices 1 2 3 4 5 6 
#
# 1 179.1634 32.8434 31.9001 0.0000 22.0119 0.0000
# 2 32.8434 53.2094 -4.6460 0.0000 5.7644 0.0000
# 3 31.9001 -4.6460 64.1773 0.0000 16.7316 0.0000
# 4 0.0000 0.0000 0.0000 20.0437 0.0000 16.6212
# 5 22.0119 5.7644 16.7316 0.0000 38.0793 0.0000
# 6 0.0000 0.0000 0.0000 16.6212 0.0000 34.4430
#
#
#
# Elastic Compliance Matrix: (Units=1/GPa)
#
#
# Indices 1 2 3 4 5 6 
#
# 1 0.007276 -0.004572 -0.003424 0.000000 -0.002009 0.000000
# 2 -0.004572 0.022317 0.004608 0.000000 -0.002760 0.000000
# 3 -0.003424 0.004608 0.019519 0.000000 -0.007295 0.000000
# 4 0.000000 0.000000 0.000000 0.083176 0.000000 -0.040138
# 5 -0.002009 -0.002760 -0.007295 0.000000 0.031046 0.000000
# 6 0.000000 0.000000 0.000000 -0.040138 0.000000 0.048403
#
#
# Mechanical properties :
#
#
# Convention : Reuss Voigt Hill
#
# Bulk Modulus (GPa) = 23.62059 46.30500 34.96280
# Shear Modulus (GPa) = 21.49377 34.27670 27.88524
#
# Velocity S-wave (km/s) = 3.03179 3.82862 3.45327
# Velocity P-wave (km/s) = 4.72832 6.27270 5.55445
#
# Compressibility (1/GPa) = 0.04233594
#
# Stress axis : x y z
#
# Youngs Moduli (GPa) = 137.43432 44.80816 51.23181
#
# Poissons Ratio (x) = 0.20488 0.17541
# Poissons Ratio (y) = 0.62842 -0.23607
# Poissons Ratio (z) = 0.47056 -0.20647
#
# Static dielectric constant tensor:
#      x y z
#    x 1.845160 0.000000 -0.020420 
#    y 0.000000 1.878920 0.000000 
#    z -0.020420 0.000000 1.942470 
# 
# From -- ./inp_files/291440.got.cif
#   From: 2010.05.17/outbox.cif.g08.bks.cpg/sg15_146_cif.got.tgz:291440.got - 2010.06.03 18:47:42.
