data_PCOD9278993
_publ_section_title
;
Structure prediction by ZEFSAII (Michael W. Deem and Ramdas Pophale) SiO2 
 PCOD9278993
Probable space group: C 2/C
;
_chemical_formula_sum "Si O2"
_cell_formula_units_Z 48
_cell_length_a 28.974520
_cell_length_b 11.821530
_cell_length_c 24.007726
_cell_angle_alpha 90.000000
_cell_angle_beta 164.507576
_cell_angle_gamma 90.000000
_cell_volume 2196.507382
_symmetry_space_group_name_H-M "C 2/C"
_symmetry_group_IT_number 15
_symmetry_cell_setting 'monoclinic'
loop_
_space_group_symop_operation_xyz
x,y,z
-x,y,1/2-z
-x,-y,-z
x,-y,1/2+z
1/2+x,1/2+y,z
1/2-x,1/2+y,1/2-z
1/2-x,1/2-y,-z
1/2+x,1/2-y,1/2+z
loop_
_atom_site_type_symbol
_atom_site_label
_atom_site_fract_x
_atom_site_fract_y
_atom_site_fract_z
Si Si1 0.029558 0.612042 0.488734
Si Si2 0.978021 0.604354 0.588542
Si Si3 0.285970 0.704752 0.707322
Si Si4 0.802071 0.124406 0.039432
Si Si5 0.109468 0.852872 0.055311
Si Si6 0.806721 0.998965 0.658815
O O1 0.098326 0.684080 0.515055
O O2 0.908312 0.852157 0.397850
O O3 0.044369 0.482998 0.488117
O O4 0.842331 0.665476 0.277425
O O5 0.943833 0.732410 0.531269
O O6 0.837871 0.565383 0.471852
O O7 0.168632 0.594383 0.835595
O O8 0.298713 0.630305 0.666880
O O9 0.184228 0.636058 0.711788
O O10 0.778702 0.036072 0.062656
O O11 0.000000 0.126022 0.250000
O O12 0.750000 0.250000 0.000000
O O13 0.991449 0.947649 0.891417
#
# Coordination Sequence:
#
# PCOD9278993 Si02
#       6
#     8   8   8   8   8   8
#     4   9  22  37  60  92 131 169 217 261 324 386
#     4  11  23  41  65  95 131 170 216 274 323 383
#     4   9  21  38  59  90 127 174 209 262 318 392
#     4  12  26  43  65  97 127 169 222 270 324 385
#     4  10  21  33  65  91 132 166 217 250 339 376
#     4  11  22  41  66  88 134 174 212 265 328 387
#
# _framework density 21.852875999999998
#
# number of rings (size 3 to 8) (size 9 to 14) (size 15 to 20)
#    1.000    0.667    1.667    3.000    2.333    3.333 
#    0.000    0.833    0.000    0.000    0.000    0.000 
#    0.000    0.000    0.000    0.000    0.000    0.000 
#
# Total GULP energy -133994.437670 kJ/mol
# GULP energy per Si atom -5583.101570 kJ/mol
# Density = 2.180314 g / cm^3
# Si number density = 21.852876 Si / 1000 Ang^3
#
#
#
# Elastic Constant Matrix: (Units=GPa)
#
#
# Indices 1 2 3 4 5 6 
#
# 1 50.2158 14.9842 22.0893 -0.0011 -9.3269 -0.0003
# 2 14.9842 46.6249 24.2273 -0.0022 6.9277 -0.0010
# 3 22.0893 24.2273 87.3798 -0.0033 0.3477 -0.0026
# 4 -0.0011 -0.0022 -0.0033 23.3948 -0.0014 -2.2462
# 5 -9.3269 6.9277 0.3477 -0.0014 39.9792 -0.0010
# 6 -0.0003 -0.0010 -0.0026 -2.2462 -0.0010 31.9537
#
#
#
# Elastic Compliance Matrix: (Units=1/GPa)
#
#
# Indices 1 2 3 4 5 6 
#
# 1 0.025262 -0.006826 -0.004522 0.000000 0.007116 0.000000
# 2 -0.006826 0.027657 -0.005918 0.000001 -0.006334 0.000000
# 3 -0.004522 -0.005918 0.014229 0.000001 -0.000153 0.000001
# 4 0.000000 0.000001 0.000001 0.043035 0.000001 0.003025
# 5 0.007116 -0.006334 -0.000153 0.000001 0.027772 0.000001
# 6 0.000000 0.000000 0.000001 0.003025 0.000001 0.031508
#
#
# Mechanical properties :
#
#
# Convention : Reuss Voigt Hill
#
# Bulk Modulus (GPa) = 30.65898 34.09133 32.37515
# Shear Modulus (GPa) = 23.27034 27.26020 25.26527
#
# Velocity S-wave (km/s) = 3.26677 3.53575 3.40391
# Velocity P-wave (km/s) = 5.31876 5.68357 5.50419
#
# Compressibility (1/GPa) = 0.03261687
#
# Stress axis : x y z
#
# Youngs Moduli (GPa) = 39.58570 36.15658 70.28051
#
# Poissons Ratio (x) = 0.24681 0.31779
# Poissons Ratio (y) = 0.27022 0.41589
# Poissons Ratio (z) = 0.17899 0.21396
#
# Static dielectric constant tensor:
#      x y z
#    x 1.894090 0.000000 0.041950 
#    y 0.000000 1.801870 0.000000 
#    z 0.041950 0.000000 1.770750 
# 
# From -- ./inp_files/283562.got.cif
#   From: 2010.05.17/outbox.cif.g08.bks.cpg/sg15_142_cif.got.tgz:283562.got - 2010.06.03 18:47:42.
