data_PCOD9278743
_publ_section_title
;
Structure prediction by ZEFSAII (Michael W. Deem and Ramdas Pophale) SiO2 
 PCOD9278743
Probable space group: C 2/C
;
_chemical_formula_sum "Si O2"
_cell_formula_units_Z 44
_cell_length_a 11.523582
_cell_length_b 11.862313
_cell_length_c 18.360590
_cell_angle_alpha 90.000000
_cell_angle_beta 53.234022
_cell_angle_gamma 90.000000
_cell_volume 2010.588310
_symmetry_space_group_name_H-M "C 2/C"
_symmetry_group_IT_number 15
_symmetry_cell_setting 'monoclinic'
loop_
_space_group_symop_operation_xyz
x,y,z
-x,y,1/2-z
-x,-y,-z
x,-y,1/2+z
1/2+x,1/2+y,z
1/2-x,1/2+y,1/2-z
1/2-x,1/2-y,-z
1/2+x,1/2-y,1/2+z
loop_
_atom_site_type_symbol
_atom_site_label
_atom_site_fract_x
_atom_site_fract_y
_atom_site_fract_z
Si Si1 0.520025 0.865527 0.491937
Si Si2 0.635368 0.711799 0.336121
Si Si3 0.325671 0.421485 0.417990
Si Si4 0.000000 0.919936 0.750000
Si Si5 0.327084 0.505067 0.073420
Si Si6 0.125682 0.802966 0.349668
O O1 0.517839 0.793863 0.418150
O O2 0.688477 0.846427 0.450102
O O3 0.412659 0.807034 0.589010
O O4 0.500000 0.000000 0.500000
O O5 0.565640 0.651663 0.291766
O O6 0.692053 0.615322 0.370061
O O7 0.774206 0.778963 0.256093
O O8 0.375422 0.503483 0.334313
O O9 0.274198 0.486190 0.510800
O O10 0.471284 0.354083 0.383528
O O11 0.290437 0.393033 0.131270
O O12 0.500000 0.500000 0.000000
#
# Coordination Sequence:
#
# PCOD9278743 Si02
#       6
#     8   8   8   4   8   8
#     4  12  26  43  65 103 139 176 226 286 333 404
#     4  12  25  42  69 102 139 172 233 281 338 408
#     4  11  22  44  73  96 133 183 227 273 351 401
#     4  12  22  42  72  98 132 186 220 280 350 412
#     4  10  20  45  67  96 134 178 224 280 340 399
#     4  11  23  42  71  98 134 178 224 286 334 402
#
# _framework density 21.884143000000002
#
# number of rings (size 3 to 8) (size 9 to 14) (size 15 to 20)
#    0.000    0.727    7.273    2.727    2.545    1.455 
#    0.000    3.636    0.000    0.000    0.000    0.000 
#    0.000    0.000    0.000    0.000    0.000    0.000 
#
# Total GULP energy -122933.680657 kJ/mol
# GULP energy per Si atom -5587.894575 kJ/mol
# Density = 2.183433 g / cm^3
# Si number density = 21.884143 Si / 1000 Ang^3
#
#
#
# Elastic Constant Matrix: (Units=GPa)
#
#
# Indices 1 2 3 4 5 6 
#
# 1 32.4669 0.0971 6.1671 0.0000 12.1245 0.0000
# 2 0.0971 115.0674 34.9492 0.0000 17.2210 0.0000
# 3 6.1671 34.9492 106.4830 0.0000 17.5906 0.0000
# 4 0.0000 0.0000 0.0000 63.3470 0.0000 9.6981
# 5 12.1245 17.2210 17.5906 0.0000 30.9696 0.0000
# 6 0.0000 0.0000 0.0000 9.6981 0.0000 26.8457
#
#
#
# Elastic Compliance Matrix: (Units=1/GPa)
#
#
# Indices 1 2 3 4 5 6 
#
# 1 0.036639 0.002391 -0.000351 0.000000 -0.015475 0.000000
# 2 0.002391 0.010265 -0.002659 0.000000 -0.005133 0.000000
# 3 -0.000351 -0.002659 0.011055 0.000000 -0.004663 0.000000
# 4 0.000000 0.000000 0.000000 0.016710 0.000000 -0.006037
# 5 -0.015475 -0.005133 -0.004663 0.000000 0.043851 0.000000
# 6 0.000000 0.000000 0.000000 -0.006037 0.000000 0.039431
#
#
# Mechanical properties :
#
#
# Convention : Reuss Voigt Hill
#
# Bulk Modulus (GPa) = 17.63014 37.38269 27.50642
# Shear Modulus (GPa) = 28.07504 38.41938 33.24721
#
# Velocity S-wave (km/s) = 3.58564 4.19451 3.90197
# Velocity P-wave (km/s) = 5.02155 6.37007 5.73558
#
# Compressibility (1/GPa) = 0.05672105
#
# Stress axis : x y z
#
# Youngs Moduli (GPa) = 27.29339 97.42260 90.45973
#
# Poissons Ratio (x) = -0.23299 0.03171
# Poissons Ratio (y) = -0.06527 0.24057
# Poissons Ratio (z) = 0.00957 0.25909
#
# Static dielectric constant tensor:
#      x y z
#    x 1.802040 0.000000 0.011670 
#    y 0.000000 1.815340 0.000000 
#    z 0.011670 0.000000 1.748610 
# 
# From -- ./inp_files/196443.got.cif
#   From: 2010.05.17/outbox.cif.g08.bks.cpg/sg15_99_cif.got.tgz:196443.got - 2010.06.03 18:47:42.
