data_PCOD9278861
_publ_section_title
;
Structure prediction by ZEFSAII (Michael W. Deem and Ramdas Pophale) SiO2 
 PCOD9278861
Probable space group: C 2/C
;
_chemical_formula_sum "Si O2"
_cell_formula_units_Z 44
_cell_length_a 8.888031
_cell_length_b 22.754023
_cell_length_c 9.239565
_cell_angle_alpha 90.000000
_cell_angle_beta 100.553192
_cell_angle_gamma 90.000000
_cell_volume 1836.988684
_symmetry_space_group_name_H-M "C 2/C"
_symmetry_group_IT_number 15
_symmetry_cell_setting 'monoclinic'
loop_
_space_group_symop_operation_xyz
x,y,z
-x,y,1/2-z
-x,-y,-z
x,-y,1/2+z
1/2+x,1/2+y,z
1/2-x,1/2+y,1/2-z
1/2-x,1/2-y,-z
1/2+x,1/2-y,1/2+z
loop_
_atom_site_type_symbol
_atom_site_label
_atom_site_fract_x
_atom_site_fract_y
_atom_site_fract_z
Si Si1 0.600360 0.422955 0.484669
Si Si2 0.723419 0.209559 0.853543
Si Si3 0.500000 0.775203 0.750000
Si Si4 0.181781 0.311847 0.035988
Si Si5 0.757278 0.012071 0.218671
Si Si6 0.230179 0.578991 0.943807
O O1 0.694547 0.364630 0.454183
O O2 0.640581 0.471887 0.371484
O O3 0.659144 0.445792 0.650935
O O4 0.417538 0.418647 0.465144
O O5 0.624197 0.204162 0.685963
O O6 0.693398 0.145824 0.912949
O O7 0.879305 0.230082 0.799397
O O8 0.750000 0.250000 0.000000
O O9 0.441994 0.818164 0.612404
O O10 0.250000 0.250000 0.000000
O O11 0.676190 0.964385 0.306848
O O12 0.674833 0.053117 0.086837
#
# Coordination Sequence:
#
# PCOD9278861 Si02
#       6
#     8   8   4   8   8   8
#     4  11  19  35  57  88 125 160 196 245 314 371
#     4  11  24  40  64  93 122 163 205 249 312 368
#     4  10  24  46  60  88 124 158 210 260 304 360
#     4  10  22  39  62  84 118 164 199 250 309 354
#     4  10  21  31  55  90 126 162 193 247 314 370
#     4  11  19  34  54  91 129 151 196 250 302 383
#
# _framework density 23.952245000000001
#
# number of rings (size 3 to 8) (size 9 to 14) (size 15 to 20)
#    0.000    1.455    1.818    6.545    5.091    0.727 
#    3.273    0.000    0.000    1.091    0.000    0.000 
#    0.000    0.000    0.000    0.000    0.000    0.000 
#
# Total GULP energy -122540.862536 kJ/mol
# GULP energy per Si atom -5570.039206 kJ/mol
# Density = 2.389773 g / cm^3
# Si number density = 23.952245 Si / 1000 Ang^3
#
#
#
# Elastic Constant Matrix: (Units=GPa)
#
#
# Indices 1 2 3 4 5 6 
#
# 1 55.2394 9.3488 31.8493 0.0000 -14.5552 0.0000
# 2 9.3488 138.9258 84.9905 0.0000 -10.1376 0.0000
# 3 31.8493 84.9905 266.1212 0.0000 -14.0738 0.0000
# 4 0.0000 0.0000 0.0000 37.3541 0.0000 1.9513
# 5 -14.5552 -10.1376 -14.0738 0.0000 28.1858 0.0000
# 6 0.0000 0.0000 0.0000 1.9513 0.0000 20.3926
#
#
#
# Elastic Compliance Matrix: (Units=1/GPa)
#
#
# Indices 1 2 3 4 5 6 
#
# 1 0.022084 0.000693 -0.002309 0.000000 0.010500 0.000000
# 2 0.000693 0.009062 -0.002861 0.000000 0.002188 0.000000
# 3 -0.002309 -0.002861 0.004961 0.000000 0.000256 0.000000
# 4 0.000000 0.000000 0.000000 0.026905 0.000000 -0.002575
# 5 0.010500 0.002188 0.000256 0.000000 0.041816 0.000000
# 6 0.000000 0.000000 0.000000 -0.002575 0.000000 0.049284
#
#
# Mechanical properties :
#
#
# Convention : Reuss Voigt Hill
#
# Bulk Modulus (GPa) = 36.82984 79.18484 58.00734
# Shear Modulus (GPa) = 29.04997 39.45968 34.25483
#
# Velocity S-wave (km/s) = 3.48635 4.06326 3.78581
# Velocity P-wave (km/s) = 5.62280 7.42595 6.58637
#
# Compressibility (1/GPa) = 0.02715190
#
# Stress axis : x y z
#
# Youngs Moduli (GPa) = 45.28200 110.35697 201.56024
#
# Poissons Ratio (x) = -0.07644 0.46538
# Poissons Ratio (y) = -0.03136 0.57669
# Poissons Ratio (z) = 0.10455 0.31574
#
# Static dielectric constant tensor:
#      x y z
#    x 2.140030 0.000000 0.255340 
#    y 0.000000 1.899400 0.000000 
#    z 0.255340 0.000000 1.955530 
# 
# From -- ./inp_files/30916.got.cif
#   From: 2010.05.17/outbox.cif.g08.bks.cpg/sg15_16_cif.got.tgz:30916.got - 2010.06.03 18:47:42.
