data_PCOD9278973
_publ_section_title
;
Structure prediction by ZEFSAII (Michael W. Deem and Ramdas Pophale) SiO2 
 PCOD9278973
Probable space group: C 2/C
;
_chemical_formula_sum "Si O2"
_cell_formula_units_Z 40
_cell_length_a 21.183845
_cell_length_b 20.431708
_cell_length_c 5.379123
_cell_angle_alpha 90.000000
_cell_angle_beta 58.591406
_cell_angle_gamma 90.000000
_cell_volume 1987.057989
_symmetry_space_group_name_H-M "C 2/C"
_symmetry_group_IT_number 15
_symmetry_cell_setting 'monoclinic'
loop_
_space_group_symop_operation_xyz
x,y,z
-x,y,1/2-z
-x,-y,-z
x,-y,1/2+z
1/2+x,1/2+y,z
1/2-x,1/2+y,1/2-z
1/2-x,1/2-y,-z
1/2+x,1/2-y,1/2+z
loop_
_atom_site_type_symbol
_atom_site_label
_atom_site_fract_x
_atom_site_fract_y
_atom_site_fract_z
Si Si1 0.500000 0.343409 0.250000
Si Si2 0.500000 0.743548 0.250000
Si Si3 0.239900 0.335948 0.275012
Si Si4 0.606903 0.462405 0.070116
Si Si5 0.731507 0.014282 0.767227
Si Si6 0.338457 0.788449 0.564762
O O1 0.498645 0.300490 0.502649
O O2 0.571175 0.391462 0.115283
O O3 0.426035 0.786340 0.401688
O O4 0.260122 0.411659 0.214196
O O5 0.308985 0.286673 0.131126
O O6 0.197146 0.322890 0.621083
O O7 0.191072 0.318074 0.133225
O O8 0.583635 0.494454 0.379487
O O9 0.696294 0.467085 0.883364
O O10 0.688481 0.001042 0.604715
#
# Coordination Sequence:
#
# PCOD9278973 Si02
#       6
#     4   4   8   8   8   8
#     4  12  24  35  56  82 134 165 196 234 280 370
#     4  12  26  39  62  92 116 167 212 244 300 358
#     4  10  21  41  61  85 120 160 202 259 295 353
#     4  10  21  35  49  78 118 167 200 222 286 339
#     4  10  21  33  58  88 117 153 197 243 301 356
#     4  10  23  40  62  84 116 161 213 251 300 343
#
# _framework density 20.130262999999999
#
# number of rings (size 3 to 8) (size 9 to 14) (size 15 to 20)
#    0.000    1.600    0.000    4.200   11.200    0.000 
#    0.000    0.000    0.000    0.000    0.000   14.000 
#    0.000    0.000    0.000    0.000    0.000    0.000 
#
# Total GULP energy -111751.065983 kJ/mol
# GULP energy per Si atom -5587.553299 kJ/mol
# Density = 2.008445 g / cm^3
# Si number density = 20.130263 Si / 1000 Ang^3
#
#
#
# Elastic Constant Matrix: (Units=GPa)
#
#
# Indices 1 2 3 4 5 6 
#
# 1 81.5676 5.5108 52.9449 0.0000 11.0527 0.0000
# 2 5.5108 51.0608 19.6124 0.0000 10.4087 0.0000
# 3 52.9449 19.6124 74.1101 0.0000 28.7091 0.0000
# 4 0.0000 0.0000 0.0000 20.1146 0.0000 9.1707
# 5 11.0527 10.4087 28.7091 0.0000 55.0888 0.0000
# 6 0.0000 0.0000 0.0000 9.1707 0.0000 16.6442
#
#
#
# Elastic Compliance Matrix: (Units=1/GPa)
#
#
# Indices 1 2 3 4 5 6 
#
# 1 0.024786 0.004283 -0.020800 0.000000 0.005058 0.000000
# 2 0.004283 0.022626 -0.008844 0.000000 -0.000525 0.000000
# 3 -0.020800 -0.008844 0.035621 0.000000 -0.012719 0.000000
# 4 0.000000 0.000000 0.000000 0.066394 0.000000 -0.036582
# 5 0.005058 -0.000525 -0.012719 0.000000 0.023866 0.000000
# 6 0.000000 0.000000 0.000000 -0.036582 0.000000 0.080237
#
#
# Mechanical properties :
#
#
# Convention : Reuss Voigt Hill
#
# Bulk Modulus (GPa) = 30.94900 40.31941 35.63421
# Shear Modulus (GPa) = 15.87181 26.94755 21.40968
#
# Velocity S-wave (km/s) = 2.81099 3.66274 3.26476
# Velocity P-wave (km/s) = 5.09346 6.16119 5.65259
#
# Compressibility (1/GPa) = 0.03231122
#
# Stress axis : x y z
#
# Youngs Moduli (GPa) = 40.34456 44.19610 28.07306
#
# Poissons Ratio (x) = -0.18931 0.58393
# Poissons Ratio (y) = -0.17281 0.24829
# Poissons Ratio (z) = 0.83919 0.39089
#
# Static dielectric constant tensor:
#      x y z
#    x 1.731340 0.000000 0.058670 
#    y 0.000000 1.699200 0.000000 
#    z 0.058670 0.000000 1.761180 
# 
# From -- ./inp_files/9829.got.cif
#   From: 2010.05.17/outbox.cif.g08.bks.cpg/sg15_5_cif.got.tgz:9829.got - 2010.06.03 18:47:42.
