data_PCOD9278086
_publ_section_title
;
Structure prediction by ZEFSAII (Michael W. Deem and Ramdas Pophale) SiO2 
 PCOD9278086
Probable space group: C 2/C
;
_chemical_formula_sum "Si O2"
_cell_formula_units_Z 48
_cell_length_a 21.154125
_cell_length_b 13.794137
_cell_length_c 12.699555
_cell_angle_alpha 90.000000
_cell_angle_beta 139.608619
_cell_angle_gamma 90.000000
_cell_volume 2401.356761
_symmetry_space_group_name_H-M "C 2/C"
_symmetry_group_IT_number 15
_symmetry_cell_setting 'monoclinic'
loop_
_space_group_symop_operation_xyz
x,y,z
-x,y,1/2-z
-x,-y,-z
x,-y,1/2+z
1/2+x,1/2+y,z
1/2-x,1/2+y,1/2-z
1/2-x,1/2-y,-z
1/2+x,1/2-y,1/2+z
loop_
_atom_site_type_symbol
_atom_site_label
_atom_site_fract_x
_atom_site_fract_y
_atom_site_fract_z
Si Si1 0.885991 0.521700 0.584862
Si Si2 0.743283 0.634251 0.988849
Si Si3 0.595463 0.694348 0.310472
Si Si4 0.227131 0.466603 0.748900
Si Si5 0.099144 0.002266 0.191652
Si Si6 0.799591 0.344681 0.159641
O O1 0.831502 0.419280 0.537703
O O2 0.863968 0.560912 0.440053
O O3 0.833197 0.593522 0.600082
O O4 0.000000 0.515165 0.750000
O O5 0.645143 0.592129 0.807958
O O6 0.750000 0.750000 0.000000
O O7 0.752846 0.593879 0.120534
O O8 0.500000 0.728554 0.250000
O O9 0.585067 0.583692 0.262501
O O10 0.691673 0.697549 0.505117
O O11 0.622880 0.758069 0.242935
O O12 0.318540 0.464371 0.786757
O O13 0.206642 0.577419 0.757112
O O14 0.000000 0.000000 0.000000
#
# Coordination Sequence:
#
# PCOD9278086 Si02
#       6
#     8   8   8   8   8   8
#     4  10  21  42  63  93 127 167 221 269 327 391
#     4  10  23  44  60  93 133 175 219 268 332 402
#     4  11  21  39  63  94 125 162 212 267 321 385
#     4  10  20  42  66  83 132 173 204 279 320 386
#     4  11  23  40  63  97 126 173 217 263 330 390
#     4  10  21  39  63  92 125 164 215 266 317 385
#
# _framework density 19.988700999999999
#
# number of rings (size 3 to 8) (size 9 to 14) (size 15 to 20)
#    0.000    1.667    5.000    1.500    0.000    5.333 
#   12.000    0.000    0.000    0.000    0.000    0.000 
#    0.000    0.000    0.000    0.000    0.000    0.000 
#
# Total GULP energy -133861.081109 kJ/mol
# GULP energy per Si atom -5577.545046 kJ/mol
# Density = 1.994321 g / cm^3
# Si number density = 19.988701 Si / 1000 Ang^3
#
#
#
# Elastic Constant Matrix: (Units=GPa)
#
#
# Indices 1 2 3 4 5 6 
#
# 1 85.4318 16.1614 49.3267 0.0000 9.3965 0.0000
# 2 16.1614 111.8436 32.2710 0.0000 6.9827 0.0000
# 3 49.3267 32.2710 145.5222 0.0000 14.7017 0.0000
# 4 0.0000 0.0000 0.0000 11.5454 0.0000 0.6286
# 5 9.3965 6.9827 14.7017 0.0000 41.0917 0.0000
# 6 0.0000 0.0000 0.0000 0.6286 0.0000 26.3822
#
#
#
# Elastic Compliance Matrix: (Units=1/GPa)
#
#
# Indices 1 2 3 4 5 6 
#
# 1 0.014706 -0.000678 -0.004675 0.000000 -0.001575 0.000000
# 2 -0.000678 0.009616 -0.001819 0.000000 -0.000828 0.000000
# 3 -0.004675 -0.001819 0.009048 0.000000 -0.001859 0.000000
# 4 0.000000 0.000000 0.000000 0.086727 0.000000 -0.002066
# 5 -0.001575 -0.000828 -0.001859 0.000000 0.025502 0.000000
# 6 0.000000 0.000000 0.000000 -0.002066 0.000000 0.037954
#
#
# Mechanical properties :
#
#
# Convention : Reuss Voigt Hill
#
# Bulk Modulus (GPa) = 52.56157 59.81286 56.18722
# Shear Modulus (GPa) = 24.48124 32.13975 28.31050
#
# Velocity S-wave (km/s) = 3.50345 4.01421 3.76749
# Velocity P-wave (km/s) = 6.53592 7.17450 6.86264
#
# Compressibility (1/GPa) = 0.01902531
#
# Stress axis : x y z
#
# Youngs Moduli (GPa) = 67.99851 103.99847 110.52422
#
# Poissons Ratio (x) = 0.07048 0.51675
# Poissons Ratio (y) = 0.04608 0.20104
# Poissons Ratio (z) = 0.31793 0.18917
#
# Static dielectric constant tensor:
#      x y z
#    x 1.683550 0.000000 -0.006310 
#    y 0.000000 1.775240 0.000000 
#    z -0.006310 0.000000 1.744640 
# 
# From -- ./inp_files/112924.got.cif
#   From: 2010.05.17/outbox.cif.g08.bks.cpg/sg15_57_cif.got.tgz:112924.got - 2010.06.03 18:47:42.
