data_PCOD9278393
_publ_section_title
;
Structure prediction by ZEFSAII (Michael W. Deem and Ramdas Pophale) SiO2 
 PCOD9278393
Probable space group: C 2/C
;
_chemical_formula_sum "Si O2"
_cell_formula_units_Z 28
_cell_length_a 11.791114
_cell_length_b 9.608431
_cell_length_c 13.660728
_cell_angle_alpha 90.000000
_cell_angle_beta 43.072468
_cell_angle_gamma 90.000000
_cell_volume 1056.945982
_symmetry_space_group_name_H-M "C 2/C"
_symmetry_group_IT_number 15
_symmetry_cell_setting 'monoclinic'
loop_
_space_group_symop_operation_xyz
x,y,z
-x,y,1/2-z
-x,-y,-z
x,-y,1/2+z
1/2+x,1/2+y,z
1/2-x,1/2+y,1/2-z
1/2-x,1/2-y,-z
1/2+x,1/2-y,1/2+z
loop_
_atom_site_type_symbol
_atom_site_label
_atom_site_fract_x
_atom_site_fract_y
_atom_site_fract_z
Si Si1 0.823927 0.921042 0.487999
Si Si2 0.174425 0.564905 0.864821
Si Si3 0.000000 0.275629 0.750000
Si Si4 0.053483 0.161606 0.329796
O O1 0.756832 0.912174 0.419160
O O2 0.664804 0.870731 0.648125
O O3 0.879526 0.698457 0.664066
O O4 0.894636 0.072596 0.470207
O O5 0.476231 0.687197 0.867802
O O6 0.299675 0.448820 0.746921
O O7 0.000000 0.500000 0.000000
O O8 0.000000 0.184113 0.250000
#
# Coordination Sequence:
#
# PCOD9278393 Si02
#       4
#     8   8   4   8
#     4  10  22  45  74 109 158 204 253 313 383 452
#     4  11  25  47  78 114 151 202 258 311 384 459
#     4  10  20  42  74 108 156 208 246 318 386 444
#     4  10  24  51  77 112 156 194 256 322 375 453
#
# _framework density 26.491422
#
# number of rings (size 3 to 8) (size 9 to 14) (size 15 to 20)
#    0.000    1.714    4.286    0.000    4.000    4.571 
#    7.714   11.429    0.000    0.000    0.000    0.000 
#    0.000    0.000    0.000    0.000    0.000    0.000 
#
# Total GULP energy -78166.924481 kJ/mol
# GULP energy per Si atom -5583.351749 kJ/mol
# Density = 2.643113 g / cm^3
# Si number density = 26.491422 Si / 1000 Ang^3
#
#
#
# Elastic Constant Matrix: (Units=GPa)
#
#
# Indices 1 2 3 4 5 6 
#
# 1 173.7546 109.1648 45.0448 0.0000 10.4050 0.0000
# 2 109.1648 233.3547 81.3057 0.0000 -22.5436 0.0000
# 3 45.0448 81.3057 140.4590 0.0000 -31.4227 0.0000
# 4 0.0000 0.0000 0.0000 39.1667 0.0000 -12.7395
# 5 10.4050 -22.5436 -31.4227 0.0000 37.4900 0.0000
# 6 0.0000 0.0000 0.0000 -12.7395 0.0000 69.5927
#
#
#
# Elastic Compliance Matrix: (Units=1/GPa)
#
#
# Indices 1 2 3 4 5 6 
#
# 1 0.009462 -0.004384 -0.002061 0.000000 -0.006989 0.000000
# 2 -0.004384 0.007417 -0.001991 0.000000 0.004008 0.000000
# 3 -0.002061 -0.001991 0.010822 0.000000 0.008445 0.000000
# 4 0.000000 0.000000 0.000000 0.027148 0.000000 0.004970
# 5 -0.006989 0.004008 0.008445 0.000000 0.038102 0.000000
# 6 0.000000 0.000000 0.000000 0.004970 0.000000 0.015279
#
#
# Mechanical properties :
#
#
# Convention : Reuss Voigt Hill
#
# Bulk Modulus (GPa) = 92.32789 113.17765 102.75277
# Shear Modulus (GPa) = 38.84665 50.05343 44.45004
#
# Velocity S-wave (km/s) = 3.83350 4.35146 4.10067
# Velocity P-wave (km/s) = 7.38390 8.24997 7.82892
#
# Compressibility (1/GPa) = 0.01083096
#
# Stress axis : x y z
#
# Youngs Moduli (GPa) = 105.68465 134.82728 92.40364
#
# Poissons Ratio (x) = 0.59104 0.19040
# Poissons Ratio (y) = 0.46329 0.18396
# Poissons Ratio (z) = 0.21777 0.26842
#
# Static dielectric constant tensor:
#      x y z
#    x 1.877220 0.000000 0.359870 
#    y 0.000000 2.126490 0.000000 
#    z 0.359870 0.000000 1.797890 
# 
# From -- ./inp_files/133660.got.cif
#   From: 2010.05.17/outbox.cif.g08.bks.cpg/sg15_67_cif.got.tgz:133660.got - 2010.06.03 18:47:42.
