data_PCOD9278934
_publ_section_title
;
Structure prediction by ZEFSAII (Michael W. Deem and Ramdas Pophale) SiO2 
 PCOD9278934
Probable space group: C 2/C
;
_chemical_formula_sum "Si O2"
_cell_formula_units_Z 64
_cell_length_a 20.631080
_cell_length_b 21.755641
_cell_length_c 8.677259
_cell_angle_alpha 90.000000
_cell_angle_beta 102.701387
_cell_angle_gamma 90.000000
_cell_volume 3799.414628
_symmetry_space_group_name_H-M "C 2/C"
_symmetry_group_IT_number 15
_symmetry_cell_setting 'monoclinic'
loop_
_space_group_symop_operation_xyz
x,y,z
-x,y,1/2-z
-x,-y,-z
x,-y,1/2+z
1/2+x,1/2+y,z
1/2-x,1/2+y,1/2-z
1/2-x,1/2-y,-z
1/2+x,1/2-y,1/2+z
loop_
_atom_site_type_symbol
_atom_site_label
_atom_site_fract_x
_atom_site_fract_y
_atom_site_fract_z
Si Si1 0.759681 0.088505 0.222720
Si Si2 0.712391 0.494986 0.514310
Si Si3 0.194476 0.209411 0.883273
Si Si4 0.433535 0.753171 0.143505
Si Si5 0.524067 0.658228 0.594826
Si Si6 0.609166 0.655718 0.118768
Si Si7 0.805040 0.286147 0.924186
Si Si8 0.843309 0.085329 0.756626
O O1 0.743295 0.055765 0.375475
O O2 0.837118 0.108144 0.286549
O O3 0.723823 0.149963 0.151961
O O4 0.750898 0.036538 0.090668
O O5 0.683562 0.542536 0.622354
O O6 0.655456 0.457802 0.392928
O O7 0.177037 0.248060 0.721379
O O8 0.206093 0.141639 0.814779
O O9 0.250000 0.250000 0.000000
O O10 0.141770 0.191955 0.990169
O O11 0.500000 0.782736 0.250000
O O12 0.407091 0.704285 0.255683
O O13 0.455272 0.713548 0.006142
O O14 0.371242 0.793701 0.060197
O O15 0.500000 0.679948 0.750000
O O16 0.460266 0.628153 0.477406
O O17 0.587042 0.614749 0.657305
O O18 0.750000 0.250000 0.000000
#
# Coordination Sequence:
#
# PCOD9278934 Si02
#       8
#     8   8   8   8   8   8   8   8
#     4  11  20  36  52  74 108 135 186 217 273 308
#     4  10  22  35  51  70 102 145 179 235 247 314
#     4  12  20  33  56  79 103 132 177 226 276 324
#     4  10  21  33  52  82 113 141 170 216 278 332
#     4  11  19  34  53  70 105 146 180 216 266 310
#     4  11  20  34  50  78 107 141 180 222 264 317
#     4  12  20  34  57  85 107 140 178 225 279 327
#     4  11  20  36  50  71 101 140 185 214 275 297
#
# _framework density 16.844698999999999
#
# number of rings (size 3 to 8) (size 9 to 14) (size 15 to 20)
#    0.000    1.000    6.250    1.500    0.000    0.000 
#    0.000    6.875    0.000    0.000    0.000    0.875 
#    0.000    0.000    0.000    0.000    0.000    0.000 
#
# Total GULP energy -178230.406135 kJ/mol
# GULP energy per Si atom -5569.700192 kJ/mol
# Density = 1.680636 g / cm^3
# Si number density = 16.844699 Si / 1000 Ang^3
#
#
#
# Elastic Constant Matrix: (Units=GPa)
#
#
# Indices 1 2 3 4 5 6 
#
# 1 40.1566 22.6151 22.6299 0.0000 19.8395 0.0000
# 2 22.6151 87.6515 38.7411 0.0000 17.7064 0.0000
# 3 22.6299 38.7411 104.7614 0.0000 13.8519 0.0000
# 4 0.0000 0.0000 0.0000 39.6970 0.0000 2.9395
# 5 19.8395 17.7064 13.8519 0.0000 30.5897 0.0000
# 6 0.0000 0.0000 0.0000 2.9395 0.0000 15.7348
#
#
#
# Elastic Compliance Matrix: (Units=1/GPa)
#
#
# Indices 1 2 3 4 5 6 
#
# 1 0.040483 -0.004104 -0.004329 0.000000 -0.021920 0.000000
# 2 -0.004104 0.015161 -0.004161 0.000000 -0.004230 0.000000
# 3 -0.004329 -0.004161 0.012051 0.000000 -0.000241 0.000000
# 4 0.000000 0.000000 0.000000 0.025544 0.000000 -0.004772
# 5 -0.021920 -0.004230 -0.000241 0.000000 0.049465 0.000000
# 6 0.000000 0.000000 0.000000 -0.004772 0.000000 0.064445
#
#
# Mechanical properties :
#
#
# Convention : Reuss Voigt Hill
#
# Bulk Modulus (GPa) = 23.52471 44.50463 34.01467
# Shear Modulus (GPa) = 20.28344 27.10986 23.69665
#
# Velocity S-wave (km/s) = 3.47384 4.01609 3.75477
# Velocity P-wave (km/s) = 5.48508 6.92699 6.24777
#
# Compressibility (1/GPa) = 0.04250849
#
# Stress axis : x y z
#
# Youngs Moduli (GPa) = 24.70169 65.95780 82.97936
#
# Poissons Ratio (x) = 0.27067 0.35921
# Poissons Ratio (y) = 0.10137 0.34527
# Poissons Ratio (z) = 0.10693 0.27444
#
# Static dielectric constant tensor:
#      x y z
#    x 1.587140 0.000000 0.005810 
#    y 0.000000 1.569450 0.000000 
#    z 0.005810 0.000000 1.630520 
# 
# From -- ./inp_files/57556.got.cif
#   From: 2010.05.17/outbox.cif.g08.bks.cpg/sg15_29_cif.got.tgz:57556.got - 2010.06.03 18:47:42.
