data_PCOD9279793
_publ_section_title
;
Structure prediction by ZEFSAII (Michael W. Deem and Ramdas Pophale) SiO2 
 PCOD9279793
Probable space group: C 2/C
;
_chemical_formula_sum "Si O2"
_cell_formula_units_Z 40
_cell_length_a 9.394002
_cell_length_b 24.297625
_cell_length_c 7.910202
_cell_angle_alpha 90.000000
_cell_angle_beta 75.837336
_cell_angle_gamma 90.000000
_cell_volume 1750.640179
_symmetry_space_group_name_H-M "C 2/C"
_symmetry_group_IT_number 15
_symmetry_cell_setting 'monoclinic'
loop_
_space_group_symop_operation_xyz
x,y,z
-x,y,1/2-z
-x,-y,-z
x,-y,1/2+z
1/2+x,1/2+y,z
1/2-x,1/2+y,1/2-z
1/2-x,1/2-y,-z
1/2+x,1/2-y,1/2+z
loop_
_atom_site_type_symbol
_atom_site_label
_atom_site_fract_x
_atom_site_fract_y
_atom_site_fract_z
Si Si1 0.339561 0.818172 0.336054
Si Si2 0.648608 0.881945 0.809725
Si Si3 0.845656 0.026340 0.392856
Si Si4 0.321835 0.228380 0.308133
Si Si5 0.338727 0.413622 0.258205
O O1 0.500000 0.796035 0.250000
O O2 0.359931 0.849056 0.508840
O O3 0.229596 0.768158 0.328926
O O4 0.282425 0.867099 0.229668
O O5 0.500000 0.891676 0.750000
O O6 0.727827 0.938421 0.824971
O O7 0.734977 0.834589 0.684098
O O8 0.852558 0.053331 0.575794
O O9 0.000000 0.031836 0.250000
O O10 0.806363 0.961757 0.401844
O O11 0.500000 0.227023 0.250000
O O12 0.250000 0.250000 0.500000
O O13 0.500000 0.389512 0.250000
#
# Coordination Sequence:
#
# PCOD9279793 Si02
#       5
#     8   8   8   8   8
#     4  11  23  39  61  89 120 158 202 249 302 363
#     4  10  23  40  58  85 119 156 197 245 301 358
#     4  10  21  36  59  85 113 152 196 243 296 357
#     4  11  24  42  65  92 123 162 202 252 308 364
#     4  10  21  37  58  85 116 152 195 243 298 358
#
# _framework density 22.848784999999999
#
# number of rings (size 3 to 8) (size 9 to 14) (size 15 to 20)
#    0.000    1.600    0.000    6.000    0.000   11.200 
#    0.000    4.000    0.000    0.000    0.000    0.000 
#    0.000    0.000    0.000    0.000    0.000    0.000 
#
# Total GULP energy -111717.666270 kJ/mol
# GULP energy per Si atom -5585.883313 kJ/mol
# Density = 2.279678 g / cm^3
# Si number density = 22.848785 Si / 1000 Ang^3
#
#
#
# Elastic Constant Matrix: (Units=GPa)
#
#
# Indices 1 2 3 4 5 6 
#
# 1 115.8463 42.4023 15.5165 0.0000 37.8321 0.0000
# 2 42.4023 60.9328 -19.9783 0.0000 22.4470 0.0000
# 3 15.5165 -19.9783 78.8370 0.0000 20.9487 0.0000
# 4 0.0000 0.0000 0.0000 31.6283 0.0000 15.1551
# 5 37.8321 22.4470 20.9487 0.0000 36.9958 0.0000
# 6 0.0000 0.0000 0.0000 15.1551 0.0000 31.0601
#
#
#
# Elastic Compliance Matrix: (Units=1/GPa)
#
#
# Indices 1 2 3 4 5 6 
#
# 1 0.014730 -0.007781 -0.002499 0.000000 -0.008927 0.000000
# 2 -0.007781 0.036000 0.016884 0.000000 -0.023446 0.000000
# 3 -0.002499 0.016884 0.022952 0.000000 -0.020685 0.000000
# 4 0.000000 0.000000 0.000000 0.041265 0.000000 -0.020134
# 5 -0.008927 -0.023446 -0.020685 0.000000 0.062098 0.000000
# 6 0.000000 0.000000 0.000000 -0.020134 0.000000 0.042020
#
#
# Mechanical properties :
#
#
# Convention : Reuss Voigt Hill
#
# Bulk Modulus (GPa) = 11.50884 36.83301 24.17093
# Shear Modulus (GPa) = 21.29301 34.44853 27.87077
#
# Velocity S-wave (km/s) = 3.05603 3.88709 3.49634
# Velocity P-wave (km/s) = 4.18334 6.02506 5.18660
#
# Compressibility (1/GPa) = 0.08688972
#
# Stress axis : x y z
#
# Youngs Moduli (GPa) = 67.88735 27.77800 43.57011
#
# Poissons Ratio (x) = 0.21615 0.10888
# Poissons Ratio (y) = 0.52826 -0.73566
# Poissons Ratio (z) = 0.16965 -0.46902
#
# Static dielectric constant tensor:
#      x y z
#    x 1.838270 0.000000 -0.036260 
#    y 0.000000 1.844010 0.000000 
#    z -0.036260 0.000000 2.053510 
# 
# From -- ./inp_files/23625.got.cif
#   From: 2010.05.17/outbox.cif.g08.bks.cpg/sg15_12_cif.got.tgz:23625.got - 2010.06.03 18:47:42.
