data_PCOD9279251
_publ_section_title
;
Structure prediction by ZEFSAII (Michael W. Deem and Ramdas Pophale) SiO2 
 PCOD9279251
Probable space group: C 2/C
;
_chemical_formula_sum "Si O2"
_cell_formula_units_Z 48
_cell_length_a 13.497113
_cell_length_b 31.265868
_cell_length_c 13.981320
_cell_angle_alpha 90.000000
_cell_angle_beta 159.134112
_cell_angle_gamma 90.000000
_cell_volume 2101.508753
_symmetry_space_group_name_H-M "C 2/C"
_symmetry_group_IT_number 15
_symmetry_cell_setting 'monoclinic'
loop_
_space_group_symop_operation_xyz
x,y,z
-x,y,1/2-z
-x,-y,-z
x,-y,1/2+z
1/2+x,1/2+y,z
1/2-x,1/2+y,1/2-z
1/2-x,1/2-y,-z
1/2+x,1/2-y,1/2+z
loop_
_atom_site_type_symbol
_atom_site_label
_atom_site_fract_x
_atom_site_fract_y
_atom_site_fract_z
Si Si1 0.425850 0.226058 0.958200
Si Si2 0.451287 0.895172 0.815941
Si Si3 0.750383 0.968729 0.744265
Si Si4 0.791598 0.305141 0.974540
Si Si5 0.429026 0.900023 0.074843
Si Si6 0.123856 0.864110 0.163047
O O1 0.253795 0.182178 0.801552
O O2 0.191343 0.262279 0.761440
O O3 0.577991 0.222526 0.992189
O O4 0.500000 0.887757 0.750000
O O5 0.318878 0.940026 0.726076
O O6 0.208419 0.864014 0.637890
O O7 0.747839 0.891459 0.134602
O O8 0.729232 0.935858 0.632823
O O9 0.500000 0.000000 0.500000
O O10 0.000000 0.000000 0.000000
O O11 0.500000 0.288916 0.750000
O O12 0.000000 0.307389 0.250000
O O13 0.760629 0.355134 0.916411
O O14 0.500000 0.911221 0.250000
O O15 0.721718 0.886366 0.287686
#
# Coordination Sequence:
#
# PCOD9279251 Si02
#       6
#     8   8   8   8   8   8
#     4  11  22  36  58  87 124 165 199 254 329 373
#     4  11  23  44  69  90 120 168 218 263 316 374
#     4  11  24  42  63  96 133 161 204 266 322 381
#     4  10  21  35  54  84 121 165 218 255 291 374
#     4   9  21  40  64  92 128 175 216 256 313 380
#     4  10  22  41  65  93 124 163 220 266 302 379
#
# _framework density 22.840733
#
# number of rings (size 3 to 8) (size 9 to 14) (size 15 to 20)
#    0.000    1.667    0.000    4.500    0.000   16.000 
#    0.000    3.333    0.000   10.000    0.000    0.000 
#    0.000    0.000    0.000    0.000    0.000    0.000 
#
# Total GULP energy -133931.045920 kJ/mol
# GULP energy per Si atom -5580.460247 kJ/mol
# Density = 2.278875 g / cm^3
# Si number density = 22.840733 Si / 1000 Ang^3
#
#
#
# Elastic Constant Matrix: (Units=GPa)
#
#
# Indices 1 2 3 4 5 6 
#
# 1 82.2755 6.1691 10.4659 -0.0002 -9.5895 -0.0001
# 2 6.1691 118.1710 35.7982 0.0001 9.5269 0.0000
# 3 10.4659 35.7982 126.4948 0.0000 9.5417 0.0001
# 4 -0.0002 0.0001 0.0000 48.7851 -0.0003 -3.0325
# 5 -9.5895 9.5269 9.5417 -0.0003 28.3492 -0.0001
# 6 -0.0001 0.0000 0.0001 -3.0325 -0.0001 20.8734
#
#
#
# Elastic Compliance Matrix: (Units=1/GPa)
#
#
# Indices 1 2 3 4 5 6 
#
# 1 0.012954 -0.000703 -0.001253 0.000000 0.005040 0.000000
# 2 -0.000703 0.009441 -0.002418 0.000000 -0.002597 0.000000
# 3 -0.001253 -0.002418 0.008890 0.000000 -0.002603 0.000000
# 4 0.000000 0.000000 0.000000 0.020685 0.000000 0.003005
# 5 0.005040 -0.002597 -0.002603 0.000000 0.038728 0.000000
# 6 0.000000 0.000000 0.000000 0.003005 0.000000 0.048344
#
#
# Mechanical properties :
#
#
# Convention : Reuss Voigt Hill
#
# Bulk Modulus (GPa) = 44.37162 47.97863 46.17513
# Shear Modulus (GPa) = 32.19548 37.90208 35.04878
#
# Velocity S-wave (km/s) = 3.75849 4.07800 3.92150
# Velocity P-wave (km/s) = 6.18900 6.57456 6.38469
#
# Compressibility (1/GPa) = 0.02253693
#
# Stress axis : x y z
#
# Youngs Moduli (GPa) = 77.19753 105.92353 112.48938
#
# Poissons Ratio (x) = 0.07446 0.14095
# Poissons Ratio (y) = 0.05427 0.27197
# Poissons Ratio (z) = 0.09673 0.25609
#
# Static dielectric constant tensor:
#      x y z
#    x 1.851830 0.000000 0.006280 
#    y 0.000000 1.920380 0.000000 
#    z 0.006280 0.000000 1.853960 
# 
# From -- ./inp_files/157715.got.cif
#   From: 2010.05.17/outbox.cif.g08.bks.cpg/sg15_79_cif.got.tgz:157715.got - 2010.06.03 18:47:42.
