data_PCOD9279056
_publ_section_title
;
Structure prediction by ZEFSAII (Michael W. Deem and Ramdas Pophale) SiO2 
 PCOD9279056
Probable space group: C 2/C
;
_chemical_formula_sum "Si O2"
_cell_formula_units_Z 52
_cell_length_a 14.327231
_cell_length_b 22.921307
_cell_length_c 11.336139
_cell_angle_alpha 90.000000
_cell_angle_beta 44.020457
_cell_angle_gamma 90.000000
_cell_volume 2587.012875
_symmetry_space_group_name_H-M "C 2/C"
_symmetry_group_IT_number 15
_symmetry_cell_setting 'monoclinic'
loop_
_space_group_symop_operation_xyz
x,y,z
-x,y,1/2-z
-x,-y,-z
x,-y,1/2+z
1/2+x,1/2+y,z
1/2-x,1/2+y,1/2-z
1/2-x,1/2-y,-z
1/2+x,1/2-y,1/2+z
loop_
_atom_site_type_symbol
_atom_site_label
_atom_site_fract_x
_atom_site_fract_y
_atom_site_fract_z
Si Si1 0.710549 0.983785 0.504448
Si Si2 0.500000 0.543243 0.250000
Si Si3 0.848286 0.455414 0.690049
Si Si4 0.772083 0.742654 0.621104
Si Si5 0.009450 0.182679 0.882415
Si Si6 0.072561 0.630951 0.065144
Si Si7 0.459571 0.568491 0.039714
O O1 0.643602 0.993955 0.695331
O O2 0.684366 0.915449 0.506157
O O3 0.651811 0.013513 0.437971
O O4 0.865217 0.003939 0.372077
O O5 0.494385 0.583479 0.141579
O O6 0.698779 0.429538 0.837693
O O7 0.961949 0.406350 0.595739
O O8 0.750000 0.750000 0.500000
O O9 0.628301 0.727704 0.807375
O O10 0.859609 0.684430 0.560024
O O11 0.868210 0.796253 0.566445
O O12 0.000000 0.185367 0.750000
O O13 0.033626 0.115390 0.892925
O O14 0.000000 0.653246 0.250000
O O15 0.500000 0.500000 0.000000
#
# Coordination Sequence:
#
# PCOD9279056 Si02
#       7
#     8   4   8   8   8   8   8
#     4  10  21  35  54  84 119 160 200 254 311 374
#     4  10  22  36  54  86 120 158 204 256 306 366
#     4  10  22  35  56  83 126 162 205 253 313 371
#     4  10  22  37  59  88 124 157 203 252 315 369
#     4  10  24  37  62  90 122 155 201 254 313 369
#     4  10  21  34  55  82 121 161 202 250 310 375
#     4  11  23  36  61  87 124 160 206 257 313 372
#
# _framework density 20.100403
#
# number of rings (size 3 to 8) (size 9 to 14) (size 15 to 20)
#    0.000    1.846    1.538    1.846   16.154    0.000 
#    0.000    0.000    0.000    0.923    4.000    0.000 
#    0.000    0.000    0.000    0.000    0.000    0.000 
#
# Total GULP energy -144972.549787 kJ/mol
# GULP energy per Si atom -5575.867299 kJ/mol
# Density = 2.005465 g / cm^3
# Si number density = 20.100403 Si / 1000 Ang^3
#
#
#
# Elastic Constant Matrix: (Units=GPa)
#
#
# Indices 1 2 3 4 5 6 
#
# 1 103.0055 31.4218 40.4353 0.0000 2.5275 0.0000
# 2 31.4218 74.2073 28.1358 0.0000 -12.1654 0.0000
# 3 40.4353 28.1358 71.6413 0.0000 -4.0687 0.0000
# 4 0.0000 0.0000 0.0000 33.7482 0.0000 -2.5921
# 5 2.5275 -12.1654 -4.0687 0.0000 38.9980 0.0000
# 6 0.0000 0.0000 0.0000 -2.5921 0.0000 10.1083
#
#
#
# Elastic Compliance Matrix: (Units=1/GPa)
#
#
# Indices 1 2 3 4 5 6 
#
# 1 0.013357 -0.003735 -0.006224 0.000000 -0.002680 0.000000
# 2 -0.003735 0.017635 -0.004518 0.000000 0.005272 0.000000
# 3 -0.006224 -0.004518 0.019303 0.000000 0.001008 0.000000
# 4 0.000000 0.000000 0.000000 0.030227 0.000000 0.007751
# 5 -0.002680 0.005272 0.001008 0.000000 0.027566 0.000000
# 6 0.000000 0.000000 0.000000 0.007751 0.000000 0.100916
#
#
# Mechanical properties :
#
#
# Convention : Reuss Voigt Hill
#
# Bulk Modulus (GPa) = 46.86087 49.87109 48.36598
# Shear Modulus (GPa) = 20.40227 26.49498 23.44863
#
# Velocity S-wave (km/s) = 3.18939 3.63455 3.41922
# Velocity P-wave (km/s) = 6.07676 6.51752 6.30099
#
# Compressibility (1/GPa) = 0.02133977
#
# Stress axis : x y z
#
# Youngs Moduli (GPa) = 74.86902 56.70653 51.80556
#
# Poissons Ratio (x) = 0.21181 0.32244
# Poissons Ratio (y) = 0.27965 0.23406
# Poissons Ratio (z) = 0.46598 0.25620
#
# Static dielectric constant tensor:
#      x y z
#    x 1.772070 0.000000 -0.012890 
#    y 0.000000 1.719840 0.000000 
#    z -0.012890 0.000000 1.812520 
# 
# From -- ./inp_files/99706.got.cif
#   From: 2010.05.17/outbox.cif.g08.bks.cpg/sg15_50_cif.got.tgz:99706.got - 2010.06.03 18:47:42.
