data_PCOD9279126
_publ_section_title
;
Structure prediction by ZEFSAII (Michael W. Deem and Ramdas Pophale) SiO2 
 PCOD9279126
Probable space group: C 2/C
;
_chemical_formula_sum "Si O2"
_cell_formula_units_Z 60
_cell_length_a 20.197290
_cell_length_b 19.920291
_cell_length_c 9.444459
_cell_angle_alpha 90.000000
_cell_angle_beta 53.676729
_cell_angle_gamma 90.000000
_cell_volume 3061.488515
_symmetry_space_group_name_H-M "C 2/C"
_symmetry_group_IT_number 15
_symmetry_cell_setting 'monoclinic'
loop_
_space_group_symop_operation_xyz
x,y,z
-x,y,1/2-z
-x,-y,-z
x,-y,1/2+z
1/2+x,1/2+y,z
1/2-x,1/2+y,1/2-z
1/2-x,1/2-y,-z
1/2+x,1/2-y,1/2+z
loop_
_atom_site_type_symbol
_atom_site_label
_atom_site_fract_x
_atom_site_fract_y
_atom_site_fract_z
Si Si1 0.500000 0.513310 0.750000
Si Si2 0.845959 0.023925 0.324241
Si Si3 0.623692 0.732490 0.009789
Si Si4 0.161209 0.325130 0.471193
Si Si5 0.795142 0.911423 0.174282
Si Si6 0.946254 0.758286 0.592409
Si Si7 0.629139 0.386051 0.948788
Si Si8 0.778963 0.694616 0.323746
O O1 0.555167 0.468218 0.781385
O O2 0.569956 0.559434 0.593383
O O3 0.801619 0.040183 0.528450
O O4 0.823938 0.081805 0.242917
O O5 0.831938 0.954286 0.258617
O O6 0.609279 0.739045 0.195234
O O7 0.538429 0.742027 0.032874
O O8 0.656351 0.657229 0.930020
O O9 0.680901 0.792947 0.880408
O O10 0.205610 0.387322 0.339265
O O11 0.085968 0.299559 0.472118
O O12 0.150665 0.327889 0.654157
O O13 0.231404 0.266524 0.389850
O O14 0.928282 0.825721 0.528234
O O15 0.703604 0.355997 0.944349
#
# Coordination Sequence:
#
# PCOD9279126 Si02
#       8
#     4   8   8   8   8   8   8   8
#     4  12  24  36  52  82 122 158 202 228 266 334
#     4  12  24  36  53  79 116 162 199 227 270 329
#     4  10  21  37  58  84 119 149 187 243 290 348
#     4   9  20  36  55  82 111 148 194 241 287 341
#     4  11  23  38  56  81 121 158 198 235 271 338
#     4  10  21  34  58  86 113 148 191 236 305 336
#     4  11  22  35  55  79 114 158 195 235 280 335
#     4   9  20  37  56  78 111 149 192 235 294 341
#
# _framework density 19.598309
#
# number of rings (size 3 to 8) (size 9 to 14) (size 15 to 20)
#    0.000    1.600    2.667    2.000    3.733    6.400 
#    0.000    0.000    0.000    0.000    0.000    0.933 
#    4.000    0.000    0.000    0.000    0.000    0.000 
#
# Total GULP energy -167018.496675 kJ/mol
# GULP energy per Si atom -5567.283222 kJ/mol
# Density = 1.955370 g / cm^3
# Si number density = 19.598309 Si / 1000 Ang^3
#
#
#
# Elastic Constant Matrix: (Units=GPa)
#
#
# Indices 1 2 3 4 5 6 
#
# 1 47.2347 11.1783 -7.9530 0.0000 18.7690 0.0000
# 2 11.1783 45.2539 16.8682 0.0000 2.7716 0.0000
# 3 -7.9530 16.8682 58.6924 0.0000 8.8573 0.0000
# 4 0.0000 0.0000 0.0000 35.1985 0.0000 -4.4265
# 5 18.7690 2.7716 8.8573 0.0000 22.0886 0.0000
# 6 0.0000 0.0000 0.0000 -4.4265 0.0000 19.0732
#
#
#
# Elastic Compliance Matrix: (Units=1/GPa)
#
#
# Indices 1 2 3 4 5 6 
#
# 1 0.044251 -0.014508 0.016568 0.000000 -0.042424 0.000000
# 2 -0.014508 0.029507 -0.012504 0.000000 0.013639 0.000000
# 3 0.016568 -0.012504 0.026360 0.000000 -0.023079 0.000000
# 4 0.000000 0.000000 0.000000 0.029264 0.000000 0.006792
# 5 -0.042424 0.013639 -0.023079 0.000000 0.088863 0.000000
# 6 0.000000 0.000000 0.000000 0.006792 0.000000 0.054006
#
#
# Mechanical properties :
#
#
# Convention : Reuss Voigt Hill
#
# Bulk Modulus (GPa) = 12.62168 21.26311 16.94239
# Shear Modulus (GPa) = 15.64703 24.01124 19.82913
#
# Velocity S-wave (km/s) = 2.82864 3.50404 3.18430
# Velocity P-wave (km/s) = 4.13793 5.21958 4.70991
#
# Compressibility (1/GPa) = 0.07922878
#
# Stress axis : x y z
#
# Youngs Moduli (GPa) = 22.59823 33.89047 37.93683
#
# Poissons Ratio (x) = 0.49168 -0.62854
# Poissons Ratio (y) = 0.32786 0.47438
# Poissons Ratio (z) = -0.37441 0.42378
#
# Static dielectric constant tensor:
#      x y z
#    x 1.701720 0.000000 0.058600 
#    y 0.000000 1.718570 0.000000 
#    z 0.058600 0.000000 1.797220 
# 
# From -- ./inp_files/57012.got.cif
#   From: 2010.05.17/outbox.cif.g08.bks.cpg/sg15_29_cif.got.tgz:57012.got - 2010.06.03 18:47:42.
