data_PCOD9279575
_publ_section_title
;
Structure prediction by ZEFSAII (Michael W. Deem and Ramdas Pophale) SiO2 
 PCOD9279575
Probable space group: C 2/C
;
_chemical_formula_sum "Si O2"
_cell_formula_units_Z 64
_cell_length_a 18.983391
_cell_length_b 23.134374
_cell_length_c 24.478393
_cell_angle_alpha 90.000000
_cell_angle_beta 19.566165
_cell_angle_gamma 90.000000
_cell_volume 3600.172964
_symmetry_space_group_name_H-M "C 2/C"
_symmetry_group_IT_number 15
_symmetry_cell_setting 'monoclinic'
loop_
_space_group_symop_operation_xyz
x,y,z
-x,y,1/2-z
-x,-y,-z
x,-y,1/2+z
1/2+x,1/2+y,z
1/2-x,1/2+y,1/2-z
1/2-x,1/2-y,-z
1/2+x,1/2-y,1/2+z
loop_
_atom_site_type_symbol
_atom_site_label
_atom_site_fract_x
_atom_site_fract_y
_atom_site_fract_z
Si Si1 0.767628 0.058014 0.665787
Si Si2 0.903999 0.024595 0.380019
Si Si3 0.587208 0.815957 0.288800
Si Si4 0.221407 0.110929 0.306797
Si Si5 0.524960 0.956917 0.793122
Si Si6 0.505161 0.284472 0.917706
Si Si7 0.221965 0.512857 0.310805
Si Si8 0.379747 0.660482 0.396453
O O1 0.631540 0.116170 0.763953
O O2 0.003341 0.079253 0.482979
O O3 0.688413 0.010957 0.679513
O O4 0.745870 0.026451 0.739563
O O5 0.854294 0.092088 0.427011
O O6 0.000000 0.022572 0.250000
O O7 0.081171 0.004685 0.293245
O O8 0.697315 0.985562 0.530015
O O9 0.578593 0.780454 0.351783
O O10 0.352578 0.812029 0.436436
O O11 0.774927 0.791452 0.113511
O O12 0.392128 0.092528 0.226935
O O13 0.283238 0.079068 0.205754
O O14 0.163622 0.177122 0.338112
O O15 0.500000 0.935724 0.750000
O O16 0.495222 0.312280 0.864193
O O17 0.000000 0.500000 0.500000
O O18 0.500000 0.667524 0.250000
#
# Coordination Sequence:
#
# PCOD9279575 Si02
#       8
#     8   8   8   8   8   8   8   8
#     4  10  21  36  53  79 109 144 185 229 281 338
#     4  11  21  33  50  81 112 148 181 220 278 331
#     4  11  23  37  56  78 107 151 196 236 277 333
#     4  10  21  37  53  79 109 147 188 232 280 334
#     4  11  20  33  58  82 110 143 184 232 281 336
#     4  11  23  39  56  76 112 150 197 235 277 333
#     4  11  21  34  55  79 113 147 182 229 280 337
#     4  11  22  35  53  77 114 149 191 225 273 332
#
# _framework density 17.776924999999999
#
# number of rings (size 3 to 8) (size 9 to 14) (size 15 to 20)
#    0.000    1.250    2.500    6.000    3.500    1.000 
#    0.000    0.000    0.000    0.000    0.000    8.750 
#    0.000    0.000    0.000    0.375    0.000    0.000 
#
# Total GULP energy -178719.631443 kJ/mol
# GULP energy per Si atom -5584.988483 kJ/mol
# Density = 1.773646 g / cm^3
# Si number density = 17.776925 Si / 1000 Ang^3
#
#
#
# Elastic Constant Matrix: (Units=GPa)
#
#
# Indices 1 2 3 4 5 6 
#
# 1 84.8520 21.8713 19.1013 -0.0300 -19.7784 -0.0629
# 2 21.8713 58.9796 18.6946 0.1208 -6.6921 -0.0638
# 3 19.1013 18.6946 66.1891 0.1477 -8.2877 0.2042
# 4 -0.0300 0.1208 0.1477 12.9933 0.1768 -6.6799
# 5 -19.7784 -6.6921 -8.2877 0.1768 26.6167 0.0654
# 6 -0.0629 -0.0638 0.2042 -6.6799 0.0654 18.2315
#
#
#
# Elastic Compliance Matrix: (Units=1/GPa)
#
#
# Indices 1 2 3 4 5 6 
#
# 1 0.015608 -0.003984 -0.002135 -0.000029 0.009931 0.000018
# 2 -0.003984 0.019900 -0.004386 -0.000124 0.000678 0.000057
# 3 -0.002135 -0.004386 0.017304 -0.000387 0.002702 -0.000368
# 4 -0.000029 -0.000124 -0.000387 0.094850 -0.000888 0.034759
# 5 0.009931 0.000678 0.002702 -0.000888 0.045969 -0.000484
# 6 0.000018 0.000057 -0.000368 0.034759 -0.000484 0.067592
#
#
# Mechanical properties :
#
#
# Convention : Reuss Voigt Hill
#
# Bulk Modulus (GPa) = 31.44591 36.59500 34.02046
# Shear Modulus (GPa) = 17.07462 21.59188 19.33325
#
# Velocity S-wave (km/s) = 3.10254 3.48889 3.30138
# Velocity P-wave (km/s) = 5.52829 6.07126 5.80612
#
# Compressibility (1/GPa) = 0.03180063
#
# Stress axis : x y z
#
# Youngs Moduli (GPa) = 64.07055 50.25176 57.79171
#
# Poissons Ratio (x) = 0.20020 0.12341
# Poissons Ratio (y) = 0.25526 0.25346
# Poissons Ratio (z) = 0.13682 0.22040
#
# Static dielectric constant tensor:
#      x y z
#    x 1.609240 0.000090 0.002450 
#    y 0.000090 1.641180 -0.000390 
#    z 0.002450 -0.000390 1.661740 
# 
# From -- ./inp_files/278245.got.cif
#   From: 2010.05.17/outbox.cif.g08.bks.cpg/sg15_140_cif.got.tgz:278245.got - 2010.06.03 18:47:42.
