data_PCOD9279614
_publ_section_title
;
Structure prediction by ZEFSAII (Michael W. Deem and Ramdas Pophale) SiO2 
 PCOD9279614
Probable space group: C 2/C
;
_chemical_formula_sum "Si O2"
_cell_formula_units_Z 40
_cell_length_a 12.743955
_cell_length_b 8.324154
_cell_length_c 19.611316
_cell_angle_alpha 90.000000
_cell_angle_beta 46.313034
_cell_angle_gamma 90.000000
_cell_volume 1504.402426
_symmetry_space_group_name_H-M "C 2/C"
_symmetry_group_IT_number 15
_symmetry_cell_setting 'monoclinic'
loop_
_space_group_symop_operation_xyz
x,y,z
-x,y,1/2-z
-x,-y,-z
x,-y,1/2+z
1/2+x,1/2+y,z
1/2-x,1/2+y,1/2-z
1/2-x,1/2-y,-z
1/2+x,1/2-y,1/2+z
loop_
_atom_site_type_symbol
_atom_site_label
_atom_site_fract_x
_atom_site_fract_y
_atom_site_fract_z
Si Si1 0.497742 0.567969 0.911092
Si Si2 0.811599 0.662366 0.389513
Si Si3 0.943078 0.250957 0.482051
Si Si4 0.623591 0.861134 0.790809
Si Si5 0.282823 0.016064 0.613406
O O1 0.485255 0.377036 0.905437
O O2 0.593316 0.671970 0.815909
O O3 0.332593 0.629179 0.002525
O O4 0.574859 0.629264 0.946598
O O5 0.808317 0.600220 0.312718
O O6 0.829860 0.854514 0.365107
O O7 0.953445 0.585867 0.361728
O O8 0.811349 0.375371 0.545194
O O9 0.078883 0.364497 0.438630
O O10 0.710095 0.926918 0.816690
#
# Coordination Sequence:
#
# PCOD9279614 Si02
#       5
#     8   8   8   8   8
#     4   9  17  33  55  77 108 141 175 226 273 315
#     4  10  21  36  55  80 108 142 183 223 272 331
#     4   8  16  31  54  82 103 137 187 218 264 339
#     4  10  21  36  55  80 108 142 183 223 272 331
#     4   9  18  34  54  75 108 144 176 223 276 321
#
# _framework density 26.588629000000001
#
# number of rings (size 3 to 8) (size 9 to 14) (size 15 to 20)
#    0.000    2.800    0.000    1.800    0.000    6.400 
#    0.000    4.000    0.000    4.800    0.000    0.000 
#    0.000    0.000    0.000    0.000    0.000    0.000 
#
# Total GULP energy -111416.654268 kJ/mol
# GULP energy per Si atom -5570.832713 kJ/mol
# Density = 2.652811 g / cm^3
# Si number density = 26.588629 Si / 1000 Ang^3
#
#
#
# Elastic Constant Matrix: (Units=GPa)
#
#
# Indices 1 2 3 4 5 6 
#
# 1 77.5904 22.0340 34.4159 0.0000 9.1653 0.0000
# 2 22.0340 140.3012 42.1336 0.0000 -4.6363 0.0000
# 3 34.4159 42.1336 119.0656 0.0000 10.9771 0.0000
# 4 0.0000 0.0000 0.0000 52.6568 0.0000 1.1256
# 5 9.1653 -4.6363 10.9771 0.0000 42.1076 0.0000
# 6 0.0000 0.0000 0.0000 1.1256 0.0000 26.5785
#
#
#
# Elastic Compliance Matrix: (Units=1/GPa)
#
#
# Indices 1 2 3 4 5 6 
#
# 1 0.015204 -0.001365 -0.003681 0.000000 -0.002500 0.000000
# 2 -0.001365 0.008212 -0.002687 0.000000 0.001902 0.000000
# 3 -0.003681 -0.002687 0.010622 0.000000 -0.002264 0.000000
# 4 0.000000 0.000000 0.000000 0.019008 0.000000 -0.000805
# 5 -0.002500 0.001902 -0.002264 0.000000 0.025092 0.000000
# 6 0.000000 0.000000 0.000000 -0.000805 0.000000 0.037658
#
#
# Mechanical properties :
#
#
# Convention : Reuss Voigt Hill
#
# Bulk Modulus (GPa) = 53.84377 59.34714 56.59545
# Shear Modulus (GPa) = 36.37615 40.16016 38.26816
#
# Velocity S-wave (km/s) = 3.70281 3.89064 3.79788
# Velocity P-wave (km/s) = 6.21093 6.52317 6.36896
#
# Compressibility (1/GPa) = 0.01857225
#
# Stress axis : x y z
#
# Youngs Moduli (GPa) = 65.77245 121.78011 94.14250
#
# Poissons Ratio (x) = 0.16621 0.34656
# Poissons Ratio (y) = 0.08977 0.25292
# Poissons Ratio (z) = 0.24212 0.32717
#
# Static dielectric constant tensor:
#      x y z
#    x 2.282650 0.000000 0.038660 
#    y 0.000000 2.175870 0.000000 
#    z 0.038660 0.000000 2.155850 
# 
# From -- ./inp_files/158811.got.cif
#   From: 2010.05.17/outbox.cif.g08.bks.cpg/sg15_80_cif.got.tgz:158811.got - 2010.06.03 18:47:42.
