data_PCOD9279157
_publ_section_title
;
Structure prediction by ZEFSAII (Michael W. Deem and Ramdas Pophale) SiO2 
 PCOD9279157
Probable space group: C 2/C
;
_chemical_formula_sum "Si O2"
_cell_formula_units_Z 52
_cell_length_a 22.768582
_cell_length_b 5.600745
_cell_length_c 20.942163
_cell_angle_alpha 90.000000
_cell_angle_beta 104.883955
_cell_angle_gamma 90.000000
_cell_volume 2580.963322
_symmetry_space_group_name_H-M "C 2/C"
_symmetry_group_IT_number 15
_symmetry_cell_setting 'monoclinic'
loop_
_space_group_symop_operation_xyz
x,y,z
-x,y,1/2-z
-x,-y,-z
x,-y,1/2+z
1/2+x,1/2+y,z
1/2-x,1/2+y,1/2-z
1/2-x,1/2-y,-z
1/2+x,1/2-y,1/2+z
loop_
_atom_site_type_symbol
_atom_site_label
_atom_site_fract_x
_atom_site_fract_y
_atom_site_fract_z
Si Si1 0.480425 0.650371 0.136576
Si Si2 0.000000 0.789906 0.250000
Si Si3 0.732949 0.891468 0.828181
Si Si4 0.068893 0.520291 0.593326
Si Si5 0.603238 0.031329 0.350341
Si Si6 0.549017 0.727184 0.962300
Si Si7 0.297499 0.110298 0.331196
O O1 0.508426 0.451998 0.190034
O O2 0.532065 0.844218 0.138603
O O3 0.420565 0.760196 0.152306
O O4 0.458477 0.542542 0.063260
O O5 0.059755 0.643091 0.284075
O O6 0.672308 0.922494 0.852904
O O7 0.713553 0.891962 0.748118
O O8 0.772379 0.133801 0.848634
O O9 0.765233 0.633988 0.848092
O O10 0.078463 0.705261 0.537508
O O11 0.131644 0.412874 0.633336
O O12 0.019665 0.328125 0.556277
O O13 0.584606 0.144392 0.413698
#
# Coordination Sequence:
#
# PCOD9279157 Si02
#       7
#     8   4   8   8   8   8   8
#     4  10  21  34  60  91 121 159 195 258 315 369
#     4  10  22  32  56  96 118 158 200 250 334 364
#     4  10  24  42  61  89 126 162 213 260 307 379
#     4  10  21  39  63  88 125 157 214 249 308 375
#     4  10  22  38  58  89 125 155 203 261 314 366
#     4   9  21  39  60  94 120 160 199 263 311 364
#     4  10  24  41  63  89 119 174 207 255 316 369
#
# _framework density 20.147516
#
# number of rings (size 3 to 8) (size 9 to 14) (size 15 to 20)
#    0.000    2.154    0.000    0.923   15.077    1.231 
#    0.000    1.538    0.000    0.000    0.000    0.000 
#    0.000    0.000    0.000    0.000    0.000    0.000 
#
# Total GULP energy -145099.381384 kJ/mol
# GULP energy per Si atom -5580.745438 kJ/mol
# Density = 2.010166 g / cm^3
# Si number density = 20.147516 Si / 1000 Ang^3
#
#
#
# Elastic Constant Matrix: (Units=GPa)
#
#
# Indices 1 2 3 4 5 6 
#
# 1 96.5837 20.1818 1.0900 0.0000 -4.9331 0.0000
# 2 20.1818 77.1670 5.6148 0.0000 -3.8578 0.0000
# 3 1.0900 5.6148 28.6387 0.0000 -6.3767 0.0000
# 4 0.0000 0.0000 0.0000 33.1039 0.0000 -3.5795
# 5 -4.9331 -3.8578 -6.3767 0.0000 25.9302 0.0000
# 6 0.0000 0.0000 0.0000 -3.5795 0.0000 13.5568
#
#
#
# Elastic Compliance Matrix: (Units=1/GPa)
#
#
# Indices 1 2 3 4 5 6 
#
# 1 0.011032 -0.002834 0.000539 0.000000 0.001810 0.000000
# 2 -0.002834 0.013923 -0.002413 0.000000 0.000939 0.000000
# 3 0.000539 -0.002413 0.037359 0.000000 0.008931 0.000000
# 4 0.000000 0.000000 0.000000 0.031096 0.000000 0.008211
# 5 0.001810 0.000939 0.008931 0.000000 0.041245 0.000000
# 6 0.000000 0.000000 0.000000 0.008211 0.000000 0.075932
#
#
# Mechanical properties :
#
#
# Convention : Reuss Voigt Hill
#
# Bulk Modulus (GPa) = 18.90444 28.46250 23.68347
# Shear Modulus (GPa) = 21.04069 26.21838 23.62953
#
# Velocity S-wave (km/s) = 3.23512 3.61130 3.42837
# Velocity P-wave (km/s) = 4.83301 5.61661 5.23948
#
# Compressibility (1/GPa) = 0.05289762
#
# Stress axis : x y z
#
# Youngs Moduli (GPa) = 90.64325 71.82572 26.76742
#
# Poissons Ratio (x) = 0.20356 -0.01442
# Poissons Ratio (y) = 0.25689 0.06458
# Poissons Ratio (z) = -0.04883 0.17329
#
# Static dielectric constant tensor:
#      x y z
#    x 1.667250 0.000000 -0.032730 
#    y 0.000000 1.811820 0.000000 
#    z -0.032730 0.000000 1.722940 
# 
# From -- ./inp_files/251048.got.cif
#   From: 2010.05.17/outbox.cif.g08.bks.cpg/sg15_126_cif.got.tgz:251048.got - 2010.06.03 18:47:42.
