data_PCOD9279803
_publ_section_title
;
Structure prediction by ZEFSAII (Michael W. Deem and Ramdas Pophale) SiO2 
 PCOD9279803
Probable space group: C 2/C
;
_chemical_formula_sum "Si O2"
_cell_formula_units_Z 52
_cell_length_a 13.691103
_cell_length_b 33.572649
_cell_length_c 8.080730
_cell_angle_alpha 90.000000
_cell_angle_beta 44.204017
_cell_angle_gamma 90.000000
_cell_volume 2589.653104
_symmetry_space_group_name_H-M "C 2/C"
_symmetry_group_IT_number 15
_symmetry_cell_setting 'monoclinic'
loop_
_space_group_symop_operation_xyz
x,y,z
-x,y,1/2-z
-x,-y,-z
x,-y,1/2+z
1/2+x,1/2+y,z
1/2-x,1/2+y,1/2-z
1/2-x,1/2-y,-z
1/2+x,1/2-y,1/2+z
loop_
_atom_site_type_symbol
_atom_site_label
_atom_site_fract_x
_atom_site_fract_y
_atom_site_fract_z
Si Si1 0.988002 0.138235 0.963417
Si Si2 0.500000 0.164811 0.750000
Si Si3 0.703258 0.883079 0.390432
Si Si4 0.859113 0.295761 0.142515
Si Si5 0.191314 0.392406 0.802802
Si Si6 0.042132 0.226670 0.006375
Si Si7 0.506716 0.045855 0.042875
O O1 0.000000 0.136281 0.750000
O O2 0.133299 0.120816 0.857071
O O3 0.846467 0.115297 0.181712
O O4 0.980558 0.184457 0.021438
O O5 0.617844 0.191222 0.695159
O O6 0.586061 0.138549 0.515436
O O7 0.638091 0.838939 0.446381
O O8 0.694609 0.888790 0.598848
O O9 0.628392 0.919336 0.382689
O O10 0.709511 0.276310 0.290201
O O11 0.980264 0.263144 0.975523
O O12 0.121952 0.435339 0.904336
O O13 0.000000 0.230410 0.250000
O O14 0.500000 0.044568 0.250000
O O15 0.500000 0.000000 0.000000
#
# Coordination Sequence:
#
# PCOD9279803 Si02
#       7
#     8   4   8   8   8   8   8
#     4   9  20  40  60  81 110 152 193 228 278 333
#     4  12  22  34  60  82 110 150 194 230 282 332
#     4   9  20  42  59  82 115 147 186 234 278 329
#     4  11  23  35  54  78 112 152 188 236 279 330
#     4  10  21  38  62  84 110 150 187 229 281 334
#     4  11  22  36  51  80 116 147 190 238 283 324
#     4  10  21  36  59  88 116 144 180 228 274 333
#
# _framework density 20.079910000000002
#
# number of rings (size 3 to 8) (size 9 to 14) (size 15 to 20)
#    0.000    1.846    2.308    1.385    3.231    0.000 
#    2.769    3.077    0.000    0.000    0.000    0.000 
#    0.000    0.000    0.000    0.000    0.000    0.000 
#
# Total GULP energy -144853.311208 kJ/mol
# GULP energy per Si atom -5571.281200 kJ/mol
# Density = 2.003421 g / cm^3
# Si number density = 20.079910 Si / 1000 Ang^3
#
#
#
# Elastic Constant Matrix: (Units=GPa)
#
#
# Indices 1 2 3 4 5 6 
#
# 1 85.1591 73.2697 30.4274 0.0000 -37.4287 0.0000
# 2 73.2697 176.6982 39.3412 0.0000 -45.5076 0.0000
# 3 30.4274 39.3412 49.4691 0.0000 -30.9192 0.0000
# 4 0.0000 0.0000 0.0000 16.1586 0.0000 -1.4548
# 5 -37.4287 -45.5076 -30.9192 0.0000 29.0999 0.0000
# 6 0.0000 0.0000 0.0000 -1.4548 0.0000 34.0485
#
#
#
# Elastic Compliance Matrix: (Units=1/GPa)
#
#
# Indices 1 2 3 4 5 6 
#
# 1 0.032429 -0.003116 0.016540 0.000000 0.054411 0.000000
# 2 -0.003116 0.010235 0.003799 0.000000 0.016035 0.000000
# 3 0.016540 0.003799 0.071538 0.000000 0.103225 0.000000
# 4 0.000000 0.000000 0.000000 0.062125 0.000000 0.002655
# 5 0.054411 0.016035 0.103225 0.000000 0.239103 0.000000
# 6 0.000000 0.000000 0.000000 0.002655 0.000000 0.029483
#
#
# Mechanical properties :
#
#
# Convention : Reuss Voigt Hill
#
# Bulk Modulus (GPa) = 6.72732 66.37810 36.55271
# Shear Modulus (GPa) = 10.86915 27.08061 18.97488
#
# Velocity S-wave (km/s) = 2.32910 3.67637 3.07737
# Velocity P-wave (km/s) = 3.25430 7.15190 5.55608
#
# Compressibility (1/GPa) = 0.14864750
#
# Stress axis : x y z
#
# Youngs Moduli (GPa) = 30.83704 97.70015 13.97858
#
# Poissons Ratio (x) = 0.30445 -0.23121
# Poissons Ratio (y) = 0.09609 -0.05310
# Poissons Ratio (z) = -0.51005 -0.37116
#
# Static dielectric constant tensor:
#      x y z
#    x 1.768660 0.000000 0.004070 
#    y 0.000000 1.730000 0.000000 
#    z 0.004070 0.000000 1.759970 
# 
# From -- ./inp_files/44774.got.cif
#   From: 2010.05.17/outbox.cif.g08.bks.cpg/sg15_23_cif.got.tgz:44774.got - 2010.06.03 18:47:42.
