data_PCOD9279020
_publ_section_title
;
Structure prediction by ZEFSAII (Michael W. Deem and Ramdas Pophale) SiO2 
 PCOD9279020
Probable space group: C 2/C
;
_chemical_formula_sum "Si O2"
_cell_formula_units_Z 48
_cell_length_a 5.337437
_cell_length_b 28.602927
_cell_length_c 14.547501
_cell_angle_alpha 90.000000
_cell_angle_beta 80.818263
_cell_angle_gamma 90.000000
_cell_volume 2192.457285
_symmetry_space_group_name_H-M "C 2/C"
_symmetry_group_IT_number 15
_symmetry_cell_setting 'monoclinic'
loop_
_space_group_symop_operation_xyz
x,y,z
-x,y,1/2-z
-x,-y,-z
x,-y,1/2+z
1/2+x,1/2+y,z
1/2-x,1/2+y,1/2-z
1/2-x,1/2-y,-z
1/2+x,1/2-y,1/2+z
loop_
_atom_site_type_symbol
_atom_site_label
_atom_site_fract_x
_atom_site_fract_y
_atom_site_fract_z
Si Si1 0.935080 0.386907 0.660199
Si Si2 0.844118 0.267391 0.137562
Si Si3 0.987500 0.554045 0.528243
Si Si4 0.452810 0.661141 0.109613
Si Si5 0.169050 0.196221 0.848123
Si Si6 0.537351 0.397884 0.416657
O O1 0.665747 0.362022 0.662205
O O2 0.000000 0.414628 0.750000
O O3 0.974100 0.418643 0.569608
O O4 0.160591 0.349287 0.650013
O O5 0.581377 0.277265 0.100368
O O6 0.754422 0.279131 0.247742
O O7 0.962980 0.216743 0.116126
O O8 0.079141 0.301832 0.103576
O O9 0.716503 0.571897 0.582508
O O10 0.000000 0.500000 0.500000
O O11 0.220852 0.569355 0.579175
O O12 0.497398 0.634941 0.009924
O O13 0.097920 0.142197 0.839473
#
# Coordination Sequence:
#
# PCOD9279020 Si02
#       6
#     8   8   8   8   8   8
#     4  10  21  34  58  84 117 141 184 241 292 334
#     4  10  21  34  52  79 115 159 201 224 265 330
#     4  10  21  40  64  86 111 145 188 239 298 357
#     4  10  21  34  54  86 113 154 191 234 279 324
#     4  10  21  34  53  78 116 152 196 230 276 328
#     4  10  21  38  58  86 114 150 188 240 291 338
#
# _framework density 21.893243999999999
#
# number of rings (size 3 to 8) (size 9 to 14) (size 15 to 20)
#    0.000    2.000    0.000    3.000    7.000    1.333 
#    0.000    0.000   11.000    0.000    0.000    0.000 
#    0.000    0.000    0.000    0.000    0.000    0.000 
#
# Total GULP energy -133885.995751 kJ/mol
# GULP energy per Si atom -5578.583156 kJ/mol
# Density = 2.184341 g / cm^3
# Si number density = 21.893244 Si / 1000 Ang^3
#
#
#
# Elastic Constant Matrix: (Units=GPa)
#
#
# Indices 1 2 3 4 5 6 
#
# 1 196.7867 54.6466 27.0371 0.0000 -27.6320 0.0000
# 2 54.6466 126.7471 4.8249 0.0000 -16.1568 0.0000
# 3 27.0371 4.8249 31.0335 0.0000 7.7554 0.0000
# 4 0.0000 0.0000 0.0000 -5.5216 0.0000 -6.8989
# 5 -27.6320 -16.1568 7.7554 0.0000 21.7942 0.0000
# 6 0.0000 0.0000 0.0000 -6.8989 0.0000 25.5019
#
#
#
# Elastic Compliance Matrix: (Units=1/GPa)
#
#
# Indices 1 2 3 4 5 6 
#
# 1 0.009097 -0.001672 -0.011237 0.000000 0.014292 0.000000
# 2 -0.001672 0.009332 -0.001309 0.000000 0.005263 0.000000
# 3 -0.011237 -0.001309 0.050512 0.000000 -0.033192 0.000000
# 4 0.000000 0.000000 0.000000 -0.135355 0.000000 -0.036617
# 5 0.014292 0.005263 -0.033192 0.000000 0.079718 0.000000
# 6 0.000000 0.000000 0.000000 -0.036617 0.000000 0.029307
#
#
# Mechanical properties :
#
#
# Convention : Reuss Voigt Hill
#
# Bulk Modulus (GPa) = 24.68963 58.62050 41.65507
# Shear Modulus (GPa) = 59.13856 26.22548 42.68202
#
# Velocity S-wave (km/s) = 5.20297 3.46480 4.42016
# Velocity P-wave (km/s) = 6.88450 6.54524 6.71701
#
# Compressibility (1/GPa) = 0.04050283
#
# Stress axis : x y z
#
# Youngs Moduli (GPa) = 109.92814 107.16345 19.79740
#
# Poissons Ratio (x) = 0.17922 0.22247
# Poissons Ratio (y) = 0.18385 0.02592
# Poissons Ratio (z) = 1.23528 0.14029
#
# Static dielectric constant tensor:
#      x y z
#    x 2.675770 0.000000 0.494370 
#    y 0.000000 1.770760 0.000000 
#    z 0.494370 0.000000 2.298590 
# 
# From -- ./inp_files/185476.got.cif
#   From: 2010.05.17/outbox.cif.g08.bks.cpg/sg15_93_cif.got.tgz:185476.got - 2010.06.03 18:47:42.
