data_PCOD9279569
_publ_section_title
;
Structure prediction by ZEFSAII (Michael W. Deem and Ramdas Pophale) SiO2 
 PCOD9279569
Probable space group: C 2/C
;
_chemical_formula_sum "Si O2"
_cell_formula_units_Z 40
_cell_length_a 25.205391
_cell_length_b 8.904062
_cell_length_c 18.979616
_cell_angle_alpha 90.000000
_cell_angle_beta 158.210994
_cell_angle_gamma 90.000000
_cell_volume 1581.120307
_symmetry_space_group_name_H-M "C 2/C"
_symmetry_group_IT_number 15
_symmetry_cell_setting 'monoclinic'
loop_
_space_group_symop_operation_xyz
x,y,z
-x,y,1/2-z
-x,-y,-z
x,-y,1/2+z
1/2+x,1/2+y,z
1/2-x,1/2+y,1/2-z
1/2-x,1/2-y,-z
1/2+x,1/2-y,1/2+z
loop_
_atom_site_type_symbol
_atom_site_label
_atom_site_fract_x
_atom_site_fract_y
_atom_site_fract_z
Si Si1 0.189850 0.159672 0.036176
Si Si2 0.615060 0.770178 0.137044
Si Si3 0.140255 0.412254 0.609306
Si Si4 0.633603 0.628474 0.371183
Si Si5 0.575423 0.380479 0.205812
O O1 0.277627 0.119324 0.215450
O O2 0.272756 0.300499 0.107308
O O3 0.028504 0.187441 0.862313
O O4 0.190257 0.013463 0.986984
O O5 0.764147 0.680744 0.328645
O O6 0.639263 0.906623 0.109573
O O7 0.521492 0.851343 0.082218
O O8 0.505504 0.653826 0.966081
O O9 0.500000 0.689839 0.250000
O O10 0.750000 0.750000 0.500000
O O11 0.583623 0.553221 0.236475
#
# Coordination Sequence:
#
# PCOD9279569 Si02
#       5
#     8   8   8   8   8
#     4   9  18  34  54  77 104 136 175 216 259 313
#     4   9  18  34  53  76 105 139 177 218 264 312
#     4   9  18  34  53  77 108 140 178 221 261 313
#     4  10  21  36  53  77 107 134 171 221 267 314
#     4   9  18  34  55  76 102 137 175 212 258 318
#
# _framework density 25.298518999999999
#
# number of rings (size 3 to 8) (size 9 to 14) (size 15 to 20)
#    0.000    2.800    0.000    0.600    0.000    2.400 
#    0.000   24.000    0.000    0.000    0.000    0.000 
#    0.000    0.000    0.000    0.000    0.000    0.000 
#
# Total GULP energy -111867.995842 kJ/mol
# GULP energy per Si atom -5593.399792 kJ/mol
# Density = 2.524094 g / cm^3
# Si number density = 25.298519 Si / 1000 Ang^3
#
#
#
# Elastic Constant Matrix: (Units=GPa)
#
#
# Indices 1 2 3 4 5 6 
#
# 1 65.4249 39.2594 35.9904 0.0000 26.4276 0.0000
# 2 39.2594 119.3244 52.8093 0.0000 42.2253 0.0000
# 3 35.9904 52.8093 97.2942 0.0000 51.4794 0.0000
# 4 0.0000 0.0000 0.0000 57.5149 0.0000 11.8234
# 5 26.4276 42.2253 51.4794 0.0000 62.7881 0.0000
# 6 0.0000 0.0000 0.0000 11.8234 0.0000 39.7385
#
#
#
# Elastic Compliance Matrix: (Units=1/GPa)
#
#
# Indices 1 2 3 4 5 6 
#
# 1 0.021155 -0.004174 -0.004122 0.000000 -0.002717 0.000000
# 2 -0.004174 0.012599 -0.003075 0.000000 -0.004195 0.000000
# 3 -0.004122 -0.003075 0.020240 0.000000 -0.012792 0.000000
# 4 0.000000 0.000000 0.000000 0.018520 0.000000 -0.005510
# 5 -0.002717 -0.004195 -0.012792 0.000000 0.030379 0.000000
# 6 0.000000 0.000000 0.000000 -0.005510 0.000000 0.026804
#
#
# Mechanical properties :
#
#
# Convention : Reuss Voigt Hill
#
# Bulk Modulus (GPa) = 31.99809 59.79575 45.89692
# Shear Modulus (GPa) = 30.70185 42.27394 36.48790
#
# Velocity S-wave (km/s) = 3.48743 4.09223 3.80187
# Velocity P-wave (km/s) = 5.37512 6.78350 6.11996
#
# Compressibility (1/GPa) = 0.03125186
#
# Stress axis : x y z
#
# Youngs Moduli (GPa) = 47.27087 79.36964 49.40666
#
# Poissons Ratio (x) = 0.33132 0.20365
# Poissons Ratio (y) = 0.19733 0.15192
# Poissons Ratio (z) = 0.19485 0.24405
#
# Static dielectric constant tensor:
#      x y z
#    x 2.086020 0.000000 -0.028700 
#    y 0.000000 1.958240 0.000000 
#    z -0.028700 0.000000 2.025150 
# 
# From -- ./inp_files/60078.got.cif
#   From: 2010.05.17/outbox.cif.g08.bks.cpg/sg15_31_cif.got.tgz:60078.got - 2010.06.03 18:47:42.
