data_PCOD9279881
_publ_section_title
;
Structure prediction by ZEFSAII (Michael W. Deem and Ramdas Pophale) SiO2 
 PCOD9279881
Probable space group: C 2/C
;
_chemical_formula_sum "Si O2"
_cell_formula_units_Z 36
_cell_length_a 15.252189
_cell_length_b 14.184793
_cell_length_c 18.805569
_cell_angle_alpha 90.000000
_cell_angle_beta 160.056230
_cell_angle_gamma 90.000000
_cell_volume 1387.779711
_symmetry_space_group_name_H-M "C 2/C"
_symmetry_group_IT_number 15
_symmetry_cell_setting 'monoclinic'
loop_
_space_group_symop_operation_xyz
x,y,z
-x,y,1/2-z
-x,-y,-z
x,-y,1/2+z
1/2+x,1/2+y,z
1/2-x,1/2+y,1/2-z
1/2-x,1/2-y,-z
1/2+x,1/2-y,1/2+z
loop_
_atom_site_type_symbol
_atom_site_label
_atom_site_fract_x
_atom_site_fract_y
_atom_site_fract_z
Si Si1 0.181398 0.814882 0.146205
Si Si2 0.325716 0.388037 0.761481
Si Si3 0.758073 0.217966 0.437218
Si Si4 0.542291 0.976075 0.438567
Si Si5 0.500000 0.028925 0.250000
O O1 0.314530 0.718777 0.223681
O O2 0.372825 0.885149 0.332056
O O3 0.066352 0.880054 0.996807
O O4 0.956008 0.772432 0.023191
O O5 0.103592 0.431212 0.644586
O O6 0.307069 0.459428 0.681596
O O7 0.731845 0.104161 0.419590
O O8 0.962998 0.252640 0.663486
O O9 0.555398 0.975802 0.364447
#
# Coordination Sequence:
#
# PCOD9279881 Si02
#       5
#     8   8   8   8   4
#     4  12  21  43  68  93 128 174 211 259 331 382
#     4  11  23  39  69  96 121 173 215 264 310 398
#     4  10  21  36  60  94 129 154 200 266 332 377
#     4  11  24  42  67  91 132 168 220 261 320 381
#     4  10  22  42  56  94 134 160 210 280 302 372
#
# _framework density 25.940715999999998
#
# number of rings (size 3 to 8) (size 9 to 14) (size 15 to 20)
#    0.667    0.444    4.444    3.333    0.000    0.000 
#    0.000    2.222    0.000    0.000    0.000    0.000 
#    0.000    0.000    0.000    0.000    0.000    0.000 
#
# Total GULP energy -100299.335963 kJ/mol
# GULP energy per Si atom -5572.185331 kJ/mol
# Density = 2.588167 g / cm^3
# Si number density = 25.940716 Si / 1000 Ang^3
#
#
#
# Elastic Constant Matrix: (Units=GPa)
#
#
# Indices 1 2 3 4 5 6 
#
# 1 99.2039 -2.7705 41.2128 -0.1190 -45.0463 -0.0152
# 2 -2.7705 100.0654 43.0867 -0.5326 0.8944 -0.1468
# 3 41.2128 43.0867 119.8252 -0.5171 -28.1221 -0.1403
# 4 -0.1190 -0.5326 -0.5171 58.3714 -0.0355 -15.2492
# 5 -45.0463 0.8944 -28.1221 -0.0355 42.2502 0.0346
# 6 -0.0152 -0.1468 -0.1403 -15.2492 0.0346 32.3746
#
#
#
# Elastic Compliance Matrix: (Units=1/GPa)
#
#
# Indices 1 2 3 4 5 6 
#
# 1 0.020251 0.001664 -0.002968 0.000043 0.019580 0.000003
# 2 0.001664 0.012456 -0.005566 0.000086 -0.002194 0.000076
# 3 -0.002968 -0.005566 0.012625 0.000073 0.005357 0.000057
# 4 0.000043 0.000086 0.000073 0.019538 0.000102 0.009203
# 5 0.019580 -0.002194 0.005357 0.000102 0.048157 0.000019
# 6 0.000003 0.000076 0.000057 0.009203 0.000019 0.035224
#
#
# Mechanical properties :
#
#
# Convention : Reuss Voigt Hill
#
# Bulk Modulus (GPa) = 31.65297 53.57249 42.61273
# Shear Modulus (GPa) = 28.98195 42.43695 35.70945
#
# Velocity S-wave (km/s) = 3.34614 4.04904 3.71425
# Velocity P-wave (km/s) = 5.21127 6.52352 5.90397
#
# Compressibility (1/GPa) = 0.03159261
#
# Stress axis : x y z
#
# Youngs Moduli (GPa) = 49.38104 80.28084 79.20645
#
# Poissons Ratio (x) = -0.13357 0.23506
# Poissons Ratio (y) = -0.08216 0.44085
# Poissons Ratio (z) = 0.14655 0.44683
#
# Static dielectric constant tensor:
#      x y z
#    x 2.079300 -0.000020 -0.041030 
#    y -0.000020 1.922830 -0.000080 
#    z -0.041030 -0.000080 2.351490 
# 
# From -- ./inp_files/249154.got.cif
#   From: 2010.05.17/outbox.cif.g08.bks.cpg/sg15_125_cif.got.tgz:249154.got - 2010.06.03 18:47:42.
