data_PCOD9279808
_publ_section_title
;
Structure prediction by ZEFSAII (Michael W. Deem and Ramdas Pophale) SiO2 
 PCOD9279808
Probable space group: C 2/C
;
_chemical_formula_sum "Si O2"
_cell_formula_units_Z 48
_cell_length_a 12.252485
_cell_length_b 23.321644
_cell_length_c 10.847689
_cell_angle_alpha 90.000000
_cell_angle_beta 130.677733
_cell_angle_gamma 90.000000
_cell_volume 2350.779261
_symmetry_space_group_name_H-M "C 2/C"
_symmetry_group_IT_number 15
_symmetry_cell_setting 'monoclinic'
loop_
_space_group_symop_operation_xyz
x,y,z
-x,y,1/2-z
-x,-y,-z
x,-y,1/2+z
1/2+x,1/2+y,z
1/2-x,1/2+y,1/2-z
1/2-x,1/2-y,-z
1/2+x,1/2-y,1/2+z
loop_
_atom_site_type_symbol
_atom_site_label
_atom_site_fract_x
_atom_site_fract_y
_atom_site_fract_z
Si Si1 0.572247 0.048704 0.189568
Si Si2 0.729032 0.968706 0.124913
Si Si3 0.666896 0.419885 0.911342
Si Si4 0.771896 0.857260 0.793832
Si Si5 0.099521 0.126729 0.626117
Si Si6 0.655753 0.254949 0.308090
O O1 0.500000 0.016939 0.250000
O O2 0.657156 0.105638 0.287319
O O3 0.688991 0.010236 0.208579
O O4 0.426569 0.061914 0.006249
O O5 0.855279 0.925361 0.251031
O O6 0.773506 0.015134 0.053983
O O7 0.500000 0.424222 0.750000
O O8 0.734157 0.381600 0.850371
O O9 0.674469 0.389777 0.050188
O O10 0.720246 0.792394 0.763854
O O11 0.930400 0.866677 0.968073
O O12 0.148929 0.184482 0.731672
O O13 0.500000 0.242307 0.250000
O O14 0.750000 0.250000 0.500000
#
# Coordination Sequence:
#
# PCOD9279808 Si02
#       6
#     8   8   8   8   8   8
#     4  10  21  36  59  88 129 168 207 257 315 372
#     4  10  22  37  61  96 129 169 210 261 316 376
#     4   9  21  42  64  95 130 169 221 257 319 386
#     4  10  23  42  64  93 127 171 214 268 317 381
#     4  11  24  42  67  94 129 170 217 267 317 382
#     4  12  26  45  67  97 125 165 218 268 327 386
#
# _framework density 20.418759999999999
#
# number of rings (size 3 to 8) (size 9 to 14) (size 15 to 20)
#    0.000    1.667    1.667    1.500    4.667    8.667 
#    0.000    0.000    0.000    0.000    0.000    0.000 
#    0.000    0.000    0.000    0.000    0.000    0.000 
#
# Total GULP energy -133761.438909 kJ/mol
# GULP energy per Si atom -5573.393288 kJ/mol
# Density = 2.037229 g / cm^3
# Si number density = 20.418760 Si / 1000 Ang^3
#
#
#
# Elastic Constant Matrix: (Units=GPa)
#
#
# Indices 1 2 3 4 5 6 
#
# 1 89.0116 62.4334 30.5367 0.0000 3.2409 0.0000
# 2 62.4334 125.6608 69.4715 0.0000 -4.8192 0.0000
# 3 30.5367 69.4715 105.2320 0.0000 2.6011 0.0000
# 4 0.0000 0.0000 0.0000 21.5732 0.0000 3.3470
# 5 3.2409 -4.8192 2.6011 0.0000 11.6886 0.0000
# 6 0.0000 0.0000 0.0000 3.3470 0.0000 32.7313
#
#
#
# Elastic Compliance Matrix: (Units=1/GPa)
#
#
# Indices 1 2 3 4 5 6 
#
# 1 0.018327 -0.010514 0.001866 0.000000 -0.009832 0.000000
# 2 -0.010514 0.019169 -0.009926 0.000000 0.013028 0.000000
# 3 0.001866 -0.009926 0.015714 0.000000 -0.008107 0.000000
# 4 0.000000 0.000000 0.000000 0.047101 0.000000 -0.004816
# 5 -0.009832 0.013028 -0.008107 0.000000 0.095455 0.000000
# 6 0.000000 0.000000 0.000000 -0.004816 0.000000 0.031044
#
#
# Mechanical properties :
#
#
# Convention : Reuss Voigt Hill
#
# Bulk Modulus (GPa) = 62.25710 71.64308 66.95009
# Shear Modulus (GPa) = 18.56571 23.69612 21.13092
#
# Velocity S-wave (km/s) = 3.01864 3.41032 3.22044
# Velocity P-wave (km/s) = 6.53498 7.11829 6.83286
#
# Compressibility (1/GPa) = 0.01606243
#
# Stress axis : x y z
#
# Youngs Moduli (GPa) = 54.56374 52.16745 63.63573
#
# Poissons Ratio (x) = 0.54851 -0.11875
# Poissons Ratio (y) = 0.57371 0.63164
# Poissons Ratio (z) = -0.10182 0.51780
#
# Static dielectric constant tensor:
#      x y z
#    x 1.750500 0.000000 -0.050700 
#    y 0.000000 1.744760 0.000000 
#    z -0.050700 0.000000 1.773220 
# 
# From -- ./inp_files/89797.got.cif
#   From: 2010.05.17/outbox.cif.g08.bks.cpg/sg15_45_cif.got.tgz:89797.got - 2010.06.03 18:47:42.
