data_PCOD9279323
_publ_section_title
;
Structure prediction by ZEFSAII (Michael W. Deem and Ramdas Pophale) SiO2 
 PCOD9279323
Probable space group: C 2/C
;
_chemical_formula_sum "Si O2"
_cell_formula_units_Z 40
_cell_length_a 5.293776
_cell_length_b 27.018125
_cell_length_c 18.012577
_cell_angle_alpha 90.000000
_cell_angle_beta 107.568730
_cell_angle_gamma 90.000000
_cell_volume 2456.130941
_symmetry_space_group_name_H-M "C 2/C"
_symmetry_group_IT_number 15
_symmetry_cell_setting 'monoclinic'
loop_
_space_group_symop_operation_xyz
x,y,z
-x,y,1/2-z
-x,-y,-z
x,-y,1/2+z
1/2+x,1/2+y,z
1/2-x,1/2+y,1/2-z
1/2-x,1/2-y,-z
1/2+x,1/2-y,1/2+z
loop_
_atom_site_type_symbol
_atom_site_label
_atom_site_fract_x
_atom_site_fract_y
_atom_site_fract_z
Si Si1 0.516466 0.110230 0.838126
Si Si2 0.533985 0.615061 0.512531
Si Si3 0.197879 0.717075 0.698188
Si Si4 0.459140 0.272760 0.960759
Si Si5 0.033600 0.557097 0.522045
O O1 0.500000 0.098079 0.750000
O O2 0.814835 0.120700 0.894355
O O3 0.359255 0.161451 0.836607
O O4 0.417144 0.067978 0.885675
O O5 0.472828 0.668663 0.474895
O O6 0.273800 0.582390 0.499884
O O7 0.758234 0.586524 0.484944
O O8 0.500000 0.720878 0.750000
O O9 0.131639 0.756066 0.628590
O O10 0.000000 0.723320 0.750000
O O11 0.250000 0.250000 0.000000
O O12 0.750000 0.250000 0.000000
O O13 0.000000 0.500000 0.500000
#
# Coordination Sequence:
#
# PCOD9279323 Si02
#       5
#     8   8   8   8   8
#     4   9  21  32  57  83 118 136 187 232 297 326
#     4  10  21  35  57  85 108 150 187 238 270 345
#     4  11  23  35  54  85 122 155 187 235 292 345
#     4  12  21  36  57  86 118 155 194 225 285 353
#     4  10  21  37  56  81 109 143 191 240 293 326
#
# _framework density 16.285775999999998
#
# number of rings (size 3 to 8) (size 9 to 14) (size 15 to 20)
#    1.200    0.400    2.000    4.200    8.400    0.000 
#    0.000    0.000    0.000    3.600    0.000    0.000 
#    0.000    0.000    0.000    0.000    0.000    0.000 
#
# Total GULP energy -111464.870414 kJ/mol
# GULP energy per Si atom -5573.243521 kJ/mol
# Density = 1.624871 g / cm^3
# Si number density = 16.285776 Si / 1000 Ang^3
#
#
#
# Elastic Constant Matrix: (Units=GPa)
#
#
# Indices 1 2 3 4 5 6 
#
# 1 153.7685 71.9453 45.7521 0.0000 23.1472 0.0000
# 2 71.9453 152.9197 73.8791 0.0000 14.8500 0.0000
# 3 45.7521 73.8791 88.3940 0.0000 2.0402 0.0000
# 4 0.0000 0.0000 0.0000 30.4521 0.0000 -2.7261
# 5 23.1472 14.8500 2.0402 0.0000 19.5220 0.0000
# 6 0.0000 0.0000 0.0000 -2.7261 0.0000 17.3736
#
#
#
# Elastic Compliance Matrix: (Units=1/GPa)
#
#
# Indices 1 2 3 4 5 6 
#
# 1 0.009927 -0.002267 -0.003019 0.000000 -0.009730 0.000000
# 2 -0.002267 0.012668 -0.009277 0.000000 -0.005979 0.000000
# 3 -0.003019 -0.009277 0.020433 0.000000 0.008501 0.000000
# 4 0.000000 0.000000 0.000000 0.033306 0.000000 0.005226
# 5 -0.009730 -0.005979 0.008501 0.000000 0.066421 0.000000
# 6 0.000000 0.000000 0.000000 0.005226 0.000000 0.058379
#
#
# Mechanical properties :
#
#
# Convention : Reuss Voigt Hill
#
# Bulk Modulus (GPa) = 71.92717 86.47057 79.19887
# Shear Modulus (GPa) = 21.28623 27.03659 24.16141
#
# Velocity S-wave (km/s) = 3.61923 4.07890 3.85592
# Velocity P-wave (km/s) = 7.85663 8.68298 8.28012
#
# Compressibility (1/GPa) = 0.01390295
#
# Stress axis : x y z
#
# Youngs Moduli (GPa) = 100.73619 78.93643 48.94117
#
# Poissons Ratio (x) = 0.17895 0.14774
# Poissons Ratio (y) = 0.22838 0.45402
# Poissons Ratio (z) = 0.30409 0.73227
#
# Static dielectric constant tensor:
#      x y z
#    x 1.572450 0.000000 0.004710 
#    y 0.000000 1.515810 0.000000 
#    z 0.004710 0.000000 1.528430 
# 
# From -- ./inp_files/185394.got.cif
#   From: 2010.05.17/outbox.cif.g08.bks.cpg/sg15_93_cif.got.tgz:185394.got - 2010.06.03 18:47:42.
