data_PCOD9279117
_publ_section_title
;
Structure prediction by ZEFSAII (Michael W. Deem and Ramdas Pophale) SiO2 
 PCOD9279117
Probable space group: C 2/C
;
_chemical_formula_sum "Si O2"
_cell_formula_units_Z 44
_cell_length_a 22.369362
_cell_length_b 18.730048
_cell_length_c 14.216376
_cell_angle_alpha 90.000000
_cell_angle_beta 161.236052
_cell_angle_gamma 90.000000
_cell_volume 1915.984162
_symmetry_space_group_name_H-M "C 2/C"
_symmetry_group_IT_number 15
_symmetry_cell_setting 'monoclinic'
loop_
_space_group_symop_operation_xyz
x,y,z
-x,y,1/2-z
-x,-y,-z
x,-y,1/2+z
1/2+x,1/2+y,z
1/2-x,1/2+y,1/2-z
1/2-x,1/2-y,-z
1/2+x,1/2-y,1/2+z
loop_
_atom_site_type_symbol
_atom_site_label
_atom_site_fract_x
_atom_site_fract_y
_atom_site_fract_z
Si Si1 0.522873 0.683169 0.651307
Si Si2 0.989814 0.028282 0.880303
Si Si3 0.590976 0.884164 0.168086
Si Si4 0.445809 0.029755 0.278541
Si Si5 0.294010 0.765677 0.721764
Si Si6 0.000000 0.089392 0.250000
O O1 0.426663 0.606118 0.512397
O O2 0.624532 0.694590 0.703725
O O3 0.358427 0.740349 0.423830
O O4 0.674271 0.697225 0.958558
O O5 0.773898 0.041517 0.537075
O O6 0.064677 0.966159 0.926548
O O7 0.000000 0.000000 0.000000
O O8 0.530556 0.949132 0.147207
O O9 0.813521 0.871404 0.505782
O O10 0.465302 0.815983 0.001999
O O11 0.544011 0.914329 0.993933
O O12 0.500000 0.036117 0.250000
#
# Coordination Sequence:
#
# PCOD9279117 Si02
#       6
#     8   8   8   8   8   4
#     4  10  22  38  61  92 122 163 202 256 314 369
#     4  11  22  36  60  93 127 160 201 254 309 376
#     4  10  21  38  61  88 126 166 199 261 311 367
#     4  10  21  34  57  94 125 159 205 251 311 373
#     4  10  21  40  62  87 127 159 205 256 312 373
#     4  10  22  38  60  92 128 160 202 260 314 366
#
# _framework density 22.964701000000002
#
# number of rings (size 3 to 8) (size 9 to 14) (size 15 to 20)
#    0.000    1.818    1.818    2.182    7.636    2.909 
#    0.000    0.000    0.000    9.818    2.364    0.000 
#    0.000    0.000    0.000    0.000    0.000    0.000 
#
# Total GULP energy -122944.735847 kJ/mol
# GULP energy per Si atom -5588.397084 kJ/mol
# Density = 2.291243 g / cm^3
# Si number density = 22.964701 Si / 1000 Ang^3
#
#
#
# Elastic Constant Matrix: (Units=GPa)
#
#
# Indices 1 2 3 4 5 6 
#
# 1 76.4153 -9.3034 -7.4220 0.0000 -0.9504 0.0000
# 2 -9.3034 33.1152 16.4528 0.0000 1.8382 0.0000
# 3 -7.4220 16.4528 74.8025 0.0000 27.2373 0.0000
# 4 0.0000 0.0000 0.0000 22.6808 0.0000 4.6228
# 5 -0.9504 1.8382 27.2373 0.0000 40.0844 0.0000
# 6 0.0000 0.0000 0.0000 4.6228 0.0000 17.5769
#
#
#
# Elastic Compliance Matrix: (Units=1/GPa)
#
#
# Indices 1 2 3 4 5 6 
#
# 1 0.013574 0.003487 0.000692 0.000000 -0.000308 0.000000
# 2 0.003487 0.035468 -0.009159 0.000000 0.004680 0.000000
# 3 0.000692 -0.009159 0.020321 0.000000 -0.013371 0.000000
# 4 0.000000 0.000000 0.000000 0.046587 0.000000 -0.012253
# 5 -0.000308 0.004680 -0.013371 0.000000 0.033811 0.000000
# 6 0.000000 0.000000 0.000000 -0.012253 0.000000 0.060115
#
#
# Mechanical properties :
#
#
# Convention : Reuss Voigt Hill
#
# Bulk Modulus (GPa) = 16.83431 20.42085 18.62758
# Shear Modulus (GPa) = 20.86475 28.37545 24.62010
#
# Velocity S-wave (km/s) = 3.01750 3.51894 3.27782
# Velocity P-wave (km/s) = 4.41439 5.04204 4.73862
#
# Compressibility (1/GPa) = 0.05940249
#
# Stress axis : x y z
#
# Youngs Moduli (GPa) = 73.66866 28.19434 49.21101
#
# Poissons Ratio (x) = -0.09831 -0.03407
# Poissons Ratio (y) = -0.25686 0.45074
# Poissons Ratio (z) = -0.05100 0.25824
#
# Static dielectric constant tensor:
#      x y z
#    x 1.866270 0.000000 0.018870 
#    y 0.000000 1.879270 0.000000 
#    z 0.018870 0.000000 1.863440 
# 
# From -- ./inp_files/174295.got.cif
#   From: 2010.05.17/outbox.cif.g08.bks.cpg/sg15_88_cif.got.tgz:174295.got - 2010.06.03 18:47:42.
