data_PCOD9279487
_publ_section_title
;
Structure prediction by ZEFSAII (Michael W. Deem and Ramdas Pophale) SiO2 
 PCOD9279487
Probable space group: C 2/C
;
_chemical_formula_sum "Si O2"
_cell_formula_units_Z 40
_cell_length_a 10.379554
_cell_length_b 17.494925
_cell_length_c 22.059846
_cell_angle_alpha 90.000000
_cell_angle_beta 156.383133
_cell_angle_gamma 90.000000
_cell_volume 1604.813453
_symmetry_space_group_name_H-M "C 2/C"
_symmetry_group_IT_number 15
_symmetry_cell_setting 'monoclinic'
loop_
_space_group_symop_operation_xyz
x,y,z
-x,y,1/2-z
-x,-y,-z
x,-y,1/2+z
1/2+x,1/2+y,z
1/2-x,1/2+y,1/2-z
1/2-x,1/2-y,-z
1/2+x,1/2-y,1/2+z
loop_
_atom_site_type_symbol
_atom_site_label
_atom_site_fract_x
_atom_site_fract_y
_atom_site_fract_z
Si Si1 0.375955 0.818986 0.928155
Si Si2 0.290532 0.448280 0.100324
Si Si3 0.652693 0.347561 0.574627
Si Si4 0.283410 0.436849 0.322999
Si Si5 0.152005 0.338737 0.448856
O O1 0.000000 0.820548 0.750000
O O2 0.616577 0.873665 0.995561
O O3 0.501617 0.732328 0.985582
O O4 0.410298 0.856966 0.009252
O O5 0.500000 0.430120 0.250000
O O6 0.542770 0.480207 0.158360
O O7 0.000000 0.500000 0.000000
O O8 0.574716 0.409957 0.491130
O O9 0.459263 0.375015 0.550254
O O10 0.000000 0.332127 0.750000
O O11 0.000000 0.462096 0.250000
O O12 0.123392 0.364474 0.216868
O O13 0.250000 0.250000 0.500000
#
# Coordination Sequence:
#
# PCOD9279487 Si02
#       5
#     8   8   8   8   8
#     4  11  22  38  63  96 135 182 221 278 337 409
#     4  12  26  47  70  95 130 179 239 286 334 396
#     4  10  21  35  62 102 138 174 217 269 351 426
#     4  10  22  44  67  97 140 177 218 284 347 411
#     4   9  18  35  59  91 136 171 212 265 342 416
#
# _framework density 24.925014999999998
#
# number of rings (size 3 to 8) (size 9 to 14) (size 15 to 20)
#    0.000    1.600    2.000    4.200    5.600    0.800 
#    0.000    1.000    0.000    0.000    0.000    0.000 
#    0.000    0.000    0.000    0.000    0.000    0.000 
#
# Total GULP energy -111459.306354 kJ/mol
# GULP energy per Si atom -5572.965318 kJ/mol
# Density = 2.486828 g / cm^3
# Si number density = 24.925015 Si / 1000 Ang^3
#
#
#
# Elastic Constant Matrix: (Units=GPa)
#
#
# Indices 1 2 3 4 5 6 
#
# 1 162.3984 15.9832 32.3973 0.0079 14.6674 -0.0008
# 2 15.9832 74.7354 34.3112 0.0230 3.3359 0.0038
# 3 32.3973 34.3112 197.6086 0.0497 12.8100 0.0164
# 4 0.0079 0.0230 0.0497 33.9974 0.0196 3.7299
# 5 14.6674 3.3359 12.8100 0.0196 33.5013 0.0009
# 6 -0.0008 0.0038 0.0164 3.7299 0.0009 30.0122
#
#
#
# Elastic Compliance Matrix: (Units=1/GPa)
#
#
# Indices 1 2 3 4 5 6 
#
# 1 0.006630 -0.000958 -0.000758 0.000002 -0.002518 0.000001
# 2 -0.000958 0.014686 -0.002384 -0.000006 -0.000131 0.000000
# 3 -0.000758 -0.002384 0.005703 -0.000005 -0.001612 -0.000002
# 4 0.000002 -0.000006 -0.000005 0.029821 -0.000015 -0.003706
# 5 -0.002518 -0.000131 -0.001612 -0.000015 0.031581 0.000002
# 6 0.000001 0.000000 -0.000002 -0.003706 0.000002 0.033780
#
#
# Mechanical properties :
#
#
# Convention : Reuss Voigt Hill
#
# Bulk Modulus (GPa) = 53.13470 66.68062 59.90766
# Shear Modulus (GPa) = 36.58317 42.97223 39.77770
#
# Velocity S-wave (km/s) = 3.83525 4.15668 3.99920
# Velocity P-wave (km/s) = 6.40127 7.06031 6.73885
#
# Compressibility (1/GPa) = 0.01882009
#
# Stress axis : x y z
#
# Youngs Moduli (GPa) = 150.81830 68.09233 175.34058
#
# Poissons Ratio (x) = 0.06522 0.13282
# Poissons Ratio (y) = 0.14446 0.41808
# Poissons Ratio (z) = 0.11425 0.16236
#
# Static dielectric constant tensor:
#      x y z
#    x 2.132820 -0.000020 0.064560 
#    y -0.000020 2.236150 -0.000050 
#    z 0.064560 -0.000050 1.982860 
# 
# From -- ./inp_files/270995.got.cif
#   From: 2010.05.17/outbox.cif.g08.bks.cpg/sg15_136_cif.got.tgz:270995.got - 2010.06.03 18:47:42.
