data_PCOD9279928
_publ_section_title
;
Structure prediction by ZEFSAII (Michael W. Deem and Ramdas Pophale) SiO2 
 PCOD9279928
Probable space group: C 2/C
;
_chemical_formula_sum "Si O2"
_cell_formula_units_Z 40
_cell_length_a 10.047151
_cell_length_b 27.936891
_cell_length_c 7.300217
_cell_angle_alpha 90.000000
_cell_angle_beta 67.186132
_cell_angle_gamma 90.000000
_cell_volume 1888.769782
_symmetry_space_group_name_H-M "C 2/C"
_symmetry_group_IT_number 15
_symmetry_cell_setting 'monoclinic'
loop_
_space_group_symop_operation_xyz
x,y,z
-x,y,1/2-z
-x,-y,-z
x,-y,1/2+z
1/2+x,1/2+y,z
1/2-x,1/2+y,1/2-z
1/2-x,1/2-y,-z
1/2+x,1/2-y,1/2+z
loop_
_atom_site_type_symbol
_atom_site_label
_atom_site_fract_x
_atom_site_fract_y
_atom_site_fract_z
Si Si1 0.654608 0.631499 0.271337
Si Si2 0.346988 0.049982 0.745997
Si Si3 0.656836 0.155928 0.679296
Si Si4 0.338760 0.704171 0.890417
Si Si5 0.164006 0.028343 0.174327
O O1 0.500000 0.636057 0.250000
O O2 0.659967 0.664205 0.448573
O O3 0.671339 0.574312 0.304769
O O4 0.776595 0.646425 0.057476
O O5 0.500000 0.033923 0.750000
O O6 0.369871 0.105815 0.695741
O O7 0.284856 0.011895 0.638232
O O8 0.211535 0.050677 0.957182
O O9 0.500000 0.179771 0.750000
O O10 0.766183 0.184403 0.745340
O O11 0.500000 0.717627 0.750000
O O12 0.250000 0.750000 0.000000
O O13 0.000000 0.010318 0.250000
#
# Coordination Sequence:
#
# PCOD9279928 Si02
#       5
#     8   8   8   8   8
#     4  10  22  45  66  95 137 174 215 271 330 391
#     4  10  21  38  58  93 131 172 214 259 322 373
#     4  10  24  44  67  96 138 177 216 271 329 391
#     4  12  28  46  72 101 126 170 223 272 340 395
#     4  10  21  36  61  93 124 171 219 257 316 381
#
# _framework density 21.177804999999999
#
# number of rings (size 3 to 8) (size 9 to 14) (size 15 to 20)
#    0.000    1.600    2.000    1.200    5.600    2.400 
#    0.000    0.000    0.000    0.000    0.000    0.000 
#    0.000    0.000    0.000    0.000    0.000    0.000 
#
# Total GULP energy -111559.698017 kJ/mol
# GULP energy per Si atom -5577.984901 kJ/mol
# Density = 2.112960 g / cm^3
# Si number density = 21.177805 Si / 1000 Ang^3
#
#
#
# Elastic Constant Matrix: (Units=GPa)
#
#
# Indices 1 2 3 4 5 6 
#
# 1 128.4688 25.0670 27.3409 0.0000 -35.1650 0.0000
# 2 25.0670 55.0860 7.7443 0.0000 1.5248 0.0000
# 3 27.3409 7.7443 77.9455 0.0000 -23.5739 0.0000
# 4 0.0000 0.0000 0.0000 25.6798 0.0000 -10.2990
# 5 -35.1650 1.5248 -23.5739 0.0000 36.7194 0.0000
# 6 0.0000 0.0000 0.0000 -10.2990 0.0000 10.2314
#
#
#
# Elastic Compliance Matrix: (Units=1/GPa)
#
#
# Indices 1 2 3 4 5 6 
#
# 1 0.012195 -0.005862 -0.000111 0.000000 0.011851 0.000000
# 2 -0.005862 0.021401 -0.002528 0.000000 -0.008125 0.000000
# 3 -0.000111 -0.002528 0.016280 0.000000 0.010451 0.000000
# 4 0.000000 0.000000 0.000000 0.065305 0.000000 0.065737
# 5 0.011851 -0.008125 0.010451 0.000000 0.045630 0.000000
# 6 0.000000 0.000000 0.000000 0.065737 0.000000 0.163910
#
#
# Mechanical properties :
#
#
# Convention : Reuss Voigt Hill
#
# Bulk Modulus (GPa) = 30.41757 42.42274 36.42016
# Shear Modulus (GPa) = 14.17711 27.94933 21.06322
#
# Velocity S-wave (km/s) = 2.59015 3.63677 3.15713
# Velocity P-wave (km/s) = 4.83107 6.14085 5.52491
#
# Compressibility (1/GPa) = 0.03287574
#
# Stress axis : x y z
#
# Youngs Moduli (GPa) = 81.99825 46.72638 61.42422
#
# Poissons Ratio (x) = 0.27391 0.00682
# Poissons Ratio (y) = 0.48067 0.15525
# Poissons Ratio (z) = 0.00911 0.11810
#
# Static dielectric constant tensor:
#      x y z
#    x 1.786890 0.000000 0.030140 
#    y 0.000000 1.864320 0.000000 
#    z 0.030140 0.000000 1.770180 
# 
# From -- ./inp_files/25359.got.cif
#   From: 2010.05.17/outbox.cif.g08.bks.cpg/sg15_13_cif.got.tgz:25359.got - 2010.06.03 18:47:42.
