data_PCOD9279242
_publ_section_title
;
Structure prediction by ZEFSAII (Michael W. Deem and Ramdas Pophale) SiO2 
 PCOD9279242
Probable space group: C 2/C
;
_chemical_formula_sum "Si O2"
_cell_formula_units_Z 40
_cell_length_a 16.750874
_cell_length_b 16.079072
_cell_length_c 8.638057
_cell_angle_alpha 90.000000
_cell_angle_beta 123.882486
_cell_angle_gamma 90.000000
_cell_volume 1931.471104
_symmetry_space_group_name_H-M "C 2/C"
_symmetry_group_IT_number 15
_symmetry_cell_setting 'monoclinic'
loop_
_space_group_symop_operation_xyz
x,y,z
-x,y,1/2-z
-x,-y,-z
x,-y,1/2+z
1/2+x,1/2+y,z
1/2-x,1/2+y,1/2-z
1/2-x,1/2-y,-z
1/2+x,1/2-y,1/2+z
loop_
_atom_site_type_symbol
_atom_site_label
_atom_site_fract_x
_atom_site_fract_y
_atom_site_fract_z
Si Si1 0.900814 0.254306 0.829599
Si Si2 0.930028 0.381958 0.457255
Si Si3 0.500000 0.372997 0.250000
Si Si4 0.024674 0.880366 0.611715
Si Si5 0.292491 0.266382 0.716331
Si Si6 0.000000 0.488706 0.250000
O O1 0.846689 0.315507 0.340057
O O2 0.913092 0.192708 0.694946
O O3 0.796035 0.282506 0.764026
O O4 0.973496 0.330640 0.897082
O O5 0.948987 0.430919 0.319595
O O6 0.922813 0.452639 0.579563
O O7 0.513321 0.419318 0.426984
O O8 0.130117 0.839772 0.718708
O O9 0.000000 0.920008 0.750000
O O10 0.947814 0.803849 0.514581
O O11 0.250000 0.250000 0.500000
#
# Coordination Sequence:
#
# PCOD9279242 Si02
#       6
#     8   8   4   8   8   4
#     4   9  18  31  47  76 107 135 175 226 278 327
#     4  10  21  35  54  75 110 148 183 220 266 330
#     4   8  17  30  42  68 110 140 157 212 274 340
#     4   9  17  30  42  67 108 136 162 204 273 340
#     4  11  18  28  53  79 103 140 175 230 285 328
#     4  10  21  38  50  68 110 160 185 212 254 326
#
# _framework density 20.709603999999999
#
# number of rings (size 3 to 8) (size 9 to 14) (size 15 to 20)
#    1.200    1.200    2.000    1.800    2.800    0.800 
#    0.000    0.000    0.000    0.000    0.000    0.000 
#    0.000  136.000    0.000    0.000    0.000    0.000 
#
# Total GULP energy -111349.602902 kJ/mol
# GULP energy per Si atom -5567.480145 kJ/mol
# Density = 2.066247 g / cm^3
# Si number density = 20.709604 Si / 1000 Ang^3
#
#
#
# Elastic Constant Matrix: (Units=GPa)
#
#
# Indices 1 2 3 4 5 6 
#
# 1 117.6782 26.4776 53.5428 0.0000 -5.8883 0.0000
# 2 26.4776 63.2008 37.5679 0.0000 -10.5558 0.0000
# 3 53.5428 37.5679 116.0612 0.0000 -29.5565 0.0000
# 4 0.0000 0.0000 0.0000 29.8912 0.0000 -14.9704
# 5 -5.8883 -10.5558 -29.5565 0.0000 43.8722 0.0000
# 6 0.0000 0.0000 0.0000 -14.9704 0.0000 8.3486
#
#
#
# Elastic Compliance Matrix: (Units=1/GPa)
#
#
# Indices 1 2 3 4 5 6 
#
# 1 0.011160 -0.002047 -0.005106 0.000000 -0.002434 0.000000
# 2 -0.002047 0.019978 -0.005273 0.000000 0.000980 0.000000
# 3 -0.005106 -0.005273 0.014703 0.000000 0.007952 0.000000
# 4 0.000000 0.000000 0.000000 0.328190 0.000000 0.588494
# 5 -0.002434 0.000980 0.007952 0.000000 0.028059 0.000000
# 6 0.000000 0.000000 0.000000 0.588494 0.000000 1.175039
#
#
# Mechanical properties :
#
#
# Convention : Reuss Voigt Hill
#
# Bulk Modulus (GPa) = 47.64162 59.12409 53.38286
# Shear Modulus (GPa) = 3.10756 28.37919 15.74338
#
# Velocity S-wave (km/s) = 1.22630 3.70583 2.76016
# Velocity P-wave (km/s) = 5.00596 6.84996 5.99923
#
# Compressibility (1/GPa) = 0.02099005
#
# Stress axis : x y z
#
# Youngs Moduli (GPa) = 89.60949 50.05480 68.01184
#
# Poissons Ratio (x) = 0.10246 0.34724
# Poissons Ratio (y) = 0.18342 0.35862
# Poissons Ratio (z) = 0.45751 0.26393
#
# Static dielectric constant tensor:
#      x y z
#    x 1.679740 0.000000 -0.068890 
#    y 0.000000 1.716710 0.000000 
#    z -0.068890 0.000000 1.793600 
# 
# From -- ./inp_files/40042.got.cif
#   From: 2010.05.17/outbox.cif.g08.bks.cpg/sg15_21_cif.got.tgz:40042.got - 2010.06.03 18:47:42.
