data_PCOD9279677
_publ_section_title
;
Structure prediction by ZEFSAII (Michael W. Deem and Ramdas Pophale) SiO2 
 PCOD9279677
Probable space group: C 2/C
;
_chemical_formula_sum "Si O2"
_cell_formula_units_Z 64
_cell_length_a 17.821299
_cell_length_b 20.452469
_cell_length_c 16.395833
_cell_angle_alpha 90.000000
_cell_angle_beta 153.098259
_cell_angle_gamma 90.000000
_cell_volume 2703.961552
_symmetry_space_group_name_H-M "C 2/C"
_symmetry_group_IT_number 15
_symmetry_cell_setting 'monoclinic'
loop_
_space_group_symop_operation_xyz
x,y,z
-x,y,1/2-z
-x,-y,-z
x,-y,1/2+z
1/2+x,1/2+y,z
1/2-x,1/2+y,1/2-z
1/2-x,1/2-y,-z
1/2+x,1/2-y,1/2+z
loop_
_atom_site_type_symbol
_atom_site_label
_atom_site_fract_x
_atom_site_fract_y
_atom_site_fract_z
Si Si1 0.269983 0.882139 0.232980
Si Si2 0.899648 0.757295 0.414102
Si Si3 0.442595 0.570006 0.823835
Si Si4 0.145193 0.698400 0.952082
Si Si5 0.301845 0.647601 0.346447
Si Si6 0.164712 0.461259 0.950384
Si Si7 0.640147 0.925271 0.550875
Si Si8 0.888459 0.941595 0.569466
O O1 0.257480 0.806773 0.245248
O O2 0.160963 0.920223 0.193811
O O3 0.454740 0.907457 0.400521
O O4 0.180873 0.889606 0.059618
O O5 0.908439 0.733561 0.515966
O O6 0.857014 0.696208 0.313098
O O7 0.051642 0.805329 0.543583
O O8 0.314035 0.584724 0.625881
O O9 0.496803 0.495379 0.863652
O O10 0.609367 0.613568 0.990732
O O11 0.000000 0.679470 0.750000
O O12 0.250000 0.750000 0.000000
O O13 0.203551 0.629068 0.046528
O O14 0.255789 0.588130 0.240995
O O15 0.000000 0.432469 0.750000
O O16 0.126607 0.505147 0.993767
O O17 0.240062 0.514159 0.960895
O O18 0.000000 0.913995 0.750000
#
# Coordination Sequence:
#
# PCOD9279677 Si02
#       8
#     8   8   8   8   8   8   8   8
#     4  11  22  39  63  91 128 172 217 273 326 386
#     4  10  21  36  56  87 120 162 218 268 313 375
#     4  10  25  41  64  91 126 177 219 274 327 389
#     4  11  21  33  50  77 122 172 217 252 304 366
#     4  10  22  41  62  88 125 165 218 267 313 381
#     4  11  23  41  61  93 131 169 219 267 331 388
#     4  11  23  36  57  88 128 174 219 266 307 382
#     4  10  23  39  61  91 132 171 217 270 322 389
#
# _framework density 23.668975
#
# number of rings (size 3 to 8) (size 9 to 14) (size 15 to 20)
#    0.000    1.500    1.250    4.500   10.500    2.000 
#    0.000    0.000    0.000    0.000    0.000   45.500 
#    0.000    0.000    0.000    0.000    0.000    0.000 
#
# Total GULP energy -178782.927701 kJ/mol
# GULP energy per Si atom -5586.966491 kJ/mol
# Density = 2.361510 g / cm^3
# Si number density = 23.668975 Si / 1000 Ang^3
#
#
#
# Elastic Constant Matrix: (Units=GPa)
#
#
# Indices 1 2 3 4 5 6 
#
# 1 48.5177 5.4203 8.9254 0.0000 5.0837 0.0000
# 2 5.4203 41.6240 29.3122 0.0000 -12.9797 0.0000
# 3 8.9254 29.3122 162.1642 0.0000 -18.2754 0.0000
# 4 0.0000 0.0000 0.0000 43.7445 0.0000 13.9511
# 5 5.0837 -12.9797 -18.2754 0.0000 31.4582 0.0000
# 6 0.0000 0.0000 0.0000 13.9511 0.0000 -5.8072
#
#
#
# Elastic Compliance Matrix: (Units=1/GPa)
#
#
# Indices 1 2 3 4 5 6 
#
# 1 0.021860 -0.003833 -0.001163 0.000000 -0.005790 0.000000
# 2 -0.003833 0.030846 -0.004131 0.000000 0.010947 0.000000
# 3 -0.001163 -0.004131 0.007283 0.000000 0.002715 0.000000
# 4 0.000000 0.000000 0.000000 0.012943 0.000000 0.031095
# 5 -0.005790 0.010947 0.002715 0.000000 0.038818 0.000000
# 6 0.000000 0.000000 0.000000 0.031095 0.000000 -0.097499
#
#
# Mechanical properties :
#
#
# Convention : Reuss Voigt Hill
#
# Bulk Modulus (GPa) = 23.96037 37.73573 30.84805
# Shear Modulus (GPa) = 107.71913 27.78897 67.75405
#
# Velocity S-wave (km/s) = 6.75348 3.43018 5.35610
# Velocity P-wave (km/s) = 8.42364 5.62725 7.16323
#
# Compressibility (1/GPa) = 0.04173558
#
# Stress axis : x y z
#
# Youngs Moduli (GPa) = 45.74600 32.41862 137.30188
#
# Poissons Ratio (x) = 0.12427 0.15965
# Poissons Ratio (y) = 0.17535 0.56720
# Poissons Ratio (z) = 0.05319 0.13392
#
# Static dielectric constant tensor:
#      x y z
#    x 1.941980 0.000000 0.063900 
#    y 0.000000 1.925220 0.000000 
#    z 0.063900 0.000000 1.956840 
# 
# From -- ./inp_files/164253.got.cif
#   From: 2010.05.17/outbox.cif.g08.bks.cpg/sg15_83_cif.got.tgz:164253.got - 2010.06.03 18:47:42.
