data_PCOD9279864
_publ_section_title
;
Structure prediction by ZEFSAII (Michael W. Deem and Ramdas Pophale) SiO2 
 PCOD9279864
Probable space group: C 2/C
;
_chemical_formula_sum "Si O2"
_cell_formula_units_Z 52
_cell_length_a 30.157724
_cell_length_b 14.425730
_cell_length_c 8.981410
_cell_angle_alpha 90.000000
_cell_angle_beta 137.201265
_cell_angle_gamma 90.000000
_cell_volume 2654.742936
_symmetry_space_group_name_H-M "C 2/C"
_symmetry_group_IT_number 15
_symmetry_cell_setting 'monoclinic'
loop_
_space_group_symop_operation_xyz
x,y,z
-x,y,1/2-z
-x,-y,-z
x,-y,1/2+z
1/2+x,1/2+y,z
1/2-x,1/2+y,1/2-z
1/2-x,1/2-y,-z
1/2+x,1/2-y,1/2+z
loop_
_atom_site_type_symbol
_atom_site_label
_atom_site_fract_x
_atom_site_fract_y
_atom_site_fract_z
Si Si1 0.300178 0.618131 0.086713
Si Si2 0.346724 0.815074 0.302354
Si Si3 0.062571 0.611781 0.737065
Si Si4 0.639345 0.504968 0.020929
Si Si5 0.948669 0.076099 0.932940
Si Si6 0.000000 0.237639 0.250000
Si Si7 0.945021 0.402247 0.737332
O O1 0.339767 0.708624 0.237004
O O2 0.305190 0.548105 0.238177
O O3 0.333802 0.571337 0.026902
O O4 0.226239 0.645386 0.870270
O O5 0.387878 0.865613 0.273591
O O6 0.385551 0.835380 0.550643
O O7 0.076942 0.509275 0.832590
O O8 0.059226 0.696306 0.843831
O O9 0.987321 0.606979 0.491217
O O10 0.604030 0.580987 0.829318
O O11 0.587038 0.463188 0.007750
O O12 0.981465 0.171117 0.066141
O O13 0.000000 0.000000 0.000000
O O14 0.000000 0.382880 0.750000
#
# Coordination Sequence:
#
# PCOD9279864 Si02
#       7
#     8   8   8   8   8   4   8
#     4  10  23  41  61  89 118 169 205 257 292 374
#     4  10  22  39  63  84 119 158 215 242 310 365
#     4  10  21  36  60  89 122 152 198 254 310 365
#     4  10  22  40  60  84 127 158 206 247 304 361
#     4  11  21  38  59  89 123 161 197 247 307 359
#     4  12  22  34  60  92 124 158 192 252 314 362
#     4   9  19  39  57  87 116 153 192 256 306 366
#
# _framework density 19.587585000000001
#
# number of rings (size 3 to 8) (size 9 to 14) (size 15 to 20)
#    0.000    1.846    2.308    0.923    6.462    0.000 
#    0.000    0.000    0.000    4.615    0.000    0.000 
#    0.000    0.000    0.000    0.000    0.000    0.000 
#
# Total GULP energy -145043.375605 kJ/mol
# GULP energy per Si atom -5578.591369 kJ/mol
# Density = 1.954300 g / cm^3
# Si number density = 19.587585 Si / 1000 Ang^3
#
#
#
# Elastic Constant Matrix: (Units=GPa)
#
#
# Indices 1 2 3 4 5 6 
#
# 1 71.3785 30.0060 33.5454 0.0000 -7.2290 0.0000
# 2 30.0060 96.8147 42.3262 0.0000 5.7984 0.0000
# 3 33.5454 42.3262 64.0619 0.0000 -6.0017 0.0000
# 4 0.0000 0.0000 0.0000 29.1607 0.0000 -8.5001
# 5 -7.2290 5.7984 -6.0017 0.0000 22.5504 0.0000
# 6 0.0000 0.0000 0.0000 -8.5001 0.0000 29.1772
#
#
#
# Elastic Compliance Matrix: (Units=1/GPa)
#
#
# Indices 1 2 3 4 5 6 
#
# 1 0.019377 -0.002900 -0.007772 0.000000 0.004889 0.000000
# 2 -0.002900 0.015935 -0.009723 0.000000 -0.007615 0.000000
# 3 -0.007772 -0.009723 0.026772 0.000000 0.007134 0.000000
# 4 0.000000 0.000000 0.000000 0.037475 0.000000 0.010918
# 5 0.004889 -0.007615 0.007134 0.000000 0.049769 0.000000
# 6 0.000000 0.000000 0.000000 0.010918 0.000000 0.037454
#
#
# Mechanical properties :
#
#
# Convention : Reuss Voigt Hill
#
# Bulk Modulus (GPa) = 46.96427 49.33447 48.14937
# Shear Modulus (GPa) = 21.30653 24.60282 22.95467
#
# Velocity S-wave (km/s) = 3.30169 3.54791 3.42702
# Velocity P-wave (km/s) = 6.20995 6.48266 6.34777
#
# Compressibility (1/GPa) = 0.02129278
#
# Stress axis : x y z
#
# Youngs Moduli (GPa) = 51.60785 62.75617 37.35258
#
# Poissons Ratio (x) = 0.18202 0.29031
# Poissons Ratio (y) = 0.14969 0.36317
# Poissons Ratio (z) = 0.40110 0.61016
#
# Static dielectric constant tensor:
#      x y z
#    x 1.655090 0.000000 -0.012690 
#    y 0.000000 1.710870 0.000000 
#    z -0.012690 0.000000 1.745990 
# 
# From -- ./inp_files/69800.got.cif
#   From: 2010.05.17/outbox.cif.g08.bks.cpg/sg15_35_cif.got.tgz:69800.got - 2010.06.03 18:47:42.
