data_PCOD9279469
_publ_section_title
;
Structure prediction by ZEFSAII (Michael W. Deem and Ramdas Pophale) SiO2 
 PCOD9279469
Probable space group: C 2/C
;
_chemical_formula_sum "Si O2"
_cell_formula_units_Z 64
_cell_length_a 13.515677
_cell_length_b 17.839165
_cell_length_c 14.630707
_cell_angle_alpha 90.000000
_cell_angle_beta 125.321258
_cell_angle_gamma 90.000000
_cell_volume 2878.239227
_symmetry_space_group_name_H-M "C 2/C"
_symmetry_group_IT_number 15
_symmetry_cell_setting 'monoclinic'
loop_
_space_group_symop_operation_xyz
x,y,z
-x,y,1/2-z
-x,-y,-z
x,-y,1/2+z
1/2+x,1/2+y,z
1/2-x,1/2+y,1/2-z
1/2-x,1/2-y,-z
1/2+x,1/2-y,1/2+z
loop_
_atom_site_type_symbol
_atom_site_label
_atom_site_fract_x
_atom_site_fract_y
_atom_site_fract_z
Si Si1 0.907101 0.756039 0.323889
Si Si2 0.068383 0.401938 0.192013
Si Si3 0.735572 0.009652 0.179513
Si Si4 0.345674 0.838626 0.958020
Si Si5 0.835394 0.302013 0.605211
Si Si6 0.051187 0.078074 0.616014
Si Si7 0.228167 0.878387 0.073776
Si Si8 0.271613 0.541911 0.496153
O O1 0.866603 0.732141 0.403687
O O2 0.818276 0.725504 0.199443
O O3 0.929396 0.844088 0.319478
O O4 0.031624 0.713422 0.364532
O O5 0.121722 0.475131 0.172126
O O6 0.187424 0.357362 0.293725
O O7 0.000000 0.416181 0.250000
O O8 0.974632 0.361792 0.073279
O O9 0.856314 0.986977 0.301201
O O10 0.751361 0.964657 0.093397
O O11 0.707429 0.094522 0.134455
O O12 0.254967 0.832639 0.996436
O O13 0.750000 0.250000 0.500000
O O14 0.801975 0.388492 0.580992
O O15 0.093200 0.105961 0.537991
O O16 0.913425 0.054343 0.551479
O O17 0.267921 0.962858 0.066226
#
# Coordination Sequence:
#
# PCOD9279469 Si02
#       8
#     8   8   8   8   8   8   8   8
#     4  11  25  39  65  94 128 167 207 267 325 387
#     4   9  18  35  60  86 125 155 204 258 317 375
#     4  10  21  35  61  88 123 162 209 260 320 378
#     4  10  21  40  58  93 126 164 214 267 318 380
#     4  11  23  41  62  94 131 161 208 256 329 391
#     4  11  22  40  63  88 123 170 210 261 321 384
#     4   9  22  39  62  93 120 168 214 260 315 378
#     4  11  21  39  64  87 125 163 212 265 312 384
#
# _framework density 22.235817000000001
#
# number of rings (size 3 to 8) (size 9 to 14) (size 15 to 20)
#    0.000    1.750    1.250    2.625    5.250    3.500 
#    4.500    0.000    0.000    0.000    0.000    0.000 
#    0.000    0.000    0.000    0.000    0.000    0.000 
#
# Total GULP energy -178692.542128 kJ/mol
# GULP energy per Si atom -5584.141942 kJ/mol
# Density = 2.218521 g / cm^3
# Si number density = 22.235817 Si / 1000 Ang^3
#
#
#
# Elastic Constant Matrix: (Units=GPa)
#
#
# Indices 1 2 3 4 5 6 
#
# 1 59.7450 4.5330 25.5468 0.0000 -4.4896 0.0000
# 2 4.5330 108.6555 32.4280 0.0000 3.7786 0.0000
# 3 25.5468 32.4280 92.5270 0.0000 -8.1657 0.0000
# 4 0.0000 0.0000 0.0000 28.7800 0.0000 -2.9924
# 5 -4.4896 3.7786 -8.1657 0.0000 32.6290 0.0000
# 6 0.0000 0.0000 0.0000 -2.9924 0.0000 24.3970
#
#
#
# Elastic Compliance Matrix: (Units=1/GPa)
#
#
# Indices 1 2 3 4 5 6 
#
# 1 0.019094 0.000787 -0.005444 0.000000 0.001174 0.000000
# 2 0.000787 0.010459 -0.004070 0.000000 -0.002121 0.000000
# 3 -0.005444 -0.004070 0.014023 0.000000 0.003232 0.000000
# 4 0.000000 0.000000 0.000000 0.035195 0.000000 0.004317
# 5 0.001174 -0.002121 0.003232 0.000000 0.031863 0.000000
# 6 0.000000 0.000000 0.000000 0.004317 0.000000 0.041518
#
#
# Mechanical properties :
#
#
# Convention : Reuss Voigt Hill
#
# Bulk Modulus (GPa) = 38.28255 42.88258 40.58257
# Shear Modulus (GPa) = 28.04041 30.38918 29.21479
#
# Velocity S-wave (km/s) = 3.55497 3.70087 3.62866
# Velocity P-wave (km/s) = 5.83990 6.13100 5.98722
#
# Compressibility (1/GPa) = 0.02612156
#
# Stress axis : x y z
#
# Youngs Moduli (GPa) = 52.37183 95.61072 71.31380
#
# Poissons Ratio (x) = -0.07529 0.38826
# Poissons Ratio (y) = -0.04124 0.29026
# Poissons Ratio (z) = 0.28513 0.38916
#
# Static dielectric constant tensor:
#      x y z
#    x 1.868830 0.000000 -0.011850 
#    y 0.000000 1.805160 0.000000 
#    z -0.011850 0.000000 1.840390 
# 
# From -- ./inp_files/155528.got.cif
#   From: 2010.05.17/outbox.cif.g08.bks.cpg/sg15_78_cif.got.tgz:155528.got - 2010.06.03 18:47:42.
