data_PCOD9279768
_publ_section_title
;
Structure prediction by ZEFSAII (Michael W. Deem and Ramdas Pophale) SiO2 
 PCOD9279768
Probable space group: C 2/C
;
_chemical_formula_sum "Si O2"
_cell_formula_units_Z 64
_cell_length_a 21.071391
_cell_length_b 21.158359
_cell_length_c 11.678797
_cell_angle_alpha 90.000000
_cell_angle_beta 40.204694
_cell_angle_gamma 90.000000
_cell_volume 3361.113473
_symmetry_space_group_name_H-M "C 2/C"
_symmetry_group_IT_number 15
_symmetry_cell_setting 'monoclinic'
loop_
_space_group_symop_operation_xyz
x,y,z
-x,y,1/2-z
-x,-y,-z
x,-y,1/2+z
1/2+x,1/2+y,z
1/2-x,1/2+y,1/2-z
1/2-x,1/2-y,-z
1/2+x,1/2-y,1/2+z
loop_
_atom_site_type_symbol
_atom_site_label
_atom_site_fract_x
_atom_site_fract_y
_atom_site_fract_z
Si Si1 0.044240 0.268469 0.864512
Si Si2 0.890022 0.917534 0.950394
Si Si3 0.838287 0.718070 0.523807
Si Si4 0.854236 0.862448 0.238016
Si Si5 0.160865 0.797604 0.601755
Si Si6 0.117807 0.938065 0.075252
Si Si7 0.413871 0.815287 0.441502
Si Si8 0.696126 0.342085 0.790642
O O1 0.125374 0.285784 0.656862
O O2 0.067376 0.193652 0.846355
O O3 0.056727 0.301572 0.968911
O O4 0.938303 0.287893 0.959861
O O5 0.823573 0.862960 0.985571
O O6 0.000000 0.907137 0.750000
O O7 0.857976 0.987963 0.963041
O O8 0.890613 0.906490 0.085106
O O9 0.747385 0.670842 0.661479
O O10 0.801199 0.786537 0.617926
O O11 0.839201 0.902300 0.373827
O O12 0.250000 0.750000 0.500000
O O13 0.098914 0.752837 0.603509
O O14 0.132567 0.818084 0.769355
O O15 0.000000 0.932528 0.250000
O O16 0.153165 0.902878 0.911996
O O17 0.500000 0.848241 0.250000
O O18 0.307782 0.849099 0.590954
#
# Coordination Sequence:
#
# PCOD9279768 Si02
#       8
#     8   8   8   8   8   8   8   8
#     4  11  21  36  60  92 127 155 208 262 322 377
#     4  11  26  40  58  90 128 171 208 252 314 379
#     4  11  22  36  62  96 121 166 206 266 325 372
#     4  12  22  42  62  88 133 166 209 260 315 379
#     4  10  21  36  58  89 125 164 202 255 314 376
#     4  11  26  40  62  90 123 179 212 254 307 383
#     4  11  21  35  56  90 126 162 197 263 323 369
#     4  11  21  37  58  87 128 161 215 255 313 377
#
# _framework density 19.041308000000001
#
# number of rings (size 3 to 8) (size 9 to 14) (size 15 to 20)
#    0.000    1.000    3.750    3.750    5.250    2.000 
#    0.000    0.000    0.000    0.000    3.250    7.875 
#    0.000    0.000    0.000    0.000    0.000    0.000 
#
# Total GULP energy -178605.155935 kJ/mol
# GULP energy per Si atom -5581.411123 kJ/mol
# Density = 1.899797 g / cm^3
# Si number density = 19.041308 Si / 1000 Ang^3
#
#
#
# Elastic Constant Matrix: (Units=GPa)
#
#
# Indices 1 2 3 4 5 6 
#
# 1 94.7871 26.7011 36.0831 0.0000 18.3955 0.0000
# 2 26.7011 84.5722 29.7918 0.0000 -3.1286 0.0000
# 3 36.0831 29.7918 119.9890 0.0000 6.3114 0.0000
# 4 0.0000 0.0000 0.0000 20.5859 0.0000 1.3283
# 5 18.3955 -3.1286 6.3114 0.0000 34.6035 0.0000
# 6 0.0000 0.0000 0.0000 1.3283 0.0000 17.3759
#
#
#
# Elastic Compliance Matrix: (Units=1/GPa)
#
#
# Indices 1 2 3 4 5 6 
#
# 1 0.014131 -0.003693 -0.002948 0.000000 -0.007308 0.000000
# 2 -0.003693 0.014032 -0.002568 0.000000 0.003700 0.000000
# 3 -0.002948 -0.002568 0.009883 0.000000 -0.000468 0.000000
# 4 0.000000 0.000000 0.000000 0.048818 0.000000 -0.003732
# 5 -0.007308 0.003700 -0.000468 0.000000 0.033204 0.000000
# 6 0.000000 0.000000 0.000000 -0.003732 0.000000 0.057836
#
#
# Mechanical properties :
#
#
# Convention : Reuss Voigt Hill
#
# Bulk Modulus (GPa) = 50.95019 53.83338 52.39178
# Shear Modulus (GPa) = 24.64705 28.29787 26.47246
#
# Velocity S-wave (km/s) = 3.60168 3.85922 3.73267
# Velocity P-wave (km/s) = 6.64168 6.94200 6.79350
#
# Compressibility (1/GPa) = 0.01962701
#
# Stress axis : x y z
#
# Youngs Moduli (GPa) = 70.76674 71.26706 101.18589
#
# Poissons Ratio (x) = 0.26321 0.29830
# Poissons Ratio (y) = 0.26136 0.25984
# Poissons Ratio (z) = 0.20862 0.18301
#
# Static dielectric constant tensor:
#      x y z
#    x 1.715670 0.000000 -0.012710 
#    y 0.000000 1.634460 0.000000 
#    z -0.012710 0.000000 1.717030 
# 
# From -- ./inp_files/114258.got.cif
#   From: 2010.05.17/outbox.cif.g08.bks.cpg/sg15_58_cif.got.tgz:114258.got - 2010.06.03 18:47:42.
