data_PCOD9279683
_publ_section_title
;
Structure prediction by ZEFSAII (Michael W. Deem and Ramdas Pophale) SiO2 
 PCOD9279683
Probable space group: C 2/C
;
_chemical_formula_sum "Si O2"
_cell_formula_units_Z 56
_cell_length_a 14.816188
_cell_length_b 24.294978
_cell_length_c 8.968732
_cell_angle_alpha 90.000000
_cell_angle_beta 66.637506
_cell_angle_gamma 90.000000
_cell_volume 2963.695169
_symmetry_space_group_name_H-M "C 2/C"
_symmetry_group_IT_number 15
_symmetry_cell_setting 'monoclinic'
loop_
_space_group_symop_operation_xyz
x,y,z
-x,y,1/2-z
-x,-y,-z
x,-y,1/2+z
1/2+x,1/2+y,z
1/2-x,1/2+y,1/2-z
1/2-x,1/2-y,-z
1/2+x,1/2-y,1/2+z
loop_
_atom_site_type_symbol
_atom_site_label
_atom_site_fract_x
_atom_site_fract_y
_atom_site_fract_z
Si Si1 0.112526 0.212964 0.639694
Si Si2 0.097328 0.335513 0.753829
Si Si3 0.307768 0.627745 0.128824
Si Si4 0.113114 0.908438 0.624136
Si Si5 0.571726 0.526458 0.577059
Si Si6 0.197364 0.819343 0.389741
Si Si7 0.399777 0.210889 0.911698
O O1 0.113010 0.278890 0.649569
O O2 0.145183 0.183626 0.467073
O O3 0.184879 0.193514 0.723811
O O4 0.000000 0.196677 0.750000
O O5 0.193399 0.371462 0.670290
O O6 0.000000 0.361648 0.750000
O O7 0.087531 0.318907 0.935196
O O8 0.323093 0.622384 0.294192
O O9 0.362509 0.575123 0.026191
O O10 0.143219 0.877191 0.455227
O O11 0.000000 0.901738 0.750000
O O12 0.129990 0.973636 0.602234
O O13 0.500000 0.549056 0.750000
O O14 0.500000 0.500000 0.500000
O O15 0.308922 0.814838 0.376582
O O16 0.135257 0.772403 0.518918
O O17 0.500000 0.211102 0.750000
#
# Coordination Sequence:
#
# PCOD9279683 Si02
#       7
#     8   8   8   8   8   8   8
#     4  10  22  36  57  90 125 163 202 244 300 371
#     4  10  23  41  57  87 122 165 210 248 299 360
#     4  12  22  38  62  86 124 160 198 254 307 365
#     4  11  21  36  59  87 121 155 189 247 307 368
#     4  11  23  40  59  90 122 155 197 251 318 371
#     4  10  21  36  56  90 117 158 202 237 303 362
#     4  10  21  38  59  84 122 159 202 249 293 358
#
# _framework density 18.895330999999999
#
# number of rings (size 3 to 8) (size 9 to 14) (size 15 to 20)
#    0.000    1.429    4.286    2.143    4.000    2.286 
#    0.000    0.000    0.000    1.714    0.000    0.000 
#    0.000    0.000    0.000    0.000    0.000    0.000 
#
# Total GULP energy -156400.829831 kJ/mol
# GULP energy per Si atom -5585.743923 kJ/mol
# Density = 1.885232 g / cm^3
# Si number density = 18.895331 Si / 1000 Ang^3
#
#
#
# Elastic Constant Matrix: (Units=GPa)
#
#
# Indices 1 2 3 4 5 6 
#
# 1 117.2012 15.7703 28.0127 0.0000 -9.6864 0.0000
# 2 15.7703 42.5758 19.2355 0.0000 -7.5972 0.0000
# 3 28.0127 19.2355 64.3668 0.0000 -12.6185 0.0000
# 4 0.0000 0.0000 0.0000 27.0256 0.0000 -2.7106
# 5 -9.6864 -7.5972 -12.6185 0.0000 32.9240 0.0000
# 6 0.0000 0.0000 0.0000 -2.7106 0.0000 19.9287
#
#
#
# Elastic Compliance Matrix: (Units=1/GPa)
#
#
# Indices 1 2 3 4 5 6 
#
# 1 0.009696 -0.001833 -0.003455 0.000000 0.001105 0.000000
# 2 -0.001833 0.027859 -0.006891 0.000000 0.003248 0.000000
# 3 -0.003455 -0.006891 0.020098 0.000000 0.005096 0.000000
# 4 0.000000 0.000000 0.000000 0.037514 0.000000 0.005102
# 5 0.001105 0.003248 0.005096 0.000000 0.033401 0.000000
# 6 0.000000 0.000000 0.000000 0.005102 0.000000 0.050873
#
#
# Mechanical properties :
#
#
# Convention : Reuss Voigt Hill
#
# Bulk Modulus (GPa) = 30.03472 38.90898 34.47185
# Shear Modulus (GPa) = 23.26679 26.71734 24.99207
#
# Velocity S-wave (km/s) = 3.51287 3.76435 3.64078
# Velocity P-wave (km/s) = 5.69065 6.28732 5.99641
#
# Compressibility (1/GPa) = 0.03329480
#
# Stress axis : x y z
#
# Youngs Moduli (GPa) = 103.13286 35.89450 49.75600
#
# Poissons Ratio (x) = 0.06580 0.17192
# Poissons Ratio (y) = 0.18906 0.34287
# Poissons Ratio (z) = 0.35636 0.24735
#
# Static dielectric constant tensor:
#      x y z
#    x 1.691060 0.000000 0.031610 
#    y 0.000000 1.661090 0.000000 
#    z 0.031610 0.000000 1.705500 
# 
# From -- ./inp_files/42511.got.cif
#   From: 2010.05.17/outbox.cif.g08.bks.cpg/sg15_22_cif.got.tgz:42511.got - 2010.06.03 18:47:42.
