data_PCOD9279641
_publ_section_title
;
Structure prediction by ZEFSAII (Michael W. Deem and Ramdas Pophale) SiO2 
 PCOD9279641
Probable space group: C 2/C
;
_chemical_formula_sum "Si O2"
_cell_formula_units_Z 64
_cell_length_a 7.753824
_cell_length_b 14.399622
_cell_length_c 31.321591
_cell_angle_alpha 90.000000
_cell_angle_beta 58.050782
_cell_angle_gamma 90.000000
_cell_volume 2967.369418
_symmetry_space_group_name_H-M "C 2/C"
_symmetry_group_IT_number 15
_symmetry_cell_setting 'monoclinic'
loop_
_space_group_symop_operation_xyz
x,y,z
-x,y,1/2-z
-x,-y,-z
x,-y,1/2+z
1/2+x,1/2+y,z
1/2-x,1/2+y,1/2-z
1/2-x,1/2-y,-z
1/2+x,1/2-y,1/2+z
loop_
_atom_site_type_symbol
_atom_site_label
_atom_site_fract_x
_atom_site_fract_y
_atom_site_fract_z
Si Si1 0.800507 0.640884 0.446714
Si Si2 0.790193 0.443885 0.029658
Si Si3 0.370355 0.258667 0.133985
Si Si4 0.647786 0.205653 0.580566
Si Si5 0.863865 0.922515 0.809659
Si Si6 0.865283 0.130867 0.474228
Si Si7 0.447752 0.449842 0.141895
Si Si8 0.939310 0.478608 0.369878
O O1 0.836649 0.641518 0.492552
O O2 0.566098 0.656839 0.472347
O O3 0.916947 0.707851 0.399443
O O4 0.868466 0.539369 0.420102
O O5 0.639616 0.520853 0.029053
O O6 0.662379 0.427779 0.089045
O O7 0.000000 0.500000 0.000000
O O8 0.329357 0.294864 0.091134
O O9 0.204212 0.180402 0.166204
O O10 0.375120 0.346232 0.164532
O O11 0.685292 0.164569 0.528470
O O12 0.619597 0.314506 0.572749
O O13 0.512610 0.127472 0.621726
O O14 0.000000 0.916974 0.750000
O O15 0.650528 0.975344 0.827744
O O16 0.987651 0.978147 0.830112
O O17 0.253614 0.482913 0.137903
#
# Coordination Sequence:
#
# PCOD9279641 Si02
#       8
#     8   8   8   8   8   8   8   8
#     4  11  20  35  58  87 135 171 216 256 313 389
#     4  12  22  35  61  95 139 188 227 264 326 397
#     4  10  24  43  64  98 131 176 224 281 337 414
#     4  10  21  36  55  93 130 171 219 260 315 386
#     4  11  26  50  73  97 131 166 227 303 370 415
#     4  11  21  31  56  88 136 178 215 260 306 382
#     4  11  24  43  73  99 136 183 228 277 348 410
#     4  10  21  42  67  95 129 176 218 273 337 413
#
# _framework density 21.567924000000001
#
# number of rings (size 3 to 8) (size 9 to 14) (size 15 to 20)
#    0.000    1.250    2.500    4.875    1.750    3.500 
#    4.500    0.000    0.000    0.000    0.000    0.000 
#    0.000    0.000    0.000    0.000    0.000    0.000 
#
# Total GULP energy -178220.563505 kJ/mol
# GULP energy per Si atom -5569.392610 kJ/mol
# Density = 2.151883 g / cm^3
# Si number density = 21.567924 Si / 1000 Ang^3
#
#
#
# Elastic Constant Matrix: (Units=GPa)
#
#
# Indices 1 2 3 4 5 6 
#
# 1 84.9205 14.8245 30.4370 0.0000 -5.8070 0.0000
# 2 14.8245 101.4629 33.9478 0.0000 2.7953 0.0000
# 3 30.4370 33.9478 99.0060 0.0000 -4.3777 0.0000
# 4 0.0000 0.0000 0.0000 13.2873 -0.0001 3.2016
# 5 -5.8070 2.7953 -4.3777 -0.0001 19.3626 0.0001
# 6 0.0000 0.0000 0.0000 3.2016 0.0001 28.8813
#
#
#
# Elastic Compliance Matrix: (Units=1/GPa)
#
#
# Indices 1 2 3 4 5 6 
#
# 1 0.013477 -0.000817 -0.003716 0.000000 0.003320 0.000000
# 2 -0.000817 0.011303 -0.003745 0.000000 -0.002724 0.000000
# 3 -0.003716 -0.003745 0.012628 0.000000 0.002281 0.000000
# 4 0.000000 0.000000 0.000000 0.077325 0.000000 -0.008572
# 5 0.003320 -0.002724 0.002281 0.000000 0.053551 0.000000
# 6 0.000000 0.000000 0.000000 -0.008572 0.000000 0.035575
#
#
# Mechanical properties :
#
#
# Convention : Reuss Voigt Hill
#
# Bulk Modulus (GPa) = 47.95795 49.31202 48.63498
# Shear Modulus (GPa) = 21.99094 26.05157 24.02125
#
# Velocity S-wave (km/s) = 3.19660 3.47923 3.34091
# Velocity P-wave (km/s) = 5.99236 6.24927 6.12216
#
# Compressibility (1/GPa) = 0.02085160
#
# Stress axis : x y z
#
# Youngs Moduli (GPa) = 74.19841 88.47022 79.19015
#
# Poissons Ratio (x) = 0.07230 0.29429
# Poissons Ratio (y) = 0.06063 0.29656
# Poissons Ratio (z) = 0.27574 0.33131
#
# Static dielectric constant tensor:
#      x y z
#    x 1.831540 0.000000 0.011660 
#    y 0.000000 1.979790 0.000000 
#    z 0.011660 0.000000 1.761830 
# 
# From -- ./inp_files/308246.got.cif
#   From: 2010.05.17/outbox.cif.g08.bks.cpg/sg15_155_cif.got.tgz:308246.got - 2010.06.03 18:47:42.
