data_PCOD9279300
_publ_section_title
;
Structure prediction by ZEFSAII (Michael W. Deem and Ramdas Pophale) SiO2 
 PCOD9279300
Probable space group: C 2/C
;
_chemical_formula_sum "Si O2"
_cell_formula_units_Z 56
_cell_length_a 16.059543
_cell_length_b 25.579129
_cell_length_c 8.983211
_cell_angle_alpha 90.000000
_cell_angle_beta 126.703818
_cell_angle_gamma 90.000000
_cell_volume 2958.569816
_symmetry_space_group_name_H-M "C 2/C"
_symmetry_group_IT_number 15
_symmetry_cell_setting 'monoclinic'
loop_
_space_group_symop_operation_xyz
x,y,z
-x,y,1/2-z
-x,-y,-z
x,-y,1/2+z
1/2+x,1/2+y,z
1/2-x,1/2+y,1/2-z
1/2-x,1/2-y,-z
1/2+x,1/2-y,1/2+z
loop_
_atom_site_type_symbol
_atom_site_label
_atom_site_fract_x
_atom_site_fract_y
_atom_site_fract_z
Si Si1 0.742229 0.028914 0.912426
Si Si2 0.396793 0.392123 0.738601
Si Si3 0.262467 0.811679 0.017160
Si Si4 0.060101 0.379075 0.459262
Si Si5 0.564632 0.539407 0.967852
Si Si6 0.616683 0.069004 0.313823
Si Si7 0.843328 0.374758 0.365906
O O1 0.686046 0.069336 0.741684
O O2 0.661425 0.988322 0.893549
O O3 0.810924 0.065503 0.093009
O O4 0.826019 0.989111 0.934213
O O5 0.500000 0.397954 0.750000
O O6 0.342118 0.337264 0.657829
O O7 0.423553 0.406394 0.934743
O O8 0.358896 0.837128 0.024579
O O9 0.250000 0.750000 0.000000
O O10 0.276462 0.833193 0.201263
O O11 0.117054 0.416948 0.638375
O O12 0.962375 0.359220 0.453587
O O13 0.000000 0.402542 0.250000
O O14 0.500000 0.545445 0.750000
O O15 0.500000 0.500000 0.000000
O O16 0.500000 0.068654 0.250000
O O17 0.671322 0.113433 0.475093
#
# Coordination Sequence:
#
# PCOD9279300 Si02
#       7
#     8   8   8   8   8   8   8
#     4  11  20  33  56  79 120 154 188 221 273 337
#     4  11  22  37  53  82 112 148 194 230 279 348
#     4  10  22  40  62  81 105 146 194 244 301 344
#     4   9  19  38  56  80 112 143 184 232 289 338
#     4  12  21  35  55  81 121 159 189 220 282 336
#     4  10  21  35  56  87 116 152 189 228 278 345
#     4   9  21  35  59  83 113 147 189 236 286 338
#
# _framework density 18.928063999999999
#
# number of rings (size 3 to 8) (size 9 to 14) (size 15 to 20)
#    0.000    1.714    2.857    1.714    0.000    9.143 
#    0.000    0.714    0.000    4.286    0.000    0.000 
#    0.000    0.000    0.000    0.000    0.000    0.000 
#
# Total GULP energy -156066.128848 kJ/mol
# GULP energy per Si atom -5573.790316 kJ/mol
# Density = 1.888498 g / cm^3
# Si number density = 18.928064 Si / 1000 Ang^3
#
#
#
# Elastic Constant Matrix: (Units=GPa)
#
#
# Indices 1 2 3 4 5 6 
#
# 1 57.5924 36.1371 44.5010 0.0000 -1.1967 0.0000
# 2 36.1371 127.9868 64.8325 0.0000 -3.6296 0.0000
# 3 44.5010 64.8325 118.5692 0.0000 -12.8150 0.0000
# 4 0.0000 0.0000 0.0000 9.6222 0.0000 4.5207
# 5 -1.1967 -3.6296 -12.8150 0.0000 24.1637 0.0000
# 6 0.0000 0.0000 0.0000 4.5207 0.0000 13.2604
#
#
#
# Elastic Compliance Matrix: (Units=1/GPa)
#
#
# Indices 1 2 3 4 5 6 
#
# 1 0.025682 -0.003144 -0.008309 0.000000 -0.003607 0.000000
# 2 -0.003144 0.011250 -0.005098 0.000000 -0.001169 0.000000
# 3 -0.008309 -0.005098 0.015077 0.000000 0.006819 0.000000
# 4 0.000000 0.000000 0.000000 0.123746 0.000000 -0.042187
# 5 -0.003607 -0.001169 0.006819 0.000000 0.044646 0.000000
# 6 0.000000 0.000000 0.000000 -0.042187 0.000000 0.089795
#
#
# Mechanical properties :
#
#
# Convention : Reuss Voigt Hill
#
# Bulk Modulus (GPa) = 52.89323 66.12104 59.50713
# Shear Modulus (GPa) = 14.30197 19.98780 17.14488
#
# Velocity S-wave (km/s) = 2.75179 3.25312 3.01290
# Velocity P-wave (km/s) = 6.17264 7.00850 6.60381
#
# Compressibility (1/GPa) = 0.01890601
#
# Stress axis : x y z
#
# Youngs Moduli (GPa) = 38.93764 88.88666 66.32648
#
# Poissons Ratio (x) = 0.27950 0.55114
# Poissons Ratio (y) = 0.12244 0.33812
# Poissons Ratio (z) = 0.32355 0.45312
#
# Static dielectric constant tensor:
#      x y z
#    x 1.683310 0.000000 0.002930 
#    y 0.000000 1.654910 0.000000 
#    z 0.002930 0.000000 1.730230 
# 
# From -- ./inp_files/51576.got.cif
#   From: 2010.05.17/outbox.cif.g08.bks.cpg/sg15_26_cif.got.tgz:51576.got - 2010.06.03 18:47:42.
