data_PCOD9279579
_publ_section_title
;
Structure prediction by ZEFSAII (Michael W. Deem and Ramdas Pophale) SiO2 
 PCOD9279579
Probable space group: C 2/C
;
_chemical_formula_sum "Si O2"
_cell_formula_units_Z 48
_cell_length_a 14.022924
_cell_length_b 29.130565
_cell_length_c 5.393308
_cell_angle_alpha 90.000000
_cell_angle_beta 106.034983
_cell_angle_gamma 90.000000
_cell_volume 2117.425920
_symmetry_space_group_name_H-M "C 2/C"
_symmetry_group_IT_number 15
_symmetry_cell_setting 'monoclinic'
loop_
_space_group_symop_operation_xyz
x,y,z
-x,y,1/2-z
-x,-y,-z
x,-y,1/2+z
1/2+x,1/2+y,z
1/2-x,1/2+y,1/2-z
1/2-x,1/2-y,-z
1/2+x,1/2-y,1/2+z
loop_
_atom_site_type_symbol
_atom_site_label
_atom_site_fract_x
_atom_site_fract_y
_atom_site_fract_z
Si Si1 0.196230 0.387578 0.282201
Si Si2 0.111088 0.518629 0.624621
Si Si3 0.105936 0.794823 0.452648
Si Si4 0.110273 0.983672 0.408155
Si Si5 0.178196 0.889834 0.637152
Si Si6 0.797032 0.284570 0.232041
O O1 0.116609 0.428223 0.203817
O O2 0.266703 0.399412 0.565752
O O3 0.165480 0.334918 0.315723
O O4 0.249021 0.387105 0.049826
O O5 0.155866 0.510712 0.383646
O O6 0.000000 0.500000 0.500000
O O7 0.123926 0.840780 0.625503
O O8 0.114793 0.745838 0.591979
O O9 0.202415 0.793220 0.343210
O O10 0.000000 0.799438 0.250000
O O11 0.108591 0.932149 0.511941
O O12 0.000000 0.999686 0.250000
O O13 0.156172 0.013511 0.665007
O O14 0.750000 0.250000 0.000000
#
# Coordination Sequence:
#
# PCOD9279579 Si02
#       6
#     8   8   8   8   8   8
#     4  11  23  39  66  90 123 170 210 268 337 384
#     4  10  22  42  62  89 127 167 218 272 324 401
#     4  10  22  41  65  95 131 176 221 279 349 412
#     4  10  21  36  53  81 120 155 198 251 303 370
#     4  11  22  38  62  92 123 165 213 263 327 399
#     4  10  21  43  64  95 135 168 228 288 338 420
#
# _framework density 22.669035000000001
#
# number of rings (size 3 to 8) (size 9 to 14) (size 15 to 20)
#    0.000    1.667    1.667    2.500    0.000    4.667 
#    3.000    3.333    0.000    0.000    0.000    0.000 
#    0.000    0.000    0.000    0.000    0.000    0.000 
#
# Total GULP energy -133865.213629 kJ/mol
# GULP energy per Si atom -5577.717235 kJ/mol
# Density = 2.261744 g / cm^3
# Si number density = 22.669035 Si / 1000 Ang^3
#
#
#
# Elastic Constant Matrix: (Units=GPa)
#
#
# Indices 1 2 3 4 5 6 
#
# 1 53.0454 26.9314 29.8580 0.0000 13.8437 0.0000
# 2 26.9314 212.5885 65.8013 0.0000 17.9554 0.0000
# 3 29.8580 65.8013 162.3661 0.0000 1.3656 0.0000
# 4 0.0000 0.0000 0.0000 45.6006 0.0000 6.0149
# 5 13.8437 17.9554 1.3656 0.0000 29.3178 0.0000
# 6 0.0000 0.0000 0.0000 6.0149 0.0000 25.8327
#
#
#
# Elastic Compliance Matrix: (Units=1/GPa)
#
#
# Indices 1 2 3 4 5 6 
#
# 1 0.024396 -0.000939 -0.004015 0.000000 -0.010758 0.000000
# 2 -0.000939 0.005731 -0.002125 0.000000 -0.002968 0.000000
# 3 -0.004015 -0.002125 0.007735 0.000000 0.002837 0.000000
# 4 0.000000 0.000000 0.000000 0.022624 0.000000 -0.005268
# 5 -0.010758 -0.002968 0.002837 0.000000 0.040874 0.000000
# 6 0.000000 0.000000 0.000000 -0.005268 0.000000 0.039937
#
#
# Mechanical properties :
#
#
# Convention : Reuss Voigt Hill
#
# Bulk Modulus (GPa) = 42.18826 74.79791 58.49309
# Shear Modulus (GPa) = 30.60771 40.51083 35.55927
#
# Velocity S-wave (km/s) = 3.67849 4.23194 3.96489
# Velocity P-wave (km/s) = 6.05745 7.54628 6.84248
#
# Compressibility (1/GPa) = 0.02370327
#
# Stress axis : x y z
#
# Youngs Moduli (GPa) = 40.99008 174.48055 129.28886
#
# Poissons Ratio (x) = 0.16387 0.51912
# Poissons Ratio (y) = 0.03850 0.27474
# Poissons Ratio (z) = 0.16458 0.37078
#
# Static dielectric constant tensor:
#      x y z
#    x 2.318110 0.000000 -0.269940 
#    y 0.000000 1.876450 0.000000 
#    z -0.269940 0.000000 2.012490 
# 
# From -- ./inp_files/11359.got.cif
#   From: 2010.05.17/outbox.cif.g08.bks.cpg/sg15_6_cif.got.tgz:11359.got - 2010.06.03 18:47:42.
