data_PCOD9279855
_publ_section_title
;
Structure prediction by ZEFSAII (Michael W. Deem and Ramdas Pophale) SiO2 
 PCOD9279855
Probable space group: C 2/C
;
_chemical_formula_sum "Si O2"
_cell_formula_units_Z 40
_cell_length_a 6.813004
_cell_length_b 22.222119
_cell_length_c 12.508237
_cell_angle_alpha 90.000000
_cell_angle_beta 75.369361
_cell_angle_gamma 90.000000
_cell_volume 1832.333454
_symmetry_space_group_name_H-M "C 2/C"
_symmetry_group_IT_number 15
_symmetry_cell_setting 'monoclinic'
loop_
_space_group_symop_operation_xyz
x,y,z
-x,y,1/2-z
-x,-y,-z
x,-y,1/2+z
1/2+x,1/2+y,z
1/2-x,1/2+y,1/2-z
1/2-x,1/2-y,-z
1/2+x,1/2-y,1/2+z
loop_
_atom_site_type_symbol
_atom_site_label
_atom_site_fract_x
_atom_site_fract_y
_atom_site_fract_z
Si Si1 0.468714 0.782176 0.449230
Si Si2 0.864643 0.076435 0.056316
Si Si3 0.686335 0.196900 0.147304
Si Si4 0.795906 0.948562 0.137069
Si Si5 0.110004 0.412889 0.377062
O O1 0.250000 0.750000 0.500000
O O2 0.584123 0.791317 0.546188
O O3 0.620109 0.739234 0.362849
O O4 0.493805 0.848455 0.394103
O O5 0.774867 0.129650 0.138962
O O6 0.891316 0.015196 0.119125
O O7 0.715442 0.072922 0.974138
O O8 0.075931 0.089913 0.966219
O O9 0.500000 0.207402 0.250000
O O10 0.767803 0.919199 0.257186
O O11 0.569956 0.958443 0.123878
#
# Coordination Sequence:
#
# PCOD9279855 Si02
#       5
#     8   8   8   8   8
#     4  10  22  41  62  88 121 155 206 252 302 366
#     4  10  21  39  57  84 124 150 201 245 293 362
#     4  10  23  38  60  88 118 163 193 252 308 359
#     4  10  21  36  60  88 113 160 195 243 298 353
#     4  10  21  36  61  88 114 155 197 251 297 354
#
# _framework density 21.830086999999999
#
# number of rings (size 3 to 8) (size 9 to 14) (size 15 to 20)
#    0.000    2.000    0.000    2.400    2.800    8.800 
#    0.000    0.000    4.400    0.000    0.000    0.000 
#    0.000    0.000    0.000    0.000    0.000    0.000 
#
# Total GULP energy -111523.881751 kJ/mol
# GULP energy per Si atom -5576.194088 kJ/mol
# Density = 2.178040 g / cm^3
# Si number density = 21.830087 Si / 1000 Ang^3
#
#
#
# Elastic Constant Matrix: (Units=GPa)
#
#
# Indices 1 2 3 4 5 6 
#
# 1 64.2826 23.2075 9.4439 0.0000 -30.4715 0.0000
# 2 23.2075 88.4995 48.7925 0.0000 -22.2663 0.0000
# 3 9.4439 48.7925 90.7954 0.0000 -34.2039 0.0000
# 4 0.0000 0.0000 0.0000 16.0197 0.0000 -10.0600
# 5 -30.4715 -22.2663 -34.2039 0.0000 43.8215 0.0000
# 6 0.0000 0.0000 0.0000 -10.0600 0.0000 26.6147
#
#
#
# Elastic Compliance Matrix: (Units=1/GPa)
#
#
# Indices 1 2 3 4 5 6 
#
# 1 0.027500 -0.006565 0.009370 0.000000 0.023100 0.000000
# 2 -0.006565 0.017751 -0.010168 0.000000 -0.003482 0.000000
# 3 0.009370 -0.010168 0.022680 0.000000 0.019051 0.000000
# 4 0.000000 0.000000 0.000000 0.081853 0.000000 0.030939
# 5 0.023100 -0.003482 0.019051 0.000000 0.051983 0.000000
# 6 0.000000 0.000000 0.000000 0.030939 0.000000 0.049268
#
#
# Mechanical properties :
#
#
# Convention : Reuss Voigt Hill
#
# Bulk Modulus (GPa) = 18.79570 45.16281 31.97925
# Shear Modulus (GPa) = 17.63687 28.10008 22.86847
#
# Velocity S-wave (km/s) = 2.84547 3.59167 3.24012
# Velocity P-wave (km/s) = 4.40730 6.15901 5.35526
#
# Compressibility (1/GPa) = 0.05320367
#
# Stress axis : x y z
#
# Youngs Moduli (GPa) = 36.36390 56.33472 44.09091
#
# Poissons Ratio (x) = 0.36986 -0.41312
# Poissons Ratio (y) = 0.23874 0.44832
# Poissons Ratio (z) = -0.34072 0.57282
#
# Static dielectric constant tensor:
#      x y z
#    x 1.789090 0.000000 -0.003320 
#    y 0.000000 1.849290 0.000000 
#    z -0.003320 0.000000 1.826920 
# 
# From -- ./inp_files/129281.got.cif
#   From: 2010.05.17/outbox.cif.g08.bks.cpg/sg15_65_cif.got.tgz:129281.got - 2010.06.03 18:47:42.
