data_PCOD9279478
_publ_section_title
;
Structure prediction by ZEFSAII (Michael W. Deem and Ramdas Pophale) SiO2 
 PCOD9279478
Probable space group: C 2/C
;
_chemical_formula_sum "Si O2"
_cell_formula_units_Z 56
_cell_length_a 13.460383
_cell_length_b 19.839052
_cell_length_c 12.487829
_cell_angle_alpha 90.000000
_cell_angle_beta 66.262350
_cell_angle_gamma 90.000000
_cell_volume 3052.638402
_symmetry_space_group_name_H-M "C 2/C"
_symmetry_group_IT_number 15
_symmetry_cell_setting 'monoclinic'
loop_
_space_group_symop_operation_xyz
x,y,z
-x,y,1/2-z
-x,-y,-z
x,-y,1/2+z
1/2+x,1/2+y,z
1/2-x,1/2+y,1/2-z
1/2-x,1/2-y,-z
1/2+x,1/2-y,1/2+z
loop_
_atom_site_type_symbol
_atom_site_label
_atom_site_fract_x
_atom_site_fract_y
_atom_site_fract_z
Si Si1 0.430238 0.944015 0.387274
Si Si2 0.612522 0.440645 0.653481
Si Si3 0.794017 0.939581 0.109688
Si Si4 0.276394 0.172725 0.467095
Si Si5 0.982696 0.592045 0.428161
Si Si6 0.773846 0.413689 0.765306
Si Si7 0.876854 0.099282 0.797283
O O1 0.500000 0.945238 0.250000
O O2 0.314971 0.915753 0.401901
O O3 0.487908 0.905756 0.459261
O O4 0.420165 0.021302 0.433612
O O5 0.500000 0.414528 0.750000
O O6 0.618582 0.435778 0.522957
O O7 0.710001 0.408965 0.680787
O O8 0.618368 0.520394 0.674628
O O9 0.830672 0.898420 0.197099
O O10 0.764847 0.015534 0.163675
O O11 0.250000 0.250000 0.500000
O O12 0.402101 0.151459 0.430426
O O13 0.249006 0.145183 0.360422
O O14 0.204087 0.132920 0.584566
O O15 0.097149 0.586545 0.315772
O O16 0.000000 0.126042 0.750000
#
# Coordination Sequence:
#
# PCOD9279478 Si02
#       7
#     8   8   8   8   8   8   8
#     4  11  18  30  58  93 126 150 179 257 325 373
#     4  10  21  35  61  93 123 157 189 253 320 374
#     4  11  19  35  60  94 126 145 191 258 326 369
#     4  12  25  41  58  82 125 168 210 247 291 379
#     4  11  21  34  57  91 120 155 203 244 316 365
#     4  11  21  36  60  89 124 153 203 249 312 368
#     4  10  23  37  57  89 121 160 202 243 309 373
#
# _framework density 18.344787
#
# number of rings (size 3 to 8) (size 9 to 14) (size 15 to 20)
#    0.000    1.143    5.714    1.286    6.000    2.857 
#    0.000    0.000    0.000    3.429    0.000    0.000 
#    0.000    0.000    0.000    0.000    0.000    0.000 
#
# Total GULP energy -156281.285760 kJ/mol
# GULP energy per Si atom -5581.474491 kJ/mol
# Density = 1.830303 g / cm^3
# Si number density = 18.344787 Si / 1000 Ang^3
#
#
#
# Elastic Constant Matrix: (Units=GPa)
#
#
# Indices 1 2 3 4 5 6 
#
# 1 92.8450 28.0976 38.1435 0.0000 -2.6064 0.0000
# 2 28.0976 50.3307 18.1077 0.0000 1.3767 0.0000
# 3 38.1435 18.1077 128.4291 0.0000 8.1622 0.0000
# 4 0.0000 0.0000 0.0000 11.2977 0.0000 -3.6189
# 5 -2.6064 1.3767 8.1622 0.0000 36.7170 0.0000
# 6 0.0000 0.0000 0.0000 -3.6189 0.0000 12.2653
#
#
#
# Elastic Compliance Matrix: (Units=1/GPa)
#
#
# Indices 1 2 3 4 5 6 
#
# 1 0.014289 -0.006804 -0.003413 0.000000 0.002028 0.000000
# 2 -0.006804 0.024171 -0.001317 0.000000 -0.001096 0.000000
# 3 -0.003413 -0.001317 0.009127 0.000000 -0.002222 0.000000
# 4 0.000000 0.000000 0.000000 0.097752 0.000000 0.028842
# 5 0.002028 -0.001096 -0.002222 0.000000 0.027914 0.000000
# 6 0.000000 0.000000 0.000000 0.028842 0.000000 0.090041
#
#
# Mechanical properties :
#
#
# Convention : Reuss Voigt Hill
#
# Bulk Modulus (GPa) = 40.78803 48.92247 44.85525
# Shear Modulus (GPa) = 16.97577 24.53976 20.75777
#
# Velocity S-wave (km/s) = 3.04529 3.66142 3.36748
# Velocity P-wave (km/s) = 5.88621 6.67839 6.29477
#
# Compressibility (1/GPa) = 0.02451700
#
# Stress axis : x y z
#
# Youngs Moduli (GPa) = 69.98332 41.37154 109.56353
#
# Poissons Ratio (x) = 0.28151 0.37398
# Poissons Ratio (y) = 0.47620 0.14434
# Poissons Ratio (z) = 0.23888 0.05450
#
# Static dielectric constant tensor:
#      x y z
#    x 1.684300 0.000000 -0.026210 
#    y 0.000000 1.601110 0.000000 
#    z -0.026210 0.000000 1.678740 
# 
# From -- ./inp_files/89542.got.cif
#   From: 2010.05.17/outbox.cif.g08.bks.cpg/sg15_45_cif.got.tgz:89542.got - 2010.06.03 18:47:42.
