data_PCOD9279474
_publ_section_title
;
Structure prediction by ZEFSAII (Michael W. Deem and Ramdas Pophale) SiO2 
 PCOD9279474
Probable space group: C 2/C
;
_chemical_formula_sum "Si O2"
_cell_formula_units_Z 48
_cell_length_a 12.986293
_cell_length_b 22.918745
_cell_length_c 9.534502
_cell_angle_alpha 90.000000
_cell_angle_beta 47.753047
_cell_angle_gamma 90.000000
_cell_volume 2100.655029
_symmetry_space_group_name_H-M "C 2/C"
_symmetry_group_IT_number 15
_symmetry_cell_setting 'monoclinic'
loop_
_space_group_symop_operation_xyz
x,y,z
-x,y,1/2-z
-x,-y,-z
x,-y,1/2+z
1/2+x,1/2+y,z
1/2-x,1/2+y,1/2-z
1/2-x,1/2-y,-z
1/2+x,1/2-y,1/2+z
loop_
_atom_site_type_symbol
_atom_site_label
_atom_site_fract_x
_atom_site_fract_y
_atom_site_fract_z
Si Si1 0.159156 0.664900 0.621284
Si Si2 0.160156 0.467522 0.100325
Si Si3 0.151708 0.662578 0.138167
Si Si4 0.208397 0.942227 0.823292
Si Si5 0.774965 0.740970 0.687328
Si Si6 0.590533 0.341362 0.806778
O O1 0.152547 0.597463 0.673925
O O2 0.236720 0.707178 0.656980
O O3 0.250979 0.662378 0.398116
O O4 0.000000 0.684746 0.750000
O O5 0.271640 0.504217 0.088184
O O6 0.000000 0.490495 0.250000
O O7 0.208855 0.461114 0.893766
O O8 0.232561 0.610525 0.136000
O O9 0.153728 0.718044 0.239963
O O10 0.000000 0.639928 0.250000
O O11 0.206140 0.690440 0.944684
O O12 0.073403 0.906491 0.887022
O O13 0.904176 0.787203 0.590147
O O14 0.500000 0.334587 0.750000
#
# Coordination Sequence:
#
# PCOD9279474 Si02
#       6
#     8   8   8   8   8   8
#     4  10  22  36  62  93 120 156 207 253 302 360
#     4  10  21  35  61  91 121 160 203 255 310 359
#     4  10  23  36  57  84 123 161 200 251 306 360
#     4  10  22  39  58  89 121 160 205 255 306 360
#     4  10  22  36  57  87 118 163 200 247 303 367
#     4  10  22  40  62  89 124 164 202 251 304 365
#
# _framework density 22.850016
#
# number of rings (size 3 to 8) (size 9 to 14) (size 15 to 20)
#    0.000    2.000    0.000    2.000   14.000    0.000 
#    0.000    3.333    0.000    1.000    0.000    0.000 
#    0.000    0.000    0.000    0.000    0.000    0.000 
#
# Total GULP energy -133695.168502 kJ/mol
# GULP energy per Si atom -5570.632021 kJ/mol
# Density = 2.279801 g / cm^3
# Si number density = 22.850016 Si / 1000 Ang^3
#
#
#
# Elastic Constant Matrix: (Units=GPa)
#
#
# Indices 1 2 3 4 5 6 
#
# 1 52.8649 13.2542 14.2050 0.0000 23.7294 0.0000
# 2 13.2542 97.6233 17.5842 0.0000 21.7388 0.0000
# 3 14.2050 17.5842 50.1231 0.0000 20.4372 0.0000
# 4 0.0000 0.0000 0.0000 30.0677 0.0000 22.1662
# 5 23.7294 21.7388 20.4372 0.0000 32.2202 0.0000
# 6 0.0000 0.0000 0.0000 22.1662 0.0000 41.6682
#
#
#
# Elastic Compliance Matrix: (Units=1/GPa)
#
#
# Indices 1 2 3 4 5 6 
#
# 1 0.028342 0.000916 0.000552 0.000000 -0.021842 0.000000
# 2 0.000916 0.012141 -0.001219 0.000000 -0.008093 0.000000
# 3 0.000552 -0.001219 0.027048 0.000000 -0.016740 0.000000
# 4 0.000000 0.000000 0.000000 0.054717 0.000000 -0.029107
# 5 -0.021842 -0.008093 -0.016740 0.000000 0.063201 0.000000
# 6 0.000000 0.000000 0.000000 -0.029107 0.000000 0.039483
#
#
# Mechanical properties :
#
#
# Convention : Reuss Voigt Hill
#
# Bulk Modulus (GPa) = 14.69960 32.29978 23.49969
# Shear Modulus (GPa) = 20.23394 31.16240 25.69817
#
# Velocity S-wave (km/s) = 2.97898 3.69695 3.35721
# Velocity P-wave (km/s) = 4.27545 5.69117 5.03334
#
# Compressibility (1/GPa) = 0.06802907
#
# Stress axis : x y z
#
# Youngs Moduli (GPa) = 35.28319 82.36713 36.97150
#
# Poissons Ratio (x) = -0.07547 -0.02041
# Poissons Ratio (y) = -0.03233 0.04507
# Poissons Ratio (z) = -0.01948 0.10042
#
# Static dielectric constant tensor:
#      x y z
#    x 1.930590 0.000000 -0.006070 
#    y 0.000000 1.937170 0.000000 
#    z -0.006070 0.000000 1.938480 
# 
# From -- ./inp_files/32520.got.cif
#   From: 2010.05.17/outbox.cif.g08.bks.cpg/sg15_17_cif.got.tgz:32520.got - 2010.06.03 18:47:42.
