data_PCOD9279479
_publ_section_title
;
Structure prediction by ZEFSAII (Michael W. Deem and Ramdas Pophale) SiO2 
 PCOD9279479
Probable space group: C 2/C
;
_chemical_formula_sum "Si O2"
_cell_formula_units_Z 56
_cell_length_a 9.589345
_cell_length_b 17.547892
_cell_length_c 30.319036
_cell_angle_alpha 90.000000
_cell_angle_beta 152.342060
_cell_angle_gamma 90.000000
_cell_volume 2368.246504
_symmetry_space_group_name_H-M "C 2/C"
_symmetry_group_IT_number 15
_symmetry_cell_setting 'monoclinic'
loop_
_space_group_symop_operation_xyz
x,y,z
-x,y,1/2-z
-x,-y,-z
x,-y,1/2+z
1/2+x,1/2+y,z
1/2-x,1/2+y,1/2-z
1/2-x,1/2-y,-z
1/2+x,1/2-y,1/2+z
loop_
_atom_site_type_symbol
_atom_site_label
_atom_site_fract_x
_atom_site_fract_y
_atom_site_fract_z
Si Si1 0.386498 0.536716 0.168831
Si Si2 0.198800 0.345094 0.469445
Si Si3 0.657706 0.736454 0.662739
Si Si4 0.650866 0.408799 0.657902
Si Si5 0.432411 0.643496 0.679574
Si Si6 0.060863 0.833277 0.489908
Si Si7 0.763671 0.014957 0.493822
O O1 0.500000 0.549758 0.250000
O O2 0.556288 0.589356 0.181869
O O3 0.445113 0.447328 0.174774
O O4 0.028916 0.550498 0.064695
O O5 0.480020 0.345687 0.581398
O O6 0.590007 0.173572 0.582466
O O7 0.311175 0.309431 0.455653
O O8 0.140532 0.434760 0.440724
O O9 0.634288 0.686857 0.700806
O O10 0.389391 0.797998 0.590720
O O11 0.554067 0.687464 0.590990
O O12 0.000000 0.762512 0.750000
O O13 0.516882 0.486462 0.598564
O O14 0.000000 0.403186 0.750000
O O15 0.500000 0.656416 0.750000
O O16 0.113239 0.924207 0.505649
#
# Coordination Sequence:
#
# PCOD9279479 Si02
#       7
#     8   8   8   8   8   8   8
#     4  10  21  35  61  94 126 166 213 262 323 383
#     4   9  22  39  65  97 132 160 210 258 334 389
#     4  11  26  44  66  93 126 172 230 269 314 370
#     4  10  22  36  56  95 134 167 204 248 323 392
#     4  10  21  41  68  93 124 171 222 270 314 375
#     4  11  23  43  65  95 127 171 215 268 322 378
#     4   9  21  37  66  90 132 164 202 264 324 394
#
# _framework density 23.646187999999999
#
# number of rings (size 3 to 8) (size 9 to 14) (size 15 to 20)
#    0.857    1.143    0.000    2.571    4.000    5.714 
#    0.000    0.714    0.000    0.000    0.000    0.000 
#    0.000    0.000    0.000    0.000    0.000    0.000 
#
# Total GULP energy -156419.679367 kJ/mol
# GULP energy per Si atom -5586.417120 kJ/mol
# Density = 2.359237 g / cm^3
# Si number density = 23.646188 Si / 1000 Ang^3
#
#
#
# Elastic Constant Matrix: (Units=GPa)
#
#
# Indices 1 2 3 4 5 6 
#
# 1 132.0748 5.4305 16.6855 0.0001 7.3421 -0.0004
# 2 5.4305 48.8364 -23.1597 -0.0001 -10.3130 -0.0011
# 3 16.6855 -23.1597 102.3668 0.0066 15.2116 -0.0017
# 4 0.0001 -0.0001 0.0066 0.9191 0.0004 0.1522
# 5 7.3421 -10.3130 15.2116 0.0004 42.4389 -0.0009
# 6 -0.0004 -0.0011 -0.0017 0.1522 -0.0009 26.9531
#
#
#
# Elastic Compliance Matrix: (Units=1/GPa)
#
#
# Indices 1 2 3 4 5 6 
#
# 1 0.007912 -0.001872 -0.001523 0.000010 -0.001278 0.000000
# 2 -0.001872 0.024016 0.005095 -0.000034 0.004334 0.000002
# 3 -0.001523 0.005095 0.011562 -0.000081 -0.002643 0.000001
# 4 0.000010 -0.000034 -0.000081 1.089013 0.000009 -0.006149
# 5 -0.001278 0.004334 -0.002643 0.000009 0.025785 0.000001
# 6 0.000000 0.000002 0.000001 -0.006149 0.000001 0.037136
#
#
# Mechanical properties :
#
#
# Convention : Reuss Voigt Hill
#
# Bulk Modulus (GPa) = 21.32708 31.24340 26.28524
# Shear Modulus (GPa) = 4.14026 33.01701 18.57863
#
# Velocity S-wave (km/s) = 1.32466 3.74075 2.80606
# Velocity P-wave (km/s) = 3.37320 5.64794 4.65176
#
# Compressibility (1/GPa) = 0.04688875
#
# Stress axis : x y z
#
# Youngs Moduli (GPa) = 126.39177 41.63911 86.48715
#
# Poissons Ratio (x) = 0.07795 0.13174
# Poissons Ratio (y) = 0.23660 -0.44061
# Poissons Ratio (z) = 0.19253 -0.21213
#
# Static dielectric constant tensor:
#      x y z
#    x 1.861020 0.000000 0.001730 
#    y 0.000000 1.945280 0.000000 
#    z 0.001730 0.000000 1.907190 
# 
# From -- ./inp_files/309020.got.cif
#   From: 2010.05.17/outbox.cif.g08.bks.cpg/sg15_155_cif.got.tgz:309020.got - 2010.06.03 18:47:42.
