data_PCOD9279977
_publ_section_title
;
Structure prediction by ZEFSAII (Michael W. Deem and Ramdas Pophale) SiO2 
 PCOD9279977
Probable space group: C 2/C
;
_chemical_formula_sum "Si O2"
_cell_formula_units_Z 40
_cell_length_a 14.762230
_cell_length_b 13.632840
_cell_length_c 23.039066
_cell_angle_alpha 90.000000
_cell_angle_beta 25.267128
_cell_angle_gamma 90.000000
_cell_volume 1979.098311
_symmetry_space_group_name_H-M "C 2/C"
_symmetry_group_IT_number 15
_symmetry_cell_setting 'monoclinic'
loop_
_space_group_symop_operation_xyz
x,y,z
-x,y,1/2-z
-x,-y,-z
x,-y,1/2+z
1/2+x,1/2+y,z
1/2-x,1/2+y,1/2-z
1/2-x,1/2-y,-z
1/2+x,1/2-y,1/2+z
loop_
_atom_site_type_symbol
_atom_site_label
_atom_site_fract_x
_atom_site_fract_y
_atom_site_fract_z
Si Si1 0.499300 0.417027 0.452188
Si Si2 0.159204 0.595121 0.835840
Si Si3 0.192671 0.633154 0.028303
Si Si4 0.324645 0.212902 0.301110
Si Si5 0.759134 0.980681 0.889601
O O1 0.500000 0.500000 0.500000
O O2 0.731209 0.412780 0.289740
O O3 0.335862 0.425527 0.492200
O O4 0.395218 0.323766 0.544378
O O5 0.273734 0.689137 0.796692
O O6 0.208761 0.506541 0.851903
O O7 0.905465 0.595309 0.986611
O O8 0.944735 0.634678 0.189940
O O9 0.250000 0.750000 0.000000
O O10 0.233680 0.580360 0.943324
O O11 0.500000 0.226922 0.250000
O O12 0.000000 0.947515 0.750000
#
# Coordination Sequence:
#
# PCOD9279977 Si02
#       5
#     8   8   8   8   8
#     4  11  22  37  57  94 130 159 203 262 326 376
#     4  11  22  36  60  92 122 165 207 263 314 383
#     4  11  19  37  65  91 127 158 210 265 309 374
#     4  10  21  36  62  91 123 160 212 265 311 364
#     4  11  21  37  60  90 128 160 205 256 322 376
#
# _framework density 20.211223
#
# number of rings (size 3 to 8) (size 9 to 14) (size 15 to 20)
#    0.000    1.200    4.000    4.200    0.000    0.000 
#    0.000    0.000    0.000    8.400    0.000    0.000 
#    0.000    0.000    0.000    0.000    0.000    0.000 
#
# Total GULP energy -111525.081893 kJ/mol
# GULP energy per Si atom -5576.254095 kJ/mol
# Density = 2.016522 g / cm^3
# Si number density = 20.211223 Si / 1000 Ang^3
#
#
#
# Elastic Constant Matrix: (Units=GPa)
#
#
# Indices 1 2 3 4 5 6 
#
# 1 59.4253 26.7074 27.9746 -0.0026 11.5008 0.0018
# 2 26.7074 56.4523 31.5464 -0.0095 -0.1613 0.0002
# 3 27.9746 31.5464 202.8574 -0.0067 6.3419 0.0004
# 4 -0.0026 -0.0095 -0.0067 41.4235 0.0016 -0.2950
# 5 11.5008 -0.1613 6.3419 0.0016 37.4334 -0.0051
# 6 0.0018 0.0002 0.0004 -0.2950 -0.0051 26.3970
#
#
#
# Elastic Compliance Matrix: (Units=1/GPa)
#
#
# Indices 1 2 3 4 5 6 
#
# 1 0.023504 -0.010351 -0.001412 -0.000001 -0.007027 -0.000003
# 2 -0.010351 0.023972 -0.002416 0.000004 0.003693 0.000001
# 3 -0.001412 -0.002416 0.005516 0.000000 -0.000511 0.000000
# 4 -0.000001 0.000004 0.000000 0.024143 -0.000001 0.000270
# 5 -0.007027 0.003693 -0.000511 -0.000001 0.028976 0.000006
# 6 -0.000003 0.000001 0.000000 0.000270 0.000006 0.037886
#
#
# Mechanical properties :
#
#
# Convention : Reuss Voigt Hill
#
# Bulk Modulus (GPa) = 40.59346 54.57687 47.58516
# Shear Modulus (GPa) = 27.69080 36.55123 32.12102
#
# Velocity S-wave (km/s) = 3.70546 4.25722 3.99089
# Velocity P-wave (km/s) = 6.19964 7.15731 6.69562
#
# Compressibility (1/GPa) = 0.02463451
#
# Stress axis : x y z
#
# Youngs Moduli (GPa) = 42.54517 41.71600 181.29223
#
# Poissons Ratio (x) = 0.43180 0.25598
# Poissons Ratio (y) = 0.44038 0.43798
# Poissons Ratio (z) = 0.06007 0.10078
#
# Static dielectric constant tensor:
#      x y z
#    x 1.749880 0.000000 0.008640 
#    y 0.000000 1.728630 0.000010 
#    z 0.008640 0.000010 1.853970 
# 
# From -- ./inp_files/299056.got.cif
#   From: 2010.05.17/outbox.cif.g08.bks.cpg/sg15_150_cif.got.tgz:299056.got - 2010.06.03 18:47:42.
