data_PCOD9279064
_publ_section_title
;
Structure prediction by ZEFSAII (Michael W. Deem and Ramdas Pophale) SiO2 
 PCOD9279064
Probable space group: C 2/C
;
_chemical_formula_sum "Si O2"
_cell_formula_units_Z 32
_cell_length_a 20.258122
_cell_length_b 9.821178
_cell_length_c 16.039281
_cell_angle_alpha 90.000000
_cell_angle_beta 20.324832
_cell_angle_gamma 90.000000
_cell_volume 1108.421871
_symmetry_space_group_name_H-M "C 2/C"
_symmetry_group_IT_number 15
_symmetry_cell_setting 'monoclinic'
loop_
_space_group_symop_operation_xyz
x,y,z
-x,y,1/2-z
-x,-y,-z
x,-y,1/2+z
1/2+x,1/2+y,z
1/2-x,1/2+y,1/2-z
1/2-x,1/2-y,-z
1/2+x,1/2-y,1/2+z
loop_
_atom_site_type_symbol
_atom_site_label
_atom_site_fract_x
_atom_site_fract_y
_atom_site_fract_z
Si Si1 0.611494 0.309056 0.041558
Si Si2 0.599837 0.582646 0.219171
Si Si3 0.257835 0.722129 0.293021
Si Si4 0.617887 0.047841 0.743886
O O1 0.500000 0.236854 0.250000
O O2 0.457930 0.426530 0.200898
O O3 0.672709 0.247847 0.881943
O O4 0.801813 0.394060 0.843493
O O5 0.500000 0.627234 0.250000
O O6 0.096059 0.842681 0.811902
O O7 0.685530 0.908202 0.071704
O O8 0.252566 0.872477 0.340505
O O9 0.092458 0.605468 0.489535
#
# Coordination Sequence:
#
# PCOD9279064 Si02
#       4
#     8   8   8   8
#     4   9  21  40  58  83 115 149 192 234 279 339
#     4   9  19  35  54  83 114 142 183 234 283 330
#     4  12  20  35  60  84 116 154 185 234 288 335
#     4  10  21  34  55  88 115 145 191 236 281 338
#
# _framework density 28.869876000000001
#
# number of rings (size 3 to 8) (size 9 to 14) (size 15 to 20)
#    0.000    2.500    0.000    6.000    0.000    4.000 
#    0.000    1.250    0.000    3.000    0.000    0.000 
#    0.000    0.000    0.000    0.000    0.000    0.000 
#
# Total GULP energy -89211.863023 kJ/mol
# GULP energy per Si atom -5575.741439 kJ/mol
# Density = 2.880417 g / cm^3
# Si number density = 28.869876 Si / 1000 Ang^3
#
#
#
# Elastic Constant Matrix: (Units=GPa)
#
#
# Indices 1 2 3 4 5 6 
#
# 1 140.3072 27.2325 52.2107 -0.0002 23.0218 -0.0011
# 2 27.2325 55.3522 25.5888 0.0001 15.8906 0.0000
# 3 52.2107 25.5888 147.0302 0.0006 26.9792 0.0009
# 4 -0.0002 0.0001 0.0006 38.6208 0.0001 12.4112
# 5 23.0218 15.8906 26.9792 0.0001 65.6088 0.0005
# 6 -0.0011 0.0000 0.0009 12.4112 0.0005 -61.8080
#
#
#
# Elastic Compliance Matrix: (Units=1/GPa)
#
#
# Indices 1 2 3 4 5 6 
#
# 1 0.008790 -0.002820 -0.002369 0.000000 -0.001427 0.000000
# 2 -0.002820 0.021383 -0.002111 0.000000 -0.003322 0.000000
# 3 -0.002369 -0.002111 0.008397 0.000000 -0.002111 0.000000
# 4 0.000000 0.000000 0.000000 0.024323 0.000000 0.004884
# 5 -0.001427 -0.003322 -0.002111 0.000000 0.017415 0.000000
# 6 0.000000 0.000000 0.000000 0.004884 0.000000 -0.015198
#
#
# Mechanical properties :
#
#
# Convention : Reuss Voigt Hill
#
# Bulk Modulus (GPa) = 41.71585 61.41704 51.56644
# Shear Modulus (GPa) = 57.01334 24.32816 40.67075
#
# Velocity S-wave (km/s) = 4.44874 2.90605 3.75742
# Velocity P-wave (km/s) = 6.39291 5.70790 6.06009
#
# Compressibility (1/GPa) = 0.02397171
#
# Stress axis : x y z
#
# Youngs Moduli (GPa) = 113.76331 46.76675 119.08908
#
# Poissons Ratio (x) = 0.13187 0.28209
# Poissons Ratio (y) = 0.32079 0.25135
# Poissons Ratio (z) = 0.26948 0.09871
#
# Static dielectric constant tensor:
#      x y z
#    x 2.256310 0.000000 -0.271190 
#    y 0.000000 2.323480 0.000000 
#    z -0.271190 0.000000 2.759840 
# 
# From -- ./inp_files/203141.got.cif
#   From: 2010.05.17/outbox.cif.g08.bks.cpg/sg15_102_cif.got.tgz:203141.got - 2010.06.03 18:47:42.
