data_PCOD9279874
_publ_section_title
;
Structure prediction by ZEFSAII (Michael W. Deem and Ramdas Pophale) SiO2 
 PCOD9279874
Probable space group: C 2/C
;
_chemical_formula_sum "Si O2"
_cell_formula_units_Z 32
_cell_length_a 18.109719
_cell_length_b 16.785566
_cell_length_c 4.971313
_cell_angle_alpha 90.000000
_cell_angle_beta 107.573754
_cell_angle_gamma 90.000000
_cell_volume 1440.660500
_symmetry_space_group_name_H-M "C 2/C"
_symmetry_group_IT_number 15
_symmetry_cell_setting 'monoclinic'
loop_
_space_group_symop_operation_xyz
x,y,z
-x,y,1/2-z
-x,-y,-z
x,-y,1/2+z
1/2+x,1/2+y,z
1/2-x,1/2+y,1/2-z
1/2-x,1/2-y,-z
1/2+x,1/2-y,1/2+z
loop_
_atom_site_type_symbol
_atom_site_label
_atom_site_fract_x
_atom_site_fract_y
_atom_site_fract_z
Si Si1 0.783417 0.949612 0.876022
Si Si2 0.402446 0.051982 0.319341
Si Si3 0.168635 0.780987 0.792016
Si Si4 0.077255 0.729229 0.197565
O O1 0.690711 0.936839 0.758258
O O2 0.822370 0.869304 0.816346
O O3 0.802407 0.022583 0.696853
O O4 0.437458 0.138326 0.408103
O O5 0.421249 0.982774 0.549535
O O6 0.140368 0.728388 0.507792
O O7 0.250000 0.750000 0.000000
O O8 0.108830 0.774836 0.973023
O O9 0.000000 0.762817 0.250000
#
# Coordination Sequence:
#
# PCOD9279874 Si02
#       4
#     8   8   8   8
#     4  10  21  37  63  95 124 156 209 269 314 362
#     4  10  21  36  60  92 130 167 206 246 308 385
#     4  12  24  42  69  94 125 170 218 264 309 371
#     4  12  26  42  63  95 134 172 208 260 321 376
#
# _framework density 22.212035
#
# number of rings (size 3 to 8) (size 9 to 14) (size 15 to 20)
#    0.000    1.000    2.500    4.500    7.000    1.000 
#    0.000    0.000    0.000   15.000    0.000    0.000 
#    0.000    0.000    0.000    0.000    0.000    0.000 
#
# Total GULP energy -89608.174131 kJ/mol
# GULP energy per Si atom -5600.510883 kJ/mol
# Density = 2.216148 g / cm^3
# Si number density = 22.212035 Si / 1000 Ang^3
#
#
#
# Elastic Constant Matrix: (Units=GPa)
#
#
# Indices 1 2 3 4 5 6 
#
# 1 91.5720 43.3915 12.7418 0.0000 -31.9811 0.0000
# 2 43.3915 74.8695 4.1097 0.0000 -9.2104 0.0000
# 3 12.7418 4.1097 79.1390 0.0000 -12.9866 0.0000
# 4 0.0000 0.0000 0.0000 35.0826 0.0000 -13.1861
# 5 -31.9811 -9.2104 -12.9866 0.0000 41.6762 0.0000
# 6 0.0000 0.0000 0.0000 -13.1861 0.0000 37.8984
#
#
#
# Elastic Compliance Matrix: (Units=1/GPa)
#
#
# Indices 1 2 3 4 5 6 
#
# 1 0.020469 -0.010198 -0.000588 0.000000 0.013270 0.000000
# 2 -0.010198 0.018815 0.000066 0.000000 -0.003647 0.000000
# 3 -0.000588 0.000066 0.013338 0.000000 0.003719 0.000000
# 4 0.000000 0.000000 0.000000 0.032793 0.000000 0.011410
# 5 0.013270 -0.003647 0.003719 0.000000 0.034531 0.000000
# 6 0.000000 0.000000 0.000000 0.011410 0.000000 0.030356
#
#
# Mechanical properties :
#
#
# Convention : Reuss Voigt Hill
#
# Bulk Modulus (GPa) = 32.07078 40.67406 36.37242
# Shear Modulus (GPa) = 27.45199 35.28726 31.36963
#
# Velocity S-wave (km/s) = 3.51936 3.99012 3.76211
# Velocity P-wave (km/s) = 5.56636 6.29123 5.93986
#
# Compressibility (1/GPa) = 0.03118103
#
# Stress axis : x y z
#
# Youngs Moduli (GPa) = 48.85330 53.14939 74.97602
#
# Poissons Ratio (x) = 0.54204 0.04412
# Poissons Ratio (y) = 0.49823 -0.00498
# Poissons Ratio (z) = 0.02875 -0.00353
#
# Static dielectric constant tensor:
#      x y z
#    x 1.857900 0.000000 0.040240 
#    y 0.000000 1.779210 0.000000 
#    z 0.040240 0.000000 1.805560 
# 
# From -- ./inp_files/6405.got.cif
#   From: 2010.05.17/outbox.cif.g08.bks.cpg/sg15_4_cif.got.tgz:6405.got - 2010.06.03 18:47:42.
