data_PCOD9279240
_publ_section_title
;
Structure prediction by ZEFSAII (Michael W. Deem and Ramdas Pophale) SiO2 
 PCOD9279240
Probable space group: C 2/C
;
_chemical_formula_sum "Si O2"
_cell_formula_units_Z 64
_cell_length_a 12.335299
_cell_length_b 23.618527
_cell_length_c 11.254708
_cell_angle_alpha 90.000000
_cell_angle_beta 105.955193
_cell_angle_gamma 90.000000
_cell_volume 3152.648864
_symmetry_space_group_name_H-M "C 2/C"
_symmetry_group_IT_number 15
_symmetry_cell_setting 'monoclinic'
loop_
_space_group_symop_operation_xyz
x,y,z
-x,y,1/2-z
-x,-y,-z
x,-y,1/2+z
1/2+x,1/2+y,z
1/2-x,1/2+y,1/2-z
1/2-x,1/2-y,-z
1/2+x,1/2-y,1/2+z
loop_
_atom_site_type_symbol
_atom_site_label
_atom_site_fract_x
_atom_site_fract_y
_atom_site_fract_z
Si Si1 0.826669 0.080308 0.142381
Si Si2 0.366541 0.285985 0.906821
Si Si3 0.209724 0.684169 0.986412
Si Si4 0.879587 0.037758 0.656589
Si Si5 0.947506 0.907090 0.929534
Si Si6 0.723179 0.647863 0.760108
Si Si7 0.540985 0.180141 0.639127
Si Si8 0.621040 0.237629 0.330695
O O1 0.871643 0.086213 0.289689
O O2 0.927429 0.079410 0.075587
O O3 0.791006 0.014223 0.127037
O O4 0.758686 0.136959 0.090521
O O5 0.439065 0.340631 0.953037
O O6 0.415110 0.244288 0.822144
O O7 0.235181 0.297881 0.842323
O O8 0.378442 0.248117 0.028478
O O9 0.246146 0.659831 0.867634
O O10 0.074801 0.684154 0.966866
O O11 0.250000 0.750000 0.000000
O O12 0.905684 0.059375 0.531509
O O13 0.837288 0.089889 0.724423
O O14 0.000000 0.019361 0.750000
O O15 0.844369 0.649337 0.864809
O O16 0.648393 0.700981 0.780984
O O17 0.500000 0.153128 0.750000
O O18 0.500000 0.216913 0.250000
#
# Coordination Sequence:
#
# PCOD9279240 Si02
#       8
#     8   8   8   8   8   8   8   8
#     4  11  26  38  61  94 125 165 208 267 318 378
#     4  10  21  35  56  85 124 156 205 255 315 374
#     4  11  24  40  65  94 125 169 218 265 324 396
#     4  12  23  42  64  91 125 170 213 265 321 388
#     4  11  23  39  59  89 132 163 208 263 320 370
#     4  10  22  39  62  88 120 168 215 260 319 383
#     4   9  21  38  58  85 121 160 206 260 310 384
#     4  10  21  35  53  88 119 165 200 253 313 382
#
# _framework density 20.30039
#
# number of rings (size 3 to 8) (size 9 to 14) (size 15 to 20)
#    0.000    1.500    2.500    2.250   12.250    0.000 
#    0.000    0.625    0.000    0.000    0.000    0.000 
#    0.000    0.000    0.000    0.000    0.000    0.000 
#
# Total GULP energy -178395.921130 kJ/mol
# GULP energy per Si atom -5574.872535 kJ/mol
# Density = 2.025419 g / cm^3
# Si number density = 20.300390 Si / 1000 Ang^3
#
#
#
# Elastic Constant Matrix: (Units=GPa)
#
#
# Indices 1 2 3 4 5 6 
#
# 1 71.0622 7.0791 28.8110 0.0000 5.4798 0.0000
# 2 7.0791 87.9181 19.2035 0.0000 -1.4660 0.0000
# 3 28.8110 19.2035 74.4498 0.0000 -1.6537 0.0000
# 4 0.0000 0.0000 0.0000 17.1541 0.0000 4.5381
# 5 5.4798 -1.4660 -1.6537 0.0000 33.4959 0.0000
# 6 0.0000 0.0000 0.0000 4.5381 0.0000 21.4744
#
#
#
# Elastic Compliance Matrix: (Units=1/GPa)
#
#
# Indices 1 2 3 4 5 6 
#
# 1 0.017009 0.000033 -0.006660 0.000000 -0.003110 0.000000
# 2 0.000033 0.012058 -0.003115 0.000000 0.000368 0.000000
# 3 -0.006660 -0.003115 0.016852 0.000000 0.001785 0.000000
# 4 0.000000 0.000000 0.000000 0.061747 0.000000 -0.013049
# 5 -0.003110 0.000368 0.001785 0.000000 0.030467 0.000000
# 6 0.000000 0.000000 0.000000 -0.013049 0.000000 0.049324
#
#
# Mechanical properties :
#
#
# Convention : Reuss Voigt Hill
#
# Bulk Modulus (GPa) = 37.82703 38.17972 38.00337
# Shear Modulus (GPa) = 23.17465 26.31400 24.74432
#
# Velocity S-wave (km/s) = 3.38240 3.60423 3.49507
# Velocity P-wave (km/s) = 5.82480 6.01405 5.92018
#
# Compressibility (1/GPa) = 0.02643613
#
# Stress axis : x y z
#
# Youngs Moduli (GPa) = 58.79320 82.93207 59.33936
#
# Poissons Ratio (x) = -0.00276 0.39519
# Poissons Ratio (y) = -0.00196 0.18484
# Poissons Ratio (z) = 0.39155 0.25833
#
# Static dielectric constant tensor:
#      x y z
#    x 1.755920 0.000000 -0.013010 
#    y 0.000000 1.766280 0.000000 
#    z -0.013010 0.000000 1.831300 
# 
# From -- ./inp_files/91299.got.cif
#   From: 2010.05.17/outbox.cif.g08.bks.cpg/sg15_46_cif.got.tgz:91299.got - 2010.06.03 18:47:42.
