data_PCOD9279088
_publ_section_title
;
Structure prediction by ZEFSAII (Michael W. Deem and Ramdas Pophale) SiO2 
 PCOD9279088
Probable space group: C 2/C
;
_chemical_formula_sum "Si O2"
_cell_formula_units_Z 56
_cell_length_a 5.545966
_cell_length_b 23.339956
_cell_length_c 21.405028
_cell_angle_alpha 90.000000
_cell_angle_beta 91.474685
_cell_angle_gamma 90.000000
_cell_volume 2769.804847
_symmetry_space_group_name_H-M "C 2/C"
_symmetry_group_IT_number 15
_symmetry_cell_setting 'monoclinic'
loop_
_space_group_symop_operation_xyz
x,y,z
-x,y,1/2-z
-x,-y,-z
x,-y,1/2+z
1/2+x,1/2+y,z
1/2-x,1/2+y,1/2-z
1/2-x,1/2-y,-z
1/2+x,1/2-y,1/2+z
loop_
_atom_site_type_symbol
_atom_site_label
_atom_site_fract_x
_atom_site_fract_y
_atom_site_fract_z
Si Si1 0.747811 0.032373 0.710926
Si Si2 0.991049 0.685153 0.126519
Si Si3 0.663423 0.763780 0.190750
Si Si4 0.880901 0.133442 0.629244
Si Si5 0.729985 0.796893 0.409375
Si Si6 0.645860 0.814429 0.002612
Si Si7 0.248363 0.600918 0.211734
O O1 0.500000 0.042000 0.750000
O O2 0.773196 0.074361 0.652095
O O3 0.000000 0.042825 0.750000
O O4 0.755468 0.965668 0.691657
O O5 0.083908 0.745561 0.099041
O O6 0.199080 0.645346 0.155331
O O7 0.822849 0.707780 0.181463
O O8 0.847851 0.659040 0.066683
O O9 0.500000 0.761537 0.250000
O O10 0.817839 0.821535 0.184651
O O11 0.492961 0.771705 0.130171
O O12 0.775662 0.151556 0.560128
O O13 0.164566 0.145525 0.620833
O O14 0.632956 0.810309 0.476978
O O15 0.750000 0.750000 0.000000
O O16 0.500000 0.612078 0.250000
O O17 0.000000 0.604052 0.250000
#
# Coordination Sequence:
#
# PCOD9279088 Si02
#       7
#     8   8   8   8   8   8   8
#     4  10  23  44  69  92 125 168 219 277 332 382
#     4  11  23  36  62  85 125 174 202 258 320 392
#     4  10  22  34  53  94 131 162 207 258 324 394
#     4  10  22  35  61  89 126 168 216 264 319 383
#     4  10  21  34  56  86 127 168 210 254 315 393
#     4  11  20  39  54  91 129 169 214 249 322 392
#     4  10  25  45  65  93 124 167 220 271 331 388
#
# _framework density 20.218029999999999
#
# number of rings (size 3 to 8) (size 9 to 14) (size 15 to 20)
#    0.000    1.714    4.286    0.857   10.000    1.143 
#    0.000    0.714    0.000    0.857    0.000    0.000 
#    0.000    0.000    0.000    0.000    0.000    0.000 
#
# Total GULP energy -155993.613390 kJ/mol
# GULP energy per Si atom -5571.200478 kJ/mol
# Density = 2.017201 g / cm^3
# Si number density = 20.218030 Si / 1000 Ang^3
#
#
#
# Elastic Constant Matrix: (Units=GPa)
#
#
# Indices 1 2 3 4 5 6 
#
# 1 92.4305 34.7544 25.1446 0.0000 -3.4711 0.0000
# 2 34.7544 92.4089 45.8251 0.0000 7.9006 0.0000
# 3 25.1446 45.8251 89.2202 0.0000 1.3352 0.0000
# 4 0.0000 0.0000 0.0000 18.5600 0.0000 1.9414
# 5 -3.4711 7.9006 1.3352 0.0000 42.2785 0.0000
# 6 0.0000 0.0000 0.0000 1.9414 0.0000 24.4158
#
#
#
# Elastic Compliance Matrix: (Units=1/GPa)
#
#
# Indices 1 2 3 4 5 6 
#
# 1 0.012901 -0.004291 -0.001461 0.000000 0.001907 0.000000
# 2 -0.004291 0.016211 -0.007070 0.000000 -0.003158 0.000000
# 3 -0.001461 -0.007070 0.015240 0.000000 0.000720 0.000000
# 4 0.000000 0.000000 0.000000 0.054331 0.000000 -0.004320
# 5 0.001907 -0.003158 0.000720 0.000000 0.024377 0.000000
# 6 0.000000 0.000000 0.000000 -0.004320 0.000000 0.041301
#
#
# Mechanical properties :
#
#
# Convention : Reuss Voigt Hill
#
# Bulk Modulus (GPa) = 53.44680 53.94531 53.69605
# Shear Modulus (GPa) = 25.47896 28.27323 26.87609
#
# Velocity S-wave (km/s) = 3.55379 3.74360 3.64993
# Velocity P-wave (km/s) = 6.58270 6.73986 6.66174
#
# Compressibility (1/GPa) = 0.01871020
#
# Stress axis : x y z
#
# Youngs Moduli (GPa) = 77.51164 61.68605 65.61567
#
# Poissons Ratio (x) = 0.26468 0.09584
# Poissons Ratio (y) = 0.33259 0.46389
# Poissons Ratio (z) = 0.11322 0.43611
#
# Static dielectric constant tensor:
#      x y z
#    x 1.859670 0.000000 -0.009940 
#    y 0.000000 1.721900 0.000000 
#    z -0.009940 0.000000 1.799470 
# 
# From -- ./inp_files/227901.got.cif
#   From: 2010.05.17/outbox.cif.g08.bks.cpg/sg15_114_cif.got.tgz:227901.got - 2010.06.03 18:47:42.
