data_PCOD9279340
_publ_section_title
;
Structure prediction by ZEFSAII (Michael W. Deem and Ramdas Pophale) SiO2 
 PCOD9279340
Probable space group: C 2/C
;
_chemical_formula_sum "Si O2"
_cell_formula_units_Z 56
_cell_length_a 30.155128
_cell_length_b 16.364100
_cell_length_c 8.963135
_cell_angle_alpha 90.000000
_cell_angle_beta 40.565119
_cell_angle_gamma 90.000000
_cell_volume 2876.304853
_symmetry_space_group_name_H-M "C 2/C"
_symmetry_group_IT_number 15
_symmetry_cell_setting 'monoclinic'
loop_
_space_group_symop_operation_xyz
x,y,z
-x,y,1/2-z
-x,-y,-z
x,-y,1/2+z
1/2+x,1/2+y,z
1/2-x,1/2+y,1/2-z
1/2-x,1/2-y,-z
1/2+x,1/2-y,1/2+z
loop_
_atom_site_type_symbol
_atom_site_label
_atom_site_fract_x
_atom_site_fract_y
_atom_site_fract_z
Si Si1 0.905062 0.991664 0.841686
Si Si2 0.000000 0.126205 0.750000
Si Si3 0.834133 0.584854 0.217239
Si Si4 0.320283 0.569495 0.806854
Si Si5 0.589918 0.045536 0.766129
Si Si6 0.888479 0.239009 0.601365
Si Si7 0.032851 0.815705 0.866304
Si Si8 0.000000 0.448596 0.750000
O O1 0.952714 0.911010 0.715904
O O2 0.945916 0.066403 0.809319
O O3 0.878238 0.022586 0.752584
O O4 0.836310 0.965349 0.102976
O O5 0.036433 0.181249 0.533770
O O6 0.755651 0.561344 0.440689
O O7 0.876077 0.523617 0.217093
O O8 0.854811 0.674908 0.220283
O O9 0.854476 0.582525 0.989552
O O10 0.338125 0.664994 0.762628
O O11 0.540491 0.005780 0.765437
O O12 0.549044 0.095825 0.001350
O O13 0.912029 0.234526 0.368031
O O14 0.958931 0.217864 0.507190
#
# Coordination Sequence:
#
# PCOD9279340 Si02
#       8
#     8   4   8   8   8   8   8   4
#     4  11  20  34  61  89 122 153 198 254 293 355
#     4  12  18  34  57  87 122 144 194 260 294 342
#     4  11  22  39  59  84 120 155 203 245 284 372
#     4  11  21  36  58  86 119 165 195 231 300 358
#     4   9  19  36  60  85 104 142 198 249 295 337
#     4  10  22  38  55  82 120 159 195 240 307 358
#     4  10  21  35  57  90 118 153 195 247 308 351
#     4   8  16  32  57  81 102 124 176 244 302 316
#
# _framework density 19.469425999999999
#
# number of rings (size 3 to 8) (size 9 to 14) (size 15 to 20)
#    0.000    1.714    2.857    3.429    0.000    6.857 
#    0.000    4.286    0.000    0.857    0.000    0.000 
#    0.000    0.000    0.000    0.000    0.000    0.000 
#
# Total GULP energy -155930.606731 kJ/mol
# GULP energy per Si atom -5568.950240 kJ/mol
# Density = 1.942511 g / cm^3
# Si number density = 19.469426 Si / 1000 Ang^3
#
#
#
# Elastic Constant Matrix: (Units=GPa)
#
#
# Indices 1 2 3 4 5 6 
#
# 1 60.8596 7.1075 22.0818 0.0000 4.1627 0.0000
# 2 7.1075 45.9275 -5.0664 0.0000 -1.4312 0.0000
# 3 22.0818 -5.0664 103.9380 0.0000 8.7045 0.0000
# 4 0.0000 0.0000 0.0000 46.7532 0.0000 14.3203
# 5 4.1627 -1.4312 8.7045 0.0000 32.0382 0.0000
# 6 0.0000 0.0000 0.0000 14.3203 0.0000 21.2043
#
#
#
# Elastic Compliance Matrix: (Units=1/GPa)
#
#
# Indices 1 2 3 4 5 6 
#
# 1 0.018347 -0.003319 -0.003937 0.000000 -0.001462 0.000000
# 2 -0.003319 0.022507 0.001721 0.000000 0.000969 0.000000
# 3 -0.003937 0.001721 0.010737 0.000000 -0.002329 0.000000
# 4 0.000000 0.000000 0.000000 0.026967 0.000000 -0.018212
# 5 -0.001462 0.000969 -0.002329 0.000000 0.032079 0.000000
# 6 0.000000 0.000000 0.000000 -0.018212 0.000000 0.059460
#
#
# Mechanical properties :
#
#
# Convention : Reuss Voigt Hill
#
# Bulk Modulus (GPa) = 24.67896 28.77454 26.72675
# Shear Modulus (GPa) = 25.68388 32.43930 29.06159
#
# Velocity S-wave (km/s) = 3.63601 4.08630 3.86771
# Velocity P-wave (km/s) = 5.50733 6.08894 5.80542
#
# Compressibility (1/GPa) = 0.04052035
#
# Stress axis : x y z
#
# Youngs Moduli (GPa) = 54.50338 44.43024 93.14017
#
# Poissons Ratio (x) = 0.14748 0.36672
# Poissons Ratio (y) = 0.18091 -0.16031
# Poissons Ratio (z) = 0.21459 -0.07647
#
# Static dielectric constant tensor:
#      x y z
#    x 1.667850 0.000000 0.016120 
#    y 0.000000 1.686770 0.000000 
#    z 0.016120 0.000000 1.774170 
# 
# From -- ./inp_files/70497.got.cif
#   From: 2010.05.17/outbox.cif.g08.bks.cpg/sg15_36_cif.got.tgz:70497.got - 2010.06.03 18:47:42.
