data_PCOD9279936
_publ_section_title
;
Structure prediction by ZEFSAII (Michael W. Deem and Ramdas Pophale) SiO2 
 PCOD9279936
Probable space group: C 2/C
;
_chemical_formula_sum "Si O2"
_cell_formula_units_Z 60
_cell_length_a 5.267705
_cell_length_b 25.068248
_cell_length_c 19.595322
_cell_angle_alpha 90.000000
_cell_angle_beta 84.899444
_cell_angle_gamma 90.000000
_cell_volume 2577.357725
_symmetry_space_group_name_H-M "C 2/C"
_symmetry_group_IT_number 15
_symmetry_cell_setting 'monoclinic'
loop_
_space_group_symop_operation_xyz
x,y,z
-x,y,1/2-z
-x,-y,-z
x,-y,1/2+z
1/2+x,1/2+y,z
1/2-x,1/2+y,1/2-z
1/2-x,1/2-y,-z
1/2+x,1/2-y,1/2+z
loop_
_atom_site_type_symbol
_atom_site_label
_atom_site_fract_x
_atom_site_fract_y
_atom_site_fract_z
Si Si1 0.083362 0.549618 0.915134
Si Si2 0.465789 0.506400 0.325780
Si Si3 0.398832 0.154806 0.396800
Si Si4 0.500000 0.808566 0.750000
Si Si5 0.802384 0.286095 0.312535
Si Si6 0.301612 0.898374 0.316952
Si Si7 0.232624 0.955012 0.949887
Si Si8 0.111772 0.780441 0.565158
O O1 0.184759 0.513614 0.850214
O O2 0.966853 0.601058 0.882789
O O3 0.855902 0.513788 0.950094
O O4 0.296709 0.557289 0.968339
O O5 0.500000 0.531451 0.250000
O O6 0.626004 0.450794 0.320158
O O7 0.539092 0.540634 0.390941
O O8 0.374292 0.158259 0.314584
O O9 0.403472 0.094354 0.422156
O O10 0.665602 0.180410 0.413323
O O11 0.154145 0.186779 0.434461
O O12 0.328470 0.766461 0.713414
O O13 0.651501 0.341940 0.322386
O O14 0.933423 0.265987 0.378044
O O15 0.000000 0.300172 0.250000
O O16 0.500000 0.903701 0.250000
O O17 0.250000 0.750000 0.500000
#
# Coordination Sequence:
#
# PCOD9279936 Si02
#       8
#     8   8   8   4   8   8   8   8
#     4  10  22  43  63  91 135 166 224 277 337 418
#     4  11  22  39  63  95 130 166 224 281 337 406
#     4  11  25  45  71  97 136 182 231 280 348 412
#     4  10  22  42  64  96 134 172 234 282 336 414
#     4  10  21  39  64  90 131 171 219 274 345 400
#     4  10  21  36  61  95 123 168 215 271 341 402
#     4  10  25  42  65  94 130 180 221 276 345 408
#     4  11  25  45  67 102 137 173 230 285 341 410
#
# _framework density 23.279653
#
# number of rings (size 3 to 8) (size 9 to 14) (size 15 to 20)
#    0.000    1.600    2.667    0.800    4.667    2.133 
#    2.400    0.000    0.000    0.000    0.000    0.000 
#    0.000    0.000    0.000    0.000    0.000    0.000 
#
# Total GULP energy -167063.428853 kJ/mol
# GULP energy per Si atom -5568.780962 kJ/mol
# Density = 2.322667 g / cm^3
# Si number density = 23.279653 Si / 1000 Ang^3
#
#
#
# Elastic Constant Matrix: (Units=GPa)
#
#
# Indices 1 2 3 4 5 6 
#
# 1 53.6359 3.0075 -2.6439 0.0000 2.9689 0.0000
# 2 3.0075 78.2370 18.1029 0.0000 -0.0802 0.0000
# 3 -2.6439 18.1029 128.3352 0.0000 8.6154 0.0000
# 4 0.0000 0.0000 0.0000 13.3891 0.0000 2.7335
# 5 2.9689 -0.0802 8.6154 0.0000 26.9876 0.0000
# 6 0.0000 0.0000 0.0000 2.7335 0.0000 22.0986
#
#
#
# Elastic Compliance Matrix: (Units=1/GPa)
#
#
# Indices 1 2 3 4 5 6 
#
# 1 0.018853 -0.000881 0.000666 0.000000 -0.002289 0.000000
# 2 -0.000881 0.013265 -0.001940 0.000000 0.000756 0.000000
# 3 0.000666 -0.001940 0.008262 0.000000 -0.002717 0.000000
# 4 0.000000 0.000000 0.000000 0.076623 0.000000 -0.009478
# 5 -0.002289 0.000756 -0.002717 0.000000 0.038175 0.000000
# 6 0.000000 0.000000 0.000000 -0.009478 0.000000 0.046424
#
#
# Mechanical properties :
#
#
# Convention : Reuss Voigt Hill
#
# Bulk Modulus (GPa) = 27.72354 33.01567 30.36961
# Shear Modulus (GPa) = 22.94253 28.61117 25.77685
#
# Velocity S-wave (km/s) = 3.14270 3.50954 3.33118
# Velocity P-wave (km/s) = 5.01034 5.53493 5.27916
#
# Compressibility (1/GPa) = 0.03607042
#
# Stress axis : x y z
#
# Youngs Moduli (GPa) = 53.04137 75.38506 121.03809
#
# Poissons Ratio (x) = 0.06643 -0.08066
# Poissons Ratio (y) = 0.04674 0.23482
# Poissons Ratio (z) = -0.03535 0.14625
#
# Static dielectric constant tensor:
#      x y z
#    x 2.726080 0.000000 0.330700 
#    y 0.000000 2.020540 0.000000 
#    z 0.330700 0.000000 2.115210 
# 
# From -- ./inp_files/186176.got.cif
#   From: 2010.05.17/outbox.cif.g08.bks.cpg/sg15_94_cif.got.tgz:186176.got - 2010.06.03 18:47:42.
