data_PCOD9279618
_publ_section_title
;
Structure prediction by ZEFSAII (Michael W. Deem and Ramdas Pophale) SiO2 
 PCOD9279618
Probable space group: C 2/C
;
_chemical_formula_sum "Si O2"
_cell_formula_units_Z 64
_cell_length_a 11.147846
_cell_length_b 17.849899
_cell_length_c 24.425157
_cell_angle_alpha 90.000000
_cell_angle_beta 50.136600
_cell_angle_gamma 90.000000
_cell_volume 3730.652228
_symmetry_space_group_name_H-M "C 2/C"
_symmetry_group_IT_number 15
_symmetry_cell_setting 'monoclinic'
loop_
_space_group_symop_operation_xyz
x,y,z
-x,y,1/2-z
-x,-y,-z
x,-y,1/2+z
1/2+x,1/2+y,z
1/2-x,1/2+y,1/2-z
1/2-x,1/2-y,-z
1/2+x,1/2-y,1/2+z
loop_
_atom_site_type_symbol
_atom_site_label
_atom_site_fract_x
_atom_site_fract_y
_atom_site_fract_z
Si Si1 0.179324 0.316698 0.838452
Si Si2 0.318852 0.829678 0.965699
Si Si3 0.164641 0.478377 0.478945
Si Si4 0.114736 0.944852 0.670881
Si Si5 0.097600 0.181810 0.324884
Si Si6 0.390813 0.803754 0.335766
Si Si7 0.381359 0.596598 0.070440
Si Si8 0.766491 0.946101 0.062958
O O1 0.250125 0.395211 0.839936
O O2 0.252564 0.305729 0.757141
O O3 0.250632 0.250598 0.855761
O O4 0.994534 0.319811 0.892779
O O5 0.203044 0.865111 0.955544
O O6 0.250000 0.750000 0.000000
O O7 0.328175 0.889938 0.011797
O O8 0.303702 0.503186 0.397642
O O9 0.186244 0.520099 0.531506
O O10 0.000000 0.500000 0.500000
O O11 0.000000 0.980922 0.750000
O O12 0.005970 0.883259 0.673220
O O13 0.138523 0.149649 0.371698
O O14 0.991687 0.256010 0.350200
O O15 0.500000 0.815246 0.250000
O O16 0.329131 0.879972 0.380238
O O17 0.303689 0.513825 0.094417
O O18 0.564844 0.584842 0.005467
#
# Coordination Sequence:
#
# PCOD9279618 Si02
#       8
#     8   8   8   8   8   8   8   8
#     4   9  18  36  58  82 109 147 187 234 279 341
#     4  11  23  36  55  80 114 151 186 228 293 339
#     4  11  21  37  60  84 114 145 194 245 278 347
#     4   9  17  35  61  84 106 141 190 236 285 329
#     4   9  18  35  60  81 108 148 192 229 281 346
#     4   9  19  37  60  85 111 144 193 245 281 328
#     4  10  21  36  55  80 112 154 182 228 287 351
#     4  10  21  37  54  84 119 143 188 237 288 337
#
# _framework density 17.155176999999998
#
# number of rings (size 3 to 8) (size 9 to 14) (size 15 to 20)
#    0.000    2.250    2.500    2.250    0.000    2.000 
#    4.500    0.000    5.500    0.000    0.000    0.000 
#    0.000    0.000    0.000    0.000    0.000    0.000 
#
# Total GULP energy -178378.152469 kJ/mol
# GULP energy per Si atom -5574.317265 kJ/mol
# Density = 1.711613 g / cm^3
# Si number density = 17.155177 Si / 1000 Ang^3
#
#
#
# Elastic Constant Matrix: (Units=GPa)
#
#
# Indices 1 2 3 4 5 6 
#
# 1 84.9850 35.5378 27.0199 0.0000 -4.6876 0.0000
# 2 35.5378 125.7316 59.8068 0.0000 -0.6345 0.0000
# 3 27.0199 59.8068 64.7340 0.0000 -4.2005 0.0000
# 4 0.0000 0.0000 0.0000 23.4843 0.0000 -1.9841
# 5 -4.6876 -0.6345 -4.2005 0.0000 28.8842 0.0000
# 6 0.0000 0.0000 0.0000 -1.9841 0.0000 18.8678
#
#
#
# Elastic Compliance Matrix: (Units=1/GPa)
#
#
# Indices 1 2 3 4 5 6 
#
# 1 0.013945 -0.002170 -0.003707 0.000000 0.001676 0.000000
# 2 -0.002170 0.014601 -0.012706 0.000000 -0.001879 0.000000
# 3 -0.003707 -0.012706 0.028950 0.000000 0.003329 0.000000
# 4 0.000000 0.000000 0.000000 0.042963 0.000000 0.004518
# 5 0.001676 -0.001879 0.003329 0.000000 0.035336 0.000000
# 6 0.000000 0.000000 0.000000 0.004518 0.000000 0.053475
#
#
# Mechanical properties :
#
#
# Convention : Reuss Voigt Hill
#
# Bulk Modulus (GPa) = 49.18763 57.79774 53.49269
# Shear Modulus (GPa) = 21.43950 24.45301 22.94626
#
# Velocity S-wave (km/s) = 3.53900 3.77954 3.66125
# Velocity P-wave (km/s) = 6.74046 7.26711 7.00873
#
# Compressibility (1/GPa) = 0.02033031
#
# Stress axis : x y z
#
# Youngs Moduli (GPa) = 71.70904 68.48798 34.54196
#
# Poissons Ratio (x) = 0.14859 0.12806
# Poissons Ratio (y) = 0.15558 0.43889
# Poissons Ratio (z) = 0.26586 0.87021
#
# Static dielectric constant tensor:
#      x y z
#    x 1.588920 0.000000 0.015690 
#    y 0.000000 1.587120 0.000000 
#    z 0.015690 0.000000 1.580950 
# 
# From -- ./inp_files/199142.got.cif
#   From: 2010.05.17/outbox.cif.g08.bks.cpg/sg15_100_cif.got.tgz:199142.got - 2010.06.03 18:47:42.
