data_PCOD9279368
_publ_section_title
;
Structure prediction by ZEFSAII (Michael W. Deem and Ramdas Pophale) SiO2 
 PCOD9279368
Probable space group: C 2/C
;
_chemical_formula_sum "Si O2"
_cell_formula_units_Z 56
_cell_length_a 28.969416
_cell_length_b 7.654835
_cell_length_c 17.308210
_cell_angle_alpha 90.000000
_cell_angle_beta 138.531159
_cell_angle_gamma 90.000000
_cell_volume 2541.705339
_symmetry_space_group_name_H-M "C 2/C"
_symmetry_group_IT_number 15
_symmetry_cell_setting 'monoclinic'
loop_
_space_group_symop_operation_xyz
x,y,z
-x,y,1/2-z
-x,-y,-z
x,-y,1/2+z
1/2+x,1/2+y,z
1/2-x,1/2+y,1/2-z
1/2-x,1/2-y,-z
1/2+x,1/2-y,1/2+z
loop_
_atom_site_type_symbol
_atom_site_label
_atom_site_fract_x
_atom_site_fract_y
_atom_site_fract_z
Si Si1 0.087730 0.802282 0.017999
Si Si2 0.067497 0.802683 0.685202
Si Si3 0.288509 0.453360 0.673076
Si Si4 0.077359 0.572384 0.852260
Si Si5 0.298957 0.084007 0.059124
Si Si6 0.129358 0.475421 0.687148
Si Si7 0.258921 0.639285 0.774455
O O1 0.092467 0.689775 0.102669
O O2 0.160557 0.909015 0.102172
O O3 0.088564 0.668031 0.947125
O O4 0.010093 0.881927 0.916840
O O5 0.129848 0.932876 0.741372
O O6 0.080454 0.717080 0.786626
O O7 0.077853 0.637862 0.639622
O O8 0.248649 0.438943 0.542253
O O9 0.266775 0.630402 0.691163
O O10 0.263446 0.302862 0.700474
O O11 0.132934 0.420573 0.909101
O O12 0.000000 0.498708 0.750000
O O13 0.330705 0.049596 0.182208
O O14 0.250000 0.250000 0.000000
O O15 0.192439 0.519399 0.708676
#
# Coordination Sequence:
#
# PCOD9279368 Si02
#       7
#     8   8   8   8   8   8   8
#     4  11  19  37  61  88 124 157 208 250 310 376
#     4   9  22  36  60  89 122 163 203 259 311 370
#     4  11  23  40  61  93 126 157 213 252 318 370
#     4   9  19  37  61  88 119 163 206 245 306 375
#     4  11  22  37  62  88 123 160 206 262 307 369
#     4  10  21  35  58  88 117 161 208 250 311 367
#     4  11  21  36  62  87 120 163 200 259 305 373
#
# _framework density 22.032451999999999
#
# number of rings (size 3 to 8) (size 9 to 14) (size 15 to 20)
#    0.000    1.714    2.857    1.286    2.000    2.286 
#    0.000    0.000    3.143    0.000    0.000    0.000 
#    0.000    0.000    0.000    0.000    0.000    0.000 
#
# Total GULP energy -155980.091553 kJ/mol
# GULP energy per Si atom -5570.717555 kJ/mol
# Density = 2.198230 g / cm^3
# Si number density = 22.032452 Si / 1000 Ang^3
#
#
#
# Elastic Constant Matrix: (Units=GPa)
#
#
# Indices 1 2 3 4 5 6 
#
# 1 111.9704 14.0290 44.9408 0.0000 22.0687 0.0000
# 2 14.0290 25.7078 9.7874 0.0000 0.6045 0.0000
# 3 44.9408 9.7874 111.8827 0.0000 14.4908 0.0000
# 4 0.0000 0.0000 0.0000 19.6326 0.0000 6.6186
# 5 22.0687 0.6045 14.4908 0.0000 52.5395 0.0000
# 6 0.0000 0.0000 0.0000 6.6186 0.0000 31.5428
#
#
#
# Elastic Compliance Matrix: (Units=1/GPa)
#
#
# Indices 1 2 3 4 5 6 
#
# 1 0.011844 -0.004916 -0.003827 0.000000 -0.003863 0.000000
# 2 -0.004916 0.042293 -0.002001 0.000000 0.002130 0.000000
# 3 -0.003827 -0.002001 0.010826 0.000000 -0.001355 0.000000
# 4 0.000000 0.000000 0.000000 0.054813 0.000000 -0.011501
# 5 -0.003863 0.002130 -0.001355 0.000000 0.021005 0.000000
# 6 0.000000 0.000000 0.000000 -0.011501 0.000000 0.034116
#
#
# Mechanical properties :
#
#
# Convention : Reuss Voigt Hill
#
# Bulk Modulus (GPa) = 23.00166 43.00835 33.00500
# Shear Modulus (GPa) = 23.71046 32.79656 28.25351
#
# Velocity S-wave (km/s) = 3.28405 3.86237 3.58489
# Velocity P-wave (km/s) = 4.98423 6.28119 5.66992
#
# Compressibility (1/GPa) = 0.04347513
#
# Stress axis : x y z
#
# Youngs Moduli (GPa) = 84.42875 23.64456 92.37160
#
# Poissons Ratio (x) = 0.11623 0.35353
# Poissons Ratio (y) = 0.41502 0.18485
# Poissons Ratio (z) = 0.32313 0.04732
#
# Static dielectric constant tensor:
#      x y z
#    x 1.838850 0.000000 -0.023030 
#    y 0.000000 1.951330 0.000000 
#    z -0.023030 0.000000 1.862950 
# 
# From -- ./inp_files/224442.got.cif
#   From: 2010.05.17/outbox.cif.g08.bks.cpg/sg15_113_cif.got.tgz:224442.got - 2010.06.03 18:47:42.
