data_PCOD9279022
_publ_section_title
;
Structure prediction by ZEFSAII (Michael W. Deem and Ramdas Pophale) SiO2 
 PCOD9279022
Probable space group: C 2/C
;
_chemical_formula_sum "Si O2"
_cell_formula_units_Z 48
_cell_length_a 17.030259
_cell_length_b 9.982020
_cell_length_c 14.746545
_cell_angle_alpha 90.000000
_cell_angle_beta 89.314553
_cell_angle_gamma 90.000000
_cell_volume 2506.679966
_symmetry_space_group_name_H-M "C 2/C"
_symmetry_group_IT_number 15
_symmetry_cell_setting 'monoclinic'
loop_
_space_group_symop_operation_xyz
x,y,z
-x,y,1/2-z
-x,-y,-z
x,-y,1/2+z
1/2+x,1/2+y,z
1/2-x,1/2+y,1/2-z
1/2-x,1/2-y,-z
1/2+x,1/2-y,1/2+z
loop_
_atom_site_type_symbol
_atom_site_label
_atom_site_fract_x
_atom_site_fract_y
_atom_site_fract_z
Si Si1 0.688654 0.065465 0.510287
Si Si2 0.843717 0.714007 0.263270
Si Si3 0.850518 0.963932 0.552302
Si Si4 0.919834 0.235508 0.580682
Si Si5 0.240135 0.454137 0.205648
Si Si6 0.091077 0.692392 0.033769
O O1 0.658139 0.193155 0.457461
O O2 0.690249 0.095357 0.618741
O O3 0.776774 0.012259 0.491095
O O4 0.629032 0.942934 0.495279
O O5 0.909809 0.750253 0.188714
O O6 0.808422 0.566973 0.241678
O O7 0.777344 0.828984 0.256196
O O8 0.875715 0.708139 0.364528
O O9 0.880496 0.820675 0.522865
O O10 0.915080 0.080545 0.552306
O O11 0.811090 0.967548 0.652775
O O12 0.997324 0.304794 0.542058
#
# Coordination Sequence:
#
# PCOD9279022 Si02
#       6
#     8   8   8   8   8   8
#     4   9  20  36  54  78 101 140 183 208 251 314
#     4  10  21  34  52  80 107 136 170 218 265 306
#     4   9  20  36  54  78 101 140 183 208 251 314
#     4  11  21  35  55  81 109 136 171 219 267 308
#     4   8  20  32  54  78 100 136 184 212 250 306
#     4  11  21  35  55  81 109 136 171 219 267 308
#
# _framework density 19.148834999999998
#
# number of rings (size 3 to 8) (size 9 to 14) (size 15 to 20)
#    1.000    1.333    0.000    2.500    2.333    0.000 
#    0.000    0.000    0.000    0.000    0.000    7.000 
#    0.000    0.000    0.000    0.000    0.000    0.000 
#
# Total GULP energy -133732.380692 kJ/mol
# GULP energy per Si atom -5572.182529 kJ/mol
# Density = 1.910525 g / cm^3
# Si number density = 19.148835 Si / 1000 Ang^3
#
#
#
# Elastic Constant Matrix: (Units=GPa)
#
#
# Indices 1 2 3 4 5 6 
#
# 1 27.3012 2.9946 -4.9132 0.0000 2.0458 0.0000
# 2 2.9946 57.9983 6.2275 0.0000 -1.2281 0.0000
# 3 -4.9132 6.2275 19.6352 0.0000 0.3321 0.0000
# 4 0.0000 0.0000 0.0000 21.4265 0.0000 6.3369
# 5 2.0458 -1.2281 0.3321 0.0000 13.8856 0.0000
# 6 0.0000 0.0000 0.0000 6.3369 0.0000 27.5767
#
#
#
# Elastic Compliance Matrix: (Units=1/GPa)
#
#
# Indices 1 2 3 4 5 6 
#
# 1 0.039463 -0.003359 0.011048 0.000000 -0.006375 0.000000
# 2 -0.003359 0.018177 -0.006644 0.000000 0.002261 0.000000
# 3 0.011048 -0.006644 0.055861 0.000000 -0.003551 0.000000
# 4 0.000000 0.000000 0.000000 0.050074 0.000000 -0.011507
# 5 -0.006375 0.002261 -0.003551 0.000000 0.073241 0.000000
# 6 0.000000 0.000000 0.000000 -0.011507 0.000000 0.038907
#
#
# Mechanical properties :
#
#
# Convention : Reuss Voigt Hill
#
# Bulk Modulus (GPa) = 8.65124 12.61694 10.63409
# Shear Modulus (GPa) = 16.01736 19.28616 17.65176
#
# Velocity S-wave (km/s) = 2.89531 3.17704 3.03944
# Velocity P-wave (km/s) = 3.96293 4.47898 4.22883
#
# Compressibility (1/GPa) = 0.11559030
#
# Stress axis : x y z
#
# Youngs Moduli (GPa) = 25.34041 55.01605 17.90173
#
# Poissons Ratio (x) = 0.18479 -0.19777
# Poissons Ratio (y) = 0.08511 0.11893
# Poissons Ratio (z) = -0.27995 0.36550
#
# Static dielectric constant tensor:
#      x y z
#    x 1.678780 0.000000 0.006860 
#    y 0.000000 1.644280 0.000000 
#    z 0.006860 0.000000 1.668760 
# 
# From -- ./inp_files/208687.got.cif
#   From: 2010.05.17/outbox.cif.g08.bks.cpg/sg15_105_cif.got.tgz:208687.got - 2010.06.03 18:47:42.
