data_PCOD9279374
_publ_section_title
;
Structure prediction by ZEFSAII (Michael W. Deem and Ramdas Pophale) SiO2 
 PCOD9279374
Probable space group: C 2/C
;
_chemical_formula_sum "Si O2"
_cell_formula_units_Z 40
_cell_length_a 5.007049
_cell_length_b 13.991063
_cell_length_c 26.620550
_cell_angle_alpha 90.000000
_cell_angle_beta 95.367131
_cell_angle_gamma 90.000000
_cell_volume 1856.698355
_symmetry_space_group_name_H-M "C 2/C"
_symmetry_group_IT_number 15
_symmetry_cell_setting 'monoclinic'
loop_
_space_group_symop_operation_xyz
x,y,z
-x,y,1/2-z
-x,-y,-z
x,-y,1/2+z
1/2+x,1/2+y,z
1/2-x,1/2+y,1/2-z
1/2-x,1/2-y,-z
1/2+x,1/2-y,1/2+z
loop_
_atom_site_type_symbol
_atom_site_label
_atom_site_fract_x
_atom_site_fract_y
_atom_site_fract_z
Si Si1 0.679193 0.401164 0.506223
Si Si2 0.109905 0.346768 0.807606
Si Si3 0.182166 0.657573 0.947377
Si Si4 0.696305 0.527281 0.110876
Si Si5 0.861828 0.185807 0.134120
O O1 0.500000 0.500000 0.500000
O O2 0.448527 0.326059 0.486128
O O3 0.787307 0.406512 0.564969
O O4 0.932764 0.387260 0.474081
O O5 0.907921 0.294458 0.841460
O O6 0.600079 0.301078 0.678751
O O7 0.000000 0.350767 0.750000
O O8 0.145283 0.450105 0.835360
O O9 0.279589 0.578933 0.907947
O O10 0.103814 0.747941 0.913107
O O11 0.405780 0.575032 0.117331
#
# Coordination Sequence:
#
# PCOD9279374 Si02
#       5
#     8   8   8   8   8
#     4  10  21  35  58  89 125 161 187 241 293 354
#     4  10  22  42  61  83 116 153 199 256 310 337
#     4  11  22  38  59  88 126 156 196 236 297 364
#     4   9  23  36  63  84 122 154 201 233 297 356
#     4  10  23  38  61  88 116 157 197 249 298 352
#
# _framework density 21.543617999999999
#
# number of rings (size 3 to 8) (size 9 to 14) (size 15 to 20)
#    1.200    0.800    0.000    4.200    8.400    1.600 
#    0.000    2.000    0.000    0.000    0.000    0.000 
#    0.000    0.000    0.000    0.000    0.000    0.000 
#
# Total GULP energy -111377.256449 kJ/mol
# GULP energy per Si atom -5568.862822 kJ/mol
# Density = 2.149458 g / cm^3
# Si number density = 21.543618 Si / 1000 Ang^3
#
#
#
# Elastic Constant Matrix: (Units=GPa)
#
#
# Indices 1 2 3 4 5 6 
#
# 1 75.0723 6.4625 -2.6136 0.0000 7.1914 0.0000
# 2 6.4625 59.7619 20.7744 0.0000 1.7651 0.0000
# 3 -2.6136 20.7744 124.9011 0.0000 24.9516 0.0000
# 4 0.0000 0.0000 0.0000 17.9577 0.0000 -0.5334
# 5 7.1914 1.7651 24.9516 0.0000 36.0394 0.0000
# 6 0.0000 0.0000 0.0000 -0.5334 0.0000 18.6134
#
#
#
# Elastic Compliance Matrix: (Units=1/GPa)
#
#
# Indices 1 2 3 4 5 6 
#
# 1 0.013869 -0.001851 0.001315 0.000000 -0.003587 0.000000
# 2 -0.001851 0.018065 -0.003412 0.000000 0.001847 0.000000
# 3 0.001315 -0.003412 0.010004 0.000000 -0.007021 0.000000
# 4 0.000000 0.000000 0.000000 0.055734 0.000000 0.001597
# 5 -0.003587 0.001847 -0.007021 0.000000 0.033234 0.000000
# 6 0.000000 0.000000 0.000000 0.001597 0.000000 0.053770
#
#
# Mechanical properties :
#
#
# Convention : Reuss Voigt Hill
#
# Bulk Modulus (GPa) = 29.37630 34.33130 31.85380
# Shear Modulus (GPa) = 24.51934 30.19623 27.35779
#
# Velocity S-wave (km/s) = 3.37727 3.74790 3.56740
# Velocity P-wave (km/s) = 5.37339 5.89061 5.63793
#
# Compressibility (1/GPa) = 0.03404104
#
# Stress axis : x y z
#
# Youngs Moduli (GPa) = 72.10223 55.35606 99.95904
#
# Poissons Ratio (x) = 0.10245 -0.13141
# Poissons Ratio (y) = 0.13345 0.34110
# Poissons Ratio (z) = -0.09479 0.18890
#
# Static dielectric constant tensor:
#      x y z
#    x 1.844400 0.000000 0.023090 
#    y 0.000000 1.854530 0.000000 
#    z 0.023090 0.000000 1.773280 
# 
# From -- ./inp_files/226832.got.cif
#   From: 2010.05.17/outbox.cif.g08.bks.cpg/sg15_114_cif.got.tgz:226832.got - 2010.06.03 18:47:42.
