data_PCOD9279099
_publ_section_title
;
Structure prediction by ZEFSAII (Michael W. Deem and Ramdas Pophale) SiO2 
 PCOD9279099
Probable space group: C 2/C
;
_chemical_formula_sum "Si O2"
_cell_formula_units_Z 56
_cell_length_a 16.432769
_cell_length_b 16.549387
_cell_length_c 19.328171
_cell_angle_alpha 90.000000
_cell_angle_beta 142.936470
_cell_angle_gamma 90.000000
_cell_volume 3167.996893
_symmetry_space_group_name_H-M "C 2/C"
_symmetry_group_IT_number 15
_symmetry_cell_setting 'monoclinic'
loop_
_space_group_symop_operation_xyz
x,y,z
-x,y,1/2-z
-x,-y,-z
x,-y,1/2+z
1/2+x,1/2+y,z
1/2-x,1/2+y,1/2-z
1/2-x,1/2-y,-z
1/2+x,1/2-y,1/2+z
loop_
_atom_site_type_symbol
_atom_site_label
_atom_site_fract_x
_atom_site_fract_y
_atom_site_fract_z
Si Si1 0.459092 0.627610 0.000455
Si Si2 0.976799 0.452907 0.911489
Si Si3 0.865567 0.307470 0.910666
Si Si4 0.868313 0.494970 0.113408
Si Si5 0.286659 0.529993 0.363525
Si Si6 0.371613 0.815105 0.073145
Si Si7 0.048245 0.827666 0.708553
O O1 0.611094 0.602817 0.082832
O O2 0.467899 0.634345 0.089947
O O3 0.403567 0.712960 0.935051
O O4 0.365950 0.554669 0.911910
O O5 0.952307 0.360116 0.916700
O O6 0.839843 0.474283 0.775291
O O7 0.097392 0.470314 0.939022
O O8 0.000000 0.500000 0.000000
O O9 0.706083 0.327368 0.798007
O O10 0.893789 0.335122 0.008141
O O11 0.756212 0.535623 0.085105
O O12 0.844809 0.398678 0.092552
O O13 0.000000 0.505668 0.250000
O O14 0.505222 0.766217 0.183165
O O15 0.250000 0.750000 0.000000
O O16 0.000000 0.862822 0.750000
#
# Coordination Sequence:
#
# PCOD9279099 Si02
#       7
#     8   8   8   8   8   8   8
#     4  10  23  38  60  85 123 160 189 242 305 359
#     4  11  22  39  59  87 117 156 199 248 286 344
#     4  11  22  35  55  85 118 152 199 237 289 351
#     4  10  21  34  57  79 114 152 195 236 291 354
#     4  10  22  41  58  87 120 159 194 240 304 357
#     4  11  20  31  52  87 116 147 184 235 304 356
#     4  11  21  32  54  88 121 152 187 240 295 362
#
# _framework density 17.676784999999999
#
# number of rings (size 3 to 8) (size 9 to 14) (size 15 to 20)
#    0.000    1.429    4.286    2.143    4.000    0.000 
#    0.000    0.714    0.000    0.000    0.000    0.000 
#    0.000    0.000    0.000    0.000    0.000    0.000 
#
# Total GULP energy -155983.408893 kJ/mol
# GULP energy per Si atom -5570.836032 kJ/mol
# Density = 1.763655 g / cm^3
# Si number density = 17.676785 Si / 1000 Ang^3
#
#
#
# Elastic Constant Matrix: (Units=GPa)
#
#
# Indices 1 2 3 4 5 6 
#
# 1 114.7784 29.1291 9.9776 0.0000 -9.4556 0.0000
# 2 29.1291 52.8597 -1.6680 0.0000 -4.9792 0.0000
# 3 9.9776 -1.6680 31.7636 0.0000 -11.7976 0.0000
# 4 0.0000 0.0000 0.0000 20.4275 0.0000 -0.6923
# 5 -9.4556 -4.9792 -11.7976 0.0000 28.5758 0.0000
# 6 0.0000 0.0000 0.0000 -0.6923 0.0000 28.6749
#
#
#
# Elastic Compliance Matrix: (Units=1/GPa)
#
#
# Indices 1 2 3 4 5 6 
#
# 1 0.010560 -0.005810 -0.003190 0.000000 0.001165 0.000000
# 2 -0.005810 0.022623 0.004445 0.000000 0.003854 0.000000
# 3 -0.003190 0.004445 0.038520 0.000000 0.015622 0.000000
# 4 0.000000 0.000000 0.000000 0.048994 0.000000 0.001183
# 5 0.001165 0.003854 0.015622 0.000000 0.042502 0.000000
# 6 0.000000 0.000000 0.000000 0.001183 0.000000 0.034902
#
#
# Mechanical properties :
#
#
# Convention : Reuss Voigt Hill
#
# Bulk Modulus (GPa) = 15.97612 30.47548 23.22580
# Shear Modulus (GPa) = 21.92252 26.33317 24.12784
#
# Velocity S-wave (km/s) = 3.52545 3.86385 3.69852
# Velocity P-wave (km/s) = 5.06253 6.09784 5.60415
#
# Compressibility (1/GPa) = 0.06259341
#
# Stress axis : x y z
#
# Youngs Moduli (GPa) = 94.69478 44.20254 25.96035
#
# Poissons Ratio (x) = 0.25683 0.08280
# Poissons Ratio (y) = 0.55020 -0.11539
# Poissons Ratio (z) = 0.30203 -0.19647
#
# Static dielectric constant tensor:
#      x y z
#    x 1.654060 0.000000 0.014300 
#    y 0.000000 1.679510 0.000000 
#    z 0.014300 0.000000 1.679060 
# 
# From -- ./inp_files/206287.got.cif
#   From: 2010.05.17/outbox.cif.g08.bks.cpg/sg15_104_cif.got.tgz:206287.got - 2010.06.03 18:47:42.
