data_PCOD9279889
_publ_section_title
;
Structure prediction by ZEFSAII (Michael W. Deem and Ramdas Pophale) SiO2 
 PCOD9279889
Probable space group: C 2/C
;
_chemical_formula_sum "Si O2"
_cell_formula_units_Z 64
_cell_length_a 12.028086
_cell_length_b 21.361117
_cell_length_c 15.665582
_cell_angle_alpha 90.000000
_cell_angle_beta 52.661805
_cell_angle_gamma 90.000000
_cell_volume 3200.162421
_symmetry_space_group_name_H-M "C 2/C"
_symmetry_group_IT_number 15
_symmetry_cell_setting 'monoclinic'
loop_
_space_group_symop_operation_xyz
x,y,z
-x,y,1/2-z
-x,-y,-z
x,-y,1/2+z
1/2+x,1/2+y,z
1/2-x,1/2+y,1/2-z
1/2-x,1/2-y,-z
1/2+x,1/2-y,1/2+z
loop_
_atom_site_type_symbol
_atom_site_label
_atom_site_fract_x
_atom_site_fract_y
_atom_site_fract_z
Si Si1 0.160282 0.019828 0.992687
Si Si2 0.077387 0.658363 0.969008
Si Si3 0.053087 0.456509 0.053390
Si Si4 0.405873 0.857990 0.719997
Si Si5 0.496454 0.396876 0.051461
Si Si6 0.796873 0.781873 0.568990
Si Si7 0.651274 0.408338 0.220510
Si Si8 0.205618 0.513300 0.250944
O O1 0.287271 0.033019 0.996404
O O2 0.065450 0.079179 0.010027
O O3 0.227528 0.999673 0.871207
O O4 0.067280 0.959632 0.058715
O O5 0.107504 0.729490 0.930729
O O6 0.228994 0.624627 0.891076
O O7 0.980289 0.614878 0.955539
O O8 0.007466 0.659495 0.095129
O O9 0.946171 0.480570 0.174965
O O10 0.000000 0.500000 0.000000
O O11 0.500000 0.889123 0.750000
O O12 0.673988 0.803191 0.691253
O O13 0.306113 0.912577 0.731730
O O14 0.372290 0.377832 0.174227
O O15 0.611254 0.343337 0.991255
O O16 0.750000 0.750000 0.500000
O O17 0.500000 0.402729 0.250000
O O18 0.705050 0.477712 0.218412
#
# Coordination Sequence:
#
# PCOD9279889 Si02
#       8
#     8   8   8   8   8   8   8   8
#     4  10  21  41  65  96 130 169 218 272 330 390
#     4  11  26  41  58  97 123 170 218 259 330 388
#     4  11  22  36  65  97 134 165 217 277 324 384
#     4  12  23  39  63  87 125 167 211 265 320 384
#     4  10  23  40  65  94 130 173 215 267 336 392
#     4  12  25  40  62  90 131 169 218 266 323 395
#     4  10  23  37  61  94 136 165 206 271 332 387
#     4  10  21  36  60  98 123 170 214 260 329 389
#
# _framework density 19.998985000000001
#
# number of rings (size 3 to 8) (size 9 to 14) (size 15 to 20)
#    0.000    1.250    3.750    1.875    7.000    0.500 
#    0.000    0.625    0.000    0.000    3.250    0.000 
#    0.000    0.000    0.000    0.000    0.000    0.000 
#
# Total GULP energy -178573.536295 kJ/mol
# GULP energy per Si atom -5580.423009 kJ/mol
# Density = 1.995347 g / cm^3
# Si number density = 19.998985 Si / 1000 Ang^3
#
#
#
# Elastic Constant Matrix: (Units=GPa)
#
#
# Indices 1 2 3 4 5 6 
#
# 1 102.5356 44.0567 18.7720 0.0000 -24.3826 0.0000
# 2 44.0567 109.5937 42.7006 0.0000 -4.6418 0.0000
# 3 18.7720 42.7006 148.6220 0.0000 -3.8075 0.0000
# 4 0.0000 0.0000 0.0000 30.6356 0.0000 -3.1784
# 5 -24.3826 -4.6418 -3.8075 0.0000 21.5645 0.0000
# 6 0.0000 0.0000 0.0000 -3.1784 0.0000 28.6957
#
#
#
# Elastic Compliance Matrix: (Units=1/GPa)
#
#
# Indices 1 2 3 4 5 6 
#
# 1 0.016368 -0.005873 0.000062 0.000000 0.017253 0.000000
# 2 -0.005873 0.012445 -0.002948 0.000000 -0.004483 0.000000
# 3 0.000062 -0.002948 0.007588 0.000000 0.000775 0.000000
# 4 0.000000 0.000000 0.000000 0.033021 0.000000 0.003658
# 5 0.017253 -0.004483 0.000775 0.000000 0.065053 0.000000
# 6 0.000000 0.000000 0.000000 0.003658 0.000000 0.035254
#
#
# Mechanical properties :
#
#
# Convention : Reuss Voigt Hill
#
# Bulk Modulus (GPa) = 52.96420 63.53444 58.24932
# Shear Modulus (GPa) = 25.83443 33.19395 29.51419
#
# Velocity S-wave (km/s) = 3.59804 4.07846 3.84576
# Velocity P-wave (km/s) = 6.61832 7.34958 6.99351
#
# Compressibility (1/GPa) = 0.01888068
#
# Stress axis : x y z
#
# Youngs Moduli (GPa) = 61.09585 80.35612 131.79364
#
# Poissons Ratio (x) = 0.47195 -0.00818
# Poissons Ratio (y) = 0.35883 0.38859
# Poissons Ratio (z) = -0.00379 0.23693
#
# Static dielectric constant tensor:
#      x y z
#    x 1.745610 0.000000 -0.001730 
#    y 0.000000 1.729890 0.000000 
#    z -0.001730 0.000000 1.827070 
# 
# From -- ./inp_files/200368.got.cif
#   From: 2010.05.17/outbox.cif.g08.bks.cpg/sg15_101_cif.got.tgz:200368.got - 2010.06.03 18:47:42.
