data_PCOD9279615
_publ_section_title
;
Structure prediction by ZEFSAII (Michael W. Deem and Ramdas Pophale) SiO2 
 PCOD9279615
Probable space group: C 2/C
;
_chemical_formula_sum "Si O2"
_cell_formula_units_Z 48
_cell_length_a 28.490756
_cell_length_b 13.655941
_cell_length_c 10.673259
_cell_angle_alpha 90.000000
_cell_angle_beta 148.625273
_cell_angle_gamma 90.000000
_cell_volume 2161.993651
_symmetry_space_group_name_H-M "C 2/C"
_symmetry_group_IT_number 15
_symmetry_cell_setting 'monoclinic'
loop_
_space_group_symop_operation_xyz
x,y,z
-x,y,1/2-z
-x,-y,-z
x,-y,1/2+z
1/2+x,1/2+y,z
1/2-x,1/2+y,1/2-z
1/2-x,1/2-y,-z
1/2+x,1/2-y,1/2+z
loop_
_atom_site_type_symbol
_atom_site_label
_atom_site_fract_x
_atom_site_fract_y
_atom_site_fract_z
Si Si1 0.306981 0.972591 0.276935
Si Si2 0.919889 0.929085 0.413186
Si Si3 0.111327 0.224467 0.867855
Si Si4 0.220696 0.404887 0.025817
Si Si5 0.905356 0.716144 0.906586
Si Si6 0.111159 0.116764 0.293787
O O1 0.320612 0.976316 0.458846
O O2 0.372807 0.891409 0.366666
O O3 0.206801 0.927812 0.043552
O O4 0.306253 0.061288 0.176148
O O5 0.897566 0.874663 0.229485
O O6 0.829597 0.904658 0.283227
O O7 0.021624 0.894005 0.674028
O O8 0.919842 0.045607 0.392386
O O9 0.013129 0.276135 0.641518
O O10 0.181946 0.298030 0.966712
O O11 0.130180 0.218027 0.057836
O O12 0.872566 0.771389 0.708211
#
# Coordination Sequence:
#
# PCOD9279615 Si02
#       6
#     8   8   8   8   8   8
#     4  10  21  36  55  80 109 142 180 221 265 314
#     4   9  18  32  51  76 104 135 173 216 262 313
#     4   9  18  34  56  80 107 141 179 219 266 319
#     4  10  21  36  55  80 109 142 180 221 265 314
#     4   9  18  34  56  80 107 141 179 219 266 319
#     4   9  18  32  51  76 104 135 173 216 262 313
#
# _framework density 22.201730999999999
#
# number of rings (size 3 to 8) (size 9 to 14) (size 15 to 20)
#    0.000    2.667    0.000    1.000    0.000    6.667 
#    0.000    8.333    0.000    2.000    0.000    0.000 
#    0.000    0.000    0.000    0.000    0.000    0.000 
#
# Total GULP energy -133658.824857 kJ/mol
# GULP energy per Si atom -5569.117702 kJ/mol
# Density = 2.215120 g / cm^3
# Si number density = 22.201731 Si / 1000 Ang^3
#
#
#
# Elastic Constant Matrix: (Units=GPa)
#
#
# Indices 1 2 3 4 5 6 
#
# 1 95.9052 29.7773 15.4988 0.0000 26.5310 0.0000
# 2 29.7773 43.1765 15.8607 0.0000 20.3785 0.0000
# 3 15.4988 15.8607 15.5536 0.0000 8.9755 0.0000
# 4 0.0000 0.0000 0.0000 23.3434 0.0000 12.6794
# 5 26.5310 20.3785 8.9755 0.0000 27.0733 0.0000
# 6 0.0000 0.0000 0.0000 12.6794 0.0000 36.5232
#
#
#
# Elastic Compliance Matrix: (Units=1/GPa)
#
#
# Indices 1 2 3 4 5 6 
#
# 1 0.015343 -0.003578 -0.005586 0.000000 -0.010490 0.000000
# 2 -0.003578 0.047900 -0.032767 0.000000 -0.021686 0.000000
# 3 -0.005586 -0.032767 0.106200 0.000000 -0.005070 0.000000
# 4 0.000000 0.000000 0.000000 0.052794 0.000000 -0.018328
# 5 -0.010490 -0.021686 -0.005070 0.000000 0.065221 0.000000
# 6 0.000000 0.000000 0.000000 -0.018328 0.000000 0.033743
#
#
# Mechanical properties :
#
#
# Convention : Reuss Voigt Hill
#
# Bulk Modulus (GPa) = 11.68486 30.76766 21.22626
# Shear Modulus (GPa) = 11.53165 23.62121 17.57643
#
# Velocity S-wave (km/s) = 2.28151 3.26534 2.81671
# Velocity P-wave (km/s) = 3.49498 5.30141 4.48998
#
# Compressibility (1/GPa) = 0.08558085
#
# Stress axis : x y z
#
# Youngs Moduli (GPa) = 65.17788 20.87662 9.41621
#
# Poissons Ratio (x) = 0.07470 0.05260
# Poissons Ratio (y) = 0.23321 0.30854
# Poissons Ratio (z) = 0.36411 0.68405
#
# Static dielectric constant tensor:
#      x y z
#    x 1.873120 0.000000 -0.048730 
#    y 0.000000 1.792840 0.000000 
#    z -0.048730 0.000000 1.857260 
# 
# From -- ./inp_files/96329.got.cif
#   From: 2010.05.17/outbox.cif.g08.bks.cpg/sg15_49_cif.got.tgz:96329.got - 2010.06.03 18:47:42.
