data_PCOD9279264
_publ_section_title
;
Structure prediction by ZEFSAII (Michael W. Deem and Ramdas Pophale) SiO2 
 PCOD9279264
Probable space group: C 2/C
;
_chemical_formula_sum "Si O2"
_cell_formula_units_Z 64
_cell_length_a 16.315423
_cell_length_b 14.956004
_cell_length_c 25.894890
_cell_angle_alpha 90.000000
_cell_angle_beta 150.879934
_cell_angle_gamma 90.000000
_cell_volume 3074.942501
_symmetry_space_group_name_H-M "C 2/C"
_symmetry_group_IT_number 15
_symmetry_cell_setting 'monoclinic'
loop_
_space_group_symop_operation_xyz
x,y,z
-x,y,1/2-z
-x,-y,-z
x,-y,1/2+z
1/2+x,1/2+y,z
1/2-x,1/2+y,1/2-z
1/2-x,1/2-y,-z
1/2+x,1/2-y,1/2+z
loop_
_atom_site_type_symbol
_atom_site_label
_atom_site_fract_x
_atom_site_fract_y
_atom_site_fract_z
Si Si1 0.271871 0.602867 0.926094
Si Si2 0.812955 0.510297 0.213975
Si Si3 0.404322 0.520218 0.143248
Si Si4 0.510368 0.017278 0.426024
Si Si5 0.848861 0.786964 0.627219
Si Si6 0.971803 0.055994 0.580691
Si Si7 0.505855 0.145939 0.992760
Si Si8 0.883962 0.832214 0.941304
O O1 0.165514 0.563394 0.819186
O O2 0.193326 0.686150 0.914248
O O3 0.325891 0.516919 0.988440
O O4 0.447702 0.635673 0.996764
O O5 0.643257 0.478707 0.149622
O O6 0.766207 0.605192 0.161964
O O7 0.951668 0.518127 0.334679
O O8 0.500000 0.520391 0.250000
O O9 0.403964 0.625459 0.125099
O O10 0.490406 0.451273 0.151671
O O11 0.211313 0.490615 0.041929
O O12 0.456168 0.101538 0.430862
O O13 0.441471 0.930251 0.418391
O O14 0.680940 0.818540 0.564942
O O15 0.000000 0.772926 0.750000
O O16 0.918200 0.143863 0.520106
O O17 0.377145 0.227379 0.927957
#
# Coordination Sequence:
#
# PCOD9279264 Si02
#       8
#     8   8   8   8   8   8   8   8
#     4   8  16  33  51  79 110 144 185 225 270 340
#     4   9  18  33  58  83 105 145 197 228 278 333
#     4  10  22  36  50  79 114 151 189 227 294 350
#     4  10  21  35  55  82 113 146 190 241 286 334
#     4   9  18  31  51  80 116 149 179 221 280 350
#     4   9  18  33  59  74 108 153 185 232 278 329
#     4   9  19  36  54  77 117 147 188 236 281 337
#     4   8  16  37  55  79 106 143 194 232 273 338
#
# _framework density 20.813397999999999
#
# number of rings (size 3 to 8) (size 9 to 14) (size 15 to 20)
#    0.000    3.000    0.000    1.500    7.000    1.500 
#    6.750    6.250    0.000    0.000    0.000    0.000 
#    0.000    0.000    0.000    0.000    0.000    0.000 
#
# Total GULP energy -178324.391114 kJ/mol
# GULP energy per Si atom -5572.637222 kJ/mol
# Density = 2.076603 g / cm^3
# Si number density = 20.813398 Si / 1000 Ang^3
#
#
#
# Elastic Constant Matrix: (Units=GPa)
#
#
# Indices 1 2 3 4 5 6 
#
# 1 40.9986 15.2987 11.7707 0.0002 -4.9323 0.0000
# 2 15.2987 84.9126 20.1940 0.0007 -3.0587 0.0003
# 3 11.7707 20.1940 108.2310 0.0025 -14.4053 0.0007
# 4 0.0002 0.0007 0.0025 12.9807 0.0007 2.6032
# 5 -4.9323 -3.0587 -14.4053 0.0007 22.1665 0.0001
# 6 0.0000 0.0003 0.0007 2.6032 0.0001 7.2987
#
#
#
# Elastic Compliance Matrix: (Units=1/GPa)
#
#
# Indices 1 2 3 4 5 6 
#
# 1 0.026981 -0.004337 -0.001539 0.000000 0.004405 0.000000
# 2 -0.004337 0.013022 -0.002022 0.000000 -0.000482 0.000000
# 3 -0.001539 -0.002022 0.010620 -0.000002 0.006280 0.000000
# 4 0.000000 0.000000 -0.000002 0.082972 -0.000004 -0.029593
# 5 0.004405 -0.000482 0.006280 -0.000004 0.050108 0.000000
# 6 0.000000 0.000000 0.000000 -0.029593 0.000000 0.147565
#
#
# Mechanical properties :
#
#
# Convention : Reuss Voigt Hill
#
# Bulk Modulus (GPa) = 28.71292 36.51881 32.61586
# Shear Modulus (GPa) = 13.94030 20.94778 17.44404
#
# Velocity S-wave (km/s) = 2.59081 3.17591 2.89816
# Velocity P-wave (km/s) = 4.77232 5.57068 5.18688
#
# Compressibility (1/GPa) = 0.03482752
#
# Stress axis : x y z
#
# Youngs Moduli (GPa) = 37.06309 76.79510 94.16166
#
# Poissons Ratio (x) = 0.33302 0.14491
# Poissons Ratio (y) = 0.16072 0.19041
# Poissons Ratio (z) = 0.05704 0.15529
#
# Static dielectric constant tensor:
#      x y z
#    x 1.783410 0.000000 -0.013500 
#    y 0.000000 1.775140 0.000000 
#    z -0.013500 0.000000 1.764660 
# 
# From -- ./inp_files/277663.got.cif
#   From: 2010.05.17/outbox.cif.g08.bks.cpg/sg15_139_cif.got.tgz:277663.got - 2010.06.03 18:47:42.
