data_PCOD9279834
_publ_section_title
;
Structure prediction by ZEFSAII (Michael W. Deem and Ramdas Pophale) SiO2 
 PCOD9279834
Probable space group: C 2/C
;
_chemical_formula_sum "Si O2"
_cell_formula_units_Z 64
_cell_length_a 24.544694
_cell_length_b 19.094155
_cell_length_c 19.176291
_cell_angle_alpha 90.000000
_cell_angle_beta 20.597614
_cell_angle_gamma 90.000000
_cell_volume 3161.708342
_symmetry_space_group_name_H-M "C 2/C"
_symmetry_group_IT_number 15
_symmetry_cell_setting 'monoclinic'
loop_
_space_group_symop_operation_xyz
x,y,z
-x,y,1/2-z
-x,-y,-z
x,-y,1/2+z
1/2+x,1/2+y,z
1/2-x,1/2+y,1/2-z
1/2-x,1/2-y,-z
1/2+x,1/2-y,1/2+z
loop_
_atom_site_type_symbol
_atom_site_label
_atom_site_fract_x
_atom_site_fract_y
_atom_site_fract_z
Si Si1 0.028246 0.152135 0.636805
Si Si2 0.401315 0.435141 0.584454
Si Si3 0.032580 0.550378 0.545956
Si Si4 0.849167 0.733246 0.262648
Si Si5 0.390125 0.667866 0.591927
Si Si6 0.375055 0.154411 0.839831
Si Si7 0.438307 0.100689 0.505156
Si Si8 0.438535 0.692746 0.245802
O O1 0.063050 0.089793 0.538614
O O2 0.176474 0.202983 0.470544
O O3 0.000000 0.126122 0.750000
O O4 0.897046 0.202976 0.757679
O O5 0.500000 0.500000 0.500000
O O6 0.218585 0.443942 0.814634
O O7 0.457299 0.368497 0.561154
O O8 0.008814 0.469677 0.596268
O O9 0.942354 0.597183 0.708563
O O10 0.966607 0.576719 0.550920
O O11 0.871448 0.761185 0.157114
O O12 0.963759 0.667833 0.134584
O O13 0.241042 0.620914 0.787248
O O14 0.421941 0.676045 0.472768
O O15 0.500000 0.161552 0.750000
O O16 0.372538 0.230407 0.805204
O O17 0.209123 0.141778 0.074183
O O18 0.500000 0.692812 0.250000
#
# Coordination Sequence:
#
# PCOD9279834 Si02
#       8
#     8   8   8   8   8   8   8   8
#     4  11  24  43  68  98 134 169 214 288 345 396
#     4  11  23  42  65  93 127 173 225 268 326 404
#     4  11  22  39  65  85 131 170 217 269 320 406
#     4  11  22  41  67 100 126 168 225 275 339 406
#     4  11  22  38  66  93 125 167 222 272 323 399
#     4  10  21  38  57  87 125 166 206 258 329 378
#     4  11  22  38  63  94 120 164 222 265 327 387
#     4  10  21  36  59  93 129 162 211 267 323 386
#
# _framework density 20.242221000000001
#
# number of rings (size 3 to 8) (size 9 to 14) (size 15 to 20)
#    0.000    1.250    3.750    2.625    0.000    2.000 
#    0.000    3.750    0.000    0.000    0.000    0.000 
#    0.000    0.000    0.000    0.000    0.000    0.000 
#
# Total GULP energy -178404.584382 kJ/mol
# GULP energy per Si atom -5575.143262 kJ/mol
# Density = 2.019615 g / cm^3
# Si number density = 20.242221 Si / 1000 Ang^3
#
#
#
# Elastic Constant Matrix: (Units=GPa)
#
#
# Indices 1 2 3 4 5 6 
#
# 1 82.7390 20.4687 30.1805 -0.0005 11.4085 -0.0002
# 2 20.4687 86.6737 33.3450 -0.0043 12.2921 0.0023
# 3 30.1805 33.3450 61.3978 -0.0057 0.9928 -0.0005
# 4 -0.0005 -0.0043 -0.0057 30.4405 0.0020 17.2572
# 5 11.4085 12.2921 0.9928 0.0020 37.9584 0.0009
# 6 -0.0002 0.0023 -0.0005 17.2572 0.0009 52.0056
#
#
#
# Elastic Compliance Matrix: (Units=1/GPa)
#
#
# Indices 1 2 3 4 5 6 
#
# 1 0.015443 -0.000165 -0.007430 -0.000001 -0.004394 0.000000
# 2 -0.000165 0.015405 -0.008209 0.000002 -0.004724 -0.000001
# 3 -0.007430 -0.008209 0.024329 0.000003 0.004255 -0.000001
# 4 -0.000001 0.000002 0.000003 0.040463 -0.000002 -0.013427
# 5 -0.004394 -0.004724 0.004255 -0.000002 0.029084 0.000000
# 6 0.000000 -0.000001 -0.000001 -0.013427 0.000000 0.023684
#
#
# Mechanical properties :
#
#
# Convention : Reuss Voigt Hill
#
# Bulk Modulus (GPa) = 42.42999 44.31097 43.37048
# Shear Modulus (GPa) = 26.61385 33.86866 30.24125
#
# Velocity S-wave (km/s) = 3.62991 4.09488 3.86938
# Velocity P-wave (km/s) = 6.21087 6.65547 6.43701
#
# Compressibility (1/GPa) = 0.02356824
#
# Stress axis : x y z
#
# Youngs Moduli (GPa) = 64.75313 64.91604 41.10334
#
# Poissons Ratio (x) = 0.01073 0.30541
# Poissons Ratio (y) = 0.01071 0.33740
# Poissons Ratio (z) = 0.48114 0.53286
#
# Static dielectric constant tensor:
#      x y z
#    x 1.763660 0.000020 -0.009500 
#    y 0.000020 1.735640 -0.000010 
#    z -0.009500 -0.000010 1.715640 
# 
# From -- ./inp_files/258061.got.cif
#   From: 2010.05.17/outbox.cif.g08.bks.cpg/sg15_130_cif.got.tgz:258061.got - 2010.06.03 18:47:42.
