data_PCOD9279143
_publ_section_title
;
Structure prediction by ZEFSAII (Michael W. Deem and Ramdas Pophale) SiO2 
 PCOD9279143
Probable space group: C 2/C
;
_chemical_formula_sum "Si O2"
_cell_formula_units_Z 60
_cell_length_a 11.878594
_cell_length_b 28.815225
_cell_length_c 18.461634
_cell_angle_alpha 90.000000
_cell_angle_beta 152.219280
_cell_angle_gamma 90.000000
_cell_volume 2945.276012
_symmetry_space_group_name_H-M "C 2/C"
_symmetry_group_IT_number 15
_symmetry_cell_setting 'monoclinic'
loop_
_space_group_symop_operation_xyz
x,y,z
-x,y,1/2-z
-x,-y,-z
x,-y,1/2+z
1/2+x,1/2+y,z
1/2-x,1/2+y,1/2-z
1/2-x,1/2-y,-z
1/2+x,1/2-y,1/2+z
loop_
_atom_site_type_symbol
_atom_site_label
_atom_site_fract_x
_atom_site_fract_y
_atom_site_fract_z
Si Si1 0.949301 0.597619 0.381348
Si Si2 0.946985 0.117263 0.916032
Si Si3 0.500000 0.098398 0.250000
Si Si4 0.778656 0.969452 0.410099
Si Si5 0.884369 0.789937 0.302743
Si Si6 0.940755 0.040437 0.298287
Si Si7 0.795109 0.944695 0.193846
Si Si8 0.888962 0.298410 0.501455
O O1 0.018257 0.577471 0.341612
O O2 0.671591 0.585985 0.231835
O O3 0.073290 0.574927 0.522382
O O4 0.008360 0.651345 0.420681
O O5 0.815365 0.082154 0.897121
O O6 0.853910 0.168688 0.843651
O O7 0.899527 0.089754 0.813390
O O8 0.232128 0.121903 0.099188
O O9 0.500000 0.984467 0.250000
O O10 0.829704 0.971312 0.524217
O O11 0.000000 0.000000 0.500000
O O12 0.685824 0.792233 0.125517
O O13 0.927100 0.741115 0.367015
O O14 0.139252 0.796552 0.405115
O O15 0.000000 0.048207 0.250000
O O16 0.762255 0.996215 0.206382
O O17 0.000000 0.950005 0.250000
#
# Coordination Sequence:
#
# PCOD9279143 Si02
#       8
#     8   8   4   8   8   8   8   8
#     4  12  23  40  62  93 133 177 221 287 335 413
#     4  12  23  41  64  93 136 174 225 279 351 403
#     4  12  24  34  68  98 126 180 228 280 346 410
#     4  12  29  47  69 100 137 182 230 289 343 409
#     4  10  21  35  57  94 128 174 214 285 338 423
#     4  11  27  42  62  94 129 177 229 272 329 404
#     4  11  21  39  60  90 125 172 218 269 332 399
#     4  10  21  34  59  89 134 168 223 270 356 404
#
# _framework density 20.371604999999999
#
# number of rings (size 3 to 8) (size 9 to 14) (size 15 to 20)
#    0.000    0.800    6.667    0.400    4.667    2.133 
#    0.000    0.000    0.000    0.800    0.000    3.733 
#    0.000    0.000    0.000    0.000    0.000    0.000 
#
# Total GULP energy -167206.323861 kJ/mol
# GULP energy per Si atom -5573.544129 kJ/mol
# Density = 2.032524 g / cm^3
# Si number density = 20.371605 Si / 1000 Ang^3
#
#
#
# Elastic Constant Matrix: (Units=GPa)
#
#
# Indices 1 2 3 4 5 6 
#
# 1 65.7702 25.5052 43.4791 0.0005 -18.9522 0.0000
# 2 25.5052 120.1214 46.6378 -0.0002 -9.5612 0.0001
# 3 43.4791 46.6378 132.3945 0.0007 -22.4851 0.0015
# 4 0.0005 -0.0002 0.0007 19.0221 0.0006 -7.2150
# 5 -18.9522 -9.5612 -22.4851 0.0006 36.7136 0.0004
# 6 0.0000 0.0001 0.0015 -7.2150 0.0004 23.6640
#
#
#
# Elastic Compliance Matrix: (Units=1/GPa)
#
#
# Indices 1 2 3 4 5 6 
#
# 1 0.021491 -0.001994 -0.005089 -0.000001 0.007458 0.000000
# 2 -0.001994 0.009836 -0.002846 0.000000 -0.000211 0.000000
# 3 -0.005089 -0.002846 0.010776 -0.000001 0.003231 -0.000001
# 4 -0.000001 0.000000 -0.000001 0.059445 -0.000002 0.018124
# 5 0.007458 -0.000211 0.003231 -0.000002 0.033012 -0.000001
# 6 0.000000 0.000000 -0.000001 0.018124 -0.000001 0.047784
#
#
# Mechanical properties :
#
#
# Convention : Reuss Voigt Hill
#
# Bulk Modulus (GPa) = 44.95203 61.05892 53.00548
# Shear Modulus (GPa) = 23.85309 29.39088 26.62199
#
# Velocity S-wave (km/s) = 3.42555 3.80246 3.61892
# Velocity P-wave (km/s) = 6.14490 7.02253 6.59832
#
# Compressibility (1/GPa) = 0.02224593
#
# Stress axis : x y z
#
# Youngs Moduli (GPa) = 46.53169 101.66253 92.80122
#
# Poissons Ratio (x) = 0.20269 0.47224
# Poissons Ratio (y) = 0.09277 0.26412
# Poissons Ratio (z) = 0.23679 0.28934
#
# Static dielectric constant tensor:
#      x y z
#    x 1.747060 0.000000 0.000350 
#    y 0.000000 1.773380 0.000000 
#    z 0.000350 0.000000 1.800620 
# 
# From -- ./inp_files/201283.got.cif
#   From: 2010.05.17/outbox.cif.g08.bks.cpg/sg15_101_cif.got.tgz:201283.got - 2010.06.03 18:47:42.
