data_PCOD9279152
_publ_section_title
;
Structure prediction by ZEFSAII (Michael W. Deem and Ramdas Pophale) SiO2 
 PCOD9279152
Probable space group: C 2/C
;
_chemical_formula_sum "Si O2"
_cell_formula_units_Z 56
_cell_length_a 11.820971
_cell_length_b 12.625295
_cell_length_c 24.337001
_cell_angle_alpha 90.000000
_cell_angle_beta 39.683890
_cell_angle_gamma 90.000000
_cell_volume 2319.303842
_symmetry_space_group_name_H-M "C 2/C"
_symmetry_group_IT_number 15
_symmetry_cell_setting 'monoclinic'
loop_
_space_group_symop_operation_xyz
x,y,z
-x,y,1/2-z
-x,-y,-z
x,-y,1/2+z
1/2+x,1/2+y,z
1/2-x,1/2+y,1/2-z
1/2-x,1/2-y,-z
1/2+x,1/2-y,1/2+z
loop_
_atom_site_type_symbol
_atom_site_label
_atom_site_fract_x
_atom_site_fract_y
_atom_site_fract_z
Si Si1 0.704964 0.616983 0.158629
Si Si2 0.269110 0.450496 0.651842
Si Si3 0.173505 0.725035 0.870249
Si Si4 0.171903 0.966155 0.985183
Si Si5 0.789855 0.534645 0.718820
Si Si6 0.200347 0.790166 0.458254
Si Si7 0.365170 0.419496 0.382514
O O1 0.500000 0.610178 0.250000
O O2 0.809110 0.568624 0.172153
O O3 0.726188 0.730592 0.122352
O O4 0.729726 0.527794 0.102307
O O5 0.283163 0.335666 0.675621
O O6 0.232467 0.415269 0.603121
O O7 0.457281 0.511631 0.571112
O O8 0.158703 0.517226 0.736953
O O9 0.128545 0.635359 0.842221
O O10 0.314133 0.670260 0.858097
O O11 0.005670 0.759185 0.968907
O O12 0.235488 0.086331 0.951853
O O13 0.204660 0.905723 0.029590
O O14 0.576854 0.560422 0.801129
O O15 0.250000 0.750000 0.500000
#
# Coordination Sequence:
#
# PCOD9279152 Si02
#       7
#     8   8   8   8   8   8   8
#     4   9  18  33  57  81 107 153 192 238 292 350
#     4   9  19  35  56  83 112 150 189 236 293 353
#     4  10  21  34  60  85 111 153 198 244 290 346
#     4   9  18  35  56  79 114 151 189 235 296 351
#     4   9  19  36  59  83 115 155 200 238 290 361
#     4  11  21  36  57  86 117 149 194 245 290 350
#     4   9  17  35  58  83 111 153 201 240 290 355
#
# _framework density 24.145175999999999
#
# number of rings (size 3 to 8) (size 9 to 14) (size 15 to 20)
#    0.000    2.571    1.429    1.286    2.000    4.000 
#    0.000    0.000    6.286    0.000    0.000    0.000 
#    0.000    0.000    0.000    0.000    0.000    0.000 
#
# Total GULP energy -155924.801069 kJ/mol
# GULP energy per Si atom -5568.742895 kJ/mol
# Density = 2.409022 g / cm^3
# Si number density = 24.145176 Si / 1000 Ang^3
#
#
#
# Elastic Constant Matrix: (Units=GPa)
#
#
# Indices 1 2 3 4 5 6 
#
# 1 52.8145 -4.9053 26.9056 0.0000 14.3618 0.0000
# 2 -4.9053 48.1271 20.4953 0.0000 15.6364 0.0000
# 3 26.9056 20.4953 73.4418 -0.0001 31.6470 0.0000
# 4 0.0000 0.0000 -0.0001 25.9665 0.0000 1.1009
# 5 14.3618 15.6364 31.6470 0.0000 35.3101 0.0000
# 6 0.0000 0.0000 0.0000 1.1009 0.0000 12.4859
#
#
#
# Elastic Compliance Matrix: (Units=1/GPa)
#
#
# Indices 1 2 3 4 5 6 
#
# 1 0.026162 0.008629 -0.009386 0.000000 -0.006050 0.000000
# 2 0.008629 0.027678 -0.006666 0.000000 -0.009792 0.000000
# 3 -0.009386 -0.006666 0.026064 0.000000 -0.016591 0.000000
# 4 0.000000 0.000000 0.000000 0.038656 0.000000 -0.003408
# 5 -0.006050 -0.009792 -0.016591 0.000000 0.049988 0.000000
# 6 0.000000 0.000000 0.000000 -0.003408 0.000000 0.080391
#
#
# Mechanical properties :
#
#
# Convention : Reuss Voigt Hill
#
# Bulk Modulus (GPa) = 15.37039 28.81941 22.09490
# Shear Modulus (GPa) = 17.51499 23.54500 20.52999
#
# Velocity S-wave (km/s) = 2.69625 3.12612 2.91911
# Velocity P-wave (km/s) = 4.00907 4.99919 4.53126
#
# Compressibility (1/GPa) = 0.06506016
#
# Stress axis : x y z
#
# Youngs Moduli (GPa) = 38.22294 36.12973 38.36686
#
# Poissons Ratio (x) = -0.31177 0.36009
# Poissons Ratio (y) = -0.32984 0.25575
# Poissons Ratio (z) = 0.35874 0.24084
#
# Static dielectric constant tensor:
#      x y z
#    x 2.244820 0.000000 0.055830 
#    y 0.000000 2.070450 0.000000 
#    z 0.055830 0.000000 1.954270 
# 
# From -- ./inp_files/295921.got.cif
#   From: 2010.05.17/outbox.cif.g08.bks.cpg/sg15_148_cif.got.tgz:295921.got - 2010.06.03 18:47:42.
