data_PCOD9279094
_publ_section_title
;
Structure prediction by ZEFSAII (Michael W. Deem and Ramdas Pophale) SiO2 
 PCOD9279094
Probable space group: C 2/C
;
_chemical_formula_sum "Si O2"
_cell_formula_units_Z 40
_cell_length_a 19.158424
_cell_length_b 19.054101
_cell_length_c 5.498390
_cell_angle_alpha 90.000000
_cell_angle_beta 92.333793
_cell_angle_gamma 90.000000
_cell_volume 2005.503435
_symmetry_space_group_name_H-M "C 2/C"
_symmetry_group_IT_number 15
_symmetry_cell_setting 'monoclinic'
loop_
_space_group_symop_operation_xyz
x,y,z
-x,y,1/2-z
-x,-y,-z
x,-y,1/2+z
1/2+x,1/2+y,z
1/2-x,1/2+y,1/2-z
1/2-x,1/2-y,-z
1/2+x,1/2-y,1/2+z
loop_
_atom_site_type_symbol
_atom_site_label
_atom_site_fract_x
_atom_site_fract_y
_atom_site_fract_z
Si Si1 0.457296 0.807773 0.995816
Si Si2 0.915854 0.466654 0.091909
Si Si3 0.824221 0.208439 0.998878
Si Si4 0.740807 0.977979 0.931145
Si Si5 0.281795 0.328840 0.992772
O O1 0.500000 0.791095 0.250000
O O2 0.500000 0.799510 0.750000
O O3 0.433498 0.888339 0.018639
O O4 0.387853 0.761315 0.977229
O O5 0.938876 0.516519 0.871092
O O6 0.832118 0.479593 0.089391
O O7 0.818887 0.161579 0.756995
O O8 0.750000 0.250000 0.000000
O O9 0.829258 0.170704 0.259408
O O10 0.729130 0.894027 0.950554
O O11 0.777088 0.995581 0.681633
O O12 0.250000 0.250000 0.000000
#
# Coordination Sequence:
#
# PCOD9279094 Si02
#       5
#     8   8   8   8   8
#     4  12  26  43  62  90 132 176 222 259 310 386
#     4  10  23  35  60  77 127 173 222 245 298 351
#     4  10  23  38  65  86 119 163 224 266 322 354
#     4  10  21  34  56  89 126 164 203 263 319 362
#     4  10  21  34  61  88 119 162 214 267 327 355
#
# _framework density 19.945115000000001
#
# number of rings (size 3 to 8) (size 9 to 14) (size 15 to 20)
#    0.000    1.600    0.000    3.600   22.400    2.400 
#    0.000    0.000    0.000    0.000    0.000    0.000 
#    0.000   56.000    0.000    0.000    0.000    0.000 
#
# Total GULP energy -111567.609977 kJ/mol
# GULP energy per Si atom -5578.380499 kJ/mol
# Density = 1.989972 g / cm^3
# Si number density = 19.945115 Si / 1000 Ang^3
#
#
#
# Elastic Constant Matrix: (Units=GPa)
#
#
# Indices 1 2 3 4 5 6 
#
# 1 85.6641 36.8298 38.2507 0.0000 -5.5691 0.0000
# 2 36.8298 74.4472 28.9473 0.0000 1.6015 0.0000
# 3 38.2507 28.9473 223.2889 0.0000 3.1786 0.0000
# 4 0.0000 0.0000 0.0000 23.9895 0.0000 1.7220
# 5 -5.5691 1.6015 3.1786 0.0000 24.6267 0.0000
# 6 0.0000 0.0000 0.0000 1.7220 0.0000 38.8529
#
#
#
# Elastic Compliance Matrix: (Units=1/GPa)
#
#
# Indices 1 2 3 4 5 6 
#
# 1 0.015887 -0.007235 -0.001845 0.000000 0.004301 0.000000
# 2 -0.007235 0.017452 -0.000985 0.000000 -0.002644 0.000000
# 3 -0.001845 -0.000985 0.004936 0.000000 -0.000990 0.000000
# 4 0.000000 0.000000 0.000000 0.041818 0.000000 -0.001853
# 5 0.004301 -0.002644 -0.000990 0.000000 0.041879 0.000000
# 6 0.000000 0.000000 0.000000 -0.001853 0.000000 0.025820
#
#
# Mechanical properties :
#
#
# Convention : Reuss Voigt Hill
#
# Bulk Modulus (GPa) = 55.11163 65.71730 60.41447
# Shear Modulus (GPa) = 28.74039 36.11863 32.42951
#
# Velocity S-wave (km/s) = 3.80013 4.26008 4.03667
# Velocity P-wave (km/s) = 6.85174 7.56428 7.21681
#
# Compressibility (1/GPa) = 0.01814499
#
# Stress axis : x y z
#
# Youngs Moduli (GPa) = 62.94271 57.30148 202.57701
#
# Poissons Ratio (x) = 0.41457 0.37374
# Poissons Ratio (y) = 0.45538 0.19962
# Poissons Ratio (z) = 0.11612 0.05647
#
# Static dielectric constant tensor:
#      x y z
#    x 1.808170 0.000000 0.018690 
#    y 0.000000 1.704250 0.000000 
#    z 0.018690 0.000000 1.831930 
# 
# From -- ./inp_files/9789.got.cif
#   From: 2010.05.17/outbox.cif.g08.bks.cpg/sg15_5_cif.got.tgz:9789.got - 2010.06.03 18:47:42.
