data_PCOD9279952
_publ_section_title
;
Structure prediction by ZEFSAII (Michael W. Deem and Ramdas Pophale) SiO2 
 PCOD9279952
Probable space group: C 2/C
;
_chemical_formula_sum "Si O2"
_cell_formula_units_Z 56
_cell_length_a 20.858665
_cell_length_b 9.921433
_cell_length_c 13.210362
_cell_angle_alpha 90.000000
_cell_angle_beta 76.744458
_cell_angle_gamma 90.000000
_cell_volume 2661.018083
_symmetry_space_group_name_H-M "C 2/C"
_symmetry_group_IT_number 15
_symmetry_cell_setting 'monoclinic'
loop_
_space_group_symop_operation_xyz
x,y,z
-x,y,1/2-z
-x,-y,-z
x,-y,1/2+z
1/2+x,1/2+y,z
1/2-x,1/2+y,1/2-z
1/2-x,1/2-y,-z
1/2+x,1/2-y,1/2+z
loop_
_atom_site_type_symbol
_atom_site_label
_atom_site_fract_x
_atom_site_fract_y
_atom_site_fract_z
Si Si1 0.219450 0.101654 0.398438
Si Si2 0.071928 0.939683 0.231986
Si Si3 0.163895 0.123499 0.064710
Si Si4 0.595794 0.268925 0.407712
Si Si5 0.834728 0.632249 0.509055
Si Si6 0.724208 0.890500 0.838112
Si Si7 0.967219 0.655812 0.360843
O O1 0.168543 0.224663 0.432351
O O2 0.287179 0.145805 0.429228
O O3 0.237492 0.073660 0.277110
O O4 0.193865 0.973193 0.467861
O O5 0.087099 0.903805 0.342966
O O6 0.062714 0.796276 0.175702
O O7 0.000000 0.005800 0.250000
O O8 0.125184 0.028913 0.157030
O O9 0.224048 0.185358 0.106761
O O10 0.113974 0.214446 0.018747
O O11 0.659631 0.195799 0.338264
O O12 0.528019 0.190751 0.411969
O O13 0.801917 0.521281 0.593169
O O14 0.906834 0.592668 0.443387
O O15 0.000000 0.586011 0.250000
#
# Coordination Sequence:
#
# PCOD9279952 Si02
#       7
#     8   8   8   8   8   8   8
#     4  10  21  36  62  85 115 149 202 243 278 346
#     4   9  19  36  61  85 109 148 198 243 287 339
#     4  11  21  37  58  86 115 154 188 243 295 347
#     4  10  22  37  57  83 123 148 190 236 298 344
#     4  10  21  39  61  89 115 153 202 236 290 344
#     4  11  24  36  59  87 119 157 187 242 291 347
#     4   9  18  36  63  88 114 152 197 245 278 346
#
# _framework density 21.044575999999999
#
# number of rings (size 3 to 8) (size 9 to 14) (size 15 to 20)
#    0.000    2.286    1.429    3.000    6.000    2.857 
#    2.571    0.000    0.000    0.857    0.000    0.000 
#    0.000    0.000    0.000    0.000    0.000    0.000 
#
# Total GULP energy -156287.944398 kJ/mol
# GULP energy per Si atom -5581.712300 kJ/mol
# Density = 2.099668 g / cm^3
# Si number density = 21.044576 Si / 1000 Ang^3
#
#
#
# Elastic Constant Matrix: (Units=GPa)
#
#
# Indices 1 2 3 4 5 6 
#
# 1 119.8257 8.6994 52.5475 0.0000 11.9555 0.0000
# 2 8.6994 17.5099 10.7578 0.0000 -1.7417 0.0000
# 3 52.5475 10.7578 121.9459 0.0000 -18.9708 0.0000
# 4 0.0000 0.0000 0.0000 8.7451 0.0000 2.9218
# 5 11.9555 -1.7417 -18.9708 0.0000 25.9324 0.0000
# 6 0.0000 0.0000 0.0000 2.9218 0.0000 10.1925
#
#
#
# Elastic Compliance Matrix: (Units=1/GPa)
#
#
# Indices 1 2 3 4 5 6 
#
# 1 0.012735 -0.003171 -0.006945 0.000000 -0.011165 0.000000
# 2 -0.003171 0.061174 -0.003570 0.000000 0.002959 0.000000
# 3 -0.006945 -0.003570 0.013506 0.000000 0.012842 0.000000
# 4 0.000000 0.000000 0.000000 0.126461 0.000000 -0.036252
# 5 -0.011165 0.002959 0.012842 0.000000 0.053302 0.000000
# 6 0.000000 0.000000 0.000000 -0.036252 0.000000 0.108503
#
#
# Mechanical properties :
#
#
# Convention : Reuss Voigt Hill
#
# Bulk Modulus (GPa) = 16.65470 44.81009 30.73240
# Shear Modulus (GPa) = 11.81847 21.45913 16.63880
#
# Velocity S-wave (km/s) = 2.37236 3.19674 2.81489
# Velocity P-wave (km/s) = 3.92878 5.91309 5.01996
#
# Compressibility (1/GPa) = 0.06004310
#
# Stress axis : x y z
#
# Youngs Moduli (GPa) = 78.52303 16.34693 74.04300
#
# Poissons Ratio (x) = 0.05183 0.51421
# Poissons Ratio (y) = 0.24899 0.26433
# Poissons Ratio (z) = 0.54533 0.05836
#
# Static dielectric constant tensor:
#      x y z
#    x 1.779990 0.000000 0.013180 
#    y 0.000000 1.774430 0.000000 
#    z 0.013180 0.000000 1.762380 
# 
# From -- ./inp_files/111004.got.cif
#   From: 2010.05.17/outbox.cif.g08.bks.cpg/sg15_56_cif.got.tgz:111004.got - 2010.06.03 18:47:42.
