data_PCOD9279682
_publ_section_title
;
Structure prediction by ZEFSAII (Michael W. Deem and Ramdas Pophale) SiO2 
 PCOD9279682
Probable space group: C 2/C
;
_chemical_formula_sum "Si O2"
_cell_formula_units_Z 48
_cell_length_a 13.596244
_cell_length_b 29.405032
_cell_length_c 8.067901
_cell_angle_alpha 90.000000
_cell_angle_beta 139.232420
_cell_angle_gamma 90.000000
_cell_volume 2106.246210
_symmetry_space_group_name_H-M "C 2/C"
_symmetry_group_IT_number 15
_symmetry_cell_setting 'monoclinic'
loop_
_space_group_symop_operation_xyz
x,y,z
-x,y,1/2-z
-x,-y,-z
x,-y,1/2+z
1/2+x,1/2+y,z
1/2-x,1/2+y,1/2-z
1/2-x,1/2-y,-z
1/2+x,1/2-y,1/2+z
loop_
_atom_site_type_symbol
_atom_site_label
_atom_site_fract_x
_atom_site_fract_y
_atom_site_fract_z
Si Si1 0.829117 0.426312 0.950380
Si Si2 0.732357 0.613265 0.632499
Si Si3 0.048028 0.645029 0.117671
Si Si4 0.714651 0.282206 0.667114
Si Si5 0.394809 0.303169 0.352581
Si Si6 0.379337 0.975736 0.466788
O O1 0.709143 0.399883 0.911608
O O2 0.785898 0.479466 0.896872
O O3 0.000000 0.426582 0.250000
O O4 0.853398 0.399502 0.809394
O O5 0.630142 0.646019 0.611448
O O6 0.776318 0.564937 0.772310
O O7 0.889294 0.640294 0.827149
O O8 0.140662 0.685584 0.154856
O O9 0.000000 0.650699 0.250000
O O10 0.570528 0.291857 0.595916
O O11 0.651408 0.293165 0.398962
O O12 0.779446 0.232411 0.787377
O O13 0.500000 0.956430 0.750000
O O14 0.500000 0.000000 0.500000
#
# Coordination Sequence:
#
# PCOD9279682 Si02
#       6
#     8   8   8   8   8   8
#     4   9  20  33  50  87 124 147 190 241 280 342
#     4  11  20  34  56  86 118 156 189 239 291 333
#     4  11  19  32  58  87 112 152 192 231 289 337
#     4  10  21  36  56  90 114 147 193 241 281 347
#     4  10  21  36  57  84 120 146 191 238 291 337
#     4  11  18  30  51  87 120 149 192 241 281 331
#
# _framework density 22.789358
#
# number of rings (size 3 to 8) (size 9 to 14) (size 15 to 20)
#    0.000    1.667    6.667    1.500    2.333    0.000 
#    0.000    1.667    0.000    1.000    0.000    0.000 
#    0.000    0.000    0.000    0.000    0.000    0.000 
#
# Total GULP energy -133625.667752 kJ/mol
# GULP energy per Si atom -5567.736156 kJ/mol
# Density = 2.273749 g / cm^3
# Si number density = 22.789358 Si / 1000 Ang^3
#
#
#
# Elastic Constant Matrix: (Units=GPa)
#
#
# Indices 1 2 3 4 5 6 
#
# 1 95.2363 71.2298 19.3041 0.0000 3.6666 0.0000
# 2 71.2298 165.2890 20.0687 0.0000 11.3318 0.0000
# 3 19.3041 20.0687 15.2424 0.0000 8.6245 0.0000
# 4 0.0000 0.0000 0.0000 5.0344 0.0000 1.5833
# 5 3.6666 11.3318 8.6245 0.0000 26.9026 0.0000
# 6 0.0000 0.0000 0.0000 1.5833 0.0000 39.4344
#
#
#
# Elastic Compliance Matrix: (Units=1/GPa)
#
#
# Indices 1 2 3 4 5 6 
#
# 1 0.018766 -0.006190 -0.019111 0.000000 0.006176 0.000000
# 2 -0.006190 0.009243 -0.003182 0.000000 -0.002030 0.000000
# 3 -0.019111 -0.003182 0.112102 0.000000 -0.031993 0.000000
# 4 0.000000 0.000000 0.000000 0.201172 0.000000 -0.008077
# 5 0.006176 -0.002030 -0.031993 0.000000 0.047441 0.000000
# 6 0.000000 0.000000 0.000000 -0.008077 0.000000 0.025683
#
#
# Mechanical properties :
#
#
# Convention : Reuss Voigt Hill
#
# Bulk Modulus (GPa) = 12.02719 55.21923 33.62321
# Shear Modulus (GPa) = 10.01827 25.28528 17.65178
#
# Velocity S-wave (km/s) = 2.09895 3.33456 2.78612
# Velocity P-wave (km/s) = 3.34112 6.25369 5.01357
#
# Compressibility (1/GPa) = 0.08314496
#
# Stress axis : x y z
#
# Youngs Moduli (GPa) = 53.28808 108.18988 8.92042
#
# Poissons Ratio (x) = 0.66970 0.17048
# Poissons Ratio (y) = 0.32985 0.02838
# Poissons Ratio (z) = 1.01841 0.34424
#
# Static dielectric constant tensor:
#      x y z
#    x 1.967270 0.000000 -0.101130 
#    y 0.000000 1.978970 0.000000 
#    z -0.101130 0.000000 1.886170 
# 
# From -- ./inp_files/43965.got.cif
#   From: 2010.05.17/outbox.cif.g08.bks.cpg/sg15_22_cif.got.tgz:43965.got - 2010.06.03 18:47:42.
