data_PCOD9279678
_publ_section_title
;
Structure prediction by ZEFSAII (Michael W. Deem and Ramdas Pophale) SiO2 
 PCOD9279678
Probable space group: C 2/C
;
_chemical_formula_sum "Si O2"
_cell_formula_units_Z 48
_cell_length_a 19.201071
_cell_length_b 24.549501
_cell_length_c 5.210761
_cell_angle_alpha 90.000000
_cell_angle_beta 70.975765
_cell_angle_gamma 90.000000
_cell_volume 2322.073948
_symmetry_space_group_name_H-M "C 2/C"
_symmetry_group_IT_number 15
_symmetry_cell_setting 'monoclinic'
loop_
_space_group_symop_operation_xyz
x,y,z
-x,y,1/2-z
-x,-y,-z
x,-y,1/2+z
1/2+x,1/2+y,z
1/2-x,1/2+y,1/2-z
1/2-x,1/2-y,-z
1/2+x,1/2-y,1/2+z
loop_
_atom_site_type_symbol
_atom_site_label
_atom_site_fract_x
_atom_site_fract_y
_atom_site_fract_z
Si Si1 0.841597 0.651933 0.028629
Si Si2 0.661408 0.531239 0.589072
Si Si3 0.874581 0.775075 0.100468
Si Si4 0.000000 0.926231 0.250000
Si Si5 0.747773 0.361367 0.145747
Si Si6 0.500000 0.773968 0.750000
Si Si7 0.500000 0.649320 0.250000
Si Si8 0.500000 0.151909 0.750000
O O1 0.853729 0.717604 0.996432
O O2 0.808086 0.643424 0.349631
O O3 0.786998 0.632802 0.872632
O O4 0.921584 0.624129 0.895911
O O5 0.683182 0.512756 0.278272
O O6 0.573359 0.538581 0.694096
O O7 0.696429 0.588039 0.633377
O O8 0.803551 0.808145 0.273326
O O9 0.927902 0.760818 0.275118
O O10 0.927618 0.812978 0.864509
O O11 0.993106 0.888178 0.508302
O O12 0.511555 0.811003 0.487525
#
# Coordination Sequence:
#
# PCOD9279678 Si02
#       8
#     8   8   8   4   8   4   4   4
#     4  11  24  41  62  95 128 176 210 261 319 401
#     4  12  26  48  70  93 128 172 224 286 332 372
#     4  11  23  39  60  92 140 178 220 256 309 379
#     4  12  25  45  66  97 128 178 237 267 310 367
#     4  12  26  40  64  95 129 164 220 270 338 382
#     4  10  21  36  56  87 122 190 217 250 292 359
#     4  12  25  37  66  93 138 188 219 263 302 369
#     4  10  21  42  62  83 128 162 223 248 306 389
#
# _framework density 20.671175999999999
#
# number of rings (size 3 to 8) (size 9 to 14) (size 15 to 20)
#    0.000    0.667    1.667    8.000    2.333    4.000 
#    0.000    0.000    0.000    0.000    0.000   11.667 
#    0.000    0.000    0.000    0.000    0.000    0.000 
#
# Total GULP energy -134306.706818 kJ/mol
# GULP energy per Si atom -5596.112784 kJ/mol
# Density = 2.062413 g / cm^3
# Si number density = 20.671176 Si / 1000 Ang^3
#
#
#
# Elastic Constant Matrix: (Units=GPa)
#
#
# Indices 1 2 3 4 5 6 
#
# 1 80.3481 7.7397 8.6706 0.0000 -0.8875 0.0000
# 2 7.7397 36.9747 -1.1249 0.0000 8.3421 0.0000
# 3 8.6706 -1.1249 97.5216 0.0000 14.2193 0.0000
# 4 0.0000 0.0000 0.0000 15.0917 0.0000 31.0975
# 5 -0.8875 8.3421 14.2193 0.0000 45.9918 0.0000
# 6 0.0000 0.0000 0.0000 31.0975 0.0000 -34.9542
#
#
#
# Elastic Compliance Matrix: (Units=1/GPa)
#
#
# Indices 1 2 3 4 5 6 
#
# 1 0.012896 -0.003015 -0.001359 0.000000 0.001216 0.000000
# 2 -0.003015 0.029022 0.001444 0.000000 -0.005769 0.000000
# 3 -0.001359 0.001444 0.010926 0.000000 -0.003666 0.000000
# 4 0.000000 0.000000 0.000000 0.023387 0.000000 0.020807
# 5 0.001216 -0.005769 -0.003666 0.000000 0.023946 0.000000
# 6 0.000000 0.000000 0.000000 0.020807 0.000000 -0.010098
#
#
# Mechanical properties :
#
#
# Convention : Reuss Voigt Hill
#
# Bulk Modulus (GPa) = 21.28343 27.26834 24.27588
# Shear Modulus (GPa) = 44.80203 18.52978 31.66591
#
# Velocity S-wave (km/s) = 4.66055 2.99725 3.91818
# Velocity P-wave (km/s) = 6.26734 5.01978 5.67792
#
# Compressibility (1/GPa) = 0.04698491
#
# Stress axis : x y z
#
# Youngs Moduli (GPa) = 77.54139 34.45645 91.52355
#
# Poissons Ratio (x) = 0.10389 0.12435
# Poissons Ratio (y) = 0.23380 -0.13216
# Poissons Ratio (z) = 0.10535 -0.04975
#
# Static dielectric constant tensor:
#      x y z
#    x 1.747230 0.000000 -0.018910 
#    y 0.000000 1.724350 0.000000 
#    z -0.018910 0.000000 1.755130 
# 
# From -- ./inp_files/11207.got.cif
#   From: 2010.05.17/outbox.cif.g08.bks.cpg/sg15_6_cif.got.tgz:11207.got - 2010.06.03 18:47:42.
