data_PCOD9279337
_publ_section_title
;
Structure prediction by ZEFSAII (Michael W. Deem and Ramdas Pophale) SiO2 
 PCOD9279337
Probable space group: C 2/C
;
_chemical_formula_sum "Si O2"
_cell_formula_units_Z 40
_cell_length_a 26.223754
_cell_length_b 7.495239
_cell_length_c 13.744959
_cell_angle_alpha 90.000000
_cell_angle_beta 143.703217
_cell_angle_gamma 90.000000
_cell_volume 1599.270675
_symmetry_space_group_name_H-M "C 2/C"
_symmetry_group_IT_number 15
_symmetry_cell_setting 'monoclinic'
loop_
_space_group_symop_operation_xyz
x,y,z
-x,y,1/2-z
-x,-y,-z
x,-y,1/2+z
1/2+x,1/2+y,z
1/2-x,1/2+y,1/2-z
1/2-x,1/2-y,-z
1/2+x,1/2-y,1/2+z
loop_
_atom_site_type_symbol
_atom_site_label
_atom_site_fract_x
_atom_site_fract_y
_atom_site_fract_z
Si Si1 0.790906 0.526331 0.338580
Si Si2 0.451594 0.243117 0.269541
Si Si3 0.619221 0.682468 0.130326
Si Si4 0.353884 0.115850 0.644083
Si Si5 0.276080 0.397166 0.963396
O O1 0.690948 0.528138 0.224783
O O2 0.840598 0.353162 0.370422
O O3 0.841778 0.612966 0.508241
O O4 0.773945 0.633893 0.213421
O O5 0.500000 0.170509 0.250000
O O6 0.523267 0.341579 0.442949
O O7 0.408628 0.066802 0.249855
O O8 0.377935 0.375761 0.116048
O O9 0.608825 0.735417 0.227531
O O10 0.260334 0.077923 0.549121
O O11 0.250000 0.250000 0.000000
#
# Coordination Sequence:
#
# PCOD9279337 Si02
#       5
#     8   8   8   8   8
#     4  11  20  37  58  86 118 153 191 239 288 344
#     4  11  18  37  61  85 114 156 201 235 280 354
#     4  11  22  36  61  85 119 153 195 241 289 344
#     4  10  21  35  57  89 116 149 193 246 295 332
#     4   9  19  35  58  83 113 153 191 227 284 351
#
# _framework density 25.011400999999999
#
# number of rings (size 3 to 8) (size 9 to 14) (size 15 to 20)
#    0.000    1.600    4.000    2.400    0.000    0.000 
#    0.000    1.000    0.000    9.600    0.000    0.000 
#    0.000    0.000    0.000    0.000    0.000    0.000 
#
# Total GULP energy -111463.636385 kJ/mol
# GULP energy per Si atom -5573.181819 kJ/mol
# Density = 2.495447 g / cm^3
# Si number density = 25.011401 Si / 1000 Ang^3
#
#
#
# Elastic Constant Matrix: (Units=GPa)
#
#
# Indices 1 2 3 4 5 6 
#
# 1 101.4048 27.4102 47.3863 0.0000 -24.8941 0.0000
# 2 27.4102 73.0072 32.0893 0.0000 -7.1214 0.0000
# 3 47.3863 32.0893 174.3561 0.0000 -19.6358 0.0000
# 4 0.0000 0.0000 0.0000 31.1582 0.0000 -1.0095
# 5 -24.8941 -7.1214 -19.6358 0.0000 56.4915 0.0000
# 6 0.0000 0.0000 0.0000 -1.0095 0.0000 31.0035
#
#
#
# Elastic Compliance Matrix: (Units=1/GPa)
#
#
# Indices 1 2 3 4 5 6 
#
# 1 0.012997 -0.003387 -0.002406 0.000000 0.004464 0.000000
# 2 -0.003387 0.015836 -0.002016 0.000000 -0.000197 0.000000
# 3 -0.002406 -0.002016 0.006882 0.000000 0.001077 0.000000
# 4 0.000000 0.000000 0.000000 0.032128 0.000000 0.001046
# 5 0.004464 -0.000197 0.001077 0.000000 0.020019 0.000000
# 6 0.000000 0.000000 0.000000 0.001046 0.000000 0.032289
#
#
# Mechanical properties :
#
#
# Convention : Reuss Voigt Hill
#
# Bulk Modulus (GPa) = 49.76016 62.50443 56.13230
# Shear Modulus (GPa) = 35.09570 39.85611 37.47591
#
# Velocity S-wave (km/s) = 3.74998 3.99622 3.87506
# Velocity P-wave (km/s) = 6.21997 6.80718 6.52019
#
# Compressibility (1/GPa) = 0.02009640
#
# Stress axis : x y z
#
# Youngs Moduli (GPa) = 76.93901 63.14811 145.31072
#
# Poissons Ratio (x) = 0.21386 0.34967
# Poissons Ratio (y) = 0.26057 0.29298
# Poissons Ratio (z) = 0.18514 0.12732
#
# Static dielectric constant tensor:
#      x y z
#    x 2.019900 0.000000 0.000550 
#    y 0.000000 2.143750 0.000000 
#    z 0.000550 0.000000 2.063750 
# 
# From -- ./inp_files/141910.got.cif
#   From: 2010.05.17/outbox.cif.g08.bks.cpg/sg15_71_cif.got.tgz:141910.got - 2010.06.03 18:47:42.
