data_PCOD9279109
_publ_section_title
;
Structure prediction by ZEFSAII (Michael W. Deem and Ramdas Pophale) SiO2 
 PCOD9279109
Probable space group: C 2/C
;
_chemical_formula_sum "Si O2"
_cell_formula_units_Z 40
_cell_length_a 5.603127
_cell_length_b 13.394596
_cell_length_c 27.225802
_cell_angle_alpha 90.000000
_cell_angle_beta 49.252950
_cell_angle_gamma 90.000000
_cell_volume 1548.031972
_symmetry_space_group_name_H-M "C 2/C"
_symmetry_group_IT_number 15
_symmetry_cell_setting 'monoclinic'
loop_
_space_group_symop_operation_xyz
x,y,z
-x,y,1/2-z
-x,-y,-z
x,-y,1/2+z
1/2+x,1/2+y,z
1/2-x,1/2+y,1/2-z
1/2-x,1/2-y,-z
1/2+x,1/2-y,1/2+z
loop_
_atom_site_type_symbol
_atom_site_label
_atom_site_fract_x
_atom_site_fract_y
_atom_site_fract_z
Si Si1 0.154878 0.042954 0.429824
Si Si2 0.327644 0.818398 0.536697
Si Si3 0.930818 0.765003 0.411956
Si Si4 0.369295 0.982664 0.713462
Si Si5 0.362311 0.257895 0.216518
O O1 0.320573 0.148923 0.421260
O O2 0.400051 0.983919 0.362392
O O3 0.864156 0.080921 0.435581
O O4 0.000000 0.000000 0.500000
O O5 0.250000 0.750000 0.500000
O O6 0.695997 0.831541 0.475463
O O7 0.270345 0.753712 0.593262
O O8 0.958515 0.804398 0.353935
O O9 0.500000 0.014891 0.750000
O O10 0.403516 0.862020 0.709932
O O11 0.000000 0.000389 0.750000
O O12 0.500000 0.291044 0.250000
O O13 0.000000 0.273047 0.250000
#
# Coordination Sequence:
#
# PCOD9279109 Si02
#       5
#     8   8   8   8   8
#     4  10  21  34  57  89 112 150 201 248 292 356
#     4   9  19  34  55  80 114 149 190 241 300 349
#     4   9  19  34  54  83 115 153 187 245 308 346
#     4   9  19  34  53  79 116 150 184 242 303 348
#     4   9  18  28  51  81 110 143 187 241 291 348
#
# _framework density 25.839258999999998
#
# number of rings (size 3 to 8) (size 9 to 14) (size 15 to 20)
#    0.000    2.800    0.000    0.000   16.800    0.800 
#    0.000    0.000    0.000    1.200    0.000    0.000 
#    0.000    0.000    0.000    0.000    0.000    0.000 
#
# Total GULP energy -111551.710350 kJ/mol
# GULP energy per Si atom -5577.585518 kJ/mol
# Density = 2.578045 g / cm^3
# Si number density = 25.839259 Si / 1000 Ang^3
#
#
#
# Elastic Constant Matrix: (Units=GPa)
#
#
# Indices 1 2 3 4 5 6 
#
# 1 168.0733 -0.2409 105.1924 0.0061 35.8677 -0.0147
# 2 -0.2409 72.3810 19.4408 -0.0022 5.6963 0.0011
# 3 105.1924 19.4408 212.8816 0.0088 31.6026 -0.0175
# 4 0.0061 -0.0022 0.0088 24.5116 -0.0062 9.8269
# 5 35.8677 5.6963 31.6026 -0.0062 38.6352 0.0146
# 6 -0.0147 0.0011 -0.0175 9.8269 0.0146 -25.2586
#
#
#
# Elastic Compliance Matrix: (Units=1/GPa)
#
#
# Indices 1 2 3 4 5 6 
#
# 1 0.009792 0.001604 -0.004098 0.000000 -0.005975 -0.000006
# 2 0.001604 0.014473 -0.001794 0.000001 -0.002155 0.000000
# 3 -0.004098 -0.001794 0.007151 -0.000001 -0.001780 -0.000004
# 4 0.000000 0.000001 -0.000001 0.035292 0.000001 0.013731
# 5 -0.005975 -0.002155 -0.001780 0.000001 0.033204 0.000024
# 6 -0.000006 0.000000 -0.000004 0.013731 0.000024 -0.034249
#
#
# Mechanical properties :
#
#
# Convention : Reuss Voigt Hill
#
# Bulk Modulus (GPa) = 43.78700 78.01338 60.90019
# Shear Modulus (GPa) = 61.08553 29.50721 45.29637
#
# Velocity S-wave (km/s) = 4.86743 3.38295 4.19143
# Velocity P-wave (km/s) = 6.96936 6.74659 6.85888
#
# Compressibility (1/GPa) = 0.02283783
#
# Stress axis : x y z
#
# Youngs Moduli (GPa) = 102.12416 69.09608 139.85023
#
# Poissons Ratio (x) = -0.11080 0.57311
# Poissons Ratio (y) = -0.16376 0.25091
# Poissons Ratio (z) = 0.41851 0.12397
#
# Static dielectric constant tensor:
#      x y z
#    x 2.417940 -0.000010 -0.080720 
#    y -0.000010 2.061710 0.000000 
#    z -0.080720 0.000000 2.302210 
# 
# From -- ./inp_files/305114.got.cif
#   From: 2010.05.17/outbox.cif.g08.bks.cpg/sg15_153_cif.got.tgz:305114.got - 2010.06.03 18:47:42.
