data_PCOD9279905
_publ_section_title
;
Structure prediction by ZEFSAII (Michael W. Deem and Ramdas Pophale) SiO2 
 PCOD9279905
Probable space group: C 2/C
;
_chemical_formula_sum "Si O2"
_cell_formula_units_Z 56
_cell_length_a 17.612162
_cell_length_b 15.642723
_cell_length_c 18.796956
_cell_angle_alpha 90.000000
_cell_angle_beta 145.683136
_cell_angle_gamma 90.000000
_cell_volume 2919.536273
_symmetry_space_group_name_H-M "C 2/C"
_symmetry_group_IT_number 15
_symmetry_cell_setting 'monoclinic'
loop_
_space_group_symop_operation_xyz
x,y,z
-x,y,1/2-z
-x,-y,-z
x,-y,1/2+z
1/2+x,1/2+y,z
1/2-x,1/2+y,1/2-z
1/2-x,1/2-y,-z
1/2+x,1/2-y,1/2+z
loop_
_atom_site_type_symbol
_atom_site_label
_atom_site_fract_x
_atom_site_fract_y
_atom_site_fract_z
Si Si1 0.672887 0.592523 0.628147
Si Si2 0.749449 0.089517 0.325087
Si Si3 0.433235 0.282774 0.902332
Si Si4 0.276284 0.138940 0.861026
Si Si5 0.970227 0.508930 0.061067
Si Si6 0.158159 0.722556 0.362545
Si Si7 0.957960 0.344729 0.299135
O O1 0.655705 0.493360 0.594918
O O2 0.553407 0.658440 0.523127
O O3 0.715949 0.595543 0.744205
O O4 0.802476 0.626146 0.685051
O O5 0.804519 0.154237 0.307547
O O6 0.601235 0.055991 0.192755
O O7 0.734226 0.143444 0.384738
O O8 0.393895 0.203010 0.923035
O O9 0.466149 0.241741 0.851779
O O10 0.168336 0.198565 0.815400
O O11 0.341032 0.069961 0.963787
O O12 0.960952 0.419449 0.095663
O O13 0.000000 0.500000 0.000000
O O14 0.250000 0.750000 0.500000
O O15 0.000000 0.703171 0.250000
O O16 0.000000 0.337309 0.250000
#
# Coordination Sequence:
#
# PCOD9279905 Si02
#       7
#     8   8   8   8   8   8   8
#     4  10  21  39  61  90 117 157 206 257 302 360
#     4  10  22  37  65  88 120 160 206 253 308 368
#     4  10  21  36  61  88 122 154 202 248 309 360
#     4  10  22  36  64  91 119 157 208 254 302 370
#     4  11  19  39  64  93 115 157 209 257 302 361
#     4  11  25  41  62  93 130 170 203 257 322 377
#     4  10  23  38  60  90 121 159 206 252 302 366
#
# _framework density 19.181128000000001
#
# number of rings (size 3 to 8) (size 9 to 14) (size 15 to 20)
#    0.000    1.714    4.286    1.286   10.000    5.143 
#    0.000    0.000    3.143    0.000    0.000    0.000 
#    0.000    0.000    0.000    0.000    0.000    0.000 
#
# Total GULP energy -156200.940894 kJ/mol
# GULP energy per Si atom -5578.605032 kJ/mol
# Density = 1.913747 g / cm^3
# Si number density = 19.181128 Si / 1000 Ang^3
#
#
#
# Elastic Constant Matrix: (Units=GPa)
#
#
# Indices 1 2 3 4 5 6 
#
# 1 77.8045 40.2798 34.0047 0.0000 -15.0322 0.0000
# 2 40.2798 127.4889 45.8611 0.0001 -7.1883 0.0001
# 3 34.0047 45.8611 67.2526 0.0002 -11.6303 0.0001
# 4 0.0000 0.0001 0.0002 31.7638 0.0001 -3.7677
# 5 -15.0322 -7.1883 -11.6303 0.0001 25.3723 0.0000
# 6 0.0000 0.0001 0.0001 -3.7677 0.0000 12.3792
#
#
#
# Elastic Compliance Matrix: (Units=1/GPa)
#
#
# Indices 1 2 3 4 5 6 
#
# 1 0.018558 -0.003354 -0.005821 0.000000 0.007377 0.000000
# 2 -0.003354 0.011002 -0.006094 0.000000 -0.001663 0.000000
# 3 -0.005821 -0.006094 0.022888 0.000000 0.005316 0.000000
# 4 0.000000 0.000000 0.000000 0.032661 0.000000 0.009941
# 5 0.007377 -0.001663 0.005316 0.000000 0.045749 0.000000
# 6 0.000000 0.000000 0.000000 0.009941 0.000000 0.083807
#
#
# Mechanical properties :
#
#
# Convention : Reuss Voigt Hill
#
# Bulk Modulus (GPa) = 45.64140 56.98191 51.31166
# Shear Modulus (GPa) = 19.80150 24.06309 21.93230
#
# Velocity S-wave (km/s) = 3.21649 3.54576 3.38513
# Velocity P-wave (km/s) = 6.13523 6.82166 6.48753
#
# Compressibility (1/GPa) = 0.02190993
#
# Stress axis : x y z
#
# Youngs Moduli (GPa) = 53.88467 90.89335 43.69132
#
# Poissons Ratio (x) = 0.30481 0.25433
# Poissons Ratio (y) = 0.18070 0.26628
# Poissons Ratio (z) = 0.31366 0.55395
#
# Static dielectric constant tensor:
#      x y z
#    x 1.696230 0.000000 0.018990 
#    y 0.000000 1.709080 0.000000 
#    z 0.018990 0.000000 1.670900 
# 
# From -- ./inp_files/211246.got.cif
#   From: 2010.05.17/outbox.cif.g08.bks.cpg/sg15_106_cif.got.tgz:211246.got - 2010.06.03 18:47:42.
