data_PCOD9279782
_publ_section_title
;
Structure prediction by ZEFSAII (Michael W. Deem and Ramdas Pophale) SiO2 
 PCOD9279782
Probable space group: C 2/C
;
_chemical_formula_sum "Si O2"
_cell_formula_units_Z 36
_cell_length_a 11.506719
_cell_length_b 27.639591
_cell_length_c 12.216537
_cell_angle_alpha 90.000000
_cell_angle_beta 26.890285
_cell_angle_gamma 90.000000
_cell_volume 1757.284061
_symmetry_space_group_name_H-M "C 2/C"
_symmetry_group_IT_number 15
_symmetry_cell_setting 'monoclinic'
loop_
_space_group_symop_operation_xyz
x,y,z
-x,y,1/2-z
-x,-y,-z
x,-y,1/2+z
1/2+x,1/2+y,z
1/2-x,1/2+y,1/2-z
1/2-x,1/2-y,-z
1/2+x,1/2-y,1/2+z
loop_
_atom_site_type_symbol
_atom_site_label
_atom_site_fract_x
_atom_site_fract_y
_atom_site_fract_z
Si Si1 0.399733 0.221649 0.711343
Si Si2 0.187122 0.060225 0.365683
Si Si3 0.000000 0.093866 0.750000
Si Si4 0.057769 0.628259 0.975860
Si Si5 0.653981 0.040137 0.730733
O O1 0.500000 0.209973 0.750000
O O2 0.613720 0.257002 0.474817
O O3 0.405757 0.174965 0.628560
O O4 0.088680 0.061918 0.573101
O O5 0.963559 0.046733 0.468180
O O6 0.385259 0.015606 0.201274
O O7 0.287105 0.114380 0.258475
O O8 0.231453 0.125019 0.605846
O O9 0.080506 0.581708 0.877457
O O10 0.500000 0.048788 0.750000
#
# Coordination Sequence:
#
# PCOD9279782 Si02
#       5
#     8   8   4   8   8
#     4  10  24  46  71  97 130 165 210 274 338 389
#     4  10  22  38  59  87 133 169 210 257 318 378
#     4  10  22  38  60  88 128 172 206 260 318 376
#     4  11  22  39  65  90 124 166 215 262 320 387
#     4  10  21  36  58  94 125 167 211 262 313 385
#
# _framework density 20.486159000000001
#
# number of rings (size 3 to 8) (size 9 to 14) (size 15 to 20)
#    0.000    1.778    0.000    3.333    6.222    4.444 
#    4.000    1.111    0.000    0.000    0.000    0.000 
#    0.000    0.000    0.000    0.000    0.000    0.000 
#
# Total GULP energy -100316.575856 kJ/mol
# GULP energy per Si atom -5573.143103 kJ/mol
# Density = 2.043953 g / cm^3
# Si number density = 20.486159 Si / 1000 Ang^3
#
#
#
# Elastic Constant Matrix: (Units=GPa)
#
#
# Indices 1 2 3 4 5 6 
#
# 1 156.3346 55.3215 39.9628 0.0000 -0.9338 0.0000
# 2 55.3215 94.4497 35.1310 0.0000 12.0897 0.0000
# 3 39.9628 35.1310 76.4259 -0.0001 12.4841 -0.0001
# 4 0.0000 0.0000 -0.0001 25.3224 0.0000 15.4838
# 5 -0.9338 12.0897 12.4841 0.0000 19.9366 0.0000
# 6 0.0000 0.0000 -0.0001 15.4838 0.0000 33.6486
#
#
#
# Elastic Compliance Matrix: (Units=1/GPa)
#
#
# Indices 1 2 3 4 5 6 
#
# 1 0.008952 -0.004662 -0.003418 0.000000 0.005386 0.000000
# 2 -0.004662 0.015577 -0.003503 0.000000 -0.007471 0.000000
# 3 -0.003418 -0.003503 0.018003 0.000000 -0.009309 0.000000
# 4 0.000000 0.000000 0.000000 0.054953 0.000000 -0.025287
# 5 0.005386 -0.007471 -0.009309 0.000000 0.060771 0.000000
# 6 0.000000 0.000000 0.000000 -0.025287 0.000000 0.041355
#
#
# Mechanical properties :
#
#
# Convention : Reuss Voigt Hill
#
# Bulk Modulus (GPa) = 51.63296 65.33787 58.48542
# Shear Modulus (GPa) = 21.81210 28.90118 25.35664
#
# Velocity S-wave (km/s) = 3.26655 3.76009 3.52198
# Velocity P-wave (km/s) = 6.28376 7.12839 6.71936
#
# Compressibility (1/GPa) = 0.01936747
#
# Stress axis : x y z
#
# Youngs Moduli (GPa) = 111.70694 64.19682 55.54777
#
# Poissons Ratio (x) = 0.29925 0.18987
# Poissons Ratio (y) = 0.52072 0.19456
# Poissons Ratio (z) = 0.38182 0.22485
#
# Static dielectric constant tensor:
#      x y z
#    x 1.686840 0.000000 -0.054030 
#    y 0.000000 1.718060 0.000000 
#    z -0.054030 0.000000 1.964120 
# 
# From -- ./inp_files/4680.got.cif
#   From: 2010.05.17/outbox.cif.g08.bks.cpg/sg15_3_cif.got.tgz:4680.got - 2010.06.03 18:47:42.
