data_PCOD9279665
_publ_section_title
;
Structure prediction by ZEFSAII (Michael W. Deem and Ramdas Pophale) SiO2 
 PCOD9279665
Probable space group: C 2/C
;
_chemical_formula_sum "Si O2"
_cell_formula_units_Z 48
_cell_length_a 14.855413
_cell_length_b 29.043284
_cell_length_c 15.665525
_cell_angle_alpha 90.000000
_cell_angle_beta 161.757483
_cell_angle_gamma 90.000000
_cell_volume 2115.801507
_symmetry_space_group_name_H-M "C 2/C"
_symmetry_group_IT_number 15
_symmetry_cell_setting 'monoclinic'
loop_
_space_group_symop_operation_xyz
x,y,z
-x,y,1/2-z
-x,-y,-z
x,-y,1/2+z
1/2+x,1/2+y,z
1/2-x,1/2+y,1/2-z
1/2-x,1/2-y,-z
1/2+x,1/2-y,1/2+z
loop_
_atom_site_type_symbol
_atom_site_label
_atom_site_fract_x
_atom_site_fract_y
_atom_site_fract_z
Si Si1 0.939778 0.036640 0.297066
Si Si2 0.191874 0.722900 0.183890
Si Si3 0.350832 0.378767 0.822074
Si Si4 0.451976 0.018039 0.308789
Si Si5 0.240204 0.104359 0.826072
Si Si6 0.805270 0.694604 0.994268
O O1 0.993953 0.086822 0.384063
O O2 0.000000 0.035643 0.250000
O O3 0.120110 0.997764 0.510188
O O4 0.607493 0.022889 0.000617
O O5 0.418006 0.764398 0.380642
O O6 0.370632 0.676072 0.332638
O O7 0.026248 0.718672 0.126582
O O8 0.008106 0.384674 0.506074
O O9 0.460470 0.396331 0.013895
O O10 0.500000 0.018379 0.250000
O O11 0.631921 0.061779 0.505073
O O12 0.207225 0.148177 0.857750
O O13 0.500000 0.717080 0.750000
O O14 0.000000 0.681910 0.250000
#
# Coordination Sequence:
#
# PCOD9279665 Si02
#       6
#     8   8   8   8   8   8
#     4  10  22  39  59  84 114 149 189 235 290 345
#     4  11  23  40  59  82 112 148 192 242 297 348
#     4  11  23  39  59  83 112 149 190 238 294 344
#     4  10  21  36  56  85 120 157 193 229 271 324
#     4  11  22  36  56  84 119 156 194 230 271 327
#     4  11  22  36  55  82 117 156 195 234 278 328
#
# _framework density 22.686437999999999
#
# number of rings (size 3 to 8) (size 9 to 14) (size 15 to 20)
#    0.000    1.333    0.000    7.500    0.000    8.000 
#    0.000    0.000    0.000    1.000    0.000    0.000 
#    0.000    0.000    0.000    0.000    0.000    0.000 
#
# Total GULP energy -133751.722506 kJ/mol
# GULP energy per Si atom -5572.988438 kJ/mol
# Density = 2.263480 g / cm^3
# Si number density = 22.686438 Si / 1000 Ang^3
#
#
#
# Elastic Constant Matrix: (Units=GPa)
#
#
# Indices 1 2 3 4 5 6 
#
# 1 25.5105 19.7478 12.8987 0.0153 -5.6270 0.0072
# 2 19.7478 128.6560 35.6349 0.0026 -8.4108 0.0004
# 3 12.8987 35.6349 145.6908 0.0606 -2.5752 0.0172
# 4 0.0153 0.0026 0.0606 26.2414 0.0089 -0.4053
# 5 -5.6270 -8.4108 -2.5752 0.0089 17.0335 0.0011
# 6 0.0072 0.0004 0.0172 -0.4053 0.0011 31.4581
#
#
#
# Elastic Compliance Matrix: (Units=1/GPa)
#
#
# Indices 1 2 3 4 5 6 
#
# 1 0.047757 -0.005794 -0.002590 -0.000026 0.012524 -0.000010
# 2 -0.005794 0.009296 -0.001718 0.000006 0.002416 0.000002
# 3 -0.002590 -0.001718 0.007503 -0.000015 -0.000569 -0.000004
# 4 -0.000026 0.000006 -0.000015 0.038115 -0.000028 0.000491
# 5 0.012524 0.002416 -0.000569 -0.000028 0.063952 -0.000005
# 6 -0.000010 0.000002 -0.000004 0.000491 -0.000005 0.031795
#
#
# Mechanical properties :
#
#
# Convention : Reuss Voigt Hill
#
# Bulk Modulus (GPa) = 22.54682 48.49112 35.51897
# Shear Modulus (GPa) = 21.42192 30.38498 25.90345
#
# Velocity S-wave (km/s) = 3.07622 3.66368 3.38272
# Velocity P-wave (km/s) = 4.75158 6.27038 5.56305
#
# Compressibility (1/GPa) = 0.04435216
#
# Stress axis : x y z
#
# Youngs Moduli (GPa) = 20.93946 107.57477 133.27530
#
# Poissons Ratio (x) = 0.62332 0.34512
# Poissons Ratio (y) = 0.12133 0.22897
# Poissons Ratio (z) = 0.05422 0.18481
#
# Static dielectric constant tensor:
#      x y z
#    x 1.858490 0.000000 0.023330 
#    y 0.000000 1.958760 0.000000 
#    z 0.023330 0.000000 1.807600 
# 
# From -- ./inp_files/157705.got.cif
#   From: 2010.05.17/outbox.cif.g08.bks.cpg/sg15_79_cif.got.tgz:157705.got - 2010.06.03 18:47:42.
