data_PCOD9279084
_publ_section_title
;
Structure prediction by ZEFSAII (Michael W. Deem and Ramdas Pophale) SiO2 
 PCOD9279084
Probable space group: C 2/C
;
_chemical_formula_sum "Si O2"
_cell_formula_units_Z 48
_cell_length_a 10.708958
_cell_length_b 8.853035
_cell_length_c 23.755064
_cell_angle_alpha 90.000000
_cell_angle_beta 62.393806
_cell_angle_gamma 90.000000
_cell_volume 1995.742717
_symmetry_space_group_name_H-M "C 2/C"
_symmetry_group_IT_number 15
_symmetry_cell_setting 'monoclinic'
loop_
_space_group_symop_operation_xyz
x,y,z
-x,y,1/2-z
-x,-y,-z
x,-y,1/2+z
1/2+x,1/2+y,z
1/2-x,1/2+y,1/2-z
1/2-x,1/2-y,-z
1/2+x,1/2-y,1/2+z
loop_
_atom_site_type_symbol
_atom_site_label
_atom_site_fract_x
_atom_site_fract_y
_atom_site_fract_z
Si Si1 0.157474 0.144577 0.797240
Si Si2 0.873700 0.309015 0.889170
Si Si3 0.042889 0.631744 0.449349
Si Si4 0.269714 0.086590 0.656387
Si Si5 0.511232 0.641390 0.187646
Si Si6 0.717546 0.153031 0.604162
O O1 0.255750 0.158212 0.721436
O O2 0.232925 0.165952 0.840850
O O3 0.016873 0.251937 0.825060
O O4 0.111527 0.968618 0.805988
O O5 0.749889 0.210999 0.887550
O O6 0.818397 0.480609 0.899693
O O7 0.918776 0.277447 0.944222
O O8 0.108814 0.530536 0.384307
O O9 0.156830 0.749687 0.450469
O O10 0.000000 0.500000 0.500000
O O11 0.132393 0.980935 0.677435
O O12 0.500000 0.723694 0.250000
O O13 0.573549 0.752187 0.128471
#
# Coordination Sequence:
#
# PCOD9279084 Si02
#       6
#     8   8   8   8   8   8
#     4   9  19  35  53  81 119 145 174 225 288 346
#     4  10  21  36  57  84 110 143 188 237 285 335
#     4  10  23  42  58  78 113 155 198 236 272 325
#     4   9  19  36  56  80 113 150 181 227 287 335
#     4   8  16  31  49  73 109 145 174 213 270 332
#     4  10  21  34  56  86 110 144 187 228 279 336
#
# _framework density 24.051196000000001
#
# number of rings (size 3 to 8) (size 9 to 14) (size 15 to 20)
#    0.000    2.667    0.000    1.500    0.000   12.000 
#    0.000    0.833    0.000    0.000    0.000    0.000 
#    0.000    0.000    0.000    0.000    0.000    0.000 
#
# Total GULP energy -133792.494500 kJ/mol
# GULP energy per Si atom -5574.687271 kJ/mol
# Density = 2.399645 g / cm^3
# Si number density = 24.051196 Si / 1000 Ang^3
#
#
#
# Elastic Constant Matrix: (Units=GPa)
#
#
# Indices 1 2 3 4 5 6 
#
# 1 56.9618 23.2767 -2.2336 0.0000 -1.9827 0.0000
# 2 23.2767 106.1132 -16.3505 0.0000 -12.0093 0.0000
# 3 -2.2336 -16.3505 17.5039 0.0000 1.8244 0.0000
# 4 0.0000 0.0000 0.0000 23.2974 0.0000 -5.9848
# 5 -1.9827 -12.0093 1.8244 0.0000 18.7514 0.0000
# 6 0.0000 0.0000 0.0000 -5.9848 0.0000 45.7866
#
#
#
# Elastic Compliance Matrix: (Units=1/GPa)
#
#
# Indices 1 2 3 4 5 6 
#
# 1 0.019339 -0.004594 -0.001747 0.000000 -0.000727 0.000000
# 2 -0.004594 0.012839 0.010709 0.000000 0.006695 0.000000
# 3 -0.001747 0.010709 0.066894 0.000000 0.000166 0.000000
# 4 0.000000 0.000000 0.000000 0.044415 0.000000 0.005805
# 5 -0.000727 0.006695 0.000166 0.000000 0.057524 0.000000
# 6 0.000000 0.000000 0.000000 0.005805 0.000000 0.022599
#
#
# Mechanical properties :
#
#
# Convention : Reuss Voigt Hill
#
# Bulk Modulus (GPa) = 9.27571 21.10711 15.19141
# Shear Modulus (GPa) = 19.93542 29.29282 24.61412
#
# Velocity S-wave (km/s) = 2.88214 3.49368 3.20254
# Velocity P-wave (km/s) = 3.86532 5.00693 4.47270
#
# Compressibility (1/GPa) = 0.10780848
#
# Stress axis : x y z
#
# Youngs Moduli (GPa) = 51.70909 77.88490 14.94914
#
# Poissons Ratio (x) = 0.35778 0.02612
# Poissons Ratio (y) = 0.23754 -0.16010
# Poissons Ratio (z) = 0.09036 -0.83410
#
# Static dielectric constant tensor:
#      x y z
#    x 1.987690 0.000000 -0.067160 
#    y 0.000000 1.923590 0.000000 
#    z -0.067160 0.000000 2.018030 
# 
# From -- ./inp_files/267658.got.cif
#   From: 2010.05.17/outbox.cif.g08.bks.cpg/sg15_134_cif.got.tgz:267658.got - 2010.06.03 18:47:42.
