data_PCOD9279421
_publ_section_title
;
Structure prediction by ZEFSAII (Michael W. Deem and Ramdas Pophale) SiO2 
 PCOD9279421
Probable space group: C 2/C
;
_chemical_formula_sum "Si O2"
_cell_formula_units_Z 64
_cell_length_a 22.081399
_cell_length_b 20.660495
_cell_length_c 16.720224
_cell_angle_alpha 90.000000
_cell_angle_beta 158.181204
_cell_angle_gamma 90.000000
_cell_volume 2835.108733
_symmetry_space_group_name_H-M "C 2/C"
_symmetry_group_IT_number 15
_symmetry_cell_setting 'monoclinic'
loop_
_space_group_symop_operation_xyz
x,y,z
-x,y,1/2-z
-x,-y,-z
x,-y,1/2+z
1/2+x,1/2+y,z
1/2-x,1/2+y,1/2-z
1/2-x,1/2-y,-z
1/2+x,1/2-y,1/2+z
loop_
_atom_site_type_symbol
_atom_site_label
_atom_site_fract_x
_atom_site_fract_y
_atom_site_fract_z
Si Si1 0.444546 0.605984 0.974742
Si Si2 0.298849 0.863877 0.924323
Si Si3 0.476851 0.218672 0.379246
Si Si4 0.150859 0.393424 0.330129
Si Si5 0.627045 0.509165 0.476379
Si Si6 0.681981 0.367631 0.491396
Si Si7 0.753766 0.342613 0.404182
Si Si8 0.769874 0.214199 0.863426
O O1 0.317477 0.606808 0.746797
O O2 0.396828 0.670516 0.968193
O O3 0.630294 0.615911 0.177869
O O4 0.426457 0.542965 0.007608
O O5 0.319837 0.786184 0.948062
O O6 0.459446 0.891008 0.081702
O O7 0.303506 0.891262 0.020626
O O8 0.386296 0.287278 0.258441
O O9 0.586208 0.191458 0.438801
O O10 0.606706 0.219599 0.609732
O O11 0.318650 0.174420 0.202739
O O12 0.213669 0.454463 0.358611
O O13 0.231617 0.329273 0.392741
O O14 0.500000 0.525291 0.250000
O O15 0.650249 0.432894 0.500927
O O16 0.500000 0.340590 0.250000
O O17 0.762800 0.375367 0.502061
#
# Coordination Sequence:
#
# PCOD9279421 Si02
#       8
#     8   8   8   8   8   8   8   8
#     4  10  21  38  65  93 134 176 213 270 330 393
#     4  11  19  34  57  98 130 167 216 266 333 392
#     4  11  23  41  68  99 136 165 216 279 336 396
#     4  10  22  34  58  92 131 173 217 267 323 392
#     4  10  21  45  65  86 131 180 224 269 324 392
#     4  11  25  45  70  93 126 182 226 272 336 389
#     4  11  23  43  69 103 133 169 221 277 340 394
#     4  10  21  35  59  94 133 170 207 265 336 396
#
# _framework density 22.574090999999999
#
# number of rings (size 3 to 8) (size 9 to 14) (size 15 to 20)
#    0.000    1.500    2.500    2.625    1.750    2.000 
#    4.500    8.125    0.000    0.000    0.000    0.000 
#    0.000    0.000    0.000    0.000    0.000    0.000 
#
# Total GULP energy -178879.792604 kJ/mol
# GULP energy per Si atom -5589.993519 kJ/mol
# Density = 2.252271 g / cm^3
# Si number density = 22.574091 Si / 1000 Ang^3
#
#
#
# Elastic Constant Matrix: (Units=GPa)
#
#
# Indices 1 2 3 4 5 6 
#
# 1 45.1345 4.6515 10.6775 0.0000 7.7584 0.0000
# 2 4.6515 41.0582 26.2365 0.0000 -5.6068 0.0000
# 3 10.6775 26.2365 96.5106 -0.0001 27.9453 0.0000
# 4 0.0000 0.0000 -0.0001 67.7607 0.0000 14.1699
# 5 7.7584 -5.6068 27.9453 0.0000 31.3846 0.0000
# 6 0.0000 0.0000 0.0000 14.1699 0.0000 15.6925
#
#
#
# Elastic Compliance Matrix: (Units=1/GPa)
#
#
# Indices 1 2 3 4 5 6 
#
# 1 0.023647 -0.003930 0.000469 0.000000 -0.006965 0.000000
# 2 -0.003930 0.038473 -0.016567 0.000000 0.022596 0.000000
# 3 0.000469 -0.016567 0.021159 0.000000 -0.021916 0.000000
# 4 0.000000 0.000000 0.000000 0.018193 0.000000 -0.016428
# 5 -0.006965 0.022596 -0.021916 0.000000 0.057136 0.000000
# 6 0.000000 0.000000 0.000000 -0.016428 0.000000 0.078559
#
#
# Mechanical properties :
#
#
# Convention : Reuss Voigt Hill
#
# Bulk Modulus (GPa) = 23.13529 29.53716 26.33622
# Shear Modulus (GPa) = 17.14495 32.37674 24.76085
#
# Velocity S-wave (km/s) = 2.75889 3.79125 3.31550
# Velocity P-wave (km/s) = 4.51879 5.68135 5.13309
#
# Compressibility (1/GPa) = 0.04322400
#
# Stress axis : x y z
#
# Youngs Moduli (GPa) = 42.28797 25.99229 47.26031
#
# Poissons Ratio (x) = 0.10215 -0.02216
# Poissons Ratio (y) = 0.16619 0.78296
# Poissons Ratio (z) = -0.01983 0.43061
#
# Static dielectric constant tensor:
#      x y z
#    x 1.878860 0.000000 0.004720 
#    y 0.000000 1.837030 0.000000 
#    z 0.004720 0.000000 1.829630 
# 
# From -- ./inp_files/220295.got.cif
#   From: 2010.05.17/outbox.cif.g08.bks.cpg/sg15_111_cif.got.tgz:220295.got - 2010.06.03 18:47:42.
