data_PCOD9279787
_publ_section_title
;
Structure prediction by ZEFSAII (Michael W. Deem and Ramdas Pophale) SiO2 
 PCOD9279787
Probable space group: C 2/C
;
_chemical_formula_sum "Si O2"
_cell_formula_units_Z 48
_cell_length_a 19.959543
_cell_length_b 14.388996
_cell_length_c 15.139218
_cell_angle_alpha 90.000000
_cell_angle_beta 33.600179
_cell_angle_gamma 90.000000
_cell_volume 2406.130027
_symmetry_space_group_name_H-M "C 2/C"
_symmetry_group_IT_number 15
_symmetry_cell_setting 'monoclinic'
loop_
_space_group_symop_operation_xyz
x,y,z
-x,y,1/2-z
-x,-y,-z
x,-y,1/2+z
1/2+x,1/2+y,z
1/2-x,1/2+y,1/2-z
1/2-x,1/2-y,-z
1/2+x,1/2-y,1/2+z
loop_
_atom_site_type_symbol
_atom_site_label
_atom_site_fract_x
_atom_site_fract_y
_atom_site_fract_z
Si Si1 0.644319 0.398859 0.507771
Si Si2 0.000000 0.260593 0.750000
Si Si3 0.500000 0.659290 1.000000
Si Si4 0.855681 0.898859 0.492228
Si Si5 0.092410 0.662236 0.828013
Si Si6 0.500000 0.239407 0.750000
Si Si7 0.092410 0.662236 0.328013
O O1 0.553070 0.394113 0.524680
O O2 0.634179 0.500000 0.562735
O O3 0.779847 0.385503 0.323717
O O4 0.608435 0.311146 0.607526
O O5 0.969729 0.322670 0.698697
O O6 0.108435 0.188854 0.607526
O O7 0.603193 0.731821 0.853524
O O8 0.446930 0.605887 0.975319
O O9 0.396807 0.731821 0.146476
O O10 0.720153 0.885503 0.676283
O O11 0.030271 0.677330 0.801303
O O12 1.000000 0.617644 0.000000
#
# Coordination Sequence:
#
# PCOD9279787 Si02
#       7
#     8   4   8   8   8   4   8
#     4  11  20  35  56  85 113 136 179 232 273 310
#     4  10  21  36  59  78 108 148 184 214 267 328
#     4   8  19  34  57  78 102 146 184 206 267 322
#     4  11  20  35  56  85 113 136 179 232 273 310
#     4   9  20  37  61  77 106 147 187 215 263 329
#     4  10  21  36  59  78 108 148 184 214 267 328
#     4   9  20  37  61  77 106 147 187 215 263 329
#
# _framework density 19.949047
#
# number of rings (size 3 to 8) (size 9 to 14) (size 15 to 20)
#    1.000    1.333    0.000    3.000    0.000    0.667 
#    0.000    0.833    0.000    0.000    0.000    0.000 
#    0.000    0.000    0.000    0.000    0.000    0.000 
#
# Total GULP energy -133673.295597 kJ/mol
# GULP energy per Si atom -5569.720650 kJ/mol
# Density = 1.990364 g / cm^3
# Si number density = 19.949047 Si / 1000 Ang^3
#
#
#
# Elastic Constant Matrix: (Units=GPa)
#
#
# Indices 1 2 3 4 5 6 
#
# 1 75.3776 17.0151 19.0381 0.0000 20.1851 0.0000
# 2 17.0151 54.2000 19.2869 0.0000 -8.3787 0.0000
# 3 19.0381 19.2869 133.1277 0.0000 1.6068 0.0000
# 4 0.0000 0.0000 0.0000 15.1466 0.0000 -8.4070
# 5 20.1851 -8.3787 1.6068 0.0000 24.9856 0.0000
# 6 0.0000 0.0000 0.0000 -8.4070 0.0000 3.0546
#
#
#
# Elastic Compliance Matrix: (Units=1/GPa)
#
#
# Indices 1 2 3 4 5 6 
#
# 1 0.021062 -0.009193 -0.001439 0.000000 -0.020006 0.000000
# 2 -0.009193 0.024658 -0.002449 0.000000 0.015853 0.000000
# 3 -0.001439 -0.002449 0.008074 0.000000 -0.000178 0.000000
# 4 0.000000 0.000000 0.000000 -0.125134 0.000000 -0.344396
# 5 -0.020006 0.015853 -0.000178 0.000000 0.061513 0.000000
# 6 0.000000 0.000000 0.000000 -0.344396 0.000000 -0.620482
#
#
# Mechanical properties :
#
#
# Convention : Reuss Voigt Hill
#
# Bulk Modulus (GPa) = 36.18785 41.48727 38.83756
# Shear Modulus (GPa) = -8.40427 22.46171 7.02872
#
# Velocity S-wave (km/s) = -2.05475 3.35916 1.87909
# Velocity P-wave (km/s) = 3.54262 5.99058 4.92124
#
# Compressibility (1/GPa) = 0.02763359
#
# Stress axis : x y z
#
# Youngs Moduli (GPa) = 47.47809 40.55428 123.84970
#
# Poissons Ratio (x) = 0.37281 0.17819
# Poissons Ratio (y) = 0.43646 0.30332
# Poissons Ratio (z) = 0.06831 0.09932
#
# Static dielectric constant tensor:
#      x y z
#    x 1.686190 0.000000 0.032960 
#    y 0.000000 1.714330 0.000000 
#    z 0.032960 0.000000 1.718960 
# 
# From -- ./inp_files/215427.got.cif
#   From: 2010.05.17/outbox.cif.g08.bks.cpg/sg15_108_cif.got.tgz:215427.got - 2010.06.03 18:47:42.
