data_PCOD9279000
_publ_section_title
;
Structure prediction by ZEFSAII (Michael W. Deem and Ramdas Pophale) SiO2 
 PCOD9279000
Probable space group: C 2/C
;
_chemical_formula_sum "Si O2"
_cell_formula_units_Z 44
_cell_length_a 14.861972
_cell_length_b 27.321076
_cell_length_c 12.289758
_cell_angle_alpha 90.000000
_cell_angle_beta 28.530509
_cell_angle_gamma 90.000000
_cell_volume 2383.450396
_symmetry_space_group_name_H-M "C 2/C"
_symmetry_group_IT_number 15
_symmetry_cell_setting 'monoclinic'
loop_
_space_group_symop_operation_xyz
x,y,z
-x,y,1/2-z
-x,-y,-z
x,-y,1/2+z
1/2+x,1/2+y,z
1/2-x,1/2+y,1/2-z
1/2-x,1/2-y,-z
1/2+x,1/2-y,1/2+z
loop_
_atom_site_type_symbol
_atom_site_label
_atom_site_fract_x
_atom_site_fract_y
_atom_site_fract_z
Si Si1 0.611164 0.695109 0.738944
Si Si2 0.980996 0.137997 0.455609
Si Si3 0.283256 0.991225 0.952906
Si Si4 0.500000 0.791341 0.750000
Si Si5 0.472991 0.456410 0.446995
Si Si6 0.778728 0.608963 0.960859
O O1 0.500000 0.674582 0.750000
O O2 0.590219 0.753775 0.742605
O O3 0.828680 0.680833 0.488066
O O4 0.541758 0.681363 0.932559
O O5 0.798452 0.129177 0.572574
O O6 0.013587 0.093071 0.502374
O O7 0.154491 0.135382 0.186292
O O8 0.500000 0.985157 0.750000
O O9 0.239979 0.049869 0.002178
O O10 0.224635 0.967334 0.901304
O O11 0.145341 0.963102 0.181091
O O12 0.500000 0.500000 0.500000
O O13 0.000000 0.615528 0.750000
#
# Coordination Sequence:
#
# PCOD9279000 Si02
#       6
#     8   8   8   4   8   8
#     4   9  19  36  62  86 112 138 172 216 279 345
#     4  11  21  35  56  82 109 145 189 231 270 321
#     4  10  21  34  49  68 104 150 189 225 280 324
#     4   8  18  40  60  88 112 142 164 210 296 348
#     4  11  19  34  51  72 108 145 184 234 272 313
#     4  10  21  37  52  74 109 155 192 223 266 318
#
# _framework density 18.460630999999999
#
# number of rings (size 3 to 8) (size 9 to 14) (size 15 to 20)
#    0.545    1.455    3.636    1.091    2.545    3.636 
#    1.636    0.000    0.000    4.364    0.000    0.000 
#    0.000    0.000    0.000    0.000    0.000    0.000 
#
# Total GULP energy -122467.799571 kJ/mol
# GULP energy per Si atom -5566.718162 kJ/mol
# Density = 1.841861 g / cm^3
# Si number density = 18.460631 Si / 1000 Ang^3
#
#
#
# Elastic Constant Matrix: (Units=GPa)
#
#
# Indices 1 2 3 4 5 6 
#
# 1 135.4292 17.5857 60.1023 0.0002 -2.5312 -0.0005
# 2 17.5857 23.6653 13.8223 0.0002 8.8953 -0.0003
# 3 60.1023 13.8223 85.6089 -0.0012 -13.3673 -0.0019
# 4 0.0002 0.0002 -0.0012 21.0135 0.0003 10.9374
# 5 -2.5312 8.8953 -13.3673 0.0003 36.9202 0.0005
# 6 -0.0005 -0.0003 -0.0019 10.9374 0.0005 15.2121
#
#
#
# Elastic Compliance Matrix: (Units=1/GPa)
#
#
# Indices 1 2 3 4 5 6 
#
# 1 0.011103 -0.003535 -0.007390 0.000000 -0.001063 0.000000
# 2 -0.003535 0.056910 -0.009418 -0.000001 -0.017364 0.000001
# 3 -0.007390 -0.009418 0.019784 0.000000 0.008925 0.000001
# 4 0.000000 -0.000001 0.000000 0.076047 0.000001 -0.054677
# 5 -0.001063 -0.017364 0.008925 0.000001 0.034428 -0.000001
# 6 0.000000 0.000001 0.000001 -0.054677 -0.000001 0.105049
#
#
# Mechanical properties :
#
#
# Convention : Reuss Voigt Hill
#
# Bulk Modulus (GPa) = 21.22670 47.52488 34.37579
# Shear Modulus (GPa) = 13.90007 24.84205 19.37106
#
# Velocity S-wave (km/s) = 2.74698 3.67233 3.24283
# Velocity P-wave (km/s) = 4.64592 6.61673 5.71689
#
# Compressibility (1/GPa) = 0.04711048
#
# Stress axis : x y z
#
# Youngs Moduli (GPa) = 90.06871 17.57152 50.54715
#
# Poissons Ratio (x) = 0.06211 0.37354
# Poissons Ratio (y) = 0.31836 0.47607
# Poissons Ratio (z) = 0.66560 0.16550
#
# Static dielectric constant tensor:
#      x y z
#    x 1.664470 0.000000 0.036010 
#    y 0.000000 1.607190 0.000000 
#    z 0.036010 0.000000 1.731200 
# 
# From -- ./inp_files/101531.got.cif
#   From: 2010.05.17/outbox.cif.g08.bks.cpg/sg15_51_cif.got.tgz:101531.got - 2010.06.03 18:47:42.
