data_PCOD9279130
_publ_section_title
;
Structure prediction by ZEFSAII (Michael W. Deem and Ramdas Pophale) SiO2 
 PCOD9279130
Probable space group: C 2/C
;
_chemical_formula_sum "Si O2"
_cell_formula_units_Z 60
_cell_length_a 6.377974
_cell_length_b 28.498097
_cell_length_c 18.800068
_cell_angle_alpha 90.000000
_cell_angle_beta 104.922205
_cell_angle_gamma 90.000000
_cell_volume 3301.865491
_symmetry_space_group_name_H-M "C 2/C"
_symmetry_group_IT_number 15
_symmetry_cell_setting 'monoclinic'
loop_
_space_group_symop_operation_xyz
x,y,z
-x,y,1/2-z
-x,-y,-z
x,-y,1/2+z
1/2+x,1/2+y,z
1/2-x,1/2+y,1/2-z
1/2-x,1/2-y,-z
1/2+x,1/2-y,1/2+z
loop_
_atom_site_type_symbol
_atom_site_label
_atom_site_fract_x
_atom_site_fract_y
_atom_site_fract_z
Si Si1 0.061663 0.353903 0.050032
Si Si2 0.290959 0.246151 0.920032
Si Si3 0.824860 0.478916 0.675644
Si Si4 0.145923 0.824822 0.920444
Si Si5 0.231903 0.107846 0.071590
Si Si6 0.037791 0.683433 0.170407
Si Si7 0.000000 0.971013 0.250000
Si Si8 0.560153 0.924429 0.175387
O O1 0.178396 0.308378 0.093037
O O2 0.001784 0.388698 0.108328
O O3 0.212038 0.382085 0.006220
O O4 0.857689 0.331774 0.988714
O O5 0.499657 0.278942 0.922468
O O6 0.083274 0.269438 0.865296
O O7 0.250000 0.250000 0.000000
O O8 0.765390 0.443279 0.607892
O O9 0.616946 0.496155 0.702158
O O10 0.000000 0.460035 0.750000
O O11 0.933701 0.526371 0.655478
O O12 0.228787 0.820612 0.846454
O O13 0.996674 0.869615 0.925386
O O14 0.406529 0.140283 0.126211
O O15 0.000000 0.680731 0.250000
O O16 0.813486 0.938642 0.199458
O O17 0.500000 0.907434 0.250000
#
# Coordination Sequence:
#
# PCOD9279130 Si02
#       8
#     8   8   8   8   8   8   4   8
#     4  11  22  38  58  83 114 149 194 238 283 343
#     4  11  20  40  58  82 112 155 194 232 291 347
#     4   9  19  37  59  83 115 150 188 230 289 340
#     4  10  21  37  61  80 116 154 187 233 294 341
#     4  10  21  34  58  88 112 148 189 234 289 347
#     4  10  22  38  55  86 120 147 192 246 283 341
#     4   8  18  38  60  76 114 152 182 232 280 338
#     4   9  21  41  57  82 115 149 191 239 282 336
#
# _framework density 18.171547
#
# number of rings (size 3 to 8) (size 9 to 14) (size 15 to 20)
#    0.000    2.400    4.000    0.800    0.000   10.133 
#    3.600    1.333    0.000    0.000    0.000    0.000 
#    0.000    0.000    0.000    0.000    0.000    0.000 
#
# Total GULP energy -167137.812600 kJ/mol
# GULP energy per Si atom -5571.260420 kJ/mol
# Density = 1.813019 g / cm^3
# Si number density = 18.171547 Si / 1000 Ang^3
#
#
#
# Elastic Constant Matrix: (Units=GPa)
#
#
# Indices 1 2 3 4 5 6 
#
# 1 94.3510 15.2351 22.5471 0.0000 -21.0245 0.0000
# 2 15.2351 87.8935 33.9153 0.0000 -9.5205 0.0000
# 3 22.5471 33.9153 80.6387 0.0000 -27.2666 0.0000
# 4 0.0000 0.0000 0.0000 32.1908 0.0000 4.0890
# 5 -21.0245 -9.5205 -27.2666 0.0000 16.1548 0.0000
# 6 0.0000 0.0000 0.0000 4.0890 0.0000 8.6825
#
#
#
# Elastic Compliance Matrix: (Units=1/GPa)
#
#
# Indices 1 2 3 4 5 6 
#
# 1 0.016417 -0.002137 0.007238 0.000000 0.032322 0.000000
# 2 -0.002137 0.013961 -0.007996 0.000000 -0.008051 0.000000
# 3 0.007238 -0.007996 0.035715 0.000000 0.064988 0.000000
# 4 0.000000 0.000000 0.000000 0.033041 0.000000 -0.015561
# 5 0.032322 -0.008051 0.064988 0.000000 0.208912 0.000000
# 6 0.000000 0.000000 0.000000 -0.015561 0.000000 0.122502
#
#
# Mechanical properties :
#
#
# Convention : Reuss Voigt Hill
#
# Bulk Modulus (GPa) = 16.58340 45.14202 30.86271
# Shear Modulus (GPa) = 10.95431 24.15134 17.55283
#
# Velocity S-wave (km/s) = 2.45792 3.64960 3.11135
# Velocity P-wave (km/s) = 4.14741 6.53112 5.47067
#
# Compressibility (1/GPa) = 0.06030128
#
# Stress axis : x y z
#
# Youngs Moduli (GPa) = 60.91385 71.62576 27.99935
#
# Poissons Ratio (x) = 0.15309 -0.20266
# Poissons Ratio (y) = 0.13020 0.22390
# Poissons Ratio (z) = -0.44089 0.57275
#
# Static dielectric constant tensor:
#      x y z
#    x 1.657640 0.000000 0.041700 
#    y 0.000000 1.636320 0.000000 
#    z 0.041700 0.000000 1.584530 
# 
# From -- ./inp_files/186524.got.cif
#   From: 2010.05.17/outbox.cif.g08.bks.cpg/sg15_94_cif.got.tgz:186524.got - 2010.06.03 18:47:42.
