data_PCOD9279412
_publ_section_title
;
Structure prediction by ZEFSAII (Michael W. Deem and Ramdas Pophale) SiO2 
 PCOD9279412
Probable space group: C 2/C
;
_chemical_formula_sum "Si O2"
_cell_formula_units_Z 40
_cell_length_a 17.010424
_cell_length_b 10.232325
_cell_length_c 11.791044
_cell_angle_alpha 90.000000
_cell_angle_beta 68.847252
_cell_angle_gamma 90.000000
_cell_volume 1914.023426
_symmetry_space_group_name_H-M "C 2/C"
_symmetry_group_IT_number 15
_symmetry_cell_setting 'monoclinic'
loop_
_space_group_symop_operation_xyz
x,y,z
-x,y,1/2-z
-x,-y,-z
x,-y,1/2+z
1/2+x,1/2+y,z
1/2-x,1/2+y,1/2-z
1/2-x,1/2-y,-z
1/2+x,1/2-y,1/2+z
loop_
_atom_site_type_symbol
_atom_site_label
_atom_site_fract_x
_atom_site_fract_y
_atom_site_fract_z
Si Si1 0.802306 0.102972 0.922148
Si Si2 0.530287 0.124007 0.622471
Si Si3 0.276235 0.838423 0.805335
Si Si4 0.320381 0.304632 0.875528
Si Si5 0.630228 0.950814 0.390928
O O1 0.835488 0.228270 0.834744
O O2 0.836269 0.959806 0.878221
O O3 0.707490 0.102992 0.921439
O O4 0.788906 0.117079 0.063127
O O5 0.500000 0.044945 0.750000
O O6 0.592288 0.233661 0.639408
O O7 0.583448 0.047695 0.502020
O O8 0.440712 0.152241 0.609608
O O9 0.224429 0.785449 0.723336
O O10 0.329792 0.961848 0.731131
O O11 0.250000 0.250000 0.000000
#
# Coordination Sequence:
#
# PCOD9279412 Si02
#       5
#     8   8   8   8   8
#     4  10  21  37  63  94 128 165 218 267 311 376
#     4  11  21  35  57  90 126 166 207 258 324 373
#     4  10  21  37  63  94 128 165 219 265 312 375
#     4  11  22  37  63  94 129 168 215 264 321 382
#     4  10  21  35  59  89 129 165 214 267 309 384
#
# _framework density 20.898385000000001
#
# number of rings (size 3 to 8) (size 9 to 14) (size 15 to 20)
#    0.000    1.600    4.000    2.400    5.600    0.000 
#    0.000    0.000    0.000   25.200    0.000    0.000 
#    0.000    0.000    0.000    0.000    0.000    0.000 
#
# Total GULP energy -111420.813288 kJ/mol
# GULP energy per Si atom -5571.040664 kJ/mol
# Density = 2.085082 g / cm^3
# Si number density = 20.898385 Si / 1000 Ang^3
#
#
#
# Elastic Constant Matrix: (Units=GPa)
#
#
# Indices 1 2 3 4 5 6 
#
# 1 114.9387 21.2096 22.6407 0.0000 8.3840 0.0000
# 2 21.2096 81.5200 31.4681 0.0000 3.4173 0.0000
# 3 22.6407 31.4681 127.5891 0.0000 23.9793 0.0000
# 4 0.0000 0.0000 0.0000 -49.3934 0.0000 30.8127
# 5 8.3840 3.4173 23.9793 0.0000 28.1659 0.0000
# 6 0.0000 0.0000 0.0000 30.8127 0.0000 30.4847
#
#
#
# Elastic Compliance Matrix: (Units=1/GPa)
#
#
# Indices 1 2 3 4 5 6 
#
# 1 0.009373 -0.002048 -0.000810 0.000000 -0.001852 0.000000
# 2 -0.002048 0.014054 -0.003449 0.000000 0.001841 0.000000
# 3 -0.000810 -0.003449 0.010367 0.000000 -0.008166 0.000000
# 4 0.000000 0.000000 0.000000 -0.012417 0.000000 0.012550
# 5 -0.001852 0.001841 -0.008166 0.000000 0.042784 0.000000
# 6 0.000000 0.000000 0.000000 0.012550 0.000000 0.020118
#
#
# Mechanical properties :
#
#
# Convention : Reuss Voigt Hill
#
# Bulk Modulus (GPa) = 47.21517 52.74273 49.97895
# Shear Modulus (GPa) = 48.09852 18.43339 33.26595
#
# Velocity S-wave (km/s) = 4.80264 2.97315 3.99406
# Velocity P-wave (km/s) = 7.30723 6.08923 6.72586
#
# Compressibility (1/GPa) = 0.02117963
#
# Stress axis : x y z
#
# Youngs Moduli (GPa) = 106.69056 71.15441 96.46233
#
# Poissons Ratio (x) = 0.14575 0.07813
# Poissons Ratio (y) = 0.21854 0.33267
# Poissons Ratio (z) = 0.08642 0.24539
#
# Static dielectric constant tensor:
#      x y z
#    x 1.756180 0.000000 0.013200 
#    y 0.000000 1.874260 0.000000 
#    z 0.013200 0.000000 1.814810 
# 
# From -- ./inp_files/103185.got.cif
#   From: 2010.05.17/outbox.cif.g08.bks.cpg/sg15_52_cif.got.tgz:103185.got - 2010.06.03 18:47:42.
