data_PCOD9279418
_publ_section_title
;
Structure prediction by ZEFSAII (Michael W. Deem and Ramdas Pophale) SiO2 
 PCOD9279418
Probable space group: C 2/C
;
_chemical_formula_sum "Si O2"
_cell_formula_units_Z 48
_cell_length_a 21.291874
_cell_length_b 12.574041
_cell_length_c 9.337410
_cell_angle_alpha 90.000000
_cell_angle_beta 117.661037
_cell_angle_gamma 90.000000
_cell_volume 2214.147278
_symmetry_space_group_name_H-M "C 2/C"
_symmetry_group_IT_number 15
_symmetry_cell_setting 'monoclinic'
loop_
_space_group_symop_operation_xyz
x,y,z
-x,y,1/2-z
-x,-y,-z
x,-y,1/2+z
1/2+x,1/2+y,z
1/2-x,1/2+y,1/2-z
1/2-x,1/2-y,-z
1/2+x,1/2-y,1/2+z
loop_
_atom_site_type_symbol
_atom_site_label
_atom_site_fract_x
_atom_site_fract_y
_atom_site_fract_z
Si Si1 0.079517 0.034092 0.545984
Si Si2 0.162722 0.642961 0.530241
Si Si3 0.253732 0.693170 0.231246
Si Si4 0.914478 0.148812 0.654598
Si Si5 0.204576 0.483994 0.330559
Si Si6 0.664361 0.669973 0.450095
O O1 0.109568 0.090092 0.722246
O O2 0.092409 0.120158 0.433048
O O3 0.108781 0.928080 0.500157
O O4 0.000000 0.000000 0.500000
O O5 0.232521 0.715796 0.636346
O O6 0.111615 0.732340 0.407634
O O7 0.171884 0.546978 0.428977
O O8 0.152651 0.584929 0.673839
O O9 0.237362 0.578581 0.271900
O O10 0.186580 0.728042 0.064929
O O11 0.322703 0.693672 0.201225
O O12 0.000000 0.150233 0.750000
O O13 0.271074 0.411594 0.447059
#
# Coordination Sequence:
#
# PCOD9279418 Si02
#       6
#     8   8   8   8   8   8
#     4  10  22  39  63  90 123 163 208 259 314 373
#     4  11  23  39  63  89 126 163 209 258 314 382
#     4  10  21  36  57  94 125 167 203 252 318 376
#     4  10  23  43  63  90 122 161 212 259 311 372
#     4  11  21  38  59  92 126 162 203 254 317 381
#     4  10  21  35  59  90 130 161 206 255 312 381
#
# _framework density 21.678775999999999
#
# number of rings (size 3 to 8) (size 9 to 14) (size 15 to 20)
#    0.000    1.667    1.667    2.500    4.667    1.333 
#    0.000    0.833    0.000    0.000    0.000    0.000 
#    0.000    0.000    0.000    0.000    0.000    0.000 
#
# Total GULP energy -133812.554111 kJ/mol
# GULP energy per Si atom -5575.523088 kJ/mol
# Density = 2.162943 g / cm^3
# Si number density = 21.678776 Si / 1000 Ang^3
#
#
#
# Elastic Constant Matrix: (Units=GPa)
#
#
# Indices 1 2 3 4 5 6 
#
# 1 58.5530 18.0520 21.5449 0.0000 -11.3133 0.0000
# 2 18.0520 135.7880 56.9371 0.0000 -9.3588 0.0000
# 3 21.5449 56.9371 110.7991 0.0000 -13.2199 0.0000
# 4 0.0000 0.0000 0.0000 62.0816 0.0000 -1.2090
# 5 -11.3133 -9.3588 -13.2199 0.0000 29.8708 0.0000
# 6 0.0000 0.0000 0.0000 -1.2090 0.0000 24.3611
#
#
#
# Elastic Compliance Matrix: (Units=1/GPa)
#
#
# Indices 1 2 3 4 5 6 
#
# 1 0.019492 -0.001135 -0.002501 0.000000 0.005920 0.000000
# 2 -0.001135 0.009474 -0.004587 0.000000 0.000508 0.000000
# 3 -0.002501 -0.004587 0.012230 0.000000 0.003028 0.000000
# 4 0.000000 0.000000 0.000000 0.016123 0.000000 0.000800
# 5 0.005920 0.000508 0.003028 0.000000 0.037219 0.000000
# 6 0.000000 0.000000 0.000000 0.000800 0.000000 0.041089
#
#
# Mechanical properties :
#
#
# Convention : Reuss Voigt Hill
#
# Bulk Modulus (GPa) = 40.40215 55.35646 47.87930
# Shear Modulus (GPa) = 31.18699 37.16976 34.17837
#
# Velocity S-wave (km/s) = 3.79700 4.14523 3.97493
# Velocity P-wave (km/s) = 6.15631 6.96426 6.57271
#
# Compressibility (1/GPa) = 0.02475116
#
# Stress axis : x y z
#
# Youngs Moduli (GPa) = 51.30181 105.55553 81.76543
#
# Poissons Ratio (x) = 0.11978 0.20448
# Poissons Ratio (y) = 0.05821 0.37506
# Poissons Ratio (z) = 0.12830 0.48418
#
# Static dielectric constant tensor:
#      x y z
#    x 1.807500 0.000000 -0.037620 
#    y 0.000000 1.811300 0.000000 
#    z -0.037620 0.000000 1.892310 
# 
# From -- ./inp_files/60892.got.cif
#   From: 2010.05.17/outbox.cif.g08.bks.cpg/sg15_31_cif.got.tgz:60892.got - 2010.06.03 18:47:42.
