data_PCOD9279802
_publ_section_title
;
Structure prediction by ZEFSAII (Michael W. Deem and Ramdas Pophale) SiO2 
 PCOD9279802
Probable space group: C 2/C
;
_chemical_formula_sum "Si O2"
_cell_formula_units_Z 56
_cell_length_a 8.373463
_cell_length_b 18.605190
_cell_length_c 17.332780
_cell_angle_alpha 90.000000
_cell_angle_beta 63.969396
_cell_angle_gamma 90.000000
_cell_volume 2426.355368
_symmetry_space_group_name_H-M "C 2/C"
_symmetry_group_IT_number 15
_symmetry_cell_setting 'monoclinic'
loop_
_space_group_symop_operation_xyz
x,y,z
-x,y,1/2-z
-x,-y,-z
x,-y,1/2+z
1/2+x,1/2+y,z
1/2-x,1/2+y,1/2-z
1/2-x,1/2-y,-z
1/2+x,1/2-y,1/2+z
loop_
_atom_site_type_symbol
_atom_site_label
_atom_site_fract_x
_atom_site_fract_y
_atom_site_fract_z
Si Si1 0.478529 0.286386 0.538646
Si Si2 0.416180 0.822420 0.928836
Si Si3 0.878750 0.125607 0.190709
Si Si4 0.889062 0.001537 0.928433
Si Si5 0.317697 0.404301 0.083415
Si Si6 0.000000 0.688105 0.250000
Si Si7 0.660258 0.047348 0.346662
Si Si8 0.000000 0.552978 0.750000
O O1 0.476117 0.209401 0.498387
O O2 0.294866 0.318171 0.539631
O O3 0.465686 0.302876 0.633200
O O4 0.642220 0.332274 0.471728
O O5 0.496375 0.777736 0.836758
O O6 0.500518 0.900930 0.904214
O O7 0.673643 0.139236 0.209720
O O8 0.826859 0.101218 0.288880
O O9 0.967837 0.059640 0.127358
O O10 0.734935 0.001486 0.898720
O O11 0.808604 0.970926 0.024813
O O12 0.003933 0.073366 0.908249
O O13 0.145697 0.402349 0.172271
O O14 0.605370 0.997127 0.287927
#
# Coordination Sequence:
#
# PCOD9279802 Si02
#       8
#     8   8   8   8   8   4   8   4
#     4   9  18  37  58  84 117 159 198 237 308 359
#     4   9  18  33  61  85 116 155 201 252 286 358
#     4   9  16  30  56  84 111 145 192 249 284 343
#     4  10  21  36  59  87 119 146 202 244 303 352
#     4  10  23  38  59  85 122 167 185 251 308 363
#     4   8  15  28  54  86 112 142 203 240 284 337
#     4  11  21  35  61  94 113 152 207 254 291 360
#     4  12  23  38  62  82 126 158 201 252 310 351
#
# _framework density 23.079884
#
# number of rings (size 3 to 8) (size 9 to 14) (size 15 to 20)
#    0.000    2.286    1.429    3.000    4.000    0.571 
#    0.000    4.286   15.714    0.000    0.000    0.000 
#    0.000    0.000    0.000    0.000    0.000    0.000 
#
# Total GULP energy -155968.395570 kJ/mol
# GULP energy per Si atom -5570.299842 kJ/mol
# Density = 2.302735 g / cm^3
# Si number density = 23.079884 Si / 1000 Ang^3
#
#
#
# Elastic Constant Matrix: (Units=GPa)
#
#
# Indices 1 2 3 4 5 6 
#
# 1 47.5017 -0.5941 28.6666 0.0000 3.6788 0.0000
# 2 -0.5941 13.4309 21.8008 0.0000 -7.0377 0.0000
# 3 28.6666 21.8008 115.3991 0.0000 -12.0824 0.0000
# 4 0.0000 0.0000 0.0000 26.2805 0.0000 2.0425
# 5 3.6788 -7.0377 -12.0824 0.0000 44.1958 0.0000
# 6 0.0000 0.0000 0.0000 2.0425 0.0000 16.7338
#
#
#
# Elastic Compliance Matrix: (Units=1/GPa)
#
#
# Indices 1 2 3 4 5 6 
#
# 1 0.027639 0.016579 -0.010256 0.000000 -0.002465 0.000000
# 2 0.016579 0.123766 -0.026335 0.000000 0.011129 0.000000
# 3 -0.010256 -0.026335 0.016305 0.000000 0.001118 0.000000
# 4 0.000000 0.000000 0.000000 0.038416 0.000000 -0.004689
# 5 -0.002465 0.011129 0.001118 0.000000 0.024909 0.000000
# 6 0.000000 0.000000 0.000000 -0.004689 0.000000 0.060332
#
#
# Mechanical properties :
#
#
# Convention : Reuss Voigt Hill
#
# Bulk Modulus (GPa) = 7.83165 30.67536 19.25350
# Shear Modulus (GPa) = 13.37063 25.87256 19.62160
#
# Velocity S-wave (km/s) = 2.40952 3.35177 2.91891
# Velocity P-wave (km/s) = 3.33792 5.31967 4.44075
#
# Compressibility (1/GPa) = 0.12768701
#
# Stress axis : x y z
#
# Youngs Moduli (GPa) = 36.18015 8.07976 61.32938
#
# Poissons Ratio (x) = -0.13395 0.62900
# Poissons Ratio (y) = -0.59982 1.61509
# Poissons Ratio (z) = 0.37106 0.21278
#
# Static dielectric constant tensor:
#      x y z
#    x 2.000870 0.000000 0.089440 
#    y 0.000000 1.878230 0.000000 
#    z 0.089440 0.000000 1.986320 
# 
# From -- ./inp_files/192050.got.cif
#   From: 2010.05.17/outbox.cif.g08.bks.cpg/sg15_97_cif.got.tgz:192050.got - 2010.06.03 18:47:42.
