data_PCOD9279220
_publ_section_title
;
Structure prediction by ZEFSAII (Michael W. Deem and Ramdas Pophale) SiO2 
 PCOD9279220
Probable space group: C 2/C
;
_chemical_formula_sum "Si O2"
_cell_formula_units_Z 64
_cell_length_a 28.077545
_cell_length_b 12.678070
_cell_length_c 21.941545
_cell_angle_alpha 90.000000
_cell_angle_beta 150.919731
_cell_angle_gamma 90.000000
_cell_volume 3796.177712
_symmetry_space_group_name_H-M "C 2/C"
_symmetry_group_IT_number 15
_symmetry_cell_setting 'monoclinic'
loop_
_space_group_symop_operation_xyz
x,y,z
-x,y,1/2-z
-x,-y,-z
x,-y,1/2+z
1/2+x,1/2+y,z
1/2-x,1/2+y,1/2-z
1/2-x,1/2-y,-z
1/2+x,1/2-y,1/2+z
loop_
_atom_site_type_symbol
_atom_site_label
_atom_site_fract_x
_atom_site_fract_y
_atom_site_fract_z
Si Si1 0.482043 0.302564 0.123381
Si Si2 0.824778 0.357630 0.423892
Si Si3 0.698417 0.340586 0.401799
Si Si4 0.260179 0.206368 0.275333
Si Si5 0.214667 0.912548 0.123069
Si Si6 0.084007 0.064484 0.060994
Si Si7 0.385280 0.986897 0.884449
Si Si8 0.895316 0.009509 0.609518
O O1 0.594138 0.293219 0.265490
O O2 0.429049 0.386949 0.108519
O O3 0.424166 0.194229 0.059866
O O4 0.469537 0.352762 0.042878
O O5 0.757334 0.373900 0.407269
O O6 0.773479 0.271193 0.322322
O O7 0.851706 0.451700 0.408306
O O8 0.750000 0.250000 0.500000
O O9 0.670734 0.443222 0.410555
O O10 0.283609 0.291873 0.353133
O O11 0.167877 0.131079 0.189724
O O12 0.349905 0.132420 0.355907
O O13 0.144354 0.979607 0.089152
O O14 0.321271 0.962527 0.257562
O O15 0.169161 0.935167 0.006064
O O16 0.000000 0.000000 0.000000
O O17 0.500000 0.000000 0.000000
O O18 0.000000 0.964077 0.750000
#
# Coordination Sequence:
#
# PCOD9279220 Si02
#       8
#     8   8   8   8   8   8   8   8
#     4   9  19  32  49  78 111 134 181 222 269 339
#     4  10  21  35  52  83 109 147 182 222 287 337
#     4  11  21  30  55  79 111 147 180 232 278 329
#     4   9  20  35  53  82 114 138 184 223 278 338
#     4   9  19  35  54  79 110 143 182 231 275 334
#     4   9  18  31  53  80 106 138 175 224 276 325
#     4  10  22  35  54  82 115 148 177 225 289 346
#     4   9  18  36  53  81 106 144 192 231 281 324
#
# _framework density 16.859062999999999
#
# number of rings (size 3 to 8) (size 9 to 14) (size 15 to 20)
#    0.000    2.500    1.250    0.750    7.000    2.000 
#    0.000    0.000    0.000    0.750    3.250    0.000 
#    0.000    0.000    0.000    0.000    0.000    0.000 
#
# Total GULP energy -178306.951604 kJ/mol
# GULP energy per Si atom -5572.092238 kJ/mol
# Density = 1.682069 g / cm^3
# Si number density = 16.859063 Si / 1000 Ang^3
#
#
#
# Elastic Constant Matrix: (Units=GPa)
#
#
# Indices 1 2 3 4 5 6 
#
# 1 102.8335 36.8075 58.0706 0.0000 8.5832 0.0000
# 2 36.8075 78.9501 51.7736 0.0000 4.0576 0.0000
# 3 58.0706 51.7736 137.1666 0.0000 7.0178 0.0000
# 4 0.0000 0.0000 0.0000 27.5146 0.0000 -3.5882
# 5 8.5832 4.0576 7.0178 0.0000 22.4032 0.0000
# 6 0.0000 0.0000 0.0000 -3.5882 0.0000 16.6069
#
#
#
# Elastic Compliance Matrix: (Units=1/GPa)
#
#
# Indices 1 2 3 4 5 6 
#
# 1 0.013650 -0.003344 -0.004350 0.000000 -0.003261 0.000000
# 2 -0.003344 0.017677 -0.005243 0.000000 -0.000278 0.000000
# 3 -0.004350 -0.005243 0.011156 0.000000 -0.000878 0.000000
# 4 0.000000 0.000000 0.000000 0.037398 0.000000 0.008080
# 5 -0.003261 -0.000278 -0.000878 0.000000 0.046212 0.000000
# 6 0.000000 0.000000 0.000000 0.008080 0.000000 0.061962
#
#
# Mechanical properties :
#
#
# Convention : Reuss Voigt Hill
#
# Bulk Modulus (GPa) = 60.20148 68.02817 64.11483
# Shear Modulus (GPa) = 22.78287 24.79152 23.78719
#
# Velocity S-wave (km/s) = 3.68009 3.83889 3.76033
# Velocity P-wave (km/s) = 7.33782 7.75165 7.54757
#
# Compressibility (1/GPa) = 0.01661089
#
# Stress axis : x y z
#
# Youngs Moduli (GPa) = 73.26090 56.56982 89.64023
#
# Poissons Ratio (x) = 0.18914 0.38992
# Poissons Ratio (y) = 0.24495 0.46994
# Poissons Ratio (z) = 0.31868 0.29657
#
# Static dielectric constant tensor:
#      x y z
#    x 1.591860 0.000000 -0.009900 
#    y 0.000000 1.570280 0.000000 
#    z -0.009900 0.000000 1.599340 
# 
# From -- ./inp_files/257539.got.cif
#   From: 2010.05.17/outbox.cif.g08.bks.cpg/sg15_129_cif.got.tgz:257539.got - 2010.06.03 18:47:42.
