data_PCOD9279369
_publ_section_title
;
Structure prediction by ZEFSAII (Michael W. Deem and Ramdas Pophale) SiO2 
 PCOD9279369
Probable space group: C 2/C
;
_chemical_formula_sum "Si O2"
_cell_formula_units_Z 48
_cell_length_a 10.179948
_cell_length_b 9.725285
_cell_length_c 24.210137
_cell_angle_alpha 90.000000
_cell_angle_beta 125.710221
_cell_angle_gamma 90.000000
_cell_volume 1946.212079
_symmetry_space_group_name_H-M "C 2/C"
_symmetry_group_IT_number 15
_symmetry_cell_setting 'monoclinic'
loop_
_space_group_symop_operation_xyz
x,y,z
-x,y,1/2-z
-x,-y,-z
x,-y,1/2+z
1/2+x,1/2+y,z
1/2-x,1/2+y,1/2-z
1/2-x,1/2-y,-z
1/2+x,1/2-y,1/2+z
loop_
_atom_site_type_symbol
_atom_site_label
_atom_site_fract_x
_atom_site_fract_y
_atom_site_fract_z
Si Si1 0.506465 0.605370 0.051704
Si Si2 0.269896 0.093756 0.646646
Si Si3 0.991128 0.620430 0.314154
Si Si4 0.759727 0.334336 0.375906
Si Si5 0.836391 0.242326 0.270726
Si Si6 0.186538 0.137608 0.393235
O O1 0.635567 0.522158 0.122010
O O2 0.592021 0.750114 0.060716
O O3 0.349929 0.624813 0.050741
O O4 0.500000 0.500000 0.000000
O O5 0.409273 0.015657 0.645333
O O6 0.328305 0.145523 0.720338
O O7 0.212764 0.227416 0.598756
O O8 0.096300 0.755229 0.355795
O O9 0.000000 0.618408 0.250000
O O10 0.804852 0.637475 0.282729
O O11 0.781814 0.307860 0.315704
O O12 0.752262 0.493208 0.388563
O O13 0.012214 0.174811 0.321730
#
# Coordination Sequence:
#
# PCOD9279369 Si02
#       6
#     8   8   8   8   8   8
#     4  10  24  46  64  82 117 164 211 255 297 345
#     4  11  23  37  58  89 120 157 201 246 298 358
#     4   9  18  33  52  79 119 160 191 228 285 354
#     4   9  21  38  59  89 121 155 197 247 300 357
#     4  10  21  35  58  88 127 159 189 237 304 370
#     4  11  23  37  59  90 119 154 198 249 303 358
#
# _framework density 24.663295000000002
#
# number of rings (size 3 to 8) (size 9 to 14) (size 15 to 20)
#    0.000    2.000    0.000    3.500    0.000   16.000 
#    0.000    0.833    0.000    0.000    0.000    0.000 
#    0.000    0.000    0.000    0.000    0.000    0.000 
#
# Total GULP energy -134267.166674 kJ/mol
# GULP energy per Si atom -5594.465278 kJ/mol
# Density = 2.460716 g / cm^3
# Si number density = 24.663295 Si / 1000 Ang^3
#
#
#
# Elastic Constant Matrix: (Units=GPa)
#
#
# Indices 1 2 3 4 5 6 
#
# 1 60.8269 42.1919 10.0708 0.0000 -1.1338 0.0000
# 2 42.1919 198.9035 4.7652 0.0000 5.6133 0.0000
# 3 10.0708 4.7652 35.7484 0.0000 -2.1593 0.0000
# 4 0.0000 0.0000 0.0000 21.5135 0.0000 2.7421
# 5 -1.1338 5.6133 -2.1593 0.0000 16.6626 0.0000
# 6 0.0000 0.0000 0.0000 2.7421 0.0000 42.3995
#
#
#
# Elastic Compliance Matrix: (Units=1/GPa)
#
#
# Indices 1 2 3 4 5 6 
#
# 1 0.020248 -0.004236 -0.005009 0.000000 0.002156 0.000000
# 2 -0.004236 0.005984 0.000258 0.000000 -0.002271 0.000000
# 3 -0.005009 0.000258 0.029556 0.000000 0.003402 0.000000
# 4 0.000000 0.000000 0.000000 0.046869 0.000000 -0.003031
# 5 0.002156 -0.002271 0.003402 0.000000 0.061367 0.000000
# 6 0.000000 0.000000 0.000000 -0.003031 0.000000 0.023781
#
#
# Mechanical properties :
#
#
# Convention : Reuss Voigt Hill
#
# Bulk Modulus (GPa) = 26.44515 45.50383 35.97449
# Shear Modulus (GPa) = 22.89562 32.01184 27.45373
#
# Velocity S-wave (km/s) = 3.05015 3.60662 3.34000
# Velocity P-wave (km/s) = 4.81148 5.98613 5.43066
#
# Compressibility (1/GPa) = 0.03781411
#
# Stress axis : x y z
#
# Youngs Moduli (GPa) = 49.38818 167.11330 33.83464
#
# Poissons Ratio (x) = 0.70786 0.16948
# Poissons Ratio (y) = 0.20920 -0.00875
# Poissons Ratio (z) = 0.24740 -0.04319
#
# Static dielectric constant tensor:
#      x y z
#    x 2.001310 0.000000 0.048340 
#    y 0.000000 1.977030 0.000000 
#    z 0.048340 0.000000 2.057200 
# 
# From -- ./inp_files/267734.got.cif
#   From: 2010.05.17/outbox.cif.g08.bks.cpg/sg15_134_cif.got.tgz:267734.got - 2010.06.03 18:47:42.
