data_PCOD9279266
_publ_section_title
;
Structure prediction by ZEFSAII (Michael W. Deem and Ramdas Pophale) SiO2 
 PCOD9279266
Probable space group: C 2/C
;
_chemical_formula_sum "Si O2"
_cell_formula_units_Z 32
_cell_length_a 21.608381
_cell_length_b 10.809629
_cell_length_c 16.111752
_cell_angle_alpha 90.000000
_cell_angle_beta 19.185554
_cell_angle_gamma 90.000000
_cell_volume 1236.747527
_symmetry_space_group_name_H-M "C 2/C"
_symmetry_group_IT_number 15
_symmetry_cell_setting 'monoclinic'
loop_
_space_group_symop_operation_xyz
x,y,z
-x,y,1/2-z
-x,-y,-z
x,-y,1/2+z
1/2+x,1/2+y,z
1/2-x,1/2+y,1/2-z
1/2-x,1/2-y,-z
1/2+x,1/2-y,1/2+z
loop_
_atom_site_type_symbol
_atom_site_label
_atom_site_fract_x
_atom_site_fract_y
_atom_site_fract_z
Si Si1 0.441807 0.655160 0.413272
Si Si2 0.249181 0.399620 0.603853
Si Si3 0.778104 0.498553 0.540970
Si Si4 0.836843 0.685217 0.604576
O O1 0.500000 0.705012 0.250000
O O2 0.318903 0.530962 0.550653
O O3 0.633656 0.613610 0.214788
O O4 0.309522 0.732019 0.641211
O O5 0.264255 0.415162 0.485653
O O6 0.365850 0.292973 0.501015
O O7 0.032226 0.363119 0.893935
O O8 0.749043 0.572419 0.662803
O O9 0.000000 0.470922 0.250000
#
# Coordination Sequence:
#
# PCOD9279266 Si02
#       4
#     8   8   8   8
#     4  10  21  38  57  82 113 147 184 227 273 327
#     4  10  21  35  55  84 113 142 183 232 275 324
#     4   9  19  34  56  84 111 140 182 231 277 321
#     4  11  20  35  58  84 112 147 183 226 278 328
#
# _framework density 25.874320999999998
#
# number of rings (size 3 to 8) (size 9 to 14) (size 15 to 20)
#    0.000    2.000    0.000    3.750    0.000    7.000 
#    0.000    1.250    0.000    4.500    0.000    0.000 
#    0.000    0.000    0.000    0.000    0.000    0.000 
#
# Total GULP energy -89671.674690 kJ/mol
# GULP energy per Si atom -5604.479668 kJ/mol
# Density = 2.581543 g / cm^3
# Si number density = 25.874321 Si / 1000 Ang^3
#
#
#
# Elastic Constant Matrix: (Units=GPa)
#
#
# Indices 1 2 3 4 5 6 
#
# 1 130.0203 43.0323 62.0638 0.0000 -9.4229 0.0000
# 2 43.0323 67.7394 11.1715 0.0001 -7.3727 -0.0001
# 3 62.0638 11.1715 171.4194 0.0000 0.8417 0.0000
# 4 0.0000 0.0001 0.0000 17.3757 0.0000 -6.4908
# 5 -9.4229 -7.3727 0.8417 0.0000 38.1972 0.0000
# 6 0.0000 -0.0001 0.0000 -6.4908 0.0000 11.8430
#
#
#
# Elastic Compliance Matrix: (Units=1/GPa)
#
#
# Indices 1 2 3 4 5 6 
#
# 1 0.011893 -0.006729 -0.003876 0.000000 0.001721 0.000000
# 2 -0.006729 0.019058 0.001184 0.000000 0.001993 0.000000
# 3 -0.003876 0.001184 0.007164 0.000000 -0.000885 0.000000
# 4 0.000000 0.000000 0.000000 0.072368 0.000000 0.039663
# 5 0.001721 0.001993 -0.000885 0.000000 0.027009 0.000000
# 6 0.000000 0.000000 0.000000 0.039663 0.000000 0.106176
#
#
# Mechanical properties :
#
#
# Convention : Reuss Voigt Hill
#
# Bulk Modulus (GPa) = 51.88043 66.85714 59.36878
# Shear Modulus (GPa) = 18.59202 30.34394 24.46798
#
# Velocity S-wave (km/s) = 2.68349 3.42825 3.07847
# Velocity P-wave (km/s) = 5.44940 6.44716 5.96916
#
# Compressibility (1/GPa) = 0.01927509
#
# Stress axis : x y z
#
# Youngs Moduli (GPa) = 84.08440 52.47025 139.58511
#
# Poissons Ratio (x) = 0.35305 0.54101
# Poissons Ratio (y) = 0.56577 -0.16531
# Poissons Ratio (z) = 0.32590 -0.06214
#
# Static dielectric constant tensor:
#      x y z
#    x 1.998530 0.000000 -0.005750 
#    y 0.000000 2.015230 0.000000 
#    z -0.005750 0.000000 2.005300 
# 
# From -- ./inp_files/27641.got.cif
#   From: 2010.05.17/outbox.cif.g08.bks.cpg/sg15_14_cif.got.tgz:27641.got - 2010.06.03 18:47:42.
