data_PCOD9279732
_publ_section_title
;
Structure prediction by ZEFSAII (Michael W. Deem and Ramdas Pophale) SiO2 
 PCOD9279732
Probable space group: C 2/C
;
_chemical_formula_sum "Si O2"
_cell_formula_units_Z 28
_cell_length_a 13.193895
_cell_length_b 15.314969
_cell_length_c 5.402147
_cell_angle_alpha 90.000000
_cell_angle_beta 77.107962
_cell_angle_gamma 90.000000
_cell_volume 1064.063614
_symmetry_space_group_name_H-M "C 2/C"
_symmetry_group_IT_number 15
_symmetry_cell_setting 'monoclinic'
loop_
_space_group_symop_operation_xyz
x,y,z
-x,y,1/2-z
-x,-y,-z
x,-y,1/2+z
1/2+x,1/2+y,z
1/2-x,1/2+y,1/2-z
1/2-x,1/2-y,-z
1/2+x,1/2-y,1/2+z
loop_
_atom_site_type_symbol
_atom_site_label
_atom_site_fract_x
_atom_site_fract_y
_atom_site_fract_z
Si Si1 0.381306 0.030442 0.626605
Si Si2 0.000000 0.056041 0.750000
Si Si3 0.631830 0.717278 0.599581
Si Si4 0.632376 0.782184 0.102527
O O1 0.376715 0.124052 0.761793
O O2 0.500000 0.000000 0.500000
O O3 0.333763 0.028885 0.374915
O O4 0.899473 0.120855 0.794610
O O5 0.000000 0.000000 0.500000
O O6 0.750000 0.750000 0.500000
O O7 0.589821 0.721144 0.343161
O O8 0.590955 0.778479 0.845939
O O9 0.750000 0.750000 0.000000
#
# Coordination Sequence:
#
# PCOD9279732 Si02
#       4
#     8   4   8   8
#     4  10  21  36  57  90 124 157 206 271 324 377
#     4  12  26  46  74 108 140 182 240 300 352 414
#     4  10  23  45  70  98 136 185 232 283 348 425
#     4  10  21  41  63  91 130 179 223 270 339 418
#
# _framework density 26.314214
#
# number of rings (size 3 to 8) (size 9 to 14) (size 15 to 20)
#    0.000    1.714    0.000    3.429    0.000    6.857 
#    0.000   34.286    0.000    0.000    0.000    0.000 
#    0.000    0.000    0.000    0.000    0.000    0.000 
#
# Total GULP energy -78098.586515 kJ/mol
# GULP energy per Si atom -5578.470465 kJ/mol
# Density = 2.625432 g / cm^3
# Si number density = 26.314214 Si / 1000 Ang^3
#
#
#
# Elastic Constant Matrix: (Units=GPa)
#
#
# Indices 1 2 3 4 5 6 
#
# 1 118.4087 16.5587 58.7981 0.0000 -8.9888 0.0000
# 2 16.5587 177.1821 95.8291 0.0000 -3.5651 0.0000
# 3 58.7981 95.8291 334.5272 0.0000 31.1329 0.0000
# 4 0.0000 0.0000 0.0000 94.8627 0.0000 -14.0467
# 5 -8.9888 -3.5651 31.1329 0.0000 68.7836 0.0000
# 6 0.0000 0.0000 0.0000 -14.0467 0.0000 45.9904
#
#
#
# Elastic Compliance Matrix: (Units=1/GPa)
#
#
# Indices 1 2 3 4 5 6 
#
# 1 0.009539 0.000196 -0.001931 0.000000 0.002131 0.000000
# 2 0.000196 0.006790 -0.002103 0.000000 0.001329 0.000000
# 3 -0.001931 -0.002103 0.004139 0.000000 -0.002235 0.000000
# 4 0.000000 0.000000 0.000000 0.011041 0.000000 0.003372
# 5 0.002131 0.001329 -0.002235 0.000000 0.015897 0.000000
# 6 0.000000 0.000000 0.000000 0.003372 0.000000 0.022774
#
#
# Mechanical properties :
#
#
# Convention : Reuss Voigt Hill
#
# Bulk Modulus (GPa) = 78.18045 108.05441 93.11743
# Shear Modulus (GPa) = 60.88687 72.52280 66.70484
#
# Velocity S-wave (km/s) = 4.81546 5.25549 5.04028
# Velocity P-wave (km/s) = 7.79057 8.83058 8.32683
#
# Compressibility (1/GPa) = 0.01279092
#
# Stress axis : x y z
#
# Youngs Moduli (GPa) = 104.83804 147.27834 241.59618
#
# Poissons Ratio (x) = -0.02883 0.46650
# Poissons Ratio (y) = -0.02052 0.50812
# Poissons Ratio (z) = 0.20243 0.30975
#
# Static dielectric constant tensor:
#      x y z
#    x 3.420840 0.000000 0.409140 
#    y 0.000000 2.237740 0.000000 
#    z 0.409140 0.000000 2.148990 
# 
# From -- ./inp_files/9498.got.cif
#   From: 2010.05.17/outbox.cif.g08.bks.cpg/sg15_5_cif.got.tgz:9498.got - 2010.06.03 18:47:42.
