data_PCOD9279437
_publ_section_title
;
Structure prediction by ZEFSAII (Michael W. Deem and Ramdas Pophale) SiO2 
 PCOD9279437
Probable space group: C 2/C
;
_chemical_formula_sum "Si O2"
_cell_formula_units_Z 60
_cell_length_a 24.472776
_cell_length_b 8.010737
_cell_length_c 33.062007
_cell_angle_alpha 90.000000
_cell_angle_beta 26.424749
_cell_angle_gamma 90.000000
_cell_volume 2884.472775
_symmetry_space_group_name_H-M "C 2/C"
_symmetry_group_IT_number 15
_symmetry_cell_setting 'monoclinic'
loop_
_space_group_symop_operation_xyz
x,y,z
-x,y,1/2-z
-x,-y,-z
x,-y,1/2+z
1/2+x,1/2+y,z
1/2-x,1/2+y,1/2-z
1/2-x,1/2-y,-z
1/2+x,1/2-y,1/2+z
loop_
_atom_site_type_symbol
_atom_site_label
_atom_site_fract_x
_atom_site_fract_y
_atom_site_fract_z
Si Si1 0.817057 0.079100 0.946490
Si Si2 0.389383 0.904214 0.551715
Si Si3 0.670028 0.461822 0.154292
Si Si4 0.552646 0.223063 0.877854
Si Si5 0.442123 0.709036 0.695826
Si Si6 0.243885 0.988307 0.724860
Si Si7 0.564803 0.926806 0.122255
Si Si8 0.000000 0.265273 0.250000
O O1 0.943234 0.082370 0.887310
O O2 0.850596 0.090840 0.877484
O O3 0.750000 0.250000 0.000000
O O4 0.712145 0.942955 0.021022
O O5 0.312368 0.016384 0.571199
O O6 0.454654 0.766982 0.479866
O O7 0.292510 0.883159 0.653118
O O8 0.500000 0.000000 0.500000
O O9 0.611059 0.335078 0.224798
O O10 0.605761 0.643181 0.197513
O O11 0.646959 0.375973 0.812860
O O12 0.638273 0.059951 0.829981
O O13 0.485892 0.193661 0.879254
O O14 0.332376 0.651042 0.739660
O O15 0.497176 0.894633 0.658947
O O16 0.539948 0.869599 0.184508
#
# Coordination Sequence:
#
# PCOD9279437 Si02
#       8
#     8   8   8   8   8   8   8   4
#     4  10  21  35  60  87 116 156 206 246 302 355
#     4   9  20  38  62  90 115 159 204 247 301 366
#     4  11  20  40  61  84 123 161 202 246 311 367
#     4  11  21  41  63  89 123 156 207 254 306 372
#     4  10  21  39  62  86 120 160 202 252 305 365
#     4  10  22  39  67  90 121 163 203 251 314 362
#     4  11  24  38  59  91 124 158 210 251 305 366
#     4  12  26  36  58  92 126 168 198 254 308 366
#
# _framework density 20.801029
#
# number of rings (size 3 to 8) (size 9 to 14) (size 15 to 20)
#    0.000    1.600    2.667    2.400    3.733    1.600 
#    0.000    0.667    0.000    0.000    0.000    0.000 
#    0.000    0.000    0.000    0.000    0.000    0.000 
#
# Total GULP energy -167245.104016 kJ/mol
# GULP energy per Si atom -5574.836801 kJ/mol
# Density = 2.075368 g / cm^3
# Si number density = 20.801029 Si / 1000 Ang^3
#
#
#
# Elastic Constant Matrix: (Units=GPa)
#
#
# Indices 1 2 3 4 5 6 
#
# 1 75.3213 -4.6517 -9.5760 0.0464 -18.0118 -0.0253
# 2 -4.6517 57.5389 1.5790 0.0456 2.7073 -0.0313
# 3 -9.5760 1.5790 40.4499 0.0072 -12.2088 -0.0017
# 4 0.0464 0.0456 0.0072 27.5540 0.0041 -2.6007
# 5 -18.0118 2.7073 -12.2088 0.0041 34.8492 0.0371
# 6 -0.0253 -0.0313 -0.0017 -2.6007 0.0371 19.9797
#
#
#
# Elastic Compliance Matrix: (Units=1/GPa)
#
#
# Indices 1 2 3 4 5 6 
#
# 1 0.016962 0.000636 0.007405 -0.000033 0.011312 -0.000002
# 2 0.000636 0.017521 -0.000945 -0.000027 -0.001364 0.000027
# 3 0.007405 -0.000945 0.030963 -0.000023 0.014748 -0.000020
# 4 -0.000033 -0.000027 -0.000023 0.036744 -0.000033 0.004783
# 5 0.011312 -0.001364 0.014748 -0.000033 0.039814 -0.000065
# 6 -0.000002 0.000027 -0.000020 0.004783 -0.000065 0.050674
#
#
# Mechanical properties :
#
#
# Convention : Reuss Voigt Hill
#
# Bulk Modulus (GPa) = 12.55681 16.44584 14.50133
# Shear Modulus (GPa) = 24.38639 28.87384 26.63012
#
# Velocity S-wave (km/s) = 3.42770 3.72976 3.58191
# Velocity P-wave (km/s) = 4.65996 5.14505 4.90850
#
# Compressibility (1/GPa) = 0.07963805
#
# Stress axis : x y z
#
# Youngs Moduli (GPa) = 58.95468 57.07407 32.29646
#
# Poissons Ratio (x) = -0.03629 -0.23915
# Poissons Ratio (y) = -0.03749 0.03052
# Poissons Ratio (z) = -0.43655 0.05393
#
# Static dielectric constant tensor:
#      x y z
#    x 1.766380 -0.000020 -0.031360 
#    y -0.000020 1.731580 -0.000010 
#    z -0.031360 -0.000010 1.761020 
# 
# From -- ./inp_files/318490.got.cif
#   From: 2010.05.17/outbox.cif.g08.bks.cpg/sg15_160_cif.got.tgz:318490.got - 2010.06.03 18:47:42.
