data_PCOD9279004
_publ_section_title
;
Structure prediction by ZEFSAII (Michael W. Deem and Ramdas Pophale) SiO2 
 PCOD9279004
Probable space group: C 2/C
;
_chemical_formula_sum "Si O2"
_cell_formula_units_Z 52
_cell_length_a 11.628727
_cell_length_b 27.829435
_cell_length_c 10.224811
_cell_angle_alpha 90.000000
_cell_angle_beta 56.709120
_cell_angle_gamma 90.000000
_cell_volume 2765.944402
_symmetry_space_group_name_H-M "C 2/C"
_symmetry_group_IT_number 15
_symmetry_cell_setting 'monoclinic'
loop_
_space_group_symop_operation_xyz
x,y,z
-x,y,1/2-z
-x,-y,-z
x,-y,1/2+z
1/2+x,1/2+y,z
1/2-x,1/2+y,1/2-z
1/2-x,1/2-y,-z
1/2+x,1/2-y,1/2+z
loop_
_atom_site_type_symbol
_atom_site_label
_atom_site_fract_x
_atom_site_fract_y
_atom_site_fract_z
Si Si1 0.570441 0.448220 0.448687
Si Si2 0.000000 0.118955 0.750000
Si Si3 0.277617 0.326232 0.957958
Si Si4 0.300372 0.834747 0.085458
Si Si5 0.000000 0.293494 0.750000
Si Si6 0.138239 0.405089 0.225093
Si Si7 0.674188 0.738275 0.848687
Si Si8 0.500000 0.608913 0.250000
O O1 0.500000 0.500000 0.500000
O O2 0.512620 0.415927 0.366946
O O3 0.736813 0.442987 0.338747
O O4 0.532778 0.422545 0.606104
O O5 0.141417 0.149739 0.658355
O O6 0.215946 0.283117 0.913251
O O7 0.370945 0.357201 0.805310
O O8 0.177924 0.362938 0.095651
O O9 0.365974 0.302895 0.021941
O O10 0.368710 0.876587 0.132305
O O11 0.289856 0.787343 0.185515
O O12 0.385565 0.823974 0.901020
O O13 0.064924 0.259111 0.818082
O O14 0.000000 0.426589 0.250000
#
# Coordination Sequence:
#
# PCOD9279004 Si02
#       8
#     8   4   8   8   4   8   8   4
#     4  10  21  39  67  93 114 152 195 252 313 379
#     4  10  22  42  64  82 128 160 196 250 311 383
#     4   9  20  35  54  81 111 156 203 247 295 340
#     4  10  22  36  55  83 118 167 202 242 307 347
#     4  12  23  32  52  83 118 162 207 256 290 349
#     4   9  18  38  61  84 118 153 193 246 307 361
#     4  10  21  34  50  80 117 160 204 252 285 352
#     4  10  21  34  62  87 112 148 203 250 287 360
#
# _framework density 18.800087000000001
#
# number of rings (size 3 to 8) (size 9 to 14) (size 15 to 20)
#    0.000    2.154    0.000    3.231    4.308    0.000 
#    2.769    0.000    1.692    5.538    0.000    0.000 
#    0.000    0.000    0.000    0.000    0.000    0.000 
#
# Total GULP energy -144891.685616 kJ/mol
# GULP energy per Si atom -5572.757139 kJ/mol
# Density = 1.875730 g / cm^3
# Si number density = 18.800087 Si / 1000 Ang^3
#
#
#
# Elastic Constant Matrix: (Units=GPa)
#
#
# Indices 1 2 3 4 5 6 
#
# 1 103.1335 25.9095 25.6718 0.0000 13.3609 0.0000
# 2 25.9095 70.8398 12.6660 0.0000 -7.6385 0.0000
# 3 25.6718 12.6660 60.6760 0.0000 -0.4323 0.0000
# 4 0.0000 0.0000 0.0000 -0.2521 0.0000 7.0698
# 5 13.3609 -7.6385 -0.4323 0.0000 21.6206 0.0000
# 6 0.0000 0.0000 0.0000 7.0698 0.0000 -6.4332
#
#
#
# Elastic Compliance Matrix: (Units=1/GPa)
#
#
# Indices 1 2 3 4 5 6 
#
# 1 0.013506 -0.005208 -0.004701 0.000000 -0.010281 0.000000
# 2 -0.005208 0.017261 -0.001334 0.000000 0.009290 0.000000
# 3 -0.004701 -0.001334 0.018768 0.000000 0.002809 0.000000
# 4 0.000000 0.000000 0.000000 0.133025 0.000000 0.146190
# 5 -0.010281 0.009290 0.002809 0.000000 0.055944 0.000000
# 6 0.000000 0.000000 0.000000 0.146190 0.000000 0.005213
#
#
# Mechanical properties :
#
#
# Convention : Reuss Voigt Hill
#
# Bulk Modulus (GPa) = 36.96646 40.34932 38.65789
# Shear Modulus (GPa) = 18.16734 14.34719 16.25726
#
# Velocity S-wave (km/s) = 3.11198 2.76550 2.94384
# Velocity P-wave (km/s) = 5.71123 5.63083 5.67117
#
# Compressibility (1/GPa) = 0.02705155
#
# Stress axis : x y z
#
# Youngs Moduli (GPa) = 74.03852 57.93286 53.28156
#
# Poissons Ratio (x) = 0.30172 0.25046
# Poissons Ratio (y) = 0.38559 0.07106
# Poissons Ratio (z) = 0.34803 0.07726
#
# Static dielectric constant tensor:
#      x y z
#    x 1.709060 0.000000 -0.032550 
#    y 0.000000 1.741570 0.000000 
#    z -0.032550 0.000000 1.664480 
# 
# From -- ./inp_files/34124.got.cif
#   From: 2010.05.17/outbox.cif.g08.bks.cpg/sg15_18_cif.got.tgz:34124.got - 2010.06.03 18:47:42.
