data_PCOD9279746
_publ_section_title
;
Structure prediction by ZEFSAII (Michael W. Deem and Ramdas Pophale) SiO2 
 PCOD9279746
Probable space group: C 2/C
;
_chemical_formula_sum "Si O2"
_cell_formula_units_Z 56
_cell_length_a 9.204641
_cell_length_b 10.129535
_cell_length_c 26.890539
_cell_angle_alpha 90.000000
_cell_angle_beta 110.451386
_cell_angle_gamma 90.000000
_cell_volume 2349.205944
_symmetry_space_group_name_H-M "C 2/C"
_symmetry_group_IT_number 15
_symmetry_cell_setting 'monoclinic'
loop_
_space_group_symop_operation_xyz
x,y,z
-x,y,1/2-z
-x,-y,-z
x,-y,1/2+z
1/2+x,1/2+y,z
1/2-x,1/2+y,1/2-z
1/2-x,1/2-y,-z
1/2+x,1/2-y,1/2+z
loop_
_atom_site_type_symbol
_atom_site_label
_atom_site_fract_x
_atom_site_fract_y
_atom_site_fract_z
Si Si1 0.952446 0.978778 0.814062
Si Si2 0.526214 0.774139 0.809322
Si Si3 0.367920 0.904770 0.960723
Si Si4 0.747154 0.433542 0.806317
Si Si5 0.229781 0.950952 0.608457
Si Si6 0.460377 0.089285 0.885612
Si Si7 0.040857 0.832090 0.967817
O O1 0.829604 0.940317 0.757672
O O2 0.879443 0.991796 0.859120
O O3 0.105302 0.890768 0.825541
O O4 0.025525 0.118392 0.808172
O O5 0.500000 0.824993 0.750000
O O6 0.375890 0.821220 0.820710
O O7 0.673457 0.829012 0.856446
O O8 0.375572 0.973175 0.908078
O O9 0.197111 0.901318 0.965534
O O10 0.424106 0.754751 0.978770
O O11 0.500000 0.000000 0.000000
O O12 0.845387 0.571785 0.825229
O O13 0.366452 0.047459 0.608475
O O14 0.112279 0.921609 0.549225
O O15 0.484548 0.221606 0.920026
#
# Coordination Sequence:
#
# PCOD9279746 Si02
#       7
#     8   8   8   8   8   8   8
#     4  11  22  37  56  84 119 158 205 241 293 352
#     4  11  21  39  58  81 122 158 194 248 296 338
#     4   9  20  42  64  89 120 155 194 251 308 360
#     4  10  21  36  58  83 115 159 197 244 291 354
#     4  11  24  37  61  92 119 161 204 245 291 363
#     4  10  22  38  59  89 121 151 200 247 296 358
#     4  10  21  40  66  86 119 158 195 247 306 355
#
# _framework density 23.837841999999998
#
# number of rings (size 3 to 8) (size 9 to 14) (size 15 to 20)
#    0.000    1.714    2.857    1.714    0.000    5.143 
#    0.000   10.714    0.000    0.000    0.000    0.000 
#    0.000    0.000    0.000    0.000    0.000    0.000 
#
# Total GULP energy -156199.521792 kJ/mol
# GULP energy per Si atom -5578.554350 kJ/mol
# Density = 2.378359 g / cm^3
# Si number density = 23.837842 Si / 1000 Ang^3
#
#
#
# Elastic Constant Matrix: (Units=GPa)
#
#
# Indices 1 2 3 4 5 6 
#
# 1 152.7705 33.0868 30.8409 0.0000 24.0621 0.0000
# 2 33.0868 29.6449 -1.3348 0.0000 -0.1433 0.0000
# 3 30.8409 -1.3348 49.9507 0.0000 20.5884 0.0000
# 4 0.0000 0.0000 0.0000 25.4616 0.0000 -5.9854
# 5 24.0621 -0.1433 20.5884 0.0000 48.9047 0.0000
# 6 0.0000 0.0000 0.0000 -5.9854 0.0000 21.6480
#
#
#
# Elastic Compliance Matrix: (Units=1/GPa)
#
#
# Indices 1 2 3 4 5 6 
#
# 1 0.010874 -0.012414 -0.005839 0.000000 -0.002929 0.000000
# 2 -0.012414 0.047950 0.007708 0.000000 0.003003 0.000000
# 3 -0.005839 0.007708 0.027390 0.000000 -0.008636 0.000000
# 4 0.000000 0.000000 0.000000 0.042005 0.000000 0.011614
# 5 -0.002929 0.003003 -0.008636 0.000000 0.025533 0.000000
# 6 0.000000 0.000000 0.000000 0.011614 0.000000 0.049405
#
#
# Mechanical properties :
#
#
# Convention : Reuss Voigt Hill
#
# Bulk Modulus (GPa) = 15.35514 39.72797 27.54156
# Shear Modulus (GPa) = 20.32898 30.52106 25.42502
#
# Velocity S-wave (km/s) = 2.92345 3.58210 3.26940
# Velocity P-wave (km/s) = 4.22503 5.81469 5.08240
#
# Compressibility (1/GPa) = 0.06512478
#
# Stress axis : x y z
#
# Youngs Moduli (GPa) = 91.95949 20.85526 36.50966
#
# Poissons Ratio (x) = 0.25890 0.21317
# Poissons Ratio (y) = 1.14158 -0.28142
# Poissons Ratio (z) = 0.53692 -0.16075
#
# Static dielectric constant tensor:
#      x y z
#    x 1.863790 0.000000 0.007700 
#    y 0.000000 1.960330 0.000000 
#    z 0.007700 0.000000 2.096270 
# 
# From -- ./inp_files/307232.got.cif
#   From: 2010.05.17/outbox.cif.g08.bks.cpg/sg15_154_cif.got.tgz:307232.got - 2010.06.03 18:47:42.
