data_PCOD9279946
_publ_section_title
;
Structure prediction by ZEFSAII (Michael W. Deem and Ramdas Pophale) SiO2 
 PCOD9279946
Probable space group: C 2/C
;
_chemical_formula_sum "Si O2"
_cell_formula_units_Z 56
_cell_length_a 30.233819
_cell_length_b 9.026666
_cell_length_c 21.786366
_cell_angle_alpha 90.000000
_cell_angle_beta 27.491072
_cell_angle_gamma 90.000000
_cell_volume 2744.610709
_symmetry_space_group_name_H-M "C 2/C"
_symmetry_group_IT_number 15
_symmetry_cell_setting 'monoclinic'
loop_
_space_group_symop_operation_xyz
x,y,z
-x,y,1/2-z
-x,-y,-z
x,-y,1/2+z
1/2+x,1/2+y,z
1/2-x,1/2+y,1/2-z
1/2-x,1/2-y,-z
1/2+x,1/2-y,1/2+z
loop_
_atom_site_type_symbol
_atom_site_label
_atom_site_fract_x
_atom_site_fract_y
_atom_site_fract_z
Si Si1 0.829564 0.320619 0.987082
Si Si2 0.067228 0.136118 0.397345
Si Si3 0.225111 0.120685 0.823195
Si Si4 0.574258 0.054892 0.857257
Si Si5 0.114801 0.719043 0.220475
Si Si6 0.729438 0.951053 0.855063
Si Si7 0.925172 0.869513 0.475383
O O1 0.719216 0.267124 0.116224
O O2 0.833222 0.482231 0.013729
O O3 0.875664 0.311017 0.863570
O O4 0.879825 0.217038 0.974762
O O5 0.037646 0.275568 0.392701
O O6 0.164256 0.074658 0.249990
O O7 0.093424 0.197861 0.433649
O O8 0.000000 0.000000 0.500000
O O9 0.315438 0.073791 0.754840
O O10 0.201432 0.293426 0.860897
O O11 0.256090 0.070967 0.716757
O O12 0.129936 0.025432 0.954970
O O13 0.578527 0.929933 0.799568
O O14 0.500000 0.000000 0.000000
O O15 0.038302 0.849397 0.326813
#
# Coordination Sequence:
#
# PCOD9279946 Si02
#       7
#     8   8   8   8   8   8   8
#     4  11  23  43  67  90 137 175 233 270 326 409
#     4  10  21  36  61  99 130 163 212 274 342 399
#     4  10  22  38  63  97 127 167 211 274 345 388
#     4  11  21  37  64  93 127 162 218 276 329 393
#     4  11  24  40  69  96 125 186 229 272 330 404
#     4  10  21  37  61  94 127 169 209 269 336 395
#     4  11  21  42  65  92 131 172 219 275 333 397
#
# _framework density 20.403623
#
# number of rings (size 3 to 8) (size 9 to 14) (size 15 to 20)
#    0.000    1.429    2.857    3.857    0.000    1.143 
#    0.000    2.857    6.286    0.000    0.000    0.000 
#    0.000    0.000    0.000    0.000    0.000    0.000 
#
# Total GULP energy -156164.526245 kJ/mol
# GULP energy per Si atom -5577.304509 kJ/mol
# Density = 2.035718 g / cm^3
# Si number density = 20.403623 Si / 1000 Ang^3
#
#
#
# Elastic Constant Matrix: (Units=GPa)
#
#
# Indices 1 2 3 4 5 6 
#
# 1 83.7025 32.2249 30.0180 -0.0018 9.1173 0.0001
# 2 32.2249 130.2874 43.9629 -0.0064 8.9999 0.0013
# 3 30.0180 43.9629 94.6531 -0.0056 9.7491 0.0009
# 4 -0.0018 -0.0064 -0.0056 35.1169 0.0017 -4.2757
# 5 9.1173 8.9999 9.7491 0.0017 35.9248 -0.0001
# 6 0.0001 0.0013 0.0009 -4.2757 -0.0001 30.6517
#
#
#
# Elastic Compliance Matrix: (Units=1/GPa)
#
#
# Indices 1 2 3 4 5 6 
#
# 1 0.014217 -0.002278 -0.003228 0.000000 -0.002161 0.000000
# 2 -0.002278 0.009514 -0.003612 0.000001 -0.000825 0.000000
# 3 -0.003228 -0.003612 0.013465 0.000001 -0.001930 0.000000
# 4 0.000000 0.000001 0.000001 0.028968 -0.000002 0.004041
# 5 -0.002161 -0.000825 -0.001930 -0.000002 0.029115 0.000000
# 6 0.000000 0.000000 0.000000 0.004041 0.000000 0.033188
#
#
# Mechanical properties :
#
#
# Convention : Reuss Voigt Hill
#
# Bulk Modulus (GPa) = 52.73957 57.89497 55.31727
# Shear Modulus (GPa) = 32.67459 33.83448 33.25453
#
# Velocity S-wave (km/s) = 4.00610 4.07659 4.04150
# Velocity P-wave (km/s) = 6.87770 7.11299 6.99633
#
# Compressibility (1/GPa) = 0.01896109
#
# Stress axis : x y z
#
# Youngs Moduli (GPa) = 70.33736 105.10327 74.26673
#
# Poissons Ratio (x) = 0.23941 0.23975
# Poissons Ratio (y) = 0.16022 0.26823
# Poissons Ratio (z) = 0.22706 0.37960
#
# Static dielectric constant tensor:
#      x y z
#    x 1.773200 0.000000 -0.066440 
#    y 0.000000 1.790310 0.000000 
#    z -0.066440 0.000000 1.728170 
# 
# From -- ./inp_files/258961.got.cif
#   From: 2010.05.17/outbox.cif.g08.bks.cpg/sg15_130_cif.got.tgz:258961.got - 2010.06.03 18:47:42.
