data_PCOD9279805
_publ_section_title
;
Structure prediction by ZEFSAII (Michael W. Deem and Ramdas Pophale) SiO2 
 PCOD9279805
Probable space group: C 2/C
;
_chemical_formula_sum "Si O2"
_cell_formula_units_Z 56
_cell_length_a 16.039393
_cell_length_b 9.666182
_cell_length_c 18.290929
_cell_angle_alpha 90.000000
_cell_angle_beta 67.670081
_cell_angle_gamma 90.000000
_cell_volume 2623.165956
_symmetry_space_group_name_H-M "C 2/C"
_symmetry_group_IT_number 15
_symmetry_cell_setting 'monoclinic'
loop_
_space_group_symop_operation_xyz
x,y,z
-x,y,1/2-z
-x,-y,-z
x,-y,1/2+z
1/2+x,1/2+y,z
1/2-x,1/2+y,1/2-z
1/2-x,1/2-y,-z
1/2+x,1/2-y,1/2+z
loop_
_atom_site_type_symbol
_atom_site_label
_atom_site_fract_x
_atom_site_fract_y
_atom_site_fract_z
Si Si1 0.180319 0.267910 0.183111
Si Si2 0.595189 0.046655 0.887838
Si Si3 0.538173 0.291263 0.623253
Si Si4 0.631977 0.779962 0.945384
Si Si5 0.107649 0.569400 0.227680
Si Si6 0.720925 0.717289 0.341388
Si Si7 0.572623 0.506784 0.910588
O O1 0.089581 0.204100 0.181787
O O2 0.262804 0.214757 0.106894
O O3 0.154348 0.429830 0.180715
O O4 0.202761 0.235416 0.259932
O O5 0.523964 0.156649 0.876361
O O6 0.675907 0.144847 0.888625
O O7 0.581639 0.926212 0.951854
O O8 0.621528 0.954465 0.809237
O O9 0.609767 0.280919 0.532471
O O10 0.478306 0.427645 0.636349
O O11 0.596949 0.666472 0.898389
O O12 0.173479 0.692521 0.180949
O O13 0.000000 0.580072 0.250000
O O14 0.662245 0.586894 0.390168
O O15 0.500000 0.500000 0.000000
#
# Coordination Sequence:
#
# PCOD9279805 Si02
#       7
#     8   8   8   8   8   8   8
#     4  11  21  35  63  88 119 157 209 251 307 361
#     4  10  21  36  59  88 118 157 203 243 308 363
#     4  10  21  38  60  90 118 163 207 247 296 373
#     4  11  20  37  61  86 125 160 201 251 305 362
#     4  11  20  37  61  85 116 157 204 251 310 368
#     4  10  21  37  62  86 121 161 200 256 304 364
#     4   9  20  37  61  89 123 162 199 243 304 360
#
# _framework density 21.34825
#
# number of rings (size 3 to 8) (size 9 to 14) (size 15 to 20)
#    0.000    1.714    4.286    0.857    0.000    0.000 
#    0.000    1.429    0.000    0.857    0.000    0.000 
#    0.000    0.000    0.000    0.000    0.000    0.000 
#
# Total GULP energy -155915.403444 kJ/mol
# GULP energy per Si atom -5568.407266 kJ/mol
# Density = 2.129966 g / cm^3
# Si number density = 21.348250 Si / 1000 Ang^3
#
#
#
# Elastic Constant Matrix: (Units=GPa)
#
#
# Indices 1 2 3 4 5 6 
#
# 1 104.7533 55.4653 6.8868 0.0000 -24.7242 0.0000
# 2 55.4653 120.4563 10.7806 0.0000 -11.4647 0.0000
# 3 6.8868 10.7806 32.5340 0.0000 -22.3797 0.0000
# 4 0.0000 0.0000 0.0000 27.5097 0.0000 -5.5506
# 5 -24.7242 -11.4647 -22.3797 0.0000 30.7299 0.0000
# 6 0.0000 0.0000 0.0000 -5.5506 0.0000 23.9468
#
#
#
# Elastic Compliance Matrix: (Units=1/GPa)
#
#
# Indices 1 2 3 4 5 6 
#
# 1 0.017413 -0.007203 0.013004 0.000000 0.020793 0.000000
# 2 -0.007203 0.011614 -0.006672 0.000000 -0.006321 0.000000
# 3 0.013004 -0.006672 0.071498 0.000000 0.060043 0.000000
# 4 0.000000 0.000000 0.000000 0.038134 0.000000 0.008839
# 5 0.020793 -0.006321 0.060043 0.000000 0.090640 0.000000
# 6 0.000000 0.000000 0.000000 0.008839 0.000000 0.043808
#
#
# Mechanical properties :
#
#
# Convention : Reuss Voigt Hill
#
# Bulk Modulus (GPa) = 10.12323 44.88991 27.50657
# Shear Modulus (GPa) = 16.24559 28.74465 22.49512
#
# Velocity S-wave (km/s) = 2.76158 3.67340 3.24963
# Velocity P-wave (km/s) = 3.86273 6.25019 5.19546
#
# Compressibility (1/GPa) = 0.09878272
#
# Stress axis : x y z
#
# Youngs Moduli (GPa) = 57.42993 86.10463 13.98641
#
# Poissons Ratio (x) = 0.62018 -0.18188
# Poissons Ratio (y) = 0.41364 0.09332
# Poissons Ratio (z) = -0.74680 0.57448
#
# Static dielectric constant tensor:
#      x y z
#    x 1.815590 0.000000 -0.045860 
#    y 0.000000 1.836230 0.000000 
#    z -0.045860 0.000000 1.832930 
# 
# From -- ./inp_files/247330.got.cif
#   From: 2010.05.17/outbox.cif.g08.bks.cpg/sg15_124_cif.got.tgz:247330.got - 2010.06.03 18:47:42.
