data_PCOD9279888
_publ_section_title
;
Structure prediction by ZEFSAII (Michael W. Deem and Ramdas Pophale) SiO2 
 PCOD9279888
Probable space group: C 2/C
;
_chemical_formula_sum "Si O2"
_cell_formula_units_Z 60
_cell_length_a 17.807808
_cell_length_b 17.907503
_cell_length_c 18.133594
_cell_angle_alpha 90.000000
_cell_angle_beta 28.925485
_cell_angle_gamma 90.000000
_cell_volume 2796.920344
_symmetry_space_group_name_H-M "C 2/C"
_symmetry_group_IT_number 15
_symmetry_cell_setting 'monoclinic'
loop_
_space_group_symop_operation_xyz
x,y,z
-x,y,1/2-z
-x,-y,-z
x,-y,1/2+z
1/2+x,1/2+y,z
1/2-x,1/2+y,1/2-z
1/2-x,1/2-y,-z
1/2+x,1/2-y,1/2+z
loop_
_atom_site_type_symbol
_atom_site_label
_atom_site_fract_x
_atom_site_fract_y
_atom_site_fract_z
Si Si1 0.591213 0.260641 0.947568
Si Si2 0.097957 0.602262 0.737500
Si Si3 0.367741 0.684726 0.924171
Si Si4 0.297571 0.108877 0.075432
Si Si5 0.868810 0.356890 0.670119
Si Si6 0.162875 0.445331 0.651762
Si Si7 0.361625 0.714800 0.512927
Si Si8 0.500000 0.367291 0.750000
O O1 0.572509 0.295680 0.045051
O O2 0.537281 0.174756 0.002549
O O3 0.484862 0.292491 0.973080
O O4 0.765134 0.282756 0.774961
O O5 0.205881 0.531517 0.626566
O O6 0.205847 0.670078 0.667957
O O7 0.000000 0.625800 0.750000
O O8 0.961186 0.575163 0.908912
O O9 0.500000 0.682582 0.750000
O O10 0.250000 0.750000 0.000000
O O11 0.280664 0.606000 0.005828
O O12 0.290410 0.100934 0.169176
O O13 0.320294 0.198031 0.041277
O O14 0.143874 0.087806 0.162690
O O15 0.863889 0.405208 0.747186
O O16 0.000000 0.446652 0.750000
O O17 0.429519 0.681978 0.378110
#
# Coordination Sequence:
#
# PCOD9279888 Si02
#       8
#     8   8   8   8   8   8   8   4
#     4  10  21  36  60  97 126 155 207 273 317 367
#     4  11  24  42  60  88 128 173 210 260 324 387
#     4  11  21  40  71 100 127 165 214 265 328 382
#     4  11  23  36  63  90 121 165 215 262 316 376
#     4  10  21  38  60  91 125 157 208 262 318 377
#     4  10  23  44  64  89 129 170 209 264 325 394
#     4  11  23  37  60  92 126 162 212 268 316 375
#     4  12  20  36  60  90 120 160 210 262 308 378
#
# _framework density 21.452165999999998
#
# number of rings (size 3 to 8) (size 9 to 14) (size 15 to 20)
#    0.000    1.333    2.667    4.000    7.467    0.533 
#    1.200    2.667    0.000    0.000    0.000    0.000 
#    0.000    0.000    0.000    0.000    0.000    0.000 
#
# Total GULP energy -167655.840219 kJ/mol
# GULP energy per Si atom -5588.528007 kJ/mol
# Density = 2.140334 g / cm^3
# Si number density = 21.452166 Si / 1000 Ang^3
#
#
#
# Elastic Constant Matrix: (Units=GPa)
#
#
# Indices 1 2 3 4 5 6 
#
# 1 101.4822 12.9186 26.3343 0.0017 17.6112 -0.0005
# 2 12.9186 64.5853 11.7118 0.0019 -14.0783 0.0003
# 3 26.3343 11.7118 89.1084 0.0046 12.9316 -0.0004
# 4 0.0017 0.0019 0.0046 28.5101 -0.0011 -4.0030
# 5 17.6112 -14.0783 12.9316 -0.0011 36.0514 0.0001
# 6 -0.0005 0.0003 -0.0004 -4.0030 0.0001 10.5602
#
#
#
# Elastic Compliance Matrix: (Units=1/GPa)
#
#
# Indices 1 2 3 4 5 6 
#
# 1 0.011955 -0.003393 -0.002160 0.000000 -0.006390 0.000001
# 2 -0.003393 0.018896 -0.002946 0.000000 0.010093 -0.000001
# 3 -0.002160 -0.002946 0.012935 -0.000002 -0.004735 0.000000
# 4 0.000000 0.000000 -0.000002 0.037047 0.000002 0.014043
# 5 -0.006390 0.010093 -0.004735 0.000002 0.036500 0.000000
# 6 0.000001 -0.000001 0.000000 0.014043 0.000000 0.100019
#
#
# Mechanical properties :
#
#
# Convention : Reuss Voigt Hill
#
# Bulk Modulus (GPa) = 37.32731 39.67838 38.50284
# Shear Modulus (GPa) = 20.55258 28.63842 24.59550
#
# Velocity S-wave (km/s) = 3.09862 3.65771 3.38971
# Velocity P-wave (km/s) = 5.49909 6.03116 5.77126
#
# Compressibility (1/GPa) = 0.02679003
#
# Stress axis : x y z
#
# Youngs Moduli (GPa) = 83.64508 52.92061 77.31018
#
# Poissons Ratio (x) = 0.17954 0.16698
# Poissons Ratio (y) = 0.28378 0.22773
# Poissons Ratio (z) = 0.18066 0.15589
#
# Static dielectric constant tensor:
#      x y z
#    x 1.779080 0.000000 0.012160 
#    y 0.000000 1.783620 0.000000 
#    z 0.012160 0.000000 1.858360 
# 
# From -- ./inp_files/211722.got.cif
#   From: 2010.05.17/outbox.cif.g08.bks.cpg/sg15_106_cif.got.tgz:211722.got - 2010.06.03 18:47:42.
