data_PCOD9279006
_publ_section_title
;
Structure prediction by ZEFSAII (Michael W. Deem and Ramdas Pophale) SiO2 
 PCOD9279006
Probable space group: C 2/C
;
_chemical_formula_sum "Si O2"
_cell_formula_units_Z 36
_cell_length_a 11.791751
_cell_length_b 26.794586
_cell_length_c 5.055932
_cell_angle_alpha 90.000000
_cell_angle_beta 74.358965
_cell_angle_gamma 90.000000
_cell_volume 1538.293506
_symmetry_space_group_name_H-M "C 2/C"
_symmetry_group_IT_number 15
_symmetry_cell_setting 'monoclinic'
loop_
_space_group_symop_operation_xyz
x,y,z
-x,y,1/2-z
-x,-y,-z
x,-y,1/2+z
1/2+x,1/2+y,z
1/2-x,1/2+y,1/2-z
1/2-x,1/2-y,-z
1/2+x,1/2-y,1/2+z
loop_
_atom_site_type_symbol
_atom_site_label
_atom_site_fract_x
_atom_site_fract_y
_atom_site_fract_z
Si Si1 0.110530 0.307189 0.009259
Si Si2 0.000000 0.463853 0.250000
Si Si3 0.676480 0.713101 0.731033
Si Si4 0.783705 0.595547 0.129165
Si Si5 0.367102 0.601795 0.797291
O O1 0.227551 0.301729 0.110409
O O2 0.000000 0.322470 0.250000
O O3 0.084587 0.252211 0.913257
O O4 0.148731 0.354010 0.808373
O O5 0.000000 0.500000 0.500000
O O6 0.885187 0.431423 0.394993
O O7 0.750000 0.750000 0.500000
O O8 0.631570 0.661734 0.637329
O O9 0.721429 0.576118 0.435845
O O10 0.679817 0.599390 0.974168
O O11 0.500000 0.583155 0.750000
#
# Coordination Sequence:
#
# PCOD9279006 Si02
#       5
#     8   4   8   8   8
#     4  10  21  35  55  81 126 175 222 277 320 384
#     4  12  26  48  80 108 134 164 214 290 356 424
#     4  10  21  34  50  85 126 179 229 265 310 365
#     4  11  23  45  67  99 131 173 220 272 353 403
#     4  11  24  40  67  95 139 184 229 272 321 397
#
# _framework density 23.402556000000001
#
# number of rings (size 3 to 8) (size 9 to 14) (size 15 to 20)
#    0.000    1.333    3.333    2.000    3.111    0.000 
#    0.000    0.000    0.000   13.333    0.000    0.000 
#    0.000    0.000    0.000    0.000    0.000    0.000 
#
# Total GULP energy -100331.315921 kJ/mol
# GULP energy per Si atom -5573.961996 kJ/mol
# Density = 2.334929 g / cm^3
# Si number density = 23.402556 Si / 1000 Ang^3
#
#
#
# Elastic Constant Matrix: (Units=GPa)
#
#
# Indices 1 2 3 4 5 6 
#
# 1 86.2896 11.1555 11.7077 0.0000 -12.2099 0.0000
# 2 11.1555 23.5104 -0.6875 0.0000 -3.6640 0.0000
# 3 11.7077 -0.6875 101.9846 0.0000 -11.7453 0.0000
# 4 0.0000 0.0000 0.0000 5.4397 0.0000 21.4663
# 5 -12.2099 -3.6640 -11.7453 0.0000 42.4931 0.0000
# 6 0.0000 0.0000 0.0000 21.4663 0.0000 -7.3522
#
#
#
# Elastic Compliance Matrix: (Units=1/GPa)
#
#
# Indices 1 2 3 4 5 6 
#
# 1 0.012896 -0.005704 -0.001187 0.000000 0.002886 0.000000
# 2 -0.005704 0.045691 0.001268 0.000000 0.002651 0.000000
# 3 -0.001187 0.001268 0.010250 0.000000 0.002601 0.000000
# 4 0.000000 0.000000 0.000000 0.014681 0.000000 0.042864
# 5 0.002886 0.002651 0.002601 0.000000 0.025310 0.000000
# 6 0.000000 0.000000 0.000000 0.042864 0.000000 -0.010862
#
#
# Mechanical properties :
#
#
# Convention : Reuss Voigt Hill
#
# Bulk Modulus (GPa) = 17.36352 28.45956 22.91154
# Shear Modulus (GPa) = 38.93866 20.75671 29.84769
#
# Velocity S-wave (km/s) = 4.08347 2.98139 3.57515
# Velocity P-wave (km/s) = 5.44689 4.90294 5.18206
#
# Compressibility (1/GPa) = 0.05759201
#
# Stress axis : x y z
#
# Youngs Moduli (GPa) = 77.54599 21.88610 97.56325
#
# Poissons Ratio (x) = 0.12483 0.11576
# Poissons Ratio (y) = 0.44231 -0.12372
# Poissons Ratio (z) = 0.09201 -0.02775
#
# Static dielectric constant tensor:
#      x y z
#    x 1.869740 0.000000 -0.054260 
#    y 0.000000 2.107350 0.000000 
#    z -0.054260 0.000000 2.182460 
# 
# From -- ./inp_files/4839.got.cif
#   From: 2010.05.17/outbox.cif.g08.bks.cpg/sg15_3_cif.got.tgz:4839.got - 2010.06.03 18:47:42.
