data_PCOD9279748
_publ_section_title
;
Structure prediction by ZEFSAII (Michael W. Deem and Ramdas Pophale) SiO2 
 PCOD9279748
Probable space group: C 2/C
;
_chemical_formula_sum "Si O2"
_cell_formula_units_Z 48
_cell_length_a 8.554262
_cell_length_b 10.829845
_cell_length_c 26.619617
_cell_angle_alpha 90.000000
_cell_angle_beta 126.466471
_cell_angle_gamma 90.000000
_cell_volume 1983.230791
_symmetry_space_group_name_H-M "C 2/C"
_symmetry_group_IT_number 15
_symmetry_cell_setting 'monoclinic'
loop_
_space_group_symop_operation_xyz
x,y,z
-x,y,1/2-z
-x,-y,-z
x,-y,1/2+z
1/2+x,1/2+y,z
1/2-x,1/2+y,1/2-z
1/2-x,1/2-y,-z
1/2+x,1/2-y,1/2+z
loop_
_atom_site_type_symbol
_atom_site_label
_atom_site_fract_x
_atom_site_fract_y
_atom_site_fract_z
Si Si1 0.984741 0.611388 0.557518
Si Si2 0.176575 0.827871 0.915637
Si Si3 0.577351 0.593318 0.896276
Si Si4 0.820597 0.839526 0.254113
Si Si5 0.001446 0.344933 0.593043
Si Si6 0.393525 0.082634 0.282012
O O1 0.212590 0.606543 0.589896
O O2 0.918802 0.469528 0.552685
O O3 0.933790 0.702724 0.593204
O O4 0.867868 0.666067 0.487923
O O5 0.269076 0.841495 0.878147
O O6 0.059915 0.950953 0.908532
O O7 0.405984 0.618624 0.824113
O O8 0.568525 0.707244 0.933147
O O9 0.746377 0.698276 0.244212
O O10 0.000000 0.831713 0.250000
O O11 0.689074 0.954164 0.213894
O O12 0.974000 0.365618 0.647435
O O13 0.500000 0.058892 0.250000
#
# Coordination Sequence:
#
# PCOD9279748 Si02
#       6
#     8   8   8   8   8   8
#     4  10  22  39  58  85 118 149 189 238 282 336
#     4  10  22  38  58  85 116 152 191 232 284 339
#     4  10  21  36  58  84 114 151 189 233 283 335
#     4  10  21  38  58  83 113 149 189 232 283 335
#     4  10  21  38  59  84 114 150 190 233 282 339
#     4  10  23  39  57  85 116 147 188 235 281 337
#
# _framework density 24.202931
#
# number of rings (size 3 to 8) (size 9 to 14) (size 15 to 20)
#    0.000    2.000    0.000    4.000    0.000   12.667 
#    0.000    3.333    0.000    0.000    0.000    0.000 
#    0.000    0.000    0.000    0.000    0.000    0.000 
#
# Total GULP energy -133999.649849 kJ/mol
# GULP energy per Si atom -5583.318744 kJ/mol
# Density = 2.414784 g / cm^3
# Si number density = 24.202931 Si / 1000 Ang^3
#
#
#
# Elastic Constant Matrix: (Units=GPa)
#
#
# Indices 1 2 3 4 5 6 
#
# 1 43.4758 55.6429 -2.2998 0.0000 -17.6838 0.0000
# 2 55.6429 222.5475 3.0241 0.0000 3.2423 0.0000
# 3 -2.2998 3.0241 35.5215 0.0000 -5.4456 0.0000
# 4 0.0000 0.0000 0.0000 37.5543 0.0000 -3.2356
# 5 -17.6838 3.2423 -5.4456 0.0000 27.3758 0.0000
# 6 0.0000 0.0000 0.0000 -3.2356 0.0000 38.6423
#
#
#
# Elastic Compliance Matrix: (Units=1/GPa)
#
#
# Indices 1 2 3 4 5 6 
#
# 1 0.063638 -0.016746 0.012534 0.000000 0.045585 0.000000
# 2 -0.016746 0.008916 -0.003779 0.000000 -0.012625 0.000000
# 3 0.012534 -0.003779 0.031557 0.000000 0.014822 0.000000
# 4 0.000000 0.000000 0.000000 0.026822 0.000000 0.002246
# 5 0.045585 -0.012625 0.014822 0.000000 0.070418 0.000000
# 6 0.000000 0.000000 0.000000 0.002246 0.000000 0.026066
#
#
# Mechanical properties :
#
#
# Convention : Reuss Voigt Hill
#
# Bulk Modulus (GPa) = 11.34680 46.03103 28.68892
# Shear Modulus (GPa) = 18.33014 37.05965 27.69490
#
# Velocity S-wave (km/s) = 2.75499 3.91731 3.38639
# Velocity P-wave (km/s) = 3.84946 6.28653 5.21243
#
# Compressibility (1/GPa) = 0.08813054
#
# Stress axis : x y z
#
# Youngs Moduli (GPa) = 15.71385 112.16315 31.68834
#
# Poissons Ratio (x) = 1.87825 -0.39718
# Poissons Ratio (y) = 0.26314 0.11974
# Poissons Ratio (z) = -0.19696 0.42382
#
# Static dielectric constant tensor:
#      x y z
#    x 1.941300 0.000000 -0.004770 
#    y 0.000000 1.998200 0.000000 
#    z -0.004770 0.000000 2.010030 
# 
# From -- ./inp_files/287783.got.cif
#   From: 2010.05.17/outbox.cif.g08.bks.cpg/sg15_144_cif.got.tgz:287783.got - 2010.06.03 18:47:42.
