data_PCOD9279459
_publ_section_title
;
Structure prediction by ZEFSAII (Michael W. Deem and Ramdas Pophale) SiO2 
 PCOD9279459
Probable space group: C 2/C
;
_chemical_formula_sum "Si O2"
_cell_formula_units_Z 60
_cell_length_a 16.979654
_cell_length_b 9.164774
_cell_length_c 22.264217
_cell_angle_alpha 90.000000
_cell_angle_beta 52.029290
_cell_angle_gamma 90.000000
_cell_volume 2731.263065
_symmetry_space_group_name_H-M "C 2/C"
_symmetry_group_IT_number 15
_symmetry_cell_setting 'monoclinic'
loop_
_space_group_symop_operation_xyz
x,y,z
-x,y,1/2-z
-x,-y,-z
x,-y,1/2+z
1/2+x,1/2+y,z
1/2-x,1/2+y,1/2-z
1/2-x,1/2-y,-z
1/2+x,1/2-y,1/2+z
loop_
_atom_site_type_symbol
_atom_site_label
_atom_site_fract_x
_atom_site_fract_y
_atom_site_fract_z
Si Si1 0.449806 0.375448 0.103953
Si Si2 0.169854 0.815844 0.214940
Si Si3 0.006372 0.155962 0.363421
Si Si4 0.643723 0.097661 0.813440
Si Si5 0.468311 0.070016 0.451935
Si Si6 0.244869 0.508555 0.647547
Si Si7 0.672596 0.876731 0.054441
Si Si8 0.000000 0.976035 0.250000
O O1 0.396963 0.322373 0.192004
O O2 0.517526 0.517771 0.084142
O O3 0.357451 0.432573 0.106800
O O4 0.517871 0.243229 0.049302
O O5 0.261975 0.922879 0.187238
O O6 0.215708 0.659197 0.176650
O O7 0.096653 0.873541 0.197207
O O8 0.029024 0.080725 0.290163
O O9 0.924992 0.277744 0.390286
O O10 0.099466 0.242577 0.346217
O O11 0.556743 0.983112 0.865996
O O12 0.680235 0.093990 0.728138
O O13 0.365331 0.999171 0.475788
O O14 0.500000 0.000000 0.500000
O O15 0.210149 0.546812 0.597094
O O16 0.750000 0.750000 0.000000
#
# Coordination Sequence:
#
# PCOD9279459 Si02
#       8
#     8   8   8   8   8   8   8   4
#     4  10  21  40  63  92 125 165 212 256 326 378
#     4  10  21  35  60  99 129 160 203 268 314 387
#     4  10  21  40  60  91 125 161 208 260 311 382
#     4  10  21  40  64  96 122 169 214 252 327 376
#     4  11  24  43  66  90 129 172 217 264 316 397
#     4  11  21  38  69  90 136 157 213 271 312 383
#     4  11  26  44  63  94 127 173 218 261 333 385
#     4  10  22  32  62  94 132 154 202 260 330 364
#
# _framework density 21.967859000000001
#
# number of rings (size 3 to 8) (size 9 to 14) (size 15 to 20)
#    0.000    1.600    2.667    1.600    3.733    3.733 
#    2.400    2.667    0.000    0.000    0.000    0.000 
#    0.000    0.000    0.000    0.000    0.000    0.000 
#
# Total GULP energy -167310.720499 kJ/mol
# GULP energy per Si atom -5577.024017 kJ/mol
# Density = 2.191786 g / cm^3
# Si number density = 21.967859 Si / 1000 Ang^3
#
#
#
# Elastic Constant Matrix: (Units=GPa)
#
#
# Indices 1 2 3 4 5 6 
#
# 1 92.8850 18.5014 -2.7076 0.0000 11.1934 0.0001
# 2 18.5014 94.4511 -16.2046 0.0000 2.5076 0.0002
# 3 -2.7076 -16.2046 18.6010 0.0000 9.1407 0.0000
# 4 0.0000 0.0000 0.0000 17.6831 0.0000 -0.0419
# 5 11.1934 2.5076 9.1407 0.0000 25.1600 0.0000
# 6 0.0001 0.0002 0.0000 -0.0419 0.0000 29.1932
#
#
#
# Elastic Compliance Matrix: (Units=1/GPa)
#
#
# Indices 1 2 3 4 5 6 
#
# 1 0.011959 -0.001562 0.003552 0.000000 -0.006455 0.000000
# 2 -0.001562 0.013532 0.014465 0.000000 -0.005909 0.000000
# 3 0.003552 0.014465 0.083222 0.000000 -0.033257 0.000000
# 4 0.000000 0.000000 0.000000 0.056551 0.000000 0.000081
# 5 -0.006455 -0.005909 -0.033257 0.000000 0.055289 0.000000
# 6 0.000000 0.000000 0.000000 0.000081 0.000000 0.034255
#
#
# Mechanical properties :
#
#
# Convention : Reuss Voigt Hill
#
# Bulk Modulus (GPa) = 7.06090 22.79061 14.92575
# Shear Modulus (GPa) = 18.58016 28.16378 23.37197
#
# Velocity S-wave (km/s) = 2.91140 3.58445 3.26531
# Velocity P-wave (km/s) = 3.81088 5.24672 4.58535
#
# Compressibility (1/GPa) = 0.14162510
#
# Stress axis : x y z
#
# Youngs Moduli (GPa) = 83.62248 73.89877 12.01598
#
# Poissons Ratio (x) = 0.11540 -0.04269
# Poissons Ratio (y) = 0.13059 -0.17381
# Poissons Ratio (z) = -0.29706 -1.06897
#
# Static dielectric constant tensor:
#      x y z
#    x 1.854670 0.000000 -0.011280 
#    y 0.000000 1.826970 0.000000 
#    z -0.011280 0.000000 1.856180 
# 
# From -- ./inp_files/276553.got.cif
#   From: 2010.05.17/outbox.cif.g08.bks.cpg/sg15_139_cif.got.tgz:276553.got - 2010.06.03 18:47:42.
