data_PCOD9279939
_publ_section_title
;
Structure prediction by ZEFSAII (Michael W. Deem and Ramdas Pophale) SiO2 
 PCOD9279939
Probable space group: C 2/C
;
_chemical_formula_sum "Si O2"
_cell_formula_units_Z 64
_cell_length_a 21.608793
_cell_length_b 5.093803
_cell_length_c 27.036820
_cell_angle_alpha 90.000000
_cell_angle_beta 103.278581
_cell_angle_gamma 90.000000
_cell_volume 2896.404959
_symmetry_space_group_name_H-M "C 2/C"
_symmetry_group_IT_number 15
_symmetry_cell_setting 'monoclinic'
loop_
_space_group_symop_operation_xyz
x,y,z
-x,y,1/2-z
-x,-y,-z
x,-y,1/2+z
1/2+x,1/2+y,z
1/2-x,1/2+y,1/2-z
1/2-x,1/2-y,-z
1/2+x,1/2-y,1/2+z
loop_
_atom_site_type_symbol
_atom_site_label
_atom_site_fract_x
_atom_site_fract_y
_atom_site_fract_z
Si Si1 0.681562 0.982861 0.082038
Si Si2 0.797698 0.786907 0.323683
Si Si3 0.069627 0.607719 0.366126
Si Si4 0.673335 0.479633 0.766480
Si Si5 0.986406 0.711578 0.041560
Si Si6 0.448485 0.371388 0.700271
Si Si7 0.207730 0.669077 0.364230
Si Si8 0.108097 0.963852 0.037136
O O1 0.669274 0.068903 0.136731
O O2 0.658146 0.223489 0.043158
O O3 0.755669 0.893774 0.097576
O O4 0.642143 0.726425 0.061106
O O5 0.740086 0.671109 0.280523
O O6 0.840436 0.934152 0.291816
O O7 0.761755 0.964860 0.357680
O O8 0.040846 0.580581 0.414868
O O9 0.036687 0.397589 0.324539
O O10 0.145979 0.558537 0.379994
O O11 0.060853 0.898042 0.341539
O O12 0.616434 0.322706 0.780972
O O13 0.683618 0.714536 0.807520
O O14 0.935029 0.933534 0.016204
O O15 0.053550 0.853093 0.063440
O O16 0.000000 0.500000 0.000000
O O17 0.500000 0.451700 0.750000
#
# Coordination Sequence:
#
# PCOD9279939 Si02
#       8
#     8   8   8   8   8   8   8   8
#     4  11  23  40  68  99 139 170 216 291 343 401
#     4  11  19  36  64  99 134 184 224 274 342 389
#     4  11  26  46  73  97 135 189 230 271 350 410
#     4  10  21  36  61  95 136 180 230 273 323 406
#     4  11  26  48  77  98 134 182 233 287 341 413
#     4  11  25  46  66  99 145 182 226 280 328 408
#     4  10  21  41  64  95 136 177 225 272 340 410
#     4  11  24  45  68 100 136 163 226 290 342 400
#
# _framework density 22.096359
#
# number of rings (size 3 to 8) (size 9 to 14) (size 15 to 20)
#    0.000    1.250    5.000    0.375    3.500    1.000 
#    2.250    1.250    0.000    0.000    0.000    0.000 
#    0.000    0.000    0.000    0.000    0.000    0.000 
#
# Total GULP energy -178644.714623 kJ/mol
# GULP energy per Si atom -5582.647332 kJ/mol
# Density = 2.204607 g / cm^3
# Si number density = 22.096359 Si / 1000 Ang^3
#
#
#
# Elastic Constant Matrix: (Units=GPa)
#
#
# Indices 1 2 3 4 5 6 
#
# 1 29.7486 6.7349 30.8535 -0.0001 -1.0185 0.0000
# 2 6.7349 94.0563 11.9973 -0.0005 -0.8818 0.0003
# 3 30.8535 11.9973 49.1512 -0.0002 -16.3284 0.0002
# 4 -0.0001 -0.0005 -0.0002 29.1410 0.0000 8.1692
# 5 -1.0185 -0.8818 -16.3284 0.0000 39.4591 0.0000
# 6 0.0000 0.0003 0.0002 8.1692 0.0000 19.9634
#
#
#
# Elastic Compliance Matrix: (Units=1/GPa)
#
#
# Indices 1 2 3 4 5 6 
#
# 1 0.127426 0.002298 -0.092101 -0.000001 -0.034771 0.000001
# 2 0.002298 0.011049 -0.004681 0.000000 -0.001631 0.000000
# 3 -0.092101 -0.004681 0.090985 0.000001 0.035168 -0.000001
# 4 -0.000001 0.000000 0.000001 0.038763 0.000000 -0.015862
# 5 -0.034771 -0.001631 0.035168 0.000000 0.038962 0.000000
# 6 0.000001 0.000000 -0.000001 -0.015862 0.000000 0.056582
#
#
# Mechanical properties :
#
#
# Convention : Reuss Voigt Hill
#
# Bulk Modulus (GPa) = 24.69623 30.23639 27.46631
# Shear Modulus (GPa) = 8.83028 25.93739 17.38384
#
# Velocity S-wave (km/s) = 2.00123 3.42984 2.80791
# Velocity P-wave (km/s) = 4.06704 5.42205 4.79267
#
# Compressibility (1/GPa) = 0.04049201
#
# Stress axis : x y z
#
# Youngs Moduli (GPa) = 7.84768 90.50427 10.99078
#
# Poissons Ratio (x) = -0.20794 1.01226
# Poissons Ratio (y) = -0.01803 0.05145
# Poissons Ratio (z) = 0.72278 0.42365
#
# Static dielectric constant tensor:
#      x y z
#    x 1.840620 0.000000 0.025120 
#    y 0.000000 1.868380 0.000000 
#    z 0.025120 0.000000 1.801310 
# 
# From -- ./inp_files/299914.got.cif
#   From: 2010.05.17/outbox.cif.g08.bks.cpg/sg15_150_cif.got.tgz:299914.got - 2010.06.03 18:47:42.
