data_PCOD9279026
_publ_section_title
;
Structure prediction by ZEFSAII (Michael W. Deem and Ramdas Pophale) SiO2 
 PCOD9279026
Probable space group: C 2/C
;
_chemical_formula_sum "Si O2"
_cell_formula_units_Z 44
_cell_length_a 9.870602
_cell_length_b 27.516236
_cell_length_c 8.922439
_cell_angle_alpha 90.000000
_cell_angle_beta 59.806316
_cell_angle_gamma 90.000000
_cell_volume 2094.575239
_symmetry_space_group_name_H-M "C 2/C"
_symmetry_group_IT_number 15
_symmetry_cell_setting 'monoclinic'
loop_
_space_group_symop_operation_xyz
x,y,z
-x,y,1/2-z
-x,-y,-z
x,-y,1/2+z
1/2+x,1/2+y,z
1/2-x,1/2+y,1/2-z
1/2-x,1/2-y,-z
1/2+x,1/2-y,1/2+z
loop_
_atom_site_type_symbol
_atom_site_label
_atom_site_fract_x
_atom_site_fract_y
_atom_site_fract_z
Si Si1 0.332561 0.222678 0.149532
Si Si2 0.000000 0.910872 0.250000
Si Si3 0.000000 0.687495 0.750000
Si Si4 0.000000 0.641707 0.250000
Si Si5 0.500000 0.024458 0.750000
Si Si6 0.000000 0.808468 0.750000
Si Si7 0.161783 0.834294 0.369918
Si Si8 0.159519 0.557846 0.963135
O O1 0.386141 0.179425 0.227717
O O2 0.370400 0.278685 0.167507
O O3 0.144070 0.220242 0.245536
O O4 0.413005 0.212311 0.943173
O O5 0.931130 0.874280 0.166357
O O6 0.846648 0.940898 0.375556
O O7 0.849294 0.660095 0.765567
O O8 0.912652 0.605866 0.415442
O O9 0.599120 0.052541 0.824169
O O10 0.604090 0.988560 0.589951
O O11 0.093477 0.837862 0.574479
#
# Coordination Sequence:
#
# PCOD9279026 Si02
#       8
#     8   4   4   4   4   4   8   8
#     4  11  20  36  55  81 122 171 208 246 286 332
#     4  12  25  36  59  97 127 148 198 247 291 348
#     4  10  21  35  56  73 109 174 225 245 282 331
#     4  11  23  36  58  91 125 158 203 237 289 355
#     4   9  22  49  74  86 116 152 185 234 317 376
#     4  10  21  34  53  75 109 166 227 253 279 324
#     4  11  21  37  54  83 125 168 204 248 289 331
#     4  10  23  44  68  95 117 149 190 243 299 371
#
# _framework density 21.006647000000001
#
# number of rings (size 3 to 8) (size 9 to 14) (size 15 to 20)
#    0.000    1.455    0.000    7.091    0.000    5.091 
#    0.000    7.273    0.000    2.182    0.000    0.000 
#    0.000    0.000    0.000    0.000    0.000    0.000 
#
# Total GULP energy -122687.502517 kJ/mol
# GULP energy per Si atom -5576.704660 kJ/mol
# Density = 2.095883 g / cm^3
# Si number density = 21.006647 Si / 1000 Ang^3
#
#
#
# Elastic Constant Matrix: (Units=GPa)
#
#
# Indices 1 2 3 4 5 6 
#
# 1 162.6436 57.8209 71.8625 0.0000 -24.1850 0.0000
# 2 57.8209 105.5708 40.7846 0.0000 -2.3875 0.0000
# 3 71.8625 40.7846 98.8419 0.0000 -21.7889 0.0000
# 4 0.0000 0.0000 0.0000 22.8100 0.0000 10.7565
# 5 -24.1850 -2.3875 -21.7889 0.0000 43.6817 0.0000
# 6 0.0000 0.0000 0.0000 10.7565 0.0000 56.1069
#
#
#
# Elastic Compliance Matrix: (Units=1/GPa)
#
#
# Indices 1 2 3 4 5 6 
#
# 1 0.010140 -0.003424 -0.005352 0.000000 0.002758 0.000000
# 2 -0.003424 0.012569 -0.003329 0.000000 -0.002869 0.000000
# 3 -0.005352 -0.003329 0.016503 0.000000 0.005087 0.000000
# 4 0.000000 0.000000 0.000000 0.048198 0.000000 -0.009240
# 5 0.002758 -0.002869 0.005087 0.000000 0.026800 0.000000
# 6 0.000000 0.000000 0.000000 -0.009240 0.000000 0.019595
#
#
# Mechanical properties :
#
#
# Convention : Reuss Voigt Hill
#
# Bulk Modulus (GPa) = 66.65645 78.66581 72.66113
# Shear Modulus (GPa) = 30.67173 37.62561 34.14867
#
# Velocity S-wave (km/s) = 3.82527 4.23676 4.03626
# Velocity P-wave (km/s) = 7.16312 7.83983 7.50910
#
# Compressibility (1/GPa) = 0.01500230
#
# Stress axis : x y z
#
# Youngs Moduli (GPa) = 98.61594 79.56114 60.59376
#
# Poissons Ratio (x) = 0.27241 0.32428
# Poissons Ratio (y) = 0.33766 0.20174
# Poissons Ratio (z) = 0.52777 0.26489
#
# Static dielectric constant tensor:
#      x y z
#    x 1.813400 0.000000 0.031980 
#    y 0.000000 1.826340 0.000000 
#    z 0.031980 0.000000 1.767330 
# 
# From -- ./inp_files/25527.got.cif
#   From: 2010.05.17/outbox.cif.g08.bks.cpg/sg15_13_cif.got.tgz:25527.got - 2010.06.03 18:47:42.
