data_PCOD9279539
_publ_section_title
;
Structure prediction by ZEFSAII (Michael W. Deem and Ramdas Pophale) SiO2 
 PCOD9279539
Probable space group: C 2/C
;
_chemical_formula_sum "Si O2"
_cell_formula_units_Z 52
_cell_length_a 19.057363
_cell_length_b 12.461740
_cell_length_c 19.149098
_cell_angle_alpha 90.000000
_cell_angle_beta 34.345024
_cell_angle_gamma 90.000000
_cell_volume 2565.687038
_symmetry_space_group_name_H-M "C 2/C"
_symmetry_group_IT_number 15
_symmetry_cell_setting 'monoclinic'
loop_
_space_group_symop_operation_xyz
x,y,z
-x,y,1/2-z
-x,-y,-z
x,-y,1/2+z
1/2+x,1/2+y,z
1/2-x,1/2+y,1/2-z
1/2-x,1/2-y,-z
1/2+x,1/2-y,1/2+z
loop_
_atom_site_type_symbol
_atom_site_label
_atom_site_fract_x
_atom_site_fract_y
_atom_site_fract_z
Si Si1 0.697369 0.235783 0.269902
Si Si2 0.928567 0.518518 0.874354
Si Si3 0.599436 0.639468 0.288658
Si Si4 0.635577 0.998459 0.309425
Si Si5 0.000000 0.281353 0.250000
Si Si6 0.769231 0.566743 0.623691
Si Si7 0.596741 0.411744 0.448153
O O1 0.814180 0.198863 0.223485
O O2 0.631496 0.125976 0.304304
O O3 0.732637 0.312600 0.175981
O O4 0.606117 0.308356 0.391228
O O5 0.899984 0.635424 0.866481
O O6 0.000000 0.463277 0.750000
O O7 0.026581 0.549474 0.854023
O O8 0.826617 0.451342 0.000086
O O9 0.579571 0.710205 0.237231
O O10 0.662155 0.523767 0.221742
O O11 0.461044 0.622397 0.431766
O O12 0.638363 0.964974 0.388058
O O13 0.766274 0.960500 0.168975
O O14 0.500000 0.500000 0.500000
#
# Coordination Sequence:
#
# PCOD9279539 Si02
#       7
#     8   8   8   8   4   8   8
#     4  10  21  35  65  91 117 160 205 253 310 349
#     4  10  24  40  57  88 125 162 201 250 302 369
#     4  11  23  39  61  97 120 166 194 256 310 364
#     4  10  21  38  64  92 121 161 201 260 303 356
#     4  10  24  38  60  84 126 164 196 232 322 370
#     4  10  21  39  60  89 124 148 217 252 295 362
#     4  11  20  39  58  94 128 145 206 260 301 356
#
# _framework density 20.267475999999998
#
# number of rings (size 3 to 8) (size 9 to 14) (size 15 to 20)
#    0.462    1.231    4.615    2.308    6.462    1.846 
#    0.000    0.769    1.692    0.000    0.000    0.000 
#    0.000    0.000    0.000    0.000    0.000    0.000 
#
# Total GULP energy -144896.746672 kJ/mol
# GULP energy per Si atom -5572.951795 kJ/mol
# Density = 2.022135 g / cm^3
# Si number density = 20.267476 Si / 1000 Ang^3
#
#
#
# Elastic Constant Matrix: (Units=GPa)
#
#
# Indices 1 2 3 4 5 6 
#
# 1 22.8977 13.7184 4.5905 0.0000 15.5639 0.0000
# 2 13.7184 97.2440 5.6239 0.0000 20.7748 0.0000
# 3 4.5905 5.6239 83.9575 0.0000 28.8989 0.0000
# 4 0.0000 0.0000 0.0000 25.7159 0.0000 7.6100
# 5 15.5639 20.7748 28.8989 0.0000 28.1571 0.0000
# 6 0.0000 0.0000 0.0000 7.6100 0.0000 33.7246
#
#
#
# Elastic Compliance Matrix: (Units=1/GPa)
#
#
# Indices 1 2 3 4 5 6 
#
# 1 0.084077 0.001148 0.017959 0.000000 -0.065752 0.000000
# 2 0.001148 0.012939 0.003982 0.000000 -0.014268 0.000000
# 3 0.017959 0.003982 0.023333 0.000000 -0.036813 0.000000
# 4 0.000000 0.000000 0.000000 0.041669 0.000000 -0.009403
# 5 -0.065752 -0.014268 -0.036813 0.000000 0.120169 0.000000
# 6 0.000000 0.000000 0.000000 -0.009403 0.000000 0.031774
#
#
# Mechanical properties :
#
#
# Convention : Reuss Voigt Hill
#
# Bulk Modulus (GPa) = 6.00508 27.99607 17.00058
# Shear Modulus (GPa) = 15.46576 29.53060 22.49818
#
# Velocity S-wave (km/s) = 2.76539 3.82127 3.33538
# Velocity P-wave (km/s) = 3.62848 5.77172 4.82071
#
# Compressibility (1/GPa) = 0.16652570
#
# Stress axis : x y z
#
# Youngs Moduli (GPa) = 11.89381 77.28361 42.85707
#
# Poissons Ratio (x) = -0.08869 -0.76966
# Poissons Ratio (y) = -0.01365 -0.17064
# Poissons Ratio (z) = -0.21360 -0.30771
#
# Static dielectric constant tensor:
#      x y z
#    x 1.748620 0.000000 0.008200 
#    y 0.000000 1.764850 0.000000 
#    z 0.008200 0.000000 1.809260 
# 
# From -- ./inp_files/252704.got.cif
#   From: 2010.05.17/outbox.cif.g08.bks.cpg/sg15_127_cif.got.tgz:252704.got - 2010.06.03 18:47:42.
