data_PCOD9279974
_publ_section_title
;
Structure prediction by ZEFSAII (Michael W. Deem and Ramdas Pophale) SiO2 
 PCOD9279974
Probable space group: C 2/C
;
_chemical_formula_sum "Si O2"
_cell_formula_units_Z 60
_cell_length_a 8.470435
_cell_length_b 11.382277
_cell_length_c 30.324842
_cell_angle_alpha 90.000000
_cell_angle_beta 80.112156
_cell_angle_gamma 90.000000
_cell_volume 2880.274722
_symmetry_space_group_name_H-M "C 2/C"
_symmetry_group_IT_number 15
_symmetry_cell_setting 'monoclinic'
loop_
_space_group_symop_operation_xyz
x,y,z
-x,y,1/2-z
-x,-y,-z
x,-y,1/2+z
1/2+x,1/2+y,z
1/2-x,1/2+y,1/2-z
1/2-x,1/2-y,-z
1/2+x,1/2-y,1/2+z
loop_
_atom_site_type_symbol
_atom_site_label
_atom_site_fract_x
_atom_site_fract_y
_atom_site_fract_z
Si Si1 0.158701 0.866628 0.861716
Si Si2 0.500000 0.981627 0.750000
Si Si3 0.102772 0.237825 0.066056
Si Si4 0.433987 0.809996 0.579047
Si Si5 0.399610 0.339263 0.492465
Si Si6 0.368902 0.459204 0.218594
Si Si7 0.499163 0.214340 0.175357
Si Si8 0.790314 0.504744 0.441921
O O1 0.119197 0.946181 0.821534
O O2 0.309965 0.782927 0.843608
O O3 0.211753 0.951102 0.899812
O O4 0.013532 0.791231 0.887779
O O5 0.324163 0.044873 0.761064
O O6 0.517570 0.896309 0.791446
O O7 0.265987 0.167709 0.064446
O O8 0.153970 0.372676 0.062929
O O9 0.015026 0.205393 0.025485
O O10 0.510501 0.686965 0.557519
O O11 0.417189 0.805276 0.632171
O O12 0.555035 0.912633 0.560661
O O13 0.250000 0.250000 0.500000
O O14 0.328290 0.462769 0.512135
O O15 0.500000 0.492775 0.250000
O O16 0.427479 0.331085 0.200038
#
# Coordination Sequence:
#
# PCOD9279974 Si02
#       8
#     8   4   8   8   8   8   8   8
#     4   9  22  41  59  91 128 153 204 261 298 374
#     4  10  24  46  66  96 130 154 210 272 302 394
#     4  11  21  37  63  92 119 164 211 247 305 369
#     4  10  21  36  62  91 121 161 210 255 302 369
#     4   9  20  39  58  85 128 163 202 260 301 353
#     4  11  23  44  69  93 124 167 205 257 330 377
#     4  10  21  45  64  89 129 162 200 258 320 366
#     4   9  20  40  60  84 126 167 201 254 309 352
#
# _framework density 20.831347000000001
#
# number of rings (size 3 to 8) (size 9 to 14) (size 15 to 20)
#    0.000    2.133    0.667    2.000    1.867    3.733 
#    8.400    8.000    0.000    0.000    0.000    0.000 
#    0.000    0.000    0.000    0.000    0.000    0.000 
#
# Total GULP energy -167551.285568 kJ/mol
# GULP energy per Si atom -5585.042852 kJ/mol
# Density = 2.078393 g / cm^3
# Si number density = 20.831347 Si / 1000 Ang^3
#
#
#
# Elastic Constant Matrix: (Units=GPa)
#
#
# Indices 1 2 3 4 5 6 
#
# 1 153.5860 62.3491 58.9881 0.0000 11.9361 0.0000
# 2 62.3491 95.1095 29.6464 0.0000 -8.8243 0.0000
# 3 58.9881 29.6464 81.7694 0.0000 -0.5682 0.0000
# 4 0.0000 0.0000 0.0000 26.6840 0.0000 -10.2473
# 5 11.9361 -8.8243 -0.5682 0.0000 37.3263 0.0000
# 6 0.0000 0.0000 0.0000 -10.2473 0.0000 -2.1101
#
#
#
# Elastic Compliance Matrix: (Units=1/GPa)
#
#
# Indices 1 2 3 4 5 6 
#
# 1 0.011955 -0.006359 -0.006357 0.000000 -0.005423 0.000000
# 2 -0.006359 0.015523 -0.001001 0.000000 0.005688 0.000000
# 3 -0.006357 -0.001001 0.017192 0.000000 0.002058 0.000000
# 4 0.000000 0.000000 0.000000 0.013081 0.000000 -0.063524
# 5 -0.005423 0.005688 0.002058 0.000000 0.029901 0.000000
# 6 0.000000 0.000000 0.000000 -0.063524 0.000000 -0.165418
#
#
# Mechanical properties :
#
#
# Convention : Reuss Voigt Hill
#
# Bulk Modulus (GPa) = 58.01486 70.27022 64.14254
# Shear Modulus (GPa) = -112.14165 24.34546 -43.89809
#
# Velocity S-wave (km/s) = -7.34507 3.42233 -4.59552
# Velocity P-wave (km/s) = 6.63499 7.03012 1.64309
#
# Compressibility (1/GPa) = 0.01723696
#
# Stress axis : x y z
#
# Youngs Moduli (GPa) = 83.64382 64.42188 58.16518
#
# Poissons Ratio (x) = 0.40967 0.36974
# Poissons Ratio (y) = 0.53190 0.05822
# Poissons Ratio (z) = 0.53170 0.06448
#
# Static dielectric constant tensor:
#      x y z
#    x 1.761680 0.000000 -0.020350 
#    y 0.000000 1.740520 0.000000 
#    z -0.020350 0.000000 1.760730 
# 
# From -- ./inp_files/307133.got.cif
#   From: 2010.05.17/outbox.cif.g08.bks.cpg/sg15_154_cif.got.tgz:307133.got - 2010.06.03 18:47:42.
