data_PCOD9279739
_publ_section_title
;
Structure prediction by ZEFSAII (Michael W. Deem and Ramdas Pophale) SiO2 
 PCOD9279739
Probable space group: C 2/C
;
_chemical_formula_sum "Si O2"
_cell_formula_units_Z 52
_cell_length_a 5.673724
_cell_length_b 22.638052
_cell_length_c 23.433584
_cell_angle_alpha 90.000000
_cell_angle_beta 68.469283
_cell_angle_gamma 90.000000
_cell_volume 2799.832756
_symmetry_space_group_name_H-M "C 2/C"
_symmetry_group_IT_number 15
_symmetry_cell_setting 'monoclinic'
loop_
_space_group_symop_operation_xyz
x,y,z
-x,y,1/2-z
-x,-y,-z
x,-y,1/2+z
1/2+x,1/2+y,z
1/2-x,1/2+y,1/2-z
1/2-x,1/2-y,-z
1/2+x,1/2-y,1/2+z
loop_
_atom_site_type_symbol
_atom_site_label
_atom_site_fract_x
_atom_site_fract_y
_atom_site_fract_z
Si Si1 0.653413 0.451151 0.562606
Si Si2 0.000000 0.186522 0.750000
Si Si3 0.795621 0.183090 0.427978
Si Si4 0.522146 0.884411 0.315893
Si Si5 0.370822 0.982926 0.420227
Si Si6 0.130297 0.219933 0.855970
Si Si7 0.869480 0.721689 0.545191
O O1 0.631165 0.384187 0.586817
O O2 0.760409 0.453332 0.488015
O O3 0.371995 0.480309 0.583180
O O4 0.874799 0.482402 0.580992
O O5 0.200230 0.142610 0.704044
O O6 0.118543 0.226006 0.789057
O O7 0.678034 0.218952 0.385041
O O8 0.601491 0.184499 0.499407
O O9 0.024588 0.225335 0.426077
O O10 0.500000 0.899329 0.250000
O O11 0.456400 0.936893 0.364277
O O12 0.341627 0.829236 0.347614
O O13 0.865835 0.193140 0.902392
O O14 0.750000 0.750000 0.500000
#
# Coordination Sequence:
#
# PCOD9279739 Si02
#       7
#     8   4   8   8   8   8   8
#     4  10  24  40  64  92 131 169 209 258 325 374
#     4  10  22  38  62  92 120 160 202 272 326 368
#     4  10  21  36  57  94 125 164 203 249 319 386
#     4  10  23  40  66  91 120 162 214 266 315 370
#     4  10  24  42  62  93 126 173 213 266 307 377
#     4  10  21  36  59  93 120 159 204 264 314 381
#     4   9  20  32  55  89 124 162 193 244 306 382
#
# _framework density 18.572535999999999
#
# number of rings (size 3 to 8) (size 9 to 14) (size 15 to 20)
#    0.000    2.154    0.000    0.923   17.231    1.231 
#    0.000    0.000    1.692    1.846    0.000    0.000 
#    0.000    0.000    0.000    0.000    0.000    0.000 
#
# Total GULP energy -144826.285042 kJ/mol
# GULP energy per Si atom -5570.241732 kJ/mol
# Density = 1.853026 g / cm^3
# Si number density = 18.572536 Si / 1000 Ang^3
#
#
#
# Elastic Constant Matrix: (Units=GPa)
#
#
# Indices 1 2 3 4 5 6 
#
# 1 119.1380 65.4779 47.1287 0.0000 -8.4921 0.0000
# 2 65.4779 120.1945 69.9713 0.0000 9.0284 0.0000
# 3 47.1287 69.9713 94.9202 0.0000 -4.0345 0.0000
# 4 0.0000 0.0000 0.0000 29.8306 0.0000 0.6428
# 5 -8.4921 9.0284 -4.0345 0.0000 41.5757 0.0000
# 6 0.0000 0.0000 0.0000 0.6428 0.0000 -3.6119
#
#
#
# Elastic Compliance Matrix: (Units=1/GPa)
#
#
# Indices 1 2 3 4 5 6 
#
# 1 0.012757 -0.006388 -0.001461 0.000000 0.003851 0.000000
# 2 -0.006388 0.018552 -0.010775 0.000000 -0.006379 0.000000
# 3 -0.001461 -0.010775 0.019370 0.000000 0.003921 0.000000
# 4 0.000000 0.000000 0.000000 0.033395 0.000000 0.005943
# 5 0.003851 -0.006379 0.003921 0.000000 0.026605 0.000000
# 6 0.000000 0.000000 0.000000 0.005943 0.000000 -0.275807
#
#
# Mechanical properties :
#
#
# Convention : Reuss Voigt Hill
#
# Bulk Modulus (GPa) = 74.45837 77.71206 76.08521
# Shear Modulus (GPa) = -40.51760 23.67054 -8.42353
#
# Velocity S-wave (km/s) = -4.67581 3.57388 -2.13198
# Velocity P-wave (km/s) = 3.32064 7.67876 5.91566
#
# Compressibility (1/GPa) = 0.01343032
#
# Stress axis : x y z
#
# Youngs Moduli (GPa) = 78.38741 53.90325 51.62607
#
# Poissons Ratio (x) = 0.34435 0.07543
# Poissons Ratio (y) = 0.50077 0.55626
# Poissons Ratio (z) = 0.11453 0.58080
#
# Static dielectric constant tensor:
#      x y z
#    x 1.707270 0.000000 -0.004390 
#    y 0.000000 1.612080 0.000000 
#    z -0.004390 0.000000 1.678690 
# 
# From -- ./inp_files/227476.got.cif
#   From: 2010.05.17/outbox.cif.g08.bks.cpg/sg15_114_cif.got.tgz:227476.got - 2010.06.03 18:47:42.
