data_PCOD9279878
_publ_section_title
;
Structure prediction by ZEFSAII (Michael W. Deem and Ramdas Pophale) SiO2 
 PCOD9279878
Probable space group: C 2/C
;
_chemical_formula_sum "Si O2"
_cell_formula_units_Z 56
_cell_length_a 33.896500
_cell_length_b 5.116408
_cell_length_c 14.482987
_cell_angle_alpha 90.000000
_cell_angle_beta 111.254600
_cell_angle_gamma 90.000000
_cell_volume 2340.907138
_symmetry_space_group_name_H-M "C 2/C"
_symmetry_group_IT_number 15
_symmetry_cell_setting 'monoclinic'
loop_
_space_group_symop_operation_xyz
x,y,z
-x,y,1/2-z
-x,-y,-z
x,-y,1/2+z
1/2+x,1/2+y,z
1/2-x,1/2+y,1/2-z
1/2-x,1/2-y,-z
1/2+x,1/2-y,1/2+z
loop_
_atom_site_type_symbol
_atom_site_label
_atom_site_fract_x
_atom_site_fract_y
_atom_site_fract_z
Si Si1 0.828462 0.423573 0.638613
Si Si2 0.929923 0.094048 0.601139
Si Si3 0.653355 0.109458 0.549304
Si Si4 0.881228 0.087163 0.228427
Si Si5 0.009231 0.743760 0.070753
Si Si6 0.095756 0.800264 0.088872
Si Si7 0.724321 0.171951 0.745321
O O1 0.820835 0.450655 0.522846
O O2 0.844434 0.130521 0.676907
O O3 0.792363 0.535999 0.674860
O O4 0.866628 0.625016 0.691290
O O5 0.889258 0.259206 0.529509
O O6 0.919333 0.992392 0.693096
O O7 0.974873 0.231547 0.623110
O O8 0.926606 0.852112 0.527407
O O9 0.636025 0.869879 0.596518
O O10 0.685839 0.252405 0.644798
O O11 0.892057 0.060588 0.345007
O O12 0.059382 0.700744 0.127467
O O13 0.000000 0.500000 0.000000
O O14 0.000000 0.000000 0.000000
O O15 0.749286 0.934759 0.717064
#
# Coordination Sequence:
#
# PCOD9279878 Si02
#       7
#     8   8   8   8   8   8   8
#     4  11  24  44  67  98 127 166 217 265 319 396
#     4  10  22  40  64  96 134 172 223 267 316 385
#     4  11  23  42  71  91 130 175 214 261 337 383
#     4  11  23  37  68  98 129 171 225 260 310 389
#     4  10  21  36  60  93 132 170 216 265 313 368
#     4  11  21  39  66  93 131 181 214 265 327 374
#     4  12  28  45  68  99 131 164 214 275 332 403
#
# _framework density 23.922348
#
# number of rings (size 3 to 8) (size 9 to 14) (size 15 to 20)
#    0.000    1.143    4.286    1.714    2.000    1.714 
#    0.000    0.000    0.000    3.429    0.000    0.000 
#    0.000    0.000    0.000    0.000    0.000    0.000 
#
# Total GULP energy -156264.485956 kJ/mol
# GULP energy per Si atom -5580.874498 kJ/mol
# Density = 2.386790 g / cm^3
# Si number density = 23.922348 Si / 1000 Ang^3
#
#
#
# Elastic Constant Matrix: (Units=GPa)
#
#
# Indices 1 2 3 4 5 6 
#
# 1 83.5713 10.2553 33.2289 0.0000 -30.5820 0.0000
# 2 10.2553 73.7699 -5.9986 0.0000 3.9165 0.0000
# 3 33.2289 -5.9986 91.9754 0.0000 -16.9097 0.0000
# 4 0.0000 0.0000 0.0000 23.5473 0.0000 3.0790
# 5 -30.5820 3.9165 -16.9097 0.0000 29.0781 0.0000
# 6 0.0000 0.0000 0.0000 3.0790 0.0000 42.3796
#
#
#
# Elastic Compliance Matrix: (Units=1/GPa)
#
#
# Indices 1 2 3 4 5 6 
#
# 1 0.022029 -0.004544 -0.004348 0.000000 0.021252 0.000000
# 2 -0.004544 0.014622 0.001517 0.000000 -0.005867 0.000000
# 3 -0.004348 0.001517 0.013060 0.000000 0.002818 0.000000
# 4 0.000000 0.000000 0.000000 0.042875 0.000000 -0.003115
# 5 0.021252 -0.005867 0.002818 0.000000 0.059171 0.000000
# 6 0.000000 0.000000 0.000000 -0.003115 0.000000 0.023823
#
#
# Mechanical properties :
#
#
# Convention : Reuss Voigt Hill
#
# Bulk Modulus (GPa) = 28.60330 36.03198 32.31764
# Shear Modulus (GPa) = 24.75439 33.12308 28.93874
#
# Velocity S-wave (km/s) = 3.22029 3.72507 3.48184
# Velocity P-wave (km/s) = 5.08033 5.79623 5.45005
#
# Compressibility (1/GPa) = 0.03496101
#
# Stress axis : x y z
#
# Youngs Moduli (GPa) = 45.39398 68.38905 76.56814
#
# Poissons Ratio (x) = 0.31078 0.33291
# Poissons Ratio (y) = 0.20629 -0.11614
# Poissons Ratio (z) = 0.19737 -0.10373
#
# Static dielectric constant tensor:
#      x y z
#    x 2.049610 0.000000 -0.049260 
#    y 0.000000 1.935920 0.000000 
#    z -0.049260 0.000000 1.864560 
# 
# From -- ./inp_files/180095.got.cif
#   From: 2010.05.17/outbox.cif.g08.bks.cpg/sg15_91_cif.got.tgz:180095.got - 2010.06.03 18:47:42.
