data_PCOD9279879
_publ_section_title
;
Structure prediction by ZEFSAII (Michael W. Deem and Ramdas Pophale) SiO2 
 PCOD9279879
Probable space group: C 2/C
;
_chemical_formula_sum "Si O2"
_cell_formula_units_Z 64
_cell_length_a 16.843785
_cell_length_b 30.729776
_cell_length_c 8.366015
_cell_angle_alpha 90.000000
_cell_angle_beta 44.188645
_cell_angle_gamma 90.000000
_cell_volume 3018.316919
_symmetry_space_group_name_H-M "C 2/C"
_symmetry_group_IT_number 15
_symmetry_cell_setting 'monoclinic'
loop_
_space_group_symop_operation_xyz
x,y,z
-x,y,1/2-z
-x,-y,-z
x,-y,1/2+z
1/2+x,1/2+y,z
1/2-x,1/2+y,1/2-z
1/2-x,1/2-y,-z
1/2+x,1/2-y,1/2+z
loop_
_atom_site_type_symbol
_atom_site_label
_atom_site_fract_x
_atom_site_fract_y
_atom_site_fract_z
Si Si1 0.505703 0.132543 0.548331
Si Si2 0.423499 0.618208 0.005085
Si Si3 0.135672 0.506589 0.034720
Si Si4 0.077119 0.279170 0.294334
Si Si5 0.768348 0.590874 0.425214
Si Si6 0.635098 0.620624 0.917946
Si Si7 0.669265 0.687823 0.141219
Si Si8 0.192477 0.563335 0.665929
O O1 0.500000 0.134556 0.750000
O O2 0.479988 0.181547 0.523641
O O3 0.623825 0.113915 0.312744
O O4 0.403369 0.099283 0.657904
O O5 0.340560 0.584870 0.034126
O O6 0.339471 0.652023 0.209421
O O7 0.500000 0.637323 0.750000
O O8 0.514960 0.607482 0.011832
O O9 0.190306 0.545855 0.057716
O O10 0.181028 0.458539 0.010058
O O11 0.000000 0.505535 0.250000
O O12 0.164265 0.522159 0.816589
O O13 0.098467 0.229129 0.308706
O O14 0.000000 0.274876 0.250000
O O15 0.201740 0.297460 0.071324
O O16 0.721345 0.620259 0.641950
O O17 0.688458 0.584763 0.959974
O O18 0.630733 0.664946 0.029062
#
# Coordination Sequence:
#
# PCOD9279879 Si02
#       8
#     8   8   8   8   8   8   8   8
#     4  11  21  37  61  90 127 158 206 243 314 371
#     4  10  21  40  63  85 119 163 209 252 299 364
#     4  11  22  37  57  90 126 156 199 249 304 374
#     4  10  21  36  60  94 124 158 202 263 304 363
#     4  10  23  39  61  91 125 164 203 256 308 362
#     4  10  22  40  61  90 119 165 214 247 304 366
#     4  11  21  40  64  89 121 161 214 253 305 368
#     4  11  23  37  59  92 119 162 200 248 307 366
#
# _framework density 21.203869000000001
#
# number of rings (size 3 to 8) (size 9 to 14) (size 15 to 20)
#    0.000    1.500    2.500    3.375    1.750    0.000 
#    0.000    3.125    0.000   14.250    0.000    0.000 
#    0.000    0.000    0.000    0.000    0.000    0.000 
#
# Total GULP energy -178486.414206 kJ/mol
# GULP energy per Si atom -5577.700444 kJ/mol
# Density = 2.115561 g / cm^3
# Si number density = 21.203869 Si / 1000 Ang^3
#
#
#
# Elastic Constant Matrix: (Units=GPa)
#
#
# Indices 1 2 3 4 5 6 
#
# 1 109.1678 19.2921 11.1577 0.0000 -17.4178 0.0000
# 2 19.2921 59.5864 16.7547 0.0000 6.6024 0.0000
# 3 11.1577 16.7547 72.2961 0.0000 6.8296 0.0000
# 4 0.0000 0.0000 0.0000 17.5130 0.0000 6.9152
# 5 -17.4178 6.6024 6.8296 0.0000 18.3666 0.0000
# 6 0.0000 0.0000 0.0000 6.9152 0.0000 -0.1154
#
#
#
# Elastic Compliance Matrix: (Units=1/GPa)
#
#
# Indices 1 2 3 4 5 6 
#
# 1 0.012606 -0.005095 -0.002142 0.000000 0.014583 0.000000
# 2 -0.005095 0.020482 -0.002911 0.000000 -0.011112 0.000000
# 3 -0.002142 -0.002911 0.015474 0.000000 -0.006739 0.000000
# 4 0.000000 0.000000 0.000000 0.002315 0.000000 0.138747
# 5 0.014583 -0.011112 -0.006739 0.000000 0.074777 0.000000
# 6 0.000000 0.000000 0.000000 0.138747 0.000000 -0.351382
#
#
# Mechanical properties :
#
#
# Convention : Reuss Voigt Hill
#
# Bulk Modulus (GPa) = 35.37848 37.27326 36.32587
# Shear Modulus (GPa) = -25.50882 20.07591 -2.71646
#
# Velocity S-wave (km/s) = -3.47223 3.08036 -1.13309
# Velocity P-wave (km/s) = 0.80372 5.50165 3.93155
#
# Compressibility (1/GPa) = 0.02826577
#
# Stress axis : x y z
#
# Youngs Moduli (GPa) = 79.32509 48.82426 64.62517
#
# Poissons Ratio (x) = 0.24876 0.13846
# Poissons Ratio (y) = 0.40416 0.18810
# Poissons Ratio (z) = 0.16995 0.14211
#
# Static dielectric constant tensor:
#      x y z
#    x 1.832780 0.000000 0.054230 
#    y 0.000000 1.787370 0.000000 
#    z 0.054230 0.000000 1.809880 
# 
# From -- ./inp_files/52826.got.cif
#   From: 2010.05.17/outbox.cif.g08.bks.cpg/sg15_27_cif.got.tgz:52826.got - 2010.06.03 18:47:42.
