data_PCOD9279259
_publ_section_title
;
Structure prediction by ZEFSAII (Michael W. Deem and Ramdas Pophale) SiO2 
 PCOD9279259
Probable space group: C 2/C
;
_chemical_formula_sum "Si O2"
_cell_formula_units_Z 44
_cell_length_a 18.606015
_cell_length_b 4.973655
_cell_length_c 17.521445
_cell_angle_alpha 90.000000
_cell_angle_beta 75.851935
_cell_angle_gamma 90.000000
_cell_volume 1572.250338
_symmetry_space_group_name_H-M "C 2/C"
_symmetry_group_IT_number 15
_symmetry_cell_setting 'monoclinic'
loop_
_space_group_symop_operation_xyz
x,y,z
-x,y,1/2-z
-x,-y,-z
x,-y,1/2+z
1/2+x,1/2+y,z
1/2-x,1/2+y,1/2-z
1/2-x,1/2-y,-z
1/2+x,1/2-y,1/2+z
loop_
_atom_site_type_symbol
_atom_site_label
_atom_site_fract_x
_atom_site_fract_y
_atom_site_fract_z
Si Si1 0.659651 0.492751 0.538743
Si Si2 0.035737 0.163334 0.873724
Si Si3 0.787153 0.490109 0.390289
Si Si4 0.852642 0.519862 0.718292
Si Si5 0.577358 0.830358 0.441561
Si Si6 0.500000 0.977284 0.750000
O O1 0.711624 0.411892 0.452972
O O2 0.652935 0.216749 0.587016
O O3 0.598700 0.676711 0.512120
O O4 0.697077 0.707026 0.586149
O O5 0.114521 0.220200 0.808634
O O6 0.046308 0.369226 0.942014
O O7 0.980115 0.282484 0.826038
O O8 0.026150 0.869132 0.906102
O O9 0.790786 0.464112 0.298034
O O10 0.850126 0.644787 0.634635
O O11 0.927546 0.632268 0.741399
#
# Coordination Sequence:
#
# PCOD9279259 Si02
#       6
#     8   8   8   8   8   4
#     4  10  21  37  50  76 108 142 160 216 246 318
#     4   8  17  30  53  76  97 131 161 216 247 299
#     4  10  21  35  55  73 105 139 179 192 264 303
#     4   8  19  34  54  80  95 137 171 218 242 308
#     4   9  18  33  52  74 105 129 170 209 262 282
#     4   6  16  32  52  78 102 124 170 222 252 288
#
# _framework density 27.985361999999999
#
# number of rings (size 3 to 8) (size 9 to 14) (size 15 to 20)
#    2.182    0.727    0.000    1.091    2.545    2.909 
#    3.273    0.000    0.000   15.273    0.000    0.000 
#    0.000    0.000    0.000    0.000    0.000    0.000 
#
# Total GULP energy -122680.043701 kJ/mol
# GULP energy per Si atom -5576.365623 kJ/mol
# Density = 2.792167 g / cm^3
# Si number density = 27.985362 Si / 1000 Ang^3
#
#
#
# Elastic Constant Matrix: (Units=GPa)
#
#
# Indices 1 2 3 4 5 6 
#
# 1 73.5938 11.6645 14.2532 0.0000 7.2083 0.0000
# 2 11.6645 138.7158 42.5333 0.0000 4.0817 0.0000
# 3 14.2532 42.5333 166.4481 0.0000 -16.2939 0.0000
# 4 0.0000 0.0000 0.0000 47.5927 0.0000 8.3403
# 5 7.2083 4.0817 -16.2939 0.0000 39.4981 0.0000
# 6 0.0000 0.0000 0.0000 8.3403 0.0000 31.5498
#
#
#
# Elastic Compliance Matrix: (Units=1/GPa)
#
#
# Indices 1 2 3 4 5 6 
#
# 1 0.014261 -0.000696 -0.001345 0.000000 -0.003086 0.000000
# 2 -0.000696 0.007967 -0.002130 0.000000 -0.001575 0.000000
# 3 -0.001345 -0.002130 0.006996 0.000000 0.003352 0.000000
# 4 0.000000 0.000000 0.000000 0.022032 0.000000 -0.005824
# 5 -0.003086 -0.001575 0.003352 0.000000 0.027426 0.000000
# 6 0.000000 0.000000 0.000000 -0.005824 0.000000 0.033236
#
#
# Mechanical properties :
#
#
# Convention : Reuss Voigt Hill
#
# Bulk Modulus (GPa) = 47.89206 57.29553 52.59380
# Shear Modulus (GPa) = 39.30143 44.41521 41.85832
#
# Velocity S-wave (km/s) = 3.75154 3.98815 3.87165
# Velocity P-wave (km/s) = 5.99298 6.45948 6.23060
#
# Compressibility (1/GPa) = 0.02088029
#
# Stress axis : x y z
#
# Youngs Moduli (GPa) = 70.12025 125.51606 142.94705
#
# Poissons Ratio (x) = 0.08734 0.19233
# Poissons Ratio (y) = 0.04879 0.30455
# Poissons Ratio (z) = 0.09434 0.26741
#
# Static dielectric constant tensor:
#      x y z
#    x 2.419120 0.000000 -0.126030 
#    y 0.000000 2.089210 0.000000 
#    z -0.126030 0.000000 2.224160 
# 
# From -- ./inp_files/253737.got.cif
#   From: 2010.05.17/outbox.cif.g08.bks.cpg/sg15_127_cif.got.tgz:253737.got - 2010.06.03 18:47:42.
