data_PCOD9279098
_publ_section_title
;
Structure prediction by ZEFSAII (Michael W. Deem and Ramdas Pophale) SiO2 
 PCOD9279098
Probable space group: C 2/C
;
_chemical_formula_sum "Si O2"
_cell_formula_units_Z 60
_cell_length_a 11.035029
_cell_length_b 19.817136
_cell_length_c 14.535156
_cell_angle_alpha 90.000000
_cell_angle_beta 97.229053
_cell_angle_gamma 90.000000
_cell_volume 3153.320210
_symmetry_space_group_name_H-M "C 2/C"
_symmetry_group_IT_number 15
_symmetry_cell_setting 'monoclinic'
loop_
_space_group_symop_operation_xyz
x,y,z
-x,y,1/2-z
-x,-y,-z
x,-y,1/2+z
1/2+x,1/2+y,z
1/2-x,1/2+y,1/2-z
1/2-x,1/2-y,-z
1/2+x,1/2-y,1/2+z
loop_
_atom_site_type_symbol
_atom_site_label
_atom_site_fract_x
_atom_site_fract_y
_atom_site_fract_z
Si Si1 0.183095 0.000940 0.454485
Si Si2 0.078989 0.058739 0.623212
Si Si3 0.000000 0.174541 0.750000
Si Si4 0.902378 0.635270 0.815774
Si Si5 0.106088 0.370262 0.819718
Si Si6 0.765530 0.506870 0.264390
Si Si7 0.279693 0.742772 0.613972
Si Si8 0.067071 0.429759 0.000676
O O1 0.155231 0.052548 0.534914
O O2 0.233796 0.030932 0.364077
O O3 0.287954 0.946848 0.490267
O O4 0.058619 0.961828 0.417005
O O5 0.074731 0.125488 0.686192
O O6 0.142760 0.003309 0.694365
O O7 0.907540 0.211822 0.668535
O O8 0.829144 0.567346 0.776819
O O9 0.817288 0.694725 0.845175
O O10 0.000000 0.656237 0.750000
O O11 0.970400 0.609910 0.913081
O O12 0.149378 0.439466 0.777480
O O13 0.215848 0.319152 0.848416
O O14 0.041518 0.387736 0.908843
O O15 0.000000 0.337884 0.750000
O O16 0.250000 0.750000 0.500000
O O17 0.000000 0.500000 0.000000
#
# Coordination Sequence:
#
# PCOD9279098 Si02
#       8
#     8   8   4   8   8   8   8   8
#     4  10  21  34  57 104 131 165 212 276 340 396
#     4  11  20  35  65  94 132 171 219 273 332 409
#     4  12  22  44  70  92 130 190 234 270 340 424
#     4  11  23  42  67  97 129 172 224 280 343 404
#     4  12  24  41  64  97 131 172 222 275 333 399
#     4  11  20  39  65  98 135 167 217 282 345 401
#     4  12  26  46  69  94 134 188 235 278 338 426
#     4  11  21  37  65  95 132 166 212 276 340 393
#
# _framework density 19.027563000000001
#
# number of rings (size 3 to 8) (size 9 to 14) (size 15 to 20)
#    0.000    0.800    6.000    3.600    0.000    0.000 
#    0.000    2.667    0.000    2.400    0.000    0.000 
#    0.000    0.000    0.000    0.000    0.000    0.000 
#
# Total GULP energy -167154.495502 kJ/mol
# GULP energy per Si atom -5571.816517 kJ/mol
# Density = 1.898426 g / cm^3
# Si number density = 19.027563 Si / 1000 Ang^3
#
#
#
# Elastic Constant Matrix: (Units=GPa)
#
#
# Indices 1 2 3 4 5 6 
#
# 1 65.6643 29.1965 53.5409 0.0000 -5.4238 0.0000
# 2 29.1965 92.7503 47.6501 0.0000 -8.2886 0.0000
# 3 53.5409 47.6501 150.1946 0.0000 -3.5785 0.0000
# 4 0.0000 0.0000 0.0000 19.4549 0.0000 7.6311
# 5 -5.4238 -8.2886 -3.5785 0.0000 32.8359 0.0000
# 6 0.0000 0.0000 0.0000 7.6311 0.0000 29.9999
#
#
#
# Elastic Compliance Matrix: (Units=1/GPa)
#
#
# Indices 1 2 3 4 5 6 
#
# 1 0.022536 -0.003349 -0.006921 0.000000 0.002123 0.000000
# 2 -0.003349 0.013643 -0.003074 0.000000 0.002556 0.000000
# 3 -0.006921 -0.003074 0.010081 0.000000 -0.000820 0.000000
# 4 0.000000 0.000000 0.000000 0.057098 0.000000 -0.014524
# 5 0.002123 0.002556 -0.000820 0.000000 0.031361 0.000000
# 6 0.000000 0.000000 0.000000 -0.014524 0.000000 0.037028
#
#
# Mechanical properties :
#
#
# Convention : Reuss Voigt Hill
#
# Bulk Modulus (GPa) = 51.08884 63.26490 57.17687
# Shear Modulus (GPa) = 24.39522 28.33958 26.36740
#
# Velocity S-wave (km/s) = 3.58453 3.86346 3.72660
# Velocity P-wave (km/s) = 6.63626 7.29541 6.97363
#
# Compressibility (1/GPa) = 0.01957375
#
# Stress axis : x y z
#
# Youngs Moduli (GPa) = 44.37298 73.29588 99.19974
#
# Poissons Ratio (x) = 0.24546 0.68652
# Poissons Ratio (y) = 0.14860 0.30491
# Poissons Ratio (z) = 0.30709 0.22529
#
# Static dielectric constant tensor:
#      x y z
#    x 1.668140 0.000000 0.012650 
#    y 0.000000 1.672860 0.000000 
#    z 0.012650 0.000000 1.779230 
# 
# From -- ./inp_files/145715.got.cif
#   From: 2010.05.17/outbox.cif.g08.bks.cpg/sg15_73_cif.got.tgz:145715.got - 2010.06.03 18:47:42.
