data_PCOD9279567
_publ_section_title
;
Structure prediction by ZEFSAII (Michael W. Deem and Ramdas Pophale) SiO2 
 PCOD9279567
Probable space group: C 2/C
;
_chemical_formula_sum "Si O2"
_cell_formula_units_Z 40
_cell_length_a 8.234265
_cell_length_b 7.422525
_cell_length_c 24.392911
_cell_angle_alpha 90.000000
_cell_angle_beta 89.848935
_cell_angle_gamma 90.000000
_cell_volume 1490.866068
_symmetry_space_group_name_H-M "C 2/C"
_symmetry_group_IT_number 15
_symmetry_cell_setting 'monoclinic'
loop_
_space_group_symop_operation_xyz
x,y,z
-x,y,1/2-z
-x,-y,-z
x,-y,1/2+z
1/2+x,1/2+y,z
1/2-x,1/2+y,1/2-z
1/2-x,1/2-y,-z
1/2+x,1/2-y,1/2+z
loop_
_atom_site_type_symbol
_atom_site_label
_atom_site_fract_x
_atom_site_fract_y
_atom_site_fract_z
Si Si1 0.827148 0.177010 0.885830
Si Si2 0.322981 0.743800 0.415005
Si Si3 0.352403 0.279770 0.186025
Si Si4 0.499041 0.288045 0.486554
Si Si5 0.650705 0.859985 0.285977
O O1 0.986626 0.177844 0.847551
O O2 0.857874 0.272829 0.944556
O O3 0.817403 0.968411 0.902358
O O4 0.687732 0.238818 0.843648
O O5 0.294366 0.831127 0.355944
O O6 0.472156 0.801948 0.454000
O O7 0.161715 0.769390 0.450895
O O8 0.369669 0.067178 0.197732
O O9 0.303799 0.358952 0.244421
O O10 0.500000 0.500000 0.500000
O O11 0.500000 0.791406 0.250000
#
# Coordination Sequence:
#
# PCOD9279567 Si02
#       5
#     8   8   8   8   8
#     4   9  17  31  51  75 105 139 178 223 269 321
#     4   8  15  27  49  79 105 137 179 221 268 322
#     4  10  21  36  53  76 106 140 179 223 271 324
#     4   8  13  25  47  78 109 137 176 221 268 323
#     4  11  22  35  52  76 106 141 181 223 271 324
#
# _framework density 26.830043
#
# number of rings (size 3 to 8) (size 9 to 14) (size 15 to 20)
#    0.000    2.800    0.000    1.800    0.000    3.200 
#    0.000    0.000    0.000    1.200    0.000  138.600 
#    0.000    0.000    0.000    0.000    0.000    0.000 
#
# Total GULP energy -111782.167157 kJ/mol
# GULP energy per Si atom -5589.108358 kJ/mol
# Density = 2.676898 g / cm^3
# Si number density = 26.830043 Si / 1000 Ang^3
#
#
#
# Elastic Constant Matrix: (Units=GPa)
#
#
# Indices 1 2 3 4 5 6 
#
# 1 77.0729 1.1055 48.7878 0.0000 43.1883 0.0000
# 2 1.1055 69.1031 9.0000 0.0000 -14.3405 0.0000
# 3 48.7878 9.0000 234.2427 0.0000 79.2866 0.0000
# 4 0.0000 0.0000 0.0000 28.5460 0.0000 -12.6801
# 5 43.1883 -14.3405 79.2866 0.0000 79.6707 0.0000
# 6 0.0000 0.0000 0.0000 -12.6801 0.0000 23.4840
#
#
#
# Elastic Compliance Matrix: (Units=1/GPa)
#
#
# Indices 1 2 3 4 5 6 
#
# 1 0.019074 -0.002424 -0.000350 0.000000 -0.010428 0.000000
# 2 -0.002424 0.016172 -0.002332 0.000000 0.006546 0.000000
# 3 -0.000350 -0.002332 0.006800 0.000000 -0.006997 0.000000
# 4 0.000000 0.000000 0.000000 0.046084 0.000000 0.024883
# 5 -0.010428 0.006546 -0.006997 0.000000 0.026346 0.000000
# 6 0.000000 0.000000 0.000000 0.024883 0.000000 0.056017
#
#
# Mechanical properties :
#
#
# Convention : Reuss Voigt Hill
#
# Bulk Modulus (GPa) = 31.41209 55.35613 43.38411
# Shear Modulus (GPa) = 26.13462 47.77518 36.95490
#
# Velocity S-wave (km/s) = 3.12441 4.22436 3.71532
# Velocity P-wave (km/s) = 4.97485 6.66863 5.88302
#
# Compressibility (1/GPa) = 0.03183488
#
# Stress axis : x y z
#
# Youngs Moduli (GPa) = 52.42643 61.83525 147.05827
#
# Poissons Ratio (x) = 0.14986 0.05148
# Poissons Ratio (y) = 0.12706 0.34296
# Poissons Ratio (z) = 0.01835 0.14421
#
# Static dielectric constant tensor:
#      x y z
#    x 2.239050 0.000000 0.194000 
#    y 0.000000 2.024070 0.000000 
#    z 0.194000 0.000000 2.126270 
# 
# From -- ./inp_files/262427.got.cif
#   From: 2010.05.17/outbox.cif.g08.bks.cpg/sg15_132_cif.got.tgz:262427.got - 2010.06.03 18:47:42.
