data_PCOD9279670
_publ_section_title
;
Structure prediction by ZEFSAII (Michael W. Deem and Ramdas Pophale) SiO2 
 PCOD9279670
Probable space group: C 2/C
;
_chemical_formula_sum "Si O2"
_cell_formula_units_Z 40
_cell_length_a 9.080501
_cell_length_b 17.069223
_cell_length_c 9.627034
_cell_angle_alpha 90.000000
_cell_angle_beta 104.973163
_cell_angle_gamma 90.000000
_cell_volume 1441.498856
_symmetry_space_group_name_H-M "C 2/C"
_symmetry_group_IT_number 15
_symmetry_cell_setting 'monoclinic'
loop_
_space_group_symop_operation_xyz
x,y,z
-x,y,1/2-z
-x,-y,-z
x,-y,1/2+z
1/2+x,1/2+y,z
1/2-x,1/2+y,1/2-z
1/2-x,1/2-y,-z
1/2+x,1/2-y,1/2+z
loop_
_atom_site_type_symbol
_atom_site_label
_atom_site_fract_x
_atom_site_fract_y
_atom_site_fract_z
Si Si1 0.796749 0.042307 0.350147
Si Si2 0.655705 0.584200 0.426019
Si Si3 0.727094 0.254216 0.792578
Si Si4 0.500000 0.319610 0.250000
Si Si5 0.306603 0.859151 0.441665
Si Si6 0.000000 0.626847 0.750000
O O1 0.770087 0.035794 0.181729
O O2 0.693125 0.107624 0.402839
O O3 0.973726 0.070716 0.397309
O O4 0.780981 0.959271 0.422362
O O5 0.680505 0.669847 0.364791
O O6 0.906070 0.235162 0.832933
O O7 0.680084 0.231491 0.618397
O O8 0.634243 0.183987 0.839015
O O9 0.629882 0.371218 0.352166
O O10 0.427257 0.904274 0.373740
#
# Coordination Sequence:
#
# PCOD9279670 Si02
#       6
#     8   8   8   4   8   4
#     4  10  21  36  59  84 118 154 200 239 295 343
#     4  10  21  36  56  86 115 156 197 245 283 355
#     4   8  15  35  56  85 116 148 192 240 289 347
#     4   6  16  30  56  84 114 148 178 240 296 338
#     4   8  16  33  59  84 114 152 188 243 290 349
#     4   6  14  28  54  86 110 140 190 240 284 342
#
# _framework density 27.748894
#
# number of rings (size 3 to 8) (size 9 to 14) (size 15 to 20)
#    2.400    0.800    0.000    1.200    0.000    4.000 
#    0.000    2.000    0.000    2.400    0.000    0.000 
#    0.000    0.000    0.000    0.000    0.000    0.000 
#
# Total GULP energy -111359.694647 kJ/mol
# GULP energy per Si atom -5567.984732 kJ/mol
# Density = 2.768574 g / cm^3
# Si number density = 27.748894 Si / 1000 Ang^3
#
#
#
# Elastic Constant Matrix: (Units=GPa)
#
#
# Indices 1 2 3 4 5 6 
#
# 1 102.1958 44.7986 36.6852 0.0000 -51.3410 0.0000
# 2 44.7986 187.3616 59.2017 0.0000 -35.2001 0.0000
# 3 36.6852 59.2017 190.8649 0.0000 -47.7660 0.0000
# 4 0.0000 0.0000 0.0000 39.4751 0.0000 -25.4404
# 5 -51.3410 -35.2001 -47.7660 0.0000 50.9470 0.0000
# 6 0.0000 0.0000 0.0000 -25.4404 0.0000 25.7246
#
#
#
# Elastic Compliance Matrix: (Units=1/GPa)
#
#
# Indices 1 2 3 4 5 6 
#
# 1 0.020516 -0.001474 0.001873 0.000000 0.021412 0.000000
# 2 -0.001474 0.006421 -0.001267 0.000000 0.001763 0.000000
# 3 0.001873 -0.001267 0.007220 0.000000 0.007780 0.000000
# 4 0.000000 0.000000 0.000000 0.069853 0.000000 0.069081
# 5 0.021412 0.001763 0.007780 0.000000 0.049718 0.000000
# 6 0.000000 0.000000 0.000000 0.069081 0.000000 0.107191
#
#
# Mechanical properties :
#
#
# Convention : Reuss Voigt Hill
#
# Bulk Modulus (GPa) = 30.84645 84.64371 57.74508
# Shear Modulus (GPa) = 18.28399 45.87845 32.08122
#
# Velocity S-wave (km/s) = 2.56971 4.07054 3.40387
# Velocity P-wave (km/s) = 4.46598 7.25687 6.02524
#
# Compressibility (1/GPa) = 0.03241864
#
# Stress axis : x y z
#
# Youngs Moduli (GPa) = 48.74247 155.72947 138.51266
#
# Poissons Ratio (x) = 0.22961 -0.25937
# Poissons Ratio (y) = 0.07187 0.17553
# Poissons Ratio (z) = -0.09127 0.19735
#
# Static dielectric constant tensor:
#      x y z
#    x 2.168760 0.000000 0.095990 
#    y 0.000000 2.302090 0.000000 
#    z 0.095990 0.000000 2.318840 
# 
# From -- ./inp_files/77699.got.cif
#   From: 2010.05.17/outbox.cif.g08.bks.cpg/sg15_39_cif.got.tgz:77699.got - 2010.06.03 18:47:42.
