data_PCOD9279104
_publ_section_title
;
Structure prediction by ZEFSAII (Michael W. Deem and Ramdas Pophale) SiO2 
 PCOD9279104
Probable space group: C 2/C
;
_chemical_formula_sum "Si O2"
_cell_formula_units_Z 56
_cell_length_a 11.679640
_cell_length_b 25.881104
_cell_length_c 10.500823
_cell_angle_alpha 90.000000
_cell_angle_beta 61.525421
_cell_angle_gamma 90.000000
_cell_volume 2790.221389
_symmetry_space_group_name_H-M "C 2/C"
_symmetry_group_IT_number 15
_symmetry_cell_setting 'monoclinic'
loop_
_space_group_symop_operation_xyz
x,y,z
-x,y,1/2-z
-x,-y,-z
x,-y,1/2+z
1/2+x,1/2+y,z
1/2-x,1/2+y,1/2-z
1/2-x,1/2-y,-z
1/2+x,1/2-y,1/2+z
loop_
_atom_site_type_symbol
_atom_site_label
_atom_site_fract_x
_atom_site_fract_y
_atom_site_fract_z
Si Si1 0.636068 0.149166 0.104210
Si Si2 0.000000 0.612309 0.750000
Si Si3 0.793878 0.941446 0.415090
Si Si4 0.249508 0.347670 0.807324
Si Si5 0.519044 0.196625 0.940399
Si Si6 0.952210 0.943700 0.071580
Si Si7 0.244554 0.438271 0.983426
Si Si8 0.500000 0.713469 0.250000
O O1 0.500000 0.139323 0.250000
O O2 0.737284 0.160319 0.163157
O O3 0.679508 0.098568 0.003457
O O4 0.611225 0.194214 0.014741
O O5 0.062403 0.651699 0.819376
O O6 0.113348 0.578953 0.625176
O O7 0.850139 0.944364 0.242387
O O8 0.914797 0.922191 0.439155
O O9 0.753018 0.000064 0.468733
O O10 0.373515 0.321512 0.804312
O O11 0.246874 0.408055 0.848255
O O12 0.122665 0.321348 0.936613
O O13 0.504872 0.249061 0.870238
O O14 0.872207 0.920612 0.996192
O O15 0.000000 0.000000 0.000000
#
# Coordination Sequence:
#
# PCOD9279104 Si02
#       8
#     8   4   8   8   8   8   8   4
#     4  10  22  40  60  90 135 162 201 259 312 370
#     4   9  18  36  58  88 114 162 200 254 301 362
#     4  10  21  35  58  86 119 176 207 240 311 363
#     4  10  23  37  60  94 120 157 202 258 310 372
#     4   9  20  42  59  85 123 157 195 262 320 362
#     4   9  20  36  53  76 118 167 206 258 294 340
#     4  10  21  34  57  85 127 155 210 251 295 364
#     4  11  22  38  72  86 110 160 216 254 321 378
#
# _framework density 20.070091999999999
#
# number of rings (size 3 to 8) (size 9 to 14) (size 15 to 20)
#    0.000    2.286    0.000    1.286    7.000    1.714 
#    0.000    2.857    0.000    0.000    0.000    0.000 
#    0.000    0.000    0.000    0.000    0.000    0.000 
#
# Total GULP energy -156148.556320 kJ/mol
# GULP energy per Si atom -5576.734154 kJ/mol
# Density = 2.002441 g / cm^3
# Si number density = 20.070092 Si / 1000 Ang^3
#
#
#
# Elastic Constant Matrix: (Units=GPa)
#
#
# Indices 1 2 3 4 5 6 
#
# 1 89.5509 29.8431 23.8376 0.0000 26.4164 0.0000
# 2 29.8431 69.0381 26.7877 0.0000 -0.9849 0.0000
# 3 23.8376 26.7877 74.5026 0.0000 13.7734 0.0000
# 4 0.0000 0.0000 0.0000 17.6021 0.0000 -0.4033
# 5 26.4164 -0.9849 13.7734 0.0000 25.3302 0.0000
# 6 0.0000 0.0000 0.0000 -0.4033 0.0000 25.2797
#
#
#
# Elastic Compliance Matrix: (Units=1/GPa)
#
#
# Indices 1 2 3 4 5 6 
#
# 1 0.020809 -0.009713 0.001019 0.000000 -0.022633 0.000000
# 2 -0.009713 0.021817 -0.007522 0.000000 0.015068 0.000000
# 3 0.001019 -0.007522 0.017846 0.000000 -0.011058 0.000000
# 4 0.000000 0.000000 0.000000 0.056832 0.000000 0.000907
# 5 -0.022633 0.015068 -0.011058 0.000000 0.069681 0.000000
# 6 0.000000 0.000000 0.000000 0.000907 0.000000 0.039572
#
#
# Mechanical properties :
#
#
# Convention : Reuss Voigt Hill
#
# Bulk Modulus (GPa) = 35.66611 43.78092 39.72352
# Shear Modulus (GPa) = 18.63327 23.81728 21.22527
#
# Velocity S-wave (km/s) = 3.05029 3.44860 3.25554
# Velocity P-wave (km/s) = 5.49682 6.14153 5.82810
#
# Compressibility (1/GPa) = 0.02803782
#
# Stress axis : x y z
#
# Youngs Moduli (GPa) = 48.05581 45.83520 56.03651
#
# Poissons Ratio (x) = 0.44521 -0.05708
# Poissons Ratio (y) = 0.46678 0.42153
# Poissons Ratio (z) = -0.04895 0.34479
#
# Static dielectric constant tensor:
#      x y z
#    x 1.747860 0.000000 0.038210 
#    y 0.000000 1.664320 0.000000 
#    z 0.038210 0.000000 1.725730 
# 
# From -- ./inp_files/90742.got.cif
#   From: 2010.05.17/outbox.cif.g08.bks.cpg/sg15_46_cif.got.tgz:90742.got - 2010.06.03 18:47:42.
