data_PCOD9279380
_publ_section_title
;
Structure prediction by ZEFSAII (Michael W. Deem and Ramdas Pophale) SiO2 
 PCOD9279380
Probable space group: C 2/C
;
_chemical_formula_sum "Si O2"
_cell_formula_units_Z 44
_cell_length_a 21.605296
_cell_length_b 17.013442
_cell_length_c 13.952924
_cell_angle_alpha 90.000000
_cell_angle_beta 20.025090
_cell_angle_gamma 90.000000
_cell_volume 1756.270779
_symmetry_space_group_name_H-M "C 2/C"
_symmetry_group_IT_number 15
_symmetry_cell_setting 'monoclinic'
loop_
_space_group_symop_operation_xyz
x,y,z
-x,y,1/2-z
-x,-y,-z
x,-y,1/2+z
1/2+x,1/2+y,z
1/2-x,1/2+y,1/2-z
1/2-x,1/2-y,-z
1/2+x,1/2-y,1/2+z
loop_
_atom_site_type_symbol
_atom_site_label
_atom_site_fract_x
_atom_site_fract_y
_atom_site_fract_z
Si Si1 0.773855 0.736317 0.294646
Si Si2 0.500000 0.630682 0.250000
Si Si3 0.083558 0.827895 0.259406
Si Si4 0.432995 0.492819 0.491391
Si Si5 0.398340 0.129774 0.683771
Si Si6 0.475577 0.018014 0.397404
O O1 0.833013 0.819459 0.255214
O O2 0.599193 0.725433 0.482092
O O3 0.710045 0.697440 0.488051
O O4 0.949922 0.690735 0.001912
O O5 0.474266 0.571458 0.375407
O O6 0.301252 0.668598 0.531009
O O7 0.031836 0.916139 0.310263
O O8 0.500000 0.500000 0.500000
O O9 0.219789 0.478784 0.802463
O O10 0.389541 0.050766 0.762941
O O11 0.465797 0.092213 0.483736
O O12 0.500000 0.037831 0.250000
#
# Coordination Sequence:
#
# PCOD9279380 Si02
#       6
#     8   4   8   8   8   8
#     4  10  21  40  63  87 125 161 202 257 310 371
#     4  10  22  38  60  92 128 158 202 258 310 364
#     4  10  22  39  61  91 122 160 205 254 311 369
#     4  11  22  36  62  91 125 158 199 256 304 373
#     4  10  21  38  61  88 123 168 197 258 309 363
#     4  10  21  35  58  91 123 159 204 248 309 371
#
# _framework density 25.053084999999999
#
# number of rings (size 3 to 8) (size 9 to 14) (size 15 to 20)
#    0.000    1.818    1.818    2.182    7.636    2.909 
#    3.273    0.000    2.000    3.273    0.000    0.000 
#    0.000    0.000    0.000    0.000    0.000    0.000 
#
# Total GULP energy -123012.060147 kJ/mol
# GULP energy per Si atom -5591.457279 kJ/mol
# Density = 2.499606 g / cm^3
# Si number density = 25.053085 Si / 1000 Ang^3
#
#
#
# Elastic Constant Matrix: (Units=GPa)
#
#
# Indices 1 2 3 4 5 6 
#
# 1 88.2392 -9.5738 1.3196 -0.0017 10.9141 -0.0003
# 2 -9.5738 33.8824 12.9796 -0.0106 0.7668 0.0011
# 3 1.3196 12.9796 122.5387 -0.0056 -25.2127 0.0009
# 4 -0.0017 -0.0106 -0.0056 19.8824 0.0038 -9.6741
# 5 10.9141 0.7668 -25.2127 0.0038 48.2767 0.0005
# 6 -0.0003 0.0011 0.0009 -9.6741 0.0005 16.3026
#
#
#
# Elastic Compliance Matrix: (Units=1/GPa)
#
#
# Indices 1 2 3 4 5 6 
#
# 1 0.012220 0.004021 -0.001276 0.000005 -0.003493 0.000003
# 2 0.004021 0.032347 -0.004215 0.000023 -0.003624 0.000012
# 3 -0.001276 -0.004215 0.009741 -0.000001 0.005443 -0.000001
# 4 0.000005 0.000023 -0.000001 0.070713 -0.000008 0.041962
# 5 -0.003493 -0.003624 0.005443 -0.000008 0.024404 -0.000006
# 6 0.000003 0.000012 -0.000001 0.041962 -0.000006 0.086240
#
#
# Mechanical properties :
#
#
# Convention : Reuss Voigt Hill
#
# Bulk Modulus (GPa) = 19.46789 28.23456 23.85122
# Shear Modulus (GPa) = 19.55205 32.88802 26.22004
#
# Velocity S-wave (km/s) = 2.79664 3.62710 3.23860
# Velocity P-wave (km/s) = 4.26799 5.36987 4.85032
#
# Compressibility (1/GPa) = 0.05136664
#
# Stress axis : x y z
#
# Youngs Moduli (GPa) = 81.83165 30.91496 102.66150
#
# Poissons Ratio (x) = -0.12431 0.13102
# Poissons Ratio (y) = -0.32903 0.43274
# Poissons Ratio (z) = 0.10443 0.13031
#
# Static dielectric constant tensor:
#      x y z
#    x 1.996900 0.000000 -0.027420 
#    y 0.000000 2.034650 0.000000 
#    z -0.027420 0.000000 1.799680 
# 
# From -- ./inp_files/174188.got.cif
#   From: 2010.05.17/outbox.cif.g08.bks.cpg/sg15_88_cif.got.tgz:174188.got - 2010.06.03 18:47:42.
