data_PCOD9279352
_publ_section_title
;
Structure prediction by ZEFSAII (Michael W. Deem and Ramdas Pophale) SiO2 
 PCOD9279352
Probable space group: C 2/C
;
_chemical_formula_sum "Si O2"
_cell_formula_units_Z 64
_cell_length_a 14.084804
_cell_length_b 28.322370
_cell_length_c 9.259321
_cell_angle_alpha 90.000000
_cell_angle_beta 77.656913
_cell_angle_gamma 90.000000
_cell_volume 3608.303209
_symmetry_space_group_name_H-M "C 2/C"
_symmetry_group_IT_number 15
_symmetry_cell_setting 'monoclinic'
loop_
_space_group_symop_operation_xyz
x,y,z
-x,y,1/2-z
-x,-y,-z
x,-y,1/2+z
1/2+x,1/2+y,z
1/2-x,1/2+y,1/2-z
1/2-x,1/2-y,-z
1/2+x,1/2-y,1/2+z
loop_
_atom_site_type_symbol
_atom_site_label
_atom_site_fract_x
_atom_site_fract_y
_atom_site_fract_z
Si Si1 0.920494 0.130558 0.888442
Si Si2 0.267402 0.699084 0.559848
Si Si3 0.104646 0.620147 0.908303
Si Si4 0.615084 0.120381 0.554492
Si Si5 0.248778 0.200615 0.585543
Si Si6 0.275338 0.449643 0.331593
Si Si7 0.779251 0.049605 0.482817
Si Si8 0.936017 0.129934 0.406876
O O1 0.841892 0.170694 0.945333
O O2 0.860739 0.086979 0.842524
O O3 0.000000 0.148996 0.750000
O O4 0.983858 0.115363 0.002651
O O5 0.250000 0.750000 0.500000
O O6 0.182569 0.666408 0.518278
O O7 0.263567 0.703469 0.735683
O O8 0.367290 0.672339 0.485859
O O9 0.106008 0.619695 0.732361
O O10 0.156359 0.666783 0.955952
O O11 0.175390 0.575805 0.917346
O O12 0.990930 0.619659 0.981648
O O13 0.678055 0.076008 0.481609
O O14 0.250000 0.250000 0.500000
O O15 0.287835 0.499520 0.404165
O O16 0.278576 0.454963 0.157272
O O17 0.864560 0.085480 0.407914
O O18 0.000000 0.144524 0.250000
#
# Coordination Sequence:
#
# PCOD9279352 Si02
#       8
#     8   8   8   8   8   8   8   8
#     4  11  20  41  58  76 116 156 183 227 283 336
#     4  10  21  38  55  85 116 144 188 239 280 328
#     4   8  16  35  56  80 106 149 188 222 279 334
#     4   8  16  35  58  74 111 149 183 229 276 334
#     4  10  21  36  59  84 113 149 190 228 280 344
#     4  10  21  35  58  83 114 147 186 232 279 337
#     4  10  21  37  55  85 112 146 188 232 282 334
#     4  11  24  39  58  83 113 151 191 232 285 339
#
# _framework density 17.736868000000001
#
# number of rings (size 3 to 8) (size 9 to 14) (size 15 to 20)
#    0.000    2.250    2.500    1.500    3.500    2.500 
#    2.250    0.000    0.000    1.500    0.000    0.000 
#    0.000    0.000    0.000    0.000    0.000    0.000 
#
# Total GULP energy -178256.628878 kJ/mol
# GULP energy per Si atom -5570.519652 kJ/mol
# Density = 1.769650 g / cm^3
# Si number density = 17.736868 Si / 1000 Ang^3
#
#
#
# Elastic Constant Matrix: (Units=GPa)
#
#
# Indices 1 2 3 4 5 6 
#
# 1 146.2737 59.2128 27.8135 0.0000 -7.9509 0.0000
# 2 59.2128 141.6040 29.7906 0.0000 -10.2554 0.0000
# 3 27.8135 29.7906 43.7328 0.0000 -12.7884 0.0000
# 4 0.0000 0.0000 0.0000 31.3344 0.0000 6.9709
# 5 -7.9509 -10.2554 -12.7884 0.0000 15.8792 0.0000
# 6 0.0000 0.0000 0.0000 6.9709 0.0000 6.3334
#
#
#
# Elastic Compliance Matrix: (Units=1/GPa)
#
#
# Indices 1 2 3 4 5 6 
#
# 1 0.008682 -0.002888 -0.003700 0.000000 -0.000498 0.000000
# 2 -0.002888 0.009217 -0.004087 0.000000 0.001216 0.000000
# 3 -0.003700 -0.004087 0.034911 0.000000 0.023624 0.000000
# 4 0.000000 0.000000 0.000000 0.042262 0.000000 -0.046516
# 5 -0.000498 0.001216 0.023624 0.000000 0.082537 0.000000
# 6 0.000000 0.000000 0.000000 -0.046516 0.000000 0.209093
#
#
# Mechanical properties :
#
#
# Convention : Reuss Voigt Hill
#
# Bulk Modulus (GPa) = 31.78491 62.80493 47.29492
# Shear Modulus (GPa) = 11.94631 25.02895 18.48763
#
# Velocity S-wave (km/s) = 2.59806 3.76057 3.23201
# Velocity P-wave (km/s) = 5.19221 7.37170 6.37578
#
# Compressibility (1/GPa) = 0.03146147
#
# Stress axis : x y z
#
# Youngs Moduli (GPa) = 115.17923 108.49013 28.64423
#
# Poissons Ratio (x) = 0.31334 0.10598
# Poissons Ratio (y) = 0.33266 0.11706
# Poissons Ratio (z) = 0.42615 0.44335
#
# Static dielectric constant tensor:
#      x y z
#    x 1.611760 0.000000 0.002570 
#    y 0.000000 1.578540 0.000000 
#    z 0.002570 0.000000 1.656560 
# 
# From -- ./inp_files/43524.got.cif
#   From: 2010.05.17/outbox.cif.g08.bks.cpg/sg15_22_cif.got.tgz:43524.got - 2010.06.03 18:47:42.
