data_PCOD9279332
_publ_section_title
;
Structure prediction by ZEFSAII (Michael W. Deem and Ramdas Pophale) SiO2 
 PCOD9279332
Probable space group: C 2/C
;
_chemical_formula_sum "Si O2"
_cell_formula_units_Z 64
_cell_length_a 25.767114
_cell_length_b 17.072249
_cell_length_c 20.974918
_cell_angle_alpha 90.000000
_cell_angle_beta 159.397803
_cell_angle_gamma 90.000000
_cell_volume 3246.746160
_symmetry_space_group_name_H-M "C 2/C"
_symmetry_group_IT_number 15
_symmetry_cell_setting 'monoclinic'
loop_
_space_group_symop_operation_xyz
x,y,z
-x,y,1/2-z
-x,-y,-z
x,-y,1/2+z
1/2+x,1/2+y,z
1/2-x,1/2+y,1/2-z
1/2-x,1/2-y,-z
1/2+x,1/2-y,1/2+z
loop_
_atom_site_type_symbol
_atom_site_label
_atom_site_fract_x
_atom_site_fract_y
_atom_site_fract_z
Si Si1 0.520212 0.750849 0.009627
Si Si2 0.483666 0.927648 0.533320
Si Si3 0.663581 0.752320 0.588411
Si Si4 0.420160 0.414499 0.524459
Si Si5 0.301098 0.488814 0.623386
Si Si6 0.850517 0.904930 0.300170
Si Si7 0.459404 0.884444 0.136507
Si Si8 0.289854 0.992957 0.121513
O O1 0.694898 0.737433 0.202949
O O2 0.480404 0.840726 0.950232
O O3 0.489154 0.744450 0.048884
O O4 0.416571 0.682181 0.862746
O O5 0.318394 0.917594 0.370667
O O6 0.500000 0.000000 0.500000
O O7 0.594974 0.945618 0.718183
O O8 0.669589 0.665765 0.566496
O O9 0.640633 0.826604 0.518792
O O10 0.583186 0.417228 0.740734
O O11 0.429043 0.428106 0.458007
O O12 0.327819 0.477870 0.458108
O O13 0.361095 0.548076 0.746203
O O14 0.141407 0.458919 0.461764
O O15 0.283862 0.515406 0.530538
O O16 0.500000 0.844893 0.250000
O O17 0.606969 0.916519 0.273095
#
# Coordination Sequence:
#
# PCOD9279332 Si02
#       8
#     8   8   8   8   8   8   8   8
#     4  11  23  39  61  96 126 160 216 268 322 381
#     4  12  21  42  69  97 125 173 224 262 329 385
#     4  11  21  38  58  88 132 164 202 270 328 384
#     4  11  22  40  60  94 125 167 213 264 327 387
#     4  11  24  40  61  92 128 164 218 271 321 384
#     4  11  23  41  65  96 129 170 213 274 323 378
#     4  10  21  35  57  86 119 169 211 254 319 394
#     4  11  23  40  64  89 123 170 219 266 316 393
#
# _framework density 19.712042
#
# number of rings (size 3 to 8) (size 9 to 14) (size 15 to 20)
#    0.000    1.000    5.000    3.750    0.000    2.000 
#    0.000    3.750    0.000    0.000    0.000    0.000 
#    0.000    0.000    0.000    0.000    0.000    0.000 
#
# Total GULP energy -178161.359542 kJ/mol
# GULP energy per Si atom -5567.542486 kJ/mol
# Density = 1.966718 g / cm^3
# Si number density = 19.712042 Si / 1000 Ang^3
#
#
#
# Elastic Constant Matrix: (Units=GPa)
#
#
# Indices 1 2 3 4 5 6 
#
# 1 56.7843 37.2155 30.8191 -0.0035 -13.3075 -0.0015
# 2 37.2155 89.5139 31.5389 -0.0050 -21.1765 -0.0043
# 3 30.8191 31.5389 90.8825 -0.0045 -13.4545 -0.0046
# 4 -0.0035 -0.0050 -0.0045 34.3156 -0.0030 4.1673
# 5 -13.3075 -21.1765 -13.4545 -0.0030 40.7035 -0.0022
# 6 -0.0015 -0.0043 -0.0046 4.1673 -0.0022 11.8387
#
#
#
# Elastic Compliance Matrix: (Units=1/GPa)
#
#
# Indices 1 2 3 4 5 6 
#
# 1 0.026957 -0.008589 -0.005801 0.000001 0.002427 -0.000002
# 2 -0.008589 0.016717 -0.002120 0.000001 0.005188 0.000005
# 3 -0.005801 -0.002120 0.013945 0.000001 0.001609 0.000004
# 4 0.000001 0.000001 0.000001 0.030443 0.000003 -0.010716
# 5 0.002427 0.005188 0.001609 0.000003 0.028593 0.000007
# 6 -0.000002 0.000005 0.000004 -0.010716 0.000007 0.088241
#
#
# Mechanical properties :
#
#
# Convention : Reuss Voigt Hill
#
# Bulk Modulus (GPa) = 40.65632 48.48086 44.56859
# Shear Modulus (GPa) = 20.31564 26.54538 23.43051
#
# Velocity S-wave (km/s) = 3.21381 3.67366 3.45141
# Velocity P-wave (km/s) = 5.86867 6.53011 6.20821
#
# Compressibility (1/GPa) = 0.02459642
#
# Stress axis : x y z
#
# Youngs Moduli (GPa) = 37.09582 59.81958 71.71187
#
# Poissons Ratio (x) = 0.51381 0.41603
# Poissons Ratio (y) = 0.31863 0.15206
# Poissons Ratio (z) = 0.21521 0.12685
#
# Static dielectric constant tensor:
#      x y z
#    x 1.739730 0.000000 0.014150 
#    y 0.000000 1.744870 0.000000 
#    z 0.014150 0.000000 1.704110 
# 
# From -- ./inp_files/258084.got.cif
#   From: 2010.05.17/outbox.cif.g08.bks.cpg/sg15_130_cif.got.tgz:258084.got - 2010.06.03 18:47:42.
