data_PCOD9279454
_publ_section_title
;
Structure prediction by ZEFSAII (Michael W. Deem and Ramdas Pophale) SiO2 
 PCOD9279454
Probable space group: C 2/C
;
_chemical_formula_sum "Si O2"
_cell_formula_units_Z 56
_cell_length_a 12.322176
_cell_length_b 14.533634
_cell_length_c 28.211087
_cell_angle_alpha 90.000000
_cell_angle_beta 147.738108
_cell_angle_gamma 90.000000
_cell_volume 2696.819702
_symmetry_space_group_name_H-M "C 2/C"
_symmetry_group_IT_number 15
_symmetry_cell_setting 'monoclinic'
loop_
_space_group_symop_operation_xyz
x,y,z
-x,y,1/2-z
-x,-y,-z
x,-y,1/2+z
1/2+x,1/2+y,z
1/2-x,1/2+y,1/2-z
1/2-x,1/2-y,-z
1/2+x,1/2-y,1/2+z
loop_
_atom_site_type_symbol
_atom_site_label
_atom_site_fract_x
_atom_site_fract_y
_atom_site_fract_z
Si Si1 0.954580 0.731523 0.788256
Si Si2 0.572110 0.792888 0.467681
Si Si3 0.500000 0.538425 0.750000
Si Si4 0.162749 0.791865 0.254683
Si Si5 0.161227 0.869547 0.059312
Si Si6 0.859483 0.926470 0.613996
Si Si7 0.000000 0.367424 0.750000
Si Si8 0.412229 0.512863 0.392951
O O1 0.733755 0.712955 0.727039
O O2 0.000000 0.736724 0.750000
O O3 0.099669 0.648436 0.858876
O O4 0.024577 0.829521 0.834876
O O5 0.750000 0.750000 0.500000
O O6 0.365646 0.781578 0.362379
O O7 0.562876 0.729107 0.511144
O O8 0.646560 0.893299 0.512012
O O9 0.413711 0.609632 0.756753
O O10 0.354830 0.475456 0.663515
O O11 0.015690 0.706556 0.212758
O O12 0.120583 0.913950 0.095119
O O13 0.072564 0.936109 0.986637
O O14 0.992281 0.980591 0.623871
O O15 0.199686 0.431071 0.819748
#
# Coordination Sequence:
#
# PCOD9279454 Si02
#       8
#     8   8   4   8   8   8   4   8
#     4  11  21  38  64  90 115 165 213 246 298 365
#     4  11  17  40  67  83 113 168 210 241 301 366
#     4  11  28  38  57  96 132 158 193 258 326 343
#     4  11  22  41  62  87 125 166 203 244 316 376
#     4  10  21  35  60  95 115 154 206 260 293 356
#     4  11  21  41  61  86 124 161 206 254 293 371
#     4  11  20  36  61  90 122 168 185 254 312 371
#     4  11  21  36  60  93 124 152 207 257 303 353
#
# _framework density 20.765198999999999
#
# number of rings (size 3 to 8) (size 9 to 14) (size 15 to 20)
#    0.000    1.143    7.857    0.000    3.000    0.571 
#    0.000    0.000    0.000    1.714    0.000    0.000 
#    0.000    0.000    0.000    0.000    0.000    0.000 
#
# Total GULP energy -156064.077329 kJ/mol
# GULP energy per Si atom -5573.717047 kJ/mol
# Density = 2.071794 g / cm^3
# Si number density = 20.765199 Si / 1000 Ang^3
#
#
#
# Elastic Constant Matrix: (Units=GPa)
#
#
# Indices 1 2 3 4 5 6 
#
# 1 103.5236 33.0069 12.6051 0.0000 -25.2547 0.0000
# 2 33.0069 79.3246 16.1651 0.0000 -10.8519 0.0000
# 3 12.6051 16.1651 32.0265 0.0002 -14.4600 0.0000
# 4 0.0000 0.0000 0.0002 32.5345 0.0001 -9.9389
# 5 -25.2547 -10.8519 -14.4600 0.0001 27.2591 0.0000
# 6 0.0000 0.0000 0.0000 -9.9389 0.0000 29.3917
#
#
#
# Elastic Compliance Matrix: (Units=1/GPa)
#
#
# Indices 1 2 3 4 5 6 
#
# 1 0.013810 -0.004559 0.002397 0.000000 0.012251 0.000000
# 2 -0.004559 0.015678 -0.006848 0.000000 -0.001615 0.000000
# 3 0.002397 -0.006848 0.044062 0.000000 0.022868 0.000000
# 4 0.000000 0.000000 0.000000 0.034278 0.000000 0.011591
# 5 0.012251 -0.001615 0.022868 0.000000 0.059523 0.000000
# 6 0.000000 0.000000 0.000000 0.011591 0.000000 0.037943
#
#
# Mechanical properties :
#
#
# Convention : Reuss Voigt Hill
#
# Bulk Modulus (GPa) = 18.00820 37.60322 27.80571
# Shear Modulus (GPa) = 20.67627 28.04357 24.35992
#
# Velocity S-wave (km/s) = 3.15892 3.67891 3.42879
# Velocity P-wave (km/s) = 4.69001 6.01614 5.39398
#
# Compressibility (1/GPa) = 0.05553026
#
# Stress axis : x y z
#
# Youngs Moduli (GPa) = 72.41171 63.78382 22.69522
#
# Poissons Ratio (x) = 0.29078 -0.05440
# Poissons Ratio (y) = 0.33011 0.15542
# Poissons Ratio (z) = -0.17357 0.43680
#
# Static dielectric constant tensor:
#      x y z
#    x 1.797050 0.000000 -0.013730 
#    y 0.000000 1.772650 0.000000 
#    z -0.013730 0.000000 1.804800 
# 
# From -- ./inp_files/292919.got.cif
#   From: 2010.05.17/outbox.cif.g08.bks.cpg/sg15_147_cif.got.tgz:292919.got - 2010.06.03 18:47:42.
