data_PCOD9279543
_publ_section_title
;
Structure prediction by ZEFSAII (Michael W. Deem and Ramdas Pophale) SiO2 
 PCOD9279543
Probable space group: C 2/C
;
_chemical_formula_sum "Si O2"
_cell_formula_units_Z 60
_cell_length_a 19.368337
_cell_length_b 8.246140
_cell_length_c 14.575245
_cell_angle_alpha 90.000000
_cell_angle_beta 104.704941
_cell_angle_gamma 90.000000
_cell_volume 2251.623552
_symmetry_space_group_name_H-M "C 2/C"
_symmetry_group_IT_number 15
_symmetry_cell_setting 'monoclinic'
loop_
_space_group_symop_operation_xyz
x,y,z
-x,y,1/2-z
-x,-y,-z
x,-y,1/2+z
1/2+x,1/2+y,z
1/2-x,1/2+y,1/2-z
1/2-x,1/2-y,-z
1/2+x,1/2-y,1/2+z
loop_
_atom_site_type_symbol
_atom_site_label
_atom_site_fract_x
_atom_site_fract_y
_atom_site_fract_z
Si Si1 0.575902 0.851052 0.097049
Si Si2 0.500000 0.045900 0.750000
Si Si3 0.215717 0.641071 0.350855
Si Si4 0.645515 0.482807 0.669241
Si Si5 0.548179 0.336358 0.007173
Si Si6 0.073287 0.753750 0.316187
Si Si7 0.360989 0.558044 0.120381
Si Si8 0.708695 0.029583 0.553258
O O1 0.551654 0.869736 0.195164
O O2 0.617410 0.679603 0.111463
O O3 0.506325 0.812531 0.012020
O O4 0.632769 0.981484 0.078182
O O5 0.457738 0.921286 0.669015
O O6 0.268887 0.526480 0.312639
O O7 0.141932 0.695653 0.279950
O O8 0.254599 0.808973 0.390826
O O9 0.198034 0.557297 0.441657
O O10 0.607624 0.629996 0.604073
O O11 0.624382 0.460120 0.767353
O O12 0.590290 0.328414 0.924479
O O13 0.500000 0.500000 0.000000
O O14 0.110143 0.877106 0.399430
O O15 0.000000 0.829959 0.250000
O O16 0.276825 0.590773 0.082306
#
# Coordination Sequence:
#
# PCOD9279543 Si02
#       8
#     8   4   8   8   8   8   8   8
#     4  10  21  36  59  86 122 161 196 249 310 378
#     4  10  22  40  54  82 124 164 204 232 296 374
#     4   9  17  37  57  85 116 150 199 251 296 364
#     4  10  21  35  66  94 117 153 199 263 314 353
#     4  10  22  35  60  96 124 151 196 268 318 364
#     4   9  23  34  59  82 117 162 203 250 288 365
#     4  11  21  37  61  91 122 154 209 264 310 359
#     4   9  19  34  61  83 115 161 198 243 312 372
#
# _framework density 26.64744
#
# number of rings (size 3 to 8) (size 9 to 14) (size 15 to 20)
#    0.400    1.867    1.333    0.800   11.200    0.000 
#    0.000    0.667    0.000    0.800    0.000    0.000 
#    0.000    0.000    0.000    0.000    0.000    0.000 
#
# Total GULP energy -167344.795124 kJ/mol
# GULP energy per Si atom -5578.159837 kJ/mol
# Density = 2.658679 g / cm^3
# Si number density = 26.647440 Si / 1000 Ang^3
#
#
#
# Elastic Constant Matrix: (Units=GPa)
#
#
# Indices 1 2 3 4 5 6 
#
# 1 237.9380 33.3897 73.2571 0.0000 -10.4456 0.0000
# 2 33.3897 52.8949 11.9268 0.0000 1.2942 0.0000
# 3 73.2571 11.9268 122.3414 0.0000 -28.6268 0.0000
# 4 0.0000 0.0000 0.0000 19.0956 0.0000 -1.1315
# 5 -10.4456 1.2942 -28.6268 0.0000 46.4770 0.0000
# 6 0.0000 0.0000 0.0000 -1.1315 0.0000 31.1476
#
#
#
# Elastic Compliance Matrix: (Units=1/GPa)
#
#
# Indices 1 2 3 4 5 6 
#
# 1 0.005549 -0.002764 -0.003205 0.000000 -0.000650 0.000000
# 2 -0.002764 0.020865 -0.000771 0.000000 -0.001677 0.000000
# 3 -0.003205 -0.000771 0.011690 0.000000 0.006501 0.000000
# 4 0.000000 0.000000 0.000000 0.052481 0.000000 0.001906
# 5 -0.000650 -0.001677 0.006501 0.000000 0.025421 0.000000
# 6 0.000000 0.000000 0.000000 0.001906 0.000000 0.032174
#
#
# Mechanical properties :
#
#
# Convention : Reuss Voigt Hill
#
# Bulk Modulus (GPa) = 40.61420 72.25796 56.43608
# Shear Modulus (GPa) = 29.43437 38.98409 34.20923
#
# Velocity S-wave (km/s) = 3.32714 3.82901 3.58686
# Velocity P-wave (km/s) = 5.48034 6.83547 6.19507
#
# Compressibility (1/GPa) = 0.02462193
#
# Stress axis : x y z
#
# Youngs Moduli (GPa) = 180.21264 47.92659 85.54597
#
# Poissons Ratio (x) = 0.13248 0.27421
# Poissons Ratio (y) = 0.49813 0.06600
# Poissons Ratio (z) = 0.57765 0.03697
#
# Static dielectric constant tensor:
#      x y z
#    x 2.179950 0.000000 0.010500 
#    y 0.000000 2.188030 0.000000 
#    z 0.010500 0.000000 2.103970 
# 
# From -- ./inp_files/160956.got.cif
#   From: 2010.05.17/outbox.cif.g08.bks.cpg/sg15_81_cif.got.tgz:160956.got - 2010.06.03 18:47:42.
