data_PCOD9279986
_publ_section_title
;
Structure prediction by ZEFSAII (Michael W. Deem and Ramdas Pophale) SiO2 
 PCOD9279986
Probable space group: C 2/C
;
_chemical_formula_sum "Si O2"
_cell_formula_units_Z 32
_cell_length_a 14.118758
_cell_length_b 12.497178
_cell_length_c 12.878308
_cell_angle_alpha 90.000000
_cell_angle_beta 142.191020
_cell_angle_gamma 90.000000
_cell_volume 1392.995183
_symmetry_space_group_name_H-M "C 2/C"
_symmetry_group_IT_number 15
_symmetry_cell_setting 'monoclinic'
loop_
_space_group_symop_operation_xyz
x,y,z
-x,y,1/2-z
-x,-y,-z
x,-y,1/2+z
1/2+x,1/2+y,z
1/2-x,1/2+y,1/2-z
1/2-x,1/2-y,-z
1/2+x,1/2-y,1/2+z
loop_
_atom_site_type_symbol
_atom_site_label
_atom_site_fract_x
_atom_site_fract_y
_atom_site_fract_z
Si Si1 0.496477 0.352244 0.429207
Si Si2 0.963327 0.388629 0.874121
Si Si3 0.754425 0.552108 0.011160
Si Si4 0.198122 0.939434 0.777483
O O1 0.426714 0.237909 0.342746
O O2 0.614473 0.382331 0.438822
O O3 0.595400 0.355459 0.622548
O O4 0.373061 0.448191 0.326062
O O5 0.867146 0.457470 0.706668
O O6 0.879260 0.424908 0.906909
O O7 0.138255 0.392288 0.983505
O O8 0.690254 0.448788 0.895085
#
# Coordination Sequence:
#
# PCOD9279986 Si02
#       4
#     8   8   8   8
#     4  10  22  38  61  92 128 161 209 260 313 368
#     4  10  22  37  62  98 120 161 214 262 301 374
#     4  10  21  36  62  93 123 157 207 263 307 362
#     4  10  22  37  58  95 129 161 199 266 319 361
#
# _framework density 22.972083000000001
#
# number of rings (size 3 to 8) (size 9 to 14) (size 15 to 20)
#    0.000    2.000    0.000    2.250   14.000    0.000 
#    0.000    0.000    0.000   24.000    0.000    0.000 
#    0.000    0.000    0.000    0.000    0.000    0.000 
#
# Total GULP energy -89076.343442 kJ/mol
# GULP energy per Si atom -5567.271465 kJ/mol
# Density = 2.291980 g / cm^3
# Si number density = 22.972083 Si / 1000 Ang^3
#
#
#
# Elastic Constant Matrix: (Units=GPa)
#
#
# Indices 1 2 3 4 5 6 
#
# 1 107.8683 60.2665 12.1786 0.0000 11.3083 0.0000
# 2 60.2665 27.8063 0.2501 0.0000 4.7508 0.0000
# 3 12.1786 0.2501 103.5072 -0.0001 -19.5625 -0.0001
# 4 0.0000 0.0000 -0.0001 6.1511 -0.0001 15.7133
# 5 11.3083 4.7508 -19.5625 -0.0001 54.0207 0.0000
# 6 0.0000 0.0000 -0.0001 15.7133 0.0000 19.0768
#
#
#
# Elastic Compliance Matrix: (Units=1/GPa)
#
#
# Indices 1 2 3 4 5 6 
#
# 1 -0.041205 0.088804 0.005140 0.000000 0.002677 0.000000
# 2 0.088804 -0.154820 -0.011824 0.000000 -0.009256 0.000000
# 3 0.005140 -0.011824 0.009745 0.000000 0.003493 0.000000
# 4 0.000000 0.000000 0.000000 -0.147238 0.000000 0.121277
# 5 0.002677 -0.009256 0.003493 0.000000 0.020030 0.000000
# 6 0.000000 0.000000 0.000000 0.121277 0.000000 -0.047475
#
#
# Mechanical properties :
#
#
# Convention : Reuss Voigt Hill
#
# Bulk Modulus (GPa) = -45.37005 42.73024 -1.31990
# Shear Modulus (GPa) = -9.38882 26.94881 8.78000
#
# Velocity S-wave (km/s) = -2.02384 3.42879 1.95712
# Velocity P-wave (km/s) = 5.02536 5.85805 2.12868
#
# Compressibility (1/GPa) = -0.02204097
#
# Stress axis : x y z
#
# Youngs Moduli (GPa) = -24.26865 -6.45912 102.61486
#
# Poissons Ratio (x) = 0.57359 -0.52740
# Poissons Ratio (y) = 2.15515 1.21330
# Poissons Ratio (z) = 0.12473 -0.07637
#
# Static dielectric constant tensor:
#      x y z
#    x 1.873550 0.000000 -0.006050 
#    y 0.000000 1.878740 0.000000 
#    z -0.006050 0.000000 2.011750 
# 
# From -- ./inp_files/152342.got.cif
#   From: 2010.05.17/outbox.cif.g08.bks.cpg/sg15_77_cif.got.tgz:152342.got - 2010.06.03 18:47:42.
