data_PCOD9279648
_publ_section_title
;
Structure prediction by ZEFSAII (Michael W. Deem and Ramdas Pophale) SiO2 
 PCOD9279648
Probable space group: C 2/C
;
_chemical_formula_sum "Si O2"
_cell_formula_units_Z 56
_cell_length_a 14.149792
_cell_length_b 8.921006
_cell_length_c 22.914125
_cell_angle_alpha 90.000000
_cell_angle_beta 56.943569
_cell_angle_gamma 90.000000
_cell_volume 2424.267228
_symmetry_space_group_name_H-M "C 2/C"
_symmetry_group_IT_number 15
_symmetry_cell_setting 'monoclinic'
loop_
_space_group_symop_operation_xyz
x,y,z
-x,y,1/2-z
-x,-y,-z
x,-y,1/2+z
1/2+x,1/2+y,z
1/2-x,1/2+y,1/2-z
1/2-x,1/2-y,-z
1/2+x,1/2-y,1/2+z
loop_
_atom_site_type_symbol
_atom_site_label
_atom_site_fract_x
_atom_site_fract_y
_atom_site_fract_z
Si Si1 0.200042 0.095563 0.133359
Si Si2 0.371672 0.470792 0.225366
Si Si3 0.309548 0.941234 0.366445
Si Si4 0.462618 0.892234 0.587356
Si Si5 0.048660 0.951406 0.420247
Si Si6 0.633257 0.107946 0.264058
Si Si7 0.292092 0.919062 0.998924
O O1 0.159669 0.266478 0.141430
O O2 0.333624 0.095452 0.108456
O O3 0.123838 0.021921 0.209075
O O4 0.207655 0.000470 0.071621
O O5 0.455770 0.521864 0.144252
O O6 0.366672 0.288939 0.230796
O O7 0.252741 0.543750 0.246025
O O8 0.181824 0.945606 0.385805
O O9 0.377263 0.043684 0.297538
O O10 0.297148 0.004144 0.434838
O O11 0.491009 0.716554 0.576257
O O12 0.454395 0.947584 0.657289
O O13 0.579646 0.948670 0.520484
O O14 0.000000 0.000000 0.500000
O O15 0.250000 0.750000 0.000000
#
# Coordination Sequence:
#
# PCOD9279648 Si02
#       7
#     8   8   8   8   8   8   8
#     4  10  21  40  58  81 115 152 196 234 278 346
#     4   9  17  31  56  84 108 147 192 236 278 330
#     4  10  21  36  56  81 113 152 186 234 291 337
#     4   9  20  36  58  85 112 148 193 236 277 335
#     4   9  17  33  56  84 115 144 185 234 281 334
#     4   9  17  34  57  83 114 147 190 237 284 340
#     4  12  23  36  58  86 116 152 189 236 292 341
#
# _framework density 23.099765000000001
#
# number of rings (size 3 to 8) (size 9 to 14) (size 15 to 20)
#    0.000    2.286    0.000    5.143    0.000    1.714 
#    0.000    5.714    0.000   16.286    0.000    0.000 
#    0.000    0.000    0.000    0.000    0.000    0.000 
#
# Total GULP energy -155906.072169 kJ/mol
# GULP energy per Si atom -5568.074006 kJ/mol
# Density = 2.304719 g / cm^3
# Si number density = 23.099765 Si / 1000 Ang^3
#
#
#
# Elastic Constant Matrix: (Units=GPa)
#
#
# Indices 1 2 3 4 5 6 
#
# 1 60.2397 13.6993 21.2637 0.0000 -13.5658 0.0000
# 2 13.6993 114.8295 91.0202 0.0000 19.6904 0.0000
# 3 21.2637 91.0202 246.3908 0.0000 20.3484 0.0000
# 4 0.0000 0.0000 0.0000 37.5184 0.0000 10.6644
# 5 -13.5658 19.6904 20.3484 0.0000 42.3224 0.0000
# 6 0.0000 0.0000 0.0000 10.6644 0.0000 15.5316
#
#
#
# Elastic Compliance Matrix: (Units=1/GPa)
#
#
# Indices 1 2 3 4 5 6 
#
# 1 0.019522 -0.002626 -0.001387 0.000000 0.008146 0.000000
# 2 -0.002626 0.013247 -0.004257 0.000000 -0.004958 0.000000
# 3 -0.001387 -0.004257 0.005857 0.000000 -0.001280 0.000000
# 4 0.000000 0.000000 0.000000 0.033117 0.000000 -0.022739
# 5 0.008146 -0.004958 -0.001280 0.000000 0.029161 0.000000
# 6 0.000000 0.000000 0.000000 -0.022739 0.000000 0.079998
#
#
# Mechanical properties :
#
#
# Convention : Reuss Voigt Hill
#
# Bulk Modulus (GPa) = 45.28296 74.82515 60.05406
# Shear Modulus (GPa) = 24.41347 38.77293 31.59320
#
# Velocity S-wave (km/s) = 3.25448 4.10139 3.70223
# Velocity P-wave (km/s) = 5.81102 7.40885 6.65804
#
# Compressibility (1/GPa) = 0.02208336
#
# Stress axis : x y z
#
# Youngs Moduli (GPa) = 51.22478 75.49064 170.74247
#
# Poissons Ratio (x) = 0.19825 0.23688
# Poissons Ratio (y) = 0.13452 0.72692
# Poissons Ratio (z) = 0.07107 0.32140
#
# Static dielectric constant tensor:
#      x y z
#    x 1.760960 0.000000 0.008730 
#    y 0.000000 1.833930 0.000000 
#    z 0.008730 0.000000 1.910930 
# 
# From -- ./inp_files/276511.got.cif
#   From: 2010.05.17/outbox.cif.g08.bks.cpg/sg15_139_cif.got.tgz:276511.got - 2010.06.03 18:47:42.
