data_PCOD9279441
_publ_section_title
;
Structure prediction by ZEFSAII (Michael W. Deem and Ramdas Pophale) SiO2 
 PCOD9279441
Probable space group: C 2/C
;
_chemical_formula_sum "Si O2"
_cell_formula_units_Z 48
_cell_length_a 17.108716
_cell_length_b 21.574648
_cell_length_c 12.642860
_cell_angle_alpha 90.000000
_cell_angle_beta 151.339933
_cell_angle_gamma 90.000000
_cell_volume 2238.187905
_symmetry_space_group_name_H-M "C 2/C"
_symmetry_group_IT_number 15
_symmetry_cell_setting 'monoclinic'
loop_
_space_group_symop_operation_xyz
x,y,z
-x,y,1/2-z
-x,-y,-z
x,-y,1/2+z
1/2+x,1/2+y,z
1/2-x,1/2+y,1/2-z
1/2-x,1/2-y,-z
1/2+x,1/2-y,1/2+z
loop_
_atom_site_type_symbol
_atom_site_label
_atom_site_fract_x
_atom_site_fract_y
_atom_site_fract_z
Si Si1 0.163530 0.969228 0.144995
Si Si2 0.745401 0.034858 0.965359
Si Si3 0.380059 0.833154 0.805283
Si Si4 0.744889 0.399523 0.444244
Si Si5 0.109367 0.568010 0.018436
Si Si6 0.515075 0.710739 0.884274
O O1 0.151607 0.941813 0.012913
O O2 0.259504 0.923368 0.339576
O O3 0.281058 0.028094 0.273172
O O4 0.000000 0.000000 0.000000
O O5 0.555003 0.032323 0.705867
O O6 0.722125 0.073770 0.046866
O O7 0.805257 0.965761 0.065083
O O8 0.369488 0.870337 0.679735
O O9 0.442340 0.872274 0.977945
O O10 0.471448 0.767908 0.905797
O O11 0.192503 0.816951 0.608774
O O12 0.611281 0.345860 0.270571
O O13 0.500000 0.739931 0.750000
#
# Coordination Sequence:
#
# PCOD9279441 Si02
#       6
#     8   8   8   8   8   8
#     4  11  22  35  58  91 125 169 196 248 319 374
#     4  10  22  39  59  91 122 165 206 243 320 374
#     4  11  22  40  62  88 125 159 216 261 313 373
#     4  10  21  35  60  88 127 152 200 254 312 377
#     4  10  22  40  60  86 127 167 204 260 304 381
#     4  10  22  39  58  91 119 167 201 262 320 364
#
# _framework density 21.445920999999998
#
# number of rings (size 3 to 8) (size 9 to 14) (size 15 to 20)
#    0.000    1.667    1.667    3.500    4.667    4.667 
#   12.000    0.000    0.000    9.000    0.000    0.000 
#    0.000    0.000    0.000    0.000    0.000    0.000 
#
# Total GULP energy -133686.889195 kJ/mol
# GULP energy per Si atom -5570.287050 kJ/mol
# Density = 2.139711 g / cm^3
# Si number density = 21.445921 Si / 1000 Ang^3
#
#
#
# Elastic Constant Matrix: (Units=GPa)
#
#
# Indices 1 2 3 4 5 6 
#
# 1 152.4185 49.7118 26.6825 0.0000 -25.6494 0.0000
# 2 49.7118 105.5343 16.6144 0.0000 -7.2275 0.0000
# 3 26.6825 16.6144 50.2055 0.0000 -11.7824 0.0000
# 4 0.0000 0.0000 0.0000 3.8753 0.0000 -21.4393
# 5 -25.6494 -7.2275 -11.7824 0.0000 26.6013 0.0000
# 6 0.0000 0.0000 0.0000 -21.4393 0.0000 13.8325
#
#
#
# Elastic Compliance Matrix: (Units=1/GPa)
#
#
# Indices 1 2 3 4 5 6 
#
# 1 0.009274 -0.003555 -0.002098 0.000000 0.007046 0.000000
# 2 -0.003555 0.011406 -0.002190 0.000000 -0.001299 0.000000
# 3 -0.002098 -0.002190 0.023596 0.000000 0.007833 0.000000
# 4 0.000000 0.000000 0.000000 -0.034067 0.000000 -0.052801
# 5 0.007046 -0.001299 0.007833 0.000000 0.047503 0.000000
# 6 0.000000 0.000000 0.000000 -0.052801 0.000000 -0.009544
#
#
# Mechanical properties :
#
#
# Convention : Reuss Voigt Hill
#
# Bulk Modulus (GPa) = 34.97878 54.90841 44.94359
# Shear Modulus (GPa) = 68.13382 23.20513 45.66948
#
# Velocity S-wave (km/s) = 5.64261 3.29299 4.61968
# Velocity P-wave (km/s) = 7.66796 6.33381 7.03260
#
# Compressibility (1/GPa) = 0.02858876
#
# Stress axis : x y z
#
# Youngs Moduli (GPa) = 107.83289 87.67200 42.37936
#
# Poissons Ratio (x) = 0.31171 0.08893
# Poissons Ratio (y) = 0.38339 0.09281
# Poissons Ratio (z) = 0.22627 0.19200
#
# Static dielectric constant tensor:
#      x y z
#    x 1.908080 0.000000 -0.008080 
#    y 0.000000 1.825420 0.000000 
#    z -0.008080 0.000000 1.803410 
# 
# From -- ./inp_files/100057.got.cif
#   From: 2010.05.17/outbox.cif.g08.bks.cpg/sg15_51_cif.got.tgz:100057.got - 2010.06.03 18:47:42.
