data_PCOD9279826
_publ_section_title
;
Structure prediction by ZEFSAII (Michael W. Deem and Ramdas Pophale) SiO2 
 PCOD9279826
Probable space group: C 2/C
;
_chemical_formula_sum "Si O2"
_cell_formula_units_Z 64
_cell_length_a 14.738780
_cell_length_b 13.010261
_cell_length_c 13.468862
_cell_angle_alpha 90.000000
_cell_angle_beta 100.421109
_cell_angle_gamma 90.000000
_cell_volume 2540.124336
_symmetry_space_group_name_H-M "C 2/C"
_symmetry_group_IT_number 15
_symmetry_cell_setting 'monoclinic'
loop_
_space_group_symop_operation_xyz
x,y,z
-x,y,1/2-z
-x,-y,-z
x,-y,1/2+z
1/2+x,1/2+y,z
1/2-x,1/2+y,1/2-z
1/2-x,1/2-y,-z
1/2+x,1/2-y,1/2+z
loop_
_atom_site_type_symbol
_atom_site_label
_atom_site_fract_x
_atom_site_fract_y
_atom_site_fract_z
Si Si1 0.891618 0.724673 0.162833
Si Si2 0.820812 0.201281 0.363835
Si Si3 0.120392 0.075348 0.928122
Si Si4 0.118758 0.909248 0.056732
Si Si5 0.809819 0.351485 0.031655
Si Si6 0.896406 0.382086 0.251769
Si Si7 0.786896 0.997206 0.742223
Si Si8 0.441060 0.183767 0.399018
O O1 0.782807 0.733509 0.126251
O O2 0.930631 0.838008 0.146480
O O3 0.907005 0.691824 0.278791
O O4 0.951167 0.657649 0.096321
O O5 0.856709 0.137702 0.465787
O O6 0.881338 0.296368 0.335083
O O7 0.804667 0.121748 0.269671
O O8 0.194656 0.034195 0.864638
O O9 0.070617 0.973826 0.959560
O O10 0.225977 0.925623 0.043151
O O11 0.135995 0.947110 0.172457
O O12 0.079943 0.794479 0.053769
O O13 0.868063 0.331230 0.141602
O O14 0.750000 0.250000 0.000000
O O15 0.876443 0.385418 0.955742
O O16 0.817327 0.467814 0.252305
O O17 0.000000 0.419922 0.250000
#
# Coordination Sequence:
#
# PCOD9279826 Si02
#       8
#     8   8   8   8   8   8   8   8
#     4  11  22  39  61  91 124 168 210 272 321 397
#     4  11  24  42  67  94 129 177 224 261 352 400
#     4  11  22  37  67  86 125 170 210 267 328 393
#     4   9  19  38  58  89 118 169 209 258 323 392
#     4   9  19  37  64  90 126 172 218 260 330 401
#     4  11  24  43  69 103 136 172 226 293 325 392
#     4  10  22  42  64  91 134 171 216 265 336 408
#     4  10  21  36  59  91 124 160 216 266 316 388
#
# _framework density 25.195618
#
# number of rings (size 3 to 8) (size 9 to 14) (size 15 to 20)
#    0.000    1.750    2.500    1.875    7.000    0.500 
#    2.250    2.500    0.000    4.500    0.000    0.000 
#    0.000    0.000    0.000    0.000    0.000    0.000 
#
# Total GULP energy -178432.069583 kJ/mol
# GULP energy per Si atom -5576.002174 kJ/mol
# Density = 2.513827 g / cm^3
# Si number density = 25.195618 Si / 1000 Ang^3
#
#
#
# Elastic Constant Matrix: (Units=GPa)
#
#
# Indices 1 2 3 4 5 6 
#
# 1 120.4441 -9.7032 30.7520 0.0000 -46.9408 0.0000
# 2 -9.7032 52.9430 14.7222 0.0000 -0.9842 0.0000
# 3 30.7520 14.7222 137.8054 0.0000 -23.8674 0.0000
# 4 0.0000 0.0000 0.0000 32.6212 0.0000 -0.8110
# 5 -46.9408 -0.9842 -23.8674 0.0000 46.8248 0.0000
# 6 0.0000 0.0000 0.0000 -0.8110 0.0000 -13.5689
#
#
#
# Elastic Compliance Matrix: (Units=1/GPa)
#
#
# Indices 1 2 3 4 5 6 
#
# 1 0.014193 0.003171 -0.001130 0.000000 0.013719 0.000000
# 2 0.003171 0.020197 -0.002458 0.000000 0.002350 0.000000
# 3 -0.001130 -0.002458 0.008299 0.000000 0.003046 0.000000
# 4 0.000000 0.000000 0.000000 0.030609 0.000000 -0.001829
# 5 0.013719 0.002350 0.003046 0.000000 0.036711 0.000000
# 6 0.000000 0.000000 0.000000 -0.001829 0.000000 -0.073589
#
#
# Mechanical properties :
#
#
# Convention : Reuss Voigt Hill
#
# Bulk Modulus (GPa) = 23.89279 42.52606 33.20943
# Shear Modulus (GPa) = 97.64296 31.53685 64.58991
#
# Velocity S-wave (km/s) = 6.23202 3.54175 5.06863
# Velocity P-wave (km/s) = 7.82864 5.80003 6.88941
#
# Compressibility (1/GPa) = 0.04185362
#
# Stress axis : x y z
#
# Youngs Moduli (GPa) = 70.45572 49.51332 120.49830
#
# Poissons Ratio (x) = -0.15698 0.13615
# Poissons Ratio (y) = -0.22338 0.29621
# Poissons Ratio (z) = 0.07961 0.12171
#
# Static dielectric constant tensor:
#      x y z
#    x 2.226790 0.000000 -0.005120 
#    y 0.000000 2.131590 0.000000 
#    z -0.005120 0.000000 1.980720 
# 
# From -- ./inp_files/98790.got.cif
#   From: 2010.05.17/outbox.cif.g08.bks.cpg/sg15_50_cif.got.tgz:98790.got - 2010.06.03 18:47:42.
