data_PCOD9279473
_publ_section_title
;
Structure prediction by ZEFSAII (Michael W. Deem and Ramdas Pophale) SiO2 
 PCOD9279473
Probable space group: C 2/C
;
_chemical_formula_sum "Si O2"
_cell_formula_units_Z 56
_cell_length_a 12.764355
_cell_length_b 15.882502
_cell_length_c 18.958384
_cell_angle_alpha 90.000000
_cell_angle_beta 46.411188
_cell_angle_gamma 90.000000
_cell_volume 2783.822213
_symmetry_space_group_name_H-M "C 2/C"
_symmetry_group_IT_number 15
_symmetry_cell_setting 'monoclinic'
loop_
_space_group_symop_operation_xyz
x,y,z
-x,y,1/2-z
-x,-y,-z
x,-y,1/2+z
1/2+x,1/2+y,z
1/2-x,1/2+y,1/2-z
1/2-x,1/2-y,-z
1/2+x,1/2-y,1/2+z
loop_
_atom_site_type_symbol
_atom_site_label
_atom_site_fract_x
_atom_site_fract_y
_atom_site_fract_z
Si Si1 0.749200 0.821509 0.443744
Si Si2 0.387501 0.485103 0.389543
Si Si3 0.201692 0.011707 0.736161
Si Si4 0.227664 0.211953 0.730075
Si Si5 0.918611 0.638251 0.115447
Si Si6 0.030335 0.745123 0.656212
Si Si7 0.224077 0.369385 0.972002
O O1 0.750000 0.750000 0.500000
O O2 0.873314 0.886623 0.407660
O O3 0.781967 0.786930 0.350312
O O4 0.591337 0.866031 0.523294
O O5 0.343403 0.491460 0.326403
O O6 0.546104 0.512978 0.340335
O O7 0.257362 0.537503 0.483235
O O8 0.228587 0.109883 0.744279
O O9 0.332511 0.944831 0.685558
O O10 0.121321 0.277266 0.820719
O O11 0.383709 0.246006 0.681200
O O12 0.857076 0.643131 0.064190
O O13 0.139146 0.680710 0.569821
O O14 0.116392 0.832359 0.615872
O O15 0.000000 0.721062 0.750000
#
# Coordination Sequence:
#
# PCOD9279473 Si02
#       7
#     8   8   8   8   8   8   8
#     4  11  24  40  62  87 123 169 209 246 306 362
#     4   9  19  37  59  85 121 156 207 258 290 363
#     4   9  20  35  61  91 118 163 208 247 306 360
#     4  11  22  38  63  89 125 156 208 258 304 363
#     4  11  21  38  65  90 121 164 209 255 301 368
#     4  11  21  36  59  91 121 153 189 253 314 361
#     4  10  21  35  61  91 116 154 204 247 310 361
#
# _framework density 20.116226000000001
#
# number of rings (size 3 to 8) (size 9 to 14) (size 15 to 20)
#    0.000    1.714    2.857    1.714    4.000    3.429 
#    0.000    1.429    0.000    3.429    0.000    0.000 
#    0.000    0.000    0.000    0.000    0.000    0.000 
#
# Total GULP energy -155934.169634 kJ/mol
# GULP energy per Si atom -5569.077487 kJ/mol
# Density = 2.007044 g / cm^3
# Si number density = 20.116226 Si / 1000 Ang^3
#
#
#
# Elastic Constant Matrix: (Units=GPa)
#
#
# Indices 1 2 3 4 5 6 
#
# 1 28.5225 2.7221 5.3503 0.0000 -5.9930 0.0000
# 2 2.7221 54.8718 17.8910 0.0000 17.4364 0.0000
# 3 5.3503 17.8910 75.5982 0.0000 6.4314 0.0000
# 4 0.0000 0.0000 0.0000 27.2332 0.0000 -3.6703
# 5 -5.9930 17.4364 6.4314 0.0000 27.5404 0.0000
# 6 0.0000 0.0000 0.0000 -3.6703 0.0000 21.9688
#
#
#
# Elastic Compliance Matrix: (Units=1/GPa)
#
#
# Indices 1 2 3 4 5 6 
#
# 1 0.038560 -0.004914 -0.002596 0.000000 0.012109 0.000000
# 2 -0.004914 0.024866 -0.004190 0.000000 -0.015834 0.000000
# 3 -0.002596 -0.004190 0.014514 0.000000 -0.001302 0.000000
# 4 0.000000 0.000000 0.000000 0.037566 0.000000 0.006276
# 5 0.012109 -0.015834 -0.001302 0.000000 0.049274 0.000000
# 6 0.000000 0.000000 0.000000 0.006276 0.000000 0.046568
#
#
# Mechanical properties :
#
#
# Convention : Reuss Voigt Hill
#
# Bulk Modulus (GPa) = 18.33533 23.43548 20.88540
# Shear Modulus (GPa) = 19.76853 24.21708 21.99281
#
# Velocity S-wave (km/s) = 3.13823 3.47343 3.31008
# Velocity P-wave (km/s) = 4.71867 5.26893 5.00137
#
# Compressibility (1/GPa) = 0.05453951
#
# Stress axis : x y z
#
# Youngs Moduli (GPa) = 25.93346 40.21608 68.89955
#
# Poissons Ratio (x) = 0.19763 0.17887
# Poissons Ratio (y) = 0.12744 0.28868
# Poissons Ratio (z) = 0.06733 0.16850
#
# Static dielectric constant tensor:
#      x y z
#    x 1.677530 0.000000 -0.043370 
#    y 0.000000 1.804280 0.000000 
#    z -0.043370 0.000000 1.715370 
# 
# From -- ./inp_files/199447.got.cif
#   From: 2010.05.17/outbox.cif.g08.bks.cpg/sg15_100_cif.got.tgz:199447.got - 2010.06.03 18:47:42.
