data_PCOD9279590
_publ_section_title
;
Structure prediction by ZEFSAII (Michael W. Deem and Ramdas Pophale) SiO2 
 PCOD9279590
Probable space group: C 2/C
;
_chemical_formula_sum "Si O2"
_cell_formula_units_Z 48
_cell_length_a 11.663785
_cell_length_b 15.200865
_cell_length_c 25.731738
_cell_angle_alpha 90.000000
_cell_angle_beta 31.755546
_cell_angle_gamma 90.000000
_cell_volume 2401.083089
_symmetry_space_group_name_H-M "C 2/C"
_symmetry_group_IT_number 15
_symmetry_cell_setting 'monoclinic'
loop_
_space_group_symop_operation_xyz
x,y,z
-x,y,1/2-z
-x,-y,-z
x,-y,1/2+z
1/2+x,1/2+y,z
1/2-x,1/2+y,1/2-z
1/2-x,1/2-y,-z
1/2+x,1/2-y,1/2+z
loop_
_atom_site_type_symbol
_atom_site_label
_atom_site_fract_x
_atom_site_fract_y
_atom_site_fract_z
Si Si1 0.418631 0.368036 0.918989
Si Si2 0.741879 0.447440 0.136396
Si Si3 0.742854 0.524609 0.344046
Si Si4 0.074152 0.872218 0.011269
Si Si5 0.444376 0.217544 0.994988
Si Si6 0.144964 0.527872 0.024841
O O1 0.645451 0.421384 0.832290
O O2 0.447844 0.286057 0.946047
O O3 0.249406 0.439410 0.009699
O O4 0.291431 0.330148 0.917936
O O5 0.500000 0.440006 0.250000
O O6 0.749081 0.473771 0.073293
O O7 0.873977 0.355803 0.085439
O O8 0.890594 0.514281 0.112698
O O9 0.628913 0.429529 0.389639
O O10 0.657632 0.579546 0.426708
O O11 0.000000 0.519120 0.250000
O O12 0.268461 0.888654 0.977291
O O13 0.001437 0.774734 0.023573
#
# Coordination Sequence:
#
# PCOD9279590 Si02
#       6
#     8   8   8   8   8   8
#     4   8  16  32  51  74 105 140 173 209 262 321
#     4  10  21  36  54  77 106 142 183 221 271 335
#     4   9  17  30  52  80 107 142 185 219 258 320
#     4   9  18  32  53  81 110 137 177 231 270 308
#     4   9  17  32  55  77 106 140 171 216 275 321
#     4   9  19  36  55  75 105 144 181 223 268 316
#
# _framework density 19.990978999999999
#
# number of rings (size 3 to 8) (size 9 to 14) (size 15 to 20)
#    0.000    3.000    0.000    1.000    0.000    6.000 
#    0.000    0.000    0.000   11.000    0.000    0.000 
#    0.000    0.000    0.000    0.000    0.000    0.000 
#
# Total GULP energy -133634.978125 kJ/mol
# GULP energy per Si atom -5568.124089 kJ/mol
# Density = 1.994548 g / cm^3
# Si number density = 19.990979 Si / 1000 Ang^3
#
#
#
# Elastic Constant Matrix: (Units=GPa)
#
#
# Indices 1 2 3 4 5 6 
#
# 1 119.3335 63.5999 47.9836 -0.0005 -39.5280 0.0017
# 2 63.5999 76.5350 47.4240 0.0018 -20.4996 0.0021
# 3 47.9836 47.4240 101.8160 -0.0009 -39.8299 0.0115
# 4 -0.0005 0.0018 -0.0009 11.1980 0.0009 -7.0758
# 5 -39.5280 -20.4996 -39.8299 0.0009 31.8113 -0.0022
# 6 0.0017 0.0021 0.0115 -7.0758 -0.0022 44.1802
#
#
#
# Elastic Compliance Matrix: (Units=1/GPa)
#
#
# Indices 1 2 3 4 5 6 
#
# 1 0.023550 -0.016838 0.007736 0.000002 0.028099 0.000000
# 2 -0.016838 0.030484 -0.013257 -0.000005 -0.017876 0.000001
# 3 0.007736 -0.013257 0.025028 -0.000001 0.032406 -0.000005
# 4 0.000002 -0.000005 -0.000001 0.099357 -0.000004 0.015913
# 5 0.028099 -0.017876 0.032406 -0.000004 0.095405 -0.000004
# 6 0.000000 0.000001 -0.000005 0.015913 -0.000004 0.025183
#
#
# Mechanical properties :
#
#
# Convention : Reuss Voigt Hill
#
# Bulk Modulus (GPa) = 29.11587 68.41107 48.76347
# Shear Modulus (GPa) = 14.07767 26.68302 20.38035
#
# Velocity S-wave (km/s) = 2.65656 3.65739 3.19639
# Velocity P-wave (km/s) = 4.89958 7.22015 6.16995
#
# Compressibility (1/GPa) = 0.03434553
#
# Stress axis : x y z
#
# Youngs Moduli (GPa) = 42.46209 32.80391 39.95575
#
# Poissons Ratio (x) = 0.55234 -0.30909
# Poissons Ratio (y) = 0.71496 0.52968
# Poissons Ratio (z) = -0.32848 0.43487
#
# Static dielectric constant tensor:
#      x y z
#    x 1.799100 0.000000 -0.028170 
#    y 0.000000 1.737240 0.000000 
#    z -0.028170 0.000000 1.670580 
# 
# From -- ./inp_files/292985.got.cif
#   From: 2010.05.17/outbox.cif.g08.bks.cpg/sg15_147_cif.got.tgz:292985.got - 2010.06.03 18:47:42.
