data_PCOD9279280
_publ_section_title
;
Structure prediction by ZEFSAII (Michael W. Deem and Ramdas Pophale) SiO2 
 PCOD9279280
Probable space group: C 2/C
;
_chemical_formula_sum "Si O2"
_cell_formula_units_Z 28
_cell_length_a 15.726424
_cell_length_b 18.812275
_cell_length_c 5.182457
_cell_angle_alpha 90.000000
_cell_angle_beta 126.259721
_cell_angle_gamma 90.000000
_cell_volume 1236.310365
_symmetry_space_group_name_H-M "C 2/C"
_symmetry_group_IT_number 15
_symmetry_cell_setting 'monoclinic'
loop_
_space_group_symop_operation_xyz
x,y,z
-x,y,1/2-z
-x,-y,-z
x,-y,1/2+z
1/2+x,1/2+y,z
1/2-x,1/2+y,1/2-z
1/2-x,1/2-y,-z
1/2+x,1/2-y,1/2+z
loop_
_atom_site_type_symbol
_atom_site_label
_atom_site_fract_x
_atom_site_fract_y
_atom_site_fract_z
Si Si1 0.500000 0.949272 0.250000
Si Si2 0.178970 0.332679 0.657206
Si Si3 0.316748 0.325204 0.406183
Si Si4 0.617084 0.529074 0.656045
O O1 0.599164 0.895664 0.452533
O O2 0.500000 0.000000 0.500000
O O3 0.274282 0.335075 0.619556
O O4 0.134353 0.252786 0.533761
O O5 0.220720 0.331900 0.026396
O O6 0.387243 0.390556 0.442566
O O7 0.500000 0.500000 0.500000
O O8 0.671761 0.484401 0.527519
#
# Coordination Sequence:
#
# PCOD9279280 Si02
#       4
#     4   8   8   8
#     4  12  26  42  62  92 126 162 210 260 310 362
#     4  10  23  41  63  87 117 163 206 253 301 359
#     4  10  21  41  64  88 119 158 206 247 305 371
#     4  10  21  35  55  89 123 152 187 237 302 364
#
# _framework density 22.648033999999999
#
# number of rings (size 3 to 8) (size 9 to 14) (size 15 to 20)
#    0.000    1.714    0.000    3.429    0.000    9.143 
#    0.000    8.571    0.000    0.000    0.000    0.000 
#    0.000    0.000    0.000    0.000    0.000    0.000 
#
# Total GULP energy -78196.661608 kJ/mol
# GULP energy per Si atom -5585.475829 kJ/mol
# Density = 2.259649 g / cm^3
# Si number density = 22.648034 Si / 1000 Ang^3
#
#
#
# Elastic Constant Matrix: (Units=GPa)
#
#
# Indices 1 2 3 4 5 6 
#
# 1 52.9565 56.4211 29.3947 0.0000 -21.5211 0.0000
# 2 56.4211 226.2009 38.0369 0.0000 -0.1814 0.0000
# 3 29.3947 38.0369 85.9471 0.0000 -30.0949 0.0000
# 4 0.0000 0.0000 0.0000 39.9751 0.0000 -8.4674
# 5 -21.5211 -0.1814 -30.0949 0.0000 51.5601 0.0000
# 6 0.0000 0.0000 0.0000 -8.4674 0.0000 16.9234
#
#
#
# Elastic Compliance Matrix: (Units=1/GPa)
#
#
# Indices 1 2 3 4 5 6 
#
# 1 0.034413 -0.007885 -0.004097 0.000000 0.011944 0.000000
# 2 -0.007885 0.006681 -0.001765 0.000000 -0.004298 0.000000
# 3 -0.004097 -0.001765 0.016612 0.000000 0.007979 0.000000
# 4 0.000000 0.000000 0.000000 0.027981 0.000000 0.014000
# 5 0.011944 -0.004298 0.007979 0.000000 0.029023 0.000000
# 6 0.000000 0.000000 0.000000 0.014000 0.000000 0.066094
#
#
# Mechanical properties :
#
#
# Convention : Reuss Voigt Hill
#
# Bulk Modulus (GPa) = 33.10095 68.08999 50.59547
# Shear Modulus (GPa) = 22.89712 37.77518 30.33615
#
# Velocity S-wave (km/s) = 3.18307 4.08845 3.66383
# Velocity P-wave (km/s) = 5.30625 7.23995 6.34718
#
# Compressibility (1/GPa) = 0.03021062
#
# Stress axis : x y z
#
# Youngs Moduli (GPa) = 29.05899 149.68007 60.19901
#
# Poissons Ratio (x) = 1.18022 0.24666
# Poissons Ratio (y) = 0.22913 0.10625
# Poissons Ratio (z) = 0.11907 0.26417
#
# Static dielectric constant tensor:
#      x y z
#    x 1.762020 0.000000 -0.265020 
#    y 0.000000 1.869620 0.000000 
#    z -0.265020 0.000000 0.600680 
# 
# From -- ./inp_files/6339.got.cif
#   From: 2010.05.17/outbox.cif.g08.bks.cpg/sg15_4_cif.got.tgz:6339.got - 2010.06.03 18:47:42.
