data_PCOD9279612
_publ_section_title
;
Structure prediction by ZEFSAII (Michael W. Deem and Ramdas Pophale) SiO2 
 PCOD9279612
Probable space group: C 2/C
;
_chemical_formula_sum "Si O2"
_cell_formula_units_Z 64
_cell_length_a 12.581519
_cell_length_b 13.176595
_cell_length_c 14.949597
_cell_angle_alpha 90.000000
_cell_angle_beta 100.153779
_cell_angle_gamma 90.000000
_cell_volume 2439.551975
_symmetry_space_group_name_H-M "C 2/C"
_symmetry_group_IT_number 15
_symmetry_cell_setting 'monoclinic'
loop_
_space_group_symop_operation_xyz
x,y,z
-x,y,1/2-z
-x,-y,-z
x,-y,1/2+z
1/2+x,1/2+y,z
1/2-x,1/2+y,1/2-z
1/2-x,1/2-y,-z
1/2+x,1/2-y,1/2+z
loop_
_atom_site_type_symbol
_atom_site_label
_atom_site_fract_x
_atom_site_fract_y
_atom_site_fract_z
Si Si1 0.347601 0.072818 0.105259
Si Si2 0.050538 0.799271 0.670278
Si Si3 0.627302 0.097405 0.745295
Si Si4 0.128887 0.266033 0.749659
Si Si5 0.566853 0.625651 0.605002
Si Si6 0.627523 0.788078 0.479620
Si Si7 0.602143 0.936749 0.606334
Si Si8 0.868160 0.929874 0.989025
O O1 0.329139 0.179764 0.155756
O O2 0.472769 0.069192 0.097930
O O3 0.257453 0.083611 0.016575
O O4 0.324403 0.976573 0.169722
O O5 0.946820 0.737247 0.615155
O O6 0.000000 0.855599 0.750000
O O7 0.137450 0.717313 0.721899
O O8 0.092983 0.866651 0.594296
O O9 0.500000 0.086481 0.750000
O O10 0.642333 0.040601 0.653591
O O11 0.136014 0.154984 0.702949
O O12 0.000000 0.267875 0.750000
O O13 0.155180 0.351954 0.679206
O O14 0.566338 0.729591 0.549720
O O15 0.614504 0.544494 0.542906
O O16 0.441550 0.592576 0.586581
O O17 0.750000 0.750000 0.500000
O O18 0.627673 0.904164 0.509570
#
# Coordination Sequence:
#
# PCOD9279612 Si02
#       8
#     8   8   8   8   8   8   8   8
#     4   9  17  32  59  87 109 144 188 232 284 335
#     4  10  22  37  52  80 120 150 185 235 279 327
#     4   8  16  32  54  81 116 147 178 233 291 321
#     4   8  15  31  55  79 105 138 179 230 283 329
#     4   9  20  38  54  77 115 151 185 229 279 333
#     4  10  21  37  60  83 108 149 187 225 283 344
#     4   8  16  33  55  82 111 137 181 234 279 333
#     4  10  21  36  55  78 112 157 193 225 274 335
#
# _framework density 26.234324000000001
#
# number of rings (size 3 to 8) (size 9 to 14) (size 15 to 20)
#    0.000    3.000    0.000    1.500    0.000    8.000 
#    0.000   10.000    0.000   10.500    0.000    0.000 
#    0.000    0.000    0.000    0.000    0.000    0.000 
#
# Total GULP energy -178348.488493 kJ/mol
# GULP energy per Si atom -5573.390265 kJ/mol
# Density = 2.617461 g / cm^3
# Si number density = 26.234324 Si / 1000 Ang^3
#
#
#
# Elastic Constant Matrix: (Units=GPa)
#
#
# Indices 1 2 3 4 5 6 
#
# 1 56.7184 10.0330 27.0393 0.0000 20.5045 0.0000
# 2 10.0330 96.2254 17.7199 0.0000 -9.1196 0.0000
# 3 27.0393 17.7199 84.1188 0.0000 -2.0701 0.0000
# 4 0.0000 0.0000 0.0000 33.5570 0.0000 -5.8482
# 5 20.5045 -9.1196 -2.0701 0.0000 43.6823 0.0000
# 6 0.0000 0.0000 0.0000 -5.8482 0.0000 32.0130
#
#
#
# Elastic Compliance Matrix: (Units=1/GPa)
#
#
# Indices 1 2 3 4 5 6 
#
# 1 0.027064 -0.002550 -0.008498 0.000000 -0.013639 0.000000
# 2 -0.002550 0.011258 -0.001466 0.000000 0.003478 0.000000
# 3 -0.008498 -0.001466 0.015037 0.000000 0.004395 0.000000
# 4 0.000000 0.000000 0.000000 0.030780 0.000000 0.005623
# 5 -0.013639 0.003478 0.004395 0.000000 0.030229 0.000000
# 6 0.000000 0.000000 0.000000 0.005623 0.000000 0.032264
#
#
# Mechanical properties :
#
#
# Convention : Reuss Voigt Hill
#
# Bulk Modulus (GPa) = 35.29785 38.51633 36.90709
# Shear Modulus (GPa) = 27.60867 34.00185 30.80526
#
# Velocity S-wave (km/s) = 3.24757 3.60402 3.43043
# Velocity P-wave (km/s) = 5.24846 5.65969 5.45795
#
# Compressibility (1/GPa) = 0.02833034
#
# Stress axis : x y z
#
# Youngs Moduli (GPa) = 36.94981 88.82803 66.50439
#
# Poissons Ratio (x) = 0.22647 0.56515
# Poissons Ratio (y) = 0.09420 0.09752
# Poissons Ratio (z) = 0.31400 0.13025
#
# Static dielectric constant tensor:
#      x y z
#    x 2.093420 0.000000 -0.023920 
#    y 0.000000 2.137950 0.000000 
#    z -0.023920 0.000000 2.155810 
# 
# From -- ./inp_files/205113.got.cif
#   From: 2010.05.17/outbox.cif.g08.bks.cpg/sg15_103_cif.got.tgz:205113.got - 2010.06.03 18:47:42.
