data_PCOD9279898
_publ_section_title
;
Structure prediction by ZEFSAII (Michael W. Deem and Ramdas Pophale) SiO2 
 PCOD9279898
Probable space group: C 2/C
;
_chemical_formula_sum "Si O2"
_cell_formula_units_Z 52
_cell_length_a 14.634512
_cell_length_b 19.493900
_cell_length_c 9.040099
_cell_angle_alpha 90.000000
_cell_angle_beta 73.411766
_cell_angle_gamma 90.000000
_cell_volume 2471.658475
_symmetry_space_group_name_H-M "C 2/C"
_symmetry_group_IT_number 15
_symmetry_cell_setting 'monoclinic'
loop_
_space_group_symop_operation_xyz
x,y,z
-x,y,1/2-z
-x,-y,-z
x,-y,1/2+z
1/2+x,1/2+y,z
1/2-x,1/2+y,1/2-z
1/2-x,1/2-y,-z
1/2+x,1/2-y,1/2+z
loop_
_atom_site_type_symbol
_atom_site_label
_atom_site_fract_x
_atom_site_fract_y
_atom_site_fract_z
Si Si1 0.581040 0.554405 0.927889
Si Si2 0.878986 0.720616 0.562522
Si Si3 0.000000 0.653286 0.250000
Si Si4 0.083183 0.557025 0.454469
Si Si5 0.500000 0.341667 0.250000
Si Si6 0.000000 0.349919 0.250000
Si Si7 0.193562 0.151877 0.521770
Si Si8 0.206780 0.998499 0.095595
O O1 0.520318 0.617522 0.894186
O O2 0.647855 0.527428 0.764244
O O3 0.500000 0.500000 0.000000
O O4 0.649177 0.558252 0.038125
O O5 0.833637 0.796624 0.597824
O O6 0.791614 0.673200 0.552534
O O7 0.955581 0.702609 0.396385
O O8 0.928404 0.695651 0.687604
O O9 0.069556 0.602811 0.311795
O O10 0.060718 0.603995 0.607529
O O11 0.186310 0.521508 0.417659
O O12 0.000000 0.500000 0.500000
O O13 0.389988 0.322910 0.328616
O O14 0.200956 0.070576 0.496326
#
# Coordination Sequence:
#
# PCOD9279898 Si02
#       8
#     8   8   4   8   4   4   8   8
#     4  11  20  38  54  89 121 157 199 250 310 369
#     4  10  22  41  65  87 118 166 214 249 302 369
#     4  10  22  40  62  90 128 164 202 246 314 388
#     4  11  24  36  61  97 131 157 198 259 325 380
#     4  10  21  36  61  85 120 159 202 254 306 366
#     4  10  23  42  61  93 134 159 204 264 314 368
#     4  10  21  38  62  86 116 166 210 247 296 378
#     4  11  24  35  63  90 127 159 201 257 323 363
#
# _framework density 21.038504
#
# number of rings (size 3 to 8) (size 9 to 14) (size 15 to 20)
#    0.000    1.538    3.077    2.769   10.769    0.000 
#    0.000    2.308    0.000    8.308    0.000    0.000 
#    0.000    0.000    0.000    0.000    0.000    0.000 
#
# Total GULP energy -144779.640689 kJ/mol
# GULP energy per Si atom -5568.447719 kJ/mol
# Density = 2.099062 g / cm^3
# Si number density = 21.038504 Si / 1000 Ang^3
#
#
#
# Elastic Constant Matrix: (Units=GPa)
#
#
# Indices 1 2 3 4 5 6 
#
# 1 127.2665 8.2203 19.2849 0.0000 8.4445 0.0000
# 2 8.2203 59.7124 -2.1557 0.0000 25.8283 0.0000
# 3 19.2849 -2.1557 55.5371 0.0000 16.5792 0.0000
# 4 0.0000 0.0000 0.0000 10.7938 0.0000 -13.3276
# 5 8.4445 25.8283 16.5792 0.0000 28.4502 0.0000
# 6 0.0000 0.0000 0.0000 -13.3276 0.0000-1162.2004
#
#
#
# Elastic Compliance Matrix: (Units=1/GPa)
#
#
# Indices 1 2 3 4 5 6 
#
# 1 0.008398 -0.001674 -0.003257 0.000000 0.000925 0.000000
# 2 -0.001674 0.033879 0.013231 0.000000 -0.037970 0.000000
# 3 -0.003257 0.013231 0.027781 0.000000 -0.027234 0.000000
# 4 0.000000 0.000000 0.000000 0.091352 0.000000 -0.001048
# 5 0.000925 -0.037970 -0.027234 0.000000 0.085216 0.000000
# 6 0.000000 0.000000 0.000000 -0.001048 0.000000 -0.000848
#
#
# Mechanical properties :
#
#
# Convention : Reuss Voigt Hill
#
# Bulk Modulus (GPa) = 11.53961 32.57945 22.05953
# Shear Modulus (GPa) = 19.37512 -210.11352 -95.36920
#
# Velocity S-wave (km/s) = 3.03799 -10.00439 -6.74012
# Velocity P-wave (km/s) = 4.21933 10.85961 7.07561
#
# Compressibility (1/GPa) = 0.08665804
#
# Stress axis : x y z
#
# Youngs Moduli (GPa) = 119.07836 29.51690 35.99623
#
# Poissons Ratio (x) = 0.04941 0.11725
# Poissons Ratio (y) = 0.19931 -0.47628
# Poissons Ratio (z) = 0.38786 -0.39055
#
# Static dielectric constant tensor:
#      x y z
#    x 1.737690 0.000000 -0.016520 
#    y 0.000000 1.944560 0.000000 
#    z -0.016520 0.000000 1.789420 
# 
# From -- ./inp_files/40812.got.cif
#   From: 2010.05.17/outbox.cif.g08.bks.cpg/sg15_21_cif.got.tgz:40812.got - 2010.06.03 18:47:42.
