data_PCOD9279217
_publ_section_title
;
Structure prediction by ZEFSAII (Michael W. Deem and Ramdas Pophale) SiO2 
 PCOD9279217
Probable space group: C 2/C
;
_chemical_formula_sum "Si O2"
_cell_formula_units_Z 40
_cell_length_a 9.251675
_cell_length_b 24.915641
_cell_length_c 15.549150
_cell_angle_alpha 90.000000
_cell_angle_beta 31.637755
_cell_angle_gamma 90.000000
_cell_volume 1880.111146
_symmetry_space_group_name_H-M "C 2/C"
_symmetry_group_IT_number 15
_symmetry_cell_setting 'monoclinic'
loop_
_space_group_symop_operation_xyz
x,y,z
-x,y,1/2-z
-x,-y,-z
x,-y,1/2+z
1/2+x,1/2+y,z
1/2-x,1/2+y,1/2-z
1/2-x,1/2-y,-z
1/2+x,1/2-y,1/2+z
loop_
_atom_site_type_symbol
_atom_site_label
_atom_site_fract_x
_atom_site_fract_y
_atom_site_fract_z
Si Si1 0.300067 0.952863 0.131056
Si Si2 0.538081 0.669379 0.081500
Si Si3 0.646472 0.626507 0.851775
Si Si4 0.929466 0.358001 0.935549
Si Si5 0.037252 0.707423 0.929701
O O1 0.261367 0.927442 0.246634
O O2 0.000000 0.969302 0.250000
O O3 0.390681 0.902191 0.028793
O O4 0.500000 0.000000 0.000000
O O5 0.482733 0.729704 0.076243
O O6 0.243006 0.642862 0.246671
O O7 0.694208 0.635799 0.928370
O O8 0.740613 0.679764 0.059199
O O9 0.764543 0.677019 0.737774
O O10 0.314209 0.629994 0.007264
O O11 0.879921 0.303520 0.014340
#
# Coordination Sequence:
#
# PCOD9279217 Si02
#       5
#     8   8   8   8   8
#     4   9  20  39  60  81 106 141 186 235 291 355
#     4  11  21  34  54  82 117 151 187 231 273 324
#     4  10  21  36  55  83 112 142 189 237 275 330
#     4  10  21  36  56  81 109 147 190 230 280 338
#     4  10  21  35  52  80 118 157 189 220 271 335
#
# _framework density 21.275338999999999
#
# number of rings (size 3 to 8) (size 9 to 14) (size 15 to 20)
#    0.000    2.000    0.000    4.800    0.000   11.200 
#    0.000    1.000    0.000    7.200    0.000    4.200 
#    0.000    0.000    0.000    0.000    0.000    0.000 
#
# Total GULP energy -111579.854130 kJ/mol
# GULP energy per Si atom -5578.992706 kJ/mol
# Density = 2.122692 g / cm^3
# Si number density = 21.275339 Si / 1000 Ang^3
#
#
#
# Elastic Constant Matrix: (Units=GPa)
#
#
# Indices 1 2 3 4 5 6 
#
# 1 50.6516 21.9956 17.9162 0.0000 2.6255 0.0000
# 2 21.9956 46.0868 19.4498 0.0000 -19.9770 0.0000
# 3 17.9162 19.4498 141.5443 0.0000 -19.7563 0.0000
# 4 0.0000 0.0000 0.0000 31.6272 0.0000 -3.4418
# 5 2.6255 -19.9770 -19.7563 0.0000 29.5397 0.0000
# 6 0.0000 0.0000 0.0000 -3.4418 0.0000 6.7576
#
#
#
# Elastic Compliance Matrix: (Units=1/GPa)
#
#
# Indices 1 2 3 4 5 6 
#
# 1 0.032001 -0.022635 -0.003831 0.000000 -0.020714 0.000000
# 2 -0.022635 0.046981 0.001241 0.000000 0.034614 0.000000
# 3 -0.003831 0.001241 0.008321 0.000000 0.006744 0.000000
# 4 0.000000 0.000000 0.000000 0.033474 0.000000 0.017049
# 5 -0.020714 0.034614 0.006744 0.000000 0.063613 0.000000
# 6 0.000000 0.000000 0.000000 0.017049 0.000000 0.156665
#
#
# Mechanical properties :
#
#
# Convention : Reuss Voigt Hill
#
# Bulk Modulus (GPa) = 27.13592 39.66730 33.40161
# Shear Modulus (GPa) = 12.38268 25.51298 18.94783
#
# Velocity S-wave (km/s) = 2.41513 3.46668 2.98753
# Velocity P-wave (km/s) = 4.53425 5.89143 5.25683
#
# Compressibility (1/GPa) = 0.03685153
#
# Stress axis : x y z
#
# Youngs Moduli (GPa) = 31.24919 21.28518 120.18055
#
# Poissons Ratio (x) = 0.48178 0.46047
# Poissons Ratio (y) = 0.70731 -0.14909
# Poissons Ratio (z) = 0.11973 -0.02641
#
# Static dielectric constant tensor:
#      x y z
#    x 1.840340 0.000000 -0.023680 
#    y 0.000000 1.774570 0.000000 
#    z -0.023680 0.000000 1.824600 
# 
# From -- ./inp_files/32267.got.cif
#   From: 2010.05.17/outbox.cif.g08.bks.cpg/sg15_17_cif.got.tgz:32267.got - 2010.06.03 18:47:42.
