data_PCOD9279807
_publ_section_title
;
Structure prediction by ZEFSAII (Michael W. Deem and Ramdas Pophale) SiO2 
 PCOD9279807
Probable space group: C 2/C
;
_chemical_formula_sum "Si O2"
_cell_formula_units_Z 48
_cell_length_a 8.985146
_cell_length_b 31.700061
_cell_length_c 17.456834
_cell_angle_alpha 90.000000
_cell_angle_beta 152.651928
_cell_angle_gamma 90.000000
_cell_volume 2284.214798
_symmetry_space_group_name_H-M "C 2/C"
_symmetry_group_IT_number 15
_symmetry_cell_setting 'monoclinic'
loop_
_space_group_symop_operation_xyz
x,y,z
-x,y,1/2-z
-x,-y,-z
x,-y,1/2+z
1/2+x,1/2+y,z
1/2-x,1/2+y,1/2-z
1/2-x,1/2-y,-z
1/2+x,1/2-y,1/2+z
loop_
_atom_site_type_symbol
_atom_site_label
_atom_site_fract_x
_atom_site_fract_y
_atom_site_fract_z
Si Si1 0.931925 0.721972 0.374211
Si Si2 0.937458 0.362118 0.130151
Si Si3 0.152500 0.282325 0.134139
Si Si4 0.830243 0.634485 0.255067
Si Si5 0.552121 0.955015 0.365569
Si Si6 0.187722 0.542297 0.254335
O O1 0.667956 0.742777 0.198105
O O2 0.959234 0.673157 0.363773
O O3 0.250000 0.750000 0.500000
O O4 0.896991 0.724072 0.449120
O O5 0.062479 0.408601 0.161819
O O6 0.000000 0.357672 0.250000
O O7 0.096213 0.324091 0.157098
O O8 0.553599 0.361252 0.936240
O O9 0.500000 0.285678 0.250000
O O10 0.892700 0.587861 0.318470
O O11 0.000000 0.636749 0.250000
O O12 0.500000 0.954854 0.250000
O O13 0.932820 0.957853 0.554982
O O14 0.398148 0.998356 0.325581
O O15 0.000000 0.542345 0.250000
#
# Coordination Sequence:
#
# PCOD9279807 Si02
#       6
#     8   8   8   8   8   8
#     4  10  22  41  63  87 121 156 205 247 301 359
#     4  10  23  37  60  93 124 155 206 253 300 361
#     4  10  23  42  63  88 121 161 197 251 306 360
#     4  10  21  36  59  88 124 162 200 251 305 356
#     4   9  16  30  48  82 119 150 195 250 289 351
#     4   9  16  28  49  81 115 155 195 241 300 346
#
# _framework density 21.013786
#
# number of rings (size 3 to 8) (size 9 to 14) (size 15 to 20)
#    0.000    2.333    0.000    3.500    7.000    2.667 
#    0.000    0.000    0.000    1.000    0.000    0.000 
#    0.000    0.000    0.000    0.000    0.000    0.000 
#
# Total GULP energy -133912.788826 kJ/mol
# GULP energy per Si atom -5579.699534 kJ/mol
# Density = 2.096596 g / cm^3
# Si number density = 21.013786 Si / 1000 Ang^3
#
#
#
# Elastic Constant Matrix: (Units=GPa)
#
#
# Indices 1 2 3 4 5 6 
#
# 1 61.4495 49.9088 20.2356 0.0000 -9.6576 0.0000
# 2 49.9088 200.7757 35.8448 0.0000 -22.0616 0.0000
# 3 20.2356 35.8448 43.0339 0.0000 -17.1499 0.0000
# 4 0.0000 0.0000 0.0000 35.0553 0.0000 -0.2761
# 5 -9.6576 -22.0616 -17.1499 0.0000 28.4862 0.0000
# 6 0.0000 0.0000 0.0000 -0.2761 0.0000 24.9209
#
#
#
# Elastic Compliance Matrix: (Units=1/GPa)
#
#
# Indices 1 2 3 4 5 6 
#
# 1 0.021958 -0.004242 -0.006755 0.000000 0.000092 0.000000
# 2 -0.004242 0.006768 -0.002798 0.000000 0.002119 0.000000
# 3 -0.006755 -0.002798 0.035481 0.000000 0.016904 0.000000
# 4 0.000000 0.000000 0.000000 0.028529 0.000000 0.000316
# 5 0.000092 0.002119 0.016904 0.000000 0.046954 0.000000
# 6 0.000000 0.000000 0.000000 0.000316 0.000000 0.040131
#
#
# Mechanical properties :
#
#
# Convention : Reuss Voigt Hill
#
# Bulk Modulus (GPa) = 27.31019 57.47084 42.39051
# Shear Modulus (GPa) = 22.76713 30.97714 26.87213
#
# Velocity S-wave (km/s) = 3.29513 3.84361 3.57989
# Velocity P-wave (km/s) = 5.24421 6.86340 6.10770
#
# Compressibility (1/GPa) = 0.03661637
#
# Stress axis : x y z
#
# Youngs Moduli (GPa) = 45.54167 147.76487 28.18417
#
# Poissons Ratio (x) = 0.62685 0.19038
# Poissons Ratio (y) = 0.19320 0.07886
# Poissons Ratio (z) = 0.30763 0.41343
#
# Static dielectric constant tensor:
#      x y z
#    x 1.836010 0.000000 -0.094400 
#    y 0.000000 1.804630 0.000000 
#    z -0.094400 0.000000 1.898690 
# 
# From -- ./inp_files/194339.got.cif
#   From: 2010.05.17/outbox.cif.g08.bks.cpg/sg15_98_cif.got.tgz:194339.got - 2010.06.03 18:47:42.
