data_PCOD9279331
_publ_section_title
;
Structure prediction by ZEFSAII (Michael W. Deem and Ramdas Pophale) SiO2 
 PCOD9279331
Probable space group: C 2/C
;
_chemical_formula_sum "Si O2"
_cell_formula_units_Z 64
_cell_length_a 15.308008
_cell_length_b 10.935144
_cell_length_c 16.790533
_cell_angle_alpha 90.000000
_cell_angle_beta 95.464494
_cell_angle_gamma 90.000000
_cell_volume 2797.882536
_symmetry_space_group_name_H-M "C 2/C"
_symmetry_group_IT_number 15
_symmetry_cell_setting 'monoclinic'
loop_
_space_group_symop_operation_xyz
x,y,z
-x,y,1/2-z
-x,-y,-z
x,-y,1/2+z
1/2+x,1/2+y,z
1/2-x,1/2+y,1/2-z
1/2-x,1/2-y,-z
1/2+x,1/2-y,1/2+z
loop_
_atom_site_type_symbol
_atom_site_label
_atom_site_fract_x
_atom_site_fract_y
_atom_site_fract_z
Si Si1 0.829785 0.077483 0.739623
Si Si2 0.144625 0.568357 0.789108
Si Si3 0.165916 0.842573 0.841293
Si Si4 0.151254 0.055135 0.507348
Si Si5 0.155348 0.191609 0.913482
Si Si6 0.163396 0.530371 0.452972
Si Si7 0.453769 0.692026 0.872469
Si Si8 0.632469 0.058700 0.123494
O O1 0.749084 0.041296 0.788792
O O2 0.789615 0.143569 0.657597
O O3 0.896542 0.163906 0.790179
O O4 0.874107 0.953735 0.712876
O O5 0.142302 0.714089 0.800818
O O6 0.111086 0.507618 0.868321
O O7 0.108561 0.513963 0.702696
O O8 0.270437 0.878060 0.854221
O O9 0.135731 0.859067 0.929520
O O10 0.150056 0.914596 0.478614
O O11 0.253088 0.062852 0.541862
O O12 0.082441 0.093053 0.567628
O O13 0.181870 0.325564 0.942853
O O14 0.056641 0.190104 0.871837
O O15 0.130600 0.516314 0.540770
O O16 0.429956 0.827249 0.897720
#
# Coordination Sequence:
#
# PCOD9279331 Si02
#       8
#     8   8   8   8   8   8   8   8
#     4  10  21  35  57  86 119 159 201 255 303 369
#     4  11  20  37  64  91 120 161 204 257 312 355
#     4   9  19  36  58  89 116 149 211 261 295 360
#     4  10  21  39  62  88 114 158 210 255 308 368
#     4  11  25  38  58  90 126 159 204 255 315 380
#     4  11  22  40  63  90 124 162 202 268 306 365
#     4  12  21  39  61  85 125 165 199 251 321 379
#     4  10  22  36  60  94 121 159 209 247 308 380
#
# _framework density 22.874441000000001
#
# number of rings (size 3 to 8) (size 9 to 14) (size 15 to 20)
#    0.000    1.500    2.500    3.375    1.750    3.500 
#    0.000    0.000    0.000    4.500    0.000    0.000 
#    0.000    0.000    0.000    0.000    0.000    0.000 
#
# Total GULP energy -178662.012798 kJ/mol
# GULP energy per Si atom -5583.187900 kJ/mol
# Density = 2.282238 g / cm^3
# Si number density = 22.874441 Si / 1000 Ang^3
#
#
#
# Elastic Constant Matrix: (Units=GPa)
#
#
# Indices 1 2 3 4 5 6 
#
# 1 26.4714 -17.4536 -2.5574 0.0000 3.4248 0.0000
# 2 -17.4536 104.3958 62.1198 0.0000 0.3126 0.0000
# 3 -2.5574 62.1198 152.2541 0.0000 -9.1572 0.0000
# 4 0.0000 0.0000 0.0000 34.1793 0.0000 2.7067
# 5 3.4248 0.3126 -9.1572 0.0000 10.6256 0.0000
# 6 0.0000 0.0000 0.0000 2.7067 0.0000 10.7303
#
#
#
# Elastic Compliance Matrix: (Units=1/GPa)
#
#
# Indices 1 2 3 4 5 6 
#
# 1 0.046929 0.010744 -0.004771 0.000000 -0.019554 0.000000
# 2 0.010744 0.015375 -0.006674 0.000000 -0.009667 0.000000
# 3 -0.004771 -0.006674 0.009824 0.000000 0.010201 0.000000
# 4 0.000000 0.000000 0.000000 0.029854 0.000000 -0.007531
# 5 -0.019554 -0.009667 0.010201 0.000000 0.109491 0.000000
# 6 0.000000 0.000000 0.000000 -0.007531 0.000000 0.095093
#
#
# Mechanical properties :
#
#
# Convention : Reuss Voigt Hill
#
# Bulk Modulus (GPa) = 14.13916 40.81543 27.47729
# Shear Modulus (GPa) = 15.08087 27.17454 21.12770
#
# Velocity S-wave (km/s) = 2.57045 3.45046 3.04244
# Velocity P-wave (km/s) = 3.87353 5.81001 4.93763
#
# Compressibility (1/GPa) = 0.07072557
#
# Stress axis : x y z
#
# Youngs Moduli (GPa) = 21.30866 65.03869 101.78712
#
# Poissons Ratio (x) = -0.69875 0.48565
# Poissons Ratio (y) = -0.22893 0.67934
# Poissons Ratio (z) = 0.10167 0.43408
#
# Static dielectric constant tensor:
#      x y z
#    x 1.910800 0.000000 0.020970 
#    y 0.000000 1.841990 0.000000 
#    z 0.020970 0.000000 1.918970 
# 
# From -- ./inp_files/161331.got.cif
#   From: 2010.05.17/outbox.cif.g08.bks.cpg/sg15_81_cif.got.tgz:161331.got - 2010.06.03 18:47:42.
