data_PCOD9279299
_publ_section_title
;
Structure prediction by ZEFSAII (Michael W. Deem and Ramdas Pophale) SiO2 
 PCOD9279299
Probable space group: C 2/C
;
_chemical_formula_sum "Si O2"
_cell_formula_units_Z 56
_cell_length_a 10.756564
_cell_length_b 23.516873
_cell_length_c 21.323607
_cell_angle_alpha 90.000000
_cell_angle_beta 147.532029
_cell_angle_gamma 90.000000
_cell_volume 2895.669666
_symmetry_space_group_name_H-M "C 2/C"
_symmetry_group_IT_number 15
_symmetry_cell_setting 'monoclinic'
loop_
_space_group_symop_operation_xyz
x,y,z
-x,y,1/2-z
-x,-y,-z
x,-y,1/2+z
1/2+x,1/2+y,z
1/2-x,1/2+y,1/2-z
1/2-x,1/2-y,-z
1/2+x,1/2-y,1/2+z
loop_
_atom_site_type_symbol
_atom_site_label
_atom_site_fract_x
_atom_site_fract_y
_atom_site_fract_z
Si Si1 0.043799 0.067864 0.456430
Si Si2 0.002071 0.060607 0.590356
Si Si3 0.581437 0.753756 0.355355
Si Si4 0.891681 0.758680 0.959144
Si Si5 0.239815 0.828517 0.711075
Si Si6 0.971235 0.621618 0.813697
Si Si7 0.714751 0.165693 0.490669
O O1 0.008494 0.066387 0.516969
O O2 0.303805 0.092019 0.560996
O O3 0.847677 0.109939 0.347355
O O4 0.023887 0.006925 0.414660
O O5 0.235977 0.086115 0.720581
O O6 0.798638 0.101031 0.529178
O O7 0.500000 0.751536 0.250000
O O8 0.470151 0.699951 0.340551
O O9 0.479136 0.812859 0.339058
O O10 0.857497 0.754255 0.466337
O O11 0.804361 0.699851 0.952220
O O12 0.740025 0.789351 0.841973
O O13 0.894506 0.800860 0.021062
O O14 0.468262 0.829577 0.850547
O O15 0.000000 0.623736 0.750000
#
# Coordination Sequence:
#
# PCOD9279299 Si02
#       7
#     8   8   8   8   8   8   8
#     4  10  21  35  56  87 115 156 207 247 298 359
#     4  10  21  37  56  81 123 160 194 250 306 358
#     4  11  20  38  60  86 121 158 200 245 305 364
#     4  11  22  38  56  91 122 159 194 249 307 365
#     4  12  23  37  61  94 121 158 205 253 303 376
#     4   9  18  34  54  78 113 152 191 240 293 350
#     4  11  23  38  59  88 130 156 195 251 315 366
#
# _framework density 19.339221999999999
#
# number of rings (size 3 to 8) (size 9 to 14) (size 15 to 20)
#    0.000    1.429    4.286    2.571    4.000    0.000 
#    0.000    0.000    0.000    0.857    3.714    0.000 
#    0.000    0.000    0.000    0.000    0.000    0.000 
#
# Total GULP energy -156248.385511 kJ/mol
# GULP energy per Si atom -5580.299483 kJ/mol
# Density = 1.929521 g / cm^3
# Si number density = 19.339222 Si / 1000 Ang^3
#
#
#
# Elastic Constant Matrix: (Units=GPa)
#
#
# Indices 1 2 3 4 5 6 
#
# 1 30.3328 33.4515 22.8699 0.0002 4.8462 0.0001
# 2 33.4515 129.1482 33.1745 -0.0011 -4.5961 -0.0005
# 3 22.8699 33.1745 77.1025 -0.0060 7.2532 -0.0032
# 4 0.0002 -0.0011 -0.0060 3.6255 0.0018 -1.8523
# 5 4.8462 -4.5961 7.2532 0.0018 20.8711 0.0003
# 6 0.0001 -0.0005 -0.0032 -1.8523 0.0003 24.4863
#
#
#
# Elastic Compliance Matrix: (Units=1/GPa)
#
#
# Indices 1 2 3 4 5 6 
#
# 1 0.056292 -0.012393 -0.010212 -0.000020 -0.012251 -0.000003
# 2 -0.012393 0.011663 -0.001917 -0.000002 0.006112 0.000000
# 3 -0.010212 -0.001917 0.017203 0.000033 -0.004029 0.000005
# 4 -0.000020 -0.000002 0.000033 0.286917 -0.000033 0.021705
# 5 -0.012251 0.006112 -0.004029 -0.000033 0.053504 -0.000003
# 6 -0.000003 0.000000 0.000005 0.021705 -0.000003 0.042481
#
#
# Mechanical properties :
#
#
# Convention : Reuss Voigt Hill
#
# Bulk Modulus (GPa) = 27.69126 46.17502 36.93314
# Shear Modulus (GPa) = 9.44925 19.60242 14.52583
#
# Velocity S-wave (km/s) = 2.21284 3.18718 2.74361
# Velocity P-wave (km/s) = 4.56932 6.12146 5.40143
#
# Compressibility (1/GPa) = 0.03611247
#
# Stress axis : x y z
#
# Youngs Moduli (GPa) = 17.76450 85.74061 58.13000
#
# Poissons Ratio (x) = 1.06261 0.59364
# Poissons Ratio (y) = 0.22016 0.11144
# Poissons Ratio (z) = 0.18142 0.16438
#
# Static dielectric constant tensor:
#      x y z
#    x 1.687290 0.000000 0.011670 
#    y 0.000000 1.690340 0.000000 
#    z 0.011670 0.000000 1.710440 
# 
# From -- ./inp_files/293701.got.cif
#   From: 2010.05.17/outbox.cif.g08.bks.cpg/sg15_147_cif.got.tgz:293701.got - 2010.06.03 18:47:42.
