data_PCOD9279589
_publ_section_title
;
Structure prediction by ZEFSAII (Michael W. Deem and Ramdas Pophale) SiO2 
 PCOD9279589
Probable space group: C 2/C
;
_chemical_formula_sum "Si O2"
_cell_formula_units_Z 48
_cell_length_a 21.398477
_cell_length_b 17.664532
_cell_length_c 9.435014
_cell_angle_alpha 90.000000
_cell_angle_beta 134.647562
_cell_angle_gamma 90.000000
_cell_volume 2537.275462
_symmetry_space_group_name_H-M "C 2/C"
_symmetry_group_IT_number 15
_symmetry_cell_setting 'monoclinic'
loop_
_space_group_symop_operation_xyz
x,y,z
-x,y,1/2-z
-x,-y,-z
x,-y,1/2+z
1/2+x,1/2+y,z
1/2-x,1/2+y,1/2-z
1/2-x,1/2-y,-z
1/2+x,1/2-y,1/2+z
loop_
_atom_site_type_symbol
_atom_site_label
_atom_site_fract_x
_atom_site_fract_y
_atom_site_fract_z
Si Si1 0.241833 0.094960 0.299072
Si Si2 0.917771 0.850916 0.385620
Si Si3 0.656510 0.759813 0.506013
Si Si4 0.318431 0.526221 0.572286
Si Si5 0.644638 0.255732 0.673535
Si Si6 0.500000 0.457548 0.750000
Si Si7 0.500000 0.732683 0.750000
O O1 0.324631 0.150996 0.446770
O O2 0.162784 0.156644 0.161698
O O3 0.220690 0.041730 0.397498
O O4 0.242269 0.048057 0.156008
O O5 0.890440 0.781058 0.440862
O O6 0.836448 0.901761 0.201589
O O7 0.975019 0.906346 0.575051
O O8 0.963781 0.818140 0.320202
O O9 0.612107 0.746660 0.283263
O O10 0.755783 0.723649 0.660406
O O11 0.413573 0.503770 0.657847
O O12 0.579728 0.222877 0.452928
#
# Coordination Sequence:
#
# PCOD9279589 Si02
#       7
#     8   8   8   8   8   4   4
#     4  10  21  36  54  76 116 157 197 231 279 340
#     4  12  22  35  55  78 122 160 199 227 285 346
#     4   9  21  40  56  73 114 173 196 240 279 338
#     4  12  22  32  51  83 117 157 191 226 283 356
#     4   9  20  36  56  74 115 155 196 239 280 340
#     4  12  25  34  52  84 126 169 180 224 291 364
#     4  12  21  32  54  90 110 147 198 242 279 346
#
# _framework density 18.917929999999998
#
# number of rings (size 3 to 8) (size 9 to 14) (size 15 to 20)
#    1.000    0.333    3.333    4.000    0.000    2.667 
#    0.000    0.000    0.000    0.000    0.000    0.000 
#    0.000   50.667    0.000    0.000    0.000    0.000 
#
# Total GULP energy -133819.457370 kJ/mol
# GULP energy per Si atom -5575.810724 kJ/mol
# Density = 1.887487 g / cm^3
# Si number density = 18.917930 Si / 1000 Ang^3
#
#
#
# Elastic Constant Matrix: (Units=GPa)
#
#
# Indices 1 2 3 4 5 6 
#
# 1 53.5501 17.7806 21.5805 0.0000 -21.2378 0.0000
# 2 17.7806 34.4654 7.6950 0.0000 -5.5970 0.0000
# 3 21.5805 7.6950 122.5165 0.0000 -16.1140 0.0000
# 4 0.0000 0.0000 0.0000 25.3721 0.0000 1.4507
# 5 -21.2378 -5.5970 -16.1140 0.0000 28.2677 0.0000
# 6 0.0000 0.0000 0.0000 1.4507 0.0000 6.7289
#
#
#
# Elastic Compliance Matrix: (Units=1/GPa)
#
#
# Indices 1 2 3 4 5 6 
#
# 1 0.031695 -0.012609 -0.002148 0.000000 0.020091 0.000000
# 2 -0.012609 0.035156 -0.000343 0.000000 -0.002708 0.000000
# 3 -0.002148 -0.000343 0.009017 0.000000 0.003458 0.000000
# 4 0.000000 0.000000 0.000000 0.039905 0.000000 -0.008603
# 5 0.020091 -0.002708 0.003458 0.000000 0.051906 0.000000
# 6 0.000000 0.000000 0.000000 -0.008603 0.000000 0.150468
#
#
# Mechanical properties :
#
#
# Convention : Reuss Voigt Hill
#
# Bulk Modulus (GPa) = 21.89762 33.84937 27.87349
# Shear Modulus (GPa) = 13.75250 22.97213 18.36231
#
# Velocity S-wave (km/s) = 2.69914 3.48847 3.11887
# Velocity P-wave (km/s) = 4.61671 5.84444 5.26647
#
# Compressibility (1/GPa) = 0.04566707
#
# Stress axis : x y z
#
# Youngs Moduli (GPa) = 31.55108 28.44437 110.90197
#
# Poissons Ratio (x) = 0.35865 0.23826
# Poissons Ratio (y) = 0.39782 0.03807
# Poissons Ratio (z) = 0.06778 0.00976
#
# Static dielectric constant tensor:
#      x y z
#    x 1.686590 0.000000 0.029690 
#    y 0.000000 1.653140 0.000000 
#    z 0.029690 0.000000 1.706470 
# 
# From -- ./inp_files/66780.got.cif
#   From: 2010.05.17/outbox.cif.g08.bks.cpg/sg15_34_cif.got.tgz:66780.got - 2010.06.03 18:47:42.
