data_PCOD9279378
_publ_section_title
;
Structure prediction by ZEFSAII (Michael W. Deem and Ramdas Pophale) SiO2 
 PCOD9279378
Probable space group: C 2/C
;
_chemical_formula_sum "Si O2"
_cell_formula_units_Z 64
_cell_length_a 19.081014
_cell_length_b 18.585160
_cell_length_c 11.301568
_cell_angle_alpha 90.000000
_cell_angle_beta 57.411339
_cell_angle_gamma 90.000000
_cell_volume 3376.811214
_symmetry_space_group_name_H-M "C 2/C"
_symmetry_group_IT_number 15
_symmetry_cell_setting 'monoclinic'
loop_
_space_group_symop_operation_xyz
x,y,z
-x,y,1/2-z
-x,-y,-z
x,-y,1/2+z
1/2+x,1/2+y,z
1/2-x,1/2+y,1/2-z
1/2-x,1/2-y,-z
1/2+x,1/2-y,1/2+z
loop_
_atom_site_type_symbol
_atom_site_label
_atom_site_fract_x
_atom_site_fract_y
_atom_site_fract_z
Si Si1 0.599256 0.179585 0.660136
Si Si2 0.184194 0.464130 0.007883
Si Si3 0.732591 0.202531 0.134114
Si Si4 0.304790 0.167367 0.682350
Si Si5 0.316791 0.413599 0.706742
Si Si6 0.686742 0.445293 0.394874
Si Si7 0.902636 0.616649 0.368624
Si Si8 0.598321 0.660432 0.143550
O O1 0.500000 0.178122 0.750000
O O2 0.631681 0.108894 0.566379
O O3 0.639509 0.174096 0.752764
O O4 0.626875 0.258150 0.590619
O O5 0.251126 0.467808 0.054380
O O6 0.128350 0.534978 0.077476
O O7 0.234423 0.449571 0.841103
O O8 0.745401 0.263562 0.220864
O O9 0.796529 0.140633 0.118042
O O10 0.648113 0.158299 0.188700
O O11 0.750000 0.250000 0.000000
O O12 0.243526 0.099371 0.751193
O O13 0.369541 0.157662 0.515953
O O14 0.358645 0.485386 0.617419
O O15 0.360832 0.370647 0.772905
O O16 0.624110 0.390392 0.513129
O O17 0.000000 0.618364 0.250000
O O18 0.500000 0.661155 0.250000
#
# Coordination Sequence:
#
# PCOD9279378 Si02
#       8
#     8   8   8   8   8   8   8   8
#     4  10  21  38  57  89 124 150 197 252 299 352
#     4  10  21  35  58  90 122 157 200 235 296 371
#     4  10  22  38  59  84 118 159 206 239 291 363
#     4  10  21  40  61  86 116 169 196 241 294 361
#     4  11  20  38  64  84 117 165 198 246 307 353
#     4  10  21  37  62  85 117 155 208 241 295 365
#     4  11  22  39  59  92 128 154 194 248 295 357
#     4  10  23  39  59  91 121 150 205 264 299 348
#
# _framework density 18.952791000000001
#
# number of rings (size 3 to 8) (size 9 to 14) (size 15 to 20)
#    0.000    1.750    3.750    0.375    1.750    3.000 
#    2.250    2.500    0.000    3.750    0.000    0.000 
#    0.000    0.000    0.000    0.000    0.000    0.000 
#
# Total GULP energy -178232.417366 kJ/mol
# GULP energy per Si atom -5569.763043 kJ/mol
# Density = 1.890965 g / cm^3
# Si number density = 18.952791 Si / 1000 Ang^3
#
#
#
# Elastic Constant Matrix: (Units=GPa)
#
#
# Indices 1 2 3 4 5 6 
#
# 1 58.8494 42.5202 15.0195 0.0000 -11.8160 0.0000
# 2 42.5202 160.7857 29.7377 0.0000 -7.5055 0.0000
# 3 15.0195 29.7377 62.3179 0.0000 -11.4581 0.0000
# 4 0.0000 0.0000 0.0000 123.4533 0.0000 24.2183
# 5 -11.8160 -7.5055 -11.4581 0.0000 14.8706 0.0000
# 6 0.0000 0.0000 0.0000 24.2183 0.0000 34.4198
#
#
#
# Elastic Compliance Matrix: (Units=1/GPa)
#
#
# Indices 1 2 3 4 5 6 
#
# 1 0.024422 -0.005661 -0.000165 0.000000 0.016421 0.000000
# 2 -0.005661 0.008149 -0.003023 0.000000 -0.002715 0.000000
# 3 -0.000165 -0.003023 0.020068 0.000000 0.013805 0.000000
# 4 0.000000 0.000000 0.000000 0.009397 0.000000 -0.006612
# 5 0.016421 -0.002715 0.013805 0.000000 0.089562 0.000000
# 6 0.000000 0.000000 0.000000 -0.006612 0.000000 0.033705
#
#
# Mechanical properties :
#
#
# Convention : Reuss Voigt Hill
#
# Bulk Modulus (GPa) = 28.62154 50.72308 39.67231
# Shear Modulus (GPa) = 23.29374 47.52710 35.41042
#
# Velocity S-wave (km/s) = 3.50957 5.01308 4.32713
# Velocity P-wave (km/s) = 5.61757 7.76717 6.77813
#
# Compressibility (1/GPa) = 0.03493872
#
# Stress axis : x y z
#
# Youngs Moduli (GPa) = 40.94625 122.71310 49.83145
#
# Poissons Ratio (x) = 0.69473 0.00824
# Poissons Ratio (y) = 0.23181 0.15066
# Poissons Ratio (z) = 0.00677 0.37101
#
# Static dielectric constant tensor:
#      x y z
#    x 1.655840 0.000000 0.025150 
#    y 0.000000 1.700060 0.000000 
#    z 0.025150 0.000000 1.680780 
# 
# From -- ./inp_files/113654.got.cif
#   From: 2010.05.17/outbox.cif.g08.bks.cpg/sg15_57_cif.got.tgz:113654.got - 2010.06.03 18:47:42.
