data_PCOD9279516
_publ_section_title
;
Structure prediction by ZEFSAII (Michael W. Deem and Ramdas Pophale) SiO2 
 PCOD9279516
Probable space group: C 2/C
;
_chemical_formula_sum "Si O2"
_cell_formula_units_Z 64
_cell_length_a 30.687617
_cell_length_b 21.247068
_cell_length_c 14.928734
_cell_angle_alpha 90.000000
_cell_angle_beta 19.508721
_cell_angle_gamma 90.000000
_cell_volume 3250.626237
_symmetry_space_group_name_H-M "C 2/C"
_symmetry_group_IT_number 15
_symmetry_cell_setting 'monoclinic'
loop_
_space_group_symop_operation_xyz
x,y,z
-x,y,1/2-z
-x,-y,-z
x,-y,1/2+z
1/2+x,1/2+y,z
1/2-x,1/2+y,1/2-z
1/2-x,1/2-y,-z
1/2+x,1/2-y,1/2+z
loop_
_atom_site_type_symbol
_atom_site_label
_atom_site_fract_x
_atom_site_fract_y
_atom_site_fract_z
Si Si1 0.367265 0.131003 0.050844
Si Si2 0.717094 0.136902 0.085230
Si Si3 0.884494 0.932750 0.537718
Si Si4 0.547827 0.665165 0.290687
Si Si5 0.823386 0.227538 0.611162
Si Si6 0.899725 0.040957 0.637101
Si Si7 0.997520 0.187540 0.926554
Si Si8 0.565671 0.810554 0.708146
O O1 0.363530 0.136257 0.166135
O O2 0.239389 0.091569 0.275599
O O3 0.346655 0.199611 0.045289
O O4 0.500000 0.105327 0.750000
O O5 0.623072 0.155428 0.184811
O O6 0.791012 0.073381 0.910013
O O7 0.846663 0.180466 0.852200
O O8 0.947911 0.873498 0.468589
O O9 0.841448 0.990815 0.681949
O O10 0.000000 0.955779 0.250000
O O11 0.434681 0.707261 0.465851
O O12 0.483485 0.596083 0.425949
O O13 0.575413 0.687263 0.337382
O O14 0.663818 0.679329 0.996861
O O15 0.690665 0.220575 0.920176
O O16 0.000000 0.000000 0.500000
O O17 0.978278 0.252067 0.911102
O O18 0.500000 0.845667 0.750000
#
# Coordination Sequence:
#
# PCOD9279516 Si02
#       8
#     8   8   8   8   8   8   8   8
#     4  12  24  42  66  97 138 180 220 267 346 407
#     4  11  22  41  66  93 130 181 218 269 347 396
#     4  12  23  40  69 103 129 172 232 287 319 393
#     4  10  21  35  63  96 124 162 213 273 343 376
#     4  11  20  38  61  97 131 165 220 274 329 401
#     4  11  21  41  67  97 128 165 233 285 328 385
#     4  11  19  39  64  93 130 168 224 275 335 392
#     4  12  23  37  61  95 138 177 216 270 336 415
#
# _framework density 19.688513
#
# number of rings (size 3 to 8) (size 9 to 14) (size 15 to 20)
#    0.000    0.750    8.750    2.250    1.750    0.000 
#    2.250    2.500    0.000    0.000    0.000    0.000 
#    0.000    0.000    0.000    0.000    0.000    0.000 
#
# Total GULP energy -178480.959114 kJ/mol
# GULP energy per Si atom -5577.529972 kJ/mol
# Density = 1.964370 g / cm^3
# Si number density = 19.688513 Si / 1000 Ang^3
#
#
#
# Elastic Constant Matrix: (Units=GPa)
#
#
# Indices 1 2 3 4 5 6 
#
# 1 122.9217 18.7306 28.0131 0.0004 8.2347 -0.0003
# 2 18.7306 65.3716 13.1233 0.0005 2.4731 -0.0003
# 3 28.0131 13.1233 55.6188 0.0001 7.9141 -0.0006
# 4 0.0004 0.0005 0.0001 14.6402 -0.0006 12.2385
# 5 8.2347 2.4731 7.9141 -0.0006 28.7930 0.0005
# 6 -0.0003 -0.0003 -0.0006 12.2385 0.0005 27.2163
#
#
#
# Elastic Compliance Matrix: (Units=1/GPa)
#
#
# Indices 1 2 3 4 5 6 
#
# 1 0.009449 -0.001825 -0.004127 0.000000 -0.001411 0.000000
# 2 -0.001825 0.016414 -0.002942 -0.000001 -0.000079 0.000001
# 3 -0.004127 -0.002942 0.021385 -0.000001 -0.004445 0.000001
# 4 0.000000 -0.000001 -0.000001 0.109448 0.000003 -0.049216
# 5 -0.001411 -0.000079 -0.004445 0.000003 0.036363 -0.000002
# 6 0.000000 0.000001 0.000001 -0.049216 -0.000002 0.058874
#
#
# Mechanical properties :
#
#
# Convention : Reuss Voigt Hill
#
# Bulk Modulus (GPa) = 33.94730 40.40513 37.17622
# Shear Modulus (GPa) = 17.88649 26.39957 22.14303
#
# Velocity S-wave (km/s) = 3.01736 3.66575 3.35724
# Velocity P-wave (km/s) = 5.42392 6.20352 5.82677
#
# Compressibility (1/GPa) = 0.02945742
#
# Stress axis : x y z
#
# Youngs Moduli (GPa) = 105.83651 60.92430 46.76166
#
# Poissons Ratio (x) = 0.11120 0.19301
# Poissons Ratio (y) = 0.19318 0.13759
# Poissons Ratio (z) = 0.43683 0.17926
#
# Static dielectric constant tensor:
#      x y z
#    x 1.752330 0.000000 -0.002880 
#    y 0.000000 1.701510 0.000000 
#    z -0.002880 0.000000 1.719040 
# 
# From -- ./inp_files/183128.got.cif
#   From: 2010.05.17/outbox.cif.g08.bks.cpg/sg15_92_cif.got.tgz:183128.got - 2010.06.03 18:47:42.
