data_PCOD9279010
_publ_section_title
;
Structure prediction by ZEFSAII (Michael W. Deem and Ramdas Pophale) SiO2 
 PCOD9279010
Probable space group: C 2/C
;
_chemical_formula_sum "Si O2"
_cell_formula_units_Z 48
_cell_length_a 7.359595
_cell_length_b 30.036897
_cell_length_c 11.293976
_cell_angle_alpha 90.000000
_cell_angle_beta 89.261497
_cell_angle_gamma 90.000000
_cell_volume 2496.432138
_symmetry_space_group_name_H-M "C 2/C"
_symmetry_group_IT_number 15
_symmetry_cell_setting 'monoclinic'
loop_
_space_group_symop_operation_xyz
x,y,z
-x,y,1/2-z
-x,-y,-z
x,-y,1/2+z
1/2+x,1/2+y,z
1/2-x,1/2+y,1/2-z
1/2-x,1/2-y,-z
1/2+x,1/2-y,1/2+z
loop_
_atom_site_type_symbol
_atom_site_label
_atom_site_fract_x
_atom_site_fract_y
_atom_site_fract_z
Si Si1 0.258535 0.387405 0.126083
Si Si2 0.828758 0.208541 0.571273
Si Si3 0.755045 0.813782 0.505640
Si Si4 0.690215 0.750690 0.304569
Si Si5 0.024873 0.468417 0.386280
Si Si6 0.822284 0.900832 0.396991
O O1 0.228368 0.339450 0.066011
O O2 0.111814 0.425776 0.104827
O O3 0.273761 0.380386 0.268088
O O4 0.461626 0.403276 0.090472
O O5 0.750000 0.250000 0.500000
O O6 0.809493 0.225244 0.705563
O O7 0.034430 0.198085 0.529636
O O8 0.646836 0.786803 0.406772
O O9 0.717849 0.791047 0.631209
O O10 0.741115 0.866327 0.492428
O O11 0.500000 0.736118 0.250000
O O12 0.000000 0.486016 0.250000
O O13 0.000000 0.500000 0.500000
O O14 0.225991 0.448037 0.396674
#
# Coordination Sequence:
#
# PCOD9279010 Si02
#       6
#     8   8   8   8   8   8
#     4   9  19  34  58  86 112 150 196 236 283 342
#     4  11  20  34  52  79 118 153 195 241 275 335
#     4  10  21  34  51  76 111 152 194 240 281 328
#     4  11  21  31  50  78 111 151 196 234 280 325
#     4  10  22  40  65  89 114 146 192 248 304 363
#     4   9  18  35  58  83 112 148 192 236 280 353
#
# _framework density 19.227440999999999
#
# number of rings (size 3 to 8) (size 9 to 14) (size 15 to 20)
#    0.000    2.000    3.333    0.500    2.333    0.667 
#    0.000    1.667    0.000    0.000    0.000    0.000 
#    0.000    0.000    0.000    0.000    0.000    0.000 
#
# Total GULP energy -133854.560497 kJ/mol
# GULP energy per Si atom -5577.273354 kJ/mol
# Density = 1.918368 g / cm^3
# Si number density = 19.227441 Si / 1000 Ang^3
#
#
#
# Elastic Constant Matrix: (Units=GPa)
#
#
# Indices 1 2 3 4 5 6 
#
# 1 50.4644 28.5862 19.6900 0.0000 4.9515 0.0000
# 2 28.5862 68.9589 48.3209 0.0000 -4.8137 0.0000
# 3 19.6900 48.3209 85.7250 0.0000 2.9483 0.0000
# 4 0.0000 0.0000 0.0000 35.8569 0.0000 -6.4075
# 5 4.9515 -4.8137 2.9483 0.0000 20.6499 0.0000
# 6 0.0000 0.0000 0.0000 -6.4075 0.0000 23.8106
#
#
#
# Elastic Compliance Matrix: (Units=1/GPa)
#
#
# Indices 1 2 3 4 5 6 
#
# 1 0.027691 -0.013143 0.001389 0.000000 -0.009902 0.000000
# 2 -0.013143 0.031439 -0.015137 0.000000 0.012642 0.000000
# 3 0.001389 -0.015137 0.020110 0.000000 -0.006733 0.000000
# 4 0.000000 0.000000 0.000000 0.029297 0.000000 0.007884
# 5 -0.009902 0.012642 -0.006733 0.000000 0.054709 0.000000
# 6 0.000000 0.000000 0.000000 0.007884 0.000000 0.044120
#
#
# Mechanical properties :
#
#
# Convention : Reuss Voigt Hill
#
# Bulk Modulus (GPa) = 39.28244 44.26027 41.77136
# Shear Modulus (GPa) = 18.54353 23.30024 20.92189
#
# Velocity S-wave (km/s) = 3.10890 3.48490 3.30225
# Velocity P-wave (km/s) = 5.77596 6.26594 6.02593
#
# Compressibility (1/GPa) = 0.02545667
#
# Stress axis : x y z
#
# Youngs Moduli (GPa) = 36.11311 31.80731 49.72572
#
# Poissons Ratio (x) = 0.41805 -0.06906
# Poissons Ratio (y) = 0.47464 0.75272
# Poissons Ratio (z) = -0.05015 0.48148
#
# Static dielectric constant tensor:
#      x y z
#    x 1.743590 0.000000 -0.006150 
#    y 0.000000 1.669740 0.000000 
#    z -0.006150 0.000000 1.702240 
# 
# From -- ./inp_files/79384.got.cif
#   From: 2010.05.17/outbox.cif.g08.bks.cpg/sg15_40_cif.got.tgz:79384.got - 2010.06.03 18:47:42.
