data_PCOD9279218
_publ_section_title
;
Structure prediction by ZEFSAII (Michael W. Deem and Ramdas Pophale) SiO2 
 PCOD9279218
Probable space group: C 2/C
;
_chemical_formula_sum "Si O2"
_cell_formula_units_Z 60
_cell_length_a 20.190311
_cell_length_b 21.275280
_cell_length_c 14.650961
_cell_angle_alpha 90.000000
_cell_angle_beta 29.346624
_cell_angle_gamma 90.000000
_cell_volume 3084.337940
_symmetry_space_group_name_H-M "C 2/C"
_symmetry_group_IT_number 15
_symmetry_cell_setting 'monoclinic'
loop_
_space_group_symop_operation_xyz
x,y,z
-x,y,1/2-z
-x,-y,-z
x,-y,1/2+z
1/2+x,1/2+y,z
1/2-x,1/2+y,1/2-z
1/2-x,1/2-y,-z
1/2+x,1/2-y,1/2+z
loop_
_atom_site_type_symbol
_atom_site_label
_atom_site_fract_x
_atom_site_fract_y
_atom_site_fract_z
Si Si1 0.912020 0.678452 0.940255
Si Si2 0.508997 0.955539 0.129905
Si Si3 0.892207 0.812682 0.013462
Si Si4 0.810864 0.990300 0.718113
Si Si5 0.000000 0.098941 0.750000
Si Si6 0.210196 0.991215 0.460221
Si Si7 0.462559 0.395609 0.095659
Si Si8 0.174106 0.861094 0.593649
O O1 0.986097 0.619232 0.897442
O O2 0.882006 0.737921 0.038598
O O3 0.000000 0.704079 0.750000
O O4 0.784812 0.651747 0.037375
O O5 0.500000 0.958634 0.250000
O O6 0.373463 0.990286 0.260765
O O7 0.652697 0.981433 0.925001
O O8 0.796499 0.830390 0.041777
O O9 0.037075 0.833512 0.798649
O O10 0.889452 0.849534 0.112277
O O11 0.834026 0.021065 0.590598
O O12 0.873501 0.040815 0.711151
O O13 0.896099 0.925321 0.612585
O O14 0.014975 0.132181 0.830217
O O15 0.131960 0.054408 0.579557
O O16 0.167354 0.934895 0.578493
#
# Coordination Sequence:
#
# PCOD9279218 Si02
#       8
#     8   8   8   8   4   8   8   8
#     4  11  21  33  49  78 118 149 179 219 272 341
#     4  11  21  33  51  76 117 152 181 217 277 341
#     4  11  22  33  54  79 111 153 183 225 273 334
#     4  10  21  35  52  81 109 148 186 233 277 337
#     4  10  22  36  56  82 110 146 188 248 274 320
#     4  11  20  34  54  78 114 149 182 226 282 332
#     4  10  21  35  56  79 110 141 195 235 281 323
#     4  11  20  33  51  81 115 146 182 218 272 337
#
# _framework density 19.453119999999998
#
# number of rings (size 3 to 8) (size 9 to 14) (size 15 to 20)
#    0.000    1.333    5.333    3.200    3.733    0.000 
#    0.000    0.000    0.000    0.000    0.000    8.400 
#    2.000    0.000    0.000    0.000    0.000    1.733 
#
# Total GULP energy -167301.010557 kJ/mol
# GULP energy per Si atom -5576.700352 kJ/mol
# Density = 1.940884 g / cm^3
# Si number density = 19.453120 Si / 1000 Ang^3
#
#
#
# Elastic Constant Matrix: (Units=GPa)
#
#
# Indices 1 2 3 4 5 6 
#
# 1 87.5792 27.6856 21.4325 -0.0007 7.6861 0.0011
# 2 27.6856 56.8177 18.5936 0.0011 5.4377 -0.0008
# 3 21.4325 18.5936 65.3218 0.0028 -14.6671 -0.0020
# 4 -0.0007 0.0011 0.0028 -0.2787 -0.0008 19.3866
# 5 7.6861 5.4377 -14.6671 -0.0008 40.2215 0.0002
# 6 0.0011 -0.0008 -0.0020 19.3866 0.0002 9.0895
#
#
#
# Elastic Compliance Matrix: (Units=1/GPa)
#
#
# Indices 1 2 3 4 5 6 
#
# 1 0.014396 -0.005383 -0.003971 -0.000002 -0.003471 0.000001
# 2 -0.005383 0.022412 -0.005514 0.000001 -0.004012 -0.000001
# 3 -0.003971 -0.005514 0.020170 0.000003 0.008859 -0.000002
# 4 -0.000002 0.000001 0.000003 -0.024023 0.000001 0.051237
# 5 -0.003471 -0.004012 0.008859 0.000001 0.029299 0.000000
# 6 0.000001 -0.000001 -0.000002 0.051237 0.000000 0.000737
#
#
# Mechanical properties :
#
#
# Convention : Reuss Voigt Hill
#
# Bulk Modulus (GPa) = 36.70703 38.34913 37.52808
# Shear Modulus (GPa) = 49.11224 19.27359 34.19291
#
# Velocity S-wave (km/s) = 5.03004 3.15107 4.19705
# Velocity P-wave (km/s) = 7.25572 5.74416 6.54373
#
# Compressibility (1/GPa) = 0.02724274
#
# Stress axis : x y z
#
# Youngs Moduli (GPa) = 69.46210 44.61967 49.57766
#
# Poissons Ratio (x) = 0.24020 0.19685
# Poissons Ratio (y) = 0.37394 0.27337
# Poissons Ratio (z) = 0.27581 0.24603
#
# Static dielectric constant tensor:
#      x y z
#    x 1.770050 0.000000 -0.018570 
#    y 0.000000 1.705880 0.000000 
#    z -0.018570 0.000000 1.714750 
# 
# From -- ./inp_files/169471.got.cif
#   From: 2010.05.17/outbox.cif.g08.bks.cpg/sg15_85_cif.got.tgz:169471.got - 2010.06.03 18:47:42.
