data_PCOD9279902
_publ_section_title
;
Structure prediction by ZEFSAII (Michael W. Deem and Ramdas Pophale) SiO2 
 PCOD9279902
Probable space group: C 2/C
;
_chemical_formula_sum "Si O2"
_cell_formula_units_Z 56
_cell_length_a 14.679961
_cell_length_b 13.049707
_cell_length_c 24.404262
_cell_angle_alpha 90.000000
_cell_angle_beta 151.060119
_cell_angle_gamma 90.000000
_cell_volume 2262.244068
_symmetry_space_group_name_H-M "C 2/C"
_symmetry_group_IT_number 15
_symmetry_cell_setting 'monoclinic'
loop_
_space_group_symop_operation_xyz
x,y,z
-x,y,1/2-z
-x,-y,-z
x,-y,1/2+z
1/2+x,1/2+y,z
1/2-x,1/2+y,1/2-z
1/2-x,1/2-y,-z
1/2+x,1/2-y,1/2+z
loop_
_atom_site_type_symbol
_atom_site_label
_atom_site_fract_x
_atom_site_fract_y
_atom_site_fract_z
Si Si1 0.171331 0.590028 0.306377
Si Si2 0.832640 0.527173 0.515668
Si Si3 0.543405 0.198948 0.393259
Si Si4 0.538072 0.738146 0.002947
Si Si5 0.590740 0.547250 0.169146
Si Si6 0.208871 0.060833 0.841871
Si Si7 0.447435 0.757997 0.074518
O O1 0.321726 0.641779 0.425474
O O2 0.295321 0.528059 0.327197
O O3 0.000000 0.539617 0.250000
O O4 0.076466 0.688784 0.224834
O O5 0.928681 0.420548 0.579393
O O6 0.635013 0.526608 0.445396
O O7 0.774713 0.523604 0.421024
O O8 0.975627 0.621210 0.597822
O O9 0.750000 0.250000 0.500000
O O10 0.450149 0.250728 0.397070
O O11 0.420403 0.728397 0.996387
O O12 0.656578 0.842175 0.078271
O O13 0.684857 0.490130 0.269924
O O14 0.586327 0.671884 0.170783
O O15 0.000000 0.092938 0.750000
O O16 0.250000 0.750000 0.000000
#
# Coordination Sequence:
#
# PCOD9279902 Si02
#       7
#     8   8   8   8   8   8   8
#     4  11  22  38  58  84 123 161 200 247 299 367
#     4   9  20  37  60  88 120 149 197 254 297 359
#     4  11  23  37  62  92 121 158 205 248 306 356
#     4  10  21  36  61  88 119 157 199 257 301 348
#     4   9  20  36  58  85 116 158 191 244 309 353
#     4   9  18  32  58  90 114 141 195 254 301 345
#     4   9  19  37  58  82 120 155 192 244 301 353
#
# _framework density 24.754180999999999
#
# number of rings (size 3 to 8) (size 9 to 14) (size 15 to 20)
#    0.000    2.286    1.429    0.429    8.000    1.143 
#    0.000    0.714    0.000    6.000    0.000    0.000 
#    0.000    0.000    0.000    0.000    0.000    0.000 
#
# Total GULP energy -156332.273796 kJ/mol
# GULP energy per Si atom -5583.295493 kJ/mol
# Density = 2.469784 g / cm^3
# Si number density = 24.754181 Si / 1000 Ang^3
#
#
#
# Elastic Constant Matrix: (Units=GPa)
#
#
# Indices 1 2 3 4 5 6 
#
# 1 158.3259 -0.4612 11.0850 0.0000 16.0455 0.0000
# 2 -0.4612 40.0296 -17.7740 0.0000 -5.4200 0.0000
# 3 11.0850 -17.7740 42.3733 0.0005 -4.7190 0.0000
# 4 0.0000 0.0000 0.0005 -14.7069 -0.0001 -0.6283
# 5 16.0455 -5.4200 -4.7190 -0.0001 39.1384 0.0000
# 6 0.0000 0.0000 0.0000 -0.6283 0.0000 36.0705
#
#
#
# Elastic Compliance Matrix: (Units=1/GPa)
#
#
# Indices 1 2 3 4 5 6 
#
# 1 0.006855 -0.001650 -0.002862 0.000000 -0.003384 0.000000
# 2 -0.001650 0.032494 0.014837 0.000001 0.006965 0.000000
# 3 -0.002862 0.014837 0.031353 0.000001 0.007008 0.000000
# 4 0.000000 0.000001 0.000001 -0.067945 0.000000 -0.001184
# 5 -0.003384 0.006965 0.007008 0.000000 0.028747 0.000000
# 6 0.000000 0.000000 0.000000 -0.001184 0.000000 0.027703
#
#
# Mechanical properties :
#
#
# Convention : Reuss Voigt Hill
#
# Bulk Modulus (GPa) = 10.94678 25.15869 18.05274
# Shear Modulus (GPa) = 72.45717 28.62569 50.54143
#
# Velocity S-wave (km/s) = 5.41611 3.40427 4.52346
# Velocity P-wave (km/s) = 6.59880 5.06336 5.88140
#
# Compressibility (1/GPa) = 0.09135103
#
# Stress axis : x y z
#
# Youngs Moduli (GPa) = 145.88758 30.77527 31.89517
#
# Poissons Ratio (x) = 0.05078 0.09129
# Poissons Ratio (y) = 0.24072 -0.47324
# Poissons Ratio (z) = 0.41755 -0.45662
#
# Static dielectric constant tensor:
#      x y z
#    x 2.052360 0.000000 0.007690 
#    y 0.000000 2.027450 0.000000 
#    z 0.007690 0.000000 2.006380 
# 
# From -- ./inp_files/296561.got.cif
#   From: 2010.05.17/outbox.cif.g08.bks.cpg/sg15_149_cif.got.tgz:296561.got - 2010.06.03 18:47:42.
