data_PCOD9279208
_publ_section_title
;
Structure prediction by ZEFSAII (Michael W. Deem and Ramdas Pophale) SiO2 
 PCOD9279208
Probable space group: C 2/C
;
_chemical_formula_sum "Si O2"
_cell_formula_units_Z 48
_cell_length_a 16.773835
_cell_length_b 27.278297
_cell_length_c 5.091475
_cell_angle_alpha 90.000000
_cell_angle_beta 106.295818
_cell_angle_gamma 90.000000
_cell_volume 2236.071283
_symmetry_space_group_name_H-M "C 2/C"
_symmetry_group_IT_number 15
_symmetry_cell_setting 'monoclinic'
loop_
_space_group_symop_operation_xyz
x,y,z
-x,y,1/2-z
-x,-y,-z
x,-y,1/2+z
1/2+x,1/2+y,z
1/2-x,1/2+y,1/2-z
1/2-x,1/2-y,-z
1/2+x,1/2-y,1/2+z
loop_
_atom_site_type_symbol
_atom_site_label
_atom_site_fract_x
_atom_site_fract_y
_atom_site_fract_z
Si Si1 0.000000 0.464816 0.750000
Si Si2 0.126424 0.396058 0.617344
Si Si3 0.764160 0.310072 0.680332
Si Si4 0.651202 0.236178 0.735534
Si Si5 0.268242 0.034047 0.600229
Si Si6 0.500000 0.819418 0.250000
Si Si7 0.084873 0.034431 0.405163
O O1 0.079216 0.429789 0.781563
O O2 0.000000 0.500000 0.500000
O O3 0.207579 0.366078 0.780402
O O4 0.158655 0.429344 0.408510
O O5 0.059575 0.355836 0.465034
O O6 0.672214 0.292211 0.677497
O O7 0.791621 0.293130 0.418159
O O8 0.818570 0.279276 0.945683
O O9 0.558514 0.215581 0.629718
O O10 0.176456 0.057562 0.474032
O O11 0.273103 0.009641 0.889303
O O12 0.000000 0.062707 0.250000
O O13 0.082601 0.010053 0.690635
#
# Coordination Sequence:
#
# PCOD9279208 Si02
#       7
#     4   8   8   8   8   4   8
#     4  12  25  38  52  76 116 158 194 238 273 314
#     4  11  22  37  56  81 113 152 200 230 276 336
#     4   9  19  34  56  77 105 137 183 229 281 335
#     4   9  18  35  54  81 105 135 176 232 286 339
#     4  10  21  35  51  75 110 150 189 232 276 322
#     4  10  21  36  60  86 114 152 196 240 289 352
#     4   8  14  27  48  70  91 123 171 219 269 318
#
# _framework density 21.466221999999998
#
# number of rings (size 3 to 8) (size 9 to 14) (size 15 to 20)
#    0.000    2.333    0.000    2.500    0.000    7.333 
#    0.000    0.000    1.833    0.000    0.000    0.000 
#    0.000    0.000    0.000    0.000    0.000    0.000 
#
# Total GULP energy -133813.677060 kJ/mol
# GULP energy per Si atom -5575.569878 kJ/mol
# Density = 2.141736 g / cm^3
# Si number density = 21.466222 Si / 1000 Ang^3
#
#
#
# Elastic Constant Matrix: (Units=GPa)
#
#
# Indices 1 2 3 4 5 6 
#
# 1 147.7257 58.9887 20.8685 0.0000 -4.7495 0.0000
# 2 58.9887 84.9400 17.5393 0.0000 -1.5691 0.0000
# 3 20.8685 17.5393 82.4460 0.0000 -11.0959 0.0000
# 4 0.0000 0.0000 0.0000 12.7513 0.0000 2.6901
# 5 -4.7495 -1.5691 -11.0959 0.0000 24.3084 0.0000
# 6 0.0000 0.0000 0.0000 2.6901 0.0000 54.9350
#
#
#
# Elastic Compliance Matrix: (Units=1/GPa)
#
#
# Indices 1 2 3 4 5 6 
#
# 1 0.009476 -0.006375 -0.000904 0.000000 0.001027 0.000000
# 2 -0.006375 0.016607 -0.002070 0.000000 -0.001118 0.000000
# 3 -0.000904 -0.002070 0.013592 0.000000 0.005894 0.000000
# 4 0.000000 0.000000 0.000000 0.079242 0.000000 -0.003880
# 5 0.001027 -0.001118 0.005894 0.000000 0.043957 0.000000
# 6 0.000000 0.000000 0.000000 -0.003880 0.000000 0.018393
#
#
# Mechanical properties :
#
#
# Convention : Reuss Voigt Hill
#
# Bulk Modulus (GPa) = 47.67223 56.65608 52.16415
# Shear Modulus (GPa) = 24.15972 32.91329 28.53650
#
# Velocity S-wave (km/s) = 3.35845 3.91993 3.65001
# Velocity P-wave (km/s) = 6.10698 6.85115 6.48974
#
# Compressibility (1/GPa) = 0.02097657
#
# Stress axis : x y z
#
# Youngs Moduli (GPa) = 105.53395 60.21560 73.57539
#
# Poissons Ratio (x) = 0.38387 0.06651
# Poissons Ratio (y) = 0.67277 0.15229
# Poissons Ratio (z) = 0.09540 0.12464
#
# Static dielectric constant tensor:
#      x y z
#    x 1.870740 0.000000 0.068250 
#    y 0.000000 1.812650 0.000000 
#    z 0.068250 0.000000 1.795640 
# 
# From -- ./inp_files/11136.got.cif
#   From: 2010.05.17/outbox.cif.g08.bks.cpg/sg15_6_cif.got.tgz:11136.got - 2010.06.03 18:47:42.
