data_PCOD9279774
_publ_section_title
;
Structure prediction by ZEFSAII (Michael W. Deem and Ramdas Pophale) SiO2 
 PCOD9279774
Probable space group: C 2/C
;
_chemical_formula_sum "Si O2"
_cell_formula_units_Z 40
_cell_length_a 19.482851
_cell_length_b 11.058068
_cell_length_c 9.395679
_cell_angle_alpha 90.000000
_cell_angle_beta 109.335877
_cell_angle_gamma 90.000000
_cell_volume 1910.051242
_symmetry_space_group_name_H-M "C 2/C"
_symmetry_group_IT_number 15
_symmetry_cell_setting 'monoclinic'
loop_
_space_group_symop_operation_xyz
x,y,z
-x,y,1/2-z
-x,-y,-z
x,-y,1/2+z
1/2+x,1/2+y,z
1/2-x,1/2+y,1/2-z
1/2-x,1/2-y,-z
1/2+x,1/2-y,1/2+z
loop_
_atom_site_type_symbol
_atom_site_label
_atom_site_fract_x
_atom_site_fract_y
_atom_site_fract_z
Si Si1 0.268121 0.542612 0.051349
Si Si2 0.116664 0.414926 0.035287
Si Si3 0.307692 0.251642 0.386967
Si Si4 0.422393 0.125385 0.669925
Si Si5 0.332124 0.705054 0.591732
O O1 0.193553 0.471243 0.033180
O O2 0.258526 0.654258 0.155635
O O3 0.329338 0.440268 0.092070
O O4 0.276484 0.617974 0.910534
O O5 0.109300 0.414440 0.199264
O O6 0.063183 0.506984 0.918223
O O7 0.115569 0.277984 0.977237
O O8 0.365976 0.208487 0.544437
O O9 0.344987 0.252556 0.261246
O O10 0.500000 0.186654 0.750000
O O11 0.250000 0.750000 0.500000
#
# Coordination Sequence:
#
# PCOD9279774 Si02
#       5
#     8   8   8   8   8
#     4   9  21  33  58  85 127 150 191 249 311 362
#     4  10  21  36  58  90 115 158 204 250 310 360
#     4  10  22  37  58  88 124 164 201 243 308 369
#     4  11  23  41  62  84 123 166 211 254 294 356
#     4  10  22  33  58  88 127 155 191 247 317 372
#
# _framework density 20.941845000000001
#
# number of rings (size 3 to 8) (size 9 to 14) (size 15 to 20)
#    0.000    2.000    0.000    3.000   22.400    0.000 
#    0.000    0.000    0.000    6.000    0.000    0.000 
#    0.000    0.000    0.000    0.000    0.000    0.000 
#
# Total GULP energy -111427.526448 kJ/mol
# GULP energy per Si atom -5571.376322 kJ/mol
# Density = 2.089418 g / cm^3
# Si number density = 20.941845 Si / 1000 Ang^3
#
#
#
# Elastic Constant Matrix: (Units=GPa)
#
#
# Indices 1 2 3 4 5 6 
#
# 1 47.6953 18.0056 36.0493 0.0000 0.5797 0.0000
# 2 18.0056 114.3398 38.1200 0.0000 -8.5645 0.0000
# 3 36.0493 38.1200 134.2428 0.0000 -18.8557 0.0000
# 4 0.0000 0.0000 0.0000 23.7926 0.0000 1.2938
# 5 0.5797 -8.5645 -18.8557 0.0000 26.5548 0.0000
# 6 0.0000 0.0000 0.0000 1.2938 0.0000 14.8216
#
#
#
# Elastic Compliance Matrix: (Units=1/GPa)
#
#
# Indices 1 2 3 4 5 6 
#
# 1 0.027795 -0.002299 -0.007776 0.000000 -0.006870 0.000000
# 2 -0.002299 0.009891 -0.001928 0.000000 0.001871 0.000000
# 3 -0.007776 -0.001928 0.011132 0.000000 0.007452 0.000000
# 4 0.000000 0.000000 0.000000 0.042230 0.000000 -0.003686
# 5 -0.006870 0.001871 0.007452 0.000000 0.043703 0.000000
# 6 0.000000 0.000000 0.000000 -0.003686 0.000000 0.067791
#
#
# Mechanical properties :
#
#
# Convention : Reuss Voigt Hill
#
# Bulk Modulus (GPa) = 40.30562 53.40307 46.85435
# Shear Modulus (GPa) = 21.29293 26.64066 23.96680
#
# Velocity S-wave (km/s) = 3.19213 3.57056 3.38664
# Velocity P-wave (km/s) = 5.73363 6.52338 6.14121
#
# Compressibility (1/GPa) = 0.02481044
#
# Stress axis : x y z
#
# Youngs Moduli (GPa) = 35.97732 101.10207 89.83335
#
# Poissons Ratio (x) = 0.23245 0.69856
# Poissons Ratio (y) = 0.08272 0.17324
# Poissons Ratio (z) = 0.27977 0.19497
#
# Static dielectric constant tensor:
#      x y z
#    x 1.778930 0.000000 0.019240 
#    y 0.000000 1.850640 0.000000 
#    z 0.019240 0.000000 1.781060 
# 
# From -- ./inp_files/54155.got.cif
#   From: 2010.05.17/outbox.cif.g08.bks.cpg/sg15_28_cif.got.tgz:54155.got - 2010.06.03 18:47:42.
