data_PCOD9279633
_publ_section_title
;
Structure prediction by ZEFSAII (Michael W. Deem and Ramdas Pophale) SiO2 
 PCOD9279633
Probable space group: C 2/C
;
_chemical_formula_sum "Si O2"
_cell_formula_units_Z 56
_cell_length_a 23.420879
_cell_length_b 13.624823
_cell_length_c 22.805874
_cell_angle_alpha 90.000000
_cell_angle_beta 22.978820
_cell_angle_gamma 90.000000
_cell_volume 2841.059864
_symmetry_space_group_name_H-M "C 2/C"
_symmetry_group_IT_number 15
_symmetry_cell_setting 'monoclinic'
loop_
_space_group_symop_operation_xyz
x,y,z
-x,y,1/2-z
-x,-y,-z
x,-y,1/2+z
1/2+x,1/2+y,z
1/2-x,1/2+y,1/2-z
1/2-x,1/2-y,-z
1/2+x,1/2-y,1/2+z
loop_
_atom_site_type_symbol
_atom_site_label
_atom_site_fract_x
_atom_site_fract_y
_atom_site_fract_z
Si Si1 0.479358 0.668671 0.642711
Si Si2 0.020153 0.513000 0.667843
Si Si3 0.204007 0.316736 0.488437
Si Si4 0.273937 0.462038 0.625364
Si Si5 0.800979 0.720944 0.218488
Si Si6 0.624444 0.073338 0.450265
Si Si7 0.307330 0.082864 0.699822
O O1 0.345725 0.662678 0.814559
O O2 0.589703 0.752512 0.559972
O O3 0.576969 0.571261 0.546367
O O4 0.419743 0.707342 0.636660
O O5 0.117068 0.415203 0.586838
O O6 0.109763 0.573293 0.533773
O O7 0.000000 0.562111 0.750000
O O8 0.860523 0.484842 0.791508
O O9 0.250000 0.250000 0.500000
O O10 0.228293 0.367243 0.708417
O O11 0.301992 0.549717 0.645385
O O12 0.829688 0.669066 0.129270
O O13 0.677752 0.802747 0.326162
O O14 0.459369 0.051257 0.585587
O O15 0.714130 0.981159 0.338531
#
# Coordination Sequence:
#
# PCOD9279633 Si02
#       7
#     8   8   8   8   8   8   8
#     4  12  21  33  54  80 117 149 187 232 279 337
#     4  11  21  39  57  80 111 151 196 233 274 341
#     4  12  23  35  52  80 116 156 190 223 276 340
#     4  10  21  36  55  84 113 151 188 232 286 338
#     4  11  19  34  58  81 116 144 188 232 290 331
#     4   9  20  34  57  82 112 152 188 229 288 344
#     4   9  19  35  55  82 116 147 186 233 286 342
#
# _framework density 19.710954000000001
#
# number of rings (size 3 to 8) (size 9 to 14) (size 15 to 20)
#    0.000    1.429    2.857    4.714    0.000    0.571 
#    0.000    1.429    0.000    3.429    0.000    2.000 
#    0.000    0.000    0.000    0.000    0.000    0.286 
#
# Total GULP energy -156128.032936 kJ/mol
# GULP energy per Si atom -5576.001176 kJ/mol
# Density = 1.966609 g / cm^3
# Si number density = 19.710954 Si / 1000 Ang^3
#
#
#
# Elastic Constant Matrix: (Units=GPa)
#
#
# Indices 1 2 3 4 5 6 
#
# 1 113.3949 25.5135 34.1722 0.0009 27.6871 -0.0001
# 2 25.5135 45.6116 11.0925 0.0023 15.0847 -0.0011
# 3 34.1722 11.0925 92.0144 0.0045 22.3782 -0.0015
# 4 0.0009 0.0023 0.0045 19.6203 -0.0024 9.3704
# 5 27.6871 15.0847 22.3782 -0.0024 23.4243 0.0004
# 6 -0.0001 -0.0011 -0.0015 9.3704 0.0004 24.5002
#
#
#
# Elastic Compliance Matrix: (Units=1/GPa)
#
#
# Indices 1 2 3 4 5 6 
#
# 1 0.012818 -0.002886 -0.001537 -0.000002 -0.011824 0.000001
# 2 -0.002886 0.028628 0.001660 -0.000008 -0.016611 0.000005
# 3 -0.001537 0.001660 0.014403 -0.000007 -0.013013 0.000004
# 4 -0.000002 -0.000008 -0.000007 0.062358 0.000021 -0.023850
# 5 -0.011824 -0.016611 -0.013013 0.000021 0.079796 -0.000011
# 6 0.000001 0.000005 0.000004 -0.023850 -0.000011 0.049938
#
#
# Mechanical properties :
#
#
# Convention : Reuss Voigt Hill
#
# Bulk Modulus (GPa) = 19.87062 43.61970 31.74516
# Shear Modulus (GPa) = 18.50205 25.52516 22.01360
#
# Velocity S-wave (km/s) = 3.06709 3.60248 3.34551
# Velocity P-wave (km/s) = 4.75874 6.28343 5.57347
#
# Compressibility (1/GPa) = 0.05032555
#
# Stress axis : x y z
#
# Youngs Moduli (GPa) = 78.01364 34.93045 69.42907
#
# Poissons Ratio (x) = 0.10080 0.10670
# Poissons Ratio (y) = 0.22513 -0.11528
# Poissons Ratio (z) = 0.11989 -0.05800
#
# Static dielectric constant tensor:
#      x y z
#    x 1.794710 0.000000 -0.071460 
#    y 0.000000 1.694860 0.000000 
#    z -0.071460 0.000000 1.974920 
# 
# From -- ./inp_files/282085.got.cif
#   From: 2010.05.17/outbox.cif.g08.bks.cpg/sg15_142_cif.got.tgz:282085.got - 2010.06.03 18:47:42.
