data_PCOD9279537
_publ_section_title
;
Structure prediction by ZEFSAII (Michael W. Deem and Ramdas Pophale) SiO2 
 PCOD9279537
Probable space group: C 2/C
;
_chemical_formula_sum "Si O2"
_cell_formula_units_Z 32
_cell_length_a 9.114070
_cell_length_b 29.113465
_cell_length_c 5.178536
_cell_angle_alpha 90.000000
_cell_angle_beta 100.988484
_cell_angle_gamma 90.000000
_cell_volume 1348.890796
_symmetry_space_group_name_H-M "C 2/C"
_symmetry_group_IT_number 15
_symmetry_cell_setting 'monoclinic'
loop_
_space_group_symop_operation_xyz
x,y,z
-x,y,1/2-z
-x,-y,-z
x,-y,1/2+z
1/2+x,1/2+y,z
1/2-x,1/2+y,1/2-z
1/2-x,1/2-y,-z
1/2+x,1/2-y,1/2+z
loop_
_atom_site_type_symbol
_atom_site_label
_atom_site_fract_x
_atom_site_fract_y
_atom_site_fract_z
Si Si1 0.155034 0.344765 0.450743
Si Si2 0.204616 0.125241 0.010613
Si Si3 0.656697 0.721711 0.188850
Si Si4 0.165907 0.020743 0.062313
O O1 0.161419 0.368506 0.733404
O O2 0.232732 0.296225 0.546631
O O3 0.000000 0.340045 0.250000
O O4 0.253055 0.371953 0.274483
O O5 0.114432 0.171899 0.042731
O O6 0.144141 0.075168 0.048318
O O7 0.500000 0.739408 0.250000
O O8 0.750000 0.750000 0.000000
O O9 0.244200 0.000120 0.338407
O O10 0.000000 0.000000 0.000000
#
# Coordination Sequence:
#
# PCOD9279537 Si02
#       4
#     8   8   8   8
#     4  10  23  47  77 106 152 210 263 313 405 477
#     4  10  23  43  76 106 151 205 257 323 395 473
#     4  10  26  48  79 116 159 202 272 335 405 479
#     4  10  21  35  65 108 149 190 249 317 397 464
#
# _framework density 23.723195
#
# number of rings (size 3 to 8) (size 9 to 14) (size 15 to 20)
#    1.500    0.500    0.000    2.250    3.500    5.000 
#    0.000    1.250    0.000   15.000    0.000    0.000 
#    0.000    0.000    0.000    0.000    0.000    0.000 
#
# Total GULP energy -89159.187698 kJ/mol
# GULP energy per Si atom -5572.449231 kJ/mol
# Density = 2.366920 g / cm^3
# Si number density = 23.723195 Si / 1000 Ang^3
#
#
#
# Elastic Constant Matrix: (Units=GPa)
#
#
# Indices 1 2 3 4 5 6 
#
# 1 106.5434 43.9614 39.6221 0.0000 3.3105 0.0000
# 2 43.9614 186.8866 26.1608 0.0000 -11.7550 0.0000
# 3 39.6221 26.1608 181.6453 0.0000 -4.3584 0.0000
# 4 0.0000 0.0000 0.0000 33.2260 0.0000 -6.5482
# 5 3.3105 -11.7550 -4.3584 0.0000 37.7315 0.0000
# 6 0.0000 0.0000 0.0000 -6.5482 0.0000 16.8897
#
#
#
# Elastic Compliance Matrix: (Units=1/GPa)
#
#
# Indices 1 2 3 4 5 6 
#
# 1 0.011270 -0.002476 -0.002150 0.000000 -0.002009 0.000000
# 2 -0.002476 0.006105 -0.000289 0.000000 0.002086 0.000000
# 3 -0.002150 -0.000289 0.006035 0.000000 0.000796 0.000000
# 4 0.000000 0.000000 0.000000 0.032587 0.000000 0.012634
# 5 -0.002009 0.002086 0.000796 0.000000 0.027421 0.000000
# 6 0.000000 0.000000 0.000000 0.012634 0.000000 0.064106
#
#
# Mechanical properties :
#
#
# Convention : Reuss Voigt Hill
#
# Bulk Modulus (GPa) = 73.64249 77.17377 75.40813
# Shear Modulus (GPa) = 30.88710 41.92483 36.40596
#
# Velocity S-wave (km/s) = 3.61221 4.20843 3.92167
# Velocity P-wave (km/s) = 6.96471 7.49774 7.23613
#
# Compressibility (1/GPa) = 0.01357912
#
# Stress axis : x y z
#
# Youngs Moduli (GPa) = 88.73506 163.79988 165.70349
#
# Poissons Ratio (x) = 0.40562 0.35622
# Poissons Ratio (y) = 0.21974 0.04790
# Poissons Ratio (z) = 0.19076 0.04734
#
# Static dielectric constant tensor:
#      x y z
#    x 1.923870 0.000000 0.022500 
#    y 0.000000 1.949830 0.000000 
#    z 0.022500 0.000000 1.928970 
# 
# From -- ./inp_files/4087.got.cif
#   From: 2010.05.17/outbox.cif.g08.bks.cpg/sg15_3_cif.got.tgz:4087.got - 2010.06.03 18:47:42.
