data_PCOD9279335
_publ_section_title
;
Structure prediction by ZEFSAII (Michael W. Deem and Ramdas Pophale) SiO2 
 PCOD9279335
Probable space group: C 2/C
;
_chemical_formula_sum "Si O2"
_cell_formula_units_Z 52
_cell_length_a 5.275688
_cell_length_b 25.606075
_cell_length_c 19.050603
_cell_angle_alpha 90.000000
_cell_angle_beta 102.301677
_cell_angle_gamma 90.000000
_cell_volume 2514.449362
_symmetry_space_group_name_H-M "C 2/C"
_symmetry_group_IT_number 15
_symmetry_cell_setting 'monoclinic'
loop_
_space_group_symop_operation_xyz
x,y,z
-x,y,1/2-z
-x,-y,-z
x,-y,1/2+z
1/2+x,1/2+y,z
1/2-x,1/2+y,1/2-z
1/2-x,1/2-y,-z
1/2+x,1/2-y,1/2+z
loop_
_atom_site_type_symbol
_atom_site_label
_atom_site_fract_x
_atom_site_fract_y
_atom_site_fract_z
Si Si1 0.973091 0.729486 0.912820
Si Si2 0.320281 0.966434 0.184362
Si Si3 0.500000 0.385703 0.250000
Si Si4 0.033442 0.032170 0.429103
Si Si5 0.565479 0.902357 0.947814
Si Si6 0.035744 0.283442 0.584069
Si Si7 0.389357 0.883449 0.388834
O O1 0.682139 0.751512 0.886467
O O2 0.052508 0.669990 0.898636
O O3 0.172955 0.765912 0.883927
O O4 0.002565 0.730991 0.999314
O O5 0.500000 0.998558 0.250000
O O6 0.218550 0.920612 0.227484
O O7 0.473757 0.935995 0.131758
O O8 0.067140 0.994720 0.138909
O O9 0.649950 0.364410 0.326416
O O10 0.805352 0.074811 0.419277
O O11 0.315770 0.058607 0.436465
O O12 0.000000 0.000000 0.500000
O O13 0.493161 0.845654 0.914224
O O14 0.669752 0.894568 0.033601
#
# Coordination Sequence:
#
# PCOD9279335 Si02
#       7
#     8   8   4   8   8   8   8
#     4   9  18  31  56  79 115 143 181 215 288 338
#     4  10  23  38  56  83 120 154 199 240 296 358
#     4  10  22  38  56  80 120 154 196 236 298 354
#     4  12  23  37  59  90 117 159 195 247 296 349
#     4  11  23  36  61  87 125 148 198 244 300 341
#     4   9  18  34  50  85 112 147 176 229 275 344
#     4  10  21  35  57  88 118 154 184 247 293 366
#
# _framework density 20.680474
#
# number of rings (size 3 to 8) (size 9 to 14) (size 15 to 20)
#    0.000    1.846    1.538    2.308    6.462    2.462 
#    0.000    0.000    0.000    0.000   12.000    0.000 
#    0.000    0.000    0.000    0.000    0.000    0.000 
#
# Total GULP energy -144762.163842 kJ/mol
# GULP energy per Si atom -5567.775532 kJ/mol
# Density = 2.063340 g / cm^3
# Si number density = 20.680474 Si / 1000 Ang^3
#
#
#
# Elastic Constant Matrix: (Units=GPa)
#
#
# Indices 1 2 3 4 5 6 
#
# 1 86.9539 23.6590 6.1978 0.0000 11.5694 0.0000
# 2 23.6590 68.5243 9.7211 0.0000 -1.1049 0.0000
# 3 6.1978 9.7211 52.7300 0.0000 17.7742 0.0000
# 4 0.0000 0.0000 0.0000 4.7122 0.0000 4.4392
# 5 11.5694 -1.1049 17.7742 0.0000 13.7123 0.0000
# 6 0.0000 0.0000 0.0000 4.4392 0.0000 29.2628
#
#
#
# Elastic Compliance Matrix: (Units=1/GPa)
#
#
# Indices 1 2 3 4 5 6 
#
# 1 0.016007 -0.006951 0.007355 0.000000 -0.023599 0.000000
# 2 -0.006951 0.018583 -0.009041 0.000000 0.019081 0.000000
# 3 0.007355 -0.009041 0.039256 0.000000 -0.057819 0.000000
# 4 0.000000 0.000000 0.000000 0.247600 0.000000 -0.037561
# 5 -0.023599 0.019081 -0.057819 0.000000 0.169322 0.000000
# 6 0.000000 0.000000 0.000000 -0.037561 0.000000 0.039871
#
#
# Mechanical properties :
#
#
# Convention : Reuss Voigt Hill
#
# Bulk Modulus (GPa) = 17.67608 31.92934 24.80271
# Shear Modulus (GPa) = 8.82191 20.77947 14.80069
#
# Velocity S-wave (km/s) = 2.06763 3.17328 2.67813
# Velocity P-wave (km/s) = 3.77702 5.37579 4.64570
#
# Compressibility (1/GPa) = 0.05657364
#
# Stress axis : x y z
#
# Youngs Moduli (GPa) = 62.47198 53.81158 25.47361
#
# Poissons Ratio (x) = 0.37402 -0.18735
# Poissons Ratio (y) = 0.43422 0.23030
# Poissons Ratio (z) = -0.45946 0.48649
#
# Static dielectric constant tensor:
#      x y z
#    x 1.808700 0.000000 0.071830 
#    y 0.000000 1.840870 0.000000 
#    z 0.071830 0.000000 1.810440 
# 
# From -- ./inp_files/227975.got.cif
#   From: 2010.05.17/outbox.cif.g08.bks.cpg/sg15_114_cif.got.tgz:227975.got - 2010.06.03 18:47:42.
