data_PCOD9279697
_publ_section_title
;
Structure prediction by ZEFSAII (Michael W. Deem and Ramdas Pophale) SiO2 
 PCOD9279697
Probable space group: C 2/C
;
_chemical_formula_sum "Si O2"
_cell_formula_units_Z 56
_cell_length_a 25.728147
_cell_length_b 9.717548
_cell_length_c 15.597168
_cell_angle_alpha 90.000000
_cell_angle_beta 45.141605
_cell_angle_gamma 90.000000
_cell_volume 2764.182124
_symmetry_space_group_name_H-M "C 2/C"
_symmetry_group_IT_number 15
_symmetry_cell_setting 'monoclinic'
loop_
_space_group_symop_operation_xyz
x,y,z
-x,y,1/2-z
-x,-y,-z
x,-y,1/2+z
1/2+x,1/2+y,z
1/2-x,1/2+y,1/2-z
1/2-x,1/2-y,-z
1/2+x,1/2-y,1/2+z
loop_
_atom_site_type_symbol
_atom_site_label
_atom_site_fract_x
_atom_site_fract_y
_atom_site_fract_z
Si Si1 0.500000 0.364219 0.750000
Si Si2 0.000000 0.684617 0.250000
Si Si3 0.040999 0.725286 0.471987
Si Si4 0.319632 0.419476 0.712715
Si Si5 0.602640 0.769782 0.245537
Si Si6 0.963564 0.907702 0.430683
Si Si7 0.386854 0.928629 0.752853
Si Si8 0.803388 0.235395 0.731990
O O1 0.428474 0.275209 0.810219
O O2 0.513098 0.461576 0.652344
O O3 0.963128 0.782484 0.363865
O O4 0.934662 0.601917 0.281176
O O5 0.054992 0.597044 0.392181
O O6 0.122414 0.751043 0.411880
O O7 0.973240 0.708136 0.612884
O O8 0.022429 0.856737 0.432686
O O9 0.351023 0.348825 0.762294
O O10 0.387301 0.424515 0.567426
O O11 0.260245 0.318342 0.740015
O O12 0.289930 0.573861 0.761157
O O13 0.642051 0.916868 0.206624
O O14 0.326685 0.815449 0.793189
#
# Coordination Sequence:
#
# PCOD9279697 Si02
#       8
#     4   4   8   8   8   8   8   8
#     4  11  21  30  58  88 118 140 184 236 280 328
#     4   9  17  36  58  84 118 144 182 228 276 334
#     4   8  18  35  59  82 109 145 189 231 272 332
#     4  11  22  38  59  83 111 149 190 233 275 332
#     4  11  20  34  59  88 114 142 185 233 289 324
#     4   9  19  36  58  85 111 149 187 227 277 334
#     4   9  19  34  57  85 117 142 181 232 276 332
#     4  10  21  36  57  80 111 144 190 232 275 322
#
# _framework density 20.259156000000001
#
# number of rings (size 3 to 8) (size 9 to 14) (size 15 to 20)
#    0.857    1.429    0.000    3.429    2.000    2.286 
#    0.000    0.714    0.000    4.286    0.000    0.000 
#    0.000    0.000    0.000    0.000    0.000    0.000 
#
# Total GULP energy -156000.504859 kJ/mol
# GULP energy per Si atom -5571.446602 kJ/mol
# Density = 2.021305 g / cm^3
# Si number density = 20.259156 Si / 1000 Ang^3
#
#
#
# Elastic Constant Matrix: (Units=GPa)
#
#
# Indices 1 2 3 4 5 6 
#
# 1 114.4956 55.4174 15.4370 -0.0001 -15.7753 0.0001
# 2 55.4174 162.2048 9.0616 -0.0001 -7.6276 -0.0001
# 3 15.4370 9.0616 22.8864 0.0002 -3.5918 -0.0003
# 4 -0.0001 -0.0001 0.0002 11.4035 -0.0001 -8.9843
# 5 -15.7753 -7.6276 -3.5918 -0.0001 23.9212 0.0002
# 6 0.0001 -0.0001 -0.0003 -8.9843 0.0002 29.3790
#
#
#
# Elastic Compliance Matrix: (Units=1/GPa)
#
#
# Indices 1 2 3 4 5 6 
#
# 1 0.012032 -0.003507 -0.005794 0.000000 0.005946 0.000000
# 2 -0.003507 0.007393 -0.000568 0.000000 -0.000041 0.000000
# 3 -0.005794 -0.000568 0.048338 -0.000001 0.003256 0.000000
# 4 0.000000 0.000000 -0.000001 0.115527 0.000000 0.035329
# 5 0.005946 -0.000041 0.003256 0.000000 0.046201 0.000000
# 6 0.000000 0.000000 0.000000 0.035329 0.000000 0.044842
#
#
# Mechanical properties :
#
#
# Convention : Reuss Voigt Hill
#
# Bulk Modulus (GPa) = 20.82251 51.04652 35.93451
# Shear Modulus (GPa) = 16.12489 27.58544 21.85517
#
# Velocity S-wave (km/s) = 2.82429 3.69403 3.28804
# Velocity P-wave (km/s) = 4.57557 6.59135 5.67370
#
# Compressibility (1/GPa) = 0.04802495
#
# Stress axis : x y z
#
# Youngs Moduli (GPa) = 83.11115 135.25983 20.68777
#
# Poissons Ratio (x) = 0.47442 0.11986
# Poissons Ratio (y) = 0.29151 0.01175
# Poissons Ratio (z) = 0.48152 0.07681
#
# Static dielectric constant tensor:
#      x y z
#    x 1.740610 0.000000 0.008220 
#    y 0.000000 1.782120 0.000000 
#    z 0.008220 0.000000 1.721280 
# 
# From -- ./inp_files/218542.got.cif
#   From: 2010.05.17/outbox.cif.g08.bks.cpg/sg15_110_cif.got.tgz:218542.got - 2010.06.03 18:47:42.
