data_PCOD9279893
_publ_section_title
;
Structure prediction by ZEFSAII (Michael W. Deem and Ramdas Pophale) SiO2 
 PCOD9279893
Probable space group: C 2/C
;
_chemical_formula_sum "Si O2"
_cell_formula_units_Z 52
_cell_length_a 14.619082
_cell_length_b 30.283171
_cell_length_c 8.611807
_cell_angle_alpha 90.000000
_cell_angle_beta 131.705799
_cell_angle_gamma 90.000000
_cell_volume 2846.339945
_symmetry_space_group_name_H-M "C 2/C"
_symmetry_group_IT_number 15
_symmetry_cell_setting 'monoclinic'
loop_
_space_group_symop_operation_xyz
x,y,z
-x,y,1/2-z
-x,-y,-z
x,-y,1/2+z
1/2+x,1/2+y,z
1/2-x,1/2+y,1/2-z
1/2-x,1/2-y,-z
1/2+x,1/2-y,1/2+z
loop_
_atom_site_type_symbol
_atom_site_label
_atom_site_fract_x
_atom_site_fract_y
_atom_site_fract_z
Si Si1 0.500000 0.007690 0.750000
Si Si2 0.976723 0.652291 0.540050
Si Si3 0.881401 0.940655 0.326682
Si Si4 0.500000 0.489683 0.750000
Si Si5 0.733186 0.686463 0.117792
Si Si6 0.000000 0.131304 0.750000
Si Si7 0.106906 0.437749 0.112379
Si Si8 0.112654 0.275962 0.988110
O O1 0.405171 0.039451 0.732361
O O2 0.439122 0.975106 0.557894
O O3 0.835264 0.662262 0.337233
O O4 0.000000 0.650773 0.750000
O O5 0.023232 0.605984 0.519927
O O6 0.055219 0.691874 0.551077
O O7 0.944635 0.960404 0.550820
O O8 0.950608 0.899302 0.332611
O O9 0.744219 0.927782 0.216106
O O10 0.897329 0.978635 0.212555
O O11 0.799444 0.697153 0.028806
O O12 0.612953 0.658703 0.945181
O O13 0.687355 0.733666 0.132159
O O14 0.000000 0.260391 0.750000
#
# Coordination Sequence:
#
# PCOD9279893 Si02
#       8
#     4   8   8   4   8   4   8   8
#     4  10  24  38  61  86 118 160 205 244 306 342
#     4  11  24  39  61  92 126 160 196 256 310 361
#     4  10  21  36  61  82 121 154 204 245 301 362
#     4   9  20  40  54  88 114 166 198 248 304 361
#     4  10  21  39  63  88 119 151 207 250 294 374
#     4  11  22  36  59  94 112 158 195 254 302 357
#     4  11  22  41  58  91 119 161 202 253 295 362
#     4   9  19  39  66  88 113 159 201 250 303 355
#
# _framework density 18.269076999999999
#
# number of rings (size 3 to 8) (size 9 to 14) (size 15 to 20)
#    0.000    1.846    1.538    1.846    5.385    1.846 
#    5.538    0.000    1.692    0.000    0.000    0.000 
#    0.000    0.000    0.000    0.000    0.000    0.000 
#
# Total GULP energy -145076.301879 kJ/mol
# GULP energy per Si atom -5579.857765 kJ/mol
# Density = 1.822750 g / cm^3
# Si number density = 18.269077 Si / 1000 Ang^3
#
#
#
# Elastic Constant Matrix: (Units=GPa)
#
#
# Indices 1 2 3 4 5 6 
#
# 1 115.2897 52.0974 54.8620 0.0000 15.6456 0.0000
# 2 52.0974 103.6847 60.7233 0.0000 13.4086 0.0000
# 3 54.8620 60.7233 89.4019 0.0000 16.2869 0.0000
# 4 0.0000 0.0000 0.0000 21.5208 0.0000 7.6479
# 5 15.6456 13.4086 16.2869 0.0000 33.3247 0.0000
# 6 0.0000 0.0000 0.0000 7.6479 0.0000 24.2740
#
#
#
# Elastic Compliance Matrix: (Units=1/GPa)
#
#
# Indices 1 2 3 4 5 6 
#
# 1 0.012946 -0.002994 -0.005514 0.000000 -0.002179 0.000000
# 2 -0.002994 0.016754 -0.009408 0.000000 -0.000738 0.000000
# 3 -0.005514 -0.009408 0.021733 0.000000 -0.004247 0.000000
# 4 0.000000 0.000000 0.000000 0.052325 0.000000 -0.016486
# 5 -0.002179 -0.000738 -0.004247 0.000000 0.033403 0.000000
# 6 0.000000 0.000000 0.000000 -0.016486 0.000000 0.046390
#
#
# Mechanical properties :
#
#
# Convention : Reuss Voigt Hill
#
# Bulk Modulus (GPa) = 64.09738 71.52686 67.81212
# Shear Modulus (GPa) = 22.26320 25.20349 23.73334
#
# Velocity S-wave (km/s) = 3.49467 3.71829 3.60821
# Velocity P-wave (km/s) = 7.17252 7.59415 7.38634
#
# Compressibility (1/GPa) = 0.01560126
#
# Stress axis : x y z
#
# Youngs Moduli (GPa) = 77.24199 59.68636 46.01244
#
# Poissons Ratio (x) = 0.17869 0.25372
# Poissons Ratio (y) = 0.23125 0.43289
# Poissons Ratio (z) = 0.42593 0.56154
#
# Static dielectric constant tensor:
#      x y z
#    x 1.627210 0.000000 0.007290 
#    y 0.000000 1.632630 0.000000 
#    z 0.007290 0.000000 1.616740 
# 
# From -- ./inp_files/43682.got.cif
#   From: 2010.05.17/outbox.cif.g08.bks.cpg/sg15_22_cif.got.tgz:43682.got - 2010.06.03 18:47:42.
