data_PCOD9279452
_publ_section_title
;
Structure prediction by ZEFSAII (Michael W. Deem and Ramdas Pophale) SiO2 
 PCOD9279452
Probable space group: C 2/C
;
_chemical_formula_sum "Si O2"
_cell_formula_units_Z 60
_cell_length_a 22.591206
_cell_length_b 15.460179
_cell_length_c 27.847664
_cell_angle_alpha 90.000000
_cell_angle_beta 162.130910
_cell_angle_gamma 90.000000
_cell_volume 2984.415008
_symmetry_space_group_name_H-M "C 2/C"
_symmetry_group_IT_number 15
_symmetry_cell_setting 'monoclinic'
loop_
_space_group_symop_operation_xyz
x,y,z
-x,y,1/2-z
-x,-y,-z
x,-y,1/2+z
1/2+x,1/2+y,z
1/2-x,1/2+y,1/2-z
1/2-x,1/2-y,-z
1/2+x,1/2-y,1/2+z
loop_
_atom_site_type_symbol
_atom_site_label
_atom_site_fract_x
_atom_site_fract_y
_atom_site_fract_z
Si Si1 0.398966 0.653944 0.925173
Si Si2 0.003071 0.290281 0.418590
Si Si3 0.450047 0.720150 0.631499
Si Si4 0.680926 0.948395 0.334825
Si Si5 0.000000 0.919839 0.250000
Si Si6 0.216240 0.857739 0.591734
Si Si7 0.228901 0.572639 0.034568
Si Si8 0.654016 0.673084 0.456672
O O1 0.209972 0.670030 0.746417
O O2 0.334847 0.580555 0.913286
O O3 0.445490 0.738480 0.993706
O O4 0.581023 0.631013 0.033587
O O5 0.164039 0.361400 0.526757
O O6 0.003489 0.221267 0.374558
O O7 0.250000 0.750000 0.500000
O O8 0.505520 0.639429 0.707372
O O9 0.604877 0.796390 0.756531
O O10 0.407418 0.689923 0.544767
O O11 0.470880 0.935669 0.149580
O O12 0.717738 0.881423 0.406616
O O13 0.713960 0.048409 0.373041
O O14 0.189748 0.979128 0.391400
O O15 0.388478 0.608552 0.119633
O O16 0.750000 0.750000 0.500000
#
# Coordination Sequence:
#
# PCOD9279452 Si02
#       8
#     8   8   8   8   4   8   8   8
#     4  10  21  40  62  92 121 169 208 254 299 372
#     4   9  20  37  60  89 132 160 209 246 305 366
#     4  12  25  44  65  92 120 160 204 269 320 379
#     4  10  21  38  63  92 129 162 212 256 303 374
#     4  12  24  40  62  94 126 152 212 256 334 378
#     4  12  24  42  69  87 123 163 214 255 318 369
#     4  10  21  35  60  92 130 165 199 258 317 375
#     4   9  18  35  60  93 127 169 198 243 310 374
#
# _framework density 20.104443
#
# number of rings (size 3 to 8) (size 9 to 14) (size 15 to 20)
#    0.000    1.600    1.333    3.200    1.867    2.133 
#    4.800    0.000    0.000    2.400    0.000    0.000 
#    0.000    0.000    0.000    0.000    0.000    0.000 
#
# Total GULP energy -167425.820288 kJ/mol
# GULP energy per Si atom -5580.860676 kJ/mol
# Density = 2.005868 g / cm^3
# Si number density = 20.104443 Si / 1000 Ang^3
#
#
#
# Elastic Constant Matrix: (Units=GPa)
#
#
# Indices 1 2 3 4 5 6 
#
# 1 85.7667 25.3789 31.1664 0.0033 4.6703 0.0037
# 2 25.3789 121.6365 46.5152 -0.0061 -6.5414 -0.0002
# 3 31.1664 46.5152 80.3305 0.0153 1.7313 -0.0139
# 4 0.0033 -0.0061 0.0153 37.0144 0.0037 -7.6826
# 5 4.6703 -6.5414 1.7313 0.0037 32.9310 -0.0029
# 6 0.0037 -0.0002 -0.0139 -7.6826 -0.0029 20.3700
#
#
#
# Elastic Compliance Matrix: (Units=1/GPa)
#
#
# Indices 1 2 3 4 5 6 
#
# 1 0.013801 -0.001225 -0.004603 -0.000001 -0.001959 -0.000006
# 2 -0.001225 0.010865 -0.005873 0.000004 0.002641 -0.000002
# 3 -0.004603 -0.005873 0.017666 -0.000006 -0.001443 0.000011
# 4 -0.000001 0.000004 -0.000006 0.029311 -0.000001 0.011055
# 5 -0.001959 0.002641 -0.001443 -0.000001 0.031245 0.000003
# 6 -0.000006 -0.000002 0.000011 0.011055 0.000003 0.053261
#
#
# Mechanical properties :
#
#
# Convention : Reuss Voigt Hill
#
# Bulk Modulus (GPa) = 52.82431 54.87275 53.84853
# Shear Modulus (GPa) = 26.90187 30.37463 28.63825
#
# Velocity S-wave (km/s) = 3.66198 3.89117 3.77831
# Velocity P-wave (km/s) = 6.64922 6.89503 6.77324
#
# Compressibility (1/GPa) = 0.01893068
#
# Stress axis : x y z
#
# Youngs Moduli (GPa) = 72.45683 92.04208 56.60475
#
# Poissons Ratio (x) = 0.11271 0.26057
# Poissons Ratio (y) = 0.08873 0.33244
# Poissons Ratio (z) = 0.33354 0.54056
#
# Static dielectric constant tensor:
#      x y z
#    x 1.719930 0.000000 -0.006770 
#    y 0.000000 1.772050 -0.000020 
#    z -0.006770 -0.000020 1.710060 
# 
# From -- ./inp_files/301209.got.cif
#   From: 2010.05.17/outbox.cif.g08.bks.cpg/sg15_151_cif.got.tgz:301209.got - 2010.06.03 18:47:42.
