data_PCOD9279767
_publ_section_title
;
Structure prediction by ZEFSAII (Michael W. Deem and Ramdas Pophale) SiO2 
 PCOD9279767
Probable space group: C 2/C
;
_chemical_formula_sum "Si O2"
_cell_formula_units_Z 40
_cell_length_a 28.197328
_cell_length_b 11.946525
_cell_length_c 16.215857
_cell_angle_alpha 90.000000
_cell_angle_beta 160.545888
_cell_angle_gamma 90.000000
_cell_volume 1819.287080
_symmetry_space_group_name_H-M "C 2/C"
_symmetry_group_IT_number 15
_symmetry_cell_setting 'monoclinic'
loop_
_space_group_symop_operation_xyz
x,y,z
-x,y,1/2-z
-x,-y,-z
x,-y,1/2+z
1/2+x,1/2+y,z
1/2-x,1/2+y,1/2-z
1/2-x,1/2-y,-z
1/2+x,1/2-y,1/2+z
loop_
_atom_site_type_symbol
_atom_site_label
_atom_site_fract_x
_atom_site_fract_y
_atom_site_fract_z
Si Si1 0.320280 0.857150 0.571355
Si Si2 0.906787 0.740097 0.905674
Si Si3 0.169131 0.481766 0.272161
Si Si4 0.069767 0.902432 0.057811
Si Si5 0.121848 0.071867 0.012155
O O1 0.250000 0.750000 0.500000
O O2 0.237541 0.877692 0.351148
O O3 0.277915 0.965392 0.556092
O O4 0.485434 0.828202 0.855889
O O5 0.801501 0.647883 0.696599
O O6 0.850518 0.840640 0.869381
O O7 0.990081 0.793359 0.963610
O O8 0.238982 0.550720 0.313112
O O9 0.000000 0.500000 0.000000
O O10 0.064675 0.956134 0.959053
O O11 0.000000 0.000000 0.000000
O O12 0.000000 0.114245 0.750000
#
# Coordination Sequence:
#
# PCOD9279767 Si02
#       5
#     8   8   8   8   8
#     4   9  17  35  59  82 112 150 188 234 289 350
#     4   9  20  36  59  84 113 152 193 247 295 345
#     4  10  21  36  58  89 117 146 192 245 295 349
#     4   9  18  35  57  84 116 153 194 238 292 353
#     4  11  22  38  59  85 114 155 202 240 292 363
#
# _framework density 21.986633999999999
#
# number of rings (size 3 to 8) (size 9 to 14) (size 15 to 20)
#    0.000    2.400    0.000    3.600    0.000    6.400 
#    0.000   12.000    0.000    0.000    0.000    1.400 
#    0.000    0.000    0.000    0.000    0.000    0.000 
#
# Total GULP energy -111437.186592 kJ/mol
# GULP energy per Si atom -5571.859330 kJ/mol
# Density = 2.193659 g / cm^3
# Si number density = 21.986634 Si / 1000 Ang^3
#
#
#
# Elastic Constant Matrix: (Units=GPa)
#
#
# Indices 1 2 3 4 5 6 
#
# 1 77.3610 21.6639 10.1281 0.0000 18.9970 0.0000
# 2 21.6639 98.4048 15.5563 0.0000 -4.7697 0.0000
# 3 10.1281 15.5563 34.2895 0.0000 12.8932 0.0000
# 4 0.0000 0.0000 0.0000 30.2877 0.0000 -13.2152
# 5 18.9970 -4.7697 12.8932 0.0000 32.7117 0.0000
# 6 0.0000 0.0000 0.0000 -13.2152 0.0000 33.9380
#
#
#
# Elastic Compliance Matrix: (Units=1/GPa)
#
#
# Indices 1 2 3 4 5 6 
#
# 1 0.016637 -0.004356 0.001096 0.000000 -0.010729 0.000000
# 2 -0.004356 0.012595 -0.007125 0.000000 0.007175 0.000000
# 3 0.001096 -0.007125 0.038392 0.000000 -0.016808 0.000000
# 4 0.000000 0.000000 0.000000 0.039774 0.000000 0.015488
# 5 -0.010729 0.007175 -0.016808 0.000000 0.044472 0.000000
# 6 0.000000 0.000000 0.000000 0.015488 0.000000 0.035496
#
#
# Mechanical properties :
#
#
# Convention : Reuss Voigt Hill
#
# Bulk Modulus (GPa) = 21.34250 33.86133 27.60191
# Shear Modulus (GPa) = 22.34579 30.23460 26.29019
#
# Velocity S-wave (km/s) = 3.19146 3.71230 3.46169
# Velocity P-wave (km/s) = 4.82790 5.81457 5.34406
#
# Compressibility (1/GPa) = 0.04685486
#
# Stress axis : x y z
#
# Youngs Moduli (GPa) = 60.10522 79.39488 26.04703
#
# Poissons Ratio (x) = 0.34586 -0.02856
# Poissons Ratio (y) = 0.26183 0.18559
# Poissons Ratio (z) = -0.06590 0.56571
#
# Static dielectric constant tensor:
#      x y z
#    x 1.768160 0.000000 -0.046760 
#    y 0.000000 1.879670 0.000000 
#    z -0.046760 0.000000 1.878810 
# 
# From -- ./inp_files/142347.got.cif
#   From: 2010.05.17/outbox.cif.g08.bks.cpg/sg15_72_cif.got.tgz:142347.got - 2010.06.03 18:47:42.
