data_PCOD9279326
_publ_section_title
;
Structure prediction by ZEFSAII (Michael W. Deem and Ramdas Pophale) SiO2 
 PCOD9279326
Probable space group: C 2/C
;
_chemical_formula_sum "Si O2"
_cell_formula_units_Z 56
_cell_length_a 21.143443
_cell_length_b 29.525654
_cell_length_c 5.289179
_cell_angle_alpha 90.000000
_cell_angle_beta 122.330530
_cell_angle_gamma 90.000000
_cell_volume 2790.026832
_symmetry_space_group_name_H-M "C 2/C"
_symmetry_group_IT_number 15
_symmetry_cell_setting 'monoclinic'
loop_
_space_group_symop_operation_xyz
x,y,z
-x,y,1/2-z
-x,-y,-z
x,-y,1/2+z
1/2+x,1/2+y,z
1/2-x,1/2+y,1/2-z
1/2-x,1/2-y,-z
1/2+x,1/2-y,1/2+z
loop_
_atom_site_type_symbol
_atom_site_label
_atom_site_fract_x
_atom_site_fract_y
_atom_site_fract_z
Si Si1 0.606778 0.530275 0.243609
Si Si2 0.227819 0.908582 0.811271
Si Si3 0.765421 0.324984 0.143951
Si Si4 0.841514 0.470102 0.799853
Si Si5 0.500000 0.031479 0.750000
Si Si6 0.184459 0.759449 0.564715
Si Si7 0.000000 0.900840 0.750000
Si Si8 0.134790 0.844676 0.265830
O O1 0.603471 0.503184 0.974916
O O2 0.771402 0.438232 0.701278
O O3 0.684609 0.558092 0.408088
O O4 0.163726 0.877627 0.548593
O O5 0.039553 0.934161 0.633980
O O6 0.284263 0.872337 0.054350
O O7 0.831119 0.291493 0.376071
O O8 0.705751 0.339491 0.229993
O O9 0.720818 0.291714 0.856745
O O10 0.839486 0.509258 0.013896
O O11 0.919880 0.444914 0.038499
O O12 0.500000 0.000000 0.500000
O O13 0.250000 0.750000 0.500000
O O14 0.121293 0.792619 0.320781
O O15 0.935409 0.869063 0.504055
#
# Coordination Sequence:
#
# PCOD9279326 Si02
#       8
#     8   8   8   8   4   8   4   8
#     4  12  26  42  56  76 119 176 225 273 314 354
#     4  11  22  35  56  85 118 155 212 260 305 363
#     4   9  17  34  56  85 112 140 186 246 306 374
#     4  10  21  35  57  85 120 157 198 252 304 357
#     4   8  16  34  54  80 113 142 184 231 296 368
#     4   8  16  33  58  83 109 136 175 238 316 365
#     4  12  24  42  58  80 123 170 230 261 322 364
#     4  10  21  36  55  85 115 155 204 262 297 371
#
# _framework density 20.071490000000001
#
# number of rings (size 3 to 8) (size 9 to 14) (size 15 to 20)
#    0.000    2.000    1.429    2.143    2.000    1.714 
#    0.000    0.000    0.000    0.000    0.000   46.000 
#    0.000    0.000    0.000    0.000    0.000    0.000 
#
# Total GULP energy -156034.758984 kJ/mol
# GULP energy per Si atom -5572.669964 kJ/mol
# Density = 2.002581 g / cm^3
# Si number density = 20.071490 Si / 1000 Ang^3
#
#
#
# Elastic Constant Matrix: (Units=GPa)
#
#
# Indices 1 2 3 4 5 6 
#
# 1 56.0941 32.9537 13.8901 0.0000 -0.7292 0.0000
# 2 32.9537 105.4062 35.5162 0.0000 11.4844 0.0000
# 3 13.8901 35.5162 63.7632 0.0000 -5.3065 0.0000
# 4 0.0000 0.0000 0.0000 21.4261 0.0000 0.1456
# 5 -0.7292 11.4844 -5.3065 0.0000 29.9409 0.0000
# 6 0.0000 0.0000 0.0000 0.1456 0.0000 26.1154
#
#
#
# Elastic Compliance Matrix: (Units=1/GPa)
#
#
# Indices 1 2 3 4 5 6 
#
# 1 0.022173 -0.007059 -0.000638 0.000000 0.003134 0.000000
# 2 -0.007059 0.014977 -0.007406 0.000000 -0.007229 0.000000
# 3 -0.000638 -0.007406 0.020484 0.000000 0.006456 0.000000
# 4 0.000000 0.000000 0.000000 0.046674 0.000000 -0.000260
# 5 0.003134 -0.007229 0.006456 0.000000 0.037393 0.000000
# 6 0.000000 0.000000 0.000000 -0.000260 0.000000 0.038293
#
#
# Mechanical properties :
#
#
# Convention : Reuss Voigt Hill
#
# Bulk Modulus (GPa) = 36.45739 43.33150 39.89445
# Shear Modulus (GPa) = 22.79554 25.02339 23.90946
#
# Velocity S-wave (km/s) = 3.37370 3.53471 3.45514
# Velocity P-wave (km/s) = 5.77745 6.18824 5.98637
#
# Compressibility (1/GPa) = 0.02742928
#
# Stress axis : x y z
#
# Youngs Moduli (GPa) = 45.10088 66.76887 48.81755
#
# Poissons Ratio (x) = 0.47130 0.03112
# Poissons Ratio (y) = 0.31835 0.36155
# Poissons Ratio (z) = 0.02875 0.49451
#
# Static dielectric constant tensor:
#      x y z
#    x 1.736540 0.000000 -0.029830 
#    y 0.000000 1.768760 0.000000 
#    z -0.029830 0.000000 1.797750 
# 
# From -- ./inp_files/12076.got.cif
#   From: 2010.05.17/outbox.cif.g08.bks.cpg/sg15_7_cif.got.tgz:12076.got - 2010.06.03 18:47:42.
