data_PCOD9279640
_publ_section_title
;
Structure prediction by ZEFSAII (Michael W. Deem and Ramdas Pophale) SiO2 
 PCOD9279640
Probable space group: C 2/C
;
_chemical_formula_sum "Si O2"
_cell_formula_units_Z 56
_cell_length_a 26.236108
_cell_length_b 17.587348
_cell_length_c 8.569517
_cell_angle_alpha 90.000000
_cell_angle_beta 43.131329
_cell_angle_gamma 90.000000
_cell_volume 2703.363773
_symmetry_space_group_name_H-M "C 2/C"
_symmetry_group_IT_number 15
_symmetry_cell_setting 'monoclinic'
loop_
_space_group_symop_operation_xyz
x,y,z
-x,y,1/2-z
-x,-y,-z
x,-y,1/2+z
1/2+x,1/2+y,z
1/2-x,1/2+y,1/2-z
1/2-x,1/2-y,-z
1/2+x,1/2-y,1/2+z
loop_
_atom_site_type_symbol
_atom_site_label
_atom_site_fract_x
_atom_site_fract_y
_atom_site_fract_z
Si Si1 0.152525 0.833478 0.950404
Si Si2 0.028972 0.921173 0.364193
Si Si3 0.767073 0.075765 0.683915
Si Si4 0.906248 0.831103 0.773921
Si Si5 0.315957 0.801506 0.923101
Si Si6 0.786449 0.581562 0.051298
Si Si7 0.086714 0.335586 0.088550
O O1 0.121835 0.830657 0.843051
O O2 0.239449 0.849653 0.733152
O O3 0.114655 0.898427 0.143815
O O4 0.138686 0.754120 0.064273
O O5 0.000000 0.917597 0.250000
O O6 0.990683 0.859966 0.564235
O O7 0.000000 0.000000 0.500000
O O8 0.852322 0.107105 0.479190
O O9 0.732044 0.079233 0.589590
O O10 0.750537 0.993178 0.790911
O O11 0.723523 0.133500 0.891089
O O12 0.902921 0.748106 0.856615
O O13 0.369667 0.833646 0.671959
O O14 0.250000 0.750000 0.000000
O O15 0.871648 0.600548 0.900375
O O16 0.000000 0.349251 0.250000
#
# Coordination Sequence:
#
# PCOD9279640 Si02
#       7
#     8   8   8   8   8   8   8
#     4  10  21  38  63  89 130 170 210 269 309 391
#     4  10  21  36  55  89 128 166 203 250 315 376
#     4  11  23  41  68  94 126 168 215 275 319 387
#     4  10  21  40  61  93 128 170 216 260 331 376
#     4  12  22  40  65  95 124 161 216 259 316 381
#     4  11  23  41  64  95 130 170 221 265 330 380
#     4  12  25  42  65  96 131 172 217 271 319 387
#
# _framework density 20.714932000000001
#
# number of rings (size 3 to 8) (size 9 to 14) (size 15 to 20)
#    0.000    1.143    2.857    3.429    0.000    4.000 
#    0.000    5.000    0.000    0.000    0.000    0.000 
#    0.000    0.000    0.000    0.000    0.000    0.000 
#
# Total GULP energy -156393.660611 kJ/mol
# GULP energy per Si atom -5585.487879 kJ/mol
# Density = 2.066778 g / cm^3
# Si number density = 20.714932 Si / 1000 Ang^3
#
#
#
# Elastic Constant Matrix: (Units=GPa)
#
#
# Indices 1 2 3 4 5 6 
#
# 1 47.6223 9.7984 51.9162 0.0000 -7.1364 0.0000
# 2 9.7984 54.2156 24.4035 0.0000 11.3309 0.0000
# 3 51.9162 24.4035 140.8099 0.0000 6.6072 0.0000
# 4 0.0000 0.0000 0.0000 45.3621 0.0000 12.2426
# 5 -7.1364 11.3309 6.6072 0.0000 37.5989 0.0000
# 6 0.0000 0.0000 0.0000 12.2426 0.0000 23.8216
#
#
#
# Elastic Compliance Matrix: (Units=1/GPa)
#
#
# Indices 1 2 3 4 5 6 
#
# 1 0.038795 -0.002807 -0.014320 0.000000 0.010726 0.000000
# 2 -0.002807 0.021388 -0.002364 0.000000 -0.006563 0.000000
# 3 -0.014320 -0.002364 0.012993 0.000000 -0.004289 0.000000
# 4 0.000000 0.000000 0.000000 0.025595 0.000000 -0.013154
# 5 0.010726 -0.006563 -0.004289 0.000000 0.031364 0.000000
# 6 0.000000 0.000000 0.000000 -0.013154 0.000000 0.048739
#
#
# Mechanical properties :
#
#
# Convention : Reuss Voigt Hill
#
# Bulk Modulus (GPa) = 29.24592 46.09823 37.67207
# Shear Modulus (GPa) = 21.80990 31.79183 26.80087
#
# Velocity S-wave (km/s) = 3.24830 3.92181 3.60084
# Velocity P-wave (km/s) = 5.31202 6.54289 5.95932
#
# Compressibility (1/GPa) = 0.03419281
#
# Stress axis : x y z
#
# Youngs Moduli (GPa) = 25.77641 46.75560 76.96702
#
# Poissons Ratio (x) = 0.13125 1.10220
# Poissons Ratio (y) = 0.07236 0.18193
# Poissons Ratio (z) = 0.36913 0.11052
#
# Static dielectric constant tensor:
#      x y z
#    x 1.792280 0.000000 -0.029220 
#    y 0.000000 1.756310 0.000000 
#    z -0.029220 0.000000 1.726660 
# 
# From -- ./inp_files/67104.got.cif
#   From: 2010.05.17/outbox.cif.g08.bks.cpg/sg15_34_cif.got.tgz:67104.got - 2010.06.03 18:47:42.
