data_PCOD9279785
_publ_section_title
;
Structure prediction by ZEFSAII (Michael W. Deem and Ramdas Pophale) SiO2 
 PCOD9279785
Probable space group: C 2/C
;
_chemical_formula_sum "Si O2"
_cell_formula_units_Z 60
_cell_length_a 22.172198
_cell_length_b 8.149762
_cell_length_c 30.509777
_cell_angle_alpha 90.000000
_cell_angle_beta 155.227284
_cell_angle_gamma 90.000000
_cell_volume 2310.080991
_symmetry_space_group_name_H-M "C 2/C"
_symmetry_group_IT_number 15
_symmetry_cell_setting 'monoclinic'
loop_
_space_group_symop_operation_xyz
x,y,z
-x,y,1/2-z
-x,-y,-z
x,-y,1/2+z
1/2+x,1/2+y,z
1/2-x,1/2+y,1/2-z
1/2-x,1/2-y,-z
1/2+x,1/2-y,1/2+z
loop_
_atom_site_type_symbol
_atom_site_label
_atom_site_fract_x
_atom_site_fract_y
_atom_site_fract_z
Si Si1 0.921527 0.184612 0.128590
Si Si2 0.000000 0.805880 0.250000
Si Si3 0.996709 0.921799 0.046283
Si Si4 0.312057 0.902427 0.686050
Si Si5 0.266351 0.097691 0.979406
Si Si6 0.089445 0.610376 0.154090
Si Si7 0.684953 0.268178 0.845302
Si Si8 0.003933 0.276309 0.417357
O O1 0.869136 0.259834 0.140408
O O2 0.078195 0.115359 0.247348
O O3 0.796005 0.056467 0.034443
O O4 0.956591 0.282048 0.107954
O O5 0.946259 0.691104 0.253974
O O6 0.857544 0.897969 0.139551
O O7 0.830965 0.859667 0.936082
O O8 0.026661 0.082478 0.095608
O O9 0.092102 0.764972 0.122823
O O10 0.000000 0.000000 0.000000
O O11 0.310973 0.869327 0.737274
O O12 0.327440 0.095613 0.687753
O O13 0.250000 0.250000 0.000000
O O14 0.425198 0.104435 0.064525
O O15 0.104981 0.425911 0.144984
O O16 0.851733 0.312363 0.959301
#
# Coordination Sequence:
#
# PCOD9279785 Si02
#       8
#     8   4   8   8   8   8   8   8
#     4  11  21  35  58  99 144 188 228 268 346 432
#     4  12  22  36  60 102 152 186 224 268 354 436
#     4  11  28  55  74  99 140 186 247 320 370 411
#     4  11  24  42  71 107 144 188 231 295 359 437
#     4  12  24  34  58  99 149 192 229 279 344 443
#     4  12  24  47  71 104 141 187 247 295 357 433
#     4  10  21  36  58  97 147 185 227 276 340 435
#     4  11  24  42  71  99 137 186 237 294 359 419
#
# _framework density 25.973116000000001
#
# number of rings (size 3 to 8) (size 9 to 14) (size 15 to 20)
#    0.000    0.800    5.333    2.800    1.867    0.533 
#    2.400    0.000    0.000    0.000    0.000    0.000 
#    0.000    0.000    0.000    0.000    0.000    0.000 
#
# Total GULP energy -167672.342482 kJ/mol
# GULP energy per Si atom -5589.078083 kJ/mol
# Density = 2.591400 g / cm^3
# Si number density = 25.973116 Si / 1000 Ang^3
#
#
#
# Elastic Constant Matrix: (Units=GPa)
#
#
# Indices 1 2 3 4 5 6 
#
# 1 50.6233 29.4267 11.0981 -0.0003 -7.3008 -0.0002
# 2 29.4267 125.9855 46.6387 -0.0001 -28.5283 -0.0005
# 3 11.0981 46.6387 118.9176 -0.0050 -8.4746 -0.0017
# 4 -0.0003 -0.0001 -0.0050 45.6801 -0.0010 -10.5868
# 5 -7.3008 -28.5283 -8.4746 -0.0010 41.8131 -0.0006
# 6 -0.0002 -0.0005 -0.0017 -10.5868 -0.0006 32.1147
#
#
#
# Elastic Compliance Matrix: (Units=1/GPa)
#
#
# Indices 1 2 3 4 5 6 
#
# 1 0.022863 -0.005226 -0.000055 0.000000 0.000415 0.000000
# 2 -0.005226 0.012031 -0.003765 0.000000 0.006533 0.000000
# 3 -0.000055 -0.003765 0.009850 0.000001 -0.000582 0.000001
# 4 0.000000 0.000000 0.000001 0.023702 0.000001 0.007814
# 5 0.000415 0.006533 -0.000582 0.000001 0.028328 0.000001
# 6 0.000000 0.000000 0.000001 0.007814 0.000001 0.033714
#
#
# Mechanical properties :
#
#
# Convention : Reuss Voigt Hill
#
# Bulk Modulus (GPa) = 37.51985 52.20593 44.86289
# Shear Modulus (GPa) = 31.75321 37.81246 34.78283
#
# Velocity S-wave (km/s) = 3.50028 3.81967 3.66346
# Velocity P-wave (km/s) = 5.55094 6.29260 5.93337
#
# Compressibility (1/GPa) = 0.02665256
#
# Stress axis : x y z
#
# Youngs Moduli (GPa) = 43.73794 83.11637 101.52789
#
# Poissons Ratio (x) = 0.43437 0.00554
# Poissons Ratio (y) = 0.22858 0.38228
# Poissons Ratio (z) = 0.00239 0.31296
#
# Static dielectric constant tensor:
#      x y z
#    x 2.073600 0.000000 0.069770 
#    y 0.000000 2.198890 0.000000 
#    z 0.069770 0.000000 2.108510 
# 
# From -- ./inp_files/302107.got.cif
#   From: 2010.05.17/outbox.cif.g08.bks.cpg/sg15_152_cif.got.tgz:302107.got - 2010.06.03 18:47:42.
