data_PCOD9279924
_publ_section_title
;
Structure prediction by ZEFSAII (Michael W. Deem and Ramdas Pophale) SiO2 
 PCOD9279924
Probable space group: C 2/C
;
_chemical_formula_sum "Si O2"
_cell_formula_units_Z 40
_cell_length_a 19.016429
_cell_length_b 17.482607
_cell_length_c 8.271506
_cell_angle_alpha 90.000000
_cell_angle_beta 50.390934
_cell_angle_gamma 90.000000
_cell_volume 2118.570883
_symmetry_space_group_name_H-M "C 2/C"
_symmetry_group_IT_number 15
_symmetry_cell_setting 'monoclinic'
loop_
_space_group_symop_operation_xyz
x,y,z
-x,y,1/2-z
-x,-y,-z
x,-y,1/2+z
1/2+x,1/2+y,z
1/2-x,1/2+y,1/2-z
1/2-x,1/2-y,-z
1/2+x,1/2-y,1/2+z
loop_
_atom_site_type_symbol
_atom_site_label
_atom_site_fract_x
_atom_site_fract_y
_atom_site_fract_z
Si Si1 0.000000 0.361461 0.750000
Si Si2 0.952658 0.724155 0.643908
Si Si3 0.000000 0.013396 0.750000
Si Si4 0.902677 0.509002 0.550872
Si Si5 0.313210 0.100517 0.944979
Si Si6 0.397584 0.397348 0.661448
O O1 0.997356 0.313032 0.587241
O O2 0.082673 0.420976 0.596639
O O3 0.858523 0.677013 0.807188
O O4 0.936835 0.812784 0.630176
O O5 0.000000 0.717301 0.750000
O O6 0.056819 0.957147 0.781847
O O7 0.071424 0.067970 0.554296
O O8 0.826010 0.537079 0.786433
O O9 0.875445 0.432652 0.498739
O O10 0.000000 0.500000 0.500000
O O11 0.210323 0.107141 0.152626
#
# Coordination Sequence:
#
# PCOD9279924 Si02
#       6
#     4   8   4   8   8   8
#     4  10  21  36  61  92 124 166 202 234 301 388
#     4  11  23  39  63  88 128 168 198 250 318 372
#     4  10  23  42  67  78 114 162 208 262 315 362
#     4  11  19  36  59  91 128 159 194 241 306 373
#     4  11  22  34  62  91 123 155 203 253 300 366
#     4  11  22  43  61  88 114 158 212 259 309 364
#
# _framework density 18.880652000000001
#
# number of rings (size 3 to 8) (size 9 to 14) (size 15 to 20)
#    0.000    1.200    3.000    4.800    0.000    0.000 
#    0.000    0.000    0.000    6.000    0.000    0.000 
#    0.000    0.000    0.000    0.000    0.000    0.000 
#
# Total GULP energy -111543.342216 kJ/mol
# GULP energy per Si atom -5577.167111 kJ/mol
# Density = 1.883768 g / cm^3
# Si number density = 18.880652 Si / 1000 Ang^3
#
#
#
# Elastic Constant Matrix: (Units=GPa)
#
#
# Indices 1 2 3 4 5 6 
#
# 1 50.0668 31.1112 38.0433 0.0000 5.8994 0.0000
# 2 31.1112 133.3549 58.2442 0.0000 10.9547 0.0000
# 3 38.0433 58.2442 133.4514 0.0000 5.5777 0.0000
# 4 0.0000 0.0000 0.0000 25.5073 0.0000 4.5372
# 5 5.8994 10.9547 5.5777 0.0000 27.4502 0.0000
# 6 0.0000 0.0000 0.0000 4.5372 0.0000 22.7888
#
#
#
# Elastic Compliance Matrix: (Units=1/GPa)
#
#
# Indices 1 2 3 4 5 6 
#
# 1 0.027104 -0.003388 -0.006113 0.000000 -0.003231 0.000000
# 2 -0.003388 0.009923 -0.003258 0.000000 -0.002570 0.000000
# 3 -0.006113 -0.003258 0.010639 0.000000 0.000452 0.000000
# 4 0.000000 0.000000 0.000000 0.040644 0.000000 -0.008092
# 5 -0.003231 -0.002570 0.000452 0.000000 0.038058 0.000000
# 6 0.000000 0.000000 0.000000 -0.008092 0.000000 0.045492
#
#
# Mechanical properties :
#
#
# Convention : Reuss Voigt Hill
#
# Bulk Modulus (GPa) = 45.14872 63.51895 54.33383
# Shear Modulus (GPa) = 24.41879 27.78089 26.09984
#
# Velocity S-wave (km/s) = 3.60018 3.84004 3.72204
# Velocity P-wave (km/s) = 6.42233 7.30593 6.87833
#
# Compressibility (1/GPa) = 0.02214902
#
# Stress axis : x y z
#
# Youngs Moduli (GPa) = 36.89461 100.77456 93.99477
#
# Poissons Ratio (x) = 0.34143 0.57458
# Poissons Ratio (y) = 0.12500 0.30620
# Poissons Ratio (z) = 0.22553 0.32829
#
# Static dielectric constant tensor:
#      x y z
#    x 1.672030 0.000000 0.043560 
#    y 0.000000 1.644900 0.000000 
#    z 0.043560 0.000000 1.678610 
# 
# From -- ./inp_files/29284.got.cif
#   From: 2010.05.17/outbox.cif.g08.bks.cpg/sg15_15_cif.got.tgz:29284.got - 2010.06.03 18:47:42.
