data_PCOD9279367
_publ_section_title
;
Structure prediction by ZEFSAII (Michael W. Deem and Ramdas Pophale) SiO2 
 PCOD9279367
Probable space group: C 2/C
;
_chemical_formula_sum "Si O2"
_cell_formula_units_Z 52
_cell_length_a 28.514924
_cell_length_b 20.150915
_cell_length_c 9.909912
_cell_angle_alpha 90.000000
_cell_angle_beta 26.329287
_cell_angle_gamma 90.000000
_cell_volume 2525.568644
_symmetry_space_group_name_H-M "C 2/C"
_symmetry_group_IT_number 15
_symmetry_cell_setting 'monoclinic'
loop_
_space_group_symop_operation_xyz
x,y,z
-x,y,1/2-z
-x,-y,-z
x,-y,1/2+z
1/2+x,1/2+y,z
1/2-x,1/2+y,1/2-z
1/2-x,1/2-y,-z
1/2+x,1/2-y,1/2+z
loop_
_atom_site_type_symbol
_atom_site_label
_atom_site_fract_x
_atom_site_fract_y
_atom_site_fract_z
Si Si1 0.000000 0.710290 0.250000
Si Si2 0.965842 0.803326 0.088109
Si Si3 0.740329 0.661671 0.552943
Si Si4 0.147498 0.273508 0.955964
Si Si5 0.114483 0.955090 0.481475
Si Si6 0.793243 0.323858 0.418845
Si Si7 0.114559 0.076930 0.283382
O O1 0.044032 0.757135 0.255420
O O2 0.905044 0.668923 0.557302
O O3 0.044255 0.763572 0.783011
O O4 0.019767 0.871182 0.001747
O O5 0.857143 0.820221 0.295387
O O6 0.845037 0.681780 0.199745
O O7 0.722978 0.710976 0.723984
O O8 0.712074 0.588364 0.674332
O O9 0.188631 0.321253 0.967995
O O10 0.127439 0.960881 0.607969
O O11 0.000000 0.919515 0.750000
O O12 0.104518 0.022750 0.425332
O O13 0.750000 0.250000 0.500000
O O14 0.711937 0.376795 0.573408
#
# Coordination Sequence:
#
# PCOD9279367 Si02
#       7
#     4   8   8   8   8   8   8
#     4  10  22  34  66  92 120 158 196 262 318 360
#     4  11  21  36  57  92 123 157 197 253 303 373
#     4  11  21  37  59  85 129 157 200 248 317 358
#     4  10  21  35  58  88 117 157 197 256 302 366
#     4  12  25  41  57  90 125 173 207 246 305 377
#     4  11  20  40  61  92 121 153 211 253 316 363
#     4  12  26  39  60  87 130 163 208 251 300 376
#
# _framework density 20.589421999999999
#
# number of rings (size 3 to 8) (size 9 to 14) (size 15 to 20)
#    0.000    0.923    6.154    1.846    3.231    0.000 
#    0.000    0.000    0.000    0.923    8.000    0.000 
#    0.000    0.000    0.000    0.000    0.000    0.000 
#
# Total GULP energy -145281.871447 kJ/mol
# GULP energy per Si atom -5587.764286 kJ/mol
# Density = 2.054256 g / cm^3
# Si number density = 20.589422 Si / 1000 Ang^3
#
#
#
# Elastic Constant Matrix: (Units=GPa)
#
#
# Indices 1 2 3 4 5 6 
#
# 1 95.4293 42.2093 29.5723 0.0000 17.9091 0.0000
# 2 42.2093 96.3077 43.7428 0.0000 6.9382 0.0000
# 3 29.5723 43.7428 98.7164 0.0000 23.4835 0.0000
# 4 0.0000 0.0000 0.0000 21.4702 0.0000 5.6172
# 5 17.9091 6.9382 23.4835 0.0000 32.1880 0.0000
# 6 0.0000 0.0000 0.0000 5.6172 0.0000 35.9154
#
#
#
# Elastic Compliance Matrix: (Units=1/GPa)
#
#
# Indices 1 2 3 4 5 6 
#
# 1 0.014297 -0.005707 -0.000187 0.000000 -0.006588 0.000000
# 2 -0.005707 0.015354 -0.006125 0.000000 0.004334 0.000000
# 3 -0.000187 -0.006125 0.015199 0.000000 -0.009665 0.000000
# 4 0.000000 0.000000 0.000000 0.048563 0.000000 -0.007595
# 5 -0.006588 0.004334 -0.009665 0.000000 0.040850 0.000000
# 6 0.000000 0.000000 0.000000 -0.007595 0.000000 0.029031
#
#
# Mechanical properties :
#
#
# Convention : Reuss Voigt Hill
#
# Bulk Modulus (GPa) = 48.04643 57.94468 52.99555
# Shear Modulus (GPa) = 25.73721 29.57666 27.65693
#
# Velocity S-wave (km/s) = 3.53940 3.79423 3.66903
# Velocity P-wave (km/s) = 6.33161 6.88469 6.61393
#
# Compressibility (1/GPa) = 0.02081320
#
# Stress axis : x y z
#
# Youngs Moduli (GPa) = 69.94247 65.12832 65.79217
#
# Poissons Ratio (x) = 0.37166 0.01231
# Poissons Ratio (y) = 0.39914 0.40300
# Poissons Ratio (z) = 0.01308 0.39893
#
# Static dielectric constant tensor:
#      x y z
#    x 1.784160 0.000000 -0.005490 
#    y 0.000000 1.740020 0.000000 
#    z -0.005490 0.000000 1.820210 
# 
# From -- ./inp_files/70799.got.cif
#   From: 2010.05.17/outbox.cif.g08.bks.cpg/sg15_36_cif.got.tgz:70799.got - 2010.06.03 18:47:42.
