data_PCOD9279850
_publ_section_title
;
Structure prediction by ZEFSAII (Michael W. Deem and Ramdas Pophale) SiO2 
 PCOD9279850
Probable space group: C 2/C
;
_chemical_formula_sum "Si O2"
_cell_formula_units_Z 48
_cell_length_a 19.272552
_cell_length_b 18.978197
_cell_length_c 16.652663
_cell_angle_alpha 90.000000
_cell_angle_beta 157.903107
_cell_angle_gamma 90.000000
_cell_volume 2291.219345
_symmetry_space_group_name_H-M "C 2/C"
_symmetry_group_IT_number 15
_symmetry_cell_setting 'monoclinic'
loop_
_space_group_symop_operation_xyz
x,y,z
-x,y,1/2-z
-x,-y,-z
x,-y,1/2+z
1/2+x,1/2+y,z
1/2-x,1/2+y,1/2-z
1/2-x,1/2-y,-z
1/2+x,1/2-y,1/2+z
loop_
_atom_site_type_symbol
_atom_site_label
_atom_site_fract_x
_atom_site_fract_y
_atom_site_fract_z
Si Si1 0.894914 0.138847 0.718314
Si Si2 0.078016 0.001734 0.466515
Si Si3 0.219639 0.915274 0.773933
Si Si4 0.702055 0.710283 0.146449
Si Si5 0.464831 0.000747 0.306879
Si Si6 0.546723 0.156792 0.430498
O O1 0.680369 0.159338 0.495351
O O2 0.000000 0.157169 0.750000
O O3 0.009512 0.178275 0.909538
O O4 0.933960 0.056372 0.777663
O O5 0.249237 0.013099 0.591306
O O6 0.959314 0.069721 0.362910
O O7 0.171410 0.965267 0.645250
O O8 0.249805 0.836487 0.774327
O O9 0.401725 0.942571 0.012892
O O10 0.844686 0.688834 0.228306
O O11 0.664883 0.793095 0.117053
O O12 0.500000 0.009332 0.250000
O O13 0.518424 0.073822 0.409758
#
# Coordination Sequence:
#
# PCOD9279850 Si02
#       6
#     8   8   8   8   8   8
#     4  11  22  36  55  82 121 165 201 245 298 369
#     4  10  21  36  60  87 119 162 203 256 306 356
#     4  10  22  39  59  87 124 164 211 251 306 363
#     4  11  25  38  56  85 122 167 207 243 299 361
#     4  12  24  38  64  94 126 162 204 258 309 370
#     4  12  23  39  57  85 125 160 208 249 295 367
#
# _framework density 20.949543999999999
#
# number of rings (size 3 to 8) (size 9 to 14) (size 15 to 20)
#    0.000    1.000    6.667    1.500    0.000    1.333 
#    0.000    0.000    0.000    0.000    0.000    1.167 
#    0.000    0.000    0.000    0.000    0.000    0.000 
#
# Total GULP energy -133815.332308 kJ/mol
# GULP energy per Si atom -5575.638846 kJ/mol
# Density = 2.090186 g / cm^3
# Si number density = 20.949544 Si / 1000 Ang^3
#
#
#
# Elastic Constant Matrix: (Units=GPa)
#
#
# Indices 1 2 3 4 5 6 
#
# 1 90.5348 39.2968 46.3709 0.0000 37.0928 0.0000
# 2 39.2968 79.4197 36.3279 0.0000 -9.3601 0.0000
# 3 46.3709 36.3279 105.8254 -0.0001 26.7365 0.0000
# 4 0.0000 0.0000 -0.0001 19.3629 -0.0001 7.5208
# 5 37.0928 -9.3601 26.7365 -0.0001 50.0759 0.0000
# 6 0.0000 0.0000 0.0000 7.5208 0.0000 7.4369
#
#
#
# Elastic Compliance Matrix: (Units=1/GPa)
#
#
# Indices 1 2 3 4 5 6 
#
# 1 0.028180 -0.016348 -0.000798 0.000000 -0.023503 0.000000
# 2 -0.016348 0.026429 -0.007186 0.000000 0.020887 0.000000
# 3 -0.000798 -0.007186 0.014398 0.000000 -0.008440 0.000000
# 4 0.000000 0.000000 0.000000 0.085053 0.000000 -0.086013
# 5 -0.023503 0.020887 -0.008440 0.000000 0.045790 0.000000
# 6 0.000000 0.000000 0.000000 -0.086013 0.000000 0.221447
#
#
# Mechanical properties :
#
#
# Convention : Reuss Voigt Hill
#
# Bulk Modulus (GPa) = 49.15739 57.75234 53.45486
# Shear Modulus (GPa) = 10.48784 25.62743 18.05764
#
# Velocity S-wave (km/s) = 2.23989 3.50136 2.93910
# Velocity P-wave (km/s) = 5.49591 6.63123 6.09008
#
# Compressibility (1/GPa) = 0.02034282
#
# Stress axis : x y z
#
# Youngs Moduli (GPa) = 35.48666 37.83707 69.45345
#
# Poissons Ratio (x) = 0.61858 0.05540
# Poissons Ratio (y) = 0.58015 0.49909
# Poissons Ratio (z) = 0.02831 0.27190
#
# Static dielectric constant tensor:
#      x y z
#    x 1.803890 0.000000 0.023840 
#    y 0.000000 1.793060 0.000000 
#    z 0.023840 0.000000 1.765430 
# 
# From -- ./inp_files/216291.got.cif
#   From: 2010.05.17/outbox.cif.g08.bks.cpg/sg15_109_cif.got.tgz:216291.got - 2010.06.03 18:47:42.
