data_PCOD9279186
_publ_section_title
;
Structure prediction by ZEFSAII (Michael W. Deem and Ramdas Pophale) SiO2 
 PCOD9279186
Probable space group: C 2/C
;
_chemical_formula_sum "Si O2"
_cell_formula_units_Z 40
_cell_length_a 5.534193
_cell_length_b 23.219687
_cell_length_c 19.631138
_cell_angle_alpha 90.000000
_cell_angle_beta 57.763740
_cell_angle_gamma 90.000000
_cell_volume 2133.793807
_symmetry_space_group_name_H-M "C 2/C"
_symmetry_group_IT_number 15
_symmetry_cell_setting 'monoclinic'
loop_
_space_group_symop_operation_xyz
x,y,z
-x,y,1/2-z
-x,-y,-z
x,-y,1/2+z
1/2+x,1/2+y,z
1/2-x,1/2+y,1/2-z
1/2-x,1/2-y,-z
1/2+x,1/2-y,1/2+z
loop_
_atom_site_type_symbol
_atom_site_label
_atom_site_fract_x
_atom_site_fract_y
_atom_site_fract_z
Si Si1 0.921693 0.754179 0.071739
Si Si2 0.317524 0.474294 0.964824
Si Si3 0.506565 0.659967 0.667578
Si Si4 0.143856 0.344294 0.010029
Si Si5 0.668136 0.466080 0.297026
O O1 0.786004 0.802458 0.043747
O O2 0.891079 0.781550 0.150632
O O3 0.816058 0.690894 0.066837
O O4 0.250000 0.750000 0.000000
O O5 0.495218 0.491899 0.871937
O O6 0.500000 0.500000 0.000000
O O7 0.278870 0.406694 0.983737
O O8 0.000000 0.500000 0.000000
O O9 0.500000 0.665995 0.750000
O O10 0.343122 0.600562 0.675702
O O11 0.818405 0.650484 0.586382
O O12 0.500000 0.466044 0.250000
O O13 0.000000 0.482758 0.250000
#
# Coordination Sequence:
#
# PCOD9279186 Si02
#       5
#     8   8   8   8   8
#     4   9  20  38  60  88 122 158 209 262 318 368
#     4  12  24  40  68  98 126 172 222 258 323 393
#     4  10  21  34  63  93 125 158 211 266 327 366
#     4  10  21  39  63  91 124 170 209 267 310 382
#     4  11  24  41  62  95 134 166 208 275 330 376
#
# _framework density 18.745953
#
# number of rings (size 3 to 8) (size 9 to 14) (size 15 to 20)
#    0.000    1.600    2.000    2.400   11.200    0.000 
#    0.000    0.000   13.200    0.000    0.000    0.000 
#    0.000    0.000    0.000    0.000    0.000    0.000 
#
# Total GULP energy -111491.941557 kJ/mol
# GULP energy per Si atom -5574.597078 kJ/mol
# Density = 1.870329 g / cm^3
# Si number density = 18.745953 Si / 1000 Ang^3
#
#
#
# Elastic Constant Matrix: (Units=GPa)
#
#
# Indices 1 2 3 4 5 6 
#
# 1 95.6088 44.3082 39.6564 0.0000 -15.7037 0.0000
# 2 44.3082 152.7723 54.8098 0.0000 6.2416 0.0000
# 3 39.6564 54.8098 103.6073 0.0000 -2.7108 0.0000
# 4 0.0000 0.0000 0.0000 31.9101 0.0000 -9.0356
# 5 -15.7037 6.2416 -2.7108 0.0000 37.7536 0.0000
# 6 0.0000 0.0000 0.0000 -9.0356 0.0000 22.0968
#
#
#
# Elastic Compliance Matrix: (Units=1/GPa)
#
#
# Indices 1 2 3 4 5 6 
#
# 1 0.014481 -0.003118 -0.003729 0.000000 0.006271 0.000000
# 2 -0.003118 0.008854 -0.003569 0.000000 -0.003017 0.000000
# 3 -0.003729 -0.003569 0.012967 0.000000 -0.000030 0.000000
# 4 0.000000 0.000000 0.000000 0.035442 0.000000 0.014492
# 5 0.006271 -0.003017 -0.000030 0.000000 0.029593 0.000000
# 6 0.000000 0.000000 0.000000 0.014492 0.000000 0.051181
#
#
# Mechanical properties :
#
#
# Convention : Reuss Voigt Hill
#
# Bulk Modulus (GPa) = 64.64776 69.94859 67.29818
# Shear Modulus (GPa) = 28.01015 32.56637 30.28826
#
# Velocity S-wave (km/s) = 3.86968 4.17255 4.02397
# Velocity P-wave (km/s) = 7.38424 7.78515 7.58734
#
# Compressibility (1/GPa) = 0.01546844
#
# Stress axis : x y z
#
# Youngs Moduli (GPa) = 69.05506 112.94495 77.12157
#
# Poissons Ratio (x) = 0.35220 0.28759
# Poissons Ratio (y) = 0.21533 0.27526
# Poissons Ratio (z) = 0.25751 0.40313
#
# Static dielectric constant tensor:
#      x y z
#    x 1.768960 0.000000 0.007940 
#    y 0.000000 4.142670 0.000000 
#    z 0.007940 0.000000 1.650590 
# 
# From -- ./inp_files/129111.got.cif
#   From: 2010.05.17/outbox.cif.g08.bks.cpg/sg15_65_cif.got.tgz:129111.got - 2010.06.03 18:47:42.
