data_PCOD9279477
_publ_section_title
;
Structure prediction by ZEFSAII (Michael W. Deem and Ramdas Pophale) SiO2 
 PCOD9279477
Probable space group: C 2/C
;
_chemical_formula_sum "Si O2"
_cell_formula_units_Z 64
_cell_length_a 30.791740
_cell_length_b 12.554325
_cell_length_c 10.196793
_cell_angle_alpha 90.000000
_cell_angle_beta 48.585071
_cell_angle_gamma 90.000000
_cell_volume 2956.085463
_symmetry_space_group_name_H-M "C 2/C"
_symmetry_group_IT_number 15
_symmetry_cell_setting 'monoclinic'
loop_
_space_group_symop_operation_xyz
x,y,z
-x,y,1/2-z
-x,-y,-z
x,-y,1/2+z
1/2+x,1/2+y,z
1/2-x,1/2+y,1/2-z
1/2-x,1/2-y,-z
1/2+x,1/2-y,1/2+z
loop_
_atom_site_type_symbol
_atom_site_label
_atom_site_fract_x
_atom_site_fract_y
_atom_site_fract_z
Si Si1 0.142553 0.856736 0.418110
Si Si2 0.791796 0.835847 0.477687
Si Si3 0.933502 0.406216 0.284519
Si Si4 0.443513 0.148007 0.289598
Si Si5 0.312612 0.825045 0.467093
Si Si6 0.677503 0.812172 0.351917
Si Si7 0.450794 0.215709 0.990243
Si Si8 0.260976 0.508629 0.226415
O O1 0.172214 0.769412 0.457971
O O2 0.075575 0.819154 0.532707
O O3 0.172132 0.968294 0.400718
O O4 0.163524 0.854016 0.226250
O O5 0.750000 0.750000 0.500000
O O6 0.816164 0.787264 0.563171
O O7 0.756032 0.938797 0.592925
O O8 0.955483 0.525468 0.224951
O O9 0.872458 0.391519 0.339143
O O10 0.923793 0.380829 0.458323
O O11 0.981264 0.317650 0.147792
O O12 0.500000 0.190181 0.250000
O O13 0.388279 0.150448 0.494652
O O14 0.432237 0.210272 0.177519
O O15 0.304992 0.787355 0.332613
O O16 0.264564 0.904942 0.621061
O O17 0.720232 0.905417 0.315533
#
# Coordination Sequence:
#
# PCOD9279477 Si02
#       8
#     8   8   8   8   8   8   8   8
#     4  11  24  44  65  94 134 183 222 276 341 406
#     4  12  24  46  64  95 134 176 226 276 339 402
#     4  10  21  35  61  92 128 175 218 274 345 397
#     4  12  22  34  58  93 131 168 215 269 342 407
#     4  11  24  40  62  97 136 169 228 279 336 407
#     4  12  26  38  62  96 135 176 218 281 332 410
#     4  10  21  38  59  89 133 173 220 271 330 409
#     4  12  24  40  70  89 132 179 231 269 339 407
#
# _framework density 21.650254
#
# number of rings (size 3 to 8) (size 9 to 14) (size 15 to 20)
#    0.000    0.750    6.250    1.875    1.750    3.000 
#    0.000    0.000    0.000    0.000    6.500   15.750 
#    0.000    0.000    0.000    0.000    0.000    0.000 
#
# Total GULP energy -178432.365654 kJ/mol
# GULP energy per Si atom -5576.011427 kJ/mol
# Density = 2.160098 g / cm^3
# Si number density = 21.650254 Si / 1000 Ang^3
#
#
#
# Elastic Constant Matrix: (Units=GPa)
#
#
# Indices 1 2 3 4 5 6 
#
# 1 64.5288 29.9399 26.0652 0.0000 5.0105 0.0000
# 2 29.9399 61.8329 26.6855 0.0000 2.1572 0.0000
# 3 26.0652 26.6855 125.3917 0.0000 16.4236 0.0000
# 4 0.0000 0.0000 0.0000 33.5328 0.0000 -0.5308
# 5 5.0105 2.1572 16.4236 0.0000 47.9091 0.0000
# 6 0.0000 0.0000 0.0000 -0.5308 0.0000 33.0445
#
#
#
# Elastic Compliance Matrix: (Units=1/GPa)
#
#
# Indices 1 2 3 4 5 6 
#
# 1 0.020657 -0.008997 -0.002250 0.000000 -0.000984 0.000000
# 2 -0.008997 0.021739 -0.002881 0.000000 0.000950 0.000000
# 3 -0.002250 -0.002881 0.009432 0.000000 -0.002868 0.000000
# 4 0.000000 0.000000 0.000000 0.029829 0.000000 0.000479
# 5 -0.000984 0.000950 -0.002868 0.000000 0.021916 0.000000
# 6 0.000000 0.000000 0.000000 0.000479 0.000000 0.030270
#
#
# Mechanical properties :
#
#
# Convention : Reuss Voigt Hill
#
# Bulk Modulus (GPa) = 42.42361 46.34828 44.38595
# Shear Modulus (GPa) = 29.41961 34.16812 31.79387
#
# Velocity S-wave (km/s) = 3.69027 3.97695 3.83629
# Velocity P-wave (km/s) = 6.14776 6.52245 6.33787
#
# Compressibility (1/GPa) = 0.02357178
#
# Stress axis : x y z
#
# Youngs Moduli (GPa) = 48.41080 46.00054 106.02739
#
# Poissons Ratio (x) = 0.41384 0.23861
# Poissons Ratio (y) = 0.43553 0.30543
# Poissons Ratio (z) = 0.10894 0.13251
#
# Static dielectric constant tensor:
#      x y z
#    x 1.857820 0.000000 -0.015330 
#    y 0.000000 1.823180 0.000000 
#    z -0.015330 0.000000 1.838790 
# 
# From -- ./inp_files/69934.got.cif
#   From: 2010.05.17/outbox.cif.g08.bks.cpg/sg15_35_cif.got.tgz:69934.got - 2010.06.03 18:47:42.
