data_PCOD9279527
_publ_section_title
;
Structure prediction by ZEFSAII (Michael W. Deem and Ramdas Pophale) SiO2 
 PCOD9279527
Probable space group: C 2/C
;
_chemical_formula_sum "Si O2"
_cell_formula_units_Z 48
_cell_length_a 10.497410
_cell_length_b 12.754611
_cell_length_c 18.823220
_cell_angle_alpha 90.000000
_cell_angle_beta 49.836076
_cell_angle_gamma 90.000000
_cell_volume 1925.979359
_symmetry_space_group_name_H-M "C 2/C"
_symmetry_group_IT_number 15
_symmetry_cell_setting 'monoclinic'
loop_
_space_group_symop_operation_xyz
x,y,z
-x,y,1/2-z
-x,-y,-z
x,-y,1/2+z
1/2+x,1/2+y,z
1/2-x,1/2+y,1/2-z
1/2-x,1/2-y,-z
1/2+x,1/2-y,1/2+z
loop_
_atom_site_type_symbol
_atom_site_label
_atom_site_fract_x
_atom_site_fract_y
_atom_site_fract_z
Si Si1 0.239271 0.082702 0.532401
Si Si2 0.417949 0.970083 0.351126
Si Si3 0.094660 0.942040 0.400807
Si Si4 0.267013 0.346625 0.899969
Si Si5 0.568961 0.814906 0.409199
Si Si6 0.847913 0.143928 0.212842
O O1 0.339697 0.144223 0.554205
O O2 0.339761 0.064342 0.423931
O O3 0.232965 0.964315 0.567099
O O4 0.053375 0.123323 0.582004
O O5 0.500000 0.009179 0.250000
O O6 0.534694 0.903203 0.361302
O O7 0.263566 0.899744 0.375335
O O8 0.144894 0.029347 0.324340
O O9 0.000000 0.000000 0.500000
O O10 0.460310 0.317430 0.841515
O O11 0.247147 0.352054 0.821947
O O12 0.116925 0.288040 0.994153
O O13 0.690846 0.727690 0.333234
#
# Coordination Sequence:
#
# PCOD9279527 Si02
#       6
#     8   8   8   8   8   8
#     4   9  20  40  62  90 120 164 198 251 308 366
#     4  10  21  35  64  94 116 153 211 250 291 365
#     4   9  20  40  60  87 123 165 200 238 313 372
#     4   9  19  36  58  85 123 162 202 249 299 363
#     4  11  22  38  63  95 121 152 213 260 299 345
#     4  10  21  36  59  91 125 162 199 253 311 357
#
# _framework density 24.922385999999999
#
# number of rings (size 3 to 8) (size 9 to 14) (size 15 to 20)
#    0.000    2.333    0.000    3.500    7.000    0.000 
#    0.000    3.333    0.000    6.000    0.000    0.000 
#    0.000    0.000    0.000    0.000    0.000    0.000 
#
# Total GULP energy -134121.181867 kJ/mol
# GULP energy per Si atom -5588.382578 kJ/mol
# Density = 2.486566 g / cm^3
# Si number density = 24.922386 Si / 1000 Ang^3
#
#
#
# Elastic Constant Matrix: (Units=GPa)
#
#
# Indices 1 2 3 4 5 6 
#
# 1 161.4782 16.6423 31.2614 0.0000 9.4208 0.0000
# 2 16.6423 17.2385 12.6389 0.0000 10.1541 0.0000
# 3 31.2614 12.6389 171.2147 0.0000 45.5919 0.0000
# 4 0.0000 0.0000 0.0000 20.1919 0.0000 6.5766
# 5 9.4208 10.1541 45.5919 0.0000 37.0235 0.0000
# 6 0.0000 0.0000 0.0000 6.5766 0.0000 19.6087
#
#
#
# Elastic Compliance Matrix: (Units=1/GPa)
#
#
# Indices 1 2 3 4 5 6 
#
# 1 0.007038 -0.006834 -0.001194 0.000000 0.001554 0.000000
# 2 -0.006834 0.075824 0.001079 0.000000 -0.020385 0.000000
# 3 -0.001194 0.001079 0.008893 0.000000 -0.010943 0.000000
# 4 0.000000 0.000000 0.000000 0.055598 0.000000 -0.018647
# 5 0.001554 -0.020385 -0.010943 0.000000 0.045681 0.000000
# 6 0.000000 0.000000 0.000000 -0.018647 0.000000 0.057252
#
#
# Mechanical properties :
#
#
# Convention : Reuss Voigt Hill
#
# Bulk Modulus (GPa) = 12.84434 52.33517 32.58975
# Shear Modulus (GPa) = 17.23320 34.65740 25.94530
#
# Velocity S-wave (km/s) = 2.63244 3.73314 3.23002
# Velocity P-wave (km/s) = 3.79534 6.29497 5.19765
#
# Compressibility (1/GPa) = 0.07785533
#
# Stress axis : x y z
#
# Youngs Moduli (GPa) = 142.09238 13.18841 112.44735
#
# Poissons Ratio (x) = 0.09013 0.13431
# Poissons Ratio (y) = 0.97108 -0.12131
# Poissons Ratio (z) = 0.16972 -0.01423
#
# Static dielectric constant tensor:
#      x y z
#    x 2.083310 0.000000 -0.002890 
#    y 0.000000 2.054230 0.000000 
#    z -0.002890 0.000000 1.986140 
# 
# From -- ./inp_files/238252.got.cif
#   From: 2010.05.17/outbox.cif.g08.bks.cpg/sg15_120_cif.got.tgz:238252.got - 2010.06.03 18:47:42.
