data_PCOD9279738
_publ_section_title
;
Structure prediction by ZEFSAII (Michael W. Deem and Ramdas Pophale) SiO2 
 PCOD9279738
Probable space group: C 2/C
;
_chemical_formula_sum "Si O2"
_cell_formula_units_Z 48
_cell_length_a 12.657141
_cell_length_b 13.202222
_cell_length_c 23.166011
_cell_angle_alpha 90.000000
_cell_angle_beta 146.887869
_cell_angle_gamma 90.000000
_cell_volume 2114.699508
_symmetry_space_group_name_H-M "C 2/C"
_symmetry_group_IT_number 15
_symmetry_cell_setting 'monoclinic'
loop_
_space_group_symop_operation_xyz
x,y,z
-x,y,1/2-z
-x,-y,-z
x,-y,1/2+z
1/2+x,1/2+y,z
1/2-x,1/2+y,1/2-z
1/2-x,1/2-y,-z
1/2+x,1/2-y,1/2+z
loop_
_atom_site_type_symbol
_atom_site_label
_atom_site_fract_x
_atom_site_fract_y
_atom_site_fract_z
Si Si1 0.265866 0.900604 0.766296
Si Si2 0.410670 0.309209 0.919973
Si Si3 0.236141 0.020366 0.436307
Si Si4 0.698637 0.281345 0.854781
Si Si5 0.811296 0.413764 0.356055
Si Si6 0.210296 0.643577 0.447936
O O1 0.115770 0.878671 0.647105
O O2 0.266195 0.834413 0.825957
O O3 0.481071 0.879683 0.840394
O O4 0.226976 0.015858 0.768135
O O5 0.310586 0.205394 0.851977
O O6 0.302646 0.347280 0.927337
O O7 0.629727 0.282435 0.038683
O O8 0.143784 0.126431 0.373430
O O9 0.463381 0.052635 0.540771
O O10 0.217736 0.945331 0.373601
O O11 0.203612 0.951672 0.477070
O O12 0.500000 0.223696 0.750000
O O13 0.250000 0.750000 0.500000
#
# Coordination Sequence:
#
# PCOD9279738 Si02
#       6
#     8   8   8   8   8   8
#     4  10  21  36  57  92 132 166 211 265 327 388
#     4  11  20  35  63  93 127 172 212 264 326 378
#     4   8  15  31  55  81 119 160 203 256 317 371
#     4  10  21  39  59  85 121 178 226 260 300 388
#     4   8  15  32  54  81 125 165 197 252 317 373
#     4  11  17  33  58  96 131 153 199 278 330 382
#
# _framework density 22.698260000000001
#
# number of rings (size 3 to 8) (size 9 to 14) (size 15 to 20)
#    0.000    2.333    3.333    2.500    0.000    0.667 
#    6.000    0.000    0.000   10.000    0.000    2.333 
#    0.000    0.000    0.000    0.000    0.000    0.000 
#
# Total GULP energy -134089.248958 kJ/mol
# GULP energy per Si atom -5587.052040 kJ/mol
# Density = 2.264660 g / cm^3
# Si number density = 22.698260 Si / 1000 Ang^3
#
#
#
# Elastic Constant Matrix: (Units=GPa)
#
#
# Indices 1 2 3 4 5 6 
#
# 1 112.6399 59.0621 64.9329 0.0000 -24.3284 0.0000
# 2 59.0621 73.9985 59.9007 0.0001 -17.0880 0.0000
# 3 64.9329 59.9007 154.6444 0.0003 -15.3365 0.0000
# 4 0.0000 0.0001 0.0003 43.0938 0.0001 -5.8775
# 5 -24.3284 -17.0880 -15.3365 0.0001 34.3591 0.0000
# 6 0.0000 0.0000 0.0000 -5.8775 0.0000 22.4052
#
#
#
# Elastic Compliance Matrix: (Units=1/GPa)
#
#
# Indices 1 2 3 4 5 6 
#
# 1 0.016907 -0.010012 -0.002645 0.000000 0.005812 0.000000
# 2 -0.010012 0.027199 -0.005957 0.000000 0.003780 0.000000
# 3 -0.002645 -0.005957 0.009840 0.000000 -0.000443 0.000000
# 4 0.000000 0.000000 0.000000 0.024066 0.000000 0.006313
# 5 0.005812 0.003780 -0.000443 0.000000 0.034901 0.000000
# 6 0.000000 0.000000 0.000000 0.006313 0.000000 0.046289
#
#
# Mechanical properties :
#
#
# Convention : Reuss Voigt Hill
#
# Bulk Modulus (GPa) = 59.80737 78.78601 69.29669
# Shear Modulus (GPa) = 24.75204 30.46410 27.60807
#
# Velocity S-wave (km/s) = 3.30583 3.66749 3.49134
# Velocity P-wave (km/s) = 6.40136 7.26082 6.84459
#
# Compressibility (1/GPa) = 0.01672035
#
# Stress axis : x y z
#
# Youngs Moduli (GPa) = 59.14637 36.76545 101.62117
#
# Poissons Ratio (x) = 0.36808 0.26877
# Poissons Ratio (y) = 0.59215 0.60536
# Poissons Ratio (z) = 0.15643 0.21901
#
# Static dielectric constant tensor:
#      x y z
#    x 1.869130 0.000000 0.081670 
#    y 0.000000 1.829240 0.000000 
#    z 0.081670 0.000000 1.907360 
# 
# From -- ./inp_files/239019.got.cif
#   From: 2010.05.17/outbox.cif.g08.bks.cpg/sg15_120_cif.got.tgz:239019.got - 2010.06.03 18:47:42.
