data_PCOD9279577
_publ_section_title
;
Structure prediction by ZEFSAII (Michael W. Deem and Ramdas Pophale) SiO2 
 PCOD9279577
Probable space group: C 2/C
;
_chemical_formula_sum "Si O2"
_cell_formula_units_Z 60
_cell_length_a 15.329961
_cell_length_b 24.307677
_cell_length_c 8.480811
_cell_angle_alpha 90.000000
_cell_angle_beta 74.325531
_cell_angle_gamma 90.000000
_cell_volume 3042.730515
_symmetry_space_group_name_H-M "C 2/C"
_symmetry_group_IT_number 15
_symmetry_cell_setting 'monoclinic'
loop_
_space_group_symop_operation_xyz
x,y,z
-x,y,1/2-z
-x,-y,-z
x,-y,1/2+z
1/2+x,1/2+y,z
1/2-x,1/2+y,1/2-z
1/2-x,1/2-y,-z
1/2+x,1/2-y,1/2+z
loop_
_atom_site_type_symbol
_atom_site_label
_atom_site_fract_x
_atom_site_fract_y
_atom_site_fract_z
Si Si1 0.055759 0.868964 0.379932
Si Si2 0.252922 0.832228 0.827862
Si Si3 0.902913 0.235922 0.232731
Si Si4 0.176349 0.334237 0.352233
Si Si5 0.500000 0.584162 0.250000
Si Si6 0.161549 0.765957 0.385540
Si Si7 0.242868 0.935222 0.313847
Si Si8 0.205098 0.053166 0.192946
O O1 0.016110 0.885423 0.572133
O O2 0.077594 0.803616 0.369549
O O3 0.148829 0.903705 0.319913
O O4 0.000000 0.882244 0.250000
O O5 0.154511 0.802477 0.857458
O O6 0.321872 0.794675 0.691427
O O7 0.235775 0.893893 0.778019
O O8 0.292025 0.831231 0.983685
O O9 0.908695 0.295952 0.149304
O O10 0.846286 0.234712 0.423200
O O11 0.000000 0.218688 0.250000
O O12 0.254386 0.302087 0.217092
O O13 0.178263 0.396673 0.293778
O O14 0.595174 0.552610 0.230242
O O15 0.245455 0.938231 0.500186
O O16 0.238220 0.996092 0.247895
#
# Coordination Sequence:
#
# PCOD9279577 Si02
#       8
#     8   8   8   8   4   8   8   8
#     4  10  23  36  56  79 124 157 197 240 294 349
#     4  11  22  38  57  81 117 158 195 240 290 356
#     4  11  22  35  59  85 115 150 194 245 298 346
#     4  10  21  40  57  80 116 155 198 242 292 355
#     4  10  24  36  52  86 122 160 192 242 294 348
#     4  10  21  36  53  80 110 153 196 237 289 345
#     4  10  22  38  55  86 107 157 195 237 288 346
#     4  11  23  36  59  80 117 149 198 237 289 348
#
# _framework density 19.719128999999999
#
# number of rings (size 3 to 8) (size 9 to 14) (size 15 to 20)
#    0.000    1.600    0.000    7.200   10.267    2.133 
#    0.000    0.000    0.000    0.000    0.000    9.333 
#    0.000    0.000    0.000    0.000    0.000    0.000 
#
# Total GULP energy -167347.392876 kJ/mol
# GULP energy per Si atom -5578.246429 kJ/mol
# Density = 1.967425 g / cm^3
# Si number density = 19.719129 Si / 1000 Ang^3
#
#
#
# Elastic Constant Matrix: (Units=GPa)
#
#
# Indices 1 2 3 4 5 6 
#
# 1 -1.2512 5.8914 26.3906 0.0000 14.9913 0.0000
# 2 5.8914 140.2051 28.2912 0.0000 15.2943 0.0000
# 3 26.3906 28.2912 71.6893 0.0000 18.6896 0.0000
# 4 0.0000 0.0000 0.0000 32.1084 0.0000 7.9250
# 5 14.9913 15.2943 18.6896 0.0000 22.5426 0.0000
# 6 0.0000 0.0000 0.0000 7.9250 0.0000 7.0276
#
#
#
# Elastic Compliance Matrix: (Units=1/GPa)
#
#
# Indices 1 2 3 4 5 6 
#
# 1 -0.065703 -0.004271 0.017511 0.000000 0.032074 0.000000
# 2 -0.004271 0.007691 -0.001075 0.000000 -0.001486 0.000000
# 3 0.017511 -0.001075 0.013744 0.000000 -0.022310 0.000000
# 4 0.000000 0.000000 0.000000 0.043157 0.000000 -0.048667
# 5 0.032074 -0.001486 -0.022310 0.000000 0.042535 0.000000
# 6 0.000000 0.000000 0.000000 -0.048667 0.000000 0.197179
#
#
# Mechanical properties :
#
#
# Convention : Reuss Voigt Hill
#
# Bulk Modulus (GPa) = -50.14930 36.86552 -6.64189
# Shear Modulus (GPa) = 24.08169 22.34037 23.21103
#
# Velocity S-wave (km/s) = 3.49841 3.36955 3.43458
# Velocity P-wave (km/s) = 3.02796 5.82017 3.51467
#
# Compressibility (1/GPa) = -0.01994046
#
# Stress axis : x y z
#
# Youngs Moduli (GPa) = -15.21997 130.02255 72.76147
#
# Poissons Ratio (x) = 0.55538 -1.27411
# Poissons Ratio (y) = -0.06501 0.07824
# Poissons Ratio (z) = 0.26651 0.13982
#
# Static dielectric constant tensor:
#      x y z
#    x 1.778440 0.000000 -0.035020 
#    y 0.000000 1.753770 0.000000 
#    z -0.035020 0.000000 1.692360 
# 
# From -- ./inp_files/43182.got.cif
#   From: 2010.05.17/outbox.cif.g08.bks.cpg/sg15_22_cif.got.tgz:43182.got - 2010.06.03 18:47:42.
