data_PCOD9279717
_publ_section_title
;
Structure prediction by ZEFSAII (Michael W. Deem and Ramdas Pophale) SiO2 
 PCOD9279717
Probable space group: C 2/C
;
_chemical_formula_sum "Si O2"
_cell_formula_units_Z 40
_cell_length_a 11.139054
_cell_length_b 20.891770
_cell_length_c 9.032289
_cell_angle_alpha 90.000000
_cell_angle_beta 92.587993
_cell_angle_gamma 90.000000
_cell_volume 2099.801238
_symmetry_space_group_name_H-M "C 2/C"
_symmetry_group_IT_number 15
_symmetry_cell_setting 'monoclinic'
loop_
_space_group_symop_operation_xyz
x,y,z
-x,y,1/2-z
-x,-y,-z
x,-y,1/2+z
1/2+x,1/2+y,z
1/2-x,1/2+y,1/2-z
1/2-x,1/2-y,-z
1/2+x,1/2-y,1/2+z
loop_
_atom_site_type_symbol
_atom_site_label
_atom_site_fract_x
_atom_site_fract_y
_atom_site_fract_z
Si Si1 0.350126 0.931286 0.070585
Si Si2 0.000000 0.764651 0.250000
Si Si3 0.645818 0.200106 0.510916
Si Si4 0.000000 0.767134 0.750000
Si Si5 0.634941 0.065178 0.576266
Si Si6 0.829300 0.814012 0.487642
O O1 0.345025 0.937432 0.247453
O O2 0.491878 0.921730 0.040805
O O3 0.260585 0.874551 0.017128
O O4 0.323048 0.999663 0.994993
O O5 0.057742 0.717586 0.373362
O O6 0.095525 0.806892 0.161712
O O7 0.750000 0.250000 0.500000
O O8 0.582530 0.218916 0.660614
O O9 0.694199 0.128543 0.513791
O O10 0.923069 0.809400 0.630040
O O11 0.750000 0.750000 0.500000
#
# Coordination Sequence:
#
# PCOD9279717 Si02
#       6
#     8   4   8   4   8   8
#     4  10  21  37  58  83 116 150 183 242 299 340
#     4  10  22  34  58  90 114 150 198 232 286 360
#     4  11  21  36  58  83 113 147 187 239 285 335
#     4  10  22  36  58  90 118 150 198 236 286 358
#     4  10  21  36  57  87 113 143 193 237 292 355
#     4  11  21  38  61  87 122 157 193 244 295 344
#
# _framework density 19.049423000000001
#
# number of rings (size 3 to 8) (size 9 to 14) (size 15 to 20)
#    0.000    1.600    0.000    7.200    0.000    6.400 
#    0.000    0.000    0.000   20.400    0.000    0.000 
#    0.000    0.000    0.000    0.000    0.000    0.000 
#
# Total GULP energy -111684.840211 kJ/mol
# GULP energy per Si atom -5584.242011 kJ/mol
# Density = 1.900607 g / cm^3
# Si number density = 19.049423 Si / 1000 Ang^3
#
#
#
# Elastic Constant Matrix: (Units=GPa)
#
#
# Indices 1 2 3 4 5 6 
#
# 1 66.5089 59.1093 35.7539 0.0000 -8.8445 0.0000
# 2 59.1093 191.6127 52.6135 0.0000 1.7311 0.0000
# 3 35.7539 52.6135 82.2754 0.0000 -2.1611 0.0000
# 4 0.0000 0.0000 0.0000 19.6462 0.0000 -0.3275
# 5 -8.8445 1.7311 -2.1611 0.0000 23.9043 0.0000
# 6 0.0000 0.0000 0.0000 -0.3275 0.0000 37.1777
#
#
#
# Elastic Compliance Matrix: (Units=1/GPa)
#
#
# Indices 1 2 3 4 5 6 
#
# 1 0.025296 -0.005985 -0.006925 0.000000 0.009167 0.000000
# 2 -0.005985 0.007763 -0.002442 0.000000 -0.002997 0.000000
# 3 -0.006925 -0.002442 0.016702 0.000000 -0.000875 0.000000
# 4 0.000000 0.000000 0.000000 0.050908 0.000000 0.000448
# 5 0.009167 -0.002997 -0.000875 0.000000 0.045363 0.000000
# 6 0.000000 0.000000 0.000000 0.000448 0.000000 0.026902
#
#
# Mechanical properties :
#
#
# Convention : Reuss Voigt Hill
#
# Bulk Modulus (GPa) = 52.47216 70.59450 61.53333
# Shear Modulus (GPa) = 23.81066 29.00700 26.40883
#
# Velocity S-wave (km/s) = 3.53929 3.90644 3.72739
# Velocity P-wave (km/s) = 6.65636 7.58196 7.13419
#
# Compressibility (1/GPa) = 0.01905772
#
# Stress axis : x y z
#
# Youngs Moduli (GPa) = 39.53149 128.82114 59.87219
#
# Poissons Ratio (x) = 0.77097 0.41461
# Poissons Ratio (y) = 0.23659 0.14621
# Poissons Ratio (z) = 0.27375 0.31458
#
# Static dielectric constant tensor:
#      x y z
#    x 1.696550 0.000000 0.000720 
#    y 0.000000 1.633440 0.000000 
#    z 0.000720 0.000000 1.663070 
# 
# From -- ./inp_files/29173.got.cif
#   From: 2010.05.17/outbox.cif.g08.bks.cpg/sg15_15_cif.got.tgz:29173.got - 2010.06.03 18:47:42.
