data_PCOD9279809
_publ_section_title
;
Structure prediction by ZEFSAII (Michael W. Deem and Ramdas Pophale) SiO2 
 PCOD9279809
Probable space group: C 2/C
;
_chemical_formula_sum "Si O2"
_cell_formula_units_Z 48
_cell_length_a 8.337296
_cell_length_b 31.890490
_cell_length_c 11.981452
_cell_angle_alpha 90.000000
_cell_angle_beta 47.536203
_cell_angle_gamma 90.000000
_cell_volume 2350.055095
_symmetry_space_group_name_H-M "C 2/C"
_symmetry_group_IT_number 15
_symmetry_cell_setting 'monoclinic'
loop_
_space_group_symop_operation_xyz
x,y,z
-x,y,1/2-z
-x,-y,-z
x,-y,1/2+z
1/2+x,1/2+y,z
1/2-x,1/2+y,1/2-z
1/2-x,1/2-y,-z
1/2+x,1/2-y,1/2+z
loop_
_atom_site_type_symbol
_atom_site_label
_atom_site_fract_x
_atom_site_fract_y
_atom_site_fract_z
Si Si1 0.355825 0.370716 0.054223
Si Si2 0.645892 0.041291 0.921507
Si Si3 0.475413 0.456572 0.073741
Si Si4 0.383622 0.277060 0.030564
Si Si5 0.931682 0.629476 0.599442
Si Si6 0.254931 0.214437 0.657753
O O1 0.479162 0.415296 0.992962
O O2 0.450865 0.325534 0.975336
O O3 0.280973 0.370717 0.219524
O O4 0.139089 0.370729 0.081880
O O5 0.750084 0.041687 0.748734
O O6 0.540531 0.087174 0.982892
O O7 0.835440 0.042877 0.923444
O O8 0.500000 0.000000 0.000000
O O9 0.500000 0.500000 0.000000
O O10 0.237504 0.280766 0.210577
O O11 0.250000 0.250000 0.000000
O O12 0.605498 0.252854 0.952829
O O13 0.887099 0.672886 0.558150
O O14 0.000000 0.212465 0.750000
#
# Coordination Sequence:
#
# PCOD9279809 Si02
#       6
#     8   8   8   8   8   8
#     4   9  18  34  58  84 111 153 200 234 283 355
#     4  10  21  36  59  89 116 147 194 245 295 345
#     4  10  21  37  61  85 117 154 192 239 293 356
#     4  11  21  39  61  87 118 157 203 245 299 357
#     4   9  18  33  57  85 112 150 195 238 286 351
#     4  11  23  37  60  88 121 156 198 250 303 356
#
# _framework density 20.425052999999998
#
# number of rings (size 3 to 8) (size 9 to 14) (size 15 to 20)
#    0.000    2.000    1.667    2.000    7.000    2.000 
#    0.000    1.667    3.667    0.000    0.000    0.000 
#    0.000    0.000    0.000    0.000    0.000    0.000 
#
# Total GULP energy -133636.737289 kJ/mol
# GULP energy per Si atom -5568.197387 kJ/mol
# Density = 2.037856 g / cm^3
# Si number density = 20.425053 Si / 1000 Ang^3
#
#
#
# Elastic Constant Matrix: (Units=GPa)
#
#
# Indices 1 2 3 4 5 6 
#
# 1 65.9866 54.1741 9.8330 0.0000 -13.3353 0.0000
# 2 54.1741 243.7221 39.2852 0.0000 -17.0474 0.0000
# 3 9.8330 39.2852 21.1892 0.0000 -7.2712 0.0000
# 4 0.0000 0.0000 0.0000 32.1334 0.0000 -5.0319
# 5 -13.3353 -17.0474 -7.2712 0.0000 22.0829 0.0000
# 6 0.0000 0.0000 0.0000 -5.0319 0.0000 34.6836
#
#
#
# Elastic Compliance Matrix: (Units=1/GPa)
#
#
# Indices 1 2 3 4 5 6 
#
# 1 0.020196 -0.004049 0.001406 0.000000 0.009533 0.000000
# 2 -0.004049 0.006686 -0.010806 0.000000 -0.000842 0.000000
# 3 0.001406 -0.010806 0.072157 0.000000 0.016267 0.000000
# 4 0.000000 0.000000 0.000000 0.031844 0.000000 0.004620
# 5 0.009533 -0.000842 0.016267 0.000000 0.055747 0.000000
# 6 0.000000 0.000000 0.000000 0.004620 0.000000 0.029502
#
#
# Mechanical properties :
#
#
# Convention : Reuss Voigt Hill
#
# Bulk Modulus (GPa) = 13.86153 59.72026 36.79089
# Shear Modulus (GPa) = 18.72124 32.95368 25.83746
#
# Velocity S-wave (km/s) = 3.03080 4.02107 3.56053
# Velocity P-wave (km/s) = 4.36450 7.13168 5.91226
#
# Compressibility (1/GPa) = 0.07214212
#
# Stress axis : x y z
#
# Youngs Moduli (GPa) = 49.51547 149.56830 13.85859
#
# Poissons Ratio (x) = 0.60559 -0.01949
# Poissons Ratio (y) = 0.20048 0.14975
# Poissons Ratio (z) = -0.06963 1.61619
#
# Static dielectric constant tensor:
#      x y z
#    x 2.113860 0.000000 -0.038490 
#    y 0.000000 1.829960 0.000000 
#    z -0.038490 0.000000 1.765160 
# 
# From -- ./inp_files/139356.got.cif
#   From: 2010.05.17/outbox.cif.g08.bks.cpg/sg15_70_cif.got.tgz:139356.got - 2010.06.03 18:47:42.
