data_PCOD9279344
_publ_section_title
;
Structure prediction by ZEFSAII (Michael W. Deem and Ramdas Pophale) SiO2 
 PCOD9279344
Probable space group: C 2/C
;
_chemical_formula_sum "Si O2"
_cell_formula_units_Z 56
_cell_length_a 23.143238
_cell_length_b 5.254956
_cell_length_c 20.054391
_cell_angle_alpha 90.000000
_cell_angle_beta 118.205700
_cell_angle_gamma 90.000000
_cell_volume 2149.339330
_symmetry_space_group_name_H-M "C 2/C"
_symmetry_group_IT_number 15
_symmetry_cell_setting 'monoclinic'
loop_
_space_group_symop_operation_xyz
x,y,z
-x,y,1/2-z
-x,-y,-z
x,-y,1/2+z
1/2+x,1/2+y,z
1/2-x,1/2+y,1/2-z
1/2-x,1/2-y,-z
1/2+x,1/2-y,1/2+z
loop_
_atom_site_type_symbol
_atom_site_label
_atom_site_fract_x
_atom_site_fract_y
_atom_site_fract_z
Si Si1 0.326330 0.007662 0.093673
Si Si2 0.048176 0.760740 0.569718
Si Si3 0.830277 0.478856 0.824588
Si Si4 0.768221 0.980322 0.850843
Si Si5 0.481988 0.371798 0.338927
Si Si6 0.102968 0.016022 0.329719
Si Si7 0.573659 0.017372 0.455402
O O1 0.348386 0.299325 0.116945
O O2 0.356069 0.950284 0.036420
O O3 0.253618 0.995270 0.084147
O O4 0.362709 0.787004 0.156314
O O5 0.093963 0.560924 0.635154
O O6 0.076050 0.747018 0.510373
O O7 0.971704 0.680355 0.529896
O O8 0.048600 0.019230 0.610660
O O9 0.813142 0.213011 0.850544
O O10 0.795170 0.485785 0.733597
O O11 0.798474 0.707591 0.850189
O O12 0.540711 0.553920 0.344276
O O13 0.426477 0.394215 0.253338
O O14 0.525080 0.118839 0.370840
#
# Coordination Sequence:
#
# PCOD9279344 Si02
#       7
#     8   8   8   8   8   8   8
#     4  11  21  42  61  93 127 164 202 268 313 367
#     4  11  22  41  62  88 130 172 206 255 305 385
#     4  10  23  40  63  92 118 165 208 256 321 368
#     4  10  22  41  63  89 123 155 212 269 309 367
#     4  10  21  35  57  91 127 160 205 251 310 380
#     4  10  22  33  62  92 127 158 201 252 324 371
#     4  10  24  39  61  93 128 168 213 247 312 381
#
# _framework density 26.054516
#
# number of rings (size 3 to 8) (size 9 to 14) (size 15 to 20)
#    0.000    1.714    1.429    2.143    6.000    2.286 
#    0.000    1.429    0.000    0.000    0.000    0.000 
#    0.000    0.000    0.000    0.000    0.000    0.000 
#
# Total GULP energy -156455.654326 kJ/mol
# GULP energy per Si atom -5587.701940 kJ/mol
# Density = 2.599521 g / cm^3
# Si number density = 26.054516 Si / 1000 Ang^3
#
#
#
# Elastic Constant Matrix: (Units=GPa)
#
#
# Indices 1 2 3 4 5 6 
#
# 1 130.2019 30.8008 21.2057 0.0000 -27.9154 -0.0003
# 2 30.8008 102.5774 11.9150 -0.0003 -5.8306 0.0014
# 3 21.2057 11.9150 63.9270 0.0000 -14.0839 -0.0002
# 4 0.0000 -0.0003 0.0000 13.5387 -0.0001 -3.1517
# 5 -27.9154 -5.8306 -14.0839 -0.0001 31.2765 0.0001
# 6 -0.0003 0.0014 -0.0002 -3.1517 0.0001 37.6499
#
#
#
# Elastic Compliance Matrix: (Units=1/GPa)
#
#
# Indices 1 2 3 4 5 6 
#
# 1 0.010190 -0.002467 -0.001130 0.000000 0.008126 0.000000
# 2 -0.002467 0.010598 -0.001340 0.000000 -0.000829 0.000000
# 3 -0.001130 -0.001340 0.017751 0.000000 0.006735 0.000000
# 4 0.000000 0.000000 0.000000 0.075330 0.000000 0.006306
# 5 0.008126 -0.000829 0.006735 0.000000 0.042104 0.000000
# 6 0.000000 0.000000 0.000000 0.006306 0.000000 0.027088
#
#
# Mechanical properties :
#
#
# Convention : Reuss Voigt Hill
#
# Bulk Modulus (GPa) = 34.88420 47.17215 41.02817
# Shear Modulus (GPa) = 24.69251 32.01202 28.35226
#
# Velocity S-wave (km/s) = 3.08185 3.50902 3.30235
# Velocity P-wave (km/s) = 5.10703 5.87895 5.50654
#
# Compressibility (1/GPa) = 0.02866627
#
# Stress axis : x y z
#
# Youngs Moduli (GPa) = 98.13277 94.35850 56.33409
#
# Poissons Ratio (x) = 0.23275 0.06367
# Poissons Ratio (y) = 0.24206 0.07547
# Poissons Ratio (z) = 0.11091 0.12641
#
# Static dielectric constant tensor:
#      x y z
#    x 2.083080 0.000000 0.004250 
#    y 0.000000 2.058770 0.000000 
#    z 0.004250 0.000000 2.136180 
# 
# From -- ./inp_files/254395.got.cif
#   From: 2010.05.17/outbox.cif.g08.bks.cpg/sg15_128_cif.got.tgz:254395.got - 2010.06.03 18:47:42.
