data_PCOD9279312
_publ_section_title
;
Structure prediction by ZEFSAII (Michael W. Deem and Ramdas Pophale) SiO2 
 PCOD9279312
Probable space group: C 2/C
;
_chemical_formula_sum "Si O2"
_cell_formula_units_Z 56
_cell_length_a 16.254090
_cell_length_b 9.566803
_cell_length_c 19.051859
_cell_angle_alpha 90.000000
_cell_angle_beta 134.483344
_cell_angle_gamma 90.000000
_cell_volume 2113.649316
_symmetry_space_group_name_H-M "C 2/C"
_symmetry_group_IT_number 15
_symmetry_cell_setting 'monoclinic'
loop_
_space_group_symop_operation_xyz
x,y,z
-x,y,1/2-z
-x,-y,-z
x,-y,1/2+z
1/2+x,1/2+y,z
1/2-x,1/2+y,1/2-z
1/2-x,1/2-y,-z
1/2+x,1/2-y,1/2+z
loop_
_atom_site_type_symbol
_atom_site_label
_atom_site_fract_x
_atom_site_fract_y
_atom_site_fract_z
Si Si1 0.148073 0.613087 0.211676
Si Si2 0.418098 0.120011 0.920245
Si Si3 0.979170 0.086285 0.397009
Si Si4 0.925791 0.319994 0.641623
Si Si5 0.736422 0.569303 0.930414
Si Si6 0.817684 0.807890 0.686422
Si Si7 0.301305 0.522998 0.898143
O O1 0.121268 0.451354 0.176006
O O2 0.226432 0.667783 0.195747
O O3 0.220055 0.605599 0.326684
O O4 0.028369 0.693206 0.145987
O O5 0.475063 0.268448 0.939494
O O6 0.311317 0.124398 0.908766
O O7 0.500000 0.000000 0.000000
O O8 0.935030 0.138113 0.294644
O O9 0.886799 0.983513 0.379967
O O10 0.105533 0.021900 0.483633
O O11 0.823992 0.411572 0.547626
O O12 0.000000 0.381407 0.750000
O O13 0.872278 0.170513 0.627052
O O14 0.706781 0.412933 0.891611
O O15 0.783005 0.653875 0.641324
#
# Coordination Sequence:
#
# PCOD9279312 Si02
#       7
#     8   8   8   8   8   8   8
#     4  10  21  37  64 102 137 189 241 307 376 449
#     4  11  19  38  69 104 142 183 240 318 381 431
#     4  10  21  35  57 109 149 180 231 320 388 441
#     4  11  25  43  65 101 140 194 251 307 371 467
#     4  10  24  43  65 102 141 193 247 311 384 452
#     4  10  21  39  69 100 146 182 246 318 388 436
#     4  10  21  35  59 102 143 188 230 307 382 443
#
# _framework density 26.494461000000001
#
# number of rings (size 3 to 8) (size 9 to 14) (size 15 to 20)
#    0.000    1.714    2.857    1.714    4.000    0.000 
#    2.571    0.000    0.000    1.714    0.000    0.000 
#    0.000    0.000    0.000    0.000    0.000    0.000 
#
# Total GULP energy -156705.396268 kJ/mol
# GULP energy per Si atom -5596.621295 kJ/mol
# Density = 2.643416 g / cm^3
# Si number density = 26.494461 Si / 1000 Ang^3
#
#
#
# Elastic Constant Matrix: (Units=GPa)
#
#
# Indices 1 2 3 4 5 6 
#
# 1 96.1102 26.6310 27.7433 0.0000 19.0333 0.0000
# 2 26.6310 130.9668 44.7389 0.0000 -4.8179 0.0000
# 3 27.7433 44.7389 158.9768 0.0000 9.4852 0.0000
# 4 0.0000 0.0000 0.0000 33.0015 0.0000 5.5143
# 5 19.0333 -4.8179 9.4852 0.0000 47.0041 0.0000
# 6 0.0000 0.0000 0.0000 5.5143 0.0000 37.4206
#
#
#
# Elastic Compliance Matrix: (Units=1/GPa)
#
#
# Indices 1 2 3 4 5 6 
#
# 1 0.012380 -0.002285 -0.001219 0.000000 -0.005001 0.000000
# 2 -0.002285 0.008956 -0.002259 0.000000 0.002299 0.000000
# 3 -0.001219 -0.002259 0.007210 0.000000 -0.001193 0.000000
# 4 0.000000 0.000000 0.000000 0.031067 0.000000 -0.004578
# 5 -0.005001 0.002299 -0.001193 0.000000 0.023776 0.000000
# 6 0.000000 0.000000 0.000000 -0.004578 0.000000 0.027398
#
#
# Mechanical properties :
#
#
# Convention : Reuss Voigt Hill
#
# Bulk Modulus (GPa) = 58.75249 64.92003 61.83626
# Shear Modulus (GPa) = 39.06661 42.61462 40.84061
#
# Velocity S-wave (km/s) = 3.84411 4.01488 3.93042
# Velocity P-wave (km/s) = 6.47507 6.78593 6.63232
#
# Compressibility (1/GPa) = 0.01702055
#
# Stress axis : x y z
#
# Youngs Moduli (GPa) = 80.77412 111.65222 138.69949
#
# Poissons Ratio (x) = 0.25512 0.16908
# Poissons Ratio (y) = 0.18457 0.31331
# Poissons Ratio (z) = 0.09847 0.25221
#
# Static dielectric constant tensor:
#      x y z
#    x 2.198130 0.000000 -0.047340 
#    y 0.000000 2.013470 0.000000 
#    z -0.047340 0.000000 2.166900 
# 
# From -- ./inp_files/273245.got.cif
#   From: 2010.05.17/outbox.cif.g08.bks.cpg/sg15_137_cif.got.tgz:273245.got - 2010.06.03 18:47:42.
