data_PCOD9279853
_publ_section_title
;
Structure prediction by ZEFSAII (Michael W. Deem and Ramdas Pophale) SiO2 
 PCOD9279853
Probable space group: C 2/C
;
_chemical_formula_sum "Si O2"
_cell_formula_units_Z 28
_cell_length_a 8.589074
_cell_length_b 14.476779
_cell_length_c 14.222232
_cell_angle_alpha 90.000000
_cell_angle_beta 41.362531
_cell_angle_gamma 90.000000
_cell_volume 1168.611092
_symmetry_space_group_name_H-M "C 2/C"
_symmetry_group_IT_number 15
_symmetry_cell_setting 'monoclinic'
loop_
_space_group_symop_operation_xyz
x,y,z
-x,y,1/2-z
-x,-y,-z
x,-y,1/2+z
1/2+x,1/2+y,z
1/2-x,1/2+y,1/2-z
1/2-x,1/2-y,-z
1/2+x,1/2-y,1/2+z
loop_
_atom_site_type_symbol
_atom_site_label
_atom_site_fract_x
_atom_site_fract_y
_atom_site_fract_z
Si Si1 0.270501 0.525358 0.166220
Si Si2 0.130532 0.316012 0.979788
Si Si3 0.315101 0.757858 0.754945
Si Si4 0.500000 0.467163 0.750000
O O1 0.265658 0.637288 0.181509
O O2 0.355430 0.488516 0.230005
O O3 0.000000 0.502032 0.250000
O O4 0.500000 0.500000 0.000000
O O5 0.105576 0.268254 0.888649
O O6 0.295915 0.403708 0.890153
O O7 0.250000 0.250000 0.000000
O O8 0.880347 0.319459 0.141796
O O9 0.500000 0.734344 0.750000
#
# Coordination Sequence:
#
# PCOD9279853 Si02
#       4
#     8   8   8   4
#     4  10  22  42  63  86 121 168 209 250 300 361
#     4  11  17  35  59  91 116 156 192 242 321 360
#     4  10  21  36  60  87 127 155 195 255 307 366
#     4  10  22  40  66  86 130 154 196 266 302 362
#
# _framework density 23.960066000000001
#
# number of rings (size 3 to 8) (size 9 to 14) (size 15 to 20)
#    0.000    1.714    5.714    0.857    0.000    1.143 
#    7.714    0.000    3.143    0.000    0.000    0.000 
#    0.000    0.000    0.000    0.000    0.000    0.000 
#
# Total GULP energy -78001.839525 kJ/mol
# GULP energy per Si atom -5571.559966 kJ/mol
# Density = 2.390553 g / cm^3
# Si number density = 23.960066 Si / 1000 Ang^3
#
#
#
# Elastic Constant Matrix: (Units=GPa)
#
#
# Indices 1 2 3 4 5 6 
#
# 1 162.4528 16.5150 -145.3263 -0.0003 5.5311 -0.0004
# 2 16.5150 53.5674 -6.5908 -0.0005 -0.1088 0.0006
# 3 -145.3263 -6.5908 -409.4550 0.0004 15.3743 -0.0010
# 4 -0.0003 -0.0005 0.0004 34.3085 0.0014 6.8075
# 5 5.5311 -0.1088 15.3743 0.0014 48.2451 -0.0009
# 6 -0.0004 0.0006 -0.0010 6.8075 -0.0009 1.1737
#
#
#
# Elastic Compliance Matrix: (Units=1/GPa)
#
#
# Indices 1 2 3 4 5 6 
#
# 1 0.004821 -0.001694 -0.001685 0.000001 -0.000020 -0.000007
# 2 -0.001694 0.019227 0.000297 -0.000016 0.000143 0.000082
# 3 -0.001685 0.000297 -0.001820 -0.000002 0.000774 0.000010
# 4 0.000001 -0.000016 -0.000002 -0.193221 0.000027 1.120690
# 5 -0.000020 0.000143 0.000774 0.000027 0.020483 -0.000142
# 6 -0.000007 0.000082 0.000010 1.120690 -0.000142 -5.648054
#
#
# Mechanical properties :
#
#
# Convention : Reuss Voigt Hill
#
# Bulk Modulus (GPa) = 62.24494 -51.58212 5.33141
# Shear Modulus (GPa) = -0.86400 12.87661 6.00630
#
# Velocity S-wave (km/s) = -0.60115 2.32075 1.58500
# Velocity P-wave (km/s) = 5.05501 3.79394 2.36212
#
# Compressibility (1/GPa) = 0.01606556
#
# Stress axis : x y z
#
# Youngs Moduli (GPa) = 207.40901 52.00989 -549.43616
#
# Poissons Ratio (x) = 0.08809 -0.92564
# Poissons Ratio (y) = 0.35130 0.16321
# Poissons Ratio (z) = 0.34942 -0.01545
#
# Static dielectric constant tensor:
#      x y z
#    x 1.885920 0.000000 0.021610 
#    y 0.000000 1.955710 0.000000 
#    z 0.021610 0.000000 1.869200 
# 
# From -- ./inp_files/21528.got.cif
#   From: 2010.05.17/outbox.cif.g08.bks.cpg/sg15_11_cif.got.tgz:21528.got - 2010.06.03 18:47:42.
