data_PCOD9279773
_publ_section_title
;
Structure prediction by ZEFSAII (Michael W. Deem and Ramdas Pophale) SiO2 
 PCOD9279773
Probable space group: C 2/C
;
_chemical_formula_sum "Si O2"
_cell_formula_units_Z 56
_cell_length_a 7.987180
_cell_length_b 26.105983
_cell_length_c 13.565272
_cell_angle_alpha 90.000000
_cell_angle_beta 107.245800
_cell_angle_gamma 90.000000
_cell_volume 2701.371753
_symmetry_space_group_name_H-M "C 2/C"
_symmetry_group_IT_number 15
_symmetry_cell_setting 'monoclinic'
loop_
_space_group_symop_operation_xyz
x,y,z
-x,y,1/2-z
-x,-y,-z
x,-y,1/2+z
1/2+x,1/2+y,z
1/2-x,1/2+y,1/2-z
1/2-x,1/2-y,-z
1/2+x,1/2-y,1/2+z
loop_
_atom_site_type_symbol
_atom_site_label
_atom_site_fract_x
_atom_site_fract_y
_atom_site_fract_z
Si Si1 0.623779 0.564082 0.011633
Si Si2 0.733499 0.079991 0.861883
Si Si3 0.647972 0.679092 0.985532
Si Si4 0.596445 0.763994 0.118741
Si Si5 0.172598 0.531759 0.039922
Si Si6 0.183701 0.982064 0.733547
Si Si7 0.745966 0.805442 0.342473
O O1 0.641129 0.552601 0.131222
O O2 0.433953 0.573420 0.931743
O O3 0.702987 0.619716 0.003980
O O4 0.691073 0.511881 0.973559
O O5 0.699393 0.135101 0.811756
O O6 0.708114 0.031769 0.785132
O O7 0.647348 0.075517 0.954429
O O8 0.801001 0.704915 0.948214
O O9 0.453332 0.691018 0.904503
O O10 0.618735 0.705663 0.086583
O O11 0.702515 0.773614 0.237597
O O12 0.395852 0.783290 0.102788
O O13 0.216376 0.545769 0.159366
O O14 0.000000 0.500000 0.000000
O O15 0.000000 0.999229 0.750000
#
# Coordination Sequence:
#
# PCOD9279773 Si02
#       7
#     8   8   8   8   8   8   8
#     4  10  21  38  59  88 116 158 208 236 300 374
#     4  10  21  36  58  90 112 156 203 242 290 365
#     4  10  22  41  63  87 124 161 200 260 310 365
#     4  10  22  40  63  90 122 157 205 260 310 366
#     4  11  23  35  58  86 125 153 193 250 298 349
#     4  11  19  37  61  82 120 161 198 242 296 365
#     4  10  22  38  64  92 120 154 212 249 308 372
#
# _framework density 20.730207
#
# number of rings (size 3 to 8) (size 9 to 14) (size 15 to 20)
#    0.000    1.714    2.857    1.714    4.000    3.429 
#    2.571    1.429    6.286    0.000    0.000    0.000 
#    0.000    0.000    0.000    0.000    0.000    0.000 
#
# Total GULP energy -155905.525173 kJ/mol
# GULP energy per Si atom -5568.054470 kJ/mol
# Density = 2.068302 g / cm^3
# Si number density = 20.730207 Si / 1000 Ang^3
#
#
#
# Elastic Constant Matrix: (Units=GPa)
#
#
# Indices 1 2 3 4 5 6 
#
# 1 37.7835 -33.0751 -1.1542 0.0000 0.7161 0.0000
# 2 -33.0751 30.0142 -9.4928 0.0000 -2.4490 0.0000
# 3 -1.1542 -9.4928 94.3405 0.0000 -0.7401 0.0000
# 4 0.0000 0.0000 0.0000 5.2945 0.0000 -0.4996
# 5 0.7161 -2.4490 -0.7401 0.0000 23.8892 0.0000
# 6 0.0000 0.0000 0.0000 -0.4996 0.0000 17.0265
#
#
#
# Elastic Compliance Matrix: (Units=1/GPa)
#
#
# Indices 1 2 3 4 5 6 
#
# 1 -2.925846 -3.365263 -0.376526 0.000000 -0.268955 0.000000
# 2 -3.365263 -3.835944 -0.429551 0.000000 -0.305679 0.000000
# 3 -0.376526 -0.429551 -0.037495 0.000000 -0.033911 0.000000
# 4 0.000000 0.000000 0.000000 0.189399 0.000000 0.005557
# 5 -0.268955 -0.305679 -0.033911 0.000000 0.017534 0.000000
# 6 0.000000 0.000000 0.000000 0.005557 0.000000 0.058895
#
#
# Mechanical properties :
#
#
# Convention : Reuss Voigt Hill
#
# Bulk Modulus (GPa) = -0.06604 8.29934 4.11665
# Shear Modulus (GPa) = -1.54412 22.96607 10.71098
#
# Velocity S-wave (km/s) = -0.86399 3.33206 2.27554
# Velocity P-wave (km/s) = 1.01353 4.33770 2.98232
#
# Compressibility (1/GPa) = -15.14196498
#
# Stress axis : x y z
#
# Youngs Moduli (GPa) = -0.34178 -0.26069 -26.67020
#
# Poissons Ratio (x) = -0.87730 -10.04202
# Poissons Ratio (y) = -1.15018 -11.45621
# Poissons Ratio (z) = -0.12869 -0.11198
#
# Static dielectric constant tensor:
#      x y z
#    x 1.837830 0.000000 0.009740 
#    y 0.000000 1.749280 0.000000 
#    z 0.009740 0.000000 1.753580 
# 
# From -- ./inp_files/81243.got.cif
#   From: 2010.05.17/outbox.cif.g08.bks.cpg/sg15_41_cif.got.tgz:81243.got - 2010.06.03 18:47:42.
