data_PCOD9279688
_publ_section_title
;
Structure prediction by ZEFSAII (Michael W. Deem and Ramdas Pophale) SiO2 
 PCOD9279688
Probable space group: C 2/C
;
_chemical_formula_sum "Si O2"
_cell_formula_units_Z 52
_cell_length_a 7.254368
_cell_length_b 24.222416
_cell_length_c 22.848885
_cell_angle_alpha 90.000000
_cell_angle_beta 145.154824
_cell_angle_gamma 90.000000
_cell_volume 2293.995310
_symmetry_space_group_name_H-M "C 2/C"
_symmetry_group_IT_number 15
_symmetry_cell_setting 'monoclinic'
loop_
_space_group_symop_operation_xyz
x,y,z
-x,y,1/2-z
-x,-y,-z
x,-y,1/2+z
1/2+x,1/2+y,z
1/2-x,1/2+y,1/2-z
1/2-x,1/2-y,-z
1/2+x,1/2-y,1/2+z
loop_
_atom_site_type_symbol
_atom_site_label
_atom_site_fract_x
_atom_site_fract_y
_atom_site_fract_z
Si Si1 0.841338 0.614824 0.896838
Si Si2 0.079630 0.558172 0.386267
Si Si3 0.534360 0.836077 0.949127
Si Si4 0.649289 0.726026 0.656549
Si Si5 0.135891 0.969264 0.962684
Si Si6 0.309494 0.472855 0.285193
Si Si7 0.000000 0.792162 0.250000
O O1 0.495427 0.584365 0.818910
O O2 0.792652 0.665942 0.841184
O O3 0.019189 0.636800 0.001652
O O4 0.082608 0.568140 0.939580
O O5 0.987657 0.615909 0.389729
O O6 0.323631 0.528391 0.495231
O O7 0.308289 0.563768 0.389600
O O8 0.820914 0.512996 0.299375
O O9 0.338545 0.783090 0.876313
O O10 0.895790 0.812174 0.055646
O O11 0.548452 0.735918 0.698835
O O12 0.000000 0.699713 0.750000
O O13 0.100703 0.989554 0.887725
O O14 0.000000 0.464736 0.250000
#
# Coordination Sequence:
#
# PCOD9279688 Si02
#       7
#     8   8   8   8   8   8   4
#     4  11  21  39  65  94 127 167 213 258 316 392
#     4  10  21  38  60  89 135 172 203 256 320 377
#     4  10  23  43  65  94 125 168 218 268 329 383
#     4  10  24  48  68  92 126 164 221 286 329 380
#     4  10  21  37  56  95 130 167 213 247 305 393
#     4  10  21  36  56  91 135 170 206 249 308 389
#     4  10  24  42  66 100 116 160 228 260 332 392
#
# _framework density 22.667877000000001
#
# number of rings (size 3 to 8) (size 9 to 14) (size 15 to 20)
#    0.000    1.846    1.538    1.385    2.154    3.692 
#    6.923    2.308    0.000    0.000    0.000    0.000 
#    0.000    0.000    0.000    0.000    0.000    0.000 
#
# Total GULP energy -144779.463254 kJ/mol
# GULP energy per Si atom -5568.440894 kJ/mol
# Density = 2.261628 g / cm^3
# Si number density = 22.667877 Si / 1000 Ang^3
#
#
#
# Elastic Constant Matrix: (Units=GPa)
#
#
# Indices 1 2 3 4 5 6 
#
# 1 32.3429 3.7803 4.2000 0.0002 -0.8114 -0.0001
# 2 3.7803 63.9621 3.0756 0.0001 -14.4649 0.0000
# 3 4.2000 3.0756 73.2541 -0.0008 -2.1373 0.0001
# 4 0.0002 0.0001 -0.0008 28.1734 -0.0002 -19.3482
# 5 -0.8114 -14.4649 -2.1373 -0.0002 32.7660 0.0001
# 6 -0.0001 0.0000 0.0001 -19.3482 0.0001 19.0832
#
#
#
# Elastic Compliance Matrix: (Units=1/GPa)
#
#
# Indices 1 2 3 4 5 6 
#
# 1 0.031350 -0.001799 -0.001726 -0.000001 -0.000131 0.000000
# 2 -0.001799 0.017490 -0.000408 0.000000 0.007650 0.000000
# 3 -0.001726 -0.000408 0.013787 0.000001 0.000676 0.000001
# 4 -0.000001 0.000000 0.000001 0.116870 0.000000 0.118494
# 5 -0.000131 0.007650 0.000676 0.000000 0.033937 0.000000
# 6 0.000000 0.000000 0.000001 0.118494 0.000000 0.172542
#
#
# Mechanical properties :
#
#
# Convention : Reuss Voigt Hill
#
# Bulk Modulus (GPa) = 18.26120 21.29677 19.77898
# Shear Modulus (GPa) = 12.13307 26.57140 19.35224
#
# Velocity S-wave (km/s) = 2.31607 3.42746 2.92503
# Velocity P-wave (km/s) = 3.90201 5.00788 4.48913
#
# Compressibility (1/GPa) = 0.05476092
#
# Stress axis : x y z
#
# Youngs Moduli (GPa) = 31.89808 57.17466 72.53248
#
# Poissons Ratio (x) = 0.10288 0.12517
# Poissons Ratio (y) = 0.05740 0.02959
# Poissons Ratio (z) = 0.05505 0.02333
#
# Static dielectric constant tensor:
#      x y z
#    x 2.006700 0.000000 -0.047090 
#    y 0.000000 1.833510 0.000000 
#    z -0.047090 0.000000 1.947600 
# 
# From -- ./inp_files/290242.got.cif
#   From: 2010.05.17/outbox.cif.g08.bks.cpg/sg15_146_cif.got.tgz:290242.got - 2010.06.03 18:47:42.
