data_PCOD9279741
_publ_section_title
;
Structure prediction by ZEFSAII (Michael W. Deem and Ramdas Pophale) SiO2 
 PCOD9279741
Probable space group: C 2/C
;
_chemical_formula_sum "Si O2"
_cell_formula_units_Z 56
_cell_length_a 19.572953
_cell_length_b 23.586537
_cell_length_c 8.479415
_cell_angle_alpha 90.000000
_cell_angle_beta 56.187081
_cell_angle_gamma 90.000000
_cell_volume 3252.473470
_symmetry_space_group_name_H-M "C 2/C"
_symmetry_group_IT_number 15
_symmetry_cell_setting 'monoclinic'
loop_
_space_group_symop_operation_xyz
x,y,z
-x,y,1/2-z
-x,-y,-z
x,-y,1/2+z
1/2+x,1/2+y,z
1/2-x,1/2+y,1/2-z
1/2-x,1/2-y,-z
1/2+x,1/2-y,1/2+z
loop_
_atom_site_type_symbol
_atom_site_label
_atom_site_fract_x
_atom_site_fract_y
_atom_site_fract_z
Si Si1 0.636298 0.066463 0.395339
Si Si2 0.500000 0.874692 0.250000
Si Si3 0.674586 0.703838 0.587893
Si Si4 0.246875 0.168766 0.170891
Si Si5 0.500000 0.238719 0.250000
Si Si6 0.716727 0.296014 0.369205
Si Si7 0.598762 0.166298 0.888767
Si Si8 0.097895 0.552594 0.089105
O O1 0.545857 0.088186 0.561173
O O2 0.700527 0.111215 0.385302
O O3 0.639765 0.066022 0.202620
O O4 0.638042 0.003381 0.462826
O O5 0.431811 0.839640 0.248465
O O6 0.750000 0.750000 0.500000
O O7 0.694384 0.670355 0.400943
O O8 0.582991 0.728327 0.687082
O O9 0.678421 0.677524 0.759513
O O10 0.299091 0.228153 0.107729
O O11 0.200610 0.175581 0.060964
O O12 0.472182 0.198876 0.428158
O O13 0.815060 0.301945 0.218533
O O14 0.609122 0.105449 0.957986
O O15 0.000000 0.544051 0.250000
#
# Coordination Sequence:
#
# PCOD9279741 Si02
#       8
#     8   4   8   8   4   8   8   8
#     4  12  23  36  50  74 113 155 202 243 278 334
#     4  12  22  31  52  78 110 152 207 232 270 354
#     4  10  21  37  56  81 116 152 191 239 287 344
#     4  10  21  37  54  76 105 151 194 238 288 330
#     4  12  22  37  58  86 118 160 197 228 292 356
#     4  10  21  36  58  78 110 151 193 238 292 336
#     4  12  22  35  55  82 113 158 196 236 292 346
#     4  12  23  34  50  73 113 157 200 241 278 333
#
# _framework density 17.217665
#
# number of rings (size 3 to 8) (size 9 to 14) (size 15 to 20)
#    0.000    0.857    7.143    2.143    6.000    0.000 
#    0.000    0.000    0.000    0.000    0.000    0.000 
#    0.000    4.571    0.000    0.143    0.000    0.000 
#
# Total GULP energy -156063.667332 kJ/mol
# GULP energy per Si atom -5573.702405 kJ/mol
# Density = 1.717848 g / cm^3
# Si number density = 17.217665 Si / 1000 Ang^3
#
#
#
# Elastic Constant Matrix: (Units=GPa)
#
#
# Indices 1 2 3 4 5 6 
#
# 1 86.8368 27.6761 44.0776 0.0000 21.5135 0.0000
# 2 27.6761 68.5187 35.2970 0.0000 -1.7994 0.0000
# 3 44.0776 35.2970 96.0382 0.0000 19.1324 0.0000
# 4 0.0000 0.0000 0.0000 34.9442 0.0000 -14.9634
# 5 21.5135 -1.7994 19.1324 0.0000 43.0327 0.0000
# 6 0.0000 0.0000 0.0000 -14.9634 0.0000 27.2454
#
#
#
# Elastic Compliance Matrix: (Units=1/GPa)
#
#
# Indices 1 2 3 4 5 6 
#
# 1 0.017055 -0.004568 -0.004841 0.000000 -0.006565 0.000000
# 2 -0.004568 0.019895 -0.006403 0.000000 0.005962 0.000000
# 3 -0.004841 -0.006403 0.015974 0.000000 -0.004949 0.000000
# 4 0.000000 0.000000 0.000000 0.037416 0.000000 0.020549
# 5 -0.006565 0.005962 -0.004949 0.000000 0.028970 0.000000
# 6 0.000000 0.000000 0.000000 0.020549 0.000000 0.047989
#
#
# Mechanical properties :
#
#
# Convention : Reuss Voigt Hill
#
# Bulk Modulus (GPa) = 46.94868 51.72170 49.33519
# Shear Modulus (GPa) = 24.26900 30.66733 27.46817
#
# Velocity S-wave (km/s) = 3.75846 4.22495 3.99851
# Velocity P-wave (km/s) = 6.79423 7.34203 7.07344
#
# Compressibility (1/GPa) = 0.02129985
#
# Stress axis : x y z
#
# Youngs Moduli (GPa) = 58.63236 50.26458 62.60230
#
# Poissons Ratio (x) = 0.22959 0.30307
# Poissons Ratio (y) = 0.26781 0.40087
# Poissons Ratio (z) = 0.28385 0.32186
#
# Static dielectric constant tensor:
#      x y z
#    x 1.612870 0.000000 0.063630 
#    y 0.000000 1.591370 0.000000 
#    z 0.063630 0.000000 1.554690 
# 
# From -- ./inp_files/43629.got.cif
#   From: 2010.05.17/outbox.cif.g08.bks.cpg/sg15_22_cif.got.tgz:43629.got - 2010.06.03 18:47:42.
