data_PCOD9279693
_publ_section_title
;
Structure prediction by ZEFSAII (Michael W. Deem and Ramdas Pophale) SiO2 
 PCOD9279693
Probable space group: C 2/C
;
_chemical_formula_sum "Si O2"
_cell_formula_units_Z 36
_cell_length_a 17.276244
_cell_length_b 22.176132
_cell_length_c 17.663903
_cell_angle_alpha 90.000000
_cell_angle_beta 163.087611
_cell_angle_gamma 90.000000
_cell_volume 1968.697870
_symmetry_space_group_name_H-M "C 2/C"
_symmetry_group_IT_number 15
_symmetry_cell_setting 'monoclinic'
loop_
_space_group_symop_operation_xyz
x,y,z
-x,y,1/2-z
-x,-y,-z
x,-y,1/2+z
1/2+x,1/2+y,z
1/2-x,1/2+y,1/2-z
1/2-x,1/2-y,-z
1/2+x,1/2-y,1/2+z
loop_
_atom_site_type_symbol
_atom_site_label
_atom_site_fract_x
_atom_site_fract_y
_atom_site_fract_z
Si Si1 0.054178 0.607298 0.084697
Si Si2 0.903183 0.939379 0.451513
Si Si3 0.389716 0.208729 0.038949
Si Si4 0.500000 0.618298 0.750000
Si Si5 0.298894 0.030307 0.131444
O O1 0.348737 0.605580 0.324127
O O2 0.068879 0.561928 0.171238
O O3 0.847225 0.584608 0.829087
O O4 0.958740 0.670954 0.028433
O O5 0.818929 0.966044 0.453664
O O6 0.000000 0.000000 0.500000
O O7 0.250403 0.160114 0.963741
O O8 0.162712 0.259361 0.817869
O O9 0.425138 0.576442 0.608824
O O10 0.500000 0.024341 0.250000
#
# Coordination Sequence:
#
# PCOD9279693 Si02
#       5
#     8   8   8   4   8
#     4  11  22  40  53  78 110 151 194 238 273 322
#     4  10  21  36  57  76 108 150 190 228 283 333
#     4  12  24  38  56  78 111 156 199 235 269 317
#     4  12  24  36  52  84 124 150 190 226 276 330
#     4  11  22  34  57  82 117 152 189 223 281 345
#
# _framework density 18.286199
#
# number of rings (size 3 to 8) (size 9 to 14) (size 15 to 20)
#    0.000    0.889    2.222    8.667    3.111    0.000 
#    0.000    0.000    0.000    0.000    0.000    0.000 
#    0.000   17.778    0.000    0.000    0.000    0.000 
#
# Total GULP energy -100582.102712 kJ/mol
# GULP energy per Si atom -5587.894595 kJ/mol
# Density = 1.824458 g / cm^3
# Si number density = 18.286199 Si / 1000 Ang^3
#
#
#
# Elastic Constant Matrix: (Units=GPa)
#
#
# Indices 1 2 3 4 5 6 
#
# 1 89.5310 50.1227 41.7224 0.0018 14.2206 0.0002
# 2 50.1227 68.4977 45.4071 0.0042 -4.7640 -0.0041
# 3 41.7224 45.4071 130.9664 0.0068 4.3208 0.0098
# 4 0.0018 0.0042 0.0068 27.1161 0.0019 7.7168
# 5 14.2206 -4.7640 4.3208 0.0019 24.6092 -0.0015
# 6 0.0002 -0.0041 0.0098 7.7168 -0.0015 35.3345
#
#
#
# Elastic Compliance Matrix: (Units=1/GPa)
#
#
# Indices 1 2 3 4 5 6 
#
# 1 0.025096 -0.019107 -0.000774 0.000004 -0.018065 -0.000004
# 2 -0.019107 0.034097 -0.006353 -0.000006 0.018757 0.000008
# 3 -0.000774 -0.006353 0.010170 0.000000 -0.002568 -0.000004
# 4 0.000004 -0.000006 0.000000 0.039322 -0.000007 -0.008588
# 5 -0.018065 0.018757 -0.002568 -0.000007 0.055156 0.000007
# 6 -0.000004 0.000008 -0.000004 -0.008588 0.000007 0.030176
#
#
# Mechanical properties :
#
#
# Convention : Reuss Voigt Hill
#
# Bulk Modulus (GPa) = 59.19643 62.61105 60.90374
# Shear Modulus (GPa) = 19.83191 27.52816 23.68004
#
# Velocity S-wave (km/s) = 3.29679 3.88417 3.60247
# Velocity P-wave (km/s) = 6.85086 7.37764 7.11912
#
# Compressibility (1/GPa) = 0.01689291
#
# Stress axis : x y z
#
# Youngs Moduli (GPa) = 39.84634 29.32828 98.33050
#
# Poissons Ratio (x) = 0.56038 0.07615
# Poissons Ratio (y) = 0.76135 0.62474
# Poissons Ratio (z) = 0.03086 0.18634
#
# Static dielectric constant tensor:
#      x y z
#    x 1.742560 0.000020 0.053970 
#    y 0.000020 1.650000 0.000000 
#    z 0.053970 0.000000 1.687450 
# 
# From -- ./inp_files/156869.got.cif
#   From: 2010.05.17/outbox.cif.g08.bks.cpg/sg15_79_cif.got.tgz:156869.got - 2010.06.03 18:47:42.
