data_PCOD9279996
_publ_section_title
;
Structure prediction by ZEFSAII (Michael W. Deem and Ramdas Pophale) SiO2 
 PCOD9279996
Probable space group: C 2/C
;
_chemical_formula_sum "Si O2"
_cell_formula_units_Z 64
_cell_length_a 11.299349
_cell_length_b 21.507776
_cell_length_c 22.019971
_cell_angle_alpha 90.000000
_cell_angle_beta 146.690367
_cell_angle_gamma 90.000000
_cell_volume 2938.780855
_symmetry_space_group_name_H-M "C 2/C"
_symmetry_group_IT_number 15
_symmetry_cell_setting 'monoclinic'
loop_
_space_group_symop_operation_xyz
x,y,z
-x,y,1/2-z
-x,-y,-z
x,-y,1/2+z
1/2+x,1/2+y,z
1/2-x,1/2+y,1/2-z
1/2-x,1/2-y,-z
1/2+x,1/2-y,1/2+z
loop_
_atom_site_type_symbol
_atom_site_label
_atom_site_fract_x
_atom_site_fract_y
_atom_site_fract_z
Si Si1 0.956322 0.106005 0.571063
Si Si2 0.102233 0.562772 0.690075
Si Si3 0.830334 0.194207 0.625729
Si Si4 0.234861 0.950250 0.824064
Si Si5 0.649218 0.479448 0.008152
Si Si6 0.774368 0.668732 0.136707
Si Si7 0.417338 0.865348 0.999955
Si Si8 0.534438 0.637506 0.146414
O O1 0.891817 0.157773 0.591830
O O2 0.881551 0.130845 0.473956
O O3 0.205963 0.088808 0.686855
O O4 0.833903 0.040384 0.527296
O O5 0.184434 0.505398 0.683883
O O6 0.886090 0.540279 0.630304
O O7 0.024945 0.614773 0.609277
O O8 0.842405 0.268621 0.631172
O O9 0.586495 0.177762 0.538806
O O10 0.000000 0.172458 0.750000
O O11 0.000000 0.967455 0.750000
O O12 0.197514 0.888928 0.766446
O O13 0.377778 0.926764 0.941630
O O14 0.500000 0.500000 0.000000
O O15 0.544322 0.423955 0.924477
O O16 0.649557 0.680571 0.146354
O O17 0.000000 0.634970 0.250000
O O18 0.180947 0.837963 0.913286
#
# Coordination Sequence:
#
# PCOD9279996 Si02
#       8
#     8   8   8   8   8   8   8   8
#     4  12  24  43  69  98 136 175 231 275 340 416
#     4  11  23  37  64  97 135 176 214 282 339 407
#     4  11  24  45  68  97 126 176 231 290 339 391
#     4  10  21  36  62  96 134 170 217 265 342 422
#     4  11  23  41  63  98 140 180 215 271 343 420
#     4  11  27  45  67  92 131 178 234 290 334 404
#     4  10  22  40  63  92 134 169 220 281 334 406
#     4  10  22  42  60  97 128 173 218 267 345 407
#
# _framework density 21.777736999999998
#
# number of rings (size 3 to 8) (size 9 to 14) (size 15 to 20)
#    0.000    1.250    3.750    1.500    5.250    1.000 
#    0.000    0.000    0.000    0.000    0.000    0.000 
#    0.000    0.000    0.000    0.000    0.000    0.000 
#
# Total GULP energy -178861.319642 kJ/mol
# GULP energy per Si atom -5589.416239 kJ/mol
# Density = 2.172817 g / cm^3
# Si number density = 21.777737 Si / 1000 Ang^3
#
#
#
# Elastic Constant Matrix: (Units=GPa)
#
#
# Indices 1 2 3 4 5 6 
#
# 1 99.7999 15.9924 37.7963 -0.0002 6.2706 -0.0002
# 2 15.9924 43.6606 17.6020 -0.0005 2.7345 -0.0002
# 3 37.7963 17.6020 122.4048 0.0041 -0.8233 0.0010
# 4 -0.0002 -0.0005 0.0041 29.1503 0.0002 -5.8149
# 5 6.2706 2.7345 -0.8233 0.0002 25.9134 0.0002
# 6 -0.0002 -0.0002 0.0010 -5.8149 0.0002 22.4714
#
#
#
# Elastic Compliance Matrix: (Units=1/GPa)
#
#
# Indices 1 2 3 4 5 6 
#
# 1 0.011889 -0.002866 -0.003277 0.000001 -0.002679 0.000000
# 2 -0.002866 0.025191 -0.002751 0.000001 -0.002052 0.000001
# 3 -0.003277 -0.002751 0.009586 -0.000002 0.001388 -0.000001
# 4 0.000001 0.000001 -0.000002 0.036172 -0.000001 0.009360
# 5 -0.002679 -0.002052 0.001388 -0.000001 0.039499 -0.000001
# 6 0.000000 0.000001 -0.000001 0.009360 -0.000001 0.046923
#
#
# Mechanical properties :
#
#
# Convention : Reuss Voigt Hill
#
# Bulk Modulus (GPa) = 34.62820 45.40517 40.01669
# Shear Modulus (GPa) = 25.42263 28.47199 26.94731
#
# Velocity S-wave (km/s) = 3.42038 3.61971 3.52146
# Velocity P-wave (km/s) = 5.61551 6.19389 5.91178
#
# Compressibility (1/GPa) = 0.02887820
#
# Stress axis : x y z
#
# Youngs Moduli (GPa) = 84.11422 39.69602 104.31385
#
# Poissons Ratio (x) = 0.11376 0.34182
# Poissons Ratio (y) = 0.24105 0.28702
# Poissons Ratio (z) = 0.27563 0.10922
#
# Static dielectric constant tensor:
#      x y z
#    x 1.817060 0.000000 -0.003010 
#    y 0.000000 1.790400 0.000000 
#    z -0.003010 0.000000 1.806210 
# 
# From -- ./inp_files/271231.got.cif
#   From: 2010.05.17/outbox.cif.g08.bks.cpg/sg15_136_cif.got.tgz:271231.got - 2010.06.03 18:47:42.
