data_PCOD9279681
_publ_section_title
;
Structure prediction by ZEFSAII (Michael W. Deem and Ramdas Pophale) SiO2 
 PCOD9279681
Probable space group: C 2/C
;
_chemical_formula_sum "Si O2"
_cell_formula_units_Z 36
_cell_length_a 16.257975
_cell_length_b 18.663282
_cell_length_c 5.307331
_cell_angle_alpha 90.000000
_cell_angle_beta 93.869012
_cell_angle_gamma 90.000000
_cell_volume 1606.718231
_symmetry_space_group_name_H-M "C 2/C"
_symmetry_group_IT_number 15
_symmetry_cell_setting 'monoclinic'
loop_
_space_group_symop_operation_xyz
x,y,z
-x,y,1/2-z
-x,-y,-z
x,-y,1/2+z
1/2+x,1/2+y,z
1/2-x,1/2+y,1/2-z
1/2-x,1/2-y,-z
1/2+x,1/2-y,1/2+z
loop_
_atom_site_type_symbol
_atom_site_label
_atom_site_fract_x
_atom_site_fract_y
_atom_site_fract_z
Si Si1 0.078250 0.660528 0.583502
Si Si2 0.418437 0.325800 0.084252
Si Si3 0.500000 0.050138 0.250000
Si Si4 0.750748 0.798680 0.254361
Si Si5 0.592853 0.471465 0.588943
O O1 0.072141 0.744307 0.505424
O O2 0.071239 0.607652 0.342114
O O3 0.168050 0.654027 0.728613
O O4 0.000000 0.646438 0.750000
O O5 0.500000 0.345423 0.250000
O O6 0.339996 0.333334 0.249297
O O7 0.408322 0.386283 0.870592
O O8 0.500000 0.000000 0.500000
O O9 0.750000 0.750000 0.500000
O O10 0.750000 0.750000 0.000000
O O11 0.500000 0.500000 0.500000
O O12 0.634049 0.490510 0.332220
#
# Coordination Sequence:
#
# PCOD9279681 Si02
#       5
#     8   8   4   8   8
#     4  11  24  43  75 100 134 180 242 292 366 414
#     4  11  21  39  70 100 134 185 227 277 344 417
#     4  12  26  46  72 100 134 180 240 308 368 432
#     4  10  24  41  63 105 141 168 229 297 340 417
#     4  10  21  36  56  88 136 171 213 259 313 395
#
# _framework density 22.405918
#
# number of rings (size 3 to 8) (size 9 to 14) (size 15 to 20)
#    0.000    1.333    4.444    1.333    6.222    3.556 
#    0.000    2.222    0.000    0.000    0.000    0.000 
#    0.000    0.000    0.000    0.000    0.000    0.000 
#
# Total GULP energy -100341.218704 kJ/mol
# GULP energy per Si atom -5574.512150 kJ/mol
# Density = 2.235492 g / cm^3
# Si number density = 22.405918 Si / 1000 Ang^3
#
#
#
# Elastic Constant Matrix: (Units=GPa)
#
#
# Indices 1 2 3 4 5 6 
#
# 1 162.4285 3.9524 30.8087 0.0000 5.7244 0.0000
# 2 3.9524 156.9481 43.2909 0.0000 -2.0382 0.0000
# 3 30.8087 43.2909 148.4090 0.0000 0.9055 0.0000
# 4 0.0000 0.0000 0.0000 44.8712 0.0000 0.5780
# 5 5.7244 -2.0382 0.9055 0.0000 29.9400 0.0000
# 6 0.0000 0.0000 0.0000 0.5780 0.0000 -0.6190
#
#
#
# Elastic Compliance Matrix: (Units=1/GPa)
#
#
# Indices 1 2 3 4 5 6 
#
# 1 0.006457 0.000206 -0.001394 0.000000 -0.001178 0.000000
# 2 0.000206 0.006944 -0.002071 0.000000 0.000496 0.000000
# 3 -0.001394 -0.002071 0.007632 0.000000 -0.000105 0.000000
# 4 0.000000 0.000000 0.000000 0.022021 0.000000 0.020562
# 5 -0.001178 0.000496 -0.000105 0.000000 0.033662 0.000000
# 6 0.000000 0.000000 0.000000 0.020562 0.000000 -1.596273
#
#
# Mechanical properties :
#
#
# Convention : Reuss Voigt Hill
#
# Bulk Modulus (GPa) = 68.88614 69.32105 69.10359
# Shear Modulus (GPa) = -3.31521 40.82067 18.75273
#
# Velocity S-wave (km/s) = -1.21771 4.27297 2.89615
# Velocity P-wave (km/s) = 5.36975 7.43977 6.48785
#
# Compressibility (1/GPa) = 0.01451671
#
# Stress axis : x y z
#
# Youngs Moduli (GPa) = 154.86151 144.00603 131.02175
#
# Poissons Ratio (x) = -0.02973 0.18258
# Poissons Ratio (y) = -0.03197 0.27141
# Poissons Ratio (z) = 0.21581 0.29831
#
# Static dielectric constant tensor:
#      x y z
#    x 1.893720 0.000000 -0.068360 
#    y 0.000000 1.874950 0.000000 
#    z -0.068360 0.000000 1.915190 
# 
# From -- ./inp_files/9726.got.cif
#   From: 2010.05.17/outbox.cif.g08.bks.cpg/sg15_5_cif.got.tgz:9726.got - 2010.06.03 18:47:42.
