data_PCOD9279462
_publ_section_title
;
Structure prediction by ZEFSAII (Michael W. Deem and Ramdas Pophale) SiO2 
 PCOD9279462
Probable space group: C 2/C
;
_chemical_formula_sum "Si O2"
_cell_formula_units_Z 60
_cell_length_a 13.179499
_cell_length_b 11.745753
_cell_length_c 22.227073
_cell_angle_alpha 90.000000
_cell_angle_beta 109.205791
_cell_angle_gamma 90.000000
_cell_volume 3249.315369
_symmetry_space_group_name_H-M "C 2/C"
_symmetry_group_IT_number 15
_symmetry_cell_setting 'monoclinic'
loop_
_space_group_symop_operation_xyz
x,y,z
-x,y,1/2-z
-x,-y,-z
x,-y,1/2+z
1/2+x,1/2+y,z
1/2-x,1/2+y,1/2-z
1/2-x,1/2-y,-z
1/2+x,1/2-y,1/2+z
loop_
_atom_site_type_symbol
_atom_site_label
_atom_site_fract_x
_atom_site_fract_y
_atom_site_fract_z
Si Si1 0.264030 0.673033 0.673566
Si Si2 0.207107 0.435596 0.601206
Si Si3 0.233782 0.664615 0.440212
Si Si4 0.994625 0.404881 0.861783
Si Si5 0.000000 0.239121 0.750000
Si Si6 0.768669 0.074724 0.981557
Si Si7 0.372365 0.727312 0.092728
Si Si8 0.051256 0.660296 0.694449
O O1 0.235860 0.554449 0.636481
O O2 0.247331 0.769525 0.618950
O O3 0.388280 0.673792 0.717464
O O4 0.178048 0.682311 0.710966
O O5 0.098981 0.387777 0.608118
O O6 0.198693 0.451186 0.527889
O O7 0.307258 0.350145 0.627145
O O8 0.250000 0.750000 0.500000
O O9 0.300258 0.546866 0.460924
O O10 0.110969 0.619467 0.412433
O O11 0.981822 0.318823 0.804117
O O12 0.978486 0.532150 0.832676
O O13 0.696117 0.156524 0.926819
O O14 0.861071 0.156150 0.028175
O O15 0.490088 0.756451 0.136561
O O16 0.000000 0.676628 0.750000
#
# Coordination Sequence:
#
# PCOD9279462 Si02
#       8
#     8   8   8   8   4   8   8   8
#     4  10  23  38  62  86 118 155 197 243 295 361
#     4   9  19  37  58  88 112 155 192 237 300 348
#     4  11  19  36  59  87 122 153 193 243 297 356
#     4  10  21  35  61  85 113 154 206 244 284 348
#     4  10  22  42  54  84 122 152 196 246 298 344
#     4   9  18  34  59  83 123 150 186 246 292 349
#     4   9  19  37  58  85 119 146 194 238 289 347
#     4  11  22  39  61  88 113 157 207 246 284 343
#
# _framework density 18.465427999999999
#
# number of rings (size 3 to 8) (size 9 to 14) (size 15 to 20)
#    0.800    1.333    3.333    0.000    1.867    1.600 
#    1.200    0.667    5.867    0.000    0.000    0.000 
#    0.000    0.000    0.000    0.000    0.000    0.000 
#
# Total GULP energy -167027.614917 kJ/mol
# GULP energy per Si atom -5567.587164 kJ/mol
# Density = 1.842340 g / cm^3
# Si number density = 18.465428 Si / 1000 Ang^3
#
#
#
# Elastic Constant Matrix: (Units=GPa)
#
#
# Indices 1 2 3 4 5 6 
#
# 1 99.5139 23.5543 19.2852 0.0000 -2.4001 0.0000
# 2 23.5543 85.2148 9.5738 0.0000 4.7606 0.0000
# 3 19.2852 9.5738 35.2674 0.0000 -3.3911 0.0000
# 4 0.0000 0.0000 0.0000 -12.8835 0.0000 9.3560
# 5 -2.4001 4.7606 -3.3911 0.0000 21.3878 0.0000
# 6 0.0000 0.0000 0.0000 9.3560 0.0000 20.5842
#
#
#
# Elastic Compliance Matrix: (Units=1/GPa)
#
#
# Indices 1 2 3 4 5 6 
#
# 1 0.011800 -0.002687 -0.005624 0.000000 0.001031 0.000000
# 2 -0.002687 0.012945 -0.002387 0.000000 -0.003561 0.000000
# 3 -0.005624 -0.002387 0.032565 0.000000 0.005063 0.000000
# 4 0.000000 0.000000 0.000000 -0.058357 0.000000 0.026525
# 5 0.001031 -0.003561 0.005063 0.000000 0.048467 0.000000
# 6 0.000000 0.000000 0.000000 0.026525 0.000000 0.036525
#
#
# Mechanical properties :
#
#
# Convention : Reuss Voigt Hill
#
# Bulk Modulus (GPa) = 27.84484 36.09141 31.96812
# Shear Modulus (GPa) = 42.62140 16.98989 29.80565
#
# Velocity S-wave (km/s) = 4.80956 3.03659 4.02199
# Velocity P-wave (km/s) = 6.77898 5.64645 6.23847
#
# Compressibility (1/GPa) = 0.03591330
#
# Stress axis : x y z
#
# Youngs Moduli (GPa) = 84.74840 77.24998 30.70793
#
# Poissons Ratio (x) = 0.20759 0.17269
# Poissons Ratio (y) = 0.22774 0.07330
# Poissons Ratio (z) = 0.47661 0.18440
#
# Static dielectric constant tensor:
#      x y z
#    x 1.646650 0.000000 0.011850 
#    y 0.000000 1.653620 0.000000 
#    z 0.011850 0.000000 1.656660 
# 
# From -- ./inp_files/268944.got.cif
#   From: 2010.05.17/outbox.cif.g08.bks.cpg/sg15_135_cif.got.tgz:268944.got - 2010.06.03 18:47:42.
