data_PCOD9279230
_publ_section_title
;
Structure prediction by ZEFSAII (Michael W. Deem and Ramdas Pophale) SiO2 
 PCOD9279230
Probable space group: C 2/C
;
_chemical_formula_sum "Si O2"
_cell_formula_units_Z 60
_cell_length_a 11.372710
_cell_length_b 30.222217
_cell_length_c 8.951308
_cell_angle_alpha 90.000000
_cell_angle_beta 97.854728
_cell_angle_gamma 90.000000
_cell_volume 3047.774934
_symmetry_space_group_name_H-M "C 2/C"
_symmetry_group_IT_number 15
_symmetry_cell_setting 'monoclinic'
loop_
_space_group_symop_operation_xyz
x,y,z
-x,y,1/2-z
-x,-y,-z
x,-y,1/2+z
1/2+x,1/2+y,z
1/2-x,1/2+y,1/2-z
1/2-x,1/2-y,-z
1/2+x,1/2-y,1/2+z
loop_
_atom_site_type_symbol
_atom_site_label
_atom_site_fract_x
_atom_site_fract_y
_atom_site_fract_z
Si Si1 0.847641 0.452736 0.003814
Si Si2 0.000000 0.484456 0.750000
Si Si3 0.758371 0.272881 0.250088
Si Si4 0.378564 0.715365 0.465565
Si Si5 0.437447 0.461073 0.577388
Si Si6 0.184722 0.351356 0.447017
Si Si7 0.943771 0.281072 0.902330
Si Si8 0.042085 0.136593 0.428997
O O1 0.851598 0.402703 0.071137
O O2 0.909381 0.485463 0.135065
O O3 0.922044 0.457756 0.860885
O O4 0.707306 0.463660 0.948444
O O5 0.702441 0.285321 0.401302
O O6 0.814861 0.224437 0.297665
O O7 0.820789 0.315839 0.190955
O O8 0.655660 0.257078 0.120041
O O9 0.455197 0.760392 0.478392
O O10 0.459262 0.672722 0.489807
O O11 0.500000 0.461702 0.750000
O O12 0.500000 0.500000 0.500000
O O13 0.470406 0.413284 0.513956
O O14 0.103398 0.327572 0.554249
O O15 0.320644 0.352130 0.525104
O O16 0.000000 0.283927 0.750000
O O17 0.000000 0.136475 0.250000
#
# Coordination Sequence:
#
# PCOD9279230 Si02
#       8
#     8   4   8   8   8   8   8   8
#     4  10  23  41  69  94 126 169 212 262 334 380
#     4  10  22  46  66  92 130 166 210 270 322 400
#     4  10  21  37  54  83 120 152 207 241 292 364
#     4  10  21  36  55  81 118 163 192 245 302 344
#     4  10  21  41  63  96 126 156 206 263 322 389
#     4  11  22  37  61  89 116 160 210 254 298 375
#     4  10  21  35  53  80 115 152 195 246 293 343
#     4  10  21  36  59  86 118 157 201 244 308 370
#
# _framework density 19.686492999999999
#
# number of rings (size 3 to 8) (size 9 to 14) (size 15 to 20)
#    0.000    1.867    1.333    2.000    2.800    1.067 
#    7.200    0.000    0.000    0.000    0.000    0.000 
#    0.000    0.000    0.000    0.000    0.000    0.000 
#
# Total GULP energy -167087.885910 kJ/mol
# GULP energy per Si atom -5569.596197 kJ/mol
# Density = 1.964169 g / cm^3
# Si number density = 19.686493 Si / 1000 Ang^3
#
#
#
# Elastic Constant Matrix: (Units=GPa)
#
#
# Indices 1 2 3 4 5 6 
#
# 1 83.1815 53.4855 15.0646 0.0000 -4.1660 0.0000
# 2 53.4855 113.7924 15.3579 0.0000 -15.5463 0.0000
# 3 15.0646 15.3579 41.1313 0.0000 -1.6153 0.0000
# 4 0.0000 0.0000 0.0000 20.1054 0.0000 0.5442
# 5 -4.1660 -15.5463 -1.6153 0.0000 27.0905 0.0000
# 6 0.0000 0.0000 0.0000 0.5442 0.0000 37.8336
#
#
#
# Elastic Compliance Matrix: (Units=1/GPa)
#
#
# Indices 1 2 3 4 5 6 
#
# 1 0.017827 -0.008197 -0.003554 0.000000 -0.002174 0.000000
# 2 -0.008197 0.013789 -0.001890 0.000000 0.006540 0.000000
# 3 -0.003554 -0.001890 0.026317 0.000000 -0.000062 0.000000
# 4 0.000000 0.000000 0.000000 0.049757 0.000000 -0.000716
# 5 -0.002174 0.006540 -0.000062 0.000000 0.040328 0.000000
# 6 0.000000 0.000000 0.000000 -0.000716 0.000000 0.026442
#
#
# Mechanical properties :
#
#
# Convention : Reuss Voigt Hill
#
# Bulk Modulus (GPa) = 32.62383 45.10235 38.86309
# Shear Modulus (GPa) = 23.58943 27.28571 25.43757
#
# Velocity S-wave (km/s) = 3.46534 3.72696 3.59853
# Velocity P-wave (km/s) = 5.71131 6.44052 6.08685
#
# Compressibility (1/GPa) = 0.03065244
#
# Stress axis : x y z
#
# Youngs Moduli (GPa) = 56.09454 72.52117 37.99779
#
# Poissons Ratio (x) = 0.59442 0.13505
# Poissons Ratio (y) = 0.45978 0.07181
# Poissons Ratio (z) = 0.19937 0.13705
#
# Static dielectric constant tensor:
#      x y z
#    x 1.617890 0.000000 -0.085710 
#    y 0.000000 1.694320 0.000000 
#    z -0.085710 0.000000 1.607430 
# 
# From -- ./inp_files/35225.got.cif
#   From: 2010.05.17/outbox.cif.g08.bks.cpg/sg15_18_cif.got.tgz:35225.got - 2010.06.03 18:47:42.
