data_PCOD9279903
_publ_section_title
;
Structure prediction by ZEFSAII (Michael W. Deem and Ramdas Pophale) SiO2 
 PCOD9279903
Probable space group: C 2/C
;
_chemical_formula_sum "Si O2"
_cell_formula_units_Z 48
_cell_length_a 23.848645
_cell_length_b 11.334935
_cell_length_c 9.220636
_cell_angle_alpha 90.000000
_cell_angle_beta 69.066651
_cell_angle_gamma 90.000000
_cell_volume 2328.032033
_symmetry_space_group_name_H-M "C 2/C"
_symmetry_group_IT_number 15
_symmetry_cell_setting 'monoclinic'
loop_
_space_group_symop_operation_xyz
x,y,z
-x,y,1/2-z
-x,-y,-z
x,-y,1/2+z
1/2+x,1/2+y,z
1/2-x,1/2+y,1/2-z
1/2-x,1/2-y,-z
1/2+x,1/2-y,1/2+z
loop_
_atom_site_type_symbol
_atom_site_label
_atom_site_fract_x
_atom_site_fract_y
_atom_site_fract_z
Si Si1 0.681039 0.407962 0.534239
Si Si2 0.000096 0.836101 0.417951
Si Si3 0.620600 0.036361 0.274881
Si Si4 0.895223 0.001319 0.134668
Si Si5 0.455182 0.081814 0.404433
Si Si6 0.313644 0.127317 0.011448
O O1 0.663848 0.479438 0.406417
O O2 0.630066 0.455309 0.689587
O O3 0.679569 0.267685 0.507792
O O4 0.747570 0.422543 0.536877
O O5 0.943820 0.901441 0.541377
O O6 0.987840 0.697313 0.434606
O O7 0.000000 0.871823 0.250000
O O8 0.064370 0.882166 0.412988
O O9 0.595989 0.119251 0.166831
O O10 0.668283 0.091682 0.341544
O O11 0.571939 0.990718 0.438426
O O12 0.645207 0.929176 0.153812
O O13 0.500000 0.016505 0.250000
#
# Coordination Sequence:
#
# PCOD9279903 Si02
#       6
#     8   8   8   8   8   8
#     4  11  23  39  62  88 118 155 203 245 292 345
#     4  10  21  37  58  89 118 152 196 235 298 355
#     4  10  21  41  60  85 123 157 192 245 294 344
#     4  11  22  39  61  85 122 156 191 247 295 351
#     4  10  21  36  61  88 120 154 195 236 291 358
#     4  10  23  40  61  89 116 157 201 244 292 348
#
# _framework density 20.618272999999999
#
# number of rings (size 3 to 8) (size 9 to 14) (size 15 to 20)
#    0.000    1.667    1.667    2.500    4.667    0.000 
#    0.000    0.000    0.000   11.000    0.000    0.000 
#    0.000    0.000    0.000    0.000    0.000    0.000 
#
# Total GULP energy -133725.366014 kJ/mol
# GULP energy per Si atom -5571.890251 kJ/mol
# Density = 2.057134 g / cm^3
# Si number density = 20.618273 Si / 1000 Ang^3
#
#
#
# Elastic Constant Matrix: (Units=GPa)
#
#
# Indices 1 2 3 4 5 6 
#
# 1 81.2798 18.2478 9.0186 0.0000 15.0759 0.0000
# 2 18.2478 39.1239 18.0731 0.0000 1.9568 0.0000
# 3 9.0186 18.0731 83.5127 0.0000 7.0647 0.0000
# 4 0.0000 0.0000 0.0000 15.3877 0.0000 -0.6887
# 5 15.0759 1.9568 7.0647 0.0000 41.6379 0.0000
# 6 0.0000 0.0000 0.0000 -0.6887 0.0000 22.6016
#
#
#
# Elastic Compliance Matrix: (Units=1/GPa)
#
#
# Indices 1 2 3 4 5 6 
#
# 1 0.014726 -0.006753 0.000300 0.000000 -0.005065 0.000000
# 2 -0.006753 0.031500 -0.006259 0.000000 0.002027 0.000000
# 3 0.000300 -0.006259 0.013474 0.000000 -0.002101 0.000000
# 4 0.000000 0.000000 0.000000 0.065076 0.000000 0.001983
# 5 -0.005065 0.002027 -0.002101 0.000000 0.026112 0.000000
# 6 0.000000 0.000000 0.000000 0.001983 0.000000 0.044305
#
#
# Mechanical properties :
#
#
# Convention : Reuss Voigt Hill
#
# Bulk Modulus (GPa) = 29.17657 32.73282 30.95469
# Shear Modulus (GPa) = 21.54788 26.49724 24.02256
#
# Velocity S-wave (km/s) = 3.23629 3.58877 3.41707
# Velocity P-wave (km/s) = 5.30531 5.75173 5.53302
#
# Compressibility (1/GPa) = 0.03427408
#
# Stress axis : x y z
#
# Youngs Moduli (GPa) = 67.90909 31.74647 74.21653
#
# Poissons Ratio (x) = 0.21439 -0.02225
# Poissons Ratio (y) = 0.45861 0.46452
# Poissons Ratio (z) = -0.02036 0.19870
#
# Static dielectric constant tensor:
#      x y z
#    x 1.864860 0.000000 -0.002160 
#    y 0.000000 1.733150 0.000000 
#    z -0.002160 0.000000 1.694240 
# 
# From -- ./inp_files/60839.got.cif
#   From: 2010.05.17/outbox.cif.g08.bks.cpg/sg15_31_cif.got.tgz:60839.got - 2010.06.03 18:47:42.
