data_PCOD9279872
_publ_section_title
;
Structure prediction by ZEFSAII (Michael W. Deem and Ramdas Pophale) SiO2 
 PCOD9279872
Probable space group: C 2/C
;
_chemical_formula_sum "Si O2"
_cell_formula_units_Z 48
_cell_length_a 13.926366
_cell_length_b 5.109766
_cell_length_c 23.809465
_cell_angle_alpha 90.000000
_cell_angle_beta 94.494101
_cell_angle_gamma 90.000000
_cell_volume 1689.083494
_symmetry_space_group_name_H-M "C 2/C"
_symmetry_group_IT_number 15
_symmetry_cell_setting 'monoclinic'
loop_
_space_group_symop_operation_xyz
x,y,z
-x,y,1/2-z
-x,-y,-z
x,-y,1/2+z
1/2+x,1/2+y,z
1/2-x,1/2+y,1/2-z
1/2-x,1/2-y,-z
1/2+x,1/2-y,1/2+z
loop_
_atom_site_type_symbol
_atom_site_label
_atom_site_fract_x
_atom_site_fract_y
_atom_site_fract_z
Si Si1 0.803902 0.237667 0.742795
Si Si2 0.121209 0.420495 0.957792
Si Si3 0.444113 0.942557 0.842900
Si Si4 0.451702 0.440063 0.685951
Si Si5 0.924426 0.194825 0.969891
Si Si6 0.691547 0.284833 0.583847
O O1 0.739898 0.491893 0.722908
O O2 0.886104 0.387338 0.781692
O O3 0.847949 0.063015 0.694677
O O4 0.194154 0.313058 0.915931
O O5 0.005221 0.391049 0.946467
O O6 0.132725 0.721624 0.976336
O O7 0.155895 0.311634 0.020396
O O8 0.530306 0.156529 0.839649
O O9 0.361688 0.100156 0.874528
O O10 0.493845 0.656235 0.848355
O O11 0.500000 0.422757 0.750000
O O12 0.852811 0.077089 0.921150
O O13 0.000000 0.000000 0.000000
#
# Coordination Sequence:
#
# PCOD9279872 Si02
#       6
#     8   8   8   8   8   8
#     4  11  22  42  68  96 131 170 213 275 344 398
#     4   9  19  38  60  83 126 171 204 269 326 390
#     4  11  23  40  65  97 124 170 222 268 315 412
#     4  10  21  42  66  87 126 171 209 259 336 401
#     4   9  18  36  59  83 115 167 211 251 325 384
#     4  10  21  36  60  91 121 167 220 263 326 385
#
# _framework density 28.417777999999998
#
# number of rings (size 3 to 8) (size 9 to 14) (size 15 to 20)
#    0.000    2.000    0.000    5.000    2.333    0.000 
#    6.000    0.000    0.000    0.000    0.000    0.000 
#    0.000    0.000    0.000    0.000    0.000    0.000 
#
# Total GULP energy -133877.634924 kJ/mol
# GULP energy per Si atom -5578.234789 kJ/mol
# Density = 2.835310 g / cm^3
# Si number density = 28.417778 Si / 1000 Ang^3
#
#
#
# Elastic Constant Matrix: (Units=GPa)
#
#
# Indices 1 2 3 4 5 6 
#
# 1 128.4647 24.9174 12.7853 0.0000 -25.9146 0.0000
# 2 24.9174 153.6592 11.2152 0.0000 -17.5675 0.0000
# 3 12.7853 11.2152 51.5166 0.0000 -35.3463 0.0000
# 4 0.0000 0.0000 0.0000 22.4493 0.0000 -18.6049
# 5 -25.9146 -17.5675 -35.3463 0.0000 42.8381 0.0000
# 6 0.0000 0.0000 0.0000 -18.6049 0.0000 39.6669
#
#
#
# Elastic Compliance Matrix: (Units=1/GPa)
#
#
# Indices 1 2 3 4 5 6 
#
# 1 0.009232 -0.000824 0.003430 0.000000 0.008077 0.000000
# 2 -0.000824 0.006924 0.000699 0.000000 0.002918 0.000000
# 3 0.003430 0.000699 0.046161 0.000000 0.040450 0.000000
# 4 0.000000 0.000000 0.000000 0.072870 0.000000 0.034178
# 5 0.008077 0.002918 0.040450 0.000000 0.062802 0.000000
# 6 0.000000 0.000000 0.000000 0.034178 0.000000 0.041240
#
#
# Mechanical properties :
#
#
# Convention : Reuss Voigt Hill
#
# Bulk Modulus (GPa) = 14.50801 47.94183 31.22492
# Shear Modulus (GPa) = 19.56217 39.97235 29.76726
#
# Velocity S-wave (km/s) = 2.62654 3.75453 3.24000
# Velocity P-wave (km/s) = 3.78347 5.97514 5.00085
#
# Compressibility (1/GPa) = 0.06892746
#
# Stress axis : x y z
#
# Youngs Moduli (GPa) = 108.31818 144.42314 21.66334
#
# Poissons Ratio (x) = 0.11900 -0.07431
# Poissons Ratio (y) = 0.08925 -0.01515
# Poissons Ratio (z) = -0.37153 -0.10097
#
# Static dielectric constant tensor:
#      x y z
#    x 2.206220 0.000000 0.144700 
#    y 0.000000 -27.997680 0.000000 
#    z 0.144700 0.000000 -1.103270 
# 
# From -- ./inp_files/312039.got.cif
#   From: 2010.05.17/outbox.cif.g08.bks.cpg/sg15_157_cif.got.tgz:312039.got - 2010.06.03 18:47:42.
