data_PCOD9279781
_publ_section_title
;
Structure prediction by ZEFSAII (Michael W. Deem and Ramdas Pophale) SiO2 
 PCOD9279781
Probable space group: C 2/C
;
_chemical_formula_sum "Si O2"
_cell_formula_units_Z 64
_cell_length_a 7.584321
_cell_length_b 25.900327
_cell_length_c 14.533507
_cell_angle_alpha 90.000000
_cell_angle_beta 91.412086
_cell_angle_gamma 90.000000
_cell_volume 2854.042710
_symmetry_space_group_name_H-M "C 2/C"
_symmetry_group_IT_number 15
_symmetry_cell_setting 'monoclinic'
loop_
_space_group_symop_operation_xyz
x,y,z
-x,y,1/2-z
-x,-y,-z
x,-y,1/2+z
1/2+x,1/2+y,z
1/2-x,1/2+y,1/2-z
1/2-x,1/2-y,-z
1/2+x,1/2-y,1/2+z
loop_
_atom_site_type_symbol
_atom_site_label
_atom_site_fract_x
_atom_site_fract_y
_atom_site_fract_z
Si Si1 0.707373 0.464851 0.726103
Si Si2 0.302287 0.297929 0.936892
Si Si3 0.210163 0.492024 0.984831
Si Si4 0.218447 0.152535 0.251284
Si Si5 0.699167 0.888379 0.063961
Si Si6 0.807803 0.796866 0.564902
Si Si7 0.212437 0.397238 0.459971
Si Si8 0.712273 0.577880 0.749491
O O1 0.500000 0.464753 0.750000
O O2 0.745151 0.474124 0.618264
O O3 0.775386 0.407965 0.754658
O O4 0.780067 0.518960 0.767944
O O5 0.217487 0.319643 0.841540
O O6 0.495099 0.282966 0.905923
O O7 0.250000 0.250000 0.000000
O O8 0.296856 0.345864 0.006629
O O9 0.282004 0.549240 0.004619
O O10 0.278037 0.445064 0.046243
O O11 0.000000 0.500000 0.000000
O O12 0.280275 0.184949 0.340947
O O13 0.000000 0.150042 0.250000
O O14 0.496862 0.889308 0.028219
O O15 0.712961 0.883449 0.173281
O O16 0.750000 0.750000 0.500000
O O17 0.805087 0.847962 0.502567
O O18 0.235681 0.404955 0.351676
O O19 0.500000 0.577808 0.750000
#
# Coordination Sequence:
#
# PCOD9279781 Si02
#       8
#     8   8   8   8   8   8   8   8
#     4   9  17  35  58  91 127 161 217 268 317 388
#     4  11  23  42  67  92 121 165 219 268 327 388
#     4   9  19  35  59  89 131 165 209 259 324 398
#     4   9  20  39  64  91 119 161 211 266 324 380
#     4  11  21  38  62  88 127 168 211 258 323 392
#     4  11  24  43  65  91 127 164 217 277 325 386
#     4  10  22  40  59  89 128 169 208 256 326 388
#     4  10  21  36  58  93 127 166 212 263 314 378
#
# _framework density 22.424332
#
# number of rings (size 3 to 8) (size 9 to 14) (size 15 to 20)
#    0.000    2.000    1.250    1.875    1.750    1.000 
#    0.000    8.750    0.000    0.000    0.000    0.000 
#    0.000    0.000    0.000    0.000    0.000    0.000 
#
# Total GULP energy -178499.454963 kJ/mol
# GULP energy per Si atom -5578.107968 kJ/mol
# Density = 2.237329 g / cm^3
# Si number density = 22.424332 Si / 1000 Ang^3
#
#
#
# Elastic Constant Matrix: (Units=GPa)
#
#
# Indices 1 2 3 4 5 6 
#
# 1 61.8726 -3.1089 -6.8847 0.0000 -13.1784 0.0000
# 2 -3.1089 133.5685 71.2653 0.0000 -4.8536 0.0000
# 3 -6.8847 71.2653 132.3934 0.0000 -17.9123 0.0000
# 4 0.0000 0.0000 0.0000 30.8882 0.0000 -6.7037
# 5 -13.1784 -4.8536 -17.9123 0.0000 22.7494 0.0000
# 6 0.0000 0.0000 0.0000 -6.7037 0.0000 13.9581
#
#
#
# Elastic Compliance Matrix: (Units=1/GPa)
#
#
# Indices 1 2 3 4 5 6 
#
# 1 0.019396 -0.000808 0.003291 0.000000 0.013655 0.000000
# 2 -0.000808 0.010663 -0.006198 0.000000 -0.003073 0.000000
# 3 0.003291 -0.006198 0.012468 0.000000 0.010401 0.000000
# 4 0.000000 0.000000 0.000000 0.036142 0.000000 0.017358
# 5 0.013655 -0.003073 0.010401 0.000000 0.059401 0.000000
# 6 0.000000 0.000000 0.000000 0.017358 0.000000 0.079979
#
#
# Mechanical properties :
#
#
# Convention : Reuss Voigt Hill
#
# Bulk Modulus (GPa) = 28.49201 50.04199 39.26700
# Shear Modulus (GPa) = 21.08120 31.29000 26.18560
#
# Velocity S-wave (km/s) = 3.06944 3.73950 3.42092
# Velocity P-wave (km/s) = 5.02945 6.40387 5.75782
#
# Compressibility (1/GPa) = 0.03509756
#
# Stress axis : x y z
#
# Youngs Moduli (GPa) = 51.55634 93.78229 80.20755
#
# Poissons Ratio (x) = 0.07581 -0.26398
# Poissons Ratio (y) = 0.04168 0.49709
# Poissons Ratio (z) = -0.16968 0.58122
#
# Static dielectric constant tensor:
#      x y z
#    x 1.868420 0.000000 -0.003130 
#    y 0.000000 1.836540 0.000000 
#    z -0.003130 0.000000 1.874510 
# 
# From -- ./inp_files/137822.got.cif
#   From: 2010.05.17/outbox.cif.g08.bks.cpg/sg15_69_cif.got.tgz:137822.got - 2010.06.03 18:47:42.
