data_PCOD9279453
_publ_section_title
;
Structure prediction by ZEFSAII (Michael W. Deem and Ramdas Pophale) SiO2 
 PCOD9279453
Probable space group: C 2/C
;
_chemical_formula_sum "Si O2"
_cell_formula_units_Z 44
_cell_length_a 11.069859
_cell_length_b 20.766957
_cell_length_c 9.042606
_cell_angle_alpha 90.000000
_cell_angle_beta 89.539457
_cell_angle_gamma 90.000000
_cell_volume 2078.712996
_symmetry_space_group_name_H-M "C 2/C"
_symmetry_group_IT_number 15
_symmetry_cell_setting 'monoclinic'
loop_
_space_group_symop_operation_xyz
x,y,z
-x,y,1/2-z
-x,-y,-z
x,-y,1/2+z
1/2+x,1/2+y,z
1/2-x,1/2+y,1/2-z
1/2-x,1/2-y,-z
1/2+x,1/2-y,1/2+z
loop_
_atom_site_type_symbol
_atom_site_label
_atom_site_fract_x
_atom_site_fract_y
_atom_site_fract_z
Si Si1 0.904071 0.582075 0.866092
Si Si2 0.418258 0.855957 0.936708
Si Si3 0.134458 0.977574 0.025505
Si Si4 0.210305 0.547832 0.251341
Si Si5 0.713617 0.354633 0.195183
Si Si6 0.000000 0.755595 0.250000
O O1 0.872179 0.512048 0.801901
O O2 0.786466 0.625101 0.841350
O O3 0.000000 0.611241 0.750000
O O4 0.983505 0.590391 0.011253
O O5 0.354303 0.886068 0.792229
O O6 0.488072 0.791544 0.891676
O O7 0.312747 0.843763 0.061149
O O8 0.143130 0.918028 0.138349
O O9 0.230969 0.029609 0.091714
O O10 0.180609 0.955047 0.866451
O O11 0.000000 0.000000 0.000000
O O12 0.619147 0.299362 0.233880
#
# Coordination Sequence:
#
# PCOD9279453 Si02
#       6
#     8   8   8   8   8   4
#     4   9  19  37  62  85 122 153 193 259 316 357
#     4  10  22  38  58  91 121 156 205 256 299 357
#     4  10  21  37  62  88 124 158 198 255 308 363
#     4  10  21  35  60  93 123 151 200 257 309 364
#     4   9  22  41  57  87 119 163 202 249 308 358
#     4  12  24  36  64  80 128 170 210 240 292 388
#
# _framework density 21.166943
#
# number of rings (size 3 to 8) (size 9 to 14) (size 15 to 20)
#    0.000    2.182    0.000    2.727    8.909    0.727 
#    0.000    1.818    0.000    4.364    0.000    0.000 
#    0.000    0.000    0.000    0.000    0.000    0.000 
#
# Total GULP energy -122611.997618 kJ/mol
# GULP energy per Si atom -5573.272619 kJ/mol
# Density = 2.111877 g / cm^3
# Si number density = 21.166943 Si / 1000 Ang^3
#
#
#
# Elastic Constant Matrix: (Units=GPa)
#
#
# Indices 1 2 3 4 5 6 
#
# 1 130.0231 56.7957 29.1069 0.0000 6.7055 0.0000
# 2 56.7957 89.1524 13.0974 0.0000 8.6465 0.0000
# 3 29.1069 13.0974 74.7005 0.0000 -0.1937 0.0000
# 4 0.0000 0.0000 0.0000 19.4012 0.0000 -5.8091
# 5 6.7055 8.6465 -0.1937 0.0000 24.0899 0.0000
# 6 0.0000 0.0000 0.0000 -5.8091 0.0000 40.5456
#
#
#
# Elastic Compliance Matrix: (Units=1/GPa)
#
#
# Indices 1 2 3 4 5 6 
#
# 1 0.011389 -0.006699 -0.003265 0.000000 -0.000792 0.000000
# 2 -0.006699 0.015884 -0.000185 0.000000 -0.003838 0.000000
# 3 -0.003265 -0.000185 0.014694 0.000000 0.001093 0.000000
# 4 0.000000 0.000000 0.000000 0.053853 0.000000 0.007716
# 5 -0.000792 -0.003838 0.001093 0.000000 0.043118 0.000000
# 6 0.000000 0.000000 0.000000 0.007716 0.000000 0.025769
#
#
# Mechanical properties :
#
#
# Convention : Reuss Voigt Hill
#
# Bulk Modulus (GPa) = 46.14809 54.65288 50.40048
# Shear Modulus (GPa) = 26.01078 29.79908 27.90493
#
# Velocity S-wave (km/s) = 3.50928 3.75615 3.63481
# Velocity P-wave (km/s) = 6.18623 6.68487 6.44038
#
# Compressibility (1/GPa) = 0.02166937
#
# Stress axis : x y z
#
# Youngs Moduli (GPa) = 87.80472 62.95743 68.05374
#
# Poissons Ratio (x) = 0.42175 0.22221
# Poissons Ratio (y) = 0.58820 0.01257
# Poissons Ratio (z) = 0.28670 0.01163
#
# Static dielectric constant tensor:
#      x y z
#    x 1.802240 0.000000 -0.044300 
#    y 0.000000 1.776460 0.000000 
#    z -0.044300 0.000000 1.863820 
# 
# From -- ./inp_files/30931.got.cif
#   From: 2010.05.17/outbox.cif.g08.bks.cpg/sg15_16_cif.got.tgz:30931.got - 2010.06.03 18:47:42.
