data_PCOD9279221
_publ_section_title
;
Structure prediction by ZEFSAII (Michael W. Deem and Ramdas Pophale) SiO2 
 PCOD9279221
Probable space group: C 2/C
;
_chemical_formula_sum "Si O2"
_cell_formula_units_Z 48
_cell_length_a 14.543489
_cell_length_b 23.348398
_cell_length_c 19.802352
_cell_angle_alpha 90.000000
_cell_angle_beta 22.321552
_cell_angle_gamma 90.000000
_cell_volume 2553.889958
_symmetry_space_group_name_H-M "C 2/C"
_symmetry_group_IT_number 15
_symmetry_cell_setting 'monoclinic'
loop_
_space_group_symop_operation_xyz
x,y,z
-x,y,1/2-z
-x,-y,-z
x,-y,1/2+z
1/2+x,1/2+y,z
1/2-x,1/2+y,1/2-z
1/2-x,1/2-y,-z
1/2+x,1/2-y,1/2+z
loop_
_atom_site_type_symbol
_atom_site_label
_atom_site_fract_x
_atom_site_fract_y
_atom_site_fract_z
Si Si1 0.619471 0.499717 0.099649
Si Si2 0.613200 0.713801 0.249415
Si Si3 0.732454 0.878669 0.043148
Si Si4 0.912890 0.073110 0.621485
Si Si5 0.118148 0.524194 0.244262
Si Si6 0.446895 0.172139 0.622180
O O1 0.500000 0.517693 0.250000
O O2 0.463895 0.459171 0.157105
O O3 0.664052 0.557670 0.026480
O O4 0.867723 0.467491 0.953271
O O5 0.500000 0.721034 0.250000
O O6 0.443520 0.668608 0.404867
O O7 0.598605 0.773221 0.299106
O O8 0.889683 0.692852 0.051599
O O9 0.500000 0.871334 0.250000
O O10 0.629026 0.869410 0.038630
O O11 0.793671 0.133962 0.718521
O O12 0.171458 0.071132 0.406691
O O13 0.741382 0.032315 0.692170
O O14 0.000000 0.517499 0.250000
#
# Coordination Sequence:
#
# PCOD9279221 Si02
#       6
#     8   8   8   8   8   8
#     4  11  22  37  55  85 123 151 187 239 289 340
#     4  10  21  35  52  83 113 155 190 224 297 344
#     4  11  20  34  55  79 119 157 182 229 284 352
#     4  10  21  35  59  83 114 155 195 226 288 345
#     4   9  19  37  54  84 114 149 190 226 281 344
#     4  11  20  36  54  82 115 148 187 237 277 356
#
# _framework density 18.794858000000001
#
# number of rings (size 3 to 8) (size 9 to 14) (size 15 to 20)
#    0.000    1.667    1.667    6.500    2.333    1.333 
#    0.000    0.000    0.000    0.000    0.000   15.167 
#    0.000    0.000    0.000    0.000    0.000    0.000 
#
# Total GULP energy -133672.862844 kJ/mol
# GULP energy per Si atom -5569.702618 kJ/mol
# Density = 1.875208 g / cm^3
# Si number density = 18.794858 Si / 1000 Ang^3
#
#
#
# Elastic Constant Matrix: (Units=GPa)
#
#
# Indices 1 2 3 4 5 6 
#
# 1 35.5813 17.4685 36.7507 -0.0709 -4.0262 0.0775
# 2 17.4685 129.6808 75.7156 -0.1284 -1.7090 0.1676
# 3 36.7507 75.7156 142.2149 -0.1468 9.0236 0.0297
# 4 -0.0709 -0.1284 -0.1468 39.8894 0.1942 -10.2203
# 5 -4.0262 -1.7090 9.0236 0.1942 30.5529 -0.0759
# 6 0.0775 0.1676 0.0297 -10.2203 -0.0759 16.2515
#
#
#
# Elastic Compliance Matrix: (Units=1/GPa)
#
#
# Indices 1 2 3 4 5 6 
#
# 1 0.040654 0.001608 -0.011931 -0.000057 0.008971 -0.000183
# 2 0.001608 0.011433 -0.006682 -0.000029 0.002825 -0.000118
# 3 -0.011931 -0.006682 0.014059 0.000068 -0.006099 0.000114
# 4 -0.000057 -0.000029 0.000068 0.029886 -0.000172 0.018794
# 5 0.008971 0.002825 -0.006099 -0.000172 0.035873 -0.000002
# 6 -0.000183 -0.000118 0.000114 0.018794 -0.000002 0.073354
#
#
# Mechanical properties :
#
#
# Convention : Reuss Voigt Hill
#
# Bulk Modulus (GPa) = 31.11701 63.03851 47.07776
# Shear Modulus (GPa) = 20.00161 29.17491 24.58826
#
# Velocity S-wave (km/s) = 3.26576 3.94417 3.62089
# Velocity P-wave (km/s) = 5.55088 7.37259 6.52562
#
# Compressibility (1/GPa) = 0.03213676
#
# Stress axis : x y z
#
# Youngs Moduli (GPa) = 24.59803 87.46378 71.12727
#
# Poissons Ratio (x) = -0.14067 0.84862
# Poissons Ratio (y) = -0.03956 0.47527
# Poissons Ratio (z) = 0.29348 0.58443
#
# Static dielectric constant tensor:
#      x y z
#    x 1.671170 -0.000020 0.032680 
#    y -0.000020 1.656960 0.000210 
#    z 0.032680 0.000210 1.818060 
# 
# From -- ./inp_files/245630.got.cif
#   From: 2010.05.17/outbox.cif.g08.bks.cpg/sg15_123_cif.got.tgz:245630.got - 2010.06.03 18:47:42.
