data_PCOD9279684
_publ_section_title
;
Structure prediction by ZEFSAII (Michael W. Deem and Ramdas Pophale) SiO2 
 PCOD9279684
Probable space group: C 2/C
;
_chemical_formula_sum "Si O2"
_cell_formula_units_Z 56
_cell_length_a 9.319653
_cell_length_b 11.451752
_cell_length_c 23.158548
_cell_angle_alpha 90.000000
_cell_angle_beta 77.357374
_cell_angle_gamma 90.000000
_cell_volume 2411.700831
_symmetry_space_group_name_H-M "C 2/C"
_symmetry_group_IT_number 15
_symmetry_cell_setting 'monoclinic'
loop_
_space_group_symop_operation_xyz
x,y,z
-x,y,1/2-z
-x,-y,-z
x,-y,1/2+z
1/2+x,1/2+y,z
1/2-x,1/2+y,1/2-z
1/2-x,1/2-y,-z
1/2+x,1/2-y,1/2+z
loop_
_atom_site_type_symbol
_atom_site_label
_atom_site_fract_x
_atom_site_fract_y
_atom_site_fract_z
Si Si1 0.678595 0.170613 0.098214
Si Si2 0.981430 0.909465 0.936907
Si Si3 0.472514 0.674684 0.551589
Si Si4 0.491524 0.336256 0.810603
Si Si5 0.796545 0.782656 0.181427
Si Si6 0.954791 0.463708 0.686911
Si Si7 0.756352 0.827205 0.306851
O O1 0.846857 0.133321 0.073841
O O2 0.587051 0.219604 0.051781
O O3 0.597337 0.062035 0.135614
O O4 0.658411 0.281144 0.144893
O O5 0.938232 0.892607 0.874169
O O6 0.906062 0.830638 0.992889
O O7 0.956088 0.045691 0.951251
O O8 0.360061 0.676663 0.615030
O O9 0.500000 0.406479 0.750000
O O10 0.379046 0.229900 0.808957
O O11 0.652917 0.286239 0.806164
O O12 0.859807 0.653867 0.187867
O O13 0.830549 0.849966 0.238070
O O14 0.853298 0.566979 0.672797
O O15 0.000000 0.477647 0.750000
#
# Coordination Sequence:
#
# PCOD9279684 Si02
#       7
#     8   8   8   8   8   8   8
#     4  10  22  41  61  89 122 155 202 254 289 357
#     4  10  22  41  62  82 120 163 194 244 303 347
#     4  10  23  38  60  87 114 164 203 236 299 355
#     4   9  20  37  57  89 116 151 198 243 306 355
#     4  10  21  36  56  90 123 150 204 247 290 363
#     4  11  21  35  60  89 123 158 195 244 312 346
#     4  10  21  36  60  89 123 158 195 247 306 354
#
# _framework density 23.220127000000002
#
# number of rings (size 3 to 8) (size 9 to 14) (size 15 to 20)
#    0.000    2.000    1.429    1.714    6.000    0.571 
#    0.000    0.000    0.000    4.286    0.000    0.000 
#    0.000    0.000    0.000    0.000    0.000    0.000 
#
# Total GULP energy -156210.078113 kJ/mol
# GULP energy per Si atom -5578.931361 kJ/mol
# Density = 2.316728 g / cm^3
# Si number density = 23.220127 Si / 1000 Ang^3
#
#
#
# Elastic Constant Matrix: (Units=GPa)
#
#
# Indices 1 2 3 4 5 6 
#
# 1 38.3968 -2.1473 16.4981 0.0000 -8.3179 0.0000
# 2 -2.1473 61.8200 28.8185 0.0000 3.1039 0.0000
# 3 16.4981 28.8185 143.0785 0.0000 2.2119 0.0000
# 4 0.0000 0.0000 0.0000 33.5650 0.0000 -3.2305
# 5 -8.3179 3.1039 2.2119 0.0000 31.1931 0.0000
# 6 0.0000 0.0000 0.0000 -3.2305 0.0000 36.0260
#
#
#
# Elastic Compliance Matrix: (Units=1/GPa)
#
#
# Indices 1 2 3 4 5 6 
#
# 1 0.029644 0.002518 -0.004048 0.000000 0.007941 0.000000
# 2 0.002518 0.018139 -0.003931 0.000000 -0.000855 0.000000
# 3 -0.004048 -0.003931 0.008267 0.000000 -0.001275 0.000000
# 4 0.000000 0.000000 0.000000 0.030052 0.000000 0.002695
# 5 0.007941 -0.000855 -0.001275 0.000000 0.034351 0.000000
# 6 0.000000 0.000000 0.000000 0.002695 0.000000 0.027999
#
#
# Mechanical properties :
#
#
# Convention : Reuss Voigt Hill
#
# Bulk Modulus (GPa) = 22.15865 36.62597 29.39231
# Shear Modulus (GPa) = 28.66678 33.49857 31.08268
#
# Velocity S-wave (km/s) = 3.51745 3.80235 3.66267
# Velocity P-wave (km/s) = 5.10492 5.92324 5.52924
#
# Compressibility (1/GPa) = 0.04512911
#
# Stress axis : x y z
#
# Youngs Moduli (GPa) = 33.73315 55.13081 120.95776
#
# Poissons Ratio (x) = -0.13883 0.48966
# Poissons Ratio (y) = -0.08494 0.47543
# Poissons Ratio (z) = 0.13656 0.21670
#
# Static dielectric constant tensor:
#      x y z
#    x 1.916660 0.000000 0.032330 
#    y 0.000000 1.841650 0.000000 
#    z 0.032330 0.000000 2.018850 
# 
# From -- ./inp_files/236974.got.cif
#   From: 2010.05.17/outbox.cif.g08.bks.cpg/sg15_119_cif.got.tgz:236974.got - 2010.06.03 18:47:42.
