data_PCOD9279245
_publ_section_title
;
Structure prediction by ZEFSAII (Michael W. Deem and Ramdas Pophale) SiO2 
 PCOD9279245
Probable space group: C 2/C
;
_chemical_formula_sum "Si O2"
_cell_formula_units_Z 48
_cell_length_a 23.735359
_cell_length_b 10.045678
_cell_length_c 13.120338
_cell_angle_alpha 90.000000
_cell_angle_beta 141.755550
_cell_angle_gamma 90.000000
_cell_volume 1936.525733
_symmetry_space_group_name_H-M "C 2/C"
_symmetry_group_IT_number 15
_symmetry_cell_setting 'monoclinic'
loop_
_space_group_symop_operation_xyz
x,y,z
-x,y,1/2-z
-x,-y,-z
x,-y,1/2+z
1/2+x,1/2+y,z
1/2-x,1/2+y,1/2-z
1/2-x,1/2-y,-z
1/2+x,1/2-y,1/2+z
loop_
_atom_site_type_symbol
_atom_site_label
_atom_site_fract_x
_atom_site_fract_y
_atom_site_fract_z
Si Si1 0.725344 0.813284 0.620666
Si Si2 0.566348 0.291499 0.636161
Si Si3 0.436788 0.566254 0.800651
Si Si4 0.779607 0.080213 0.753260
Si Si5 0.158073 0.717587 0.428501
Si Si6 0.425120 0.952572 0.230271
O O1 0.825311 0.782244 0.721323
O O2 0.685767 0.678493 0.610908
O O3 0.660913 0.878059 0.444488
O O4 0.744763 0.932686 0.729504
O O5 0.544635 0.410362 0.685876
O O6 0.518266 0.351031 0.467750
O O7 0.537137 0.145256 0.629523
O O8 0.355809 0.569332 0.772598
O O9 0.399881 0.648319 0.653005
O O10 0.690834 0.155248 0.580824
O O11 0.250000 0.750000 0.500000
O O12 0.106874 0.601941 0.292511
O O13 0.500000 0.965409 0.250000
#
# Coordination Sequence:
#
# PCOD9279245 Si02
#       6
#     8   8   8   8   8   8
#     4  10  21  35  54  80 113 147 187 235 285 342
#     4  10  21  37  57  83 114 151 192 235 285 342
#     4   9  19  37  57  80 113 150 191 234 281 340
#     4   9  19  35  54  80 110 144 186 234 283 336
#     4   9  20  38  58  81 113 150 188 236 289 342
#     4  11  23  38  58  86 115 146 192 243 286 341
#
# _framework density 24.786657000000002
#
# number of rings (size 3 to 8) (size 9 to 14) (size 15 to 20)
#    0.000    2.333    0.000    2.500    0.000    7.333 
#    0.000    0.833    0.000    0.000    0.000    0.000 
#    0.000    0.000    0.000    0.000    0.000    0.000 
#
# Total GULP energy -134113.299876 kJ/mol
# GULP energy per Si atom -5588.054161 kJ/mol
# Density = 2.473024 g / cm^3
# Si number density = 24.786657 Si / 1000 Ang^3
#
#
#
# Elastic Constant Matrix: (Units=GPa)
#
#
# Indices 1 2 3 4 5 6 
#
# 1 44.6293 20.0917 9.1918 0.0000 17.9147 0.0000
# 2 20.0917 121.4174 3.6136 0.0000 -6.1204 0.0000
# 3 9.1918 3.6136 66.0176 0.0000 10.4642 0.0000
# 4 0.0000 0.0000 0.0000 46.8471 0.0000 -4.4205
# 5 17.9147 -6.1204 10.4642 0.0000 26.8599 0.0000
# 6 0.0000 0.0000 0.0000 -4.4205 0.0000 19.9956
#
#
#
# Elastic Compliance Matrix: (Units=1/GPa)
#
#
# Indices 1 2 3 4 5 6 
#
# 1 0.035977 -0.007217 -0.000586 0.000000 -0.025412 0.000000
# 2 -0.007217 0.009820 -0.000693 0.000000 0.007321 0.000000
# 3 -0.000586 -0.000693 0.016232 0.000000 -0.006091 0.000000
# 4 0.000000 0.000000 0.000000 0.021801 0.000000 0.004820
# 5 -0.025412 0.007321 -0.006091 0.000000 0.058220 0.000000
# 6 0.000000 0.000000 0.000000 0.004820 0.000000 0.051076
#
#
# Mechanical properties :
#
#
# Convention : Reuss Voigt Hill
#
# Bulk Modulus (GPa) = 22.20397 33.09537 27.64967
# Shear Modulus (GPa) = 22.20924 32.01833 27.11379
#
# Velocity S-wave (km/s) = 2.99660 3.59800 3.31098
# Velocity P-wave (km/s) = 4.57715 5.53551 5.07899
#
# Compressibility (1/GPa) = 0.04503700
#
# Stress axis : x y z
#
# Youngs Moduli (GPa) = 27.79552 101.83352 61.60490
#
# Poissons Ratio (x) = 0.73492 0.03611
# Poissons Ratio (y) = 0.20060 0.04270
# Poissons Ratio (z) = 0.01629 0.07058
#
# Static dielectric constant tensor:
#      x y z
#    x 1.976350 0.000000 -0.039120 
#    y 0.000000 2.032520 0.000000 
#    z -0.039120 0.000000 2.015200 
# 
# From -- ./inp_files/208933.got.cif
#   From: 2010.05.17/outbox.cif.g08.bks.cpg/sg15_105_cif.got.tgz:208933.got - 2010.06.03 18:47:42.
