data_PCOD9279866
_publ_section_title
;
Structure prediction by ZEFSAII (Michael W. Deem and Ramdas Pophale) SiO2 
 PCOD9279866
Probable space group: C 2/C
;
_chemical_formula_sum "Si O2"
_cell_formula_units_Z 48
_cell_length_a 5.732833
_cell_length_b 23.232473
_cell_length_c 15.518518
_cell_angle_alpha 90.000000
_cell_angle_beta 98.174968
_cell_angle_gamma 90.000000
_cell_volume 2045.875944
_symmetry_space_group_name_H-M "C 2/C"
_symmetry_group_IT_number 15
_symmetry_cell_setting 'monoclinic'
loop_
_space_group_symop_operation_xyz
x,y,z
-x,y,1/2-z
-x,-y,-z
x,-y,1/2+z
1/2+x,1/2+y,z
1/2-x,1/2+y,1/2-z
1/2-x,1/2-y,-z
1/2+x,1/2-y,1/2+z
loop_
_atom_site_type_symbol
_atom_site_label
_atom_site_fract_x
_atom_site_fract_y
_atom_site_fract_z
Si Si1 0.641316 0.498337 0.339221
Si Si2 0.636563 0.822657 0.039824
Si Si3 0.205922 0.385806 0.587980
Si Si4 0.500000 0.161022 0.250000
Si Si5 0.930956 0.119271 0.846540
Si Si6 0.000000 0.578600 0.750000
Si Si7 0.616511 0.709605 0.119865
O O1 0.500000 0.524528 0.250000
O O2 0.704901 0.549207 0.405751
O O3 0.488149 0.447312 0.372321
O O4 0.851817 0.463219 0.304499
O O5 0.889439 0.842666 0.090019
O O6 0.526638 0.773682 0.095389
O O7 0.456981 0.872453 0.002344
O O8 0.695608 0.797584 0.948023
O O9 0.416944 0.338981 0.601206
O O10 0.065354 0.377319 0.670789
O O11 0.272780 0.199450 0.213085
O O12 0.000000 0.128258 0.750000
O O13 0.651949 0.119357 0.820403
#
# Coordination Sequence:
#
# PCOD9279866 Si02
#       7
#     8   8   8   4   8   4   8
#     4   9  18  33  57  87 118 152 200 250 297 368
#     4  10  23  39  57  85 124 157 201 255 299 366
#     4  11  21  38  62  89 121 158 198 250 310 363
#     4  10  21  36  60  90 108 154 206 247 292 358
#     4   9  20  37  59  87 117 158 204 251 302 362
#     4   8  17  36  58  86 122 156 200 249 312 356
#     4  10  22  39  59  83 121 159 201 251 307 355
#
# _framework density 23.461832999999999
#
# number of rings (size 3 to 8) (size 9 to 14) (size 15 to 20)
#    0.000    2.667    0.000    2.500    1.167    7.333 
#    0.000    1.667    0.000    0.000    0.000    0.000 
#    0.000    0.000    0.000    0.000    0.000    0.000 
#
# Total GULP energy -133914.449075 kJ/mol
# GULP energy per Si atom -5579.768711 kJ/mol
# Density = 2.340843 g / cm^3
# Si number density = 23.461833 Si / 1000 Ang^3
#
#
#
# Elastic Constant Matrix: (Units=GPa)
#
#
# Indices 1 2 3 4 5 6 
#
# 1 50.3047 -1.5853 12.3413 0.0000 18.1436 0.0000
# 2 -1.5853 72.2344 20.4648 0.0000 6.5002 0.0000
# 3 12.3413 20.4648 96.7791 0.0000 16.5008 0.0000
# 4 0.0000 0.0000 0.0000 11.3094 0.0000 15.7515
# 5 18.1436 6.5002 16.5008 0.0000 40.1096 0.0000
# 6 0.0000 0.0000 0.0000 15.7515 0.0000 8.2239
#
#
#
# Elastic Compliance Matrix: (Units=1/GPa)
#
#
# Indices 1 2 3 4 5 6 
#
# 1 0.024162 0.001960 -0.001697 0.000000 -0.010549 0.000000
# 2 0.001960 0.014938 -0.003059 0.000000 -0.002049 0.000000
# 3 -0.001697 -0.003059 0.011809 0.000000 -0.003595 0.000000
# 4 0.000000 0.000000 0.000000 -0.053022 0.000000 0.101555
# 5 -0.010549 -0.002049 -0.003595 0.000000 0.031514 0.000000
# 6 0.000000 0.000000 0.000000 0.101555 0.000000 -0.072916
#
#
# Mechanical properties :
#
#
# Convention : Reuss Voigt Hill
#
# Bulk Modulus (GPa) = 22.06697 31.30667 26.68682
# Shear Modulus (GPa) = -219.13964 24.46840 -97.33562
#
# Velocity S-wave (km/s) = -9.67499 3.23290 -6.44801
# Velocity P-wave (km/s) = 10.74157 5.22572 6.63600
#
# Compressibility (1/GPa) = 0.04531660
#
# Stress axis : x y z
#
# Youngs Moduli (GPa) = 41.38775 66.94337 84.68087
#
# Poissons Ratio (x) = -0.13123 0.14371
# Poissons Ratio (y) = -0.08113 0.25907
# Poissons Ratio (z) = 0.07024 0.20481
#
# Static dielectric constant tensor:
#      x y z
#    x 2.034400 0.000000 0.016640 
#    y 0.000000 1.926800 0.000000 
#    z 0.016640 0.000000 1.890250 
# 
# From -- ./inp_files/185488.got.cif
#   From: 2010.05.17/outbox.cif.g08.bks.cpg/sg15_93_cif.got.tgz:185488.got - 2010.06.03 18:47:42.
