data_PCOD9279604
_publ_section_title
;
Structure prediction by ZEFSAII (Michael W. Deem and Ramdas Pophale) SiO2 
 PCOD9279604
Probable space group: C 2/C
;
_chemical_formula_sum "Si O2"
_cell_formula_units_Z 52
_cell_length_a 10.806149
_cell_length_b 9.086743
_cell_length_c 28.461380
_cell_angle_alpha 90.000000
_cell_angle_beta 118.092127
_cell_angle_gamma 90.000000
_cell_volume 2465.460554
_symmetry_space_group_name_H-M "C 2/C"
_symmetry_group_IT_number 15
_symmetry_cell_setting 'monoclinic'
loop_
_space_group_symop_operation_xyz
x,y,z
-x,y,1/2-z
-x,-y,-z
x,-y,1/2+z
1/2+x,1/2+y,z
1/2-x,1/2+y,1/2-z
1/2-x,1/2-y,-z
1/2+x,1/2-y,1/2+z
loop_
_atom_site_type_symbol
_atom_site_label
_atom_site_fract_x
_atom_site_fract_y
_atom_site_fract_z
Si Si1 0.500000 0.983520 0.250000
Si Si2 0.439768 0.524080 0.386646
Si Si3 0.500462 0.108826 0.352112
Si Si4 0.197117 0.830978 0.444564
Si Si5 0.643915 0.138702 0.614941
Si Si6 0.764724 0.699203 0.674597
Si Si7 0.925256 0.019897 0.187091
O O1 0.527629 0.069343 0.302950
O O2 0.637921 0.882125 0.270176
O O3 0.582264 0.458401 0.434446
O O4 0.402441 0.692381 0.388773
O O5 0.308799 0.416970 0.373328
O O6 0.467464 0.497769 0.336050
O O7 0.465762 0.967012 0.378218
O O8 0.615862 0.209114 0.398248
O O9 0.357047 0.202029 0.325571
O O10 0.250000 0.750000 0.500000
O O11 0.323181 0.890884 0.434340
O O12 0.796260 0.094823 0.663961
O O13 0.862141 0.818002 0.666445
O O14 0.000000 0.017311 0.250000
#
# Coordination Sequence:
#
# PCOD9279604 Si02
#       7
#     4   8   8   8   8   8   8
#     4  12  22  34  60  92 126 160 202 246 292 382
#     4  10  22  39  59  90 120 157 203 250 305 359
#     4  10  24  41  60  93 124 164 204 248 311 371
#     4  10  23  46  66  88 121 159 213 269 311 361
#     4  10  22  40  61  89 122 157 204 253 306 363
#     4  10  22  36  54  83 124 164 197 238 293 360
#     4  10  21  36  54  85 124 165 201 235 287 365
#
# _framework density 21.091394999999999
#
# number of rings (size 3 to 8) (size 9 to 14) (size 15 to 20)
#    0.000    1.846    0.769    1.846    4.308    2.462 
#   16.615    0.769    0.000    0.000    0.000    0.000 
#    0.000    0.000    0.000    0.000    0.000    0.000 
#
# Total GULP energy -145144.899535 kJ/mol
# GULP energy per Si atom -5582.496136 kJ/mol
# Density = 2.104339 g / cm^3
# Si number density = 21.091395 Si / 1000 Ang^3
#
#
#
# Elastic Constant Matrix: (Units=GPa)
#
#
# Indices 1 2 3 4 5 6 
#
# 1 49.7379 25.7953 21.2165 0.0000 -2.2796 0.0000
# 2 25.7953 127.2304 12.1613 0.0000 9.8766 0.0000
# 3 21.2165 12.1613 65.9690 0.0000 -2.6378 0.0000
# 4 0.0000 0.0000 0.0000 20.0772 0.0000 7.4264
# 5 -2.2796 9.8766 -2.6378 0.0000 15.7191 0.0000
# 6 0.0000 0.0000 0.0000 7.4264 0.0000 33.7890
#
#
#
# Elastic Compliance Matrix: (Units=1/GPa)
#
#
# Indices 1 2 3 4 5 6 
#
# 1 0.026063 -0.005039 -0.007224 0.000000 0.005733 0.000000
# 2 -0.005039 0.009441 -0.000389 0.000000 -0.006728 0.000000
# 3 -0.007224 -0.000389 0.017640 0.000000 0.002157 0.000000
# 4 0.000000 0.000000 0.000000 0.054215 0.000000 -0.011916
# 5 0.005733 -0.006728 0.002157 0.000000 0.069037 0.000000
# 6 0.000000 0.000000 0.000000 -0.011916 0.000000 0.032214
#
#
# Mechanical properties :
#
#
# Convention : Reuss Voigt Hill
#
# Bulk Modulus (GPa) = 35.91910 40.14260 38.03085
# Shear Modulus (GPa) = 20.55973 26.16800 23.36386
#
# Velocity S-wave (km/s) = 3.12555 3.52617 3.33189
# Velocity P-wave (km/s) = 5.48568 5.97097 5.73346
#
# Compressibility (1/GPa) = 0.02784034
#
# Stress axis : x y z
#
# Youngs Moduli (GPa) = 38.36873 105.92371 56.68962
#
# Poissons Ratio (x) = 0.53372 0.40953
# Poissons Ratio (y) = 0.19333 0.02205
# Poissons Ratio (z) = 0.27718 0.04119
#
# Static dielectric constant tensor:
#      x y z
#    x 1.818190 0.000000 -0.008440 
#    y 0.000000 1.818570 0.000000 
#    z -0.008440 0.000000 1.722450 
# 
# From -- ./inp_files/291117.got.cif
#   From: 2010.05.17/outbox.cif.g08.bks.cpg/sg15_146_cif.got.tgz:291117.got - 2010.06.03 18:47:42.
