data_PCOD9279183
_publ_section_title
;
Structure prediction by ZEFSAII (Michael W. Deem and Ramdas Pophale) SiO2 
 PCOD9279183
Probable space group: C 2/C
;
_chemical_formula_sum "Si O2"
_cell_formula_units_Z 40
_cell_length_a 13.255471
_cell_length_b 23.423174
_cell_length_c 11.286743
_cell_angle_alpha 90.000000
_cell_angle_beta 147.324251
_cell_angle_gamma 90.000000
_cell_volume 1891.951842
_symmetry_space_group_name_H-M "C 2/C"
_symmetry_group_IT_number 15
_symmetry_cell_setting 'monoclinic'
loop_
_space_group_symop_operation_xyz
x,y,z
-x,y,1/2-z
-x,-y,-z
x,-y,1/2+z
1/2+x,1/2+y,z
1/2-x,1/2+y,1/2-z
1/2-x,1/2-y,-z
1/2+x,1/2-y,1/2+z
loop_
_atom_site_type_symbol
_atom_site_label
_atom_site_fract_x
_atom_site_fract_y
_atom_site_fract_z
Si Si1 0.395863 0.212083 0.018223
Si Si2 0.755091 0.332331 0.721686
Si Si3 0.297814 0.022177 0.837846
Si Si4 0.786566 0.107935 0.556811
Si Si5 0.018276 0.919802 0.627208
O O1 0.500000 0.216836 0.250000
O O2 0.530114 0.186513 0.048376
O O3 0.332119 0.273993 0.915467
O O4 0.234904 0.166078 0.887859
O O5 0.780242 0.377421 0.639756
O O6 0.616901 0.361781 0.677499
O O7 0.316662 0.058882 0.975850
O O8 0.178833 0.062485 0.629390
O O9 0.163486 0.969049 0.732720
O O10 0.500000 0.000000 0.000000
O O11 0.000000 0.090935 0.750000
O O12 0.000000 0.918497 0.750000
#
# Coordination Sequence:
#
# PCOD9279183 Si02
#       5
#     8   8   8   8   8
#     4  10  21  34  63 101 128 160 216 276 340 385
#     4  11  21  39  64  95 131 170 215 278 332 388
#     4  11  25  44  70  94 127 175 223 274 332 399
#     4  11  19  37  66  95 125 161 215 278 335 381
#     4  11  26  45  63  95 134 176 221 274 328 395
#
# _framework density 21.142187
#
# number of rings (size 3 to 8) (size 9 to 14) (size 15 to 20)
#    0.000    1.200    2.000    6.000    2.800    0.800 
#    0.000    1.000    0.000    0.000    0.000    0.000 
#    0.000    0.000    0.000    0.000    0.000    0.000 
#
# Total GULP energy -111702.651504 kJ/mol
# GULP energy per Si atom -5585.132575 kJ/mol
# Density = 2.109407 g / cm^3
# Si number density = 21.142187 Si / 1000 Ang^3
#
#
#
# Elastic Constant Matrix: (Units=GPa)
#
#
# Indices 1 2 3 4 5 6 
#
# 1 148.5824 63.0207 59.2198 0.0000 27.4174 0.0000
# 2 63.0207 83.9351 12.5300 0.0000 11.6197 0.0000
# 3 59.2198 12.5300 55.5812 0.0000 22.1976 0.0000
# 4 0.0000 0.0000 0.0000 22.2372 0.0000 9.2182
# 5 27.4174 11.6197 22.1976 0.0000 34.7112 0.0000
# 6 0.0000 0.0000 0.0000 9.2182 0.0000 27.6272
#
#
#
# Elastic Compliance Matrix: (Units=1/GPa)
#
#
# Indices 1 2 3 4 5 6 
#
# 1 0.018160 -0.011138 -0.016920 0.000000 0.000204 0.000000
# 2 -0.011138 0.019422 0.008825 0.000000 -0.003348 0.000000
# 3 -0.016920 0.008825 0.040118 0.000000 -0.015245 0.000000
# 4 0.000000 0.000000 0.000000 0.052188 0.000000 -0.017413
# 5 0.000204 -0.003348 -0.015245 0.000000 0.039518 0.000000
# 6 0.000000 0.000000 0.000000 -0.017413 0.000000 0.042006
#
#
# Mechanical properties :
#
#
# Convention : Reuss Voigt Hill
#
# Bulk Modulus (GPa) = 25.48639 61.95999 43.72319
# Shear Modulus (GPa) = 19.01459 27.13700 23.07580
#
# Velocity S-wave (km/s) = 3.00220 3.58655 3.30731
# Velocity P-wave (km/s) = 4.90902 6.82064 5.94220
#
# Compressibility (1/GPa) = 0.03923663
#
# Stress axis : x y z
#
# Youngs Moduli (GPa) = 55.06544 51.48683 24.92648
#
# Poissons Ratio (x) = 0.57344 0.42175
# Poissons Ratio (y) = 0.61330 -0.21999
# Poissons Ratio (z) = 0.93170 -0.45439
#
# Static dielectric constant tensor:
#      x y z
#    x 1.791270 0.000000 0.070850 
#    y 0.000000 1.801770 0.000000 
#    z 0.070850 0.000000 1.892820 
# 
# From -- ./inp_files/91027.got.cif
#   From: 2010.05.17/outbox.cif.g08.bks.cpg/sg15_46_cif.got.tgz:91027.got - 2010.06.03 18:47:42.
