data_PCOD9279179
_publ_section_title
;
Structure prediction by ZEFSAII (Michael W. Deem and Ramdas Pophale) SiO2 
 PCOD9279179
Probable space group: C 2/C
;
_chemical_formula_sum "Si O2"
_cell_formula_units_Z 36
_cell_length_a 14.202850
_cell_length_b 20.513991
_cell_length_c 8.572291
_cell_angle_alpha 90.000000
_cell_angle_beta 38.814759
_cell_angle_gamma 90.000000
_cell_volume 1565.505875
_symmetry_space_group_name_H-M "C 2/C"
_symmetry_group_IT_number 15
_symmetry_cell_setting 'monoclinic'
loop_
_space_group_symop_operation_xyz
x,y,z
-x,y,1/2-z
-x,-y,-z
x,-y,1/2+z
1/2+x,1/2+y,z
1/2-x,1/2+y,1/2-z
1/2-x,1/2-y,-z
1/2+x,1/2-y,1/2+z
loop_
_atom_site_type_symbol
_atom_site_label
_atom_site_fract_x
_atom_site_fract_y
_atom_site_fract_z
Si Si1 0.056921 0.868137 0.836401
Si Si2 0.601346 0.811867 0.465862
Si Si3 0.312524 0.189709 0.164817
Si Si4 0.000000 0.002391 0.250000
Si Si5 0.187158 0.885686 0.122944
O O1 0.000000 0.836356 0.750000
O O2 0.230284 0.852785 0.638054
O O3 0.010210 0.944121 0.875286
O O4 0.960209 0.851387 0.112980
O O5 0.500000 0.794141 0.750000
O O6 0.490147 0.811178 0.461594
O O7 0.731339 0.759407 0.266946
O O8 0.687157 0.879176 0.402523
O O9 0.254607 0.156249 0.398147
O O10 0.137683 0.953869 0.109018
#
# Coordination Sequence:
#
# PCOD9279179 Si02
#       5
#     8   8   8   4   8
#     4  10  22  36  58  85 113 156 193 226 279 340
#     4  10  21  34  62  90 113 142 193 241 288 330
#     4  11  20  37  60  88 114 148 187 241 285 336
#     4  10  22  34  64  80 118 150 202 218 282 334
#     4  11  19  36  60  85 111 147 191 240 275 331
#
# _framework density 22.995763
#
# number of rings (size 3 to 8) (size 9 to 14) (size 15 to 20)
#    0.667    0.889    2.222    6.000    0.000    0.000 
#    0.000    6.667    4.889    0.000    0.000    0.000 
#    0.000    0.000    0.000    0.000    0.000    0.000 
#
# Total GULP energy -100296.758747 kJ/mol
# GULP energy per Si atom -5572.042153 kJ/mol
# Density = 2.294342 g / cm^3
# Si number density = 22.995763 Si / 1000 Ang^3
#
#
#
# Elastic Constant Matrix: (Units=GPa)
#
#
# Indices 1 2 3 4 5 6 
#
# 1 214.3069 58.0512 16.5298 0.0000 -44.7410 0.0000
# 2 58.0512 88.0614 20.8243 0.0000 -17.3373 0.0000
# 3 16.5298 20.8243 42.6915 0.0000 -14.9762 0.0000
# 4 0.0000 0.0000 0.0000 12.6757 0.0000 1.4031
# 5 -44.7410 -17.3373 -14.9762 0.0000 38.6974 0.0000
# 6 0.0000 0.0000 0.0000 1.4031 0.0000 10.5580
#
#
#
# Elastic Compliance Matrix: (Units=1/GPa)
#
#
# Indices 1 2 3 4 5 6 
#
# 1 0.006995 -0.003578 0.001517 0.000000 0.007071 0.000000
# 2 -0.003578 0.015182 -0.005884 0.000000 0.000388 0.000000
# 3 0.001517 -0.005884 0.029387 0.000000 0.010491 0.000000
# 4 0.000000 0.000000 0.000000 0.080069 0.000000 -0.010640
# 5 0.007071 0.000388 0.010491 0.000000 0.038252 0.000000
# 6 0.000000 0.000000 0.000000 -0.010640 0.000000 0.096129
#
#
# Mechanical properties :
#
#
# Convention : Reuss Voigt Hill
#
# Bulk Modulus (GPa) = 28.03081 59.54115 43.78598
# Shear Modulus (GPa) = 17.01884 29.02986 23.02435
#
# Velocity S-wave (km/s) = 2.72340 3.55688 3.16768
# Velocity P-wave (km/s) = 4.70162 6.54347 5.69747
#
# Compressibility (1/GPa) = 0.03567503
#
# Stress axis : x y z
#
# Youngs Moduli (GPa) = 142.96881 65.86755 34.02886
#
# Poissons Ratio (x) = 0.23564 -0.05164
# Poissons Ratio (y) = 0.51148 0.20023
# Poissons Ratio (z) = -0.21695 0.38757
#
# Static dielectric constant tensor:
#      x y z
#    x 2.021960 0.000000 0.024420 
#    y 0.000000 1.903110 0.000000 
#    z 0.024420 0.000000 1.893330 
# 
# From -- ./inp_files/31695.got.cif
#   From: 2010.05.17/outbox.cif.g08.bks.cpg/sg15_16_cif.got.tgz:31695.got - 2010.06.03 18:47:42.
