data_PCOD9279293
_publ_section_title
;
Structure prediction by ZEFSAII (Michael W. Deem and Ramdas Pophale) SiO2 
 PCOD9279293
Probable space group: C 2/C
;
_chemical_formula_sum "Si O2"
_cell_formula_units_Z 64
_cell_length_a 28.291189
_cell_length_b 20.819464
_cell_length_c 5.534987
_cell_angle_alpha 90.000000
_cell_angle_beta 105.153877
_cell_angle_gamma 90.000000
_cell_volume 3146.783911
_symmetry_space_group_name_H-M "C 2/C"
_symmetry_group_IT_number 15
_symmetry_cell_setting 'monoclinic'
loop_
_space_group_symop_operation_xyz
x,y,z
-x,y,1/2-z
-x,-y,-z
x,-y,1/2+z
1/2+x,1/2+y,z
1/2-x,1/2+y,1/2-z
1/2-x,1/2-y,-z
1/2+x,1/2-y,1/2+z
loop_
_atom_site_type_symbol
_atom_site_label
_atom_site_fract_x
_atom_site_fract_y
_atom_site_fract_z
Si Si1 0.632435 0.788679 0.827311
Si Si2 0.729736 0.031231 0.016895
Si Si3 0.676036 0.277338 0.770715
Si Si4 0.474648 0.358560 0.467507
Si Si5 0.363371 0.353891 0.381788
Si Si6 0.276509 0.825347 0.804932
Si Si7 0.660016 0.481107 0.328926
Si Si8 0.973749 0.298179 0.964446
O O1 0.638192 0.716934 0.728612
O O2 0.682527 0.827255 0.849504
O O3 0.583432 0.816746 0.647104
O O4 0.632615 0.767142 0.106237
O O5 0.724313 0.106623 0.061437
O O6 0.710506 0.993443 0.230844
O O7 0.787848 0.016473 0.084199
O O8 0.721593 0.302196 0.668364
O O9 0.652696 0.339745 0.866050
O O10 0.702277 0.229429 0.991448
O O11 0.500000 0.378700 0.250000
O O12 0.418186 0.377953 0.412420
O O13 0.475045 0.280056 0.468183
O O14 0.500000 0.379530 0.750000
O O15 0.330370 0.406298 0.208290
O O16 0.634792 0.492770 0.551876
O O17 0.000000 0.318609 0.750000
O O18 0.000000 0.318962 0.250000
#
# Coordination Sequence:
#
# PCOD9279293 Si02
#       8
#     8   8   8   8   8   8   8   8
#     4  10  22  33  59  85 120 161 186 241 298 356
#     4  10  22  37  58  77 108 155 199 243 285 327
#     4  10  21  35  56  85 120 165 191 238 298 356
#     4   9  19  32  52  80 108 144 182 236 299 342
#     4  10  22  34  58  82 111 148 202 242 287 360
#     4  10  22  37  52  85 123 157 203 240 291 360
#     4  10  22  37  55  80 101 143 196 251 286 329
#     4   9  19  33  54  80 116 149 188 231 284 353
#
# _framework density 20.338224
#
# number of rings (size 3 to 8) (size 9 to 14) (size 15 to 20)
#    0.000    2.250    0.000    1.875   17.500    0.000 
#    0.000    0.000    0.000    2.250    0.000    0.000 
#    0.000    3.000    0.000    0.000    0.000    0.000 
#
# Total GULP energy -178192.258308 kJ/mol
# GULP energy per Si atom -5568.508072 kJ/mol
# Density = 2.029193 g / cm^3
# Si number density = 20.338224 Si / 1000 Ang^3
#
#
#
# Elastic Constant Matrix: (Units=GPa)
#
#
# Indices 1 2 3 4 5 6 
#
# 1 89.5025 26.3451 42.9815 0.0000 0.2160 0.0000
# 2 26.3451 37.1449 0.0940 0.0000 -2.6199 0.0000
# 3 42.9815 0.0940 116.5682 0.0000 -6.1795 0.0000
# 4 0.0000 0.0000 0.0000 10.6366 0.0000 -10.4656
# 5 0.2160 -2.6199 -6.1795 0.0000 18.7767 0.0000
# 6 0.0000 0.0000 0.0000 -10.4656 0.0000 9.8361
#
#
#
# Elastic Compliance Matrix: (Units=1/GPa)
#
#
# Indices 1 2 3 4 5 6 
#
# 1 0.018524 -0.013431 -0.007053 0.000000 -0.004408 0.000000
# 2 -0.013431 0.036932 0.005296 0.000000 0.007051 0.000000
# 3 -0.007053 0.005296 0.011418 0.000000 0.004578 0.000000
# 4 0.000000 0.000000 0.000000 -2.004766 0.000000 -2.133075
# 5 -0.004408 0.007051 0.004578 0.000000 0.055798 0.000000
# 6 0.000000 0.000000 0.000000 -2.133075 0.000000 -2.167929
#
#
# Mechanical properties :
#
#
# Convention : Reuss Voigt Hill
#
# Bulk Modulus (GPa) = 27.39915 42.45076 34.92496
# Shear Modulus (GPa) = -1.24767 19.43622 9.09428
#
# Velocity S-wave (km/s) = -0.78409 3.09471 2.11689
# Velocity P-wave (km/s) = 3.56108 5.80408 4.81501
#
# Compressibility (1/GPa) = 0.03649748
#
# Stress axis : x y z
#
# Youngs Moduli (GPa) = 53.98342 27.07692 87.58294
#
# Poissons Ratio (x) = 0.36368 0.61774
# Poissons Ratio (y) = 0.72508 -0.46388
# Poissons Ratio (z) = 0.38075 -0.14341
#
# Static dielectric constant tensor:
#      x y z
#    x 1.781970 0.000000 -0.095160 
#    y 0.000000 1.696330 0.000000 
#    z -0.095160 0.000000 1.999880 
# 
# From -- ./inp_files/18600.got.cif
#   From: 2010.05.17/outbox.cif.g08.bks.cpg/sg15_10_cif.got.tgz:18600.got - 2010.06.03 18:47:42.
