data_PCOD9279602
_publ_section_title
;
Structure prediction by ZEFSAII (Michael W. Deem and Ramdas Pophale) SiO2 
 PCOD9279602
Probable space group: C 2/C
;
_chemical_formula_sum "Si O2"
_cell_formula_units_Z 56
_cell_length_a 12.988987
_cell_length_b 12.776295
_cell_length_c 16.151093
_cell_angle_alpha 90.000000
_cell_angle_beta 117.855239
_cell_angle_gamma 90.000000
_cell_volume 2369.729145
_symmetry_space_group_name_H-M "C 2/C"
_symmetry_group_IT_number 15
_symmetry_cell_setting 'monoclinic'
loop_
_space_group_symop_operation_xyz
x,y,z
-x,y,1/2-z
-x,-y,-z
x,-y,1/2+z
1/2+x,1/2+y,z
1/2-x,1/2+y,1/2-z
1/2-x,1/2-y,-z
1/2+x,1/2-y,1/2+z
loop_
_atom_site_type_symbol
_atom_site_label
_atom_site_fract_x
_atom_site_fract_y
_atom_site_fract_z
Si Si1 0.208514 0.865571 0.377362
Si Si2 0.111346 0.035401 0.135731
Si Si3 0.965712 0.155731 0.548912
Si Si4 0.500000 0.521448 0.250000
Si Si5 0.409345 0.023866 0.059840
Si Si6 0.000000 0.622832 0.250000
Si Si7 0.396841 0.154527 0.451661
Si Si8 0.285278 0.801080 0.754403
O O1 0.124768 0.809919 0.414278
O O2 0.311778 0.915505 0.469916
O O3 0.257707 0.792099 0.322020
O O4 0.117589 0.952537 0.308428
O O5 0.021271 0.080053 0.171519
O O6 0.229474 0.087831 0.209750
O O7 0.096699 0.076446 0.037299
O O8 0.075492 0.913243 0.122472
O O9 0.013336 0.250996 0.514151
O O10 0.536910 0.061489 0.074640
O O11 0.419200 0.055064 0.158985
O O12 0.379684 0.902590 0.031800
O O13 0.080575 0.695369 0.223782
O O14 0.289997 0.196644 0.355896
#
# Coordination Sequence:
#
# PCOD9279602 Si02
#       8
#     8   8   8   4   8   4   8   8
#     4  11  20  36  65  94 120 155 204 259 313 367
#     4  10  21  36  59  85 118 158 200 248 305 364
#     4  10  21  38  59  86 118 153 199 254 303 358
#     4  10  21  38  59  88 122 160 205 252 303 374
#     4  10  21  36  57  87 123 160 199 250 307 360
#     4  10  21  36  57  88 126 162 207 258 305 366
#     4  10  21  36  54  84 124 156 193 248 305 365
#     4  11  20  34  61  96 123 152 200 259 314 366
#
# _framework density 23.631392999999999
#
# number of rings (size 3 to 8) (size 9 to 14) (size 15 to 20)
#    0.000    1.714    0.000    6.429    0.000    1.714 
#    0.000    2.143    0.000   21.429    0.000    0.000 
#    0.000    0.000    0.000    0.000    0.000    0.000 
#
# Total GULP energy -156025.338529 kJ/mol
# GULP energy per Si atom -5572.333519 kJ/mol
# Density = 2.357761 g / cm^3
# Si number density = 23.631393 Si / 1000 Ang^3
#
#
#
# Elastic Constant Matrix: (Units=GPa)
#
#
# Indices 1 2 3 4 5 6 
#
# 1 39.6943 15.8274 10.5148 0.0000 5.3357 0.0000
# 2 15.8274 66.4294 17.9327 0.0000 4.7410 0.0000
# 3 10.5148 17.9327 125.5424 0.0000 12.7454 0.0000
# 4 0.0000 0.0000 0.0000 24.7201 0.0000 4.1143
# 5 5.3357 4.7410 12.7454 0.0000 37.0987 0.0000
# 6 0.0000 0.0000 0.0000 4.1143 0.0000 31.0803
#
#
#
# Elastic Compliance Matrix: (Units=1/GPa)
#
#
# Indices 1 2 3 4 5 6 
#
# 1 0.028381 -0.006234 -0.001195 0.000000 -0.002875 0.000000
# 2 -0.006234 0.017085 -0.001852 0.000000 -0.000650 0.000000
# 3 -0.001195 -0.001852 0.008588 0.000000 -0.002542 0.000000
# 4 0.000000 0.000000 0.000000 0.041364 0.000000 -0.005476
# 5 -0.002875 -0.000650 -0.002542 0.000000 0.028325 0.000000
# 6 0.000000 0.000000 0.000000 -0.005476 0.000000 0.032900
#
#
# Mechanical properties :
#
#
# Convention : Reuss Voigt Hill
#
# Bulk Modulus (GPa) = 28.17536 35.57956 31.87746
# Shear Modulus (GPa) = 26.73264 31.07256 28.90260
#
# Velocity S-wave (km/s) = 3.36703 3.63007 3.50102
# Velocity P-wave (km/s) = 5.20237 5.71477 5.46458
#
# Compressibility (1/GPa) = 0.03549200
#
# Stress axis : x y z
#
# Youngs Moduli (GPa) = 35.23451 58.52938 116.43951
#
# Poissons Ratio (x) = 0.36490 0.13911
# Poissons Ratio (y) = 0.21967 0.21568
# Poissons Ratio (z) = 0.04209 0.10842
#
# Static dielectric constant tensor:
#      x y z
#    x 1.913980 0.000000 -0.030150 
#    y 0.000000 1.953540 0.000000 
#    z -0.030150 0.000000 2.075950 
# 
# From -- ./inp_files/204563.got.cif
#   From: 2010.05.17/outbox.cif.g08.bks.cpg/sg15_103_cif.got.tgz:204563.got - 2010.06.03 18:47:42.
