data_PCOD9279257
_publ_section_title
;
Structure prediction by ZEFSAII (Michael W. Deem and Ramdas Pophale) SiO2 
 PCOD9279257
Probable space group: C 2/C
;
_chemical_formula_sum "Si O2"
_cell_formula_units_Z 56
_cell_length_a 12.396834
_cell_length_b 7.724216
_cell_length_c 28.970731
_cell_angle_alpha 90.000000
_cell_angle_beta 56.069071
_cell_angle_gamma 90.000000
_cell_volume 2301.714970
_symmetry_space_group_name_H-M "C 2/C"
_symmetry_group_IT_number 15
_symmetry_cell_setting 'monoclinic'
loop_
_space_group_symop_operation_xyz
x,y,z
-x,y,1/2-z
-x,-y,-z
x,-y,1/2+z
1/2+x,1/2+y,z
1/2-x,1/2+y,1/2-z
1/2-x,1/2-y,-z
1/2+x,1/2-y,1/2+z
loop_
_atom_site_type_symbol
_atom_site_label
_atom_site_fract_x
_atom_site_fract_y
_atom_site_fract_z
Si Si1 0.230284 0.703418 0.951698
Si Si2 0.356125 0.637009 0.395916
Si Si3 0.719650 0.211153 0.198839
Si Si4 0.495914 0.874648 0.628410
Si Si5 0.096618 0.943801 0.300652
Si Si6 0.547020 0.822364 0.420688
Si Si7 0.930723 0.601578 0.810656
O O1 0.250567 0.497575 0.938478
O O2 0.356051 0.805921 0.901249
O O3 0.091331 0.738728 0.960788
O O4 0.250000 0.750000 0.000000
O O5 0.456139 0.525843 0.341007
O O6 0.434997 0.712476 0.421411
O O7 0.329661 0.791236 0.366376
O O8 0.633980 0.351623 0.244895
O O9 0.818276 0.291240 0.138860
O O10 0.807367 0.101731 0.213322
O O11 0.633798 0.064722 0.196275
O O12 0.404051 0.710922 0.660655
O O13 0.484295 0.977014 0.583056
O O14 0.472612 0.020583 0.673719
O O15 0.000000 0.691752 0.750000
#
# Coordination Sequence:
#
# PCOD9279257 Si02
#       7
#     8   8   8   8   8   8   8
#     4  11  24  44  68  92 118 164 218 269 332 377
#     4   9  24  42  59  93 128 159 216 262 310 378
#     4  11  21  34  59  88 125 172 208 244 312 380
#     4  10  21  42  60  88 129 159 211 259 308 376
#     4  10  21  35  54  89 125 164 207 252 299 378
#     4  10  22  41  64  89 127 163 200 268 317 369
#     4  11  21  37  58  90 127 167 204 249 301 375
#
# _framework density 24.329685000000001
#
# number of rings (size 3 to 8) (size 9 to 14) (size 15 to 20)
#    0.000    1.714    2.857    0.857    6.000    2.286 
#    0.000    2.857    0.000    0.000    0.000    0.000 
#    0.000    0.000    0.000    0.000    0.000    0.000 
#
# Total GULP energy -156364.150432 kJ/mol
# GULP energy per Si atom -5584.433944 kJ/mol
# Density = 2.427431 g / cm^3
# Si number density = 24.329685 Si / 1000 Ang^3
#
#
#
# Elastic Constant Matrix: (Units=GPa)
#
#
# Indices 1 2 3 4 5 6 
#
# 1 71.6709 9.3881 8.6026 0.0000 25.5639 0.0000
# 2 9.3881 76.8431 8.7675 0.0000 8.9257 0.0000
# 3 8.6026 8.7675 55.3056 0.0000 26.6444 0.0000
# 4 0.0000 0.0000 0.0000 21.1702 0.0000 -3.3647
# 5 25.5639 8.9257 26.6444 0.0000 28.9199 0.0000
# 6 0.0000 0.0000 0.0000 -3.3647 0.0000 9.0715
#
#
#
# Elastic Compliance Matrix: (Units=1/GPa)
#
#
# Indices 1 2 3 4 5 6 
#
# 1 0.023943 -0.000570 0.011648 0.000000 -0.031721 0.000000
# 2 -0.000570 0.013513 -0.000516 0.000000 -0.003192 0.000000
# 3 0.011648 -0.000516 0.038183 0.000000 -0.045316 0.000000
# 4 0.000000 0.000000 0.000000 0.050195 0.000000 0.018618
# 5 -0.031721 -0.003192 -0.045316 0.000000 0.105353 0.000000
# 6 0.000000 0.000000 0.000000 0.018618 0.000000 0.117141
#
#
# Mechanical properties :
#
#
# Convention : Reuss Voigt Hill
#
# Bulk Modulus (GPa) = 10.33445 28.59286 19.46365
# Shear Modulus (GPa) = 13.90983 23.63642 18.77313
#
# Velocity S-wave (km/s) = 2.39367 3.12028 2.78081
# Velocity P-wave (km/s) = 3.44912 4.97587 4.28110
#
# Compressibility (1/GPa) = 0.09676373
#
# Stress axis : x y z
#
# Youngs Moduli (GPa) = 41.76514 74.00433 26.18971
#
# Poissons Ratio (x) = 0.04216 -0.30506
# Poissons Ratio (y) = 0.02379 0.01351
# Poissons Ratio (z) = -0.48648 0.03818
#
# Static dielectric constant tensor:
#      x y z
#    x 2.034480 0.000000 0.030630 
#    y 0.000000 1.966490 0.000000 
#    z 0.030630 0.000000 2.032000 
# 
# From -- ./inp_files/295060.got.cif
#   From: 2010.05.17/outbox.cif.g08.bks.cpg/sg15_148_cif.got.tgz:295060.got - 2010.06.03 18:47:42.
