data_PCOD9279124
_publ_section_title
;
Structure prediction by ZEFSAII (Michael W. Deem and Ramdas Pophale) SiO2 
 PCOD9279124
Probable space group: C 2/C
;
_chemical_formula_sum "Si O2"
_cell_formula_units_Z 52
_cell_length_a 14.074977
_cell_length_b 15.110365
_cell_length_c 28.195918
_cell_angle_alpha 90.000000
_cell_angle_beta 154.879028
_cell_angle_gamma 90.000000
_cell_volume 2545.764074
_symmetry_space_group_name_H-M "C 2/C"
_symmetry_group_IT_number 15
_symmetry_cell_setting 'monoclinic'
loop_
_space_group_symop_operation_xyz
x,y,z
-x,y,1/2-z
-x,-y,-z
x,-y,1/2+z
1/2+x,1/2+y,z
1/2-x,1/2+y,1/2-z
1/2-x,1/2-y,-z
1/2+x,1/2-y,1/2+z
loop_
_atom_site_type_symbol
_atom_site_label
_atom_site_fract_x
_atom_site_fract_y
_atom_site_fract_z
Si Si1 0.500000 0.327334 0.750000
Si Si2 0.057568 0.441287 0.571181
Si Si3 0.681133 0.792750 0.417765
Si Si4 0.913961 0.683814 0.136229
Si Si5 0.857239 0.865876 0.066102
Si Si6 0.322615 0.280686 0.872228
Si Si7 0.672573 0.100682 0.688588
O O1 0.281640 0.385488 0.663782
O O2 0.431527 0.270567 0.672500
O O3 0.090681 0.511829 0.627620
O O4 0.000000 0.500000 0.500000
O O5 0.842925 0.383405 0.487766
O O6 0.750000 0.750000 0.500000
O O7 0.500461 0.866439 0.349842
O O8 0.926983 0.816526 0.509899
O O9 0.940294 0.764867 0.111140
O O10 0.791897 0.717793 0.128288
O O11 0.163407 0.660668 0.265822
O O12 0.751241 0.619020 0.034319
O O13 0.080311 0.917703 0.179695
O O14 0.319387 0.181657 0.847099
#
# Coordination Sequence:
#
# PCOD9279124 Si02
#       7
#     4   8   8   8   8   8   8
#     4  12  26  38  70  98 126 172 228 258 332 388
#     4  12  24  40  60  93 129 166 203 266 328 393
#     4  10  22  38  60  95 129 167 215 269 313 385
#     4   9  18  33  58  89 112 156 202 262 295 367
#     4  10  21  34  58  84 121 155 206 242 315 374
#     4   9  18  35  58  85 119 153 205 253 309 361
#     4  10  22  38  57  89 131 163 196 262 328 368
#
# _framework density 20.426088
#
# number of rings (size 3 to 8) (size 9 to 14) (size 15 to 20)
#    0.000    1.846    0.000    4.615   10.769    2.462 
#    0.000    0.000    0.000    2.769    0.000    0.000 
#    0.000    0.000    0.000    0.000    0.000    0.000 
#
# Total GULP energy -144950.726409 kJ/mol
# GULP energy per Si atom -5575.027939 kJ/mol
# Density = 2.037960 g / cm^3
# Si number density = 20.426088 Si / 1000 Ang^3
#
#
#
# Elastic Constant Matrix: (Units=GPa)
#
#
# Indices 1 2 3 4 5 6 
#
# 1 73.9988 37.2444 60.4180 -0.0003 -3.3750 0.0000
# 2 37.2444 44.9031 49.4724 0.0011 1.8217 -0.0003
# 3 60.4180 49.4724 186.6542 0.0043 9.4015 -0.0011
# 4 -0.0003 0.0011 0.0043 22.8514 -0.0013 0.0549
# 5 -3.3750 1.8217 9.4015 -0.0013 40.8577 -0.0003
# 6 0.0000 -0.0003 -0.0011 0.0549 -0.0003 22.1621
#
#
#
# Elastic Compliance Matrix: (Units=1/GPa)
#
#
# Indices 1 2 3 4 5 6 
#
# 1 0.025393 -0.016879 -0.003935 0.000002 0.003756 0.000000
# 2 -0.016879 0.042687 -0.005751 -0.000001 -0.001974 0.000000
# 3 -0.003935 -0.005751 0.008255 -0.000001 -0.001968 0.000000
# 4 0.000002 -0.000001 -0.000001 0.043761 0.000002 -0.000108
# 5 0.003756 -0.001974 -0.001968 0.000002 0.025326 0.000000
# 6 0.000000 0.000000 0.000000 -0.000108 0.000000 0.045122
#
#
# Mechanical properties :
#
#
# Convention : Reuss Voigt Hill
#
# Bulk Modulus (GPa) = 43.09528 66.64732 54.87130
# Shear Modulus (GPa) = 19.88787 27.73566 23.81176
#
# Velocity S-wave (km/s) = 3.12372 3.68891 3.41802
# Velocity P-wave (km/s) = 5.84416 7.13046 6.51911
#
# Compressibility (1/GPa) = 0.02320440
#
# Stress axis : x y z
#
# Youngs Moduli (GPa) = 39.38056 23.42648 121.14462
#
# Poissons Ratio (x) = 0.39542 0.47669
# Poissons Ratio (y) = 0.66471 0.69670
# Poissons Ratio (z) = 0.15496 0.13473
#
# Static dielectric constant tensor:
#      x y z
#    x 1.739340 0.000000 -0.005260 
#    y 0.000000 1.679940 0.000000 
#    z -0.005260 0.000000 1.785440 
# 
# From -- ./inp_files/314353.got.cif
#   From: 2010.05.17/outbox.cif.g08.bks.cpg/sg15_158_cif.got.tgz:314353.got - 2010.06.03 18:47:42.
