data_PCOD9279532
_publ_section_title
;
Structure prediction by ZEFSAII (Michael W. Deem and Ramdas Pophale) SiO2 
 PCOD9279532
Probable space group: C 2/C
;
_chemical_formula_sum "Si O2"
_cell_formula_units_Z 44
_cell_length_a 17.211800
_cell_length_b 8.006711
_cell_length_c 16.907711
_cell_angle_alpha 90.000000
_cell_angle_beta 101.027185
_cell_angle_gamma 90.000000
_cell_volume 2287.029318
_symmetry_space_group_name_H-M "C 2/C"
_symmetry_group_IT_number 15
_symmetry_cell_setting 'monoclinic'
loop_
_space_group_symop_operation_xyz
x,y,z
-x,y,1/2-z
-x,-y,-z
x,-y,1/2+z
1/2+x,1/2+y,z
1/2-x,1/2+y,1/2-z
1/2-x,1/2-y,-z
1/2+x,1/2-y,1/2+z
loop_
_atom_site_type_symbol
_atom_site_label
_atom_site_fract_x
_atom_site_fract_y
_atom_site_fract_z
Si Si1 0.629404 0.107833 0.352903
Si Si2 0.304838 0.344432 0.272856
Si Si3 0.859075 0.224617 0.314966
Si Si4 0.723358 0.370404 0.063631
Si Si5 0.500000 0.119238 0.750000
Si Si6 0.659980 0.302821 0.505571
O O1 0.653283 0.229951 0.284862
O O2 0.610847 0.220811 0.425966
O O3 0.703462 0.986376 0.390673
O O4 0.555917 0.996246 0.314183
O O5 0.212637 0.338810 0.230601
O O6 0.336303 0.534163 0.286413
O O7 0.309189 0.279942 0.364317
O O8 0.941083 0.272271 0.291462
O O9 0.860271 0.250297 0.409516
O O10 0.660774 0.497475 0.012570
O O11 0.750000 0.250000 0.000000
O O12 0.750000 0.250000 0.500000
#
# Coordination Sequence:
#
# PCOD9279532 Si02
#       6
#     8   8   8   8   4   8
#     4  11  23  39  64  94 131 169 211 267 321 386
#     4  11  20  41  67  96 119 174 225 262 302 383
#     4  11  22  39  66  93 130 166 217 265 318 382
#     4  10  21  35  64  99 123 160 219 272 309 364
#     4  12  26  42  58  98 136 174 208 258 340 386
#     4   9  19  38  61  95 120 164 214 271 306 365
#
# _framework density 19.238931999999998
#
# number of rings (size 3 to 8) (size 9 to 14) (size 15 to 20)
#    0.000    1.455    7.273    0.000    2.545    4.364 
#    0.000    0.000    0.000    5.455    0.000    0.000 
#    0.000    0.000    0.000    0.000    0.000    0.000 
#
# Total GULP energy -122709.152431 kJ/mol
# GULP energy per Si atom -5577.688747 kJ/mol
# Density = 1.919514 g / cm^3
# Si number density = 19.238932 Si / 1000 Ang^3
#
#
#
# Elastic Constant Matrix: (Units=GPa)
#
#
# Indices 1 2 3 4 5 6 
#
# 1 103.5390 46.8115 53.2345 0.0000 -24.4252 0.0000
# 2 46.8115 83.4785 97.5319 0.0000 -13.5186 0.0000
# 3 53.2345 97.5319 175.7709 0.0000 -41.7491 0.0000
# 4 0.0000 0.0000 0.0000 40.3557 0.0000 -6.3585
# 5 -24.4252 -13.5186 -41.7491 0.0000 30.5013 0.0000
# 6 0.0000 0.0000 0.0000 -6.3585 0.0000 21.9249
#
#
#
# Elastic Compliance Matrix: (Units=1/GPa)
#
#
# Indices 1 2 3 4 5 6 
#
# 1 0.016735 -0.015357 0.007437 0.000000 0.016774 0.000000
# 2 -0.015357 0.054352 -0.033646 0.000000 -0.034261 0.000000
# 3 0.007437 -0.033646 0.029603 0.000000 0.031563 0.000000
# 4 0.000000 0.000000 0.000000 0.025966 0.000000 0.007531
# 5 0.016774 -0.034261 0.031563 0.000000 0.074235 0.000000
# 6 0.000000 0.000000 0.000000 0.007531 0.000000 0.047794
#
#
# Mechanical properties :
#
#
# Convention : Reuss Voigt Hill
#
# Bulk Modulus (GPa) = 56.95076 84.21602 70.58339
# Shear Modulus (GPa) = 14.80743 29.57040 22.18892
#
# Velocity S-wave (km/s) = 2.77728 3.92472 3.39976
# Velocity P-wave (km/s) = 6.32064 8.02538 7.22348
#
# Compressibility (1/GPa) = 0.01755903
#
# Stress axis : x y z
#
# Youngs Moduli (GPa) = 59.75667 18.39856 33.78059
#
# Poissons Ratio (x) = 0.28254 -0.25123
# Poissons Ratio (y) = 0.91767 1.13657
# Poissons Ratio (z) = -0.44442 0.61903
#
# Static dielectric constant tensor:
#      x y z
#    x 1.188030 0.000000 -0.198160 
#    y 0.000000 1.712270 0.000000 
#    z -0.198160 0.000000 1.631120 
# 
# From -- ./inp_files/159406.got.cif
#   From: 2010.05.17/outbox.cif.g08.bks.cpg/sg15_80_cif.got.tgz:159406.got - 2010.06.03 18:47:42.
