data_PCOD9279149
_publ_section_title
;
Structure prediction by ZEFSAII (Michael W. Deem and Ramdas Pophale) SiO2 
 PCOD9279149
Probable space group: C 2/C
;
_chemical_formula_sum "Si O2"
_cell_formula_units_Z 56
_cell_length_a 22.147014
_cell_length_b 11.127788
_cell_length_c 10.700393
_cell_angle_alpha 90.000000
_cell_angle_beta 89.149856
_cell_angle_gamma 90.000000
_cell_volume 2636.792428
_symmetry_space_group_name_H-M "C 2/C"
_symmetry_group_IT_number 15
_symmetry_cell_setting 'monoclinic'
loop_
_space_group_symop_operation_xyz
x,y,z
-x,y,1/2-z
-x,-y,-z
x,-y,1/2+z
1/2+x,1/2+y,z
1/2-x,1/2+y,1/2-z
1/2-x,1/2-y,-z
1/2+x,1/2-y,1/2+z
loop_
_atom_site_type_symbol
_atom_site_label
_atom_site_fract_x
_atom_site_fract_y
_atom_site_fract_z
Si Si1 0.431745 0.009521 0.197906
Si Si2 0.040802 0.129951 0.127514
Si Si3 0.854883 0.702364 0.828231
Si Si4 0.257148 0.822616 0.130932
Si Si5 0.528814 0.656021 0.613788
Si Si6 0.336657 0.995956 0.506535
Si Si7 0.140687 0.293416 0.676012
O O1 0.500000 0.018390 0.250000
O O2 0.397974 0.137425 0.219134
O O3 0.401712 0.899102 0.274842
O O4 0.405176 0.986269 0.059060
O O5 0.106979 0.181447 0.141754
O O6 0.000000 0.159973 0.250000
O O7 0.040518 0.986624 0.113480
O O8 0.013126 0.185135 0.002238
O O9 0.807319 0.730336 0.721728
O O10 0.827118 0.635064 0.949424
O O11 0.284956 0.955446 0.102675
O O12 0.193065 0.802287 0.200669
O O13 0.250000 0.750000 0.000000
O O14 0.500000 0.682874 0.750000
O O15 0.591233 0.725119 0.595658
O O16 0.331596 0.092622 0.395945
#
# Coordination Sequence:
#
# PCOD9279149 Si02
#       7
#     8   8   8   8   8   8   8
#     4  10  21  34  59  95 124 158 198 260 324 380
#     4  10  23  40  63  90 126 165 215 265 312 382
#     4  10  21  37  62  93 121 159 208 264 321 375
#     4   9  20  41  60  83 121 165 207 248 313 387
#     4  10  23  42  61  90 128 168 215 260 315 386
#     4   9  21  38  59  92 125 154 204 268 316 379
#     4  10  21  37  62  85 119 171 204 251 323 378
#
# _framework density 21.237925000000001
#
# number of rings (size 3 to 8) (size 9 to 14) (size 15 to 20)
#    0.000    2.286    0.000    0.857   12.000    1.143 
#   10.286    0.714    0.000    0.000    0.000    0.000 
#    0.000    0.000    0.000    0.000    0.000    0.000 
#
# Total GULP energy -155889.006864 kJ/mol
# GULP energy per Si atom -5567.464531 kJ/mol
# Density = 2.118959 g / cm^3
# Si number density = 21.237925 Si / 1000 Ang^3
#
#
#
# Elastic Constant Matrix: (Units=GPa)
#
#
# Indices 1 2 3 4 5 6 
#
# 1 100.7753 28.5442 26.3251 0.0000 29.1921 0.0000
# 2 28.5442 28.0870 15.9394 0.0000 1.1887 0.0000
# 3 26.3251 15.9394 73.9033 0.0000 27.7501 0.0000
# 4 0.0000 0.0000 0.0000 6.3279 0.0000 12.7019
# 5 29.1921 1.1887 27.7501 0.0000 30.6362 0.0000
# 6 0.0000 0.0000 0.0000 12.7019 0.0000 4.8473
#
#
#
# Elastic Compliance Matrix: (Units=1/GPa)
#
#
# Indices 1 2 3 4 5 6 
#
# 1 0.024440 -0.028531 0.008754 0.000000 -0.030110 0.000000
# 2 -0.028531 0.075840 -0.023182 0.000000 0.045242 0.000000
# 3 0.008754 -0.023182 0.027592 0.000000 -0.032434 0.000000
# 4 0.000000 0.000000 0.000000 -0.037097 0.000000 0.097209
# 5 -0.030110 0.045242 -0.032434 0.000000 0.088955 0.000000
# 6 0.000000 0.000000 0.000000 0.097209 0.000000 -0.048428
#
#
# Mechanical properties :
#
#
# Convention : Reuss Voigt Hill
#
# Bulk Modulus (GPa) = 23.83608 38.26478 31.05043
# Shear Modulus (GPa) = 21.62585 17.15940 19.39262
#
# Velocity S-wave (km/s) = 3.19449 2.84555 3.02505
# Velocity P-wave (km/s) = 4.98539 5.37145 5.18202
#
# Compressibility (1/GPa) = 0.04195322
#
# Stress axis : x y z
#
# Youngs Moduli (GPa) = 40.91698 13.18561 36.24292
#
# Poissons Ratio (x) = 0.37620 -0.31727
# Poissons Ratio (y) = 1.16741 0.84018
# Poissons Ratio (z) = -0.35818 0.30567
#
# Static dielectric constant tensor:
#      x y z
#    x 1.802240 0.000000 -0.038700 
#    y 0.000000 1.791110 0.000000 
#    z -0.038700 0.000000 1.859570 
# 
# From -- ./inp_files/111074.got.cif
#   From: 2010.05.17/outbox.cif.g08.bks.cpg/sg15_56_cif.got.tgz:111074.got - 2010.06.03 18:47:42.
