data_PCOD9279617
_publ_section_title
;
Structure prediction by ZEFSAII (Michael W. Deem and Ramdas Pophale) SiO2 
 PCOD9279617
Probable space group: C 2/C
;
_chemical_formula_sum "Si O2"
_cell_formula_units_Z 32
_cell_length_a 5.276724
_cell_length_b 34.380706
_cell_length_c 9.550232
_cell_angle_alpha 90.000000
_cell_angle_beta 47.558762
_cell_angle_gamma 90.000000
_cell_volume 1278.591159
_symmetry_space_group_name_H-M "C 2/C"
_symmetry_group_IT_number 15
_symmetry_cell_setting 'monoclinic'
loop_
_space_group_symop_operation_xyz
x,y,z
-x,y,1/2-z
-x,-y,-z
x,-y,1/2+z
1/2+x,1/2+y,z
1/2-x,1/2+y,1/2-z
1/2-x,1/2-y,-z
1/2+x,1/2-y,1/2+z
loop_
_atom_site_type_symbol
_atom_site_label
_atom_site_fract_x
_atom_site_fract_y
_atom_site_fract_z
Si Si1 0.295698 0.576881 0.027104
Si Si2 0.312635 0.039959 0.024248
Si Si3 0.258676 0.704328 0.525034
Si Si4 0.748866 0.164856 0.977628
O O1 0.621503 0.550147 0.949461
O O2 0.000000 0.565969 0.250000
O O3 0.116791 0.569864 0.944201
O O4 0.325863 0.623065 0.019961
O O5 0.000000 0.044747 0.250000
O O6 0.500000 0.000000 0.000000
O O7 0.250000 0.750000 0.500000
O O8 0.627342 0.694447 0.450619
O O9 0.000000 0.696641 0.750000
O O10 0.116662 0.677536 0.451265
O O11 0.000000 0.166394 0.750000
#
# Coordination Sequence:
#
# PCOD9279617 Si02
#       4
#     8   8   8   8
#     4  10  21  37  58  83 112 147 188 233 281 338
#     4  10  21  38  58  84 115 147 188 236 284 340
#     4  10  21  36  55  80 111 145 185 231 278 333
#     4  10  21  37  55  81 113 145 185 232 280 335
#
# _framework density 25.027546999999998
#
# number of rings (size 3 to 8) (size 9 to 14) (size 15 to 20)
#    0.000    2.000    0.000    3.000    0.000    3.000 
#    0.000    2.500    0.000    0.000    0.000    0.000 
#    0.000    0.000    0.000    0.000    0.000    0.000 
#
# Total GULP energy -89277.253132 kJ/mol
# GULP energy per Si atom -5579.828321 kJ/mol
# Density = 2.497058 g / cm^3
# Si number density = 25.027547 Si / 1000 Ang^3
#
#
#
# Elastic Constant Matrix: (Units=GPa)
#
#
# Indices 1 2 3 4 5 6 
#
# 1 227.6708 63.1584 41.1731 0.0000 -13.1066 0.0000
# 2 63.1584 114.1395 -27.8905 0.0000 -10.2905 0.0000
# 3 41.1731 -27.8905 81.6404 0.0000 0.1350 0.0000
# 4 0.0000 0.0000 0.0000 20.6515 0.0000 1.9489
# 5 -13.1066 -10.2905 0.1350 0.0000 30.6617 0.0000
# 6 0.0000 0.0000 0.0000 1.9489 0.0000 49.9310
#
#
#
# Elastic Compliance Matrix: (Units=1/GPa)
#
#
# Indices 1 2 3 4 5 6 
#
# 1 0.006719 -0.004835 -0.005042 0.000000 0.001271 0.000000
# 2 -0.004835 0.013362 0.007000 0.000000 0.002387 0.000000
# 3 -0.005042 0.007000 0.017183 0.000000 0.000118 0.000000
# 4 0.000000 0.000000 0.000000 0.048602 0.000000 -0.001897
# 5 0.001271 0.002387 0.000118 0.000000 0.033958 0.000000
# 6 0.000000 0.000000 0.000000 -0.001897 0.000000 0.020102
#
#
# Mechanical properties :
#
#
# Convention : Reuss Voigt Hill
#
# Bulk Modulus (GPa) = 31.73834 64.03698 47.88766
# Shear Modulus (GPa) = 32.01352 43.38282 37.69817
#
# Velocity S-wave (km/s) = 3.58037 4.16793 3.88528
# Velocity P-wave (km/s) = 5.45903 6.98601 6.26918
#
# Compressibility (1/GPa) = 0.03150764
#
# Stress axis : x y z
#
# Youngs Moduli (GPa) = 148.83737 74.83723 58.19761
#
# Poissons Ratio (x) = 0.36186 0.29345
# Poissons Ratio (y) = 0.71967 -0.40735
# Poissons Ratio (z) = 0.75049 -0.52382
#
# Static dielectric constant tensor:
#      x y z
#    x 2.031480 0.000000 0.032520 
#    y 0.000000 2.053250 0.000000 
#    z 0.032520 0.000000 2.032510 
# 
# From -- ./inp_files/20143.got.cif
#   From: 2010.05.17/outbox.cif.g08.bks.cpg/sg15_11_cif.got.tgz:20143.got - 2010.06.03 18:47:42.
