data_PCOD9279869
_publ_section_title
;
Structure prediction by ZEFSAII (Michael W. Deem and Ramdas Pophale) SiO2 
 PCOD9279869
Probable space group: C 2/C
;
_chemical_formula_sum "Si O2"
_cell_formula_units_Z 40
_cell_length_a 8.182616
_cell_length_b 26.326326
_cell_length_c 8.481570
_cell_angle_alpha 90.000000
_cell_angle_beta 111.928161
_cell_angle_gamma 90.000000
_cell_volume 1694.900252
_symmetry_space_group_name_H-M "C 2/C"
_symmetry_group_IT_number 15
_symmetry_cell_setting 'monoclinic'
loop_
_space_group_symop_operation_xyz
x,y,z
-x,y,1/2-z
-x,-y,-z
x,-y,1/2+z
1/2+x,1/2+y,z
1/2-x,1/2+y,1/2-z
1/2-x,1/2-y,-z
1/2+x,1/2-y,1/2+z
loop_
_atom_site_type_symbol
_atom_site_label
_atom_site_fract_x
_atom_site_fract_y
_atom_site_fract_z
Si Si1 0.136485 0.956186 0.002174
Si Si2 0.836488 0.842451 0.516205
Si Si3 0.130092 0.485157 0.684950
Si Si4 0.780600 0.193900 0.332242
Si Si5 0.205832 0.187622 0.820625
O O1 0.292850 0.968436 0.183888
O O2 0.080999 0.898093 0.984125
O O3 0.207944 0.962104 0.850480
O O4 0.000000 0.000000 0.000000
O O5 0.746107 0.834840 0.654310
O O6 0.721242 0.832583 0.319242
O O7 0.005112 0.805043 0.578642
O O8 0.000000 0.453050 0.750000
O O9 0.000000 0.500000 0.500000
O O10 0.718271 0.172528 0.480462
O O11 0.714312 0.251494 0.306583
O O12 0.000000 0.171455 0.750000
#
# Coordination Sequence:
#
# PCOD9279869 Si02
#       5
#     8   8   8   8   8
#     4  11  23  38  68 100 127 174 229 278 339 404
#     4  10  21  36  60  90 127 160 215 277 332 395
#     4   9  21  43  64  83 130 173 213 272 336 395
#     4   9  19  34  59  83 122 157 208 266 330 386
#     4   9  18  36  59  84 121 168 208 261 330 406
#
# _framework density 23.600211000000002
#
# number of rings (size 3 to 8) (size 9 to 14) (size 15 to 20)
#    0.000    2.400    0.000    1.200    5.600    4.800 
#    3.600    1.000   52.800    0.000    0.000    0.000 
#    0.000    0.000    0.000    0.000    0.000    0.000 
#
# Total GULP energy -111334.584381 kJ/mol
# GULP energy per Si atom -5566.729219 kJ/mol
# Density = 2.354650 g / cm^3
# Si number density = 23.600211 Si / 1000 Ang^3
#
#
#
# Elastic Constant Matrix: (Units=GPa)
#
#
# Indices 1 2 3 4 5 6 
#
# 1 83.3134 19.7840 30.4376 0.0000 -16.7603 0.0000
# 2 19.7840 66.6910 44.0103 0.0000 -16.6734 0.0000
# 3 30.4376 44.0103 224.1623 0.0000 -44.7630 0.0000
# 4 0.0000 0.0000 0.0000 24.0424 0.0000 -7.1635
# 5 -16.7603 -16.6734 -44.7630 0.0000 35.8252 0.0000
# 6 0.0000 0.0000 0.0000 -7.1635 0.0000 15.4989
#
#
#
# Elastic Compliance Matrix: (Units=1/GPa)
#
#
# Indices 1 2 3 4 5 6 
#
# 1 0.013719 -0.002628 -0.000412 0.000000 0.004680 0.000000
# 2 -0.002628 0.018444 -0.002393 0.000000 0.004365 0.000000
# 3 -0.000412 -0.002393 0.006297 0.000000 0.006562 0.000000
# 4 0.000000 0.000000 0.000000 0.048236 0.000000 0.022294
# 5 0.004680 0.004365 0.006562 0.000000 0.040333 0.000000
# 6 0.000000 0.000000 0.000000 0.022294 0.000000 0.074825
#
#
# Mechanical properties :
#
#
# Convention : Reuss Voigt Hill
#
# Bulk Modulus (GPa) = 36.23835 62.51450 49.37643
# Shear Modulus (GPa) = 22.53083 33.73562 28.13323
#
# Velocity S-wave (km/s) = 3.09315 3.78493 3.45639
# Velocity P-wave (km/s) = 5.30521 6.75628 6.07423
#
# Compressibility (1/GPa) = 0.02759507
#
# Stress axis : x y z
#
# Youngs Moduli (GPa) = 72.89167 54.21720 158.80288
#
# Poissons Ratio (x) = 0.14246 0.06549
# Poissons Ratio (y) = 0.19153 0.37998
# Poissons Ratio (z) = 0.03006 0.12973
#
# Static dielectric constant tensor:
#      x y z
#    x 1.950200 0.000000 0.978010 
#    y 0.000000 1.895090 0.000000 
#    z 0.978010 0.000000 14.370320 
# 
# From -- ./inp_files/23748.got.cif
#   From: 2010.05.17/outbox.cif.g08.bks.cpg/sg15_12_cif.got.tgz:23748.got - 2010.06.03 18:47:42.
