data_PCOD9279655
_publ_section_title
;
Structure prediction by ZEFSAII (Michael W. Deem and Ramdas Pophale) SiO2 
 PCOD9279655
Probable space group: C 2/C
;
_chemical_formula_sum "Si O2"
_cell_formula_units_Z 32
_cell_length_a 11.315473
_cell_length_b 25.301304
_cell_length_c 5.053004
_cell_angle_alpha 90.000000
_cell_angle_beta 68.892863
_cell_angle_gamma 90.000000
_cell_volume 1349.597906
_symmetry_space_group_name_H-M "C 2/C"
_symmetry_group_IT_number 15
_symmetry_cell_setting 'monoclinic'
loop_
_space_group_symop_operation_xyz
x,y,z
-x,y,1/2-z
-x,-y,-z
x,-y,1/2+z
1/2+x,1/2+y,z
1/2-x,1/2+y,1/2-z
1/2-x,1/2-y,-z
1/2+x,1/2-y,1/2+z
loop_
_atom_site_type_symbol
_atom_site_label
_atom_site_fract_x
_atom_site_fract_y
_atom_site_fract_z
Si Si1 0.118637 0.856797 0.328569
Si Si2 0.860085 0.478282 0.759264
Si Si3 0.724256 0.868997 0.816666
Si Si4 0.870952 0.737160 0.213707
O O1 0.164226 0.881584 0.565982
O O2 0.094100 0.795076 0.422677
O O3 0.000000 0.876027 0.250000
O O4 0.229278 0.860705 0.021149
O O5 0.794396 0.516179 0.598314
O O6 0.863839 0.420015 0.633575
O O7 0.000000 0.494179 0.750000
O O8 0.666678 0.811928 0.942718
O O9 0.750000 0.750000 0.500000
O O10 0.000000 0.718823 0.250000
#
# Coordination Sequence:
#
# PCOD9279655 Si02
#       4
#     8   8   8   8
#     4  10  21  36  56  83 116 150 186 229 282 342
#     4  10  21  37  57  82 110 141 182 235 291 341
#     4  11  20  36  59  82 111 150 190 233 283 343
#     4   9  19  35  56  87 121 155 193 235 286 349
#
# _framework density 23.710764000000001
#
# number of rings (size 3 to 8) (size 9 to 14) (size 15 to 20)
#    0.000    2.000    0.000    3.750    0.000    0.000 
#    0.000   17.500    0.000   15.000    0.000    0.000 
#    0.000    0.000    0.000    0.000    0.000    0.000 
#
# Total GULP energy -89103.108452 kJ/mol
# GULP energy per Si atom -5568.944278 kJ/mol
# Density = 2.365680 g / cm^3
# Si number density = 23.710764 Si / 1000 Ang^3
#
#
#
# Elastic Constant Matrix: (Units=GPa)
#
#
# Indices 1 2 3 4 5 6 
#
# 1 113.3462 21.6002 25.0895 0.0000 28.0487 0.0000
# 2 21.6002 74.4209 18.3978 0.0000 19.2542 0.0000
# 3 25.0895 18.3978 84.0476 0.0000 32.8118 0.0000
# 4 0.0000 0.0000 0.0000 16.6721 0.0000 3.0349
# 5 28.0487 19.2542 32.8118 0.0000 45.8113 0.0000
# 6 0.0000 0.0000 0.0000 3.0349 0.0000 32.8964
#
#
#
# Elastic Compliance Matrix: (Units=1/GPa)
#
#
# Indices 1 2 3 4 5 6 
#
# 1 0.010592 -0.001514 -0.000759 0.000000 -0.005305 0.000000
# 2 -0.001514 0.015373 -0.001045 0.000000 -0.004786 0.000000
# 3 -0.000759 -0.001045 0.016658 0.000000 -0.011027 0.000000
# 4 0.000000 0.000000 0.000000 0.061005 0.000000 -0.005628
# 5 -0.005305 -0.004786 -0.011027 0.000000 0.034986 0.000000
# 6 0.000000 0.000000 0.000000 -0.005628 0.000000 0.030918
#
#
# Mechanical properties :
#
#
# Convention : Reuss Voigt Hill
#
# Bulk Modulus (GPa) = 27.78794 44.66551 36.22672
# Shear Modulus (GPa) = 26.57252 32.85778 29.71515
#
# Velocity S-wave (km/s) = 3.35131 3.72664 3.54395
# Velocity P-wave (km/s) = 5.16914 6.11520 5.66196
#
# Compressibility (1/GPa) = 0.03598684
#
# Stress axis : x y z
#
# Youngs Moduli (GPa) = 94.41190 65.04903 60.02970
#
# Poissons Ratio (x) = 0.09849 0.04559
# Poissons Ratio (y) = 0.14294 0.06272
# Poissons Ratio (z) = 0.07170 0.06796
#
# Static dielectric constant tensor:
#      x y z
#    x 1.944050 0.000000 -0.132970 
#    y 0.000000 1.946680 0.000000 
#    z -0.132970 0.000000 2.329480 
# 
# From -- ./inp_files/3675.got.cif
#   From: 2010.05.17/outbox.cif.g08.bks.cpg/sg15_2_cif.got.tgz:3675.got - 2010.06.03 18:47:42.
