data_PCOD9279842
_publ_section_title
;
Structure prediction by ZEFSAII (Michael W. Deem and Ramdas Pophale) SiO2 
 PCOD9279842
Probable space group: C 2/C
;
_chemical_formula_sum "Si O2"
_cell_formula_units_Z 56
_cell_length_a 21.684850
_cell_length_b 7.170144
_cell_length_c 15.161392
_cell_angle_alpha 90.000000
_cell_angle_beta 80.725400
_cell_angle_gamma 90.000000
_cell_volume 2326.529276
_symmetry_space_group_name_H-M "C 2/C"
_symmetry_group_IT_number 15
_symmetry_cell_setting 'monoclinic'
loop_
_space_group_symop_operation_xyz
x,y,z
-x,y,1/2-z
-x,-y,-z
x,-y,1/2+z
1/2+x,1/2+y,z
1/2-x,1/2+y,1/2-z
1/2-x,1/2-y,-z
1/2+x,1/2-y,1/2+z
loop_
_atom_site_type_symbol
_atom_site_label
_atom_site_fract_x
_atom_site_fract_y
_atom_site_fract_z
Si Si1 0.434578 0.288316 0.529950
Si Si2 0.036933 0.077715 0.109041
Si Si3 0.860046 0.074065 0.286497
Si Si4 0.319164 0.982249 0.315584
Si Si5 0.276073 0.993006 0.633161
Si Si6 0.189367 0.068710 0.385572
Si Si7 0.881508 0.568680 0.973062
O O1 0.472606 0.388099 0.444021
O O2 0.469483 0.325833 0.614192
O O3 0.368551 0.397030 0.537485
O O4 0.424470 0.071996 0.517776
O O5 0.073911 0.022837 0.188146
O O6 0.083052 0.240471 0.058649
O O7 0.854754 0.296463 0.277969
O O8 0.843143 0.994151 0.195676
O O9 0.798277 0.032409 0.359684
O O10 0.252246 0.951026 0.379493
O O11 0.298639 0.071746 0.226514
O O12 0.361939 0.044452 0.387904
O O13 0.285676 0.217383 0.628286
O O14 0.320384 0.906082 0.548320
#
# Coordination Sequence:
#
# PCOD9279842 Si02
#       7
#     8   8   8   8   8   8   8
#     4  10  22  37  54  78 106 142 186 221 261 324
#     4  10  22  37  54  78 106 142 186 221 261 324
#     4   9  19  34  53  78 109 140 174 224 272 319
#     4   9  19  33  52  84 111 137 178 220 275 332
#     4   9  19  33  52  84 111 137 178 220 275 332
#     4   9  19  34  53  78 109 140 174 224 272 319
#     4  10  21  36  60  78 109 146 176 226 280 310
#
# _framework density 24.070191000000001
#
# number of rings (size 3 to 8) (size 9 to 14) (size 15 to 20)
#    0.000    2.571    0.000    0.429    6.000    2.857 
#    0.000    0.000    0.000    4.286    0.000    0.000 
#    0.000    0.000    0.000    0.000    0.000    0.000 
#
# Total GULP energy -155956.423002 kJ/mol
# GULP energy per Si atom -5569.872250 kJ/mol
# Density = 2.401541 g / cm^3
# Si number density = 24.070191 Si / 1000 Ang^3
#
#
#
# Elastic Constant Matrix: (Units=GPa)
#
#
# Indices 1 2 3 4 5 6 
#
# 1 74.3107 6.2944 21.9055 0.0000 23.4275 0.0000
# 2 6.2944 44.7464 7.2633 0.0000 -1.2899 0.0000
# 3 21.9055 7.2633 46.1887 0.0000 4.7433 0.0000
# 4 0.0000 0.0000 0.0000 14.4787 0.0000 -4.2959
# 5 23.4275 -1.2899 4.7433 0.0000 26.5664 0.0000
# 6 0.0000 0.0000 0.0000 -4.2959 0.0000 34.9977
#
#
#
# Elastic Compliance Matrix: (Units=1/GPa)
#
#
# Indices 1 2 3 4 5 6 
#
# 1 0.021618 -0.002241 -0.008080 0.000000 -0.017730 0.000000
# 2 -0.002241 0.023250 -0.002967 0.000000 0.003634 0.000000
# 3 -0.008080 -0.002967 0.025703 0.000000 0.002392 0.000000
# 4 0.000000 0.000000 0.000000 0.071678 0.000000 0.008798
# 5 -0.017730 0.003634 0.002392 0.000000 0.053026 0.000000
# 6 0.000000 0.000000 0.000000 0.008798 0.000000 0.029653
#
#
# Mechanical properties :
#
#
# Convention : Reuss Voigt Hill
#
# Bulk Modulus (GPa) = 22.72871 26.24137 24.48504
# Shear Modulus (GPa) = 18.78517 23.86072 21.32295
#
# Velocity S-wave (km/s) = 2.79665 3.15190 2.97958
# Velocity P-wave (km/s) = 4.45999 4.91647 4.69378
#
# Compressibility (1/GPa) = 0.04399723
#
# Stress axis : x y z
#
# Youngs Moduli (GPa) = 46.25739 43.01134 38.90594
#
# Poissons Ratio (x) = 0.09637 0.31434
# Poissons Ratio (y) = 0.10365 0.11542
# Poissons Ratio (z) = 0.37374 0.12760
#
# Static dielectric constant tensor:
#      x y z
#    x 1.964680 0.000000 0.010960 
#    y 0.000000 1.931120 0.000000 
#    z 0.010960 0.000000 2.009830 
# 
# From -- ./inp_files/166683.got.cif
#   From: 2010.05.17/outbox.cif.g08.bks.cpg/sg15_84_cif.got.tgz:166683.got - 2010.06.03 18:47:42.
