data_PCOD9279405
_publ_section_title
;
Structure prediction by ZEFSAII (Michael W. Deem and Ramdas Pophale) SiO2 
 PCOD9279405
Probable space group: C 2/C
;
_chemical_formula_sum "Si O2"
_cell_formula_units_Z 60
_cell_length_a 15.216492
_cell_length_b 29.828928
_cell_length_c 10.832056
_cell_angle_alpha 90.000000
_cell_angle_beta 30.332562
_cell_angle_gamma 90.000000
_cell_volume 2482.962344
_symmetry_space_group_name_H-M "C 2/C"
_symmetry_group_IT_number 15
_symmetry_cell_setting 'monoclinic'
loop_
_space_group_symop_operation_xyz
x,y,z
-x,y,1/2-z
-x,-y,-z
x,-y,1/2+z
1/2+x,1/2+y,z
1/2-x,1/2+y,1/2-z
1/2-x,1/2-y,-z
1/2+x,1/2-y,1/2+z
loop_
_atom_site_type_symbol
_atom_site_label
_atom_site_fract_x
_atom_site_fract_y
_atom_site_fract_z
Si Si1 0.104807 0.079313 0.780066
Si Si2 0.821597 0.445219 0.264898
Si Si3 0.479207 0.663669 0.071573
Si Si4 0.625076 0.732496 0.487038
Si Si5 0.215812 0.650226 0.595138
Si Si6 0.086582 0.418209 0.770542
Si Si7 0.000000 0.997453 0.250000
Si Si8 0.510503 0.816679 0.940569
O O1 0.217238 0.067918 0.765938
O O2 0.218344 0.087384 0.517774
O O3 0.008444 0.033853 0.860681
O O4 0.002440 0.123837 0.944149
O O5 0.836308 0.401372 0.331603
O O6 0.684047 0.476322 0.506987
O O7 0.018797 0.449206 0.966297
O O8 0.300442 0.658053 0.362045
O O9 0.462871 0.711299 0.027072
O O10 0.632785 0.658652 0.985308
O O11 0.500000 0.720973 0.750000
O O12 0.623459 0.786139 0.474457
O O13 0.806829 0.708262 0.287668
O O14 0.059500 0.680076 0.834967
O O15 0.022073 0.367522 0.877397
O O16 0.000000 0.436686 0.750000
#
# Coordination Sequence:
#
# PCOD9279405 Si02
#       8
#     8   8   8   8   8   8   4   8
#     4  10  21  35  59  88 122 160 201 259 309 371
#     4   9  19  37  57  86 114 161 206 253 303 372
#     4  10  21  39  63  89 123 162 212 254 318 370
#     4  12  25  38  61  94 132 162 207 263 315 376
#     4   9  20  42  66  85 116 168 211 257 309 378
#     4   9  19  38  61  81 119 163 210 248 313 371
#     4  12  22  32  60  90 128 154 208 254 312 368
#     4  11  23  39  62  90 125 164 210 258 315 375
#
# _framework density 24.164684000000001
#
# number of rings (size 3 to 8) (size 9 to 14) (size 15 to 20)
#    0.000    1.867    0.000    5.200    2.800    1.600 
#    0.000    0.000    0.000    0.000    0.000    0.000 
#    0.000    0.000    0.000    0.000    0.000    0.000 
#
# Total GULP energy -167427.173281 kJ/mol
# GULP energy per Si atom -5580.905776 kJ/mol
# Density = 2.410968 g / cm^3
# Si number density = 24.164684 Si / 1000 Ang^3
#
#
#
# Elastic Constant Matrix: (Units=GPa)
#
#
# Indices 1 2 3 4 5 6 
#
# 1 38.7002 7.4927 15.1010 0.0000 -2.0132 0.0000
# 2 7.4927 85.5880 49.8295 0.0000 13.1654 0.0000
# 3 15.1010 49.8295 200.1944 0.0000 19.1449 0.0000
# 4 0.0000 0.0000 0.0000 30.2986 0.0000 -0.7145
# 5 -2.0132 13.1654 19.1449 0.0000 27.6540 0.0000
# 6 0.0000 0.0000 0.0000 -0.7145 0.0000 -11.7936
#
#
#
# Elastic Compliance Matrix: (Units=1/GPa)
#
#
# Indices 1 2 3 4 5 6 
#
# 1 0.027201 -0.001876 -0.001992 0.000000 0.004252 0.000000
# 2 -0.001876 0.014323 -0.002954 0.000000 -0.004910 0.000000
# 3 -0.001992 -0.002954 0.006168 0.000000 -0.003009 0.000000
# 4 0.000000 0.000000 0.000000 0.032958 0.000000 -0.001997
# 5 0.004252 -0.004910 -0.003009 0.000000 0.040892 0.000000
# 6 0.000000 0.000000 0.000000 -0.001997 0.000000 -0.084670
#
#
# Mechanical properties :
#
#
# Convention : Reuss Voigt Hill
#
# Bulk Modulus (GPa) = 29.36869 52.14768 40.75818
# Shear Modulus (GPa) = 80.82179 26.03575 53.42877
#
# Velocity S-wave (km/s) = 5.78955 3.28598 4.70726
# Velocity P-wave (km/s) = 7.54134 6.00199 6.81526
#
# Compressibility (1/GPa) = 0.03404987
#
# Stress axis : x y z
#
# Youngs Moduli (GPa) = 36.76321 69.81633 162.11636
#
# Poissons Ratio (x) = 0.13097 0.32286
# Poissons Ratio (y) = 0.06896 0.47890
# Poissons Ratio (z) = 0.07322 0.20624
#
# Static dielectric constant tensor:
#      x y z
#    x 1.982330 0.000000 -0.105850 
#    y 0.000000 1.898860 0.000000 
#    z -0.105850 0.000000 2.046970 
# 
# From -- ./inp_files/108389.got.cif
#   From: 2010.05.17/outbox.cif.g08.bks.cpg/sg15_55_cif.got.tgz:108389.got - 2010.06.03 18:47:42.
