data_PCOD9279428
_publ_section_title
;
Structure prediction by ZEFSAII (Michael W. Deem and Ramdas Pophale) SiO2 
 PCOD9279428
Probable space group: C 2/C
;
_chemical_formula_sum "Si O2"
_cell_formula_units_Z 52
_cell_length_a 9.002006
_cell_length_b 30.277598
_cell_length_c 15.433780
_cell_angle_alpha 90.000000
_cell_angle_beta 141.578909
_cell_angle_gamma 90.000000
_cell_volume 2614.144471
_symmetry_space_group_name_H-M "C 2/C"
_symmetry_group_IT_number 15
_symmetry_cell_setting 'monoclinic'
loop_
_space_group_symop_operation_xyz
x,y,z
-x,y,1/2-z
-x,-y,-z
x,-y,1/2+z
1/2+x,1/2+y,z
1/2-x,1/2+y,1/2-z
1/2-x,1/2-y,-z
1/2+x,1/2-y,1/2+z
loop_
_atom_site_type_symbol
_atom_site_label
_atom_site_fract_x
_atom_site_fract_y
_atom_site_fract_z
Si Si1 0.997295 0.439601 0.094550
Si Si2 0.751093 0.033628 0.185788
Si Si3 0.643122 0.236816 0.686587
Si Si4 0.495427 0.550122 0.030049
Si Si5 0.329591 0.295969 0.441373
Si Si6 0.500000 0.676838 0.750000
Si Si7 0.089003 0.880063 0.137711
O O1 0.119622 0.488084 0.150566
O O2 0.184564 0.402832 0.211137
O O3 0.898925 0.437399 0.951067
O O4 0.770530 0.439749 0.055194
O O5 0.825241 0.056693 0.308502
O O6 0.000000 0.022031 0.250000
O O7 0.554264 0.281777 0.602019
O O8 0.404402 0.210698 0.606980
O O9 0.797029 0.238093 0.845395
O O10 0.787006 0.207828 0.684164
O O11 0.500000 0.500000 0.000000
O O12 0.547765 0.581289 0.973466
O O13 0.339713 0.343589 0.401497
O O14 0.559280 0.645710 0.857878
#
# Coordination Sequence:
#
# PCOD9279428 Si02
#       7
#     8   8   8   8   8   4   8
#     4  10  21  35  60  79 116 161 201 266 293 361
#     4   9  20  38  55  83 113 161 213 251 310 358
#     4   9  19  39  63  93 122 157 196 245 308 378
#     4  11  22  36  58  86 118 166 212 253 307 356
#     4   9  20  39  67  90 120 160 208 239 305 381
#     4  10  24  36  62  98 126 154 202 252 312 372
#     4  11  23  36  59  92 120 161 207 258 299 363
#
# _framework density 19.891787000000001
#
# number of rings (size 3 to 8) (size 9 to 14) (size 15 to 20)
#    0.000    2.154    1.538    0.462    9.692    3.692 
#    0.000    3.077   10.154    5.538    0.000    0.000 
#    0.000    0.000    0.000    0.000    0.000    0.000 
#
# Total GULP energy -145095.215018 kJ/mol
# GULP energy per Si atom -5580.585193 kJ/mol
# Density = 1.984651 g / cm^3
# Si number density = 19.891787 Si / 1000 Ang^3
#
#
#
# Elastic Constant Matrix: (Units=GPa)
#
#
# Indices 1 2 3 4 5 6 
#
# 1 89.3610 33.5541 20.1588 0.0000 -14.3953 0.0000
# 2 33.5541 75.2351 30.9420 0.0000 -13.5517 0.0000
# 3 20.1588 30.9420 92.7354 0.0000 -12.7202 0.0000
# 4 0.0000 0.0000 0.0000 35.6163 0.0000 -12.7523
# 5 -14.3953 -13.5517 -12.7202 0.0000 10.4431 0.0000
# 6 0.0000 0.0000 0.0000 -12.7523 0.0000 25.9733
#
#
#
# Elastic Compliance Matrix: (Units=1/GPa)
#
#
# Indices 1 2 3 4 5 6 
#
# 1 0.015229 -0.003986 0.000227 0.000000 0.016097 0.000000
# 2 -0.003986 0.019241 -0.003460 0.000000 0.015259 0.000000
# 3 0.000227 -0.003460 0.013585 0.000000 0.012371 0.000000
# 4 0.000000 0.000000 0.000000 0.034066 0.000000 0.016725
# 5 0.016097 0.015259 0.012371 0.000000 0.152815 0.000000
# 6 0.000000 0.000000 0.000000 0.016725 0.000000 0.046713
#
#
# Mechanical properties :
#
#
# Convention : Reuss Voigt Hill
#
# Bulk Modulus (GPa) = 29.74649 47.40459 38.57554
# Shear Modulus (GPa) = 16.27111 25.91831 21.09471
#
# Velocity S-wave (km/s) = 2.86314 3.61358 3.26002
# Velocity P-wave (km/s) = 5.09085 6.42601 5.79699
#
# Compressibility (1/GPa) = 0.03361741
#
# Stress axis : x y z
#
# Youngs Moduli (GPa) = 65.66389 51.97198 73.60863
#
# Poissons Ratio (x) = 0.20716 -0.01674
# Poissons Ratio (y) = 0.26174 0.25472
# Poissons Ratio (z) = -0.01494 0.17985
#
# Static dielectric constant tensor:
#      x y z
#    x 1.707460 0.000000 -0.012420 
#    y 0.000000 1.687650 0.000000 
#    z -0.012420 0.000000 1.741610 
# 
# From -- ./inp_files/139897.got.cif
#   From: 2010.05.17/outbox.cif.g08.bks.cpg/sg15_70_cif.got.tgz:139897.got - 2010.06.03 18:47:42.
