data_PCOD9279563
_publ_section_title
;
Structure prediction by ZEFSAII (Michael W. Deem and Ramdas Pophale) SiO2 
 PCOD9279563
Probable space group: C 2/C
;
_chemical_formula_sum "Si O2"
_cell_formula_units_Z 48
_cell_length_a 16.587715
_cell_length_b 26.857694
_cell_length_c 12.672398
_cell_angle_alpha 90.000000
_cell_angle_beta 25.853458
_cell_angle_gamma 90.000000
_cell_volume 2461.904603
_symmetry_space_group_name_H-M "C 2/C"
_symmetry_group_IT_number 15
_symmetry_cell_setting 'monoclinic'
loop_
_space_group_symop_operation_xyz
x,y,z
-x,y,1/2-z
-x,-y,-z
x,-y,1/2+z
1/2+x,1/2+y,z
1/2-x,1/2+y,1/2-z
1/2-x,1/2-y,-z
1/2+x,1/2-y,1/2+z
loop_
_atom_site_type_symbol
_atom_site_label
_atom_site_fract_x
_atom_site_fract_y
_atom_site_fract_z
Si Si1 0.161601 0.977792 0.659053
Si Si2 0.671797 0.640941 0.832053
Si Si3 0.397173 0.559540 0.051819
Si Si4 0.067000 0.618873 0.331767
Si Si5 0.810000 0.806596 0.410705
Si Si6 0.500000 0.039821 0.250000
Si Si7 0.500000 0.617001 0.250000
O O1 0.144007 0.924587 0.623811
O O2 0.330196 0.007433 0.414426
O O3 0.202100 0.966982 0.733753
O O4 0.986523 0.015643 0.875550
O O5 0.562860 0.593110 0.907858
O O6 0.663752 0.679993 0.743842
O O7 0.891005 0.639105 0.602718
O O8 0.569150 0.646938 0.066006
O O9 0.244989 0.594675 0.177796
O O10 0.961028 0.576127 0.391872
O O11 0.155471 0.658417 0.146691
O O12 0.750000 0.750000 0.500000
O O13 0.000000 0.816052 0.250000
#
# Coordination Sequence:
#
# PCOD9279563 Si02
#       7
#     8   8   8   8   8   4   4
#     4  10  21  36  52  86 124 172 230 249 296 362
#     4  11  22  43  61  96 128 167 212 254 326 375
#     4  10  21  38  57  82 125 173 213 268 302 353
#     4  12  22  37  63  90 125 163 201 273 327 360
#     4  12  24  43  73 101 125 150 201 270 327 393
#     4  12  22  32  56  90 126 168 220 264 308 360
#     4  10  24  40  62  84 136 184 208 258 298 376
#
# _framework density 19.497101000000001
#
# number of rings (size 3 to 8) (size 9 to 14) (size 15 to 20)
#    0.000    1.000    5.000    2.000    2.333    0.667 
#    0.000    0.000    0.000    4.000    0.000    0.000 
#    0.000    0.000    0.000    0.000    0.000    0.000 
#
# Total GULP energy -133664.189081 kJ/mol
# GULP energy per Si atom -5569.341212 kJ/mol
# Density = 1.945272 g / cm^3
# Si number density = 19.497101 Si / 1000 Ang^3
#
#
#
# Elastic Constant Matrix: (Units=GPa)
#
#
# Indices 1 2 3 4 5 6 
#
# 1 86.0148 29.7455 43.2030 -0.0693 8.0196 0.0255
# 2 29.7455 71.9298 31.6773 0.0125 12.8558 -0.0156
# 3 43.2030 31.6773 96.3198 0.0068 0.1979 0.0050
# 4 -0.0693 0.0125 0.0068 1.6964 0.0220 -5.4683
# 5 8.0196 12.8558 0.1979 0.0220 44.3397 -0.0292
# 6 0.0255 -0.0156 0.0050 -5.4683 -0.0292 19.5601
#
#
#
# Elastic Compliance Matrix: (Units=1/GPa)
#
#
# Indices 1 2 3 4 5 6 
#
# 1 0.016089 -0.003687 -0.006001 0.006594 -0.001816 0.001818
# 2 -0.003687 0.018139 -0.004302 -0.001665 -0.004573 -0.000452
# 3 -0.006001 -0.004302 0.014484 -0.002910 0.002269 -0.000810
# 4 0.006594 -0.001665 -0.002910 5.968631 -0.002561 1.668592
# 5 -0.001816 -0.004573 0.002269 -0.002561 0.024198 -0.000682
# 6 0.001818 -0.000452 -0.000810 1.668592 -0.000682 0.517597
#
#
# Mechanical properties :
#
#
# Convention : Reuss Voigt Hill
#
# Bulk Modulus (GPa) = 48.23352 51.50181 49.86766
# Shear Modulus (GPa) = 0.75826 23.09515 11.92671
#
# Velocity S-wave (km/s) = 0.62430 3.44545 2.47597
# Velocity P-wave (km/s) = 5.03112 6.50389 5.81433
#
# Compressibility (1/GPa) = 0.02073247
#
# Stress axis : x y z
#
# Youngs Moduli (GPa) = 62.15399 55.12902 69.04062
#
# Poissons Ratio (x) = 0.20325 0.41430
# Poissons Ratio (y) = 0.22915 0.29704
# Poissons Ratio (z) = 0.37298 0.23719
#
# Static dielectric constant tensor:
#      x y z
#    x 1.755510 0.000010 -0.022320 
#    y 0.000010 1.668900 0.000010 
#    z -0.022320 0.000010 1.699140 
# 
# From -- ./inp_files/101271.got.cif
#   From: 2010.05.17/outbox.cif.g08.bks.cpg/sg15_51_cif.got.tgz:101271.got - 2010.06.03 18:47:42.
