data_PCOD9279547
_publ_section_title
;
Structure prediction by ZEFSAII (Michael W. Deem and Ramdas Pophale) SiO2 
 PCOD9279547
Probable space group: C 2/C
;
_chemical_formula_sum "Si O2"
_cell_formula_units_Z 44
_cell_length_a 5.368077
_cell_length_b 29.319353
_cell_length_c 12.355101
_cell_angle_alpha 90.000000
_cell_angle_beta 100.413767
_cell_angle_gamma 90.000000
_cell_volume 1912.520844
_symmetry_space_group_name_H-M "C 2/C"
_symmetry_group_IT_number 15
_symmetry_cell_setting 'monoclinic'
loop_
_space_group_symop_operation_xyz
x,y,z
-x,y,1/2-z
-x,-y,-z
x,-y,1/2+z
1/2+x,1/2+y,z
1/2-x,1/2+y,1/2-z
1/2-x,1/2-y,-z
1/2+x,1/2-y,1/2+z
loop_
_atom_site_type_symbol
_atom_site_label
_atom_site_fract_x
_atom_site_fract_y
_atom_site_fract_z
Si Si1 0.484675 0.722630 0.065385
Si Si2 0.862011 0.594762 0.928885
Si Si3 0.786101 0.191079 0.642007
Si Si4 0.500000 0.652894 0.250000
Si Si5 0.376837 0.549484 0.976375
Si Si6 0.373656 0.917608 0.833889
O O1 0.642436 0.760921 0.142750
O O2 0.423655 0.683407 0.143411
O O3 0.250000 0.750000 0.000000
O O4 0.612830 0.698383 0.972487
O O5 0.870912 0.643850 0.871874
O O6 0.574744 0.576398 0.915106
O O7 0.088218 0.559776 0.910995
O O8 0.932110 0.600159 0.060951
O O9 0.000000 0.187587 0.750000
O O10 0.259421 0.621195 0.246059
O O11 0.500000 0.500000 0.000000
O O12 0.340275 0.563813 0.100239
O O13 0.500000 0.948550 0.750000
#
# Coordination Sequence:
#
# PCOD9279547 Si02
#       6
#     8   8   8   4   8   8
#     4  11  24  40  64 100 140 190 246 306 356 436
#     4  10  23  41  70  99 140 187 236 295 362 443
#     4  11  24  42  64  97 141 195 247 297 372 433
#     4  12  22  40  66 104 138 186 244 296 366 418
#     4  10  22  43  73 104 139 188 230 303 374 441
#     4  10  21  35  68 102 142 178 233 300 363 432
#
# _framework density 23.006287
#
# number of rings (size 3 to 8) (size 9 to 14) (size 15 to 20)
#    1.091    0.364    0.000    6.000    2.545    3.636 
#    0.000    0.000    6.000    0.000    0.000    0.000 
#    0.000    0.000    0.000    0.000    0.000    0.000 
#
# Total GULP energy -122519.804179 kJ/mol
# GULP energy per Si atom -5569.082008 kJ/mol
# Density = 2.295392 g / cm^3
# Si number density = 23.006287 Si / 1000 Ang^3
#
#
#
# Elastic Constant Matrix: (Units=GPa)
#
#
# Indices 1 2 3 4 5 6 
#
# 1 107.6337 21.7394 13.2324 0.0000 -8.2143 0.0000
# 2 21.7394 79.2519 12.7794 0.0000 -10.2639 0.0000
# 3 13.2324 12.7794 56.0562 0.0000 3.1916 0.0000
# 4 0.0000 0.0000 0.0000 30.6933 0.0000 -5.2811
# 5 -8.2143 -10.2639 3.1916 0.0000 28.9254 0.0000
# 6 0.0000 0.0000 0.0000 -5.2811 0.0000 39.7628
#
#
#
# Elastic Compliance Matrix: (Units=1/GPa)
#
#
# Indices 1 2 3 4 5 6 
#
# 1 0.010155 -0.002153 -0.002040 0.000000 0.002345 0.000000
# 2 -0.002153 0.014319 -0.003030 0.000000 0.004804 0.000000
# 3 -0.002040 -0.003030 0.019226 0.000000 -0.003776 0.000000
# 4 0.000000 0.000000 0.000000 0.033342 0.000000 0.004428
# 5 0.002345 0.004804 -0.003776 0.000000 0.037359 0.000000
# 6 0.000000 0.000000 0.000000 0.004428 0.000000 0.025737
#
#
# Mechanical properties :
#
#
# Convention : Reuss Voigt Hill
#
# Bulk Modulus (GPa) = 34.18127 37.60489 35.89308
# Shear Modulus (GPa) = 30.42528 32.88900 31.65714
#
# Velocity S-wave (km/s) = 3.64053 3.78506 3.71350
# Velocity P-wave (km/s) = 5.70622 5.95678 5.83284
#
# Compressibility (1/GPa) = 0.02925579
#
# Stress axis : x y z
#
# Youngs Moduli (GPa) = 98.46983 69.83583 52.01164
#
# Poissons Ratio (x) = 0.15036 0.10610
# Poissons Ratio (y) = 0.21201 0.15758
# Poissons Ratio (z) = 0.20087 0.21158
#
# Static dielectric constant tensor:
#      x y z
#    x 1.959750 0.000000 -0.017860 
#    y 0.000000 1.925520 0.000000 
#    z -0.017860 0.000000 1.815430 
# 
# From -- ./inp_files/74005.got.cif
#   From: 2010.05.17/outbox.cif.g08.bks.cpg/sg15_38_cif.got.tgz:74005.got - 2010.06.03 18:47:42.
