data_PCOD9279284
_publ_section_title
;
Structure prediction by ZEFSAII (Michael W. Deem and Ramdas Pophale) SiO2 
 PCOD9279284
Probable space group: C 2/C
;
_chemical_formula_sum "Si O2"
_cell_formula_units_Z 40
_cell_length_a 7.217559
_cell_length_b 23.915804
_cell_length_c 9.579195
_cell_angle_alpha 90.000000
_cell_angle_beta 86.745934
_cell_angle_gamma 90.000000
_cell_volume 1650.834515
_symmetry_space_group_name_H-M "C 2/C"
_symmetry_group_IT_number 15
_symmetry_cell_setting 'monoclinic'
loop_
_space_group_symop_operation_xyz
x,y,z
-x,y,1/2-z
-x,-y,-z
x,-y,1/2+z
1/2+x,1/2+y,z
1/2-x,1/2+y,1/2-z
1/2-x,1/2-y,-z
1/2+x,1/2-y,1/2+z
loop_
_atom_site_type_symbol
_atom_site_label
_atom_site_fract_x
_atom_site_fract_y
_atom_site_fract_z
Si Si1 0.402920 0.157588 0.609689
Si Si2 0.809672 0.752584 0.221823
Si Si3 0.196164 0.832157 0.523707
Si Si4 0.793250 0.442374 0.942854
Si Si5 0.743399 0.950375 0.880047
O O1 0.500000 0.134017 0.750000
O O2 0.295957 0.213412 0.655422
O O3 0.581984 0.170682 0.511525
O O4 0.274439 0.114784 0.531220
O O5 0.673331 0.708942 0.154344
O O6 0.000000 0.722387 0.250000
O O7 0.875515 0.801284 0.110486
O O8 0.158106 0.896657 0.554600
O O9 0.721597 0.447649 0.787468
O O10 0.019137 0.445950 0.914278
O O11 0.715306 0.492132 0.042343
#
# Coordination Sequence:
#
# PCOD9279284 Si02
#       5
#     8   8   8   8   8
#     4   9  19  34  54  80 110 142 184 229 273 325
#     4  10  21  35  56  78 110 152 184 222 271 326
#     4   9  20  37  53  82 113 142 181 233 270 323
#     4   9  18  28  52  84 108 141 171 230 285 325
#     4   9  18  30  51  82 114 134 176 229 282 325
#
# _framework density 24.230170000000001
#
# number of rings (size 3 to 8) (size 9 to 14) (size 15 to 20)
#    0.000    2.800    0.000    0.000   16.800    0.800 
#    0.000    0.000    0.000    1.200    0.000    0.000 
#    0.000    0.000    0.000    0.000    0.000    0.000 
#
# Total GULP energy -111679.767766 kJ/mol
# GULP energy per Si atom -5583.988388 kJ/mol
# Density = 2.417502 g / cm^3
# Si number density = 24.230170 Si / 1000 Ang^3
#
#
#
# Elastic Constant Matrix: (Units=GPa)
#
#
# Indices 1 2 3 4 5 6 
#
# 1 60.1842 -1.7902 18.5043 0.0000 -3.3055 0.0000
# 2 -1.7902 82.4406 44.9900 0.0000 -19.4167 0.0000
# 3 18.5043 44.9900 122.8410 0.0000 -5.2581 0.0000
# 4 0.0000 0.0000 0.0000 31.1045 0.0000 5.8559
# 5 -3.3055 -19.4167 -5.2581 0.0000 22.5313 0.0000
# 6 0.0000 0.0000 0.0000 5.8559 0.0000 15.5495
#
#
#
# Elastic Compliance Matrix: (Units=1/GPa)
#
#
# Indices 1 2 3 4 5 6 
#
# 1 0.018186 0.003668 -0.003872 0.000000 0.004925 0.000000
# 2 0.003668 0.019879 -0.007148 0.000000 0.016001 0.000000
# 3 -0.003872 -0.007148 0.011165 0.000000 -0.004123 0.000000
# 4 0.000000 0.000000 0.000000 0.034603 0.000000 -0.013031
# 5 0.004925 0.016001 -0.004123 0.000000 0.057932 0.000000
# 6 0.000000 0.000000 0.000000 -0.013031 0.000000 0.069218
#
#
# Mechanical properties :
#
#
# Convention : Reuss Voigt Hill
#
# Bulk Modulus (GPa) = 28.96383 43.20821 36.08602
# Shear Modulus (GPa) = 21.07948 27.42117 24.25032
#
# Velocity S-wave (km/s) = 2.95272 3.36772 3.16702
# Velocity P-wave (km/s) = 4.85843 5.74397 5.31966
#
# Compressibility (1/GPa) = 0.03452582
#
# Stress axis : x y z
#
# Youngs Moduli (GPa) = 54.98811 50.30369 89.56209
#
# Poissons Ratio (x) = -0.18451 0.34678
# Poissons Ratio (y) = -0.20169 0.64022
# Poissons Ratio (z) = 0.21291 0.35959
#
# Static dielectric constant tensor:
#      x y z
#    x 1.978330 0.000000 0.056310 
#    y 0.000000 1.923140 0.000000 
#    z 0.056310 0.000000 2.017450 
# 
# From -- ./inp_files/23432.got.cif
#   From: 2010.05.17/outbox.cif.g08.bks.cpg/sg15_12_cif.got.tgz:23432.got - 2010.06.03 18:47:42.
