data_PCOD9279904
_publ_section_title
;
Structure prediction by ZEFSAII (Michael W. Deem and Ramdas Pophale) SiO2 
 PCOD9279904
Probable space group: C 2/C
;
_chemical_formula_sum "Si O2"
_cell_formula_units_Z 44
_cell_length_a 14.477350
_cell_length_b 16.174821
_cell_length_c 10.320828
_cell_angle_alpha 90.000000
_cell_angle_beta 67.095464
_cell_angle_gamma 90.000000
_cell_volume 2226.258656
_symmetry_space_group_name_H-M "C 2/C"
_symmetry_group_IT_number 15
_symmetry_cell_setting 'monoclinic'
loop_
_space_group_symop_operation_xyz
x,y,z
-x,y,1/2-z
-x,-y,-z
x,-y,1/2+z
1/2+x,1/2+y,z
1/2-x,1/2+y,1/2-z
1/2-x,1/2-y,-z
1/2+x,1/2-y,1/2+z
loop_
_atom_site_type_symbol
_atom_site_label
_atom_site_fract_x
_atom_site_fract_y
_atom_site_fract_z
Si Si1 0.704796 0.617142 0.999699
Si Si2 0.491728 0.433221 0.613858
Si Si3 0.182573 0.454103 0.566552
Si Si4 0.500000 0.927208 0.250000
Si Si5 0.835391 0.342665 0.177427
Si Si6 0.280552 0.342064 0.723894
O O1 0.726918 0.519208 0.000705
O O2 0.759379 0.639724 0.837461
O O3 0.585642 0.629526 0.055344
O O4 0.747244 0.659274 0.107432
O O5 0.500000 0.474013 0.750000
O O6 0.500000 0.500000 0.500000
O O7 0.385103 0.390637 0.663700
O O8 0.084851 0.511916 0.643553
O O9 0.176847 0.400466 0.440203
O O10 0.203732 0.393826 0.677138
O O11 0.443419 0.867775 0.178639
O O12 0.809095 0.248535 0.157542
#
# Coordination Sequence:
#
# PCOD9279904 Si02
#       6
#     8   8   8   4   8   8
#     4  10  21  39  63  88 122 165 206 242 309 378
#     4  10  21  36  61  88 121 161 203 246 299 373
#     4  11  22  43  65  90 122 167 205 255 305 375
#     4  10  24  42  66  90 124 168 214 242 312 382
#     4  11  24  40  65  93 123 159 207 262 307 360
#     4  11  23  40  62  93 130 154 205 264 310 354
#
# _framework density 19.764101
#
# number of rings (size 3 to 8) (size 9 to 14) (size 15 to 20)
#    0.000    1.455    1.818    3.818    6.364    1.455 
#    3.273    0.000    0.000    0.000    0.000    0.000 
#    0.000    0.000    0.000    0.000    0.000    0.000 
#
# Total GULP energy -122747.916843 kJ/mol
# GULP energy per Si atom -5579.450766 kJ/mol
# Density = 1.971912 g / cm^3
# Si number density = 19.764101 Si / 1000 Ang^3
#
#
#
# Elastic Constant Matrix: (Units=GPa)
#
#
# Indices 1 2 3 4 5 6 
#
# 1 66.5775 -8.4489 19.2638 0.0000 0.6704 0.0000
# 2 -8.4489 67.2186 -1.3139 0.0000 7.8000 0.0000
# 3 19.2638 -1.3139 67.0535 0.0000 -2.7471 0.0000
# 4 0.0000 0.0000 0.0000 26.3502 0.0000 5.5875
# 5 0.6704 7.8000 -2.7471 0.0000 27.0869 0.0000
# 6 0.0000 0.0000 0.0000 5.5875 0.0000 16.4205
#
#
#
# Elastic Compliance Matrix: (Units=1/GPa)
#
#
# Indices 1 2 3 4 5 6 
#
# 1 0.016707 0.002183 -0.004820 0.000000 -0.001531 0.000000
# 2 0.002183 0.015677 -0.000509 0.000000 -0.004620 0.000000
# 3 -0.004820 -0.000509 0.016367 0.000000 0.001926 0.000000
# 4 0.000000 0.000000 0.000000 0.040902 0.000000 -0.013918
# 5 -0.001531 -0.004620 0.001926 0.000000 0.038482 0.000000
# 6 0.000000 0.000000 0.000000 -0.013918 0.000000 0.065635
#
#
# Mechanical properties :
#
#
# Convention : Reuss Voigt Hill
#
# Bulk Modulus (GPa) = 23.55142 24.42796 23.98969
# Shear Modulus (GPa) = 23.34100 26.72809 25.03455
#
# Velocity S-wave (km/s) = 3.44027 3.68143 3.56289
# Velocity P-wave (km/s) = 5.26524 5.51880 5.39351
#
# Compressibility (1/GPa) = 0.04246028
#
# Stress axis : x y z
#
# Youngs Moduli (GPa) = 59.85455 63.78594 61.09839
#
# Poissons Ratio (x) = -0.13927 0.29448
# Poissons Ratio (y) = -0.13069 0.03112
# Poissons Ratio (z) = 0.28848 0.03249
#
# Static dielectric constant tensor:
#      x y z
#    x 1.930510 0.000000 -0.194320 
#    y 0.000000 1.703620 0.000000 
#    z -0.194320 0.000000 1.877090 
# 
# From -- ./inp_files/39149.got.cif
#   From: 2010.05.17/outbox.cif.g08.bks.cpg/sg15_20_cif.got.tgz:39149.got - 2010.06.03 18:47:42.
