data_PCOD9279535
_publ_section_title
;
Structure prediction by ZEFSAII (Michael W. Deem and Ramdas Pophale) SiO2 
 PCOD9279535
Probable space group: C 2/C
;
_chemical_formula_sum "Si O2"
_cell_formula_units_Z 36
_cell_length_a 11.983405
_cell_length_b 17.409679
_cell_length_c 12.828714
_cell_angle_alpha 90.000000
_cell_angle_beta 35.426094
_cell_angle_gamma 90.000000
_cell_volume 1551.392615
_symmetry_space_group_name_H-M "C 2/C"
_symmetry_group_IT_number 15
_symmetry_cell_setting 'monoclinic'
loop_
_space_group_symop_operation_xyz
x,y,z
-x,y,1/2-z
-x,-y,-z
x,-y,1/2+z
1/2+x,1/2+y,z
1/2-x,1/2+y,1/2-z
1/2-x,1/2-y,-z
1/2+x,1/2-y,1/2+z
loop_
_atom_site_type_symbol
_atom_site_label
_atom_site_fract_x
_atom_site_fract_y
_atom_site_fract_z
Si Si1 0.119548 0.157279 0.844188
Si Si2 0.185898 0.837739 0.538765
Si Si3 0.750968 0.588183 0.398429
Si Si4 0.459964 0.825904 0.933702
Si Si5 0.000000 0.554347 0.750000
O O1 0.008691 0.235613 0.893112
O O2 0.326675 0.157970 0.633489
O O3 0.976816 0.089497 0.919005
O O4 0.138518 0.153843 0.953019
O O5 0.250000 0.750000 0.500000
O O6 0.369316 0.891789 0.421741
O O7 0.000000 0.853811 0.750000
O O8 0.837040 0.636812 0.431500
O O9 0.845480 0.504874 0.320212
O O10 0.833126 0.633325 0.235214
#
# Coordination Sequence:
#
# PCOD9279535 Si02
#       5
#     8   8   8   8   4
#     4  12  22  38  70 100 129 176 221 259 321 386
#     4  12  27  46  72  92 125 174 231 276 316 376
#     4  10  24  41  64 101 141 167 202 269 334 390
#     4  10  21  35  65 103 137 165 210 260 319 391
#     4  10  26  48  64  96 134 166 218 278 324 386
#
# _framework density 23.204957
#
# number of rings (size 3 to 8) (size 9 to 14) (size 15 to 20)
#    0.000    1.333    3.333    2.667    3.111    4.444 
#    0.000    5.556    0.000    0.000    0.000    0.000 
#    0.000    0.000    0.000    0.000    0.000    0.000 
#
# Total GULP energy -100596.256495 kJ/mol
# GULP energy per Si atom -5588.680916 kJ/mol
# Density = 2.315214 g / cm^3
# Si number density = 23.204957 Si / 1000 Ang^3
#
#
#
# Elastic Constant Matrix: (Units=GPa)
#
#
# Indices 1 2 3 4 5 6 
#
# 1 73.6068 18.4557 23.7258 -0.0011 7.5381 -0.0011
# 2 18.4557 125.3037 48.8182 -0.0001 -12.6721 -0.0031
# 3 23.7258 48.8182 192.8507 -0.0026 13.1501 -0.0026
# 4 -0.0011 -0.0001 -0.0026 38.1226 0.0004 -1.4239
# 5 7.5381 -12.6721 13.1501 0.0004 35.7801 0.0027
# 6 -0.0011 -0.0031 -0.0026 -1.4239 0.0027 -6.9307
#
#
#
# Elastic Compliance Matrix: (Units=1/GPa)
#
#
# Indices 1 2 3 4 5 6 
#
# 1 0.014814 -0.002127 -0.001046 0.000000 -0.003490 -0.000002
# 2 -0.002127 0.009775 -0.002543 0.000000 0.004845 -0.000001
# 3 -0.001046 -0.002543 0.006158 0.000000 -0.002944 -0.000002
# 4 0.000000 0.000000 0.000000 0.026031 0.000000 -0.005348
# 5 -0.003490 0.004845 -0.002944 0.000000 0.031481 0.000012
# 6 -0.000002 -0.000001 -0.000002 -0.005348 0.000012 -0.143188
#
#
# Mechanical properties :
#
#
# Convention : Reuss Voigt Hill
#
# Bulk Modulus (GPa) = 51.77530 63.75116 57.76323
# Shear Modulus (GPa) = -134.92519 33.44518 -50.74000
#
# Velocity S-wave (km/s) = -7.63356 3.80056 -4.68118
# Velocity P-wave (km/s) = 7.43871 6.84045 2.06672
#
# Compressibility (1/GPa) = 0.01931423
#
# Stress axis : x y z
#
# Youngs Moduli (GPa) = 67.50538 102.30581 162.37725
#
# Poissons Ratio (x) = 0.21763 0.16985
# Poissons Ratio (y) = 0.14360 0.41292
# Poissons Ratio (z) = 0.07061 0.26016
#
# Static dielectric constant tensor:
#      x y z
#    x 1.943480 0.000000 -0.031630 
#    y 0.000000 1.901550 0.000000 
#    z -0.031630 0.000000 1.872360 
# 
# From -- ./inp_files/155046.got.cif
#   From: 2010.05.17/outbox.cif.g08.bks.cpg/sg15_78_cif.got.tgz:155046.got - 2010.06.03 18:47:42.
