data_PCOD9279485
_publ_section_title
;
Structure prediction by ZEFSAII (Michael W. Deem and Ramdas Pophale) SiO2 
 PCOD9279485
Probable space group: C 2/C
;
_chemical_formula_sum "Si O2"
_cell_formula_units_Z 60
_cell_length_a 14.051657
_cell_length_b 16.210170
_cell_length_c 23.987774
_cell_angle_alpha 90.000000
_cell_angle_beta 150.081567
_cell_angle_gamma 90.000000
_cell_volume 2725.225406
_symmetry_space_group_name_H-M "C 2/C"
_symmetry_group_IT_number 15
_symmetry_cell_setting 'monoclinic'
loop_
_space_group_symop_operation_xyz
x,y,z
-x,y,1/2-z
-x,-y,-z
x,-y,1/2+z
1/2+x,1/2+y,z
1/2-x,1/2+y,1/2-z
1/2-x,1/2-y,-z
1/2+x,1/2-y,1/2+z
loop_
_atom_site_type_symbol
_atom_site_label
_atom_site_fract_x
_atom_site_fract_y
_atom_site_fract_z
Si Si1 0.030621 0.818434 0.166389
Si Si2 0.000068 0.882385 0.945770
Si Si3 0.746411 0.658556 0.471076
Si Si4 0.090699 0.311966 0.078217
Si Si5 0.500000 0.726510 0.250000
Si Si6 0.735172 0.124689 0.818854
Si Si7 0.919838 0.457372 0.769524
Si Si8 0.904268 0.353309 0.545941
O O1 0.185208 0.819396 0.294269
O O2 0.135476 0.863625 0.169093
O O3 0.981992 0.726689 0.119133
O O4 0.824578 0.855738 0.073090
O O5 0.956117 0.785176 0.936132
O O6 0.799127 0.927208 0.838006
O O7 0.131353 0.893351 0.957896
O O8 0.129149 0.907654 0.063150
O O9 0.750000 0.750000 0.500000
O O10 0.618138 0.670423 0.351503
O O11 0.958363 0.641149 0.556276
O O12 0.037250 0.341921 0.989015
O O13 0.361008 0.788781 0.212896
O O14 0.575924 0.056080 0.729276
O O15 0.000000 0.426909 0.750000
O O16 0.023732 0.425805 0.877701
#
# Coordination Sequence:
#
# PCOD9279485 Si02
#       8
#     8   8   8   8   4   8   8   8
#     4  11  23  40  69  95 134 178 231 277 345 399
#     4  11  22  39  64 101 137 169 224 276 348 404
#     4  10  21  35  62 100 131 163 219 282 328 402
#     4  11  21  39  66 100 129 168 224 284 341 400
#     4  12  20  36  64  94 136 166 222 264 340 392
#     4  12  23  42  63  95 136 184 218 276 340 411
#     4  12  27  42  64  97 140 177 227 280 344 413
#     4  11  24  41  66 101 134 175 226 292 332 406
#
# _framework density 22.016527
#
# number of rings (size 3 to 8) (size 9 to 14) (size 15 to 20)
#    0.000    0.800    6.000    3.200    3.733    0.000 
#    0.000    0.667    0.000    1.600    0.000    0.000 
#    0.000    0.000    0.000    0.000    0.000    0.000 
#
# Total GULP energy -167743.063835 kJ/mol
# GULP energy per Si atom -5591.435461 kJ/mol
# Density = 2.196642 g / cm^3
# Si number density = 22.016527 Si / 1000 Ang^3
#
#
#
# Elastic Constant Matrix: (Units=GPa)
#
#
# Indices 1 2 3 4 5 6 
#
# 1 104.4987 15.5112 31.4444 0.0000 8.9129 0.0000
# 2 15.5112 32.5922 23.6324 -0.0001 -8.0916 0.0000
# 3 31.4444 23.6324 151.5116 -0.0004 -6.5864 0.0000
# 4 0.0000 -0.0001 -0.0004 24.1719 -0.0001 -3.7519
# 5 8.9129 -8.0916 -6.5864 -0.0001 39.5847 0.0000
# 6 0.0000 0.0000 0.0000 -3.7519 0.0000 12.4875
#
#
#
# Elastic Compliance Matrix: (Units=1/GPa)
#
#
# Indices 1 2 3 4 5 6 
#
# 1 0.011152 -0.005026 -0.001697 0.000000 -0.003821 0.000000
# 2 -0.005026 0.038449 -0.004597 0.000000 0.008226 0.000000
# 3 -0.001697 -0.004597 0.007701 0.000000 0.000724 0.000000
# 4 0.000000 0.000000 0.000000 0.043394 0.000000 0.013038
# 5 -0.003821 0.008226 0.000724 0.000000 0.027924 0.000000
# 6 0.000000 0.000000 0.000000 0.013038 0.000000 0.083998
#
#
# Mechanical properties :
#
#
# Convention : Reuss Voigt Hill
#
# Bulk Modulus (GPa) = 28.84833 47.75317 38.30075
# Shear Modulus (GPa) = 20.25845 29.78312 25.02078
#
# Velocity S-wave (km/s) = 3.03668 3.68198 3.37479
# Velocity P-wave (km/s) = 5.04249 6.30974 5.71137
#
# Compressibility (1/GPa) = 0.03466406
#
# Stress axis : x y z
#
# Youngs Moduli (GPa) = 89.67107 26.00825 129.85837
#
# Poissons Ratio (x) = 0.13071 0.22032
# Poissons Ratio (y) = 0.45066 0.59691
# Poissons Ratio (z) = 0.15214 0.11955
#
# Static dielectric constant tensor:
#      x y z
#    x 1.808200 0.000000 0.022010 
#    y 0.000000 1.827480 0.000000 
#    z 0.022010 0.000000 1.789160 
# 
# From -- ./inp_files/274740.got.cif
#   From: 2010.05.17/outbox.cif.g08.bks.cpg/sg15_138_cif.got.tgz:274740.got - 2010.06.03 18:47:42.
