data_PCOD9279557
_publ_section_title
;
Structure prediction by ZEFSAII (Michael W. Deem and Ramdas Pophale) SiO2 
 PCOD9279557
Probable space group: C 2/C
;
_chemical_formula_sum "Si O2"
_cell_formula_units_Z 48
_cell_length_a 14.078284
_cell_length_b 29.104638
_cell_length_c 6.059036
_cell_angle_alpha 90.000000
_cell_angle_beta 100.075691
_cell_angle_gamma 90.000000
_cell_volume 2444.361086
_symmetry_space_group_name_H-M "C 2/C"
_symmetry_group_IT_number 15
_symmetry_cell_setting 'monoclinic'
loop_
_space_group_symop_operation_xyz
x,y,z
-x,y,1/2-z
-x,-y,-z
x,-y,1/2+z
1/2+x,1/2+y,z
1/2-x,1/2+y,1/2-z
1/2-x,1/2-y,-z
1/2+x,1/2-y,1/2+z
loop_
_atom_site_type_symbol
_atom_site_label
_atom_site_fract_x
_atom_site_fract_y
_atom_site_fract_z
Si Si1 0.736365 0.845779 0.927397
Si Si2 0.346079 0.223869 0.463835
Si Si3 0.301059 0.604937 0.061747
Si Si4 0.532244 0.447190 0.012735
Si Si5 0.108434 0.635169 0.761597
Si Si6 0.401028 0.316782 0.322491
O O1 0.688045 0.809030 0.746739
O O2 0.793120 0.885680 0.818481
O O3 0.649982 0.866828 0.033616
O O4 0.813712 0.819823 0.111877
O O5 0.250000 0.250000 0.500000
O O6 0.386236 0.188812 0.661262
O O7 0.414193 0.265379 0.419209
O O8 0.353808 0.561901 0.972977
O O9 0.191179 0.609854 0.935660
O O10 0.363963 0.648017 0.993665
O O11 0.500000 0.430808 0.250000
O O12 0.500000 0.428541 0.750000
O O13 0.500000 0.500000 0.000000
O O14 0.000000 0.618819 0.750000
O O15 0.500000 0.331013 0.250000
#
# Coordination Sequence:
#
# PCOD9279557 Si02
#       6
#     8   8   8   8   8   8
#     4  10  21  36  52  70 111 154 199 270 304 362
#     4  11  20  36  47  71 105 152 215 262 313 353
#     4  10  22  38  57  85 119 153 203 253 311 383
#     4  10  23  42  69 102 134 164 193 237 312 398
#     4  10  23  37  54  77 111 160 214 264 313 360
#     4  11  23  32  50  78 108 155 207 261 318 367
#
# _framework density 19.637035000000001
#
# number of rings (size 3 to 8) (size 9 to 14) (size 15 to 20)
#    0.000    1.667    5.000    1.000    9.333    2.000 
#    0.000    0.000    0.000    0.000    0.000    4.667 
#    0.000    0.000    0.000    0.000    0.000    0.000 
#
# Total GULP energy -133656.694496 kJ/mol
# GULP energy per Si atom -5569.028937 kJ/mol
# Density = 1.959234 g / cm^3
# Si number density = 19.637035 Si / 1000 Ang^3
#
#
#
# Elastic Constant Matrix: (Units=GPa)
#
#
# Indices 1 2 3 4 5 6 
#
# 1 136.2971 25.4698 30.7798 0.0000 -22.9301 0.0000
# 2 25.4698 66.9494 10.0587 0.0000 -7.3263 0.0000
# 3 30.7798 10.0587 99.0247 0.0000 -27.0416 0.0000
# 4 0.0000 0.0000 0.0000 1.4744 0.0000 -4.4122
# 5 -22.9301 -7.3263 -27.0416 0.0000 22.2061 0.0000
# 6 0.0000 0.0000 0.0000 -4.4122 0.0000 29.9602
#
#
#
# Elastic Compliance Matrix: (Units=1/GPa)
#
#
# Indices 1 2 3 4 5 6 
#
# 1 0.009298 -0.002573 -0.000358 0.000000 0.008316 0.000000
# 2 -0.002573 0.016213 -0.000168 0.000000 0.002488 0.000000
# 3 -0.000358 -0.000168 0.015148 0.000000 0.018022 0.000000
# 4 0.000000 0.000000 0.000000 1.212722 0.000000 0.178595
# 5 0.008316 0.002488 0.018022 0.000000 0.076388 0.000000
# 6 0.000000 0.000000 0.000000 0.178595 0.000000 0.059679
#
#
# Mechanical properties :
#
#
# Convention : Reuss Voigt Hill
#
# Bulk Modulus (GPa) = 29.01778 48.32086 38.66932
# Shear Modulus (GPa) = 3.55333 26.45899 15.00616
#
# Velocity S-wave (km/s) = 1.34664 3.67468 2.76737
# Velocity P-wave (km/s) = 4.15055 6.53183 5.47229
#
# Compressibility (1/GPa) = 0.03446163
#
# Stress axis : x y z
#
# Youngs Moduli (GPa) = 107.55395 61.67872 66.01462
#
# Poissons Ratio (x) = 0.15872 0.02360
# Poissons Ratio (y) = 0.27677 0.01107
# Poissons Ratio (z) = 0.03846 0.01034
#
# Static dielectric constant tensor:
#      x y z
#    x 1.699940 0.000000 0.036460 
#    y 0.000000 1.718770 0.000000 
#    z 0.036460 0.000000 1.741800 
# 
# From -- ./inp_files/8764.got.cif
#   From: 2010.05.17/outbox.cif.g08.bks.cpg/sg15_5_cif.got.tgz:8764.got - 2010.06.03 18:47:42.
