data_PCOD9279506
_publ_section_title
;
Structure prediction by ZEFSAII (Michael W. Deem and Ramdas Pophale) SiO2 
 PCOD9279506
Probable space group: C 2/C
;
_chemical_formula_sum "Si O2"
_cell_formula_units_Z 32
_cell_length_a 27.676732
_cell_length_b 5.161046
_cell_length_c 16.260257
_cell_angle_alpha 90.000000
_cell_angle_beta 47.271299
_cell_angle_gamma 90.000000
_cell_volume 1706.145111
_symmetry_space_group_name_H-M "C 2/C"
_symmetry_group_IT_number 15
_symmetry_cell_setting 'monoclinic'
loop_
_space_group_symop_operation_xyz
x,y,z
-x,y,1/2-z
-x,-y,-z
x,-y,1/2+z
1/2+x,1/2+y,z
1/2-x,1/2+y,1/2-z
1/2-x,1/2-y,-z
1/2+x,1/2-y,1/2+z
loop_
_atom_site_type_symbol
_atom_site_label
_atom_site_fract_x
_atom_site_fract_y
_atom_site_fract_z
Si Si1 0.933278 0.740536 0.276731
Si Si2 0.198131 0.058034 0.517098
Si Si3 0.766837 0.674958 0.778609
Si Si4 0.880868 0.772161 0.761558
O O1 0.871063 0.788136 0.409346
O O2 0.922531 0.468920 0.244565
O O3 0.000000 0.758266 0.250000
O O4 0.923907 0.968187 0.219894
O O5 0.250000 0.250000 0.500000
O O6 0.225213 0.947499 0.401490
O O7 0.177180 0.831814 0.604822
O O8 0.760910 0.454438 0.715837
O O9 0.841425 0.716213 0.724069
#
# Coordination Sequence:
#
# PCOD9279506 Si02
#       4
#     8   8   8   8
#     4  10  21  35  63  86 111 149 201 241 279 330
#     4  10  21  38  62  87 115 149 200 243 283 332
#     4  12  23  34  57  91 122 148 184 243 301 341
#     4  10  21  37  59  83 117 147 198 236 283 336
#
# _framework density 18.755731999999998
#
# number of rings (size 3 to 8) (size 9 to 14) (size 15 to 20)
#    1.500    0.000    2.500    4.500    3.500    0.000 
#    0.000    0.000    0.000    9.000    0.000    0.000 
#    0.000    0.000    0.000    0.000    0.000    0.000 
#
# Total GULP energy -89151.901455 kJ/mol
# GULP energy per Si atom -5571.993841 kJ/mol
# Density = 1.871304 g / cm^3
# Si number density = 18.755732 Si / 1000 Ang^3
#
#
#
# Elastic Constant Matrix: (Units=GPa)
#
#
# Indices 1 2 3 4 5 6 
#
# 1 166.6401 54.1054 18.4516 0.0326 -20.4531 0.0046
# 2 54.1054 131.3866 1.5055 0.0569 -4.2028 -0.0159
# 3 18.4516 1.5055 13.6185 -0.0030 -4.9591 -0.0094
# 4 0.0326 0.0569 -0.0030 19.1326 -0.0119 17.7080
# 5 -20.4531 -4.2028 -4.9591 -0.0119 23.8604 -0.0024
# 6 0.0046 -0.0159 -0.0094 17.7080 -0.0024 50.2172
#
#
#
# Elastic Compliance Matrix: (Units=1/GPa)
#
#
# Indices 1 2 3 4 5 6 
#
# 1 0.008764 -0.003341 -0.009719 0.000000 0.004904 -0.000003
# 2 -0.003341 0.008930 0.003320 -0.000036 -0.000601 0.000016
# 3 -0.009719 0.003320 0.090240 0.000014 0.011009 0.000014
# 4 0.000000 -0.000036 0.000014 0.077590 0.000032 -0.027360
# 5 0.004904 -0.000601 0.011009 0.000032 0.048296 -0.000008
# 6 -0.000003 0.000016 0.000014 -0.027360 -0.000008 0.029562
#
#
# Mechanical properties :
#
#
# Convention : Reuss Voigt Hill
#
# Bulk Modulus (GPa) = 11.30523 51.08558 31.19541
# Shear Modulus (GPa) = 16.00800 34.48088 25.24444
#
# Velocity S-wave (km/s) = 2.92464 4.29233 3.67271
# Velocity P-wave (km/s) = 4.17677 7.20152 5.88674
#
# Compressibility (1/GPa) = 0.08845461
#
# Stress axis : x y z
#
# Youngs Moduli (GPa) = 114.10770 111.98732 11.08160
#
# Poissons Ratio (x) = 0.37411 0.10770
# Poissons Ratio (y) = 0.38120 -0.03680
# Poissons Ratio (z) = 1.10900 -0.37184
#
# Static dielectric constant tensor:
#      x y z
#    x 1.649190 0.000000 0.004500 
#    y 0.000000 1.676210 0.000010 
#    z 0.004500 0.000010 1.659530 
# 
# From -- ./inp_files/170210.got.cif
#   From: 2010.05.17/outbox.cif.g08.bks.cpg/sg15_86_cif.got.tgz:170210.got - 2010.06.03 18:47:42.
