data_PCOD9279700
_publ_section_title
;
Structure prediction by ZEFSAII (Michael W. Deem and Ramdas Pophale) SiO2 
 PCOD9279700
Probable space group: C 2/C
;
_chemical_formula_sum "Si O2"
_cell_formula_units_Z 40
_cell_length_a 8.979432
_cell_length_b 11.485148
_cell_length_c 16.706319
_cell_angle_alpha 90.000000
_cell_angle_beta 91.703893
_cell_angle_gamma 90.000000
_cell_volume 1722.162636
_symmetry_space_group_name_H-M "C 2/C"
_symmetry_group_IT_number 15
_symmetry_cell_setting 'monoclinic'
loop_
_space_group_symop_operation_xyz
x,y,z
-x,y,1/2-z
-x,-y,-z
x,-y,1/2+z
1/2+x,1/2+y,z
1/2-x,1/2+y,1/2-z
1/2-x,1/2-y,-z
1/2+x,1/2-y,1/2+z
loop_
_atom_site_type_symbol
_atom_site_label
_atom_site_fract_x
_atom_site_fract_y
_atom_site_fract_z
Si Si1 0.981644 0.672975 0.015968
Si Si2 0.747584 0.108672 0.123448
Si Si3 0.418746 0.621005 0.622647
Si Si4 0.032544 0.472810 0.370787
Si Si5 0.267475 0.333618 0.284161
O O1 0.903088 0.568385 0.065051
O O2 0.156241 0.660853 0.046224
O O3 0.580615 0.704973 0.954381
O O4 0.975861 0.635015 0.924495
O O5 0.792429 0.210862 0.183352
O O6 0.869727 0.011707 0.105604
O O7 0.609660 0.041869 0.162938
O O8 0.581909 0.634718 0.664527
O O9 0.311405 0.667917 0.692067
O O10 0.147668 0.426760 0.309998
#
# Coordination Sequence:
#
# PCOD9279700 Si02
#       5
#     8   8   8   8   8
#     4   8  19  39  58  82 112 147 183 232 273 328
#     4   9  20  38  56  83 108 151 187 221 284 325
#     4  10  21  36  57  82 116 145 183 233 278 321
#     4   9  19  40  60  79 114 149 185 225 281 326
#     4  10  22  37  55  82 114 148 183 232 272 335
#
# _framework density 23.226609
#
# number of rings (size 3 to 8) (size 9 to 14) (size 15 to 20)
#    1.200    1.600    0.000    0.000    2.800    6.400 
#    3.600    2.000    0.000    0.000    0.000    0.000 
#    0.000    0.000    0.000    0.000    0.000    0.000 
#
# Total GULP energy -111553.840850 kJ/mol
# GULP energy per Si atom -5577.692043 kJ/mol
# Density = 2.317374 g / cm^3
# Si number density = 23.226609 Si / 1000 Ang^3
#
#
#
# Elastic Constant Matrix: (Units=GPa)
#
#
# Indices 1 2 3 4 5 6 
#
# 1 40.4744 55.8208 21.4429 0.0000 -12.7592 0.0000
# 2 55.8208 92.0692 27.4606 0.0000 -18.2424 0.0000
# 3 21.4429 27.4606 42.8833 0.0000 -6.2893 0.0000
# 4 0.0000 0.0000 0.0000 8.7178 0.0000 7.3217
# 5 -12.7592 -18.2424 -6.2893 0.0000 23.8926 0.0000
# 6 0.0000 0.0000 0.0000 7.3217 0.0000 24.8967
#
#
#
# Elastic Compliance Matrix: (Units=1/GPa)
#
#
# Indices 1 2 3 4 5 6 
#
# 1 0.171090 -0.094130 -0.023314 0.000000 0.013359 0.000000
# 2 -0.094130 0.067012 0.004460 0.000000 0.002071 0.000000
# 3 -0.023314 0.004460 0.032031 0.000000 -0.000613 0.000000
# 4 0.000000 0.000000 0.000000 0.152332 0.000000 -0.044798
# 5 0.013359 0.002071 -0.000613 0.000000 0.050408 0.000000
# 6 0.000000 0.000000 0.000000 -0.044798 0.000000 0.053340
#
#
# Mechanical properties :
#
#
# Convention : Reuss Voigt Hill
#
# Bulk Modulus (GPa) = 22.64246 42.76393 32.70320
# Shear Modulus (GPa) = 6.51974 16.21495 11.36735
#
# Velocity S-wave (km/s) = 1.67723 2.64506 2.21466
# Velocity P-wave (km/s) = 3.67702 5.27068 4.54426
#
# Compressibility (1/GPa) = 0.04416482
#
# Stress axis : x y z
#
# Youngs Moduli (GPa) = 5.84488 14.92281 31.21997
#
# Poissons Ratio (x) = 1.40468 0.72786
# Poissons Ratio (y) = 0.55018 -0.13924
# Poissons Ratio (z) = 0.13627 -0.06656
#
# Static dielectric constant tensor:
#      x y z
#    x 1.905880 0.000000 0.074860 
#    y 0.000000 1.908290 0.000000 
#    z 0.074860 0.000000 1.933200 
# 
# From -- ./inp_files/188451.got.cif
#   From: 2010.05.17/outbox.cif.g08.bks.cpg/sg15_95_cif.got.tgz:188451.got - 2010.06.03 18:47:42.
