data_PCOD9279061
_publ_section_title
;
Structure prediction by ZEFSAII (Michael W. Deem and Ramdas Pophale) SiO2 
 PCOD9279061
Probable space group: C 2/C
;
_chemical_formula_sum "Si O2"
_cell_formula_units_Z 48
_cell_length_a 28.285792
_cell_length_b 14.384401
_cell_length_c 8.763826
_cell_angle_alpha 90.000000
_cell_angle_beta 41.633777
_cell_angle_gamma 90.000000
_cell_volume 2368.982671
_symmetry_space_group_name_H-M "C 2/C"
_symmetry_group_IT_number 15
_symmetry_cell_setting 'monoclinic'
loop_
_space_group_symop_operation_xyz
x,y,z
-x,y,1/2-z
-x,-y,-z
x,-y,1/2+z
1/2+x,1/2+y,z
1/2-x,1/2+y,1/2-z
1/2-x,1/2-y,-z
1/2+x,1/2-y,1/2+z
loop_
_atom_site_type_symbol
_atom_site_label
_atom_site_fract_x
_atom_site_fract_y
_atom_site_fract_z
Si Si1 0.833412 0.765724 0.849682
Si Si2 0.294450 0.616492 0.992805
Si Si3 0.924231 0.458277 0.641949
Si Si4 0.654654 0.189967 0.990144
Si Si5 0.858785 0.601004 0.005340
Si Si6 0.301039 0.425984 0.128387
O O1 0.872222 0.731450 0.604910
O O2 0.857380 0.700859 0.930845
O O3 0.750000 0.750000 0.000000
O O4 0.840016 0.868207 0.900975
O O5 0.209679 0.605324 0.219049
O O6 0.315945 0.533661 0.056626
O O7 0.315889 0.720012 0.990872
O O8 0.317990 0.596838 0.763283
O O9 0.906577 0.363946 0.774131
O O10 0.864969 0.532380 0.845069
O O11 0.917351 0.435440 0.480804
O O12 0.000000 0.500000 0.500000
O O13 0.719639 0.115495 0.809568
#
# Coordination Sequence:
#
# PCOD9279061 Si02
#       6
#     8   8   8   8   8   8
#     4  10  21  34  55  85 118 159 206 264 340 392
#     4  12  20  33  56  87 118 167 201 268 339 389
#     4  12  26  40  58  86 125 178 223 261 315 389
#     4  11  21  36  57  81 123 162 212 268 324 395
#     4  12  21  37  58  81 121 164 215 269 318 386
#     4  11  21  32  52  85 122 154 205 252 335 399
#
# _framework density 20.261861
#
# number of rings (size 3 to 8) (size 9 to 14) (size 15 to 20)
#    0.000    0.667    6.667    4.000    4.667    0.000 
#    0.000    0.000    0.000    0.000    0.000    1.167 
#    0.000    2.667    0.000    0.500    0.000    0.333 
#
# Total GULP energy -133799.649692 kJ/mol
# GULP energy per Si atom -5574.985404 kJ/mol
# Density = 2.021574 g / cm^3
# Si number density = 20.261861 Si / 1000 Ang^3
#
#
#
# Elastic Constant Matrix: (Units=GPa)
#
#
# Indices 1 2 3 4 5 6 
#
# 1 77.3301 19.5448 25.2190 0.0000 15.3172 0.0000
# 2 19.5448 111.4956 32.4763 0.0000 -10.2710 0.0000
# 3 25.2190 32.4763 55.5286 0.0000 17.9658 0.0000
# 4 0.0000 0.0000 0.0000 33.5449 0.0000 14.1270
# 5 15.3172 -10.2710 17.9658 0.0000 25.8440 0.0000
# 6 0.0000 0.0000 0.0000 14.1270 0.0000 36.8176
#
#
#
# Elastic Compliance Matrix: (Units=1/GPa)
#
#
# Indices 1 2 3 4 5 6 
#
# 1 0.016336 -0.002814 -0.002941 0.000000 -0.008756 0.000000
# 2 -0.002814 0.014579 -0.012467 0.000000 0.016129 0.000000
# 3 -0.002941 -0.012467 0.035706 0.000000 -0.028033 0.000000
# 4 0.000000 0.000000 0.000000 0.035556 0.000000 -0.013643
# 5 -0.008756 0.016129 -0.028033 0.000000 0.069781 0.000000
# 6 0.000000 0.000000 0.000000 -0.013643 0.000000 0.032396
#
#
# Mechanical properties :
#
#
# Convention : Reuss Voigt Hill
#
# Bulk Modulus (GPa) = 33.13677 44.31493 38.72585
# Shear Modulus (GPa) = 19.93170 30.38225 25.15698
#
# Velocity S-wave (km/s) = 3.13981 3.87651 3.52745
# Velocity P-wave (km/s) = 5.43455 6.47727 5.97869
#
# Compressibility (1/GPa) = 0.03017795
#
# Stress axis : x y z
#
# Youngs Moduli (GPa) = 61.21407 68.58992 28.00675
#
# Poissons Ratio (x) = 0.19299 0.08236
# Poissons Ratio (y) = 0.17224 0.34917
# Poissons Ratio (z) = 0.18001 0.85513
#
# Static dielectric constant tensor:
#      x y z
#    x 1.815790 0.000000 0.011960 
#    y 0.000000 1.763150 0.000000 
#    z 0.011960 0.000000 1.750360 
# 
# From -- ./inp_files/66436.got.cif
#   From: 2010.05.17/outbox.cif.g08.bks.cpg/sg15_34_cif.got.tgz:66436.got - 2010.06.03 18:47:42.
