data_PCOD9279690
_publ_section_title
;
Structure prediction by ZEFSAII (Michael W. Deem and Ramdas Pophale) SiO2 
 PCOD9279690
Probable space group: C 2/C
;
_chemical_formula_sum "Si O2"
_cell_formula_units_Z 64
_cell_length_a 14.745826
_cell_length_b 11.885902
_cell_length_c 26.901905
_cell_angle_alpha 90.000000
_cell_angle_beta 141.327263
_cell_angle_gamma 90.000000
_cell_volume 2946.285424
_symmetry_space_group_name_H-M "C 2/C"
_symmetry_group_IT_number 15
_symmetry_cell_setting 'monoclinic'
loop_
_space_group_symop_operation_xyz
x,y,z
-x,y,1/2-z
-x,-y,-z
x,-y,1/2+z
1/2+x,1/2+y,z
1/2-x,1/2+y,1/2-z
1/2-x,1/2-y,-z
1/2+x,1/2-y,1/2+z
loop_
_atom_site_type_symbol
_atom_site_label
_atom_site_fract_x
_atom_site_fract_y
_atom_site_fract_z
Si Si1 0.950726 0.234414 0.008464
Si Si2 0.826340 0.612904 0.633630
Si Si3 0.722058 0.624989 0.085717
Si Si4 0.607066 0.921241 0.129734
Si Si5 0.351783 0.627881 0.656458
Si Si6 0.878929 0.841180 0.061823
Si Si7 0.355163 0.191694 0.753141
Si Si8 0.105859 0.326438 0.627295
O O1 0.089042 0.150030 0.066570
O O2 0.983286 0.333804 0.060622
O O3 0.805210 0.164995 0.953423
O O4 0.935265 0.294804 0.947305
O O5 0.831509 0.478781 0.634107
O O6 0.791161 0.632797 0.676722
O O7 0.972792 0.677386 0.681538
O O8 0.811939 0.740584 0.130141
O O9 0.634927 0.600693 0.997173
O O10 0.721946 0.923130 0.133505
O O11 0.677591 0.870012 0.209461
O O12 0.554664 0.047681 0.115886
O O13 0.500000 0.615479 0.750000
O O14 0.361664 0.585718 0.603817
O O15 0.023381 0.766108 0.124996
O O16 0.750000 0.750000 0.000000
O O17 0.275890 0.312021 0.714015
#
# Coordination Sequence:
#
# PCOD9279690 Si02
#       8
#     8   8   8   8   8   8   8   8
#     4   9  20  39  60  90 124 155 209 255 295 375
#     4  10  21  40  62  88 124 164 203 250 312 376
#     4   9  19  35  63  90 121 163 206 260 309 354
#     4  11  23  39  63  92 122 166 205 255 324 360
#     4  10  21  36  56  93 127 155 213 262 297 381
#     4   9  19  35  61  90 121 156 208 258 301 371
#     4  10  24  39  60  91 122 161 205 250 311 388
#     4  10  21  42  63  82 130 164 195 256 321 368
#
# _framework density 21.722266999999999
#
# number of rings (size 3 to 8) (size 9 to 14) (size 15 to 20)
#    0.000    2.250    0.000    2.250    5.250    2.500 
#    4.500    1.250    2.750    0.000    0.000    0.000 
#    0.000    0.000    0.000    0.000    0.000    0.000 
#
# Total GULP energy -178325.006786 kJ/mol
# GULP energy per Si atom -5572.656462 kJ/mol
# Density = 2.167283 g / cm^3
# Si number density = 21.722267 Si / 1000 Ang^3
#
#
#
# Elastic Constant Matrix: (Units=GPa)
#
#
# Indices 1 2 3 4 5 6 
#
# 1 39.6077 3.1437 0.5882 0.0000 -13.6189 0.0000
# 2 3.1437 37.7111 0.0793 0.0000 1.6593 0.0000
# 3 0.5882 0.0793 50.7587 0.0000 3.8212 0.0000
# 4 0.0000 0.0000 0.0000 16.4842 0.0000 -0.1606
# 5 -13.6189 1.6593 3.8212 0.0000 39.9093 0.0000
# 6 0.0000 0.0000 0.0000 -0.1606 0.0000 -0.8389
#
#
#
# Elastic Compliance Matrix: (Units=1/GPa)
#
#
# Indices 1 2 3 4 5 6 
#
# 1 0.028966 -0.002857 -0.001092 0.000000 0.010108 0.000000
# 2 -0.002857 0.026848 0.000150 0.000000 -0.002106 0.000000
# 3 -0.001092 0.000150 0.019885 0.000000 -0.002283 0.000000
# 4 0.000000 0.000000 0.000000 0.060551 0.000000 -0.011591
# 5 0.010108 -0.002106 -0.002283 0.000000 0.028812 0.000000
# 6 0.000000 0.000000 0.000000 -0.011591 0.000000 -1.189882
#
#
# Mechanical properties :
#
#
# Convention : Reuss Voigt Hill
#
# Bulk Modulus (GPa) = 14.68426 15.07777 14.88101
# Shear Modulus (GPa) = -5.02755 19.39535 7.18390
#
# Velocity S-wave (km/s) = -1.52299 2.99135 1.82053
# Velocity P-wave (km/s) = 1.91886 4.34593 3.35925
#
# Compressibility (1/GPa) = 0.06810014
#
# Stress axis : x y z
#
# Youngs Moduli (GPa) = 34.52302 37.24687 50.28828
#
# Poissons Ratio (x) = 0.10642 0.05492
# Poissons Ratio (y) = 0.09864 -0.00753
# Poissons Ratio (z) = 0.03770 -0.00558
#
# Static dielectric constant tensor:
#      x y z
#    x 1.886380 0.000000 0.003140 
#    y 0.000000 1.781980 0.000000 
#    z 0.003140 0.000000 1.815520 
# 
# From -- ./inp_files/296182.got.cif
#   From: 2010.05.17/outbox.cif.g08.bks.cpg/sg15_149_cif.got.tgz:296182.got - 2010.06.03 18:47:42.
