data_PCOD9279965
_publ_section_title
;
Structure prediction by ZEFSAII (Michael W. Deem and Ramdas Pophale) SiO2 
 PCOD9279965
Probable space group: C 2/C
;
_chemical_formula_sum "Si O2"
_cell_formula_units_Z 56
_cell_length_a 23.036494
_cell_length_b 14.641132
_cell_length_c 9.571501
_cell_angle_alpha 90.000000
_cell_angle_beta 131.177655
_cell_angle_gamma 90.000000
_cell_volume 2429.834513
_symmetry_space_group_name_H-M "C 2/C"
_symmetry_group_IT_number 15
_symmetry_cell_setting 'monoclinic'
loop_
_space_group_symop_operation_xyz
x,y,z
-x,y,1/2-z
-x,-y,-z
x,-y,1/2+z
1/2+x,1/2+y,z
1/2-x,1/2+y,1/2-z
1/2-x,1/2-y,-z
1/2+x,1/2-y,1/2+z
loop_
_atom_site_type_symbol
_atom_site_label
_atom_site_fract_x
_atom_site_fract_y
_atom_site_fract_z
Si Si1 0.276605 0.110435 0.918257
Si Si2 0.863391 0.763753 0.389254
Si Si3 0.358377 0.687749 0.298117
Si Si4 0.587709 0.767408 0.846980
Si Si5 0.579471 0.426792 0.829282
Si Si6 0.319500 0.142374 0.558601
Si Si7 0.252686 0.510771 0.375676
O O1 0.220460 0.186901 0.761877
O O2 0.262634 0.017260 0.808636
O O3 0.363757 0.141443 0.046313
O O4 0.256885 0.102590 0.050948
O O5 0.899830 0.754352 0.295176
O O6 0.909596 0.838935 0.552287
O O7 0.857301 0.669832 0.468762
O O8 0.375029 0.694999 0.486853
O O9 0.415902 0.615587 0.318203
O O10 0.363101 0.786181 0.230333
O O11 0.270913 0.663373 0.116609
O O12 0.500000 0.776441 0.750000
O O13 0.500000 0.472465 0.750000
O O14 0.657545 0.484484 0.964723
O O15 0.308820 0.052700 0.636549
#
# Coordination Sequence:
#
# PCOD9279965 Si02
#       7
#     8   8   8   8   8   8   8
#     4  11  23  40  58  84 117 152 204 235 282 352
#     4  10  21  36  62  89 114 149 197 242 287 347
#     4   9  16  31  57  83 112 143 189 239 288 333
#     4  12  23  36  57  89 122 147 187 258 302 327
#     4   9  18  36  58  87 120 151 189 235 294 358
#     4   9  16  35  60  82 104 153 196 237 271 341
#     4  10  22  37  61  83 115 161 196 235 284 346
#
# _framework density 23.046835999999999
#
# number of rings (size 3 to 8) (size 9 to 14) (size 15 to 20)
#    0.000    2.000    2.857    3.000    2.000    1.143 
#    0.000    4.286    0.000    0.000    0.000    0.000 
#    0.000    0.000    0.000    0.000    0.000    0.000 
#
# Total GULP energy -156193.310922 kJ/mol
# GULP energy per Si atom -5578.332533 kJ/mol
# Density = 2.299438 g / cm^3
# Si number density = 23.046836 Si / 1000 Ang^3
#
#
#
# Elastic Constant Matrix: (Units=GPa)
#
#
# Indices 1 2 3 4 5 6 
#
# 1 105.6061 9.5962 45.3629 0.0000 -29.0849 0.0000
# 2 9.5962 30.7100 11.9640 0.0000 -7.0257 0.0000
# 3 45.3629 11.9640 68.1438 0.0000 -27.5970 0.0000
# 4 0.0000 0.0000 0.0000 5.2887 0.0000 -13.1123
# 5 -29.0849 -7.0257 -27.5970 0.0000 41.4172 0.0000
# 6 0.0000 0.0000 0.0000 -13.1123 0.0000 30.1583
#
#
#
# Elastic Compliance Matrix: (Units=1/GPa)
#
#
# Indices 1 2 3 4 5 6 
#
# 1 0.013969 -0.000422 -0.007233 0.000000 0.004919 0.000000
# 2 -0.000422 0.035159 -0.004926 0.000000 0.002386 0.000000
# 3 -0.007233 -0.004926 0.024597 0.000000 0.010474 0.000000
# 4 0.000000 0.000000 0.000000 -2.425484 0.000000 -1.054560
# 5 0.004919 0.002386 0.010474 0.000000 0.034982 0.000000
# 6 0.000000 0.000000 0.000000 -1.054560 0.000000 -0.425347
#
#
# Mechanical properties :
#
#
# Convention : Reuss Voigt Hill
#
# Bulk Modulus (GPa) = 20.59176 37.58956 29.09066
# Shear Modulus (GPa) = -1.85132 24.54198 11.34533
#
# Velocity S-wave (km/s) = -0.89723 3.26678 2.22113
# Velocity P-wave (km/s) = 2.80727 5.52943 4.38494
#
# Compressibility (1/GPa) = 0.04856310
#
# Stress axis : x y z
#
# Youngs Moduli (GPa) = 71.58665 28.44197 40.65608
#
# Poissons Ratio (x) = 0.01200 0.29407
# Poissons Ratio (y) = 0.03020 0.20027
# Poissons Ratio (z) = 0.51780 0.14010
#
# Static dielectric constant tensor:
#      x y z
#    x 1.863600 0.000000 -0.051810 
#    y 0.000000 1.971560 0.000000 
#    z -0.051810 0.000000 1.891700 
# 
# From -- ./inp_files/56739.got.cif
#   From: 2010.05.17/outbox.cif.g08.bks.cpg/sg15_29_cif.got.tgz:56739.got - 2010.06.03 18:47:42.
