data_PCOD9279711
_publ_section_title
;
Structure prediction by ZEFSAII (Michael W. Deem and Ramdas Pophale) SiO2 
 PCOD9279711
Probable space group: C 2/C
;
_chemical_formula_sum "Si O2"
_cell_formula_units_Z 36
_cell_length_a 15.516011
_cell_length_b 23.237361
_cell_length_c 10.168846
_cell_angle_alpha 90.000000
_cell_angle_beta 28.618772
_cell_angle_gamma 90.000000
_cell_volume 1756.125180
_symmetry_space_group_name_H-M "C 2/C"
_symmetry_group_IT_number 15
_symmetry_cell_setting 'monoclinic'
loop_
_space_group_symop_operation_xyz
x,y,z
-x,y,1/2-z
-x,-y,-z
x,-y,1/2+z
1/2+x,1/2+y,z
1/2-x,1/2+y,1/2-z
1/2-x,1/2-y,-z
1/2+x,1/2-y,1/2+z
loop_
_atom_site_type_symbol
_atom_site_label
_atom_site_fract_x
_atom_site_fract_y
_atom_site_fract_z
Si Si1 0.244785 0.540297 0.280286
Si Si2 0.711517 0.556591 0.977667
Si Si3 0.978128 0.351303 0.133450
Si Si4 0.000000 0.106543 0.750000
Si Si5 0.159633 0.688318 0.141306
O O1 0.250791 0.530469 0.428118
O O2 0.096407 0.590062 0.465771
O O3 0.210373 0.483311 0.242368
O O4 0.422536 0.568195 0.974135
O O5 0.500000 0.557385 0.250000
O O6 0.782567 0.621819 0.875477
O O7 0.000000 0.327319 0.250000
O O8 0.053992 0.310921 0.920792
O O9 0.171555 0.143824 0.571732
O O10 0.000000 0.674801 0.250000
O O11 0.250000 0.750000 0.000000
#
# Coordination Sequence:
#
# PCOD9279711 Si02
#       5
#     8   8   8   4   8
#     4  10  21  36  57  84 129 167 204 250 297 371
#     4  11  21  33  56  87 124 166 209 238 303 367
#     4   9  22  41  59  88 128 161 202 263 312 371
#     4  10  22  40  62  92 130 162 204 266 312 366
#     4  11  23  42  70  92 119 158 216 266 323 371
#
# _framework density 20.499677999999999
#
# number of rings (size 3 to 8) (size 9 to 14) (size 15 to 20)
#    0.000    1.778    2.222    1.333    3.111    1.778 
#    0.000    2.222    0.000    0.000    0.000    0.000 
#    0.000    0.000    0.000    0.000    0.000    0.000 
#
# Total GULP energy -100425.470973 kJ/mol
# GULP energy per Si atom -5579.192832 kJ/mol
# Density = 2.045302 g / cm^3
# Si number density = 20.499678 Si / 1000 Ang^3
#
#
#
# Elastic Constant Matrix: (Units=GPa)
#
#
# Indices 1 2 3 4 5 6 
#
# 1 104.1843 34.5707 49.6562 0.0009 9.1006 0.0012
# 2 34.5707 45.1026 18.6212 0.0001 12.9031 0.0008
# 3 49.6562 18.6212 90.3728 0.0010 19.1117 0.0019
# 4 0.0009 0.0001 0.0010 39.0045 -0.0008 1.5047
# 5 9.1006 12.9031 19.1117 -0.0008 47.5935 -0.0008
# 6 0.0012 0.0008 0.0019 1.5047 -0.0008 4.2928
#
#
#
# Elastic Compliance Matrix: (Units=1/GPa)
#
#
# Indices 1 2 3 4 5 6 
#
# 1 0.016268 -0.010163 -0.007398 0.000000 0.002615 0.000001
# 2 -0.010163 0.031717 0.000499 0.000000 -0.006856 -0.000004
# 3 -0.007398 0.000499 0.016126 0.000000 -0.005196 -0.000006
# 4 0.000000 0.000000 0.000000 0.025989 0.000000 -0.009110
# 5 0.002615 -0.006856 -0.005196 0.000000 0.024457 0.000007
# 6 0.000001 -0.000004 -0.000006 -0.009110 0.000007 0.236141
#
#
# Mechanical properties :
#
#
# Convention : Reuss Voigt Hill
#
# Bulk Modulus (GPa) = 33.34747 49.48399 41.41573
# Shear Modulus (GPa) = 12.66403 27.29894 19.98148
#
# Velocity S-wave (km/s) = 2.48819 3.65317 3.12544
# Velocity P-wave (km/s) = 4.95554 6.47963 5.76814
#
# Compressibility (1/GPa) = 0.02998728
#
# Stress axis : x y z
#
# Youngs Moduli (GPa) = 61.46937 31.52862 62.01127
#
# Poissons Ratio (x) = 0.32044 0.45874
# Poissons Ratio (y) = 0.62474 -0.03094
# Poissons Ratio (z) = 0.45473 -0.01573
#
# Static dielectric constant tensor:
#      x y z
#    x 1.779000 0.000000 -0.036950 
#    y 0.000000 1.713020 0.000000 
#    z -0.036950 0.000000 1.762670 
# 
# From -- ./inp_files/24328.got.cif
#   From: 2010.05.17/outbox.cif.g08.bks.cpg/sg15_13_cif.got.tgz:24328.got - 2010.06.03 18:47:42.
