data_PCOD9279502
_publ_section_title
;
Structure prediction by ZEFSAII (Michael W. Deem and Ramdas Pophale) SiO2 
 PCOD9279502
Probable space group: C 2/C
;
_chemical_formula_sum "Si O2"
_cell_formula_units_Z 48
_cell_length_a 9.893597
_cell_length_b 21.901332
_cell_length_c 22.509373
_cell_angle_alpha 90.000000
_cell_angle_beta 155.079444
_cell_angle_gamma 90.000000
_cell_volume 2055.146053
_symmetry_space_group_name_H-M "C 2/C"
_symmetry_group_IT_number 15
_symmetry_cell_setting 'monoclinic'
loop_
_space_group_symop_operation_xyz
x,y,z
-x,y,1/2-z
-x,-y,-z
x,-y,1/2+z
1/2+x,1/2+y,z
1/2-x,1/2+y,1/2-z
1/2-x,1/2-y,-z
1/2+x,1/2-y,1/2+z
loop_
_atom_site_type_symbol
_atom_site_label
_atom_site_fract_x
_atom_site_fract_y
_atom_site_fract_z
Si Si1 0.545021 0.548246 0.436076
Si Si2 0.168873 0.796375 0.537560
Si Si3 0.621288 0.675487 0.156462
Si Si4 0.181047 0.324568 0.586251
Si Si5 0.871662 0.557909 0.912858
Si Si6 0.121484 0.918117 0.102422
O O1 0.340834 0.601357 0.322515
O O2 0.448146 0.478303 0.386284
O O3 0.510329 0.562235 0.491874
O O4 0.906010 0.559578 0.557499
O O5 0.551668 0.793515 0.692684
O O6 0.072759 0.811312 0.567873
O O7 0.000086 0.732495 0.457158
O O8 0.050351 0.854261 0.452227
O O9 0.325911 0.693620 0.079704
O O10 0.500000 0.341930 0.750000
O O11 0.953343 0.381681 0.483185
O O12 0.500000 0.553419 0.750000
O O13 0.000000 0.500000 0.000000
O O14 0.500000 0.907390 0.250000
#
# Coordination Sequence:
#
# PCOD9279502 Si02
#       6
#     8   8   8   8   8   8
#     4   9  22  39  61  91 126 165 207 267 321 379
#     4  10  21  39  65  95 124 169 217 263 327 382
#     4   9  21  40  63  90 128 171 213 263 321 384
#     4  11  24  44  64  94 134 168 214 269 320 388
#     4  11  26  45  67  93 125 175 220 260 317 387
#     4  10  21  35  62  95 125 158 207 268 327 377
#
# _framework density 23.356003999999999
#
# number of rings (size 3 to 8) (size 9 to 14) (size 15 to 20)
#    0.000    2.000    0.000    1.500   11.667    3.333 
#    0.000    0.000    0.000    0.000    0.000    0.000 
#    0.000    0.000    0.000    0.000    0.000    0.000 
#
# Total GULP energy -134226.531720 kJ/mol
# GULP energy per Si atom -5592.772155 kJ/mol
# Density = 2.330284 g / cm^3
# Si number density = 23.356004 Si / 1000 Ang^3
#
#
#
# Elastic Constant Matrix: (Units=GPa)
#
#
# Indices 1 2 3 4 5 6 
#
# 1 64.7904 24.0937 -2.2731 0.0044 1.6949 0.0176
# 2 24.0937 164.6545 56.9329 0.0203 1.9331 0.0495
# 3 -2.2731 56.9329 113.1388 0.0244 8.7130 0.0174
# 4 0.0044 0.0203 0.0244 30.3759 0.0200 -9.1494
# 5 1.6949 1.9331 8.7130 0.0200 25.2424 0.0366
# 6 0.0176 0.0495 0.0174 -9.1494 0.0366 -15.3475
#
#
#
# Elastic Compliance Matrix: (Units=1/GPa)
#
#
# Indices 1 2 3 4 5 6 
#
# 1 0.016711 -0.003129 0.002033 0.000001 -0.001584 0.000007
# 2 -0.003129 0.007952 -0.004144 0.000003 0.001031 0.000018
# 3 0.002033 -0.004144 0.011250 -0.000005 -0.003702 -0.000004
# 4 0.000001 0.000003 -0.000005 0.027909 0.000004 -0.016638
# 5 -0.001584 0.001031 -0.003702 0.000004 0.040921 0.000093
# 6 0.000007 0.000018 -0.000004 -0.016638 0.000093 -0.055238
#
#
# Mechanical properties :
#
#
# Convention : Reuss Voigt Hill
#
# Bulk Modulus (GPa) = 39.32187 55.56565 47.44376
# Shear Modulus (GPa) = 73.03125 25.64284 49.33704
#
# Velocity S-wave (km/s) = 5.59791 3.31707 4.60106
# Velocity P-wave (km/s) = 7.65863 6.20588 6.97021
#
# Compressibility (1/GPa) = 0.02543114
#
# Stress axis : x y z
#
# Youngs Moduli (GPa) = 59.84121 125.75504 88.88977
#
# Poissons Ratio (x) = 0.39355 -0.18067
# Poissons Ratio (y) = 0.18727 0.36835
# Poissons Ratio (z) = -0.12163 0.52111
#
# Static dielectric constant tensor:
#      x y z
#    x 1.938700 0.000000 -0.010480 
#    y 0.000000 1.905780 0.000000 
#    z -0.010480 0.000000 1.825390 
# 
# From -- ./inp_files/293833.got.cif
#   From: 2010.05.17/outbox.cif.g08.bks.cpg/sg15_147_cif.got.tgz:293833.got - 2010.06.03 18:47:42.
