data_PCOD9279592
_publ_section_title
;
Structure prediction by ZEFSAII (Michael W. Deem and Ramdas Pophale) SiO2 
 PCOD9279592
Probable space group: C 2/C
;
_chemical_formula_sum "Si O2"
_cell_formula_units_Z 52
_cell_length_a 15.570318
_cell_length_b 32.476587
_cell_length_c 5.153512
_cell_angle_alpha 90.000000
_cell_angle_beta 101.041428
_cell_angle_gamma 90.000000
_cell_volume 2557.741065
_symmetry_space_group_name_H-M "C 2/C"
_symmetry_group_IT_number 15
_symmetry_cell_setting 'monoclinic'
loop_
_space_group_symop_operation_xyz
x,y,z
-x,y,1/2-z
-x,-y,-z
x,-y,1/2+z
1/2+x,1/2+y,z
1/2-x,1/2+y,1/2-z
1/2-x,1/2-y,-z
1/2+x,1/2-y,1/2+z
loop_
_atom_site_type_symbol
_atom_site_label
_atom_site_fract_x
_atom_site_fract_y
_atom_site_fract_z
Si Si1 0.210791 0.104408 0.556919
Si Si2 0.590898 0.317672 0.937753
Si Si3 0.103934 0.025893 0.301454
Si Si4 0.576825 0.768058 0.495808
Si Si5 0.000000 0.654595 0.250000
Si Si6 0.813308 0.625816 0.097879
Si Si7 0.751404 0.212169 0.308092
O O1 0.142263 0.142039 0.561772
O O2 0.157490 0.065308 0.425002
O O3 0.279377 0.115350 0.366927
O O4 0.263754 0.099219 0.853852
O O5 0.500000 0.329927 0.750000
O O6 0.581347 0.278215 0.125338
O O7 0.655651 0.298455 0.758377
O O8 0.000000 0.034824 0.250000
O O9 0.122636 0.989949 0.522456
O O10 0.500000 0.758462 0.250000
O O11 0.539877 0.811605 0.577487
O O12 0.679269 0.779776 0.539265
O O13 0.082364 0.626980 0.377853
O O14 0.783071 0.673170 0.049305
O O15 0.750000 0.250000 0.500000
#
# Coordination Sequence:
#
# PCOD9279592 Si02
#       7
#     8   8   8   8   4   8   8
#     4  11  22  43  59  93 126 159 198 252 310 385
#     4  10  22  35  54  80 115 164 203 252 315 364
#     4  10  21  39  69 100 129 161 195 239 300 376
#     4  10  22  34  55  76 109 153 217 267 312 343
#     4  10  24  36  58  84 114 164 222 272 296 362
#     4  10  24  37  62  84 120 163 207 261 317 346
#     4  10  21  36  54  77 110 158 210 268 311 364
#
# _framework density 20.330438000000001
#
# number of rings (size 3 to 8) (size 9 to 14) (size 15 to 20)
#    0.000    1.846    0.000    2.769   15.077    0.000 
#    0.000    3.077    0.000    0.000    0.000   10.769 
#    0.000    0.000    0.000    0.000    0.000    0.000 
#
# Total GULP energy -144846.318929 kJ/mol
# GULP energy per Si atom -5571.012267 kJ/mol
# Density = 2.028416 g / cm^3
# Si number density = 20.330438 Si / 1000 Ang^3
#
#
#
# Elastic Constant Matrix: (Units=GPa)
#
#
# Indices 1 2 3 4 5 6 
#
# 1 133.0656 19.8794 36.6474 0.0000 33.9904 0.0000
# 2 19.8794 61.6085 4.1476 0.0000 17.9556 0.0000
# 3 36.6474 4.1476 68.3293 0.0000 19.1805 0.0000
# 4 0.0000 0.0000 0.0000 35.0735 0.0000 7.8899
# 5 33.9904 17.9556 19.1805 0.0000 28.8529 0.0000
# 6 0.0000 0.0000 0.0000 7.8899 0.0000 18.7551
#
#
#
# Elastic Compliance Matrix: (Units=1/GPa)
#
#
# Indices 1 2 3 4 5 6 
#
# 1 0.011178 -0.000158 -0.002848 0.000000 -0.011177 0.000000
# 2 -0.000158 0.020269 0.002880 0.000000 -0.014342 0.000000
# 3 -0.002848 0.002880 0.019116 0.000000 -0.011145 0.000000
# 4 0.000000 0.000000 0.000000 0.031492 0.000000 -0.013248
# 5 -0.011177 -0.014342 -0.011145 0.000000 0.064160 0.000000
# 6 0.000000 0.000000 0.000000 -0.013248 0.000000 0.058892
#
#
# Mechanical properties :
#
#
# Convention : Reuss Voigt Hill
#
# Bulk Modulus (GPa) = 19.87604 42.70581 31.29092
# Shear Modulus (GPa) = 22.50949 30.02489 26.26719
#
# Velocity S-wave (km/s) = 3.33104 3.84714 3.59836
# Velocity P-wave (km/s) = 4.95905 6.38635 5.71741
#
# Compressibility (1/GPa) = 0.05031183
#
# Stress axis : x y z
#
# Youngs Moduli (GPa) = 89.46047 49.33751 52.31155
#
# Poissons Ratio (x) = 0.00778 0.14899
# Poissons Ratio (y) = 0.01410 -0.15067
# Poissons Ratio (z) = 0.25480 -0.14211
#
# Static dielectric constant tensor:
#      x y z
#    x 1.788170 0.000000 -0.027190 
#    y 0.000000 1.731620 0.000000 
#    z -0.027190 0.000000 1.798090 
# 
# From -- ./inp_files/9130.got.cif
#   From: 2010.05.17/outbox.cif.g08.bks.cpg/sg15_5_cif.got.tgz:9130.got - 2010.06.03 18:47:42.
