data_PCOD9279731
_publ_section_title
;
Structure prediction by ZEFSAII (Michael W. Deem and Ramdas Pophale) SiO2 
 PCOD9279731
Probable space group: C 2/C
;
_chemical_formula_sum "Si O2"
_cell_formula_units_Z 44
_cell_length_a 25.595319
_cell_length_b 9.440009
_cell_length_c 11.920195
_cell_angle_alpha 90.000000
_cell_angle_beta 42.200274
_cell_angle_gamma 90.000000
_cell_volume 1934.671641
_symmetry_space_group_name_H-M "C 2/C"
_symmetry_group_IT_number 15
_symmetry_cell_setting 'monoclinic'
loop_
_space_group_symop_operation_xyz
x,y,z
-x,y,1/2-z
-x,-y,-z
x,-y,1/2+z
1/2+x,1/2+y,z
1/2-x,1/2+y,1/2-z
1/2-x,1/2-y,-z
1/2+x,1/2-y,1/2+z
loop_
_atom_site_type_symbol
_atom_site_label
_atom_site_fract_x
_atom_site_fract_y
_atom_site_fract_z
Si Si1 0.324012 0.257365 0.044881
Si Si2 0.321672 0.907211 0.771064
Si Si3 0.500000 0.526455 0.750000
Si Si4 0.615603 0.509787 0.905779
Si Si5 0.647263 0.665917 0.625118
Si Si6 0.848458 0.738086 0.758017
O O1 0.346843 0.154312 0.110073
O O2 0.325271 0.411961 0.101687
O O3 0.239396 0.212327 0.134382
O O4 0.369595 0.261295 0.854963
O O5 0.359637 0.824330 0.815841
O O6 0.343559 0.071200 0.743084
O O7 0.230722 0.860829 0.934058
O O8 0.533770 0.441415 0.589990
O O9 0.573898 0.617277 0.670512
O O10 0.642461 0.571216 0.744688
O O11 0.604967 0.343154 0.896564
#
# Coordination Sequence:
#
# PCOD9279731 Si02
#       6
#     8   8   4   8   8   8
#     4  10  21  36  57  90 124 156 199 253 307 360
#     4  10  22  40  62  92 125 155 197 258 315 366
#     4  12  22  38  62  86 118 166 212 254 300 362
#     4  11  23  38  58  87 123 163 208 255 302 360
#     4  10  22  39  61  89 122 160 204 252 308 368
#     4  11  20  35  61  90 120 159 203 250 307 365
#
# _framework density 22.742875999999999
#
# number of rings (size 3 to 8) (size 9 to 14) (size 15 to 20)
#    0.000    1.455    0.000    7.091    0.000    4.364 
#    0.000    0.909    0.000    9.818    0.000    0.000 
#    0.000    0.000    0.000    0.000    0.000    0.000 
#
# Total GULP energy -122639.234900 kJ/mol
# GULP energy per Si atom -5574.510677 kJ/mol
# Density = 2.269111 g / cm^3
# Si number density = 22.742876 Si / 1000 Ang^3
#
#
#
# Elastic Constant Matrix: (Units=GPa)
#
#
# Indices 1 2 3 4 5 6 
#
# 1 84.8042 16.6326 30.0040 0.0000 27.1690 0.0000
# 2 16.6326 123.6303 26.7179 0.0000 33.1244 0.0000
# 3 30.0040 26.7179 115.8914 0.0000 31.7368 0.0000
# 4 0.0000 0.0000 0.0000 28.2600 0.0000 6.0302
# 5 27.1690 33.1244 31.7368 0.0000 43.9774 0.0000
# 6 0.0000 0.0000 0.0000 6.0302 0.0000 16.7946
#
#
#
# Elastic Compliance Matrix: (Units=1/GPa)
#
#
# Indices 1 2 3 4 5 6 
#
# 1 0.014996 0.000631 -0.001696 0.000000 -0.008516 0.000000
# 2 0.000631 0.010169 -0.000378 0.000000 -0.007776 0.000000
# 3 -0.001696 -0.000378 0.010955 0.000000 -0.006573 0.000000
# 4 0.000000 0.000000 0.000000 0.038322 0.000000 -0.013760
# 5 -0.008516 -0.007776 -0.006573 0.000000 0.038601 0.000000
# 6 0.000000 0.000000 0.000000 -0.013760 0.000000 0.064483
#
#
# Mechanical properties :
#
#
# Convention : Reuss Voigt Hill
#
# Bulk Modulus (GPa) = 30.08999 52.33724 41.21362
# Shear Modulus (GPa) = 26.11086 34.53784 30.32435
#
# Velocity S-wave (km/s) = 3.39202 3.90118 3.65548
# Velocity P-wave (km/s) = 5.34793 6.58444 5.99813
#
# Compressibility (1/GPa) = 0.03323364
#
# Stress axis : x y z
#
# Youngs Moduli (GPa) = 66.68250 98.33845 91.28156
#
# Poissons Ratio (x) = -0.06201 0.15480
# Poissons Ratio (y) = -0.04205 0.03452
# Poissons Ratio (z) = 0.11308 0.03719
#
# Static dielectric constant tensor:
#      x y z
#    x 1.918590 0.000000 0.022450 
#    y 0.000000 1.902290 0.000000 
#    z 0.022450 0.000000 1.918940 
# 
# From -- ./inp_files/121769.got.cif
#   From: 2010.05.17/outbox.cif.g08.bks.cpg/sg15_61_cif.got.tgz:121769.got - 2010.06.03 18:47:42.
