data_PCOD9279444
_publ_section_title
;
Structure prediction by ZEFSAII (Michael W. Deem and Ramdas Pophale) SiO2 
 PCOD9279444
Probable space group: C 2/C
;
_chemical_formula_sum "Si O2"
_cell_formula_units_Z 40
_cell_length_a 16.017188
_cell_length_b 11.593240
_cell_length_c 22.424501
_cell_angle_alpha 90.000000
_cell_angle_beta 156.157370
_cell_angle_gamma 90.000000
_cell_volume 1683.209110
_symmetry_space_group_name_H-M "C 2/C"
_symmetry_group_IT_number 15
_symmetry_cell_setting 'monoclinic'
loop_
_space_group_symop_operation_xyz
x,y,z
-x,y,1/2-z
-x,-y,-z
x,-y,1/2+z
1/2+x,1/2+y,z
1/2-x,1/2+y,1/2-z
1/2-x,1/2-y,-z
1/2+x,1/2-y,1/2+z
loop_
_atom_site_type_symbol
_atom_site_label
_atom_site_fract_x
_atom_site_fract_y
_atom_site_fract_z
Si Si1 0.332609 0.883538 0.876034
Si Si2 0.411799 0.415867 0.890449
Si Si3 0.744793 0.432584 0.408131
Si Si4 0.476367 0.910055 0.801725
Si Si5 0.668635 0.829796 0.316837
O O1 0.204277 0.961183 0.744356
O O2 0.233729 0.757303 0.808034
O O3 0.284655 0.936991 0.909461
O O4 0.573042 0.877056 0.014964
O O5 0.221776 0.350861 0.797823
O O6 0.500000 0.500000 0.000000
O O7 0.618780 0.350481 0.008415
O O8 0.500000 0.409163 0.250000
O O9 0.827008 0.403600 0.527847
O O10 0.500000 0.869827 0.750000
O O11 0.419972 0.046991 0.761903
O O12 0.500000 0.777829 0.250000
#
# Coordination Sequence:
#
# PCOD9279444 Si02
#       5
#     8   8   8   8   8
#     4  10  22  38  57  89 122 154 196 249 301 347
#     4   9  20  38  57  83 121 161 193 236 294 365
#     4  10  22  38  61  85 120 160 199 242 295 356
#     4   9  20  39  61  89 116 162 199 236 297 359
#     4  10  21  35  60  90 119 150 195 250 300 346
#
# _framework density 23.764130000000002
#
# number of rings (size 3 to 8) (size 9 to 14) (size 15 to 20)
#    0.000    2.400    0.000    0.600   11.200    0.800 
#    0.000    1.000    0.000    6.000    0.000    0.000 
#    0.000    0.000    0.000    0.000    0.000    0.000 
#
# Total GULP energy -111354.243276 kJ/mol
# GULP energy per Si atom -5567.712164 kJ/mol
# Density = 2.371004 g / cm^3
# Si number density = 23.764130 Si / 1000 Ang^3
#
#
#
# Elastic Constant Matrix: (Units=GPa)
#
#
# Indices 1 2 3 4 5 6 
#
# 1 122.1412 10.1599 82.7382 -0.0028 29.6822 -0.0017
# 2 10.1599 47.2279 13.0040 0.0145 15.4709 0.0010
# 3 82.7382 13.0040 229.9167 0.0594 28.9748 0.0227
# 4 -0.0028 0.0145 0.0594 68.5674 0.0226 38.8427
# 5 29.6822 15.4709 28.9748 0.0226 50.7163 0.0109
# 6 -0.0017 0.0010 0.0227 38.8427 0.0109 37.9103
#
#
#
# Elastic Compliance Matrix: (Units=1/GPa)
#
#
# Indices 1 2 3 4 5 6 
#
# 1 0.011836 0.000050 -0.003650 0.000007 -0.004857 -0.000003
# 2 0.000050 0.023570 -0.000476 -0.000008 -0.006948 0.000009
# 3 -0.003650 -0.000476 0.005821 -0.000007 -0.001045 0.000004
# 4 0.000007 -0.000008 -0.000007 0.034759 -0.000006 -0.035614
# 5 -0.004857 -0.006948 -0.001045 -0.000006 0.025276 -0.000001
# 6 -0.000003 0.000009 0.000004 -0.035614 -0.000001 0.062868
#
#
# Mechanical properties :
#
#
# Convention : Reuss Voigt Hill
#
# Bulk Modulus (GPa) = 30.23336 67.89889 49.06613
# Shear Modulus (GPa) = 27.27656 50.99770 39.13713
#
# Velocity S-wave (km/s) = 3.39160 4.63751 4.06260
# Velocity P-wave (km/s) = 5.29973 7.57030 6.53439
#
# Compressibility (1/GPa) = 0.03307604
#
# Stress axis : x y z
#
# Youngs Moduli (GPa) = 84.48834 42.42683 171.77861
#
# Poissons Ratio (x) = -0.00212 0.62700
# Poissons Ratio (y) = -0.00421 0.08168
# Poissons Ratio (z) = 0.30839 0.02017
#
# Static dielectric constant tensor:
#      x y z
#    x 2.045920 0.000010 -0.054920 
#    y 0.000010 2.023420 -0.000010 
#    z -0.054920 -0.000010 1.905910 
# 
# From -- ./inp_files/162662.got.cif
#   From: 2010.05.17/outbox.cif.g08.bks.cpg/sg15_82_cif.got.tgz:162662.got - 2010.06.03 18:47:42.
