data_PCOD9279659
_publ_section_title
;
Structure prediction by ZEFSAII (Michael W. Deem and Ramdas Pophale) SiO2 
 PCOD9279659
Probable space group: C 2/C
;
_chemical_formula_sum "Si O2"
_cell_formula_units_Z 32
_cell_length_a 16.864462
_cell_length_b 7.548524
_cell_length_c 16.360433
_cell_angle_alpha 90.000000
_cell_angle_beta 33.754732
_cell_angle_gamma 90.000000
_cell_volume 1157.236089
_symmetry_space_group_name_H-M "C 2/C"
_symmetry_group_IT_number 15
_symmetry_cell_setting 'monoclinic'
loop_
_space_group_symop_operation_xyz
x,y,z
-x,y,1/2-z
-x,-y,-z
x,-y,1/2+z
1/2+x,1/2+y,z
1/2-x,1/2+y,1/2-z
1/2-x,1/2-y,-z
1/2+x,1/2-y,1/2+z
loop_
_atom_site_type_symbol
_atom_site_label
_atom_site_fract_x
_atom_site_fract_y
_atom_site_fract_z
Si Si1 0.700131 0.561759 0.639342
Si Si2 0.358429 0.989109 0.222638
Si Si3 0.054188 0.213475 0.602040
Si Si4 0.624427 0.228757 0.455740
O O1 0.824736 0.699820 0.557152
O O2 0.636737 0.626126 0.607276
O O3 0.567623 0.571971 0.814874
O O4 0.774787 0.375347 0.566747
O O5 0.202521 0.916876 0.379833
O O6 0.449253 0.114675 0.206375
O O7 0.353479 0.112619 0.146279
O O8 0.462270 0.819348 0.118211
#
# Coordination Sequence:
#
# PCOD9279659 Si02
#       4
#     8   8   8   8
#     4   9  18  34  55  78 107 144 184 226 275 330
#     4  10  21  36  56  84 114 146 187 232 280 334
#     4   9  18  34  55  78 107 144 184 226 275 330
#     4  10  21  36  56  84 114 146 187 232 280 334
#
# _framework density 27.652092
#
# number of rings (size 3 to 8) (size 9 to 14) (size 15 to 20)
#    0.000    2.500    0.000    1.500    0.000    3.000 
#    0.000    5.000    0.000   27.000    0.000    0.000 
#    0.000    0.000    0.000    0.000    0.000    0.000 
#
# Total GULP energy -89268.321278 kJ/mol
# GULP energy per Si atom -5579.270080 kJ/mol
# Density = 2.758915 g / cm^3
# Si number density = 27.652092 Si / 1000 Ang^3
#
#
#
# Elastic Constant Matrix: (Units=GPa)
#
#
# Indices 1 2 3 4 5 6 
#
# 1 120.9633 45.3131 5.6631 -0.0001 -17.4664 0.0000
# 2 45.3131 93.6375 -29.4387 -0.0003 0.3797 0.0002
# 3 5.6631 -29.4387 133.9430 -0.0002 -21.7427 0.0002
# 4 -0.0001 -0.0003 -0.0002 52.9086 0.0001 -13.6257
# 5 -17.4664 0.3797 -21.7427 0.0001 26.8285 -0.0001
# 6 0.0000 0.0002 0.0002 -13.6257 -0.0001 41.3675
#
#
#
# Elastic Compliance Matrix: (Units=1/GPa)
#
#
# Indices 1 2 3 4 5 6 
#
# 1 0.011478 -0.005774 -0.000608 0.000000 0.007062 0.000000
# 2 -0.005774 0.014487 0.003207 0.000000 -0.001366 0.000000
# 3 -0.000608 0.003207 0.009355 0.000000 0.007141 0.000000
# 4 0.000000 0.000000 0.000000 0.020652 0.000000 0.006803
# 5 0.007062 -0.001366 0.007141 0.000000 0.047678 0.000000
# 6 0.000000 0.000000 0.000000 0.006803 0.000000 0.026414
#
#
# Mechanical properties :
#
#
# Convention : Reuss Voigt Hill
#
# Bulk Modulus (GPa) = 34.51919 43.51319 39.01619
# Shear Modulus (GPa) = 34.22935 46.02134 40.12534
#
# Velocity S-wave (km/s) = 3.52214 4.08401 3.81343
# Velocity P-wave (km/s) = 5.38991 6.16514 5.79051
#
# Compressibility (1/GPa) = 0.02896940
#
# Stress axis : x y z
#
# Youngs Moduli (GPa) = 87.12180 69.02515 106.88927
#
# Poissons Ratio (x) = 0.39858 0.06500
# Poissons Ratio (y) = 0.50307 -0.34275
# Poissons Ratio (z) = 0.05298 -0.22134
#
# Static dielectric constant tensor:
#      x y z
#    x 2.263010 0.000000 0.039950 
#    y 0.000000 2.220680 0.000000 
#    z 0.039950 0.000000 2.244580 
# 
# From -- ./inp_files/71890.got.cif
#   From: 2010.05.17/outbox.cif.g08.bks.cpg/sg15_36_cif.got.tgz:71890.got - 2010.06.03 18:47:42.
