data_PCOD9279625
_publ_section_title
;
Structure prediction by ZEFSAII (Michael W. Deem and Ramdas Pophale) SiO2 
 PCOD9279625
Probable space group: C 2/C
;
_chemical_formula_sum "Si O2"
_cell_formula_units_Z 48
_cell_length_a 23.554733
_cell_length_b 5.262957
_cell_length_c 20.473976
_cell_angle_alpha 90.000000
_cell_angle_beta 74.393983
_cell_angle_gamma 90.000000
_cell_volume 2444.539483
_symmetry_space_group_name_H-M "C 2/C"
_symmetry_group_IT_number 15
_symmetry_cell_setting 'monoclinic'
loop_
_space_group_symop_operation_xyz
x,y,z
-x,y,1/2-z
-x,-y,-z
x,-y,1/2+z
1/2+x,1/2+y,z
1/2-x,1/2+y,1/2-z
1/2-x,1/2-y,-z
1/2+x,1/2-y,1/2+z
loop_
_atom_site_type_symbol
_atom_site_label
_atom_site_fract_x
_atom_site_fract_y
_atom_site_fract_z
Si Si1 0.542494 0.210933 0.177673
Si Si2 0.795776 0.920298 0.806321
Si Si3 0.110058 0.807512 0.629818
Si Si4 0.451582 0.925946 0.605592
Si Si5 0.463337 0.309243 0.967329
Si Si6 0.827660 0.578331 0.215600
O O1 0.500000 0.136621 0.250000
O O2 0.573235 0.480061 0.181491
O O3 0.500505 0.244815 0.127296
O O4 0.588475 0.980105 0.151255
O O5 0.823606 0.863184 0.868211
O O6 0.820785 0.690384 0.754147
O O7 0.725328 0.908331 0.820718
O O8 0.816375 0.188624 0.769005
O O9 0.092284 0.869705 0.560746
O O10 0.441607 0.879365 0.531786
O O11 0.391221 0.908382 0.662918
O O12 0.487292 0.189296 0.595538
O O13 0.500000 0.500000 0.000000
#
# Coordination Sequence:
#
# PCOD9279625 Si02
#       6
#     8   8   8   8   8   8
#     4  11  21  32  54  83 110 140 179 231 283 331
#     4  10  21  39  58  86 111 146 185 229 284 328
#     4  11  21  35  55  78 113 144 182 229 273 328
#     4  10  21  36  55  82 112 150 188 224 279 332
#     4  10  21  37  54  80 114 153 186 225 276 326
#     4  10  22  38  61  82 114 146 183 232 281 334
#
# _framework density 19.6356
#
# number of rings (size 3 to 8) (size 9 to 14) (size 15 to 20)
#    0.000    1.667    1.667    3.500    2.333    1.333 
#    0.000    0.833    0.000    1.000    0.000    0.000 
#    0.000    0.000    0.000    0.000    0.000    0.000 
#
# Total GULP energy -133715.458238 kJ/mol
# GULP energy per Si atom -5571.477427 kJ/mol
# Density = 1.959091 g / cm^3
# Si number density = 19.635600 Si / 1000 Ang^3
#
#
#
# Elastic Constant Matrix: (Units=GPa)
#
#
# Indices 1 2 3 4 5 6 
#
# 1 98.3070 5.1196 24.6916 0.0000 26.9494 0.0000
# 2 5.1196 83.1739 -3.1714 0.0000 -2.2083 0.0000
# 3 24.6916 -3.1714 41.9400 0.0000 32.4553 0.0000
# 4 0.0000 0.0000 0.0000 20.1237 0.0000 7.9808
# 5 26.9494 -2.2083 32.4553 0.0000 40.6336 0.0000
# 6 0.0000 0.0000 0.0000 7.9808 0.0000 14.1952
#
#
#
# Elastic Compliance Matrix: (Units=1/GPa)
#
#
# Indices 1 2 3 4 5 6 
#
# 1 0.012620 -0.001044 -0.002587 0.000000 -0.006361 0.000000
# 2 -0.001044 0.012145 0.001274 0.000000 0.000335 0.000000
# 3 -0.002587 0.001274 0.063057 0.000000 -0.048581 0.000000
# 4 0.000000 0.000000 0.000000 0.063952 0.000000 -0.035955
# 5 -0.006361 0.000335 -0.048581 0.000000 0.067650 0.000000
# 6 0.000000 0.000000 0.000000 -0.035955 0.000000 0.090660
#
#
# Mechanical properties :
#
#
# Convention : Reuss Voigt Hill
#
# Bulk Modulus (GPa) = 12.03257 30.74448 21.38853
# Shear Modulus (GPa) = 14.59847 28.10924 21.35386
#
# Velocity S-wave (km/s) = 2.72962 3.78768 3.30131
# Velocity P-wave (km/s) = 4.00945 5.90087 5.04460
#
# Compressibility (1/GPa) = 0.08310777
#
# Stress axis : x y z
#
# Youngs Moduli (GPa) = 79.23956 82.34008 15.85858
#
# Poissons Ratio (x) = 0.08599 0.04102
# Poissons Ratio (y) = 0.08275 -0.02020
# Poissons Ratio (z) = 0.20496 -0.10488
#
# Static dielectric constant tensor:
#      x y z
#    x 1.726430 0.000000 0.090580 
#    y 0.000000 1.790660 0.000000 
#    z 0.090580 0.000000 1.741450 
# 
# From -- ./inp_files/250787.got.cif
#   From: 2010.05.17/outbox.cif.g08.bks.cpg/sg15_126_cif.got.tgz:250787.got - 2010.06.03 18:47:42.
