data_PCOD9279436
_publ_section_title
;
Structure prediction by ZEFSAII (Michael W. Deem and Ramdas Pophale) SiO2 
 PCOD9279436
Probable space group: C 2/C
;
_chemical_formula_sum "Si O2"
_cell_formula_units_Z 48
_cell_length_a 12.555985
_cell_length_b 10.135868
_cell_length_c 20.621047
_cell_angle_alpha 90.000000
_cell_angle_beta 48.736725
_cell_angle_gamma 90.000000
_cell_volume 1972.692977
_symmetry_space_group_name_H-M "C 2/C"
_symmetry_group_IT_number 15
_symmetry_cell_setting 'monoclinic'
loop_
_space_group_symop_operation_xyz
x,y,z
-x,y,1/2-z
-x,-y,-z
x,-y,1/2+z
1/2+x,1/2+y,z
1/2-x,1/2+y,1/2-z
1/2-x,1/2-y,-z
1/2+x,1/2-y,1/2+z
loop_
_atom_site_type_symbol
_atom_site_label
_atom_site_fract_x
_atom_site_fract_y
_atom_site_fract_z
Si Si1 0.724946 0.305646 0.166034
Si Si2 0.519318 0.237958 0.135676
Si Si3 0.693446 0.094886 0.356455
Si Si4 0.893003 0.967020 0.485387
Si Si5 0.294879 0.811004 0.413321
Si Si6 0.945606 0.832003 0.662121
O O1 0.637009 0.236449 0.144426
O O2 0.616382 0.305593 0.271892
O O3 0.781180 0.450800 0.123727
O O4 0.861776 0.225761 0.134508
O O5 0.447514 0.111200 0.130389
O O6 0.588793 0.321593 0.049341
O O7 0.707410 0.221819 0.397546
O O8 0.828626 0.111349 0.256056
O O9 0.748850 0.036702 0.566576
O O10 0.949587 0.053123 0.401733
O O11 0.000000 0.000000 0.500000
O O12 0.250000 0.750000 0.500000
O O13 0.460653 0.780454 0.341606
#
# Coordination Sequence:
#
# PCOD9279436 Si02
#       6
#     8   8   8   8   8   8
#     4  10  21  39  63  88 126 158 207 264 312 373
#     4  10  21  38  63  91 118 168 204 255 319 382
#     4  11  20  38  64  90 120 165 213 255 321 376
#     4  11  20  40  60  85 124 158 207 256 319 375
#     4  10  21  35  60  87 115 159 210 256 303 375
#     4  10  22  38  60  93 117 159 215 261 308 384
#
# _framework density 24.332221000000001
#
# number of rings (size 3 to 8) (size 9 to 14) (size 15 to 20)
#    0.000    1.667    3.333    2.500    2.333    0.000 
#    3.000    8.333    7.333    0.000    0.000    0.000 
#    0.000    0.000    0.000    0.000    0.000    0.000 
#
# Total GULP energy -134088.895678 kJ/mol
# GULP energy per Si atom -5587.037320 kJ/mol
# Density = 2.427684 g / cm^3
# Si number density = 24.332221 Si / 1000 Ang^3
#
#
#
# Elastic Constant Matrix: (Units=GPa)
#
#
# Indices 1 2 3 4 5 6 
#
# 1 136.1634 27.8033 -0.5348 0.0000 -5.8664 0.0000
# 2 27.8033 83.7009 22.0099 0.0000 -16.9421 0.0000
# 3 -0.5348 22.0099 39.5721 0.0000 8.4611 0.0000
# 4 0.0000 0.0000 0.0000 21.1219 0.0000 0.4896
# 5 -5.8664 -16.9421 8.4611 0.0000 34.9414 0.0000
# 6 0.0000 0.0000 0.0000 0.4896 0.0000 27.3854
#
#
#
# Elastic Compliance Matrix: (Units=1/GPa)
#
#
# Indices 1 2 3 4 5 6 
#
# 1 0.008012 -0.003403 0.002179 0.000000 -0.000832 0.000000
# 2 -0.003403 0.018893 -0.013067 0.000000 0.011753 0.000000
# 3 0.002179 -0.013067 0.035692 0.000000 -0.014613 0.000000
# 4 0.000000 0.000000 0.000000 0.047364 0.000000 -0.000847
# 5 -0.000832 0.011753 -0.014613 0.000000 0.037717 0.000000
# 6 0.000000 0.000000 0.000000 -0.000847 0.000000 0.036531
#
#
# Mechanical properties :
#
#
# Convention : Reuss Voigt Hill
#
# Bulk Modulus (GPa) = 29.39922 39.77701 34.58812
# Shear Modulus (GPa) = 22.30865 30.70029 26.50447
#
# Velocity S-wave (km/s) = 3.03121 3.55591 3.30400
# Velocity P-wave (km/s) = 4.93555 5.76562 5.36666
#
# Compressibility (1/GPa) = 0.03401450
#
# Stress axis : x y z
#
# Youngs Moduli (GPa) = 124.81891 52.93041 28.01737
#
# Poissons Ratio (x) = 0.18010 -0.06104
# Poissons Ratio (y) = 0.42472 0.36611
# Poissons Ratio (z) = -0.27196 0.69165
#
# Static dielectric constant tensor:
#      x y z
#    x 1.998220 0.000000 -0.039790 
#    y 0.000000 2.044900 0.000000 
#    z -0.039790 0.000000 1.966440 
# 
# From -- ./inp_files/196046.got.cif
#   From: 2010.05.17/outbox.cif.g08.bks.cpg/sg15_99_cif.got.tgz:196046.got - 2010.06.03 18:47:42.
