data_PCOD9279379
_publ_section_title
;
Structure prediction by ZEFSAII (Michael W. Deem and Ramdas Pophale) SiO2 
 PCOD9279379
Probable space group: C 2/C
;
_chemical_formula_sum "Si O2"
_cell_formula_units_Z 64
_cell_length_a 8.917628
_cell_length_b 16.266983
_cell_length_c 26.536208
_cell_angle_alpha 90.000000
_cell_angle_beta 48.125736
_cell_angle_gamma 90.000000
_cell_volume 2866.321726
_symmetry_space_group_name_H-M "C 2/C"
_symmetry_group_IT_number 15
_symmetry_cell_setting 'monoclinic'
loop_
_space_group_symop_operation_xyz
x,y,z
-x,y,1/2-z
-x,-y,-z
x,-y,1/2+z
1/2+x,1/2+y,z
1/2-x,1/2+y,1/2-z
1/2-x,1/2-y,-z
1/2+x,1/2-y,1/2+z
loop_
_atom_site_type_symbol
_atom_site_label
_atom_site_fract_x
_atom_site_fract_y
_atom_site_fract_z
Si Si1 0.461664 0.821469 0.090013
Si Si2 0.216328 0.917737 0.983037
Si Si3 0.720212 0.865411 0.182998
Si Si4 0.799840 0.071763 0.322715
Si Si5 0.445384 0.783080 0.576217
Si Si6 0.524570 0.034058 0.642966
Si Si7 0.112773 0.076634 0.621843
Si Si8 0.071661 0.824822 0.519356
O O1 0.442367 0.876432 0.144399
O O2 0.278683 0.853969 0.097379
O O3 0.695008 0.842379 0.023322
O O4 0.466079 0.722273 0.089484
O O5 0.345636 0.831733 0.958765
O O6 0.353071 0.989439 0.929523
O O7 0.138020 0.939042 0.056275
O O8 0.045784 0.898977 0.979859
O O9 0.500000 0.835573 0.250000
O O10 0.858541 0.794918 0.126598
O O11 0.663307 0.941387 0.158622
O O12 0.882974 0.899363 0.185936
O O13 0.708604 0.145580 0.375023
O O14 0.000000 0.097579 0.250000
O O15 0.652571 0.032528 0.313027
O O16 0.831824 0.999742 0.355973
O O17 0.440896 0.745839 0.521422
#
# Coordination Sequence:
#
# PCOD9279379 Si02
#       8
#     8   8   8   8   8   8   8   8
#     4  10  21  35  58  91 123 157 190 247 312 360
#     4  11  22  39  63  93 127 153 200 250 324 355
#     4  12  24  42  64  89 119 167 211 245 295 364
#     4  10  23  41  60  86 122 166 207 247 296 358
#     4  11  21  38  64  89 120 158 200 252 300 361
#     4  10  23  40  60  88 123 156 201 255 302 361
#     4  11  22  38  65  89 122 159 203 253 305 366
#     4  11  20  36  59  90 131 151 191 247 310 374
#
# _framework density 22.328268000000001
#
# number of rings (size 3 to 8) (size 9 to 14) (size 15 to 20)
#    0.000    1.250    3.750    2.250    1.750    3.500 
#    2.250    0.000    0.000    0.000    0.000    0.000 
#    0.000    0.000    0.000    0.000    0.000    0.000 
#
# Total GULP energy -178377.033402 kJ/mol
# GULP energy per Si atom -5574.282294 kJ/mol
# Density = 2.227745 g / cm^3
# Si number density = 22.328268 Si / 1000 Ang^3
#
#
#
# Elastic Constant Matrix: (Units=GPa)
#
#
# Indices 1 2 3 4 5 6 
#
# 1 103.4597 14.9331 15.2873 0.0001 -25.8982 0.0003
# 2 14.9331 73.2900 1.3723 -0.0001 1.4668 0.0001
# 3 15.2873 1.3723 59.1616 0.0001 -12.6090 0.0000
# 4 0.0001 -0.0001 0.0001 20.9701 -0.0001 -4.2770
# 5 -25.8982 1.4668 -12.6090 -0.0001 19.7169 -0.0001
# 6 0.0003 0.0001 0.0000 -4.2770 -0.0001 -4.8381
#
#
#
# Elastic Compliance Matrix: (Units=1/GPa)
#
#
# Indices 1 2 3 4 5 6 
#
# 1 0.015269 -0.003535 0.000541 0.000000 0.020664 0.000000
# 2 -0.003535 0.014503 -0.000744 0.000000 -0.006198 0.000000
# 3 0.000541 -0.000744 0.019617 0.000000 0.013311 0.000000
# 4 0.000000 0.000000 0.000000 0.040402 0.000000 -0.035717
# 5 0.020664 -0.006198 0.013311 0.000000 0.086833 0.000000
# 6 0.000000 0.000000 0.000000 -0.035717 0.000000 -0.175119
#
#
# Mechanical properties :
#
#
# Convention : Reuss Voigt Hill
#
# Bulk Modulus (GPa) = 23.85920 33.23299 28.54609
# Shear Modulus (GPa) = 217.84356 20.79102 119.31729
#
# Velocity S-wave (km/s) = 9.88817 3.05479 7.31804
# Velocity P-wave (km/s) = 11.87757 5.23053 9.17701
#
# Compressibility (1/GPa) = 0.04191256
#
# Stress axis : x y z
#
# Youngs Moduli (GPa) = 65.49411 68.95312 50.97548
#
# Poissons Ratio (x) = 0.24373 -0.02756
# Poissons Ratio (y) = 0.23150 0.03792
# Poissons Ratio (z) = -0.03541 0.05129
#
# Static dielectric constant tensor:
#      x y z
#    x 1.892000 0.000000 0.019910 
#    y 0.000000 1.904610 0.000000 
#    z 0.019910 0.000000 1.876390 
# 
# From -- ./inp_files/308219.got.cif
#   From: 2010.05.17/outbox.cif.g08.bks.cpg/sg15_155_cif.got.tgz:308219.got - 2010.06.03 18:47:42.
