data_PCOD9279375
_publ_section_title
;
Structure prediction by ZEFSAII (Michael W. Deem and Ramdas Pophale) SiO2 
 PCOD9279375
Probable space group: C 2/C
;
_chemical_formula_sum "Si O2"
_cell_formula_units_Z 60
_cell_length_a 12.400533
_cell_length_b 18.185034
_cell_length_c 28.170547
_cell_angle_alpha 90.000000
_cell_angle_beta 153.650323
_cell_angle_gamma 90.000000
_cell_volume 2819.579296
_symmetry_space_group_name_H-M "C 2/C"
_symmetry_group_IT_number 15
_symmetry_cell_setting 'monoclinic'
loop_
_space_group_symop_operation_xyz
x,y,z
-x,y,1/2-z
-x,-y,-z
x,-y,1/2+z
1/2+x,1/2+y,z
1/2-x,1/2+y,1/2-z
1/2-x,1/2-y,-z
1/2+x,1/2-y,1/2+z
loop_
_atom_site_type_symbol
_atom_site_label
_atom_site_fract_x
_atom_site_fract_y
_atom_site_fract_z
Si Si1 0.403509 0.556623 0.859825
Si Si2 0.783499 0.787940 0.562377
Si Si3 0.323560 0.795684 0.223478
Si Si4 0.000000 0.458663 0.750000
Si Si5 0.632938 0.877830 0.899404
Si Si6 0.690778 0.548106 0.410984
Si Si7 0.903096 0.270899 0.494176
Si Si8 0.452000 0.924052 0.921337
O O1 0.273571 0.630637 0.791027
O O2 0.482794 0.506262 0.846877
O O3 0.222116 0.509586 0.820662
O O4 0.628840 0.583661 0.982170
O O5 0.750000 0.750000 0.500000
O O6 0.818823 0.873890 0.567946
O O7 0.548520 0.769471 0.502106
O O8 0.018384 0.756082 0.681329
O O9 0.500000 0.819219 0.250000
O O10 0.102253 0.753206 0.111765
O O11 0.922573 0.410659 0.673883
O O12 0.425742 0.900928 0.856136
O O13 0.695074 0.790743 0.917452
O O14 0.731290 0.570863 0.371777
O O15 0.924136 0.502790 0.522102
O O16 0.866822 0.357968 0.488868
#
# Coordination Sequence:
#
# PCOD9279375 Si02
#       8
#     8   8   8   4   8   8   8   8
#     4  10  21  39  61  89 126 163 203 256 314 381
#     4  10  21  35  58  89 127 162 200 257 313 364
#     4   9  18  36  58  86 116 161 216 250 298 378
#     4  12  24  36  58  96 128 158 198 266 324 366
#     4  10  22  38  62  92 123 164 207 261 311 370
#     4   9  20  37  62  92 120 159 207 250 304 373
#     4   9  19  37  62  86 118 164 211 252 298 374
#     4   9  18  39  63  88 120 167 205 245 309 374
#
# _framework density 21.279772000000001
#
# number of rings (size 3 to 8) (size 9 to 14) (size 15 to 20)
#    0.000    2.400    0.667    0.800    1.867    3.200 
#    0.000    2.000    0.000    3.200    0.000    0.000 
#    0.000    0.000    0.000    0.000    0.000    0.000 
#
# Total GULP energy -167361.788359 kJ/mol
# GULP energy per Si atom -5578.726279 kJ/mol
# Density = 2.123134 g / cm^3
# Si number density = 21.279772 Si / 1000 Ang^3
#
#
#
# Elastic Constant Matrix: (Units=GPa)
#
#
# Indices 1 2 3 4 5 6 
#
# 1 114.6228 66.3722 19.3051 0.0003 -5.3012 -0.0001
# 2 66.3722 178.6326 35.3403 -0.0002 -4.9885 -0.0008
# 3 19.3051 35.3403 32.0487 0.0026 -8.5813 -0.0003
# 4 0.0003 -0.0002 0.0026 1.4144 0.0003 10.2988
# 5 -5.3012 -4.9885 -8.5813 0.0003 17.1851 -0.0009
# 6 -0.0001 -0.0008 -0.0003 10.2988 -0.0009 41.9009
#
#
#
# Elastic Compliance Matrix: (Units=1/GPa)
#
#
# Indices 1 2 3 4 5 6 
#
# 1 0.011329 -0.003696 -0.002424 -0.000001 0.001211 0.000000
# 2 -0.003696 0.008435 -0.007763 -0.000021 -0.002568 0.000005
# 3 -0.002424 -0.007763 0.046658 0.000118 0.020297 -0.000028
# 4 -0.000001 -0.000021 0.000118 -0.895308 0.000079 0.220058
# 5 0.001211 -0.002568 0.020297 0.000079 0.067953 -0.000018
# 6 0.000000 0.000005 -0.000028 0.220058 -0.000018 -0.030222
#
#
# Mechanical properties :
#
#
# Convention : Reuss Voigt Hill
#
# Bulk Modulus (GPa) = 25.86955 63.03770 44.45363
# Shear Modulus (GPa) = -6.66219 25.71920 9.52850
#
# Velocity S-wave (km/s) = -1.77132 3.48030 2.11836
# Velocity P-wave (km/s) = 2.82840 6.77034 5.18832
#
# Compressibility (1/GPa) = 0.03865548
#
# Stress axis : x y z
#
# Youngs Moduli (GPa) = 88.27183 118.54796 21.43260
#
# Poissons Ratio (x) = 0.43813 0.05196
# Poissons Ratio (y) = 0.32623 0.16638
# Poissons Ratio (z) = 0.21400 0.92030
#
# Static dielectric constant tensor:
#      x y z
#    x 1.910470 -0.000040 0.456450 
#    y -0.000040 1.772640 -0.000180 
#    z 0.456450 -0.000180 3.494890 
# 
# From -- ./inp_files/293577.got.cif
#   From: 2010.05.17/outbox.cif.g08.bks.cpg/sg15_147_cif.got.tgz:293577.got - 2010.06.03 18:47:42.
