data_PCOD9279167
_publ_section_title
;
Structure prediction by ZEFSAII (Michael W. Deem and Ramdas Pophale) SiO2 
 PCOD9279167
Probable space group: C 2/C
;
_chemical_formula_sum "Si O2"
_cell_formula_units_Z 56
_cell_length_a 15.287379
_cell_length_b 16.726936
_cell_length_c 18.377862
_cell_angle_alpha 90.000000
_cell_angle_beta 33.586313
_cell_angle_gamma 90.000000
_cell_volume 2599.685109
_symmetry_space_group_name_H-M "C 2/C"
_symmetry_group_IT_number 15
_symmetry_cell_setting 'monoclinic'
loop_
_space_group_symop_operation_xyz
x,y,z
-x,y,1/2-z
-x,-y,-z
x,-y,1/2+z
1/2+x,1/2+y,z
1/2-x,1/2+y,1/2-z
1/2-x,1/2-y,-z
1/2+x,1/2-y,1/2+z
loop_
_atom_site_type_symbol
_atom_site_label
_atom_site_fract_x
_atom_site_fract_y
_atom_site_fract_z
Si Si1 0.828776 0.438712 0.330789
Si Si2 0.656365 0.899440 0.605229
Si Si3 0.363594 0.292402 0.978145
Si Si4 0.722709 0.296309 0.712591
Si Si5 0.468925 0.303292 0.358971
Si Si6 0.999914 0.369975 0.920057
Si Si7 0.774149 0.369500 0.211324
O O1 0.789384 0.528490 0.381696
O O2 0.706500 0.377374 0.450943
O O3 0.814839 0.421005 0.254509
O O4 0.000000 0.421571 0.250000
O O5 0.500000 0.863147 0.750000
O O6 0.796027 0.839005 0.493492
O O7 0.577961 0.929421 0.584391
O O8 0.537778 0.306864 0.824306
O O9 0.250000 0.250000 0.000000
O O10 0.335450 0.236722 0.069655
O O11 0.815903 0.369189 0.685747
O O12 0.707637 0.222912 0.778517
O O13 0.500000 0.299894 0.250000
O O14 0.478681 0.219367 0.397855
O O15 0.595617 0.366730 0.304319
O O16 0.896546 0.383737 0.062590
#
# Coordination Sequence:
#
# PCOD9279167 Si02
#       7
#     8   8   8   8   8   8   8
#     4  10  24  45  64  88 136 183 227 274 342 402
#     4  11  25  42  65  94 136 184 223 267 340 420
#     4  11  20  38  66  94 130 171 223 289 337 395
#     4  10  21  34  61 104 128 160 221 281 343 393
#     4  11  23  40  70 105 138 173 219 288 349 405
#     4  11  22  38  70 101 139 169 227 277 349 403
#     4  10  21  40  67  96 132 174 216 281 340 403
#
# _framework density 21.541070000000001
#
# number of rings (size 3 to 8) (size 9 to 14) (size 15 to 20)
#    0.000    1.429    2.857    3.000    4.000    0.571 
#    0.000    5.714    0.000    0.000    0.000    0.000 
#    0.000    0.000    0.000    0.000    0.000    0.000 
#
# Total GULP energy -156091.027710 kJ/mol
# GULP energy per Si atom -5574.679561 kJ/mol
# Density = 2.149204 g / cm^3
# Si number density = 21.541070 Si / 1000 Ang^3
#
#
#
# Elastic Constant Matrix: (Units=GPa)
#
#
# Indices 1 2 3 4 5 6 
#
# 1 122.7237 27.6944 59.8949 -0.0003 -1.3938 -0.0040
# 2 27.6944 58.1844 32.2134 -0.0007 1.1041 -0.0052
# 3 59.8949 32.2134 141.4077 -0.0020 -5.5558 -0.0153
# 4 -0.0003 -0.0007 -0.0020 -3.9467 0.0014 -11.5372
# 5 -1.3938 1.1041 -5.5558 0.0014 46.4806 0.0024
# 6 -0.0040 -0.0052 -0.0153 -11.5372 0.0024 -30.4715
#
#
#
# Elastic Compliance Matrix: (Units=1/GPa)
#
#
# Indices 1 2 3 4 5 6 
#
# 1 0.010699 -0.002953 -0.003862 0.000012 -0.000071 -0.000003
# 2 -0.002953 0.020529 -0.003465 -0.000020 -0.000990 0.000006
# 3 -0.003862 -0.003465 0.009540 -0.000066 0.001107 0.000021
# 4 0.000012 -0.000020 -0.000066 2.372040 -0.000032 -0.898112
# 5 -0.000071 -0.000990 0.001107 -0.000032 0.021668 0.000013
# 6 -0.000003 0.000006 0.000021 -0.898112 0.000013 0.307229
#
#
# Mechanical properties :
#
#
# Convention : Reuss Voigt Hill
#
# Bulk Modulus (GPa) = 49.48218 62.43570 55.95894
# Shear Modulus (GPa) = 1.80571 15.91335 8.85953
#
# Velocity S-wave (km/s) = 0.91656 2.72093 2.03022
# Velocity P-wave (km/s) = 4.91336 6.23849 5.61515
#
# Compressibility (1/GPa) = 0.02020929
#
# Stress axis : x y z
#
# Youngs Moduli (GPa) = 93.47019 48.71073 104.82002
#
# Poissons Ratio (x) = 0.14384 0.40477
# Poissons Ratio (y) = 0.27602 0.36318
# Poissons Ratio (z) = 0.36094 0.16877
#
# Static dielectric constant tensor:
#      x y z
#    x 1.922160 0.000000 -0.013640 
#    y 0.000000 1.795050 0.000000 
#    z -0.013640 0.000000 1.803730 
# 
# From -- ./inp_files/206916.got.cif
#   From: 2010.05.17/outbox.cif.g08.bks.cpg/sg15_104_cif.got.tgz:206916.got - 2010.06.03 18:47:42.
