data_PCOD9279636
_publ_section_title
;
Structure prediction by ZEFSAII (Michael W. Deem and Ramdas Pophale) SiO2 
 PCOD9279636
Probable space group: C 2/C
;
_chemical_formula_sum "Si O2"
_cell_formula_units_Z 64
_cell_length_a 32.808370
_cell_length_b 15.337946
_cell_length_c 8.267937
_cell_angle_alpha 90.000000
_cell_angle_beta 45.809469
_cell_angle_gamma 90.000000
_cell_volume 2983.209883
_symmetry_space_group_name_H-M "C 2/C"
_symmetry_group_IT_number 15
_symmetry_cell_setting 'monoclinic'
loop_
_space_group_symop_operation_xyz
x,y,z
-x,y,1/2-z
-x,-y,-z
x,-y,1/2+z
1/2+x,1/2+y,z
1/2-x,1/2+y,1/2-z
1/2-x,1/2-y,-z
1/2+x,1/2-y,1/2+z
loop_
_atom_site_type_symbol
_atom_site_label
_atom_site_fract_x
_atom_site_fract_y
_atom_site_fract_z
Si Si1 0.308508 0.772841 0.423871
Si Si2 0.336276 0.621419 0.599950
Si Si3 0.932470 0.231088 0.446523
Si Si4 0.909950 0.273692 0.881306
Si Si5 0.438444 0.412176 0.375420
Si Si6 0.117846 0.396309 0.100366
Si Si7 0.437096 0.041226 0.426283
Si Si8 0.139489 0.026527 0.682864
O O1 0.250000 0.750000 0.500000
O O2 0.314700 0.699145 0.547614
O O3 0.323834 0.862162 0.478755
O O4 0.352985 0.774243 0.149583
O O5 0.402867 0.646426 0.446768
O O6 0.322786 0.596368 0.823424
O O7 0.324927 0.532298 0.537540
O O8 0.909552 0.250858 0.691516
O O9 0.910688 0.312396 0.402092
O O10 0.000000 0.223785 0.250000
O O11 0.941047 0.192070 0.878858
O O12 0.936955 0.369477 0.823278
O O13 0.500000 0.448435 0.250000
O O14 0.390603 0.454519 0.620629
O O15 0.413268 0.432273 0.268454
O O16 0.112921 0.476000 0.990045
O O17 0.077141 0.428468 0.355401
O O18 0.500000 0.000115 0.250000
#
# Coordination Sequence:
#
# PCOD9279636 Si02
#       8
#     8   8   8   8   8   8   8   8
#     4  10  23  46  68  86 115 159 210 272 322 355
#     4  10  21  38  58  88 122 160 207 256 302 371
#     4  11  22  36  59  90 129 166 199 239 302 378
#     4  11  22  38  61  88 127 162 211 252 306 374
#     4  11  21  33  55  88 127 171 206 240 300 366
#     4  10  22  38  61  90 124 159 205 252 306 380
#     4  11  20  35  60  92 131 163 196 245 315 389
#     4  10  21  36  55  84 129 162 204 251 297 353
#
# _framework density 21.453403000000002
#
# number of rings (size 3 to 8) (size 9 to 14) (size 15 to 20)
#    0.000    1.500    2.500    3.000    1.750    2.000 
#    0.000    5.000    0.000    0.000    0.000    0.000 
#    0.000    0.000    0.000    0.000    0.000    0.000 
#
# Total GULP energy -178162.789325 kJ/mol
# GULP energy per Si atom -5567.587166 kJ/mol
# Density = 2.140457 g / cm^3
# Si number density = 21.453403 Si / 1000 Ang^3
#
#
#
# Elastic Constant Matrix: (Units=GPa)
#
#
# Indices 1 2 3 4 5 6 
#
# 1 102.6707 21.0228 25.4811 0.0000 1.2765 0.0000
# 2 21.0228 76.1612 2.9042 0.0000 -3.4571 0.0000
# 3 25.4811 2.9042 34.3800 0.0000 16.0006 0.0000
# 4 0.0000 0.0000 0.0000 16.7776 0.0000 16.8575
# 5 1.2765 -3.4571 16.0006 0.0000 23.2650 0.0000
# 6 0.0000 0.0000 0.0000 16.8575 0.0000 32.6532
#
#
#
# Elastic Compliance Matrix: (Units=1/GPa)
#
#
# Indices 1 2 3 4 5 6 
#
# 1 0.013621 -0.002864 -0.013690 0.000000 0.008242 0.000000
# 2 -0.002864 0.014033 -0.000157 0.000000 0.002350 0.000000
# 3 -0.013690 -0.000157 0.057224 0.000000 -0.038628 0.000000
# 4 0.000000 0.000000 0.000000 0.123843 0.000000 -0.063935
# 5 0.008242 0.002350 -0.038628 0.000000 0.069447 0.000000
# 6 0.000000 0.000000 0.000000 -0.063935 0.000000 0.063632
#
#
# Mechanical properties :
#
#
# Convention : Reuss Voigt Hill
#
# Bulk Modulus (GPa) = 19.43325 34.66978 27.05151
# Shear Modulus (GPa) = 12.74297 25.45941 19.10119
#
# Velocity S-wave (km/s) = 2.43982 3.44863 2.98712
# Velocity P-wave (km/s) = 4.12492 5.66154 4.95318
#
# Compressibility (1/GPa) = 0.05145820
#
# Stress axis : x y z
#
# Youngs Moduli (GPa) = 73.41450 71.25967 17.47522
#
# Poissons Ratio (x) = 0.20407 0.23923
# Poissons Ratio (y) = 0.21024 0.00274
# Poissons Ratio (z) = 1.00501 0.01117
#
# Static dielectric constant tensor:
#      x y z
#    x 1.831990 0.000000 0.060100 
#    y 0.000000 1.861990 0.000000 
#    z 0.060100 0.000000 1.826210 
# 
# From -- ./inp_files/70109.got.cif
#   From: 2010.05.17/outbox.cif.g08.bks.cpg/sg15_36_cif.got.tgz:70109.got - 2010.06.03 18:47:42.
