data_PCOD9279692
_publ_section_title
;
Structure prediction by ZEFSAII (Michael W. Deem and Ramdas Pophale) SiO2 
 PCOD9279692
Probable space group: C 2/C
;
_chemical_formula_sum "Si O2"
_cell_formula_units_Z 56
_cell_length_a 12.155917
_cell_length_b 20.331701
_cell_length_c 11.061890
_cell_angle_alpha 90.000000
_cell_angle_beta 72.201411
_cell_angle_gamma 90.000000
_cell_volume 2603.095982
_symmetry_space_group_name_H-M "C 2/C"
_symmetry_group_IT_number 15
_symmetry_cell_setting 'monoclinic'
loop_
_space_group_symop_operation_xyz
x,y,z
-x,y,1/2-z
-x,-y,-z
x,-y,1/2+z
1/2+x,1/2+y,z
1/2-x,1/2+y,1/2-z
1/2-x,1/2-y,-z
1/2+x,1/2-y,1/2+z
loop_
_atom_site_type_symbol
_atom_site_label
_atom_site_fract_x
_atom_site_fract_y
_atom_site_fract_z
Si Si1 0.683229 0.327069 0.343453
Si Si2 0.748939 0.060133 0.030602
Si Si3 0.618767 0.743295 0.277764
Si Si4 0.500000 0.484321 0.750000
Si Si5 0.759523 0.965747 0.252609
Si Si6 0.000000 0.228530 0.750000
Si Si7 0.355795 0.199097 0.481304
Si Si8 0.027380 0.881595 0.937316
O O1 0.767090 0.264702 0.334121
O O2 0.754807 0.393700 0.299869
O O3 0.611497 0.313678 0.244742
O O4 0.578431 0.340963 0.470770
O O5 0.679705 0.128208 0.052799
O O6 0.885105 0.081483 0.000189
O O7 0.723623 0.017195 0.159688
O O8 0.720683 0.029152 0.907074
O O9 0.500000 0.751336 0.250000
O O10 0.618397 0.794864 0.387287
O O11 0.609745 0.669465 0.335851
O O12 0.603340 0.524781 0.772401
O O13 0.468006 0.434456 0.869273
O O14 0.035014 0.273715 0.627262
O O15 0.250000 0.250000 0.500000
#
# Coordination Sequence:
#
# PCOD9279692 Si02
#       8
#     8   8   8   4   8   4   8   8
#     4  12  22  37  66  97 132 174 218 270 341 401
#     4  11  22  41  67  97 138 178 223 279 335 410
#     4  12  25  42  63  98 137 175 216 280 335 394
#     4  10  21  36  56  96 145 162 206 280 346 404
#     4  11  22  37  63  98 132 178 222 266 340 405
#     4  12  21  36  72 104 123 170 230 276 334 406
#     4  12  21  43  68  95 133 178 225 276 334 403
#     4  11  21  38  62  98 134 171 214 275 347 403
#
# _framework density 21.512844000000001
#
# number of rings (size 3 to 8) (size 9 to 14) (size 15 to 20)
#    0.000    0.571    6.429    3.000    0.000    2.857 
#    0.000    1.429    1.571    1.714    0.000    0.000 
#    0.000    0.000    0.000    0.000    0.000    0.000 
#
# Total GULP energy -156220.391768 kJ/mol
# GULP energy per Si atom -5579.299706 kJ/mol
# Density = 2.146388 g / cm^3
# Si number density = 21.512844 Si / 1000 Ang^3
#
#
#
# Elastic Constant Matrix: (Units=GPa)
#
#
# Indices 1 2 3 4 5 6 
#
# 1 37.2963 17.8965 14.5986 0.0000 18.1107 0.0000
# 2 17.8965 107.8322 39.9073 0.0000 5.9982 0.0000
# 3 14.5986 39.9073 91.6765 0.0000 2.8013 0.0000
# 4 0.0000 0.0000 0.0000 37.3462 0.0000 6.4154
# 5 18.1107 5.9982 2.8013 0.0000 27.1269 0.0000
# 6 0.0000 0.0000 0.0000 6.4154 0.0000 24.5038
#
#
#
# Elastic Compliance Matrix: (Units=1/GPa)
#
#
# Indices 1 2 3 4 5 6 
#
# 1 0.044167 -0.004150 -0.004368 0.000000 -0.028119 0.000000
# 2 -0.004150 0.011549 -0.004387 0.000000 0.000670 0.000000
# 3 -0.004368 -0.004387 0.013437 0.000000 0.002498 0.000000
# 4 0.000000 0.000000 0.000000 0.028037 0.000000 -0.007341
# 5 -0.028119 0.000670 0.002498 0.000000 0.055231 0.000000
# 6 0.000000 0.000000 0.000000 -0.007341 0.000000 0.042732
#
#
# Mechanical properties :
#
#
# Convention : Reuss Voigt Hill
#
# Bulk Modulus (GPa) = 23.07109 42.40108 32.73608
# Shear Modulus (GPa) = 21.23960 28.75556 24.99758
#
# Velocity S-wave (km/s) = 3.14554 3.66002 3.41249
# Velocity P-wave (km/s) = 4.89287 6.13298 5.54768
#
# Compressibility (1/GPa) = 0.04334429
#
# Stress axis : x y z
#
# Youngs Moduli (GPa) = 22.64110 86.59027 74.42302
#
# Poissons Ratio (x) = 0.35933 0.32505
# Poissons Ratio (y) = 0.09396 0.32648
# Poissons Ratio (z) = 0.09889 0.37986
#
# Static dielectric constant tensor:
#      x y z
#    x 1.785370 0.000000 0.021620 
#    y 0.000000 1.826060 0.000000 
#    z 0.021620 0.000000 1.940760 
# 
# From -- ./inp_files/89608.got.cif
#   From: 2010.05.17/outbox.cif.g08.bks.cpg/sg15_45_cif.got.tgz:89608.got - 2010.06.03 18:47:42.
