data_PCOD9279178
_publ_section_title
;
Structure prediction by ZEFSAII (Michael W. Deem and Ramdas Pophale) SiO2 
 PCOD9279178
Probable space group: C 2/C
;
_chemical_formula_sum "Si O2"
_cell_formula_units_Z 64
_cell_length_a 11.348607
_cell_length_b 7.478913
_cell_length_c 30.621657
_cell_angle_alpha 90.000000
_cell_angle_beta 99.822462
_cell_angle_gamma 90.000000
_cell_volume 2560.921825
_symmetry_space_group_name_H-M "C 2/C"
_symmetry_group_IT_number 15
_symmetry_cell_setting 'monoclinic'
loop_
_space_group_symop_operation_xyz
x,y,z
-x,y,1/2-z
-x,-y,-z
x,-y,1/2+z
1/2+x,1/2+y,z
1/2-x,1/2+y,1/2-z
1/2-x,1/2-y,-z
1/2+x,1/2-y,1/2+z
loop_
_atom_site_type_symbol
_atom_site_label
_atom_site_fract_x
_atom_site_fract_y
_atom_site_fract_z
Si Si1 0.182186 0.940611 0.324334
Si Si2 0.872253 0.240089 0.246203
Si Si3 0.278713 0.451217 0.076363
Si Si4 0.678931 0.014862 0.321456
Si Si5 0.935673 0.669916 0.838302
Si Si6 0.125595 0.146608 0.497951
Si Si7 0.244715 0.470972 0.920082
Si Si8 0.517261 0.110513 0.564460
O O1 0.159908 0.995146 0.373144
O O2 0.155839 0.729243 0.315115
O O3 0.325341 0.968056 0.329961
O O4 0.128165 0.069662 0.284936
O O5 0.789047 0.393424 0.219222
O O6 0.881771 0.194759 0.298343
O O7 0.000000 0.334919 0.250000
O O8 0.359944 0.511485 0.041741
O O9 0.262383 0.239847 0.074184
O O10 0.136993 0.510391 0.065258
O O11 0.556597 0.924851 0.331974
O O12 0.759202 0.988020 0.369659
O O13 0.950226 0.722319 0.889465
O O14 0.250000 0.250000 0.500000
O O15 0.013945 0.273426 0.480259
O O16 0.147258 0.052704 0.545229
O O17 0.113048 0.531321 0.930192
#
# Coordination Sequence:
#
# PCOD9279178 Si02
#       8
#     8   8   8   8   8   8   8   8
#     4  10  22  38  61  88 115 160 196 242 307 357
#     4  10  22  36  60  85 112 156 196 247 299 360
#     4  10  21  38  60  83 119 155 193 243 294 351
#     4   9  20  40  60  80 125 152 192 253 297 349
#     4   9  20  39  60  84 119 155 195 249 299 352
#     4  10  21  34  62  88 114 159 195 242 294 352
#     4   9  19  37  59  85 115 154 194 241 296 348
#     4   9  20  39  60  82 120 154 192 245 296 348
#
# _framework density 24.991001000000001
#
# number of rings (size 3 to 8) (size 9 to 14) (size 15 to 20)
#    0.000    2.500    0.000    0.375    8.750    4.000 
#    0.000    2.500   16.500    0.000    0.000    0.000 
#    0.000    0.000    0.000    0.000    0.000    0.000 
#
# Total GULP energy -178193.750798 kJ/mol
# GULP energy per Si atom -5568.554712 kJ/mol
# Density = 2.493412 g / cm^3
# Si number density = 24.991001 Si / 1000 Ang^3
#
#
#
# Elastic Constant Matrix: (Units=GPa)
#
#
# Indices 1 2 3 4 5 6 
#
# 1 46.9692 2.1591 -8.3507 0.0000 4.7582 0.0000
# 2 2.1591 78.5048 54.2501 0.0000 0.9882 0.0000
# 3 -8.3507 54.2501 180.5949 0.0000 -0.1223 0.0000
# 4 0.0000 0.0000 0.0000 33.7030 0.0000 7.6456
# 5 4.7582 0.9882 -0.1223 0.0000 13.5188 0.0000
# 6 0.0000 0.0000 0.0000 7.6456 0.0000 30.1807
#
#
#
# Elastic Compliance Matrix: (Units=1/GPa)
#
#
# Indices 1 2 3 4 5 6 
#
# 1 0.022415 -0.001554 0.001498 0.000000 -0.007762 0.000000
# 2 -0.001554 0.016203 -0.004940 0.000000 -0.000682 0.000000
# 3 0.001498 -0.004940 0.007090 0.000000 -0.000102 0.000000
# 4 0.000000 0.000000 0.000000 0.031480 0.000000 -0.007975
# 5 -0.007762 -0.000682 -0.000102 0.000000 0.076752 0.000000
# 6 0.000000 0.000000 0.000000 -0.007975 0.000000 0.035154
#
#
# Mechanical properties :
#
#
# Convention : Reuss Voigt Hill
#
# Bulk Modulus (GPa) = 27.99810 44.68733 36.34271
# Shear Modulus (GPa) = 23.69773 32.68119 28.18946
#
# Velocity S-wave (km/s) = 3.08271 3.62016 3.36219
# Velocity P-wave (km/s) = 4.88860 5.94931 5.44484
#
# Compressibility (1/GPa) = 0.03571671
#
# Stress axis : x y z
#
# Youngs Moduli (GPa) = 44.61370 61.71745 141.03794
#
# Poissons Ratio (x) = 0.09590 -0.21127
# Poissons Ratio (y) = 0.06933 0.69667
# Poissons Ratio (z) = -0.06683 0.30486
#
# Static dielectric constant tensor:
#      x y z
#    x 2.110590 0.000000 -0.074980 
#    y 0.000000 2.019330 0.000000 
#    z -0.074980 0.000000 2.128430 
# 
# From -- ./inp_files/312925.got.cif
#   From: 2010.05.17/outbox.cif.g08.bks.cpg/sg15_157_cif.got.tgz:312925.got - 2010.06.03 18:47:42.
