data_PCOD9279861
_publ_section_title
;
Structure prediction by ZEFSAII (Michael W. Deem and Ramdas Pophale) SiO2 
 PCOD9279861
Probable space group: C 2/C
;
_chemical_formula_sum "Si O2"
_cell_formula_units_Z 56
_cell_length_a 8.516967
_cell_length_b 29.459190
_cell_length_c 12.234451
_cell_angle_alpha 90.000000
_cell_angle_beta 62.819196
_cell_angle_gamma 90.000000
_cell_volume 2730.675663
_symmetry_space_group_name_H-M "C 2/C"
_symmetry_group_IT_number 15
_symmetry_cell_setting 'monoclinic'
loop_
_space_group_symop_operation_xyz
x,y,z
-x,y,1/2-z
-x,-y,-z
x,-y,1/2+z
1/2+x,1/2+y,z
1/2-x,1/2+y,1/2-z
1/2-x,1/2-y,-z
1/2+x,1/2-y,1/2+z
loop_
_atom_site_type_symbol
_atom_site_label
_atom_site_fract_x
_atom_site_fract_y
_atom_site_fract_z
Si Si1 0.194436 0.834312 0.728915
Si Si2 0.267186 0.906809 0.534752
Si Si3 0.655326 0.508052 0.612615
Si Si4 0.007383 0.264800 0.880386
Si Si5 0.532951 0.594862 0.910278
Si Si6 0.609846 0.930641 0.320602
Si Si7 0.166437 0.821823 0.993473
O O1 0.248427 0.881856 0.655700
O O2 0.320530 0.793833 0.650088
O O3 0.203118 0.835489 0.856708
O O4 0.000000 0.824336 0.750000
O O5 0.117095 0.889828 0.498879
O O6 0.464467 0.899835 0.426564
O O7 0.224673 0.960444 0.546875
O O8 0.500000 0.498629 0.750000
O O9 0.567539 0.546208 0.561270
O O10 0.820554 0.531048 0.620497
O O11 0.843540 0.295883 0.972411
O O12 0.000000 0.258661 0.750000
O O13 0.985103 0.216133 0.943676
O O14 0.706746 0.590956 0.779774
O O15 0.393387 0.633442 0.923629
O O16 0.500000 0.948216 0.250000
#
# Coordination Sequence:
#
# PCOD9279861 Si02
#       7
#     8   8   8   8   8   8   8
#     4  11  22  40  62  95 127 163 208 254 320 385
#     4  11  21  39  59  86 131 166 200 268 315 372
#     4  10  21  36  60  89 118 167 214 255 319 373
#     4   9  22  42  65  92 126 161 204 267 318 381
#     4  10  21  38  62  89 120 165 214 262 308 382
#     4   9  21  39  54  87 124 157 216 260 306 371
#     4  10  21  43  65  93 124 162 213 261 315 378
#
# _framework density 20.507743999999999
#
# number of rings (size 3 to 8) (size 9 to 14) (size 15 to 20)
#    0.000    2.000    1.429    1.286    2.000    2.286 
#    5.143    1.429    0.000    0.000    0.000    0.000 
#    0.000    0.000    0.000    0.000    0.000    0.000 
#
# Total GULP energy -156160.542556 kJ/mol
# GULP energy per Si atom -5577.162234 kJ/mol
# Density = 2.046107 g / cm^3
# Si number density = 20.507744 Si / 1000 Ang^3
#
#
#
# Elastic Constant Matrix: (Units=GPa)
#
#
# Indices 1 2 3 4 5 6 
#
# 1 59.7866 16.5838 26.5378 0.0000 -6.1892 0.0000
# 2 16.5838 103.6928 40.3427 0.0000 -10.2609 0.0000
# 3 26.5378 40.3427 47.7824 0.0000 -9.1616 0.0000
# 4 0.0000 0.0000 0.0000 29.3395 0.0000 -4.0512
# 5 -6.1892 -10.2609 -9.1616 0.0000 28.7972 0.0000
# 6 0.0000 0.0000 0.0000 -4.0512 0.0000 26.9062
#
#
#
# Elastic Compliance Matrix: (Units=1/GPa)
#
#
# Indices 1 2 3 4 5 6 
#
# 1 0.022473 0.001919 -0.013892 0.000000 0.001094 0.000000
# 2 0.001919 0.014574 -0.013094 0.000000 0.001439 0.000000
# 3 -0.013892 -0.013094 0.040716 0.000000 0.005302 0.000000
# 4 0.000000 0.000000 0.000000 0.034807 0.000000 0.005241
# 5 0.001094 0.001439 0.005302 0.000000 0.037160 0.000000
# 6 0.000000 0.000000 0.000000 0.005241 0.000000 0.037955
#
#
# Mechanical properties :
#
#
# Convention : Reuss Voigt Hill
#
# Bulk Modulus (GPa) = 36.19475 42.02114 39.10795
# Shear Modulus (GPa) = 20.24045 25.52841 22.88443
#
# Velocity S-wave (km/s) = 3.14501 3.53203 3.34412
# Velocity P-wave (km/s) = 5.55659 6.09659 5.83285
#
# Compressibility (1/GPa) = 0.02762831
#
# Stress axis : x y z
#
# Youngs Moduli (GPa) = 44.49711 68.61553 24.56060
#
# Poissons Ratio (x) = -0.13165 0.34119
# Poissons Ratio (y) = -0.08538 0.32161
# Poissons Ratio (z) = 0.61814 0.89848
#
# Static dielectric constant tensor:
#      x y z
#    x 1.752140 0.000000 0.008460 
#    y 0.000000 1.728360 0.000000 
#    z 0.008460 0.000000 1.774090 
# 
# From -- ./inp_files/82472.got.cif
#   From: 2010.05.17/outbox.cif.g08.bks.cpg/sg15_42_cif.got.tgz:82472.got - 2010.06.03 18:47:42.
