data_PCOD9279987
_publ_section_title
;
Structure prediction by ZEFSAII (Michael W. Deem and Ramdas Pophale) SiO2 
 PCOD9279987
Probable space group: C 2/C
;
_chemical_formula_sum "Si O2"
_cell_formula_units_Z 60
_cell_length_a 18.344513
_cell_length_b 11.785059
_cell_length_c 13.750042
_cell_angle_alpha 90.000000
_cell_angle_beta 87.354950
_cell_angle_gamma 90.000000
_cell_volume 2969.470573
_symmetry_space_group_name_H-M "C 2/C"
_symmetry_group_IT_number 15
_symmetry_cell_setting 'monoclinic'
loop_
_space_group_symop_operation_xyz
x,y,z
-x,y,1/2-z
-x,-y,-z
x,-y,1/2+z
1/2+x,1/2+y,z
1/2-x,1/2+y,1/2-z
1/2-x,1/2-y,-z
1/2+x,1/2-y,1/2+z
loop_
_atom_site_type_symbol
_atom_site_label
_atom_site_fract_x
_atom_site_fract_y
_atom_site_fract_z
Si Si1 0.913032 0.591454 0.083471
Si Si2 0.466651 0.846248 0.078532
Si Si3 0.246880 0.381718 0.981349
Si Si4 0.906266 0.156571 0.970531
Si Si5 0.138927 0.973476 0.668590
Si Si6 0.325290 0.499535 0.630713
Si Si7 0.000000 0.829501 0.750000
Si Si8 0.455745 0.327738 0.153807
O O1 0.937072 0.467020 0.115730
O O2 0.827304 0.590330 0.068683
O O3 0.935710 0.695361 0.150883
O O4 0.957959 0.623677 0.981947
O O5 0.476551 0.753701 0.163046
O O6 0.411263 0.788219 0.002643
O O7 0.320923 0.408429 0.919389
O O8 0.250000 0.250000 0.000000
O O9 0.255554 0.455093 0.078435
O O10 0.991615 0.136266 0.939364
O O11 0.869420 0.100732 0.876472
O O12 0.868600 0.091027 0.061930
O O13 0.189908 0.960725 0.759557
O O14 0.064005 0.911461 0.704998
O O15 0.382865 0.600642 0.646462
O O16 0.500000 0.349419 0.250000
#
# Coordination Sequence:
#
# PCOD9279987 Si02
#       8
#     8   8   8   8   8   8   4   8
#     4  10  23  45  60  91 127 176 215 252 318 388
#     4  10  23  41  66  89 126 169 213 266 312 374
#     4  11  23  44  64  88 133 177 210 259 320 388
#     4  10  21  36  62  93 126 155 199 276 321 361
#     4  11  23  38  64 101 123 161 214 267 330 377
#     4  11  21  38  61  96 124 161 213 258 330 374
#     4  12  22  38  66  98 128 156 220 272 312 382
#     4  11  20  34  64  93 126 159 207 269 318 373
#
# _framework density 20.205621000000001
#
# number of rings (size 3 to 8) (size 9 to 14) (size 15 to 20)
#    0.000    1.333    4.000    2.000    6.533    0.000 
#    4.800    4.000    0.000    0.000    0.000    0.000 
#    0.000    0.000    0.000    0.000    0.000    0.000 
#
# Total GULP energy -167193.496019 kJ/mol
# GULP energy per Si atom -5573.116534 kJ/mol
# Density = 2.015963 g / cm^3
# Si number density = 20.205621 Si / 1000 Ang^3
#
#
#
# Elastic Constant Matrix: (Units=GPa)
#
#
# Indices 1 2 3 4 5 6 
#
# 1 47.2656 5.7752 -3.8679 0.0000 8.2288 0.0000
# 2 5.7752 71.8703 -0.9302 0.0000 3.9851 0.0000
# 3 -3.8679 -0.9302 56.3520 0.0000 13.7321 0.0000
# 4 0.0000 0.0000 0.0000 25.1179 0.0000 6.8355
# 5 8.2288 3.9851 13.7321 0.0000 15.2468 0.0000
# 6 0.0000 0.0000 0.0000 6.8355 0.0000 28.3254
#
#
#
# Elastic Compliance Matrix: (Units=1/GPa)
#
#
# Indices 1 2 3 4 5 6 
#
# 1 0.025097 -0.000879 0.006345 0.000000 -0.019030 0.000000
# 2 -0.000879 0.014243 0.001238 0.000000 -0.004363 0.000000
# 3 0.006345 0.001238 0.024490 0.000000 -0.025805 0.000000
# 4 0.000000 0.000000 0.000000 0.042611 0.000000 -0.010283
# 5 -0.019030 -0.004363 -0.025805 0.000000 0.100240 0.000000
# 6 0.000000 0.000000 0.000000 -0.010283 0.000000 0.037785
#
#
# Mechanical properties :
#
#
# Convention : Reuss Voigt Hill
#
# Bulk Modulus (GPa) = 12.94709 19.71577 16.33143
# Shear Modulus (GPa) = 19.47018 25.37209 22.42114
#
# Velocity S-wave (km/s) = 3.10756 3.54742 3.33475
# Velocity P-wave (km/s) = 4.39289 5.15342 4.78828
#
# Compressibility (1/GPa) = 0.07723743
#
# Stress axis : x y z
#
# Youngs Moduli (GPa) = 39.84558 70.21216 40.83323
#
# Poissons Ratio (x) = 0.06174 -0.25911
# Poissons Ratio (y) = 0.03504 -0.05055
# Poissons Ratio (z) = -0.25284 -0.08692
#
# Static dielectric constant tensor:
#      x y z
#    x 1.726170 0.000000 0.021100 
#    y 0.000000 1.721810 0.000000 
#    z 0.021100 0.000000 1.797980 
# 
# From -- ./inp_files/160928.got.cif
#   From: 2010.05.17/outbox.cif.g08.bks.cpg/sg15_81_cif.got.tgz:160928.got - 2010.06.03 18:47:42.
