data_PCOD9279279
_publ_section_title
;
Structure prediction by ZEFSAII (Michael W. Deem and Ramdas Pophale) SiO2 
 PCOD9279279
Probable space group: C 2/C
;
_chemical_formula_sum "Si O2"
_cell_formula_units_Z 56
_cell_length_a 5.501744
_cell_length_b 22.472606
_cell_length_c 20.445192
_cell_angle_alpha 90.000000
_cell_angle_beta 72.342837
_cell_angle_gamma 90.000000
_cell_volume 2408.724368
_symmetry_space_group_name_H-M "C 2/C"
_symmetry_group_IT_number 15
_symmetry_cell_setting 'monoclinic'
loop_
_space_group_symop_operation_xyz
x,y,z
-x,y,1/2-z
-x,-y,-z
x,-y,1/2+z
1/2+x,1/2+y,z
1/2-x,1/2+y,1/2-z
1/2-x,1/2-y,-z
1/2+x,1/2-y,1/2+z
loop_
_atom_site_type_symbol
_atom_site_label
_atom_site_fract_x
_atom_site_fract_y
_atom_site_fract_z
Si Si1 0.500000 0.375275 0.250000
Si Si2 0.320437 0.576433 0.321994
Si Si3 0.787351 0.643290 0.355862
Si Si4 0.162801 0.685769 0.600141
Si Si5 0.975929 0.899087 0.500470
Si Si6 0.233584 0.004306 0.558076
Si Si7 0.369860 0.273963 0.366815
Si Si8 0.500000 0.122466 0.750000
O O1 0.436110 0.329178 0.313866
O O2 0.254161 0.411550 0.248568
O O3 0.500000 0.555088 0.250000
O O4 0.525261 0.620799 0.342296
O O5 0.243420 0.520295 0.371857
O O6 0.052532 0.607400 0.324416
O O7 0.717434 0.638151 0.439166
O O8 0.849552 0.710921 0.332769
O O9 0.277782 0.636039 0.543216
O O10 0.404668 0.727036 0.598482
O O11 0.918497 0.714742 0.586356
O O12 0.068572 0.660816 0.679165
O O13 0.048445 0.955774 0.539213
O O14 0.860641 0.928858 0.444726
O O15 0.500000 0.000000 0.500000
#
# Coordination Sequence:
#
# PCOD9279279 Si02
#       8
#     4   8   8   8   8   8   8   4
#     4   8  16  30  50  70 109 162 197 226 298 348
#     4  11  24  41  66  96 126 157 214 272 314 375
#     4  11  23  40  61  95 129 166 207 252 319 380
#     4  10  21  37  59  87 126 165 210 251 302 368
#     4  10  23  39  66  91 119 171 210 257 321 385
#     4  10  21  44  66  87 122 164 210 263 330 384
#     4  10  21  35  55  88 126 166 201 254 299 369
#     4   8  16  34  50  76 115 152 197 248 284 346
#
# _framework density 23.248818
#
# number of rings (size 3 to 8) (size 9 to 14) (size 15 to 20)
#    0.000    2.000    1.429    1.286    4.000    1.143 
#    2.571    1.429    1.571    0.000    0.000    0.000 
#    0.000    0.000    0.000    0.000    0.000    0.000 
#
# Total GULP energy -156150.342958 kJ/mol
# GULP energy per Si atom -5576.797963 kJ/mol
# Density = 2.319590 g / cm^3
# Si number density = 23.248818 Si / 1000 Ang^3
#
#
#
# Elastic Constant Matrix: (Units=GPa)
#
#
# Indices 1 2 3 4 5 6 
#
# 1 165.6844 10.8011 3.4808 0.0000 -25.5634 0.0000
# 2 10.8011 30.7223 24.5698 0.0000 -6.5516 0.0000
# 3 3.4808 24.5698 86.9485 0.0000 -26.6093 0.0000
# 4 0.0000 0.0000 0.0000 10.4184 0.0000 -6.8817
# 5 -25.5634 -6.5516 -26.6093 0.0000 27.5069 0.0000
# 6 0.0000 0.0000 0.0000 -6.8817 0.0000 22.6906
#
#
#
# Elastic Compliance Matrix: (Units=1/GPa)
#
#
# Indices 1 2 3 4 5 6 
#
# 1 0.007727 -0.003595 0.003753 0.000000 0.009956 0.000000
# 2 -0.003595 0.043812 -0.014298 0.000000 -0.006738 0.000000
# 3 0.003753 -0.014298 0.021900 0.000000 0.021268 0.000000
# 4 0.000000 0.000000 0.000000 0.120029 0.000000 0.036403
# 5 0.009956 -0.006738 0.021268 0.000000 0.064576 0.000000
# 6 0.000000 0.000000 0.000000 0.036403 0.000000 0.055111
#
#
# Mechanical properties :
#
#
# Convention : Reuss Voigt Hill
#
# Bulk Modulus (GPa) = 22.14434 40.11764 31.13099
# Shear Modulus (GPa) = 14.02570 28.42343 21.22457
#
# Velocity S-wave (km/s) = 2.45885 3.50033 3.02475
# Velocity P-wave (km/s) = 4.19606 5.79911 5.06145
#
# Compressibility (1/GPa) = 0.04515827
#
# Stress axis : x y z
#
# Youngs Moduli (GPa) = 129.41328 22.82495 45.66205
#
# Poissons Ratio (x) = 0.08206 -0.17139
# Poissons Ratio (y) = 0.46529 0.65290
# Poissons Ratio (z) = -0.48575 0.32636
#
# Static dielectric constant tensor:
#      x y z
#    x 1.929670 0.000000 0.088730 
#    y 0.000000 1.877280 0.000000 
#    z 0.088730 0.000000 1.878240 
# 
# From -- ./inp_files/227950.got.cif
#   From: 2010.05.17/outbox.cif.g08.bks.cpg/sg15_114_cif.got.tgz:227950.got - 2010.06.03 18:47:42.
