data_PCOD9279714
_publ_section_title
;
Structure prediction by ZEFSAII (Michael W. Deem and Ramdas Pophale) SiO2 
 PCOD9279714
Probable space group: C 2/C
;
_chemical_formula_sum "Si O2"
_cell_formula_units_Z 52
_cell_length_a 16.157505
_cell_length_b 10.523159
_cell_length_c 22.886645
_cell_angle_alpha 90.000000
_cell_angle_beta 145.955002
_cell_angle_gamma 90.000000
_cell_volume 2178.559663
_symmetry_space_group_name_H-M "C 2/C"
_symmetry_group_IT_number 15
_symmetry_cell_setting 'monoclinic'
loop_
_space_group_symop_operation_xyz
x,y,z
-x,y,1/2-z
-x,-y,-z
x,-y,1/2+z
1/2+x,1/2+y,z
1/2-x,1/2+y,1/2-z
1/2-x,1/2-y,-z
1/2+x,1/2-y,1/2+z
loop_
_atom_site_type_symbol
_atom_site_label
_atom_site_fract_x
_atom_site_fract_y
_atom_site_fract_z
Si Si1 0.549281 0.830014 0.435121
Si Si2 0.253425 0.186783 0.341389
Si Si3 0.060286 0.691701 0.167415
Si Si4 0.720931 0.934265 0.276768
Si Si5 0.000000 0.697178 0.250000
Si Si6 0.190791 0.548824 0.450688
Si Si7 0.010776 0.955897 0.633458
O O1 0.642772 0.860183 0.546943
O O2 0.379573 0.876362 0.334886
O O3 0.626256 0.909122 0.428030
O O4 0.544446 0.679447 0.424164
O O5 0.348821 0.209832 0.338045
O O6 0.203437 0.333691 0.319095
O O7 0.118639 0.092977 0.248464
O O8 0.140628 0.566584 0.240557
O O9 0.055165 0.773381 0.224273
O O10 0.894032 0.645750 0.054682
O O11 0.883965 0.971098 0.350665
O O12 0.870739 0.610657 0.144906
O O13 0.364730 0.537337 0.558279
#
# Coordination Sequence:
#
# PCOD9279714 Si02
#       7
#     8   8   8   8   4   8   8
#     4  10  21  36  58  85 116 150 177 233 293 325
#     4  10  21  37  56  84 118 145 189 232 276 338
#     4   8  18  36  58  78 111 151 180 228 283 325
#     4   9  20  38  54  85 114 148 192 221 275 339
#     4   8  18  36  60  76 116 144 188 224 280 340
#     4   9  19  35  57  86 111 146 188 228 285 326
#     4  10  21  36  57  86 112 147 195 227 274 329
#
# _framework density 23.868981000000002
#
# number of rings (size 3 to 8) (size 9 to 14) (size 15 to 20)
#    0.923    1.846    0.000    0.462    2.154    6.769 
#    5.538    0.769    0.000    3.692    0.000    0.000 
#    0.000    0.000    0.000    0.000    0.000    0.000 
#
# Total GULP energy -144744.190272 kJ/mol
# GULP energy per Si atom -5567.084241 kJ/mol
# Density = 2.381465 g / cm^3
# Si number density = 23.868981 Si / 1000 Ang^3
#
#
#
# Elastic Constant Matrix: (Units=GPa)
#
#
# Indices 1 2 3 4 5 6 
#
# 1 57.6512 -1.6312 54.6507 0.0000 8.9151 0.0000
# 2 -1.6312 66.8252 24.0745 0.0000 7.0355 0.0000
# 3 54.6507 24.0745 160.4223 0.0001 16.4485 0.0000
# 4 0.0000 0.0000 0.0001 22.4069 0.0000 10.0747
# 5 8.9151 7.0355 16.4485 0.0000 44.4064 0.0000
# 6 0.0000 0.0000 0.0000 10.0747 0.0000 7.6353
#
#
#
# Elastic Compliance Matrix: (Units=1/GPa)
#
#
# Indices 1 2 3 4 5 6 
#
# 1 0.026938 0.004375 -0.009571 0.000000 -0.002556 0.000000
# 2 0.004375 0.016653 -0.003772 0.000000 -0.002119 0.000000
# 3 -0.009571 -0.003772 0.010189 0.000000 -0.001255 0.000000
# 4 0.000000 0.000000 0.000000 0.109728 0.000000 -0.144784
# 5 -0.002556 -0.002119 -0.001255 0.000000 0.023833 0.000000
# 6 0.000000 0.000000 0.000000 -0.144784 0.000000 0.322012
#
#
# Mechanical properties :
#
#
# Convention : Reuss Voigt Hill
#
# Bulk Modulus (GPa) = 27.89963 48.78742 38.34353
# Shear Modulus (GPa) = 9.27234 28.74337 19.00785
#
# Velocity S-wave (km/s) = 1.97310 3.47394 2.82501
# Velocity P-wave (km/s) = 4.11155 6.04773 5.17107
#
# Compressibility (1/GPa) = 0.03584276
#
# Stress axis : x y z
#
# Youngs Moduli (GPa) = 37.12236 60.04805 98.14543
#
# Poissons Ratio (x) = -0.26270 0.93938
# Poissons Ratio (y) = -0.16240 0.37023
# Poissons Ratio (z) = 0.35531 0.22651
#
# Static dielectric constant tensor:
#      x y z
#    x 2.069830 0.000000 0.092410 
#    y 0.000000 2.057630 0.000000 
#    z 0.092410 0.000000 1.910680 
# 
# From -- ./inp_files/298906.got.cif
#   From: 2010.05.17/outbox.cif.g08.bks.cpg/sg15_150_cif.got.tgz:298906.got - 2010.06.03 18:47:42.
