data_PCOD9279414
_publ_section_title
;
Structure prediction by ZEFSAII (Michael W. Deem and Ramdas Pophale) SiO2 
 PCOD9279414
Probable space group: C 2/C
;
_chemical_formula_sum "Si O2"
_cell_formula_units_Z 52
_cell_length_a 18.276456
_cell_length_b 8.630247
_cell_length_c 17.115943
_cell_angle_alpha 90.000000
_cell_angle_beta 73.741273
_cell_angle_gamma 90.000000
_cell_volume 2591.734692
_symmetry_space_group_name_H-M "C 2/C"
_symmetry_group_IT_number 15
_symmetry_cell_setting 'monoclinic'
loop_
_space_group_symop_operation_xyz
x,y,z
-x,y,1/2-z
-x,-y,-z
x,-y,1/2+z
1/2+x,1/2+y,z
1/2-x,1/2+y,1/2-z
1/2-x,1/2-y,-z
1/2+x,1/2-y,1/2+z
loop_
_atom_site_type_symbol
_atom_site_label
_atom_site_fract_x
_atom_site_fract_y
_atom_site_fract_z
Si Si1 0.338409 0.911287 0.790635
Si Si2 0.535415 0.572991 0.603112
Si Si3 0.500000 0.808951 0.750000
Si Si4 0.265246 0.957816 0.450970
Si Si5 0.323398 0.623506 0.386776
Si Si6 0.384912 0.578970 0.079901
Si Si7 0.792733 0.737246 0.732176
O O1 0.427138 0.907713 0.749372
O O2 0.293851 0.766300 0.768307
O O3 0.317560 0.921368 0.888878
O O4 0.306231 0.066023 0.759786
O O5 0.525767 0.701543 0.671184
O O6 0.593593 0.442746 0.618485
O O7 0.574757 0.634369 0.511932
O O8 0.452416 0.505839 0.606403
O O9 0.308191 0.794159 0.428024
O O10 0.239312 0.980051 0.548098
O O11 0.184592 0.966697 0.427376
O O12 0.310403 0.647752 0.299420
O O13 0.346335 0.709841 0.144794
#
# Coordination Sequence:
#
# PCOD9279414 Si02
#       7
#     8   8   4   8   8   8   8
#     4  10  24  40  60  85 124 156 203 247 308 344
#     4  10  21  35  59  90 124 159 198 245 306 362
#     4  12  26  40  56  86 124 164 198 260 300 350
#     4   8  17  36  58  87 118 151 195 247 288 360
#     4   9  17  32  61  91 111 153 198 239 294 359
#     4   9  19  38  59  90 125 156 195 250 303 362
#     4  10  21  39  64  88 115 159 202 249 296 372
#
# _framework density 20.063780999999999
#
# number of rings (size 3 to 8) (size 9 to 14) (size 15 to 20)
#    0.000    2.462    0.000    0.923    8.615    2.462 
#    2.769    3.077    0.000    0.000    0.000    0.000 
#    0.000    0.000    0.000    0.000    0.000    0.000 
#
# Total GULP energy -145022.485482 kJ/mol
# GULP energy per Si atom -5577.787903 kJ/mol
# Density = 2.001812 g / cm^3
# Si number density = 20.063781 Si / 1000 Ang^3
#
#
#
# Elastic Constant Matrix: (Units=GPa)
#
#
# Indices 1 2 3 4 5 6 
#
# 1 106.6133 29.6827 17.4545 0.0000 -20.9623 0.0000
# 2 29.6827 50.4025 22.4974 0.0000 -3.3222 0.0000
# 3 17.4545 22.4974 58.2714 0.0000 -4.5448 0.0000
# 4 0.0000 0.0000 0.0000 17.2475 0.0000 -2.1154
# 5 -20.9623 -3.3222 -4.5448 0.0000 23.0769 0.0000
# 6 0.0000 0.0000 0.0000 -2.1154 0.0000 26.0099
#
#
#
# Elastic Compliance Matrix: (Units=1/GPa)
#
#
# Indices 1 2 3 4 5 6 
#
# 1 0.013648 -0.007082 -0.000474 0.000000 0.011284 0.000000
# 2 -0.007082 0.027709 -0.008904 0.000000 -0.004198 0.000000
# 3 -0.000474 -0.008904 0.020928 0.000000 0.002410 0.000000
# 4 0.000000 0.000000 0.000000 0.058563 0.000000 0.004763
# 5 0.011284 -0.004198 0.002410 0.000000 0.053454 0.000000
# 6 0.000000 0.000000 0.000000 0.004763 0.000000 0.038834
#
#
# Mechanical properties :
#
#
# Convention : Reuss Voigt Hill
#
# Bulk Modulus (GPa) = 34.05333 39.39516 36.72425
# Shear Modulus (GPa) = 19.54316 22.97705 21.26011
#
# Velocity S-wave (km/s) = 3.12437 3.38775 3.25872
# Velocity P-wave (km/s) = 5.47950 5.91440 5.70110
#
# Compressibility (1/GPa) = 0.02936570
#
# Stress axis : x y z
#
# Youngs Moduli (GPa) = 73.27221 36.08991 47.78189
#
# Poissons Ratio (x) = 0.25559 0.02263
# Poissons Ratio (y) = 0.51892 0.42544
# Poissons Ratio (z) = 0.03470 0.32134
#
# Static dielectric constant tensor:
#      x y z
#    x 1.700100 0.000000 -0.006880 
#    y 0.000000 1.710090 0.000000 
#    z -0.006880 0.000000 1.755910 
# 
# From -- ./inp_files/209097.got.cif
#   From: 2010.05.17/outbox.cif.g08.bks.cpg/sg15_105_cif.got.tgz:209097.got - 2010.06.03 18:47:42.
