data_PCOD9279752
_publ_section_title
;
Structure prediction by ZEFSAII (Michael W. Deem and Ramdas Pophale) SiO2 
 PCOD9279752
Probable space group: C 2/C
;
_chemical_formula_sum "Si O2"
_cell_formula_units_Z 64
_cell_length_a 24.541590
_cell_length_b 20.506704
_cell_length_c 16.966617
_cell_angle_alpha 90.000000
_cell_angle_beta 160.565008
_cell_angle_gamma 90.000000
_cell_volume 2841.155925
_symmetry_space_group_name_H-M "C 2/C"
_symmetry_group_IT_number 15
_symmetry_cell_setting 'monoclinic'
loop_
_space_group_symop_operation_xyz
x,y,z
-x,y,1/2-z
-x,-y,-z
x,-y,1/2+z
1/2+x,1/2+y,z
1/2-x,1/2+y,1/2-z
1/2-x,1/2-y,-z
1/2+x,1/2-y,1/2+z
loop_
_atom_site_type_symbol
_atom_site_label
_atom_site_fract_x
_atom_site_fract_y
_atom_site_fract_z
Si Si1 0.593133 0.796733 0.006719
Si Si2 0.845872 0.284206 0.953667
Si Si3 0.770298 0.926132 0.073849
Si Si4 0.594257 0.938471 0.995753
Si Si5 0.839837 0.206707 0.715865
Si Si6 0.000254 0.575813 0.653468
Si Si7 0.620689 0.441029 0.841631
Si Si8 0.934031 0.814176 0.821869
O O1 0.708241 0.744899 0.208020
O O2 0.659571 0.794265 0.008183
O O3 0.621272 0.870268 0.078453
O O4 0.410009 0.771177 0.771051
O O5 0.749040 0.293990 0.902976
O O6 0.913575 0.355139 0.022252
O O7 0.989079 0.231466 0.140277
O O8 0.854445 0.856411 0.181037
O O9 0.874828 0.985667 0.184329
O O10 0.726291 0.936521 0.105596
O O11 0.591406 0.927649 0.789397
O O12 0.587418 0.014664 0.009817
O O13 0.952814 0.195031 0.947186
O O14 0.000000 0.563912 0.750000
O O15 0.188486 0.576615 0.882379
O O16 0.500000 0.435451 0.750000
O O17 0.564824 0.388862 0.701172
#
# Coordination Sequence:
#
# PCOD9279752 Si02
#       8
#     8   8   8   8   8   8   8   8
#     4   9  19  36  56  85 117 151 194 245 294 353
#     4  10  21  36  58  84 117 154 198 241 293 356
#     4   9  17  35  58  86 113 154 198 246 299 350
#     4   9  16  34  63  84 113 151 201 241 293 361
#     4   9  19  36  58  82 115 155 199 247 294 356
#     4  11  19  38  61  85 110 159 206 241 294 358
#     4  11  23  37  55  88 122 151 197 252 301 349
#     4  10  21  37  56  83 116 160 195 247 296 354
#
# _framework density 22.526043999999999
#
# number of rings (size 3 to 8) (size 9 to 14) (size 15 to 20)
#    0.000    2.250    3.750    0.000    1.750    2.000 
#    4.500    3.750    0.000    6.750    0.000    2.625 
#    0.000    0.000    0.000    0.000    0.000    0.000 
#
# Total GULP energy -178522.171437 kJ/mol
# GULP energy per Si atom -5578.817857 kJ/mol
# Density = 2.247477 g / cm^3
# Si number density = 22.526044 Si / 1000 Ang^3
#
#
#
# Elastic Constant Matrix: (Units=GPa)
#
#
# Indices 1 2 3 4 5 6 
#
# 1 63.8623 33.0416 33.8360 0.0000 25.0281 0.0000
# 2 33.0416 138.3495 42.0943 0.0000 3.2303 0.0000
# 3 33.8360 42.0943 73.2704 0.0000 21.5973 0.0000
# 4 0.0000 0.0000 0.0000 24.4286 0.0000 15.9212
# 5 25.0281 3.2303 21.5973 0.0000 35.3532 0.0000
# 6 0.0000 0.0000 0.0000 15.9212 0.0000 24.6693
#
#
#
# Elastic Compliance Matrix: (Units=1/GPa)
#
#
# Indices 1 2 3 4 5 6 
#
# 1 0.026748 -0.004416 -0.005308 0.000000 -0.015290 0.000000
# 2 -0.004416 0.009717 -0.005126 0.000000 0.005370 0.000000
# 3 -0.005308 -0.005126 0.021707 0.000000 -0.009035 0.000000
# 4 0.000000 0.000000 0.000000 0.070655 0.000000 -0.045600
# 5 -0.015290 0.005370 -0.009035 0.000000 0.044139 0.000000
# 6 0.000000 0.000000 0.000000 -0.045600 0.000000 0.069966
#
#
# Mechanical properties :
#
#
# Convention : Reuss Voigt Hill
#
# Bulk Modulus (GPa) = 35.12225 54.82511 44.97368
# Shear Modulus (GPa) = 17.72271 27.99091 22.85681
#
# Velocity S-wave (km/s) = 2.80798 3.52888 3.18887
# Velocity P-wave (km/s) = 5.11260 6.40276 5.79371
#
# Compressibility (1/GPa) = 0.02847198
#
# Stress axis : x y z
#
# Youngs Moduli (GPa) = 37.38560 102.91225 46.06716
#
# Poissons Ratio (x) = 0.45447 0.24454
# Poissons Ratio (y) = 0.16510 0.23614
# Poissons Ratio (z) = 0.19845 0.52753
#
# Static dielectric constant tensor:
#      x y z
#    x 1.861120 0.000000 -0.017840 
#    y 0.000000 1.863060 0.000000 
#    z -0.017840 0.000000 1.920910 
# 
# From -- ./inp_files/258079.got.cif
#   From: 2010.05.17/outbox.cif.g08.bks.cpg/sg15_130_cif.got.tgz:258079.got - 2010.06.03 18:47:42.
