data_PCOD9279068
_publ_section_title
;
Structure prediction by ZEFSAII (Michael W. Deem and Ramdas Pophale) SiO2 
 PCOD9279068
Probable space group: C 2/C
;
_chemical_formula_sum "Si O2"
_cell_formula_units_Z 56
_cell_length_a 5.012570
_cell_length_b 25.310134
_cell_length_c 20.737195
_cell_angle_alpha 90.000000
_cell_angle_beta 97.676123
_cell_angle_gamma 90.000000
_cell_volume 2607.327769
_symmetry_space_group_name_H-M "C 2/C"
_symmetry_group_IT_number 15
_symmetry_cell_setting 'monoclinic'
loop_
_space_group_symop_operation_xyz
x,y,z
-x,y,1/2-z
-x,-y,-z
x,-y,1/2+z
1/2+x,1/2+y,z
1/2-x,1/2+y,1/2-z
1/2-x,1/2-y,-z
1/2+x,1/2-y,1/2+z
loop_
_atom_site_type_symbol
_atom_site_label
_atom_site_fract_x
_atom_site_fract_y
_atom_site_fract_z
Si Si1 0.516944 0.556754 0.032493
Si Si2 0.851409 0.168804 0.487449
Si Si3 0.572089 0.066915 0.116644
Si Si4 0.588513 0.149092 0.677728
Si Si5 0.277041 0.966572 0.297132
Si Si6 0.694693 0.178789 0.103470
Si Si7 0.564737 0.292960 0.125177
O O1 0.589937 0.607605 0.991979
O O2 0.225180 0.566265 0.053306
O O3 0.754834 0.558497 0.094275
O O4 0.500000 0.500000 0.000000
O O5 0.030682 0.179240 0.429074
O O6 0.931964 0.204178 0.550143
O O7 0.544932 0.175264 0.456801
O O8 0.648962 0.125510 0.143771
O O9 0.699563 0.018425 0.158997
O O10 0.500000 0.151552 0.750000
O O11 0.661496 0.088370 0.664763
O O12 0.329174 0.170656 0.632275
O O13 0.846351 0.184393 0.668063
O O14 0.500000 0.972709 0.250000
O O15 0.000000 0.961218 0.250000
O O16 0.656242 0.233031 0.140465
#
# Coordination Sequence:
#
# PCOD9279068 Si02
#       7
#     8   8   8   8   8   8   8
#     4  10  21  34  55  88 125 153 188 242 292 353
#     4  10  21  35  58  90 124 156 200 231 287 370
#     4  10  22  38  60  83 121 154 190 245 299 340
#     4  11  25  41  59  87 116 148 201 256 297 339
#     4  11  23  42  64  84 115 154 201 251 297 357
#     4  10  21  40  57  91 124 155 191 248 285 351
#     4  12  22  38  66  84 118 165 198 235 304 353
#
# _framework density 21.477927000000001
#
# number of rings (size 3 to 8) (size 9 to 14) (size 15 to 20)
#    0.000    1.429    0.000    6.000    4.000    0.000 
#    0.000    2.143    0.000    0.000    0.000    0.000 
#    0.000    0.000    0.000    0.000    0.000    0.000 
#
# Total GULP energy -156449.938479 kJ/mol
# GULP energy per Si atom -5587.497803 kJ/mol
# Density = 2.142904 g / cm^3
# Si number density = 21.477927 Si / 1000 Ang^3
#
#
#
# Elastic Constant Matrix: (Units=GPa)
#
#
# Indices 1 2 3 4 5 6 
#
# 1 108.1762 18.7367 8.0261 0.0000 5.5027 0.0000
# 2 18.7367 178.8216 27.7025 0.0000 -5.5661 0.0000
# 3 8.0261 27.7025 19.5231 0.0000 0.0491 0.0000
# 4 0.0000 0.0000 0.0000 21.1638 0.0000 -6.0432
# 5 5.5027 -5.5661 0.0491 0.0000 27.0562 0.0000
# 6 0.0000 0.0000 0.0000 -6.0432 0.0000 25.7029
#
#
#
# Elastic Compliance Matrix: (Units=1/GPa)
#
#
# Indices 1 2 3 4 5 6 
#
# 1 0.009686 -0.000594 -0.003133 0.000000 -0.002086 0.000000
# 2 -0.000594 0.007265 -0.010069 0.000000 0.001634 0.000000
# 3 -0.003133 -0.010069 0.066800 0.000000 -0.001555 0.000000
# 4 0.000000 0.000000 0.000000 0.050651 0.000000 0.011909
# 5 -0.002086 0.001634 -0.001555 0.000000 0.037723 0.000000
# 6 0.000000 0.000000 0.000000 0.011909 0.000000 0.041706
#
#
# Mechanical properties :
#
#
# Convention : Reuss Voigt Hill
#
# Bulk Modulus (GPa) = 17.80666 46.16127 31.98397
# Shear Modulus (GPa) = 19.22015 31.58830 25.40422
#
# Velocity S-wave (km/s) = 2.99470 3.83917 3.44293
# Velocity P-wave (km/s) = 4.50181 6.41805 5.54336
#
# Compressibility (1/GPa) = 0.05615875
#
# Stress axis : x y z
#
# Youngs Moduli (GPa) = 103.24464 137.64422 14.96998
#
# Poissons Ratio (x) = 0.08182 0.04690
# Poissons Ratio (y) = 0.06137 0.15073
# Poissons Ratio (z) = 0.32348 1.38589
#
# Static dielectric constant tensor:
#      x y z
#    x 1.745820 0.000000 -0.007710 
#    y 0.000000 1.865000 0.000000 
#    z -0.007710 0.000000 1.770030 
# 
# From -- ./inp_files/227937.got.cif
#   From: 2010.05.17/outbox.cif.g08.bks.cpg/sg15_114_cif.got.tgz:227937.got - 2010.06.03 18:47:42.
