data_PCOD9279526
_publ_section_title
;
Structure prediction by ZEFSAII (Michael W. Deem and Ramdas Pophale) SiO2 
 PCOD9279526
Probable space group: C 2/C
;
_chemical_formula_sum "Si O2"
_cell_formula_units_Z 40
_cell_length_a 19.168035
_cell_length_b 5.246437
_cell_length_c 18.893427
_cell_angle_alpha 90.000000
_cell_angle_beta 117.713119
_cell_angle_gamma 90.000000
_cell_volume 1682.042500
_symmetry_space_group_name_H-M "C 2/C"
_symmetry_group_IT_number 15
_symmetry_cell_setting 'monoclinic'
loop_
_space_group_symop_operation_xyz
x,y,z
-x,y,1/2-z
-x,-y,-z
x,-y,1/2+z
1/2+x,1/2+y,z
1/2-x,1/2+y,1/2-z
1/2-x,1/2-y,-z
1/2+x,1/2-y,1/2+z
loop_
_atom_site_type_symbol
_atom_site_label
_atom_site_fract_x
_atom_site_fract_y
_atom_site_fract_z
Si Si1 0.900120 0.186761 0.651395
Si Si2 0.672074 0.746041 0.147782
Si Si3 0.663571 0.191701 0.934334
Si Si4 0.355749 0.245257 0.276821
Si Si5 0.070953 0.963816 0.480976
O O1 0.843581 0.412255 0.598561
O O2 0.916491 0.259986 0.739755
O O3 0.953157 0.160320 0.605559
O O4 0.861293 0.904860 0.635371
O O5 0.640691 0.506281 0.178212
O O6 0.766985 0.741490 0.200478
O O7 0.641031 0.005278 0.169034
O O8 0.638796 0.695298 0.053566
O O9 0.606785 0.265801 0.972796
O O10 0.750000 0.250000 0.000000
O O11 0.000000 0.000000 0.500000
#
# Coordination Sequence:
#
# PCOD9279526 Si02
#       5
#     8   8   8   8   8
#     4  10  22  38  64  90 126 163 215 263 310 381
#     4  10  22  37  63  91 129 163 206 265 323 380
#     4  10  21  35  64  93 120 158 210 266 309 364
#     4  10  21  39  61  95 124 163 211 265 323 373
#     4  10  25  42  65  94 133 169 215 261 327 381
#
# _framework density 23.780611
#
# number of rings (size 3 to 8) (size 9 to 14) (size 15 to 20)
#    1.200    0.800    0.000    3.000    5.600    2.400 
#    0.000    1.000    0.000    0.000    0.000    0.000 
#    0.000    0.000    0.000    0.000    0.000    0.000 
#
# Total GULP energy -111627.138802 kJ/mol
# GULP energy per Si atom -5581.356940 kJ/mol
# Density = 2.372649 g / cm^3
# Si number density = 23.780611 Si / 1000 Ang^3
#
#
#
# Elastic Constant Matrix: (Units=GPa)
#
#
# Indices 1 2 3 4 5 6 
#
# 1 87.4492 25.0000 36.4186 0.0002 -32.5428 -0.0001
# 2 25.0000 86.1199 11.4877 0.0002 -19.5057 -0.0008
# 3 36.4186 11.4877 142.1948 0.0000 -17.4447 0.0000
# 4 0.0002 0.0002 0.0000 20.3115 -0.0001 -10.6724
# 5 -32.5428 -19.5057 -17.4447 -0.0001 42.6265 0.0001
# 6 -0.0001 -0.0008 0.0000 -10.6724 0.0001 13.0071
#
#
#
# Elastic Compliance Matrix: (Units=1/GPa)
#
#
# Indices 1 2 3 4 5 6 
#
# 1 0.017397 -0.002146 -0.002920 0.000000 0.011105 0.000000
# 2 -0.002146 0.013234 0.000024 0.000001 0.004428 0.000001
# 3 -0.002920 0.000024 0.007903 0.000000 0.001016 0.000000
# 4 0.000000 0.000001 0.000000 0.086545 0.000000 0.071011
# 5 0.011105 0.004428 0.001016 0.000000 0.034379 0.000000
# 6 0.000000 0.000001 0.000000 0.071011 0.000000 0.135146
#
#
# Mechanical properties :
#
#
# Convention : Reuss Voigt Hill
#
# Bulk Modulus (GPa) = 35.14879 51.28626 43.21753
# Shear Modulus (GPa) = 15.91484 31.37953 23.64718
#
# Velocity S-wave (km/s) = 2.58977 3.63649 3.15681
# Velocity P-wave (km/s) = 4.87391 6.26461 5.61250
#
# Compressibility (1/GPa) = 0.02845048
#
# Stress axis : x y z
#
# Youngs Moduli (GPa) = 57.48075 75.56156 126.53106
#
# Poissons Ratio (x) = 0.16212 0.36947
# Poissons Ratio (y) = 0.12333 -0.00298
# Poissons Ratio (z) = 0.16784 -0.00178
#
# Static dielectric constant tensor:
#      x y z
#    x 2.004210 0.000000 0.031530 
#    y 0.000000 1.844080 0.000000 
#    z 0.031530 0.000000 1.942240 
# 
# From -- ./inp_files/217624.got.cif
#   From: 2010.05.17/outbox.cif.g08.bks.cpg/sg15_109_cif.got.tgz:217624.got - 2010.06.03 18:47:42.
