data_PCOD9279745
_publ_section_title
;
Structure prediction by ZEFSAII (Michael W. Deem and Ramdas Pophale) SiO2 
 PCOD9279745
Probable space group: C 2/C
;
_chemical_formula_sum "Si O2"
_cell_formula_units_Z 40
_cell_length_a 13.782026
_cell_length_b 7.902216
_cell_length_c 15.744106
_cell_angle_alpha 90.000000
_cell_angle_beta 81.579693
_cell_angle_gamma 90.000000
_cell_volume 1696.184430
_symmetry_space_group_name_H-M "C 2/C"
_symmetry_group_IT_number 15
_symmetry_cell_setting 'monoclinic'
loop_
_space_group_symop_operation_xyz
x,y,z
-x,y,1/2-z
-x,-y,-z
x,-y,1/2+z
1/2+x,1/2+y,z
1/2-x,1/2+y,1/2-z
1/2-x,1/2-y,-z
1/2+x,1/2-y,1/2+z
loop_
_atom_site_type_symbol
_atom_site_label
_atom_site_fract_x
_atom_site_fract_y
_atom_site_fract_z
Si Si1 0.281809 0.730610 0.228677
Si Si2 0.970969 0.254520 0.513277
Si Si3 0.462071 0.457142 0.635658
Si Si4 0.135578 0.185693 0.611947
Si Si5 0.698583 0.045975 0.385046
O O1 0.368316 0.599185 0.199186
O O2 0.189286 0.705500 0.176617
O O3 0.246444 0.704709 0.329038
O O4 0.220249 0.944428 0.071032
O O5 0.989452 0.208830 0.413658
O O6 0.077043 0.277099 0.544801
O O7 0.895418 0.395858 0.551463
O O8 0.049461 0.069190 0.662751
O O9 0.430374 0.580562 0.562063
O O10 0.819874 0.587569 0.689875
#
# Coordination Sequence:
#
# PCOD9279745 Si02
#       5
#     8   8   8   8   8
#     4  10  21  36  58  83 113 147 188 228 271 332
#     4   9  19  39  59  82 114 145 183 230 278 331
#     4   9  19  39  59  82 114 145 183 230 278 331
#     4   8  21  37  57  83 111 149 177 236 280 309
#     4  10  21  36  58  83 113 147 188 228 271 332
#
# _framework density 23.582342000000001
#
# number of rings (size 3 to 8) (size 9 to 14) (size 15 to 20)
#    2.400    0.400    0.000    1.200    0.000    5.600 
#    0.000    6.000    0.000    0.000    0.000    0.000 
#    0.000    0.000    0.000    0.000    0.000    0.000 
#
# Total GULP energy -111356.956807 kJ/mol
# GULP energy per Si atom -5567.847840 kJ/mol
# Density = 2.352867 g / cm^3
# Si number density = 23.582342 Si / 1000 Ang^3
#
#
#
# Elastic Constant Matrix: (Units=GPa)
#
#
# Indices 1 2 3 4 5 6 
#
# 1 106.8091 39.5883 21.2315 0.0000 -25.4677 0.0000
# 2 39.5883 79.0802 27.4718 0.0000 -11.1555 0.0000
# 3 21.2315 27.4718 44.5360 0.0000 -18.9958 0.0000
# 4 0.0000 0.0000 0.0000 29.2489 0.0000 8.8976
# 5 -25.4677 -11.1555 -18.9958 0.0000 16.7417 0.0000
# 6 0.0000 0.0000 0.0000 8.8976 0.0000 31.5967
#
#
#
# Elastic Compliance Matrix: (Units=1/GPa)
#
#
# Indices 1 2 3 4 5 6 
#
# 1 0.018769 -0.008330 0.011629 0.000000 0.036196 0.000000
# 2 -0.008330 0.019800 -0.015541 0.000000 -0.017112 0.000000
# 3 0.011629 -0.015541 0.057408 0.000000 0.072472 0.000000
# 4 0.000000 0.000000 0.000000 0.037392 0.000000 -0.010530
# 5 0.036196 -0.017112 0.072472 0.000000 0.185620 0.000000
# 6 0.000000 0.000000 0.000000 -0.010530 0.000000 0.034614
#
#
# Mechanical properties :
#
#
# Convention : Reuss Voigt Hill
#
# Bulk Modulus (GPa) = 13.98738 45.22316 29.60527
# Shear Modulus (GPa) = 12.44034 24.99305 18.71670
#
# Velocity S-wave (km/s) = 2.29929 3.25902 2.82028
# Velocity P-wave (km/s) = 3.60460 5.77754 4.81524
#
# Compressibility (1/GPa) = 0.07149299
#
# Stress axis : x y z
#
# Youngs Moduli (GPa) = 53.27969 50.50392 17.41928
#
# Poissons Ratio (x) = 0.42069 -0.20257
# Poissons Ratio (y) = 0.44381 0.27072
# Poissons Ratio (z) = -0.61960 0.78490
#
# Static dielectric constant tensor:
#      x y z
#    x 1.891570 0.000000 0.027950 
#    y 0.000000 1.985170 0.000000 
#    z 0.027950 0.000000 1.896280 
# 
# From -- ./inp_files/229914.got.cif
#   From: 2010.05.17/outbox.cif.g08.bks.cpg/sg15_115_cif.got.tgz:229914.got - 2010.06.03 18:47:42.
