data_PCOD9279009
_publ_section_title
;
Structure prediction by ZEFSAII (Michael W. Deem and Ramdas Pophale) SiO2 
 PCOD9279009
Probable space group: C 2/C
;
_chemical_formula_sum "Si O2"
_cell_formula_units_Z 48
_cell_length_a 13.550735
_cell_length_b 15.810389
_cell_length_c 9.466050
_cell_angle_alpha 90.000000
_cell_angle_beta 89.999157
_cell_angle_gamma 90.000000
_cell_volume 2028.029191
_symmetry_space_group_name_H-M "C 2/C"
_symmetry_group_IT_number 15
_symmetry_cell_setting 'monoclinic'
loop_
_space_group_symop_operation_xyz
x,y,z
-x,y,1/2-z
-x,-y,-z
x,-y,1/2+z
1/2+x,1/2+y,z
1/2-x,1/2+y,1/2-z
1/2-x,1/2-y,-z
1/2+x,1/2-y,1/2+z
loop_
_atom_site_type_symbol
_atom_site_label
_atom_site_fract_x
_atom_site_fract_y
_atom_site_fract_z
Si Si1 0.131847 0.107910 0.166658
Si Si2 0.632198 0.493692 0.403282
Si Si3 0.868147 0.392090 0.666657
Si Si4 0.500000 0.641008 0.750000
Si Si5 0.132203 0.493694 0.096718
Si Si6 0.000000 0.641004 0.750000
Si Si7 0.486621 0.750001 0.499999
O O1 0.249997 0.120801 0.164412
O O2 0.081336 0.187567 0.094215
O O3 0.101526 0.080236 0.324911
O O4 0.109013 0.026350 0.065934
O O5 0.583459 0.416658 0.319364
O O6 0.749998 0.489766 0.389590
O O7 0.890981 0.473651 0.565935
O O8 0.898468 0.419762 0.824910
O O9 0.918659 0.312433 0.594212
O O10 0.541959 0.696620 0.620073
O O11 0.083460 0.416661 0.180636
O O12 0.958041 0.696615 0.620074
#
# Coordination Sequence:
#
# PCOD9279009 Si02
#       7
#     8   8   8   4   8   4   8
#     4   9  18  34  55  77 102 134 172 213 256 303
#     4   9  19  35  54  76 102 134 173 212 252 304
#     4   9  18  34  55  77 102 134 172 213 256 303
#     4  10  22  36  52  76 106 138 172 212 256 304
#     4   9  19  35  54  76 102 134 173 212 252 304
#     4  10  22  36  52  76 106 138 172 212 256 304
#     4  10  21  34  51  76 106 136 170 212 260 302
#
# _framework density 23.668299000000001
#
# number of rings (size 3 to 8) (size 9 to 14) (size 15 to 20)
#    0.000    2.667    0.000    0.500    0.000   10.667 
#    0.000    0.833    0.000    0.000    0.000    0.000 
#    0.000    0.000    0.000    0.000    0.000    0.000 
#
# Total GULP energy -134150.642493 kJ/mol
# GULP energy per Si atom -5589.610104 kJ/mol
# Density = 2.361443 g / cm^3
# Si number density = 23.668299 Si / 1000 Ang^3
#
#
#
# Elastic Constant Matrix: (Units=GPa)
#
#
# Indices 1 2 3 4 5 6 
#
# 1 54.7987 14.4295 31.6202 0.0000 -0.0059 0.0000
# 2 14.4295 71.1431 29.3025 0.0000 -0.0011 0.0000
# 3 31.6202 29.3025 100.6447 0.0000 -0.0009 0.0000
# 4 0.0000 0.0000 0.0000 57.8423 0.0000 -0.0004
# 5 -0.0059 -0.0011 -0.0009 0.0000 34.5164 0.0000
# 6 0.0000 0.0000 0.0000 -0.0004 0.0000 10.3632
#
#
#
# Elastic Compliance Matrix: (Units=1/GPa)
#
#
# Indices 1 2 3 4 5 6 
#
# 1 0.022508 -0.001878 -0.006525 0.000000 0.000004 0.000000
# 2 -0.001878 0.016128 -0.004106 0.000000 0.000000 0.000000
# 3 -0.006525 -0.004106 0.013181 0.000000 -0.000001 0.000000
# 4 0.000000 0.000000 0.000000 0.017288 0.000000 0.000001
# 5 0.000004 0.000000 -0.000001 0.000000 0.028972 0.000000
# 6 0.000000 0.000000 0.000000 0.000001 0.000000 0.096495
#
#
# Mechanical properties :
#
#
# Convention : Reuss Voigt Hill
#
# Bulk Modulus (GPa) = 37.31220 41.92121 39.61671
# Shear Modulus (GPa) = 21.87967 30.62668 26.25317
#
# Velocity S-wave (km/s) = 3.04374 3.60112 3.33410
# Velocity P-wave (km/s) = 5.30578 5.91956 5.62105
#
# Compressibility (1/GPa) = 0.02680088
#
# Stress axis : x y z
#
# Youngs Moduli (GPa) = 44.42869 62.00357 75.86534
#
# Poissons Ratio (x) = 0.11642 0.49500
# Poissons Ratio (y) = 0.08342 0.31148
# Poissons Ratio (z) = 0.28989 0.25457
#
# Static dielectric constant tensor:
#      x y z
#    x 1.857180 0.000000 0.000000 
#    y 0.000000 1.951370 0.000000 
#    z 0.000000 0.000000 1.935050 
# 
# From -- ./inp_files/39682.got.cif
#   From: 2010.05.17/outbox.cif.g08.bks.cpg/sg15_20_cif.got.tgz:39682.got - 2010.06.03 18:47:42.
